# generated using pymatgen
data_Co4B8H157C182N51(OF12)4
_symmetry_space_group_name_H-M   'P 1'
_cell_length_a   18.99640000
_cell_length_b   33.80560000
_cell_length_c   36.42190000
_cell_angle_alpha   90.00000000
_cell_angle_beta   90.00000000
_cell_angle_gamma   95.53600000
_symmetry_Int_Tables_number   1
_chemical_formula_structural   Co4B8H157C182N51(OF12)4
_chemical_formula_sum   'Co16 B32 H628 C728 N204 O16 F192'
_cell_volume   23280.49274528
_cell_formula_units_Z   4
loop_
 _symmetry_equiv_pos_site_id
 _symmetry_equiv_pos_as_xyz
  1  'x, y, z'
loop_
 _atom_site_type_symbol
 _atom_site_label
 _atom_site_symmetry_multiplicity
 _atom_site_fract_x
 _atom_site_fract_y
 _atom_site_fract_z
 _atom_site_occupancy
  Co  Co1  1  0.787440  0.842340  0.341120  1
  Co  Co2  1  0.212560  0.657660  0.841120  1
  Co  Co3  1  0.212560  0.157660  0.658880  1
  Co  Co4  1  0.787440  0.342340  0.158880  1
  Co  Co5  1  0.353740  0.871850  0.255860  1
  Co  Co6  1  0.646260  0.628150  0.755860  1
  Co  Co7  1  0.646260  0.128150  0.744140  1
  Co  Co8  1  0.353740  0.371850  0.244140  1
  Co  Co9  1  0.991930  0.613940  0.123180  1
  Co  Co10  1  0.008070  0.886060  0.623180  1
  Co  Co11  1  0.008070  0.386060  0.876820  1
  Co  Co12  1  0.991930  0.113940  0.376820  1
  Co  Co13  1  0.222800  0.618030  0.440620  1
  Co  Co14  1  0.777200  0.881970  0.940620  1
  Co  Co15  1  0.777200  0.381970  0.559380  1
  Co  Co16  1  0.222800  0.118030  0.059380  1
  B  B17  1  0.953800  0.849500  0.201500  1
  B  B18  1  0.046200  0.650500  0.701500  1
  B  B19  1  0.046200  0.150500  0.798500  1
  B  B20  1  0.953800  0.349500  0.298500  1
  B  B21  1  0.800700  0.704900  0.936300  1
  B  B22  1  0.199300  0.795100  0.436300  1
  B  B23  1  0.199300  0.295100  0.063700  1
  B  B24  1  0.800700  0.204900  0.563700  1
  B  B25  1  0.538300  0.774700  0.440400  1
  B  B26  1  0.461700  0.725300  0.940400  1
  B  B27  1  0.461700  0.225300  0.559600  1
  B  B28  1  0.538300  0.274700  0.059600  1
  B  B29  1  0.725500  0.837400  0.690300  1
  B  B30  1  0.274500  0.662600  0.190300  1
  B  B31  1  0.274500  0.162600  0.309700  1
  B  B32  1  0.725500  0.337400  0.809700  1
  B  B33  1  0.715900  0.997500  0.390600  1
  B  B34  1  0.284100  0.502500  0.890600  1
  B  B35  1  0.284100  0.002500  0.609400  1
  B  B36  1  0.715900  0.497500  0.109400  1
  B  B37  1  0.861700  0.746100  0.782800  1
  B  B38  1  0.138300  0.753900  0.282800  1
  B  B39  1  0.138300  0.253900  0.217200  1
  B  B40  1  0.861700  0.246100  0.717200  1
  B  B41  1  0.575300  0.970700  0.221800  1
  B  B42  1  0.424700  0.529300  0.721800  1
  B  B43  1  0.424700  0.029300  0.778200  1
  B  B44  1  0.575300  0.470700  0.278200  1
  B  B45  1  0.150600  0.438300  0.482700  1
  B  B46  1  0.849400  0.061700  0.982700  1
  B  B47  1  0.849400  0.561700  0.517300  1
  B  B48  1  0.150600  0.938300  0.017300  1
  H  H49  1  0.637200  0.828900  0.385400  1
  H  H50  1  0.362800  0.671100  0.885400  1
  H  H51  1  0.362800  0.171100  0.614600  1
  H  H52  1  0.637200  0.328900  0.114600  1
  H  H53  1  0.537700  0.859300  0.391800  1
  H  H54  1  0.462300  0.640700  0.891800  1
  H  H55  1  0.462300  0.140700  0.608200  1
  H  H56  1  0.537700  0.359300  0.108200  1
  H  H57  1  0.601600  0.934300  0.314000  1
  H  H58  1  0.398400  0.565700  0.814000  1
  H  H59  1  0.398400  0.065700  0.686000  1
  H  H60  1  0.601600  0.434300  0.186000  1
  H  H61  1  0.827300  0.958600  0.247500  1
  H  H62  1  0.172700  0.541400  0.747500  1
  H  H63  1  0.172700  0.041400  0.752500  1
  H  H64  1  0.827300  0.458600  0.252500  1
  H  H65  1  0.700300  0.955000  0.267800  1
  H  H66  1  0.299700  0.545000  0.767800  1
  H  H67  1  0.299700  0.045000  0.732200  1
  H  H68  1  0.700300  0.455000  0.232200  1
  H  H69  1  0.935100  0.920300  0.262900  1
  H  H70  1  0.064900  0.579700  0.762900  1
  H  H71  1  0.064900  0.079700  0.737100  1
  H  H72  1  0.935100  0.420300  0.237100  1
  H  H73  1  0.918000  0.880800  0.285100  1
  H  H74  1  0.082000  0.619200  0.785100  1
  H  H75  1  0.082000  0.119200  0.714900  1
  H  H76  1  0.918000  0.380800  0.214900  1
  H  H77  1  0.505800  0.878400  0.216400  1
  H  H78  1  0.494200  0.621600  0.716400  1
  H  H79  1  0.494200  0.121600  0.783600  1
  H  H80  1  0.505800  0.378400  0.283600  1
  H  H81  1  0.613300  0.856100  0.226400  1
  H  H82  1  0.386700  0.643900  0.726400  1
  H  H83  1  0.386700  0.143900  0.773600  1
  H  H84  1  0.613300  0.356100  0.273600  1
  H  H85  1  0.545000  0.803700  0.315700  1
  H  H86  1  0.455000  0.696300  0.815700  1
  H  H87  1  0.455000  0.196300  0.684300  1
  H  H88  1  0.545000  0.303700  0.184300  1
  H  H89  1  0.323000  0.800800  0.384000  1
  H  H90  1  0.677000  0.699200  0.884000  1
  H  H91  1  0.677000  0.199200  0.616000  1
  H  H92  1  0.323000  0.300800  0.116000  1
  H  H93  1  0.446800  0.797100  0.362600  1
  H  H94  1  0.553200  0.702900  0.862600  1
  H  H95  1  0.553200  0.202900  0.637400  1
  H  H96  1  0.446800  0.297100  0.137400  1
  H  H97  1  0.207700  0.816000  0.349000  1
  H  H98  1  0.792300  0.684000  0.849000  1
  H  H99  1  0.792300  0.184000  0.651000  1
  H  H100  1  0.207700  0.316000  0.151000  1
  H  H101  1  0.217100  0.833300  0.309300  1
  H  H102  1  0.782900  0.666700  0.809300  1
  H  H103  1  0.782900  0.166700  0.690700  1
  H  H104  1  0.217100  0.333300  0.190700  1
  H  H105  1  0.319300  0.895900  0.367000  1
  H  H106  1  0.680700  0.604100  0.867000  1
  H  H107  1  0.680700  0.104100  0.633000  1
  H  H108  1  0.319300  0.395900  0.133000  1
  H  H109  1  0.290500  0.957100  0.385800  1
  H  H110  1  0.709500  0.542900  0.885800  1
  H  H111  1  0.709500  0.042900  0.614200  1
  H  H112  1  0.290500  0.457100  0.114200  1
  H  H113  1  0.178600  0.974800  0.380800  1
  H  H114  1  0.821400  0.525200  0.880800  1
  H  H115  1  0.821400  0.025200  0.619200  1
  H  H116  1  0.178600  0.474800  0.119200  1
  H  H117  1  0.119100  0.869200  0.334200  1
  H  H118  1  0.880900  0.630800  0.834200  1
  H  H119  1  0.880900  0.130800  0.665800  1
  H  H120  1  0.119100  0.369200  0.165800  1
  H  H121  1  0.040200  0.902400  0.306900  1
  H  H122  1  0.959800  0.597600  0.806900  1
  H  H123  1  0.959800  0.097600  0.693100  1
  H  H124  1  0.040200  0.402400  0.193100  1
  H  H125  1  0.060000  0.973500  0.394100  1
  H  H126  1  0.940000  0.526500  0.894100  1
  H  H127  1  0.940000  0.026500  0.605900  1
  H  H128  1  0.060000  0.473500  0.105900  1
  H  H129  1  0.945500  0.987900  0.386600  1
  H  H130  1  0.054500  0.512100  0.886600  1
  H  H131  1  0.054500  0.012100  0.613400  1
  H  H132  1  0.945500  0.487900  0.113400  1
  H  H133  1  0.877500  0.960800  0.338100  1
  H  H134  1  0.122500  0.539200  0.838100  1
  H  H135  1  0.122500  0.039200  0.661900  1
  H  H136  1  0.877500  0.460800  0.161900  1
  H  H137  1  0.745100  0.906600  0.399800  1
  H  H138  1  0.254900  0.593400  0.899800  1
  H  H139  1  0.254900  0.093400  0.600200  1
  H  H140  1  0.745100  0.406600  0.100200  1
  H  H141  1  0.799700  0.943200  0.447600  1
  H  H142  1  0.200300  0.556800  0.947600  1
  H  H143  1  0.200300  0.056800  0.552400  1
  H  H144  1  0.799700  0.443200  0.052400  1
  H  H145  1  0.971000  0.889500  0.432500  1
  H  H146  1  0.029000  0.610500  0.932500  1
  H  H147  1  0.029000  0.110500  0.567500  1
  H  H148  1  0.971000  0.389500  0.067500  1
  H  H149  1  0.038500  0.791800  0.344000  1
  H  H150  1  0.961500  0.708200  0.844000  1
  H  H151  1  0.961500  0.208200  0.656000  1
  H  H152  1  0.038500  0.291800  0.156000  1
  H  H153  1  0.024100  0.833000  0.399300  1
  H  H154  1  0.975900  0.667000  0.899300  1
  H  H155  1  0.975900  0.167000  0.600700  1
  H  H156  1  0.024100  0.333000  0.100700  1
  H  H157  1  0.979100  0.791200  0.279800  1
  H  H158  1  0.020900  0.708800  0.779800  1
  H  H159  1  0.020900  0.208800  0.720200  1
  H  H160  1  0.979100  0.291200  0.220200  1
  H  H161  1  0.908700  0.811300  0.276800  1
  H  H162  1  0.091300  0.688700  0.776800  1
  H  H163  1  0.091300  0.188700  0.723200  1
  H  H164  1  0.908700  0.311300  0.223200  1
  H  H165  1  0.146600  0.584300  0.129000  1
  H  H166  1  0.853400  0.915700  0.629000  1
  H  H167  1  0.853400  0.415700  0.871000  1
  H  H168  1  0.146600  0.084300  0.371000  1
  H  H169  1  0.204900  0.542400  0.166300  1
  H  H170  1  0.795100  0.957600  0.666300  1
  H  H171  1  0.795100  0.457600  0.833700  1
  H  H172  1  0.204900  0.042400  0.333700  1
  H  H173  1  0.033100  0.514300  0.220100  1
  H  H174  1  0.966900  0.985700  0.720100  1
  H  H175  1  0.966900  0.485700  0.779900  1
  H  H176  1  0.033100  0.014300  0.279900  1
  H  H177  1  0.786400  0.546100  0.203400  1
  H  H178  1  0.213600  0.953900  0.703400  1
  H  H179  1  0.213600  0.453900  0.796600  1
  H  H180  1  0.786400  0.046100  0.296600  1
  H  H181  1  0.897300  0.522600  0.224400  1
  H  H182  1  0.102700  0.977400  0.724400  1
  H  H183  1  0.102700  0.477400  0.775600  1
  H  H184  1  0.897300  0.022600  0.275600  1
  H  H185  1  0.750200  0.587100  0.147900  1
  H  H186  1  0.249800  0.912900  0.647900  1
  H  H187  1  0.249800  0.412900  0.852100  1
  H  H188  1  0.750200  0.087100  0.352100  1
  H  H189  1  0.809200  0.599800  0.119100  1
  H  H190  1  0.190800  0.900200  0.619100  1
  H  H191  1  0.190800  0.400200  0.880900  1
  H  H192  1  0.809200  0.099800  0.380900  1
  H  H193  1  0.759700  0.663100  0.109500  1
  H  H194  1  0.240300  0.836900  0.609500  1
  H  H195  1  0.240300  0.336900  0.890500  1
  H  H196  1  0.759700  0.163100  0.390500  1
  H  H197  1  0.762700  0.728500  0.128000  1
  H  H198  1  0.237300  0.771500  0.628000  1
  H  H199  1  0.237300  0.271500  0.872000  1
  H  H200  1  0.762700  0.228500  0.372000  1
  H  H201  1  0.797500  0.747700  0.186500  1
  H  H202  1  0.202500  0.752300  0.686500  1
  H  H203  1  0.202500  0.252300  0.813500  1
  H  H204  1  0.797500  0.247700  0.313500  1
  H  H205  1  0.831900  0.635100  0.208300  1
  H  H206  1  0.168100  0.864900  0.708300  1
  H  H207  1  0.168100  0.364900  0.791700  1
  H  H208  1  0.831900  0.135100  0.291700  1
  H  H209  1  0.890400  0.732800  0.338600  1
  H  H210  1  0.109600  0.767200  0.838600  1
  H  H211  1  0.109600  0.267200  0.661400  1
  H  H212  1  0.890400  0.232800  0.161400  1
  H  H213  1  0.828000  0.672200  0.327000  1
  H  H214  1  0.172000  0.827800  0.827000  1
  H  H215  1  0.172000  0.327800  0.673000  1
  H  H216  1  0.828000  0.172200  0.173000  1
  H  H217  1  0.794900  0.653600  0.267900  1
  H  H218  1  0.205100  0.846400  0.767900  1
  H  H219  1  0.205100  0.346400  0.732100  1
  H  H220  1  0.794900  0.153600  0.232100  1
  H  H221  1  0.884000  0.759400  0.231600  1
  H  H222  1  0.116000  0.740600  0.731600  1
  H  H223  1  0.116000  0.240600  0.768400  1
  H  H224  1  0.884000  0.259400  0.268400  1
  H  H225  1  0.779500  0.846400  0.252000  1
  H  H226  1  0.220500  0.653600  0.752000  1
  H  H227  1  0.220500  0.153600  0.748000  1
  H  H228  1  0.779500  0.346400  0.248000  1
  H  H229  1  0.729900  0.808100  0.206800  1
  H  H230  1  0.270100  0.691900  0.706800  1
  H  H231  1  0.270100  0.191900  0.793200  1
  H  H232  1  0.729900  0.308100  0.293200  1
  H  H233  1  0.669000  0.724800  0.275500  1
  H  H234  1  0.331000  0.775200  0.775500  1
  H  H235  1  0.331000  0.275200  0.724500  1
  H  H236  1  0.669000  0.224800  0.224500  1
  H  H237  1  0.666600  0.718500  0.409800  1
  H  H238  1  0.333400  0.781500  0.909800  1
  H  H239  1  0.333400  0.281500  0.590200  1
  H  H240  1  0.666600  0.218500  0.090200  1
  H  H241  1  0.654200  0.706100  0.342300  1
  H  H242  1  0.345800  0.793900  0.842300  1
  H  H243  1  0.345800  0.293900  0.657700  1
  H  H244  1  0.654200  0.206100  0.157700  1
  H  H245  1  0.721700  0.774200  0.450200  1
  H  H246  1  0.278300  0.725800  0.950200  1
  H  H247  1  0.278300  0.225800  0.549800  1
  H  H248  1  0.721700  0.274200  0.049800  1
  H  H249  1  0.745100  0.814600  0.430500  1
  H  H250  1  0.254900  0.685400  0.930500  1
  H  H251  1  0.254900  0.185400  0.569500  1
  H  H252  1  0.745100  0.314600  0.069500  1
  H  H253  1  0.345800  0.558400  0.454800  1
  H  H254  1  0.654200  0.941600  0.954800  1
  H  H255  1  0.654200  0.441600  0.545200  1
  H  H256  1  0.345800  0.058400  0.045200  1
  H  H257  1  0.428400  0.531600  0.420300  1
  H  H258  1  0.571600  0.968400  0.920300  1
  H  H259  1  0.571600  0.468400  0.579700  1
  H  H260  1  0.428400  0.031600  0.079700  1
  H  H261  1  0.365300  0.582500  0.333333  1
  H  H262  1  0.634700  0.917500  0.833333  1
  H  H263  1  0.634700  0.417500  0.666667  1
  H  H264  1  0.365300  0.082500  0.166667  1
  H  H265  1  0.188200  0.674900  0.309300  1
  H  H266  1  0.811800  0.825100  0.809300  1
  H  H267  1  0.811800  0.325100  0.690700  1
  H  H268  1  0.188200  0.174900  0.190700  1
  H  H269  1  0.271200  0.623100  0.304700  1
  H  H270  1  0.728800  0.876900  0.804700  1
  H  H271  1  0.728800  0.376900  0.695300  1
  H  H272  1  0.271200  0.123100  0.195300  1
  H  H273  1  0.158000  0.720200  0.363300  1
  H  H274  1  0.842000  0.779800  0.863300  1
  H  H275  1  0.842000  0.279800  0.636700  1
  H  H276  1  0.158000  0.220200  0.136700  1
  H  H277  1  0.174300  0.705800  0.403000  1
  H  H278  1  0.825700  0.794200  0.903000  1
  H  H279  1  0.825700  0.294200  0.597000  1
  H  H280  1  0.174300  0.205800  0.097000  1
  H  H281  1  0.057300  0.632000  0.363600  1
  H  H282  1  0.942700  0.868000  0.863600  1
  H  H283  1  0.942700  0.368000  0.636400  1
  H  H284  1  0.057300  0.132000  0.136400  1
  H  H285  1  0.937400  0.622800  0.374800  1
  H  H286  1  0.062600  0.877200  0.874800  1
  H  H287  1  0.062600  0.377200  0.625200  1
  H  H288  1  0.937400  0.122800  0.125200  1
  H  H289  1  0.881700  0.671300  0.405000  1
  H  H290  1  0.118300  0.828700  0.905000  1
  H  H291  1  0.118300  0.328700  0.595000  1
  H  H292  1  0.881700  0.171300  0.095000  1
  H  H293  1  0.064200  0.740000  0.410900  1
  H  H294  1  0.935800  0.760000  0.910900  1
  H  H295  1  0.935800  0.260000  0.589100  1
  H  H296  1  0.064200  0.240000  0.089100  1
  H  H297  1  0.845000  0.825600  0.473500  1
  H  H298  1  0.155000  0.674400  0.973500  1
  H  H299  1  0.155000  0.174400  0.526500  1
  H  H300  1  0.845000  0.325600  0.026500  1
  H  H301  1  0.961700  0.818700  0.484100  1
  H  H302  1  0.038300  0.681300  0.984100  1
  H  H303  1  0.038300  0.181300  0.515900  1
  H  H304  1  0.961700  0.318700  0.015900  1
  H  H305  1  0.014400  0.765900  0.459700  1
  H  H306  1  0.985600  0.734100  0.959700  1
  H  H307  1  0.985600  0.234100  0.540300  1
  H  H308  1  0.014400  0.265900  0.040300  1
  H  H309  1  0.835700  0.732700  0.404800  1
  H  H310  1  0.164300  0.767300  0.904800  1
  H  H311  1  0.164300  0.267300  0.595200  1
  H  H312  1  0.835700  0.232700  0.095200  1
  H  H313  1  0.468500  0.922900  0.307200  1
  H  H314  1  0.531500  0.577100  0.807200  1
  H  H315  1  0.531500  0.077100  0.692800  1
  H  H316  1  0.468500  0.422900  0.192800  1
  H  H317  1  0.475300  0.982000  0.338600  1
  H  H318  1  0.524700  0.518000  0.838600  1
  H  H319  1  0.524700  0.018000  0.661400  1
  H  H320  1  0.475300  0.482000  0.161400  1
  H  H321  1  0.290100  0.001700  0.302200  1
  H  H322  1  0.709900  0.498300  0.802200  1
  H  H323  1  0.709900  0.998300  0.697800  1
  H  H324  1  0.290100  0.501700  0.197800  1
  H  H325  1  0.099200  0.915700  0.243800  1
  H  H326  1  0.900800  0.584300  0.743800  1
  H  H327  1  0.900800  0.084300  0.756200  1
  H  H328  1  0.099200  0.415700  0.256200  1
  H  H329  1  0.173700  0.970000  0.274500  1
  H  H330  1  0.826300  0.530000  0.774500  1
  H  H331  1  0.826300  0.030000  0.725500  1
  H  H332  1  0.173700  0.470000  0.225500  1
  H  H333  1  0.116900  0.839400  0.233100  1
  H  H334  1  0.883100  0.660600  0.733100  1
  H  H335  1  0.883100  0.160600  0.766900  1
  H  H336  1  0.116900  0.339400  0.266900  1
  H  H337  1  0.195400  0.828700  0.233500  1
  H  H338  1  0.804600  0.671300  0.733500  1
  H  H339  1  0.804600  0.171300  0.766500  1
  H  H340  1  0.195400  0.328700  0.266500  1
  H  H341  1  0.869300  0.547300  0.093900  1
  H  H342  1  0.130700  0.952700  0.593900  1
  H  H343  1  0.130700  0.452700  0.906100  1
  H  H344  1  0.869300  0.047300  0.406100  1
  H  H345  1  0.844200  0.513300  0.040000  1
  H  H346  1  0.155800  0.986700  0.540000  1
  H  H347  1  0.155800  0.486700  0.960000  1
  H  H348  1  0.844200  0.013300  0.460000  1
  H  H349  1  0.026600  0.550600  0.000600  1
  H  H350  1  0.973400  0.949400  0.500600  1
  H  H351  1  0.973400  0.449400  0.999400  1
  H  H352  1  0.026600  0.050600  0.499400  1
  H  H353  1  0.223900  0.642200  0.046400  1
  H  H354  1  0.776100  0.857800  0.546400  1
  H  H355  1  0.776100  0.357800  0.953600  1
  H  H356  1  0.223900  0.142200  0.453600  1
  H  H357  1  0.147100  0.590700  0.013700  1
  H  H358  1  0.852900  0.909300  0.513700  1
  H  H359  1  0.852900  0.409300  0.986300  1
  H  H360  1  0.147100  0.090700  0.486300  1
  H  H361  1  0.213300  0.680900  0.108700  1
  H  H362  1  0.786700  0.819100  0.608700  1
  H  H363  1  0.786700  0.319100  0.891300  1
  H  H364  1  0.213300  0.180900  0.391300  1
  H  H365  1  0.143500  0.671100  0.131300  1
  H  H366  1  0.856500  0.828900  0.631300  1
  H  H367  1  0.856500  0.328900  0.868700  1
  H  H368  1  0.143500  0.171100  0.368700  1
  H  H369  1  0.085800  0.695100  0.046700  1
  H  H370  1  0.914200  0.804900  0.546700  1
  H  H371  1  0.914200  0.304900  0.953300  1
  H  H372  1  0.085800  0.195100  0.453300  1
  H  H373  1  0.049100  0.755100  0.028800  1
  H  H374  1  0.950900  0.744900  0.528800  1
  H  H375  1  0.950900  0.244900  0.971200  1
  H  H376  1  0.049100  0.255100  0.471200  1
  H  H377  1  0.079900  0.811500  0.060800  1
  H  H378  1  0.920100  0.688500  0.560800  1
  H  H379  1  0.920100  0.188500  0.939200  1
  H  H380  1  0.079900  0.311500  0.439200  1
  H  H381  1  0.175600  0.748100  0.136600  1
  H  H382  1  0.824400  0.751900  0.636600  1
  H  H383  1  0.824400  0.251900  0.863400  1
  H  H384  1  0.175600  0.248100  0.363400  1
  H  H385  1  0.200200  0.912700  0.181900  1
  H  H386  1  0.799800  0.587300  0.681900  1
  H  H387  1  0.799800  0.087300  0.818100  1
  H  H388  1  0.200200  0.412700  0.318100  1
  H  H389  1  0.199700  0.916000  0.117600  1
  H  H390  1  0.800300  0.584000  0.617600  1
  H  H391  1  0.800300  0.084000  0.882400  1
  H  H392  1  0.199700  0.416000  0.382400  1
  H  H393  1  0.164900  0.861900  0.083000  1
  H  H394  1  0.835100  0.638100  0.583000  1
  H  H395  1  0.835100  0.138100  0.917000  1
  H  H396  1  0.164900  0.361900  0.417000  1
  H  H397  1  0.137600  0.796300  0.175300  1
  H  H398  1  0.862400  0.703700  0.675300  1
  H  H399  1  0.862400  0.203700  0.824700  1
  H  H400  1  0.137600  0.296300  0.324700  1
  H  H401  1  0.401000  0.961600  0.223500  1
  H  H402  1  0.599000  0.538400  0.723500  1
  H  H403  1  0.599000  0.038400  0.776500  1
  H  H404  1  0.401000  0.461600  0.276500  1
  H  H405  1  0.407900  0.992200  0.168600  1
  H  H406  1  0.592100  0.507800  0.668600  1
  H  H407  1  0.592100  0.007800  0.831400  1
  H  H408  1  0.407900  0.492200  0.331400  1
  H  H409  1  0.357900  0.890700  0.118900  1
  H  H410  1  0.642100  0.609300  0.618900  1
  H  H411  1  0.642100  0.109300  0.881100  1
  H  H412  1  0.357900  0.390700  0.381100  1
  H  H413  1  0.307600  0.754300  0.162700  1
  H  H414  1  0.692400  0.745700  0.662700  1
  H  H415  1  0.692400  0.245700  0.837300  1
  H  H416  1  0.307600  0.254300  0.337300  1
  H  H417  1  0.338300  0.817200  0.126800  1
  H  H418  1  0.661700  0.682800  0.626800  1
  H  H419  1  0.661700  0.182800  0.873200  1
  H  H420  1  0.338300  0.317200  0.373200  1
  H  H421  1  0.279200  0.739600  0.232500  1
  H  H422  1  0.720800  0.760400  0.732500  1
  H  H423  1  0.720800  0.260400  0.767500  1
  H  H424  1  0.279200  0.239600  0.267500  1
  H  H425  1  0.291700  0.775700  0.259500  1
  H  H426  1  0.708300  0.724300  0.759500  1
  H  H427  1  0.708300  0.224300  0.740500  1
  H  H428  1  0.291700  0.275700  0.240500  1
  H  H429  1  0.169400  0.541500  0.490700  1
  H  H430  1  0.830600  0.958500  0.990700  1
  H  H431  1  0.830600  0.458500  0.509300  1
  H  H432  1  0.169400  0.041500  0.009300  1
  H  H433  1  0.193000  0.515800  0.547500  1
  H  H434  1  0.807000  0.984200  0.047500  1
  H  H435  1  0.807000  0.484200  0.452500  1
  H  H436  1  0.193000  0.015800  0.952500  1
  H  H437  1  0.328800  0.606200  0.565900  1
  H  H438  1  0.671200  0.893800  0.065900  1
  H  H439  1  0.671200  0.393800  0.434100  1
  H  H440  1  0.328800  0.106200  0.934100  1
  H  H441  1  0.425000  0.719600  0.493200  1
  H  H442  1  0.575000  0.780400  0.993200  1
  H  H443  1  0.575000  0.280400  0.506800  1
  H  H444  1  0.425000  0.219600  0.006800  1
  H  H445  1  0.393600  0.667900  0.541700  1
  H  H446  1  0.606400  0.832100  0.041700  1
  H  H447  1  0.606400  0.332100  0.458300  1
  H  H448  1  0.393600  0.167900  0.958300  1
  H  H449  1  0.369900  0.734900  0.429900  1
  H  H450  1  0.630100  0.765100  0.929900  1
  H  H451  1  0.630100  0.265100  0.570100  1
  H  H452  1  0.369900  0.234900  0.070100  1
  H  H453  1  0.304500  0.706800  0.417000  1
  H  H454  1  0.695500  0.793200  0.917000  1
  H  H455  1  0.695500  0.293200  0.583000  1
  H  H456  1  0.304500  0.206800  0.083000  1
  H  H457  1  0.448600  0.652200  0.430300  1
  H  H458  1  0.551400  0.847800  0.930300  1
  H  H459  1  0.551400  0.347800  0.569700  1
  H  H460  1  0.448600  0.152200  0.069700  1
  H  H461  1  0.519100  0.630100  0.384300  1
  H  H462  1  0.480900  0.869900  0.884300  1
  H  H463  1  0.480900  0.369900  0.615700  1
  H  H464  1  0.519100  0.130100  0.115700  1
  H  H465  1  0.515300  0.655200  0.326300  1
  H  H466  1  0.484700  0.844800  0.826300  1
  H  H467  1  0.484700  0.344800  0.673700  1
  H  H468  1  0.515300  0.155200  0.173700  1
  H  H469  1  0.364200  0.723300  0.357300  1
  H  H470  1  0.635800  0.776700  0.857300  1
  H  H471  1  0.635800  0.276700  0.642700  1
  H  H472  1  0.364200  0.223300  0.142700  1
  H  H473  1  0.444300  0.765400  0.208700  1
  H  H474  1  0.555700  0.734600  0.708700  1
  H  H475  1  0.555700  0.234600  0.791300  1
  H  H476  1  0.444300  0.265400  0.291300  1
  H  H477  1  0.544000  0.740000  0.230700  1
  H  H478  1  0.456000  0.760000  0.730700  1
  H  H479  1  0.456000  0.260000  0.769300  1
  H  H480  1  0.544000  0.240000  0.269300  1
  H  H481  1  0.541900  0.706900  0.285600  1
  H  H482  1  0.458100  0.793100  0.785600  1
  H  H483  1  0.458100  0.293100  0.714400  1
  H  H484  1  0.541900  0.206900  0.214400  1
  H  H485  1  0.338800  0.724400  0.298300  1
  H  H486  1  0.661200  0.775600  0.798300  1
  H  H487  1  0.661200  0.275600  0.701700  1
  H  H488  1  0.338800  0.224400  0.201700  1
  H  H489  1  0.897400  0.629500  0.051800  1
  H  H490  1  0.102600  0.870500  0.551800  1
  H  H491  1  0.102600  0.370500  0.948200  1
  H  H492  1  0.897400  0.129500  0.448200  1
  H  H493  1  0.850500  0.682200  0.023200  1
  H  H494  1  0.149500  0.817800  0.523200  1
  H  H495  1  0.149500  0.317800  0.976800  1
  H  H496  1  0.850500  0.182200  0.476800  1
  H  H497  1  0.925200  0.751000  0.103600  1
  H  H498  1  0.074800  0.749000  0.603600  1
  H  H499  1  0.074800  0.249000  0.896400  1
  H  H500  1  0.925200  0.251000  0.396400  1
  H  H501  1  0.045200  0.729900  0.218300  1
  H  H502  1  0.954800  0.770100  0.718300  1
  H  H503  1  0.954800  0.270100  0.781700  1
  H  H504  1  0.045200  0.229900  0.281700  1
  H  H505  1  0.973300  0.752900  0.167700  1
  H  H506  1  0.026700  0.747100  0.667700  1
  H  H507  1  0.026700  0.247100  0.832300  1
  H  H508  1  0.973300  0.252900  0.332300  1
  H  H509  1  0.129300  0.673100  0.219800  1
  H  H510  1  0.870700  0.826900  0.719800  1
  H  H511  1  0.870700  0.326900  0.780200  1
  H  H512  1  0.129300  0.173100  0.280200  1
  H  H513  1  0.112900  0.638000  0.192300  1
  H  H514  1  0.887100  0.862000  0.692300  1
  H  H515  1  0.887100  0.362000  0.807700  1
  H  H516  1  0.112900  0.138000  0.307700  1
  H  H517  1  0.195000  0.700700  0.480400  1
  H  H518  1  0.805000  0.799300  0.980400  1
  H  H519  1  0.805000  0.299300  0.519600  1
  H  H520  1  0.195000  0.200700  0.019600  1
  H  H521  1  0.103700  0.728500  0.506800  1
  H  H522  1  0.896300  0.771500  0.006800  1
  H  H523  1  0.896300  0.271500  0.493200  1
  H  H524  1  0.103700  0.228500  0.993200  1
  H  H525  1  0.976600  0.633600  0.482500  1
  H  H526  1  0.023400  0.866400  0.982500  1
  H  H527  1  0.023400  0.366400  0.517500  1
  H  H528  1  0.976600  0.133600  0.017500  1
  H  H529  1  0.018300  0.506400  0.427300  1
  H  H530  1  0.981700  0.993600  0.927300  1
  H  H531  1  0.981700  0.493600  0.572700  1
  H  H532  1  0.018300  0.006400  0.072700  1
  H  H533  1  0.970300  0.563700  0.458800  1
  H  H534  1  0.029700  0.936300  0.958800  1
  H  H535  1  0.029700  0.436300  0.541200  1
  H  H536  1  0.970300  0.063700  0.041200  1
  H  H537  1  0.142000  0.489200  0.407300  1
  H  H538  1  0.858000  0.010800  0.907300  1
  H  H539  1  0.858000  0.510800  0.592700  1
  H  H540  1  0.142000  0.989200  0.092700  1
  H  H541  1  0.205000  0.521400  0.415600  1
  H  H542  1  0.795000  0.978600  0.915600  1
  H  H543  1  0.795000  0.478600  0.584400  1
  H  H544  1  0.205000  0.021400  0.084400  1
  H  H545  1  0.084100  0.559300  0.358100  1
  H  H546  1  0.915900  0.940700  0.858100  1
  H  H547  1  0.915900  0.440700  0.641900  1
  H  H548  1  0.084100  0.059300  0.141900  1
  H  H549  1  0.184900  0.543000  0.263800  1
  H  H550  1  0.815100  0.957000  0.763800  1
  H  H551  1  0.815100  0.457000  0.736200  1
  H  H552  1  0.184900  0.043000  0.236200  1
  H  H553  1  0.262000  0.506100  0.294500  1
  H  H554  1  0.738000  0.993900  0.794500  1
  H  H555  1  0.738000  0.493900  0.705500  1
  H  H556  1  0.262000  0.006100  0.205500  1
  H  H557  1  0.249400  0.494300  0.356800  1
  H  H558  1  0.750600  0.005700  0.856800  1
  H  H559  1  0.750600  0.505700  0.643200  1
  H  H560  1  0.249400  0.994300  0.143200  1
  H  H561  1  0.960700  0.645800  0.239500  1
  H  H562  1  0.039300  0.854200  0.739500  1
  H  H563  1  0.039300  0.354200  0.760500  1
  H  H564  1  0.960700  0.145800  0.260500  1
  H  H565  1  0.918000  0.607000  0.288600  1
  H  H566  1  0.082000  0.893000  0.788600  1
  H  H567  1  0.082000  0.393000  0.711400  1
  H  H568  1  0.918000  0.107000  0.211400  1
  H  H569  1  0.989200  0.565300  0.316900  1
  H  H570  1  0.010800  0.934700  0.816900  1
  H  H571  1  0.010800  0.434700  0.683100  1
  H  H572  1  0.989200  0.065300  0.183100  1
  H  H573  1  0.148700  0.605600  0.251600  1
  H  H574  1  0.851300  0.894400  0.751600  1
  H  H575  1  0.851300  0.394400  0.748400  1
  H  H576  1  0.148700  0.105600  0.248400  1
  H  H577  1  0.060700  0.928000  0.176700  1
  H  H578  1  0.939300  0.572000  0.676700  1
  H  H579  1  0.939300  0.072000  0.823300  1
  H  H580  1  0.060700  0.428000  0.323300  1
  H  H581  1  0.080200  0.971400  0.162300  1
  H  H582  1  0.919800  0.528600  0.662300  1
  H  H583  1  0.919800  0.028600  0.837700  1
  H  H584  1  0.080200  0.471400  0.337700  1
  H  H585  1  0.012700  0.946200  0.147300  1
  H  H586  1  0.987300  0.553800  0.647300  1
  H  H587  1  0.987300  0.053800  0.852700  1
  H  H588  1  0.012700  0.446200  0.352700  1
  H  H589  1  0.572800  0.847800  0.523400  1
  H  H590  1  0.427200  0.652200  0.023400  1
  H  H591  1  0.427200  0.152200  0.476600  1
  H  H592  1  0.572800  0.347800  0.976600  1
  H  H593  1  0.547600  0.864000  0.485700  1
  H  H594  1  0.452400  0.636000  0.985700  1
  H  H595  1  0.452400  0.136000  0.514300  1
  H  H596  1  0.547600  0.364000  0.014300  1
  H  H597  1  0.571500  0.893600  0.517400  1
  H  H598  1  0.428500  0.606400  0.017400  1
  H  H599  1  0.428500  0.106400  0.482600  1
  H  H600  1  0.571500  0.393600  0.982600  1
  H  H601  1  0.804200  0.560300  0.962000  1
  H  H602  1  0.195800  0.939700  0.462000  1
  H  H603  1  0.195800  0.439700  0.038000  1
  H  H604  1  0.804200  0.060300  0.538000  1
  H  H605  1  0.782600  0.598700  0.942600  1
  H  H606  1  0.217400  0.901300  0.442600  1
  H  H607  1  0.217400  0.401300  0.057400  1
  H  H608  1  0.782600  0.098700  0.557400  1
  H  H609  1  0.773000  0.593600  0.985200  1
  H  H610  1  0.227000  0.906400  0.485200  1
  H  H611  1  0.227000  0.406400  0.014800  1
  H  H612  1  0.773000  0.093600  0.514800  1
  H  H613  1  0.560900  0.677200  0.495900  1
  H  H614  1  0.439100  0.822800  0.995900  1
  H  H615  1  0.439100  0.322800  0.504100  1
  H  H616  1  0.560900  0.177200  0.004100  1
  H  H617  1  0.541200  0.686700  0.536500  1
  H  H618  1  0.458800  0.813300  0.036500  1
  H  H619  1  0.458800  0.313300  0.463500  1
  H  H620  1  0.541200  0.186700  0.963500  1
  H  H621  1  0.527200  0.643200  0.521400  1
  H  H622  1  0.472800  0.856800  0.021400  1
  H  H623  1  0.472800  0.356800  0.478600  1
  H  H624  1  0.527200  0.143200  0.978600  1
  H  H625  1  0.753000  0.630900  0.517000  1
  H  H626  1  0.247000  0.869100  0.017000  1
  H  H627  1  0.247000  0.369100  0.483000  1
  H  H628  1  0.753000  0.130900  0.983000  1
  H  H629  1  0.762300  0.672400  0.536800  1
  H  H630  1  0.237700  0.827600  0.036800  1
  H  H631  1  0.237700  0.327600  0.463200  1
  H  H632  1  0.762300  0.172400  0.963200  1
  H  H633  1  0.848200  0.670100  0.491400  1
  H  H634  1  0.151800  0.829900  0.991400  1
  H  H635  1  0.151800  0.329900  0.508600  1
  H  H636  1  0.848200  0.170100  0.008600  1
  H  H637  1  0.798500  0.702900  0.481400  1
  H  H638  1  0.201500  0.797100  0.981400  1
  H  H639  1  0.201500  0.297100  0.518600  1
  H  H640  1  0.798500  0.202900  0.018600  1
  H  H641  1  0.789200  0.661500  0.461600  1
  H  H642  1  0.210800  0.838500  0.961600  1
  H  H643  1  0.210800  0.338500  0.538400  1
  H  H644  1  0.789200  0.161500  0.038400  1
  H  H645  1  0.681200  0.965600  0.517400  1
  H  H646  1  0.318800  0.534400  0.017400  1
  H  H647  1  0.318800  0.034400  0.482600  1
  H  H648  1  0.681200  0.465600  0.982600  1
  H  H649  1  0.763100  0.963000  0.517600  1
  H  H650  1  0.236900  0.537000  0.017600  1
  H  H651  1  0.236900  0.037000  0.482400  1
  H  H652  1  0.763100  0.463000  0.982400  1
  H  H653  1  0.732100  0.001200  0.532400  1
  H  H654  1  0.267900  0.498800  0.032400  1
  H  H655  1  0.267900  0.998800  0.467600  1
  H  H656  1  0.732100  0.501200  0.967600  1
  H  H657  1  0.573000  0.879900  0.640900  1
  H  H658  1  0.427000  0.620100  0.140900  1
  H  H659  1  0.427000  0.120100  0.359100  1
  H  H660  1  0.573000  0.379900  0.859100  1
  H  H661  1  0.568900  0.872000  0.598500  1
  H  H662  1  0.431100  0.628000  0.098500  1
  H  H663  1  0.431100  0.128000  0.401500  1
  H  H664  1  0.568900  0.372000  0.901500  1
  H  H665  1  0.541300  0.910500  0.614800  1
  H  H666  1  0.458700  0.589500  0.114800  1
  H  H667  1  0.458700  0.089500  0.385200  1
  H  H668  1  0.541300  0.410500  0.885200  1
  H  H669  1  0.656400  0.934400  0.630900  1
  H  H670  1  0.343600  0.565600  0.130900  1
  H  H671  1  0.343600  0.065600  0.369100  1
  H  H672  1  0.656400  0.434400  0.869100  1
  H  H673  1  0.684600  0.895500  0.615500  1
  H  H674  1  0.315400  0.604500  0.115500  1
  H  H675  1  0.315400  0.104500  0.384500  1
  H  H676  1  0.684600  0.395500  0.884500  1
  C  C677  1  0.631200  0.851100  0.371000  1
  C  C678  1  0.368800  0.648900  0.871000  1
  C  C679  1  0.368800  0.148900  0.629000  1
  C  C680  1  0.631200  0.351100  0.129000  1
  C  C681  1  0.570700  0.868600  0.374200  1
  C  C682  1  0.429300  0.631400  0.874200  1
  C  C683  1  0.429300  0.131400  0.625800  1
  C  C684  1  0.570700  0.368600  0.125800  1
  C  C685  1  0.608300  0.912900  0.329200  1
  C  C686  1  0.391700  0.587100  0.829200  1
  C  C687  1  0.391700  0.087100  0.670800  1
  C  C688  1  0.608300  0.412900  0.170800  1
  C  C689  1  0.672800  0.895100  0.327340  1
  C  C690  1  0.327200  0.604900  0.827340  1
  C  C691  1  0.327200  0.104900  0.672660  1
  C  C692  1  0.672800  0.395100  0.172660  1
  C  C693  1  0.806100  0.941800  0.265400  1
  C  C694  1  0.193900  0.558200  0.765400  1
  C  C695  1  0.193900  0.058200  0.734600  1
  C  C696  1  0.806100  0.441800  0.234600  1
  C  C697  1  0.735700  0.940300  0.276500  1
  C  C698  1  0.264300  0.559700  0.776500  1
  C  C699  1  0.264300  0.059700  0.723500  1
  C  C700  1  0.735700  0.440300  0.223500  1
  C  C701  1  0.731300  0.911300  0.303800  1
  C  C702  1  0.268700  0.588700  0.803800  1
  C  C703  1  0.268700  0.088700  0.696200  1
  C  C704  1  0.731300  0.411300  0.196200  1
  C  C705  1  0.913100  0.909100  0.285090  1
  C  C706  1  0.086900  0.590900  0.785090  1
  C  C707  1  0.086900  0.090900  0.714910  1
  C  C708  1  0.913100  0.409100  0.214910  1
  C  C709  1  0.512800  0.863400  0.237300  1
  C  C710  1  0.487200  0.636600  0.737300  1
  C  C711  1  0.487200  0.136600  0.762700  1
  C  C712  1  0.512800  0.363400  0.262700  1
  C  C713  1  0.577600  0.849400  0.243300  1
  C  C714  1  0.422400  0.650600  0.743300  1
  C  C715  1  0.422400  0.150600  0.756700  1
  C  C716  1  0.577600  0.349400  0.256700  1
  C  C717  1  0.538300  0.819220  0.295180  1
  C  C718  1  0.461700  0.680780  0.795180  1
  C  C719  1  0.461700  0.180780  0.704820  1
  C  C720  1  0.538300  0.319220  0.204820  1
  C  C721  1  0.472500  0.833500  0.290000  1
  C  C722  1  0.527500  0.666500  0.790000  1
  C  C723  1  0.527500  0.166500  0.710000  1
  C  C724  1  0.472500  0.333500  0.210000  1
  C  C725  1  0.342000  0.809770  0.361610  1
  C  C726  1  0.658000  0.690230  0.861610  1
  C  C727  1  0.658000  0.190230  0.638390  1
  C  C728  1  0.342000  0.309770  0.138390  1
  C  C729  1  0.410600  0.807920  0.349990  1
  C  C730  1  0.589400  0.692080  0.849990  1
  C  C731  1  0.589400  0.192080  0.650010  1
  C  C732  1  0.410600  0.307920  0.150010  1
  C  C733  1  0.414400  0.825780  0.315300  1
  C  C734  1  0.585600  0.674220  0.815300  1
  C  C735  1  0.585600  0.174220  0.684700  1
  C  C736  1  0.414400  0.325780  0.184700  1
  C  C737  1  0.235000  0.835800  0.334220  1
  C  C738  1  0.765000  0.664200  0.834220  1
  C  C739  1  0.765000  0.164200  0.665780  1
  C  C740  1  0.235000  0.335800  0.165780  1
  C  C741  1  0.222600  0.876410  0.348520  1
  C  C742  1  0.777400  0.623590  0.848520  1
  C  C743  1  0.777400  0.123590  0.651480  1
  C  C744  1  0.222600  0.376410  0.151480  1
  C  C745  1  0.273300  0.902680  0.364150  1
  C  C746  1  0.726700  0.597320  0.864150  1
  C  C747  1  0.726700  0.097320  0.635850  1
  C  C748  1  0.273300  0.402680  0.135850  1
  C  C749  1  0.255700  0.939200  0.375570  1
  C  C750  1  0.744300  0.560800  0.875570  1
  C  C751  1  0.744300  0.060800  0.624430  1
  C  C752  1  0.255700  0.439200  0.124430  1
  C  C753  1  0.188700  0.950000  0.372390  1
  C  C754  1  0.811300  0.550000  0.872390  1
  C  C755  1  0.811300  0.050000  0.627610  1
  C  C756  1  0.188700  0.450000  0.127610  1
  C  C757  1  0.134700  0.924390  0.356620  1
  C  C758  1  0.865300  0.575610  0.856620  1
  C  C759  1  0.865300  0.075610  0.643380  1
  C  C760  1  0.134700  0.424390  0.143380  1
  C  C761  1  0.153500  0.887140  0.344770  1
  C  C762  1  0.846500  0.612860  0.844770  1
  C  C763  1  0.846500  0.112860  0.655230  1
  C  C764  1  0.153500  0.387140  0.155230  1
  C  C765  1  0.951600  0.927790  0.317900  1
  C  C766  1  0.048400  0.572210  0.817900  1
  C  C767  1  0.048400  0.072210  0.682100  1
  C  C768  1  0.951600  0.427790  0.182100  1
  C  C769  1  0.020800  0.919410  0.323280  1
  C  C770  1  0.979200  0.580590  0.823280  1
  C  C771  1  0.979200  0.080590  0.676720  1
  C  C772  1  0.020800  0.419410  0.176720  1
  C  C773  1  0.062400  0.935170  0.351870  1
  C  C774  1  0.937600  0.564830  0.851870  1
  C  C775  1  0.937600  0.064830  0.648130  1
  C  C776  1  0.062400  0.435170  0.148130  1
  C  C777  1  0.032900  0.961630  0.375040  1
  C  C778  1  0.967100  0.538370  0.875040  1
  C  C779  1  0.967100  0.038370  0.624960  1
  C  C780  1  0.032900  0.461630  0.124960  1
  C  C781  1  0.964600  0.970620  0.370360  1
  C  C782  1  0.035400  0.529380  0.870360  1
  C  C783  1  0.035400  0.029380  0.629640  1
  C  C784  1  0.964600  0.470620  0.129640  1
  C  C785  1  0.923400  0.954130  0.341450  1
  C  C786  1  0.076600  0.545870  0.841450  1
  C  C787  1  0.076600  0.045870  0.658550  1
  C  C788  1  0.923400  0.454130  0.158550  1
  C  C789  1  0.791100  0.902380  0.406420  1
  C  C790  1  0.208900  0.597620  0.906420  1
  C  C791  1  0.208900  0.097620  0.593580  1
  C  C792  1  0.791100  0.402380  0.093580  1
  C  C793  1  0.824600  0.924830  0.435340  1
  C  C794  1  0.175400  0.575170  0.935340  1
  C  C795  1  0.175400  0.075170  0.564660  1
  C  C796  1  0.824600  0.424830  0.064660  1
  C  C797  1  0.924600  0.893350  0.426430  1
  C  C798  1  0.075400  0.606650  0.926430  1
  C  C799  1  0.075400  0.106650  0.573570  1
  C  C800  1  0.924600  0.393350  0.073570  1
  C  C801  1  0.890700  0.871340  0.398110  1
  C  C802  1  0.109300  0.628660  0.898110  1
  C  C803  1  0.109300  0.128660  0.601890  1
  C  C804  1  0.890700  0.371340  0.101890  1
  C  C805  1  0.000000  0.805770  0.349430  1
  C  C806  1  0.000000  0.694230  0.849430  1
  C  C807  1  0.000000  0.194230  0.650570  1
  C  C808  1  0.000000  0.305770  0.150570  1
  C  C809  1  0.992500  0.828590  0.379970  1
  C  C810  1  0.007500  0.671410  0.879970  1
  C  C811  1  0.007500  0.171410  0.620030  1
  C  C812  1  0.992500  0.328590  0.120030  1
  C  C813  1  0.927200  0.843720  0.375830  1
  C  C814  1  0.072800  0.656280  0.875830  1
  C  C815  1  0.072800  0.156280  0.624170  1
  C  C816  1  0.927200  0.343720  0.124170  1
  C  C817  1  0.932700  0.792200  0.290700  1
  C  C818  1  0.067300  0.707800  0.790700  1
  C  C819  1  0.067300  0.207800  0.709300  1
  C  C820  1  0.932700  0.292200  0.209300  1
  C  C821  1  0.121800  0.570500  0.147800  1
  C  C822  1  0.878200  0.929500  0.647800  1
  C  C823  1  0.878200  0.429500  0.852200  1
  C  C824  1  0.121800  0.070500  0.352200  1
  C  C825  1  0.157300  0.544900  0.170400  1
  C  C826  1  0.842700  0.955100  0.670400  1
  C  C827  1  0.842700  0.455100  0.829600  1
  C  C828  1  0.157300  0.044900  0.329600  1
  C  C829  1  0.057700  0.528800  0.201720  1
  C  C830  1  0.942300  0.971200  0.701720  1
  C  C831  1  0.942300  0.471200  0.798280  1
  C  C832  1  0.057700  0.028800  0.298280  1
  C  C833  1  0.020800  0.554480  0.179780  1
  C  C834  1  0.979200  0.945520  0.679780  1
  C  C835  1  0.979200  0.445520  0.820220  1
  C  C836  1  0.020800  0.054480  0.320220  1
  C  C837  1  0.831100  0.553000  0.193600  1
  C  C838  1  0.168900  0.947000  0.693600  1
  C  C839  1  0.168900  0.447000  0.806400  1
  C  C840  1  0.831100  0.053000  0.306400  1
  C  C841  1  0.891800  0.540100  0.205200  1
  C  C842  1  0.108200  0.959900  0.705200  1
  C  C843  1  0.108200  0.459900  0.794800  1
  C  C844  1  0.891800  0.040100  0.294800  1
  C  C845  1  0.945200  0.557920  0.182730  1
  C  C846  1  0.054800  0.942080  0.682730  1
  C  C847  1  0.054800  0.442080  0.817270  1
  C  C848  1  0.945200  0.057920  0.317270  1
  C  C849  1  0.797600  0.600200  0.145000  1
  C  C850  1  0.202400  0.899800  0.645000  1
  C  C851  1  0.202400  0.399800  0.855000  1
  C  C852  1  0.797600  0.100200  0.355000  1
  C  C853  1  0.798000  0.643100  0.157400  1
  C  C854  1  0.202000  0.856900  0.657400  1
  C  C855  1  0.202000  0.356900  0.842600  1
  C  C856  1  0.798000  0.143100  0.342600  1
  C  C857  1  0.775200  0.670700  0.132900  1
  C  C858  1  0.224800  0.829300  0.632900  1
  C  C859  1  0.224800  0.329300  0.867100  1
  C  C860  1  0.775200  0.170700  0.367100  1
  C  C861  1  0.776400  0.709600  0.144300  1
  C  C862  1  0.223600  0.790400  0.644300  1
  C  C863  1  0.223600  0.290400  0.855700  1
  C  C864  1  0.776400  0.209600  0.355700  1
  C  C865  1  0.797500  0.721300  0.179500  1
  C  C866  1  0.202500  0.778700  0.679500  1
  C  C867  1  0.202500  0.278700  0.820500  1
  C  C868  1  0.797500  0.221300  0.320500  1
  C  C869  1  0.818800  0.693100  0.204420  1
  C  C870  1  0.181200  0.806900  0.704420  1
  C  C871  1  0.181200  0.306900  0.795580  1
  C  C872  1  0.818800  0.193100  0.295580  1
  C  C873  1  0.818100  0.654300  0.192230  1
  C  C874  1  0.181900  0.845700  0.692230  1
  C  C875  1  0.181900  0.345700  0.807770  1
  C  C876  1  0.818100  0.154300  0.307770  1
  C  C877  1  0.892500  0.752380  0.286420  1
  C  C878  1  0.107500  0.747620  0.786420  1
  C  C879  1  0.107500  0.247620  0.713580  1
  C  C880  1  0.892500  0.252380  0.213580  1
  C  C881  1  0.876500  0.726100  0.314700  1
  C  C882  1  0.123500  0.773900  0.814700  1
  C  C883  1  0.123500  0.273900  0.685300  1
  C  C884  1  0.876500  0.226100  0.185300  1
  C  C885  1  0.839700  0.689500  0.307700  1
  C  C886  1  0.160300  0.810500  0.807700  1
  C  C887  1  0.160300  0.310500  0.692300  1
  C  C888  1  0.839700  0.189500  0.192300  1
  C  C889  1  0.819900  0.678100  0.272240  1
  C  C890  1  0.180100  0.821900  0.772240  1
  C  C891  1  0.180100  0.321900  0.727760  1
  C  C892  1  0.819900  0.178100  0.227760  1
  C  C893  1  0.837900  0.704170  0.243140  1
  C  C894  1  0.162100  0.795830  0.743140  1
  C  C895  1  0.162100  0.295830  0.756860  1
  C  C896  1  0.837900  0.204170  0.256860  1
  C  C897  1  0.873300  0.741550  0.250720  1
  C  C898  1  0.126700  0.758450  0.750720  1
  C  C899  1  0.126700  0.258450  0.749280  1
  C  C900  1  0.873300  0.241550  0.249280  1
  C  C901  1  0.756700  0.821600  0.257820  1
  C  C902  1  0.243300  0.678400  0.757820  1
  C  C903  1  0.243300  0.178400  0.742180  1
  C  C904  1  0.756700  0.321600  0.242180  1
  C  C905  1  0.726700  0.798200  0.230650  1
  C  C906  1  0.273300  0.701800  0.730650  1
  C  C907  1  0.273300  0.201800  0.769350  1
  C  C908  1  0.726700  0.298200  0.269350  1
  C  C909  1  0.691200  0.749900  0.270300  1
  C  C910  1  0.308800  0.750100  0.770300  1
  C  C911  1  0.308800  0.250100  0.729700  1
  C  C912  1  0.691200  0.249900  0.229700  1
  C  C913  1  0.720900  0.773000  0.298870  1
  C  C914  1  0.279100  0.727000  0.798870  1
  C  C915  1  0.279100  0.227000  0.701130  1
  C  C916  1  0.720900  0.273000  0.201130  1
  C  C917  1  0.685600  0.735000  0.391100  1
  C  C918  1  0.314400  0.765000  0.891100  1
  C  C919  1  0.314400  0.265000  0.608900  1
  C  C920  1  0.685600  0.235000  0.108900  1
  C  C921  1  0.677900  0.728100  0.353800  1
  C  C922  1  0.322100  0.771900  0.853800  1
  C  C923  1  0.322100  0.271900  0.646200  1
  C  C924  1  0.677900  0.228100  0.146200  1
  C  C925  1  0.713200  0.761100  0.337500  1
  C  C926  1  0.286800  0.738900  0.837500  1
  C  C927  1  0.286800  0.238900  0.662500  1
  C  C928  1  0.713200  0.261100  0.162500  1
  C  C929  1  0.750400  0.786300  0.430440  1
  C  C930  1  0.249600  0.713700  0.930440  1
  C  C931  1  0.249600  0.213700  0.569560  1
  C  C932  1  0.750400  0.286300  0.069560  1
  C  C933  1  0.348100  0.563500  0.429800  1
  C  C934  1  0.651900  0.936500  0.929800  1
  C  C935  1  0.651900  0.436500  0.570200  1
  C  C936  1  0.348100  0.063500  0.070200  1
  C  C937  1  0.398200  0.547600  0.408600  1
  C  C938  1  0.601800  0.952400  0.908600  1
  C  C939  1  0.601800  0.452400  0.591400  1
  C  C940  1  0.398200  0.047600  0.091400  1
  C  C941  1  0.361700  0.577000  0.358300  1
  C  C942  1  0.638300  0.923000  0.858300  1
  C  C943  1  0.638300  0.423000  0.641700  1
  C  C944  1  0.361700  0.077000  0.141700  1
  C  C945  1  0.310100  0.593500  0.378800  1
  C  C946  1  0.689900  0.906500  0.878800  1
  C  C947  1  0.689900  0.406500  0.621200  1
  C  C948  1  0.310100  0.093500  0.121200  1
  C  C949  1  0.205600  0.661000  0.328760  1
  C  C950  1  0.794400  0.839000  0.828760  1
  C  C951  1  0.794400  0.339000  0.671240  1
  C  C952  1  0.205600  0.161000  0.171240  1
  C  C953  1  0.251600  0.632700  0.325990  1
  C  C954  1  0.748400  0.867300  0.825990  1
  C  C955  1  0.748400  0.367300  0.674010  1
  C  C956  1  0.251600  0.132700  0.174010  1
  C  C957  1  0.263000  0.621000  0.362900  1
  C  C958  1  0.737000  0.879000  0.862900  1
  C  C959  1  0.737000  0.379000  0.637100  1
  C  C960  1  0.263000  0.121000  0.137100  1
  C  C961  1  0.152100  0.697600  0.379800  1
  C  C962  1  0.847900  0.802400  0.879800  1
  C  C963  1  0.847900  0.302400  0.620200  1
  C  C964  1  0.152100  0.197600  0.120200  1
  C  C965  1  0.073500  0.687500  0.386560  1
  C  C966  1  0.926500  0.812500  0.886560  1
  C  C967  1  0.926500  0.312500  0.613440  1
  C  C968  1  0.073500  0.187500  0.113440  1
  C  C969  1  0.034700  0.651600  0.375400  1
  C  C970  1  0.965300  0.848400  0.875400  1
  C  C971  1  0.965300  0.348400  0.624600  1
  C  C972  1  0.034700  0.151600  0.124600  1
  C  C973  1  0.963400  0.646200  0.382200  1
  C  C974  1  0.036600  0.853800  0.882200  1
  C  C975  1  0.036600  0.353800  0.617800  1
  C  C976  1  0.963400  0.146200  0.117800  1
  C  C977  1  0.929800  0.675600  0.400100  1
  C  C978  1  0.070200  0.824400  0.900100  1
  C  C979  1  0.070200  0.324400  0.599900  1
  C  C980  1  0.929800  0.175600  0.099900  1
  C  C981  1  0.966200  0.710780  0.410580  1
  C  C982  1  0.033800  0.789220  0.910580  1
  C  C983  1  0.033800  0.289220  0.589420  1
  C  C984  1  0.966200  0.210780  0.089420  1
  C  C985  1  0.038800  0.716400  0.403730  1
  C  C986  1  0.961200  0.783600  0.903730  1
  C  C987  1  0.961200  0.283600  0.596270  1
  C  C988  1  0.038800  0.216400  0.096270  1
  C  C989  1  0.827200  0.780090  0.437220  1
  C  C990  1  0.172800  0.719910  0.937220  1
  C  C991  1  0.172800  0.219910  0.562780  1
  C  C992  1  0.827200  0.280090  0.062780  1
  C  C993  1  0.866400  0.805400  0.461830  1
  C  C994  1  0.133600  0.694600  0.961830  1
  C  C995  1  0.133600  0.194600  0.538170  1
  C  C996  1  0.866400  0.305400  0.038170  1
  C  C997  1  0.935700  0.800700  0.468830  1
  C  C998  1  0.064300  0.699300  0.968830  1
  C  C999  1  0.064300  0.199300  0.531170  1
  C  C1000  1  0.935700  0.300700  0.031170  1
  C  C1001  1  0.967900  0.769520  0.453610  1
  C  C1002  1  0.032100  0.730480  0.953610  1
  C  C1003  1  0.032100  0.230480  0.546390  1
  C  C1004  1  0.967900  0.269520  0.046390  1
  C  C1005  1  0.930900  0.743400  0.429100  1
  C  C1006  1  0.069100  0.756600  0.929100  1
  C  C1007  1  0.069100  0.256600  0.570900  1
  C  C1008  1  0.930900  0.243400  0.070900  1
  C  C1009  1  0.860900  0.749590  0.421290  1
  C  C1010  1  0.139100  0.750410  0.921290  1
  C  C1011  1  0.139100  0.250410  0.578710  1
  C  C1012  1  0.860900  0.249590  0.078710  1
  C  C1013  1  0.430800  0.938400  0.306300  1
  C  C1014  1  0.569200  0.561600  0.806300  1
  C  C1015  1  0.569200  0.061600  0.693700  1
  C  C1016  1  0.430800  0.438400  0.193700  1
  C  C1017  1  0.435600  0.974700  0.324300  1
  C  C1018  1  0.564400  0.525300  0.824300  1
  C  C1019  1  0.564400  0.025300  0.675700  1
  C  C1020  1  0.435600  0.474700  0.175700  1
  C  C1021  1  0.327200  0.985700  0.303800  1
  C  C1022  1  0.672800  0.514300  0.803800  1
  C  C1023  1  0.672800  0.014300  0.696200  1
  C  C1024  1  0.327200  0.485700  0.196200  1
  C  C1025  1  0.318000  0.948940  0.287290  1
  C  C1026  1  0.682000  0.551060  0.787290  1
  C  C1027  1  0.682000  0.051060  0.712710  1
  C  C1028  1  0.318000  0.448940  0.212710  1
  C  C1029  1  0.146400  0.915300  0.250540  1
  C  C1030  1  0.853600  0.584700  0.750540  1
  C  C1031  1  0.853600  0.084700  0.749460  1
  C  C1032  1  0.146400  0.415300  0.249460  1
  C  C1033  1  0.187300  0.945500  0.267110  1
  C  C1034  1  0.812700  0.554500  0.767110  1
  C  C1035  1  0.812700  0.054500  0.732890  1
  C  C1036  1  0.187300  0.445500  0.232890  1
  C  C1037  1  0.252800  0.932090  0.270580  1
  C  C1038  1  0.747200  0.567910  0.770580  1
  C  C1039  1  0.747200  0.067910  0.729420  1
  C  C1040  1  0.252800  0.432090  0.229420  1
  C  C1041  1  0.164900  0.848760  0.226120  1
  C  C1042  1  0.835100  0.651240  0.726120  1
  C  C1043  1  0.835100  0.151240  0.773880  1
  C  C1044  1  0.164900  0.348760  0.273880  1
  C  C1045  1  0.902100  0.549110  0.074890  1
  C  C1046  1  0.097900  0.950890  0.574890  1
  C  C1047  1  0.097900  0.450890  0.925110  1
  C  C1048  1  0.902100  0.049110  0.425110  1
  C  C1049  1  0.888100  0.527850  0.042500  1
  C  C1050  1  0.111900  0.972150  0.542500  1
  C  C1051  1  0.111900  0.472150  0.957500  1
  C  C1052  1  0.888100  0.027850  0.457500  1
  C  C1053  1  0.993000  0.549800  0.019240  1
  C  C1054  1  0.007000  0.950200  0.519240  1
  C  C1055  1  0.007000  0.450200  0.980760  1
  C  C1056  1  0.993000  0.049800  0.480760  1
  C  C1057  1  0.008300  0.572720  0.050550  1
  C  C1058  1  0.991700  0.927280  0.550550  1
  C  C1059  1  0.991700  0.427280  0.949450  1
  C  C1060  1  0.008300  0.072720  0.449450  1
  C  C1061  1  0.178400  0.632300  0.053080  1
  C  C1062  1  0.821600  0.867700  0.553080  1
  C  C1063  1  0.821600  0.367700  0.946920  1
  C  C1064  1  0.178400  0.132300  0.446920  1
  C  C1065  1  0.136400  0.604100  0.034970  1
  C  C1066  1  0.863600  0.895900  0.534970  1
  C  C1067  1  0.863600  0.395900  0.965030  1
  C  C1068  1  0.136400  0.104100  0.465030  1
  C  C1069  1  0.073200  0.599340  0.055210  1
  C  C1070  1  0.926800  0.900660  0.555210  1
  C  C1071  1  0.926800  0.400660  0.944790  1
  C  C1072  1  0.073200  0.099340  0.444790  1
  C  C1073  1  0.162100  0.677150  0.106920  1
  C  C1074  1  0.837900  0.822850  0.606920  1
  C  C1075  1  0.837900  0.322850  0.893080  1
  C  C1076  1  0.162100  0.177150  0.393080  1
  C  C1077  1  0.135600  0.714800  0.093850  1
  C  C1078  1  0.864400  0.785200  0.593850  1
  C  C1079  1  0.864400  0.285200  0.906150  1
  C  C1080  1  0.135600  0.214800  0.406150  1
  C  C1081  1  0.097000  0.717600  0.060980  1
  C  C1082  1  0.903000  0.782400  0.560980  1
  C  C1083  1  0.903000  0.282400  0.939020  1
  C  C1084  1  0.097000  0.217600  0.439020  1
  C  C1085  1  0.075900  0.753800  0.050100  1
  C  C1086  1  0.924100  0.746200  0.550100  1
  C  C1087  1  0.924100  0.246200  0.949900  1
  C  C1088  1  0.075900  0.253800  0.449900  1
  C  C1089  1  0.093000  0.787400  0.069400  1
  C  C1090  1  0.907000  0.712600  0.569400  1
  C  C1091  1  0.907000  0.212600  0.930600  1
  C  C1092  1  0.093000  0.287400  0.430600  1
  C  C1093  1  0.131100  0.786000  0.103040  1
  C  C1094  1  0.868900  0.714000  0.603040  1
  C  C1095  1  0.868900  0.214000  0.896960  1
  C  C1096  1  0.131100  0.286000  0.396960  1
  C  C1097  1  0.151200  0.749490  0.114540  1
  C  C1098  1  0.848800  0.750510  0.614540  1
  C  C1099  1  0.848800  0.250510  0.885460  1
  C  C1100  1  0.151200  0.249490  0.385460  1
  C  C1101  1  0.168400  0.853460  0.183780  1
  C  C1102  1  0.831600  0.646540  0.683780  1
  C  C1103  1  0.831600  0.146540  0.816220  1
  C  C1104  1  0.168400  0.353460  0.316220  1
  C  C1105  1  0.187400  0.890300  0.167770  1
  C  C1106  1  0.812600  0.609700  0.667770  1
  C  C1107  1  0.812600  0.109700  0.832230  1
  C  C1108  1  0.187400  0.390300  0.332230  1
  C  C1109  1  0.186500  0.891940  0.129220  1
  C  C1110  1  0.813500  0.608060  0.629220  1
  C  C1111  1  0.813500  0.108060  0.870780  1
  C  C1112  1  0.186500  0.391940  0.370780  1
  C  C1113  1  0.166900  0.859500  0.108460  1
  C  C1114  1  0.833100  0.640500  0.608460  1
  C  C1115  1  0.833100  0.140500  0.891540  1
  C  C1116  1  0.166900  0.359500  0.391540  1
  C  C1117  1  0.149500  0.822470  0.124900  1
  C  C1118  1  0.850500  0.677530  0.624900  1
  C  C1119  1  0.850500  0.177530  0.875100  1
  C  C1120  1  0.149500  0.322470  0.375100  1
  C  C1121  1  0.150000  0.820500  0.163600  1
  C  C1122  1  0.850000  0.679500  0.663600  1
  C  C1123  1  0.850000  0.179500  0.836400  1
  C  C1124  1  0.150000  0.320500  0.336400  1
  C  C1125  1  0.392100  0.946500  0.202420  1
  C  C1126  1  0.607900  0.553500  0.702420  1
  C  C1127  1  0.607900  0.053500  0.797580  1
  C  C1128  1  0.392100  0.446500  0.297580  1
  C  C1129  1  0.395900  0.964900  0.169400  1
  C  C1130  1  0.604100  0.535100  0.669400  1
  C  C1131  1  0.604100  0.035100  0.830600  1
  C  C1132  1  0.395900  0.464900  0.330600  1
  C  C1133  1  0.366600  0.905600  0.140220  1
  C  C1134  1  0.633400  0.594400  0.640220  1
  C  C1135  1  0.633400  0.094400  0.859780  1
  C  C1136  1  0.366600  0.405600  0.359780  1
  C  C1137  1  0.362400  0.886400  0.174060  1
  C  C1138  1  0.637600  0.613600  0.674060  1
  C  C1139  1  0.637600  0.113600  0.825940  1
  C  C1140  1  0.362400  0.386400  0.325940  1
  C  C1141  1  0.318200  0.779600  0.172220  1
  C  C1142  1  0.681800  0.720400  0.672220  1
  C  C1143  1  0.681800  0.220400  0.827780  1
  C  C1144  1  0.318200  0.279600  0.327780  1
  C  C1145  1  0.334900  0.814500  0.152120  1
  C  C1146  1  0.665100  0.685500  0.652120  1
  C  C1147  1  0.665100  0.185500  0.847880  1
  C  C1148  1  0.334900  0.314500  0.347880  1
  C  C1149  1  0.345100  0.843870  0.178090  1
  C  C1150  1  0.654900  0.656130  0.678090  1
  C  C1151  1  0.654900  0.156130  0.821910  1
  C  C1152  1  0.345100  0.343870  0.321910  1
  C  C1153  1  0.312000  0.762280  0.239070  1
  C  C1154  1  0.688000  0.737720  0.739070  1
  C  C1155  1  0.688000  0.237720  0.760930  1
  C  C1156  1  0.312000  0.262280  0.260930  1
  C  C1157  1  0.202900  0.555200  0.505800  1
  C  C1158  1  0.797100  0.944800  0.005800  1
  C  C1159  1  0.797100  0.444800  0.494200  1
  C  C1160  1  0.202900  0.055200  0.994200  1
  C  C1161  1  0.216300  0.540100  0.540500  1
  C  C1162  1  0.783700  0.959900  0.040500  1
  C  C1163  1  0.783700  0.459900  0.459500  1
  C  C1164  1  0.216300  0.040100  0.959500  1
  C  C1165  1  0.295100  0.592600  0.550900  1
  C  C1166  1  0.704900  0.907400  0.050900  1
  C  C1167  1  0.704900  0.407400  0.449100  1
  C  C1168  1  0.295100  0.092600  0.949100  1
  C  C1169  1  0.282300  0.607600  0.516200  1
  C  C1170  1  0.717700  0.892400  0.016200  1
  C  C1171  1  0.717700  0.392400  0.483800  1
  C  C1172  1  0.282300  0.107600  0.983800  1
  C  C1173  1  0.391300  0.697900  0.491300  1
  C  C1174  1  0.608700  0.802100  0.991300  1
  C  C1175  1  0.608700  0.302100  0.508700  1
  C  C1176  1  0.391300  0.197900  0.008700  1
  C  C1177  1  0.374000  0.669300  0.518400  1
  C  C1178  1  0.626000  0.830700  0.018400  1
  C  C1179  1  0.626000  0.330700  0.481600  1
  C  C1180  1  0.374000  0.169300  0.981600  1
  C  C1181  1  0.320600  0.643200  0.502800  1
  C  C1182  1  0.679400  0.856800  0.002800  1
  C  C1183  1  0.679400  0.356800  0.497200  1
  C  C1184  1  0.320600  0.143200  0.997200  1
  C  C1185  1  0.352300  0.707300  0.426400  1
  C  C1186  1  0.647700  0.792700  0.926400  1
  C  C1187  1  0.647700  0.292700  0.573600  1
  C  C1188  1  0.352300  0.207300  0.073600  1
  C  C1189  1  0.397400  0.689700  0.397600  1
  C  C1190  1  0.602600  0.810300  0.897600  1
  C  C1191  1  0.602600  0.310300  0.602400  1
  C  C1192  1  0.397400  0.189700  0.102400  1
  C  C1193  1  0.445700  0.661800  0.406400  1
  C  C1194  1  0.554300  0.838200  0.906400  1
  C  C1195  1  0.554300  0.338200  0.593600  1
  C  C1196  1  0.445700  0.161800  0.093600  1
  C  C1197  1  0.488400  0.649200  0.379000  1
  C  C1198  1  0.511600  0.850800  0.879000  1
  C  C1199  1  0.511600  0.350800  0.621000  1
  C  C1200  1  0.488400  0.149200  0.121000  1
  C  C1201  1  0.486100  0.664200  0.344400  1
  C  C1202  1  0.513900  0.835800  0.844400  1
  C  C1203  1  0.513900  0.335800  0.655600  1
  C  C1204  1  0.486100  0.164200  0.155600  1
  C  C1205  1  0.440200  0.693100  0.335380  1
  C  C1206  1  0.559800  0.806900  0.835380  1
  C  C1207  1  0.559800  0.306900  0.664620  1
  C  C1208  1  0.440200  0.193100  0.164620  1
  C  C1209  1  0.395900  0.704800  0.362700  1
  C  C1210  1  0.604100  0.795200  0.862700  1
  C  C1211  1  0.604100  0.295200  0.637300  1
  C  C1212  1  0.395900  0.204800  0.137300  1
  C  C1213  1  0.380700  0.747790  0.251030  1
  C  C1214  1  0.619300  0.752210  0.751030  1
  C  C1215  1  0.619300  0.252210  0.748970  1
  C  C1216  1  0.380700  0.247790  0.248970  1
  C  C1217  1  0.442800  0.752090  0.231100  1
  C  C1218  1  0.557200  0.747910  0.731100  1
  C  C1219  1  0.557200  0.247910  0.768900  1
  C  C1220  1  0.442800  0.252090  0.268900  1
  C  C1221  1  0.502300  0.736800  0.244300  1
  C  C1222  1  0.497700  0.763200  0.744300  1
  C  C1223  1  0.497700  0.263200  0.755700  1
  C  C1224  1  0.502300  0.236800  0.255700  1
  C  C1225  1  0.501000  0.716900  0.277150  1
  C  C1226  1  0.499000  0.783100  0.777150  1
  C  C1227  1  0.499000  0.283100  0.722850  1
  C  C1228  1  0.501000  0.216900  0.222850  1
  C  C1229  1  0.440100  0.711600  0.297850  1
  C  C1230  1  0.559900  0.788400  0.797850  1
  C  C1231  1  0.559900  0.288400  0.702150  1
  C  C1232  1  0.440100  0.211600  0.202150  1
  C  C1233  1  0.380200  0.727440  0.284600  1
  C  C1234  1  0.619800  0.772560  0.784600  1
  C  C1235  1  0.619800  0.272560  0.715400  1
  C  C1236  1  0.380200  0.227440  0.215400  1
  C  C1237  1  0.902400  0.654300  0.063200  1
  C  C1238  1  0.097600  0.845700  0.563200  1
  C  C1239  1  0.097600  0.345700  0.936800  1
  C  C1240  1  0.902400  0.154300  0.436800  1
  C  C1241  1  0.875000  0.686100  0.045200  1
  C  C1242  1  0.125000  0.813900  0.545200  1
  C  C1243  1  0.125000  0.313900  0.954800  1
  C  C1244  1  0.875000  0.186100  0.454800  1
  C  C1245  1  0.918200  0.726100  0.092700  1
  C  C1246  1  0.081800  0.773900  0.592700  1
  C  C1247  1  0.081800  0.273900  0.907300  1
  C  C1248  1  0.918200  0.226100  0.407300  1
  C  C1249  1  0.943500  0.693600  0.111030  1
  C  C1250  1  0.056500  0.806400  0.611030  1
  C  C1251  1  0.056500  0.306400  0.888970  1
  C  C1252  1  0.943500  0.193600  0.388970  1
  C  C1253  1  0.030300  0.715400  0.197500  1
  C  C1254  1  0.969700  0.784600  0.697500  1
  C  C1255  1  0.969700  0.284600  0.802500  1
  C  C1256  1  0.030300  0.215400  0.302500  1
  C  C1257  1  0.990200  0.728100  0.169900  1
  C  C1258  1  0.009800  0.771900  0.669900  1
  C  C1259  1  0.009800  0.271900  0.830100  1
  C  C1260  1  0.990200  0.228100  0.330100  1
  C  C1261  1  0.979900  0.696980  0.146000  1
  C  C1262  1  0.020100  0.803020  0.646000  1
  C  C1263  1  0.020100  0.303020  0.854000  1
  C  C1264  1  0.979900  0.196980  0.354000  1
  C  C1265  1  0.091600  0.655100  0.209570  1
  C  C1266  1  0.908400  0.844900  0.709570  1
  C  C1267  1  0.908400  0.344900  0.790430  1
  C  C1268  1  0.091600  0.155100  0.290430  1
  C  C1269  1  0.150500  0.686600  0.480400  1
  C  C1270  1  0.849500  0.813400  0.980400  1
  C  C1271  1  0.849500  0.313400  0.519600  1
  C  C1272  1  0.150500  0.186600  0.019600  1
  C  C1273  1  0.095800  0.703200  0.496600  1
  C  C1274  1  0.904200  0.796800  0.996600  1
  C  C1275  1  0.904200  0.296800  0.503400  1
  C  C1276  1  0.095800  0.203200  0.003400  1
  C  C1277  1  0.021100  0.647700  0.482300  1
  C  C1278  1  0.978900  0.852300  0.982300  1
  C  C1279  1  0.978900  0.352300  0.517700  1
  C  C1280  1  0.021100  0.147700  0.017700  1
  C  C1281  1  0.078200  0.631500  0.465400  1
  C  C1282  1  0.921800  0.868500  0.965400  1
  C  C1283  1  0.921800  0.368500  0.534600  1
  C  C1284  1  0.078200  0.131500  0.034600  1
  C  C1285  1  0.043000  0.531000  0.432100  1
  C  C1286  1  0.957000  0.969000  0.932100  1
  C  C1287  1  0.957000  0.469000  0.567900  1
  C  C1288  1  0.043000  0.031000  0.067900  1
  C  C1289  1  0.015600  0.562500  0.449400  1
  C  C1290  1  0.984400  0.937500  0.949400  1
  C  C1291  1  0.984400  0.437500  0.550600  1
  C  C1292  1  0.015600  0.062500  0.050600  1
  C  C1293  1  0.071700  0.591700  0.449600  1
  C  C1294  1  0.928300  0.908300  0.949600  1
  C  C1295  1  0.928300  0.408300  0.550400  1
  C  C1296  1  0.071700  0.091700  0.050400  1
  C  C1297  1  0.158700  0.517100  0.404300  1
  C  C1298  1  0.841300  0.982900  0.904300  1
  C  C1299  1  0.841300  0.482900  0.595700  1
  C  C1300  1  0.158700  0.017100  0.095700  1
  C  C1301  1  0.165600  0.526200  0.364200  1
  C  C1302  1  0.834400  0.973800  0.864200  1
  C  C1303  1  0.834400  0.473800  0.635800  1
  C  C1304  1  0.165600  0.026200  0.135800  1
  C  C1305  1  0.119900  0.548590  0.345100  1
  C  C1306  1  0.880100  0.951410  0.845100  1
  C  C1307  1  0.880100  0.451410  0.654900  1
  C  C1308  1  0.119900  0.048590  0.154900  1
  C  C1309  1  0.125000  0.555730  0.307690  1
  C  C1310  1  0.875000  0.944270  0.807690  1
  C  C1311  1  0.875000  0.444270  0.692310  1
  C  C1312  1  0.125000  0.055730  0.192310  1
  C  C1313  1  0.179600  0.539000  0.289000  1
  C  C1314  1  0.820400  0.961000  0.789000  1
  C  C1315  1  0.820400  0.461000  0.711000  1
  C  C1316  1  0.179600  0.039000  0.211000  1
  C  C1317  1  0.225800  0.516600  0.307400  1
  C  C1318  1  0.774200  0.983400  0.807400  1
  C  C1319  1  0.774200  0.483400  0.692600  1
  C  C1320  1  0.225800  0.016600  0.192600  1
  C  C1321  1  0.218800  0.509800  0.344700  1
  C  C1322  1  0.781200  0.990200  0.844700  1
  C  C1323  1  0.781200  0.490200  0.655300  1
  C  C1324  1  0.218800  0.009800  0.155300  1
  C  C1325  1  0.058100  0.628920  0.241080  1
  C  C1326  1  0.941900  0.871080  0.741080  1
  C  C1327  1  0.941900  0.371080  0.758920  1
  C  C1328  1  0.058100  0.128920  0.258920  1
  C  C1329  1  0.990000  0.629700  0.251630  1
  C  C1330  1  0.010000  0.870300  0.751630  1
  C  C1331  1  0.010000  0.370300  0.748370  1
  C  C1332  1  0.990000  0.129700  0.248370  1
  C  C1333  1  0.964500  0.606200  0.280800  1
  C  C1334  1  0.035500  0.893800  0.780800  1
  C  C1335  1  0.035500  0.393800  0.719200  1
  C  C1336  1  0.964500  0.106200  0.219200  1
  C  C1337  1  0.007400  0.581800  0.298000  1
  C  C1338  1  0.992600  0.918200  0.798000  1
  C  C1339  1  0.992600  0.418200  0.702000  1
  C  C1340  1  0.007400  0.081800  0.202000  1
  C  C1341  1  0.077900  0.581210  0.287710  1
  C  C1342  1  0.922100  0.918790  0.787710  1
  C  C1343  1  0.922100  0.418790  0.712290  1
  C  C1344  1  0.077900  0.081210  0.212290  1
  C  C1345  1  0.101800  0.605330  0.259030  1
  C  C1346  1  0.898200  0.894670  0.759030  1
  C  C1347  1  0.898200  0.394670  0.740970  1
  C  C1348  1  0.101800  0.105330  0.240970  1
  C  C1349  1  0.997400  0.968100  0.199400  1
  C  C1350  1  0.002600  0.531900  0.699400  1
  C  C1351  1  0.002600  0.031900  0.800600  1
  C  C1352  1  0.997400  0.468100  0.300600  1
  C  C1353  1  0.041900  0.951900  0.168500  1
  C  C1354  1  0.958100  0.548100  0.668500  1
  C  C1355  1  0.958100  0.048100  0.831500  1
  C  C1356  1  0.041900  0.451900  0.331500  1
  C  C1357  1  0.656500  0.871700  0.491400  1
  C  C1358  1  0.343500  0.628300  0.991400  1
  C  C1359  1  0.343500  0.128300  0.508600  1
  C  C1360  1  0.656500  0.371700  0.008600  1
  C  C1361  1  0.579900  0.869000  0.505900  1
  C  C1362  1  0.420100  0.631000  0.005900  1
  C  C1363  1  0.420100  0.131000  0.494100  1
  C  C1364  1  0.579900  0.369000  0.994100  1
  C  C1365  1  0.877400  0.608900  0.970600  1
  C  C1366  1  0.122600  0.891100  0.470600  1
  C  C1367  1  0.122600  0.391100  0.029400  1
  C  C1368  1  0.877400  0.108900  0.529400  1
  C  C1369  1  0.802200  0.588500  0.964500  1
  C  C1370  1  0.197800  0.911500  0.464500  1
  C  C1371  1  0.197800  0.411500  0.035500  1
  C  C1372  1  0.802200  0.088500  0.535500  1
  C  C1373  1  0.558600  0.667200  0.520500  1
  C  C1374  1  0.441400  0.832800  0.020500  1
  C  C1375  1  0.441400  0.332800  0.479500  1
  C  C1376  1  0.558600  0.167200  0.979500  1
  C  C1377  1  0.629700  0.658800  0.532600  1
  C  C1378  1  0.370300  0.841200  0.032600  1
  C  C1379  1  0.370300  0.341200  0.467400  1
  C  C1380  1  0.629700  0.158800  0.967400  1
  C  C1381  1  0.749700  0.659200  0.513800  1
  C  C1382  1  0.250300  0.840800  0.013800  1
  C  C1383  1  0.250300  0.340800  0.486200  1
  C  C1384  1  0.749700  0.159200  0.986200  1
  C  C1385  1  0.801000  0.674800  0.484400  1
  C  C1386  1  0.199000  0.825200  0.984400  1
  C  C1387  1  0.199000  0.325200  0.515600  1
  C  C1388  1  0.801000  0.174800  0.015600  1
  C  C1389  1  0.724400  0.972800  0.530500  1
  C  C1390  1  0.275600  0.527200  0.030500  1
  C  C1391  1  0.275600  0.027200  0.469500  1
  C  C1392  1  0.724400  0.472800  0.969500  1
  C  C1393  1  0.719100  0.954400  0.569500  1
  C  C1394  1  0.280900  0.545600  0.069500  1
  C  C1395  1  0.280900  0.045600  0.430500  1
  C  C1396  1  0.719100  0.454400  0.930500  1
  C  C1397  1  0.576400  0.892100  0.617000  1
  C  C1398  1  0.423600  0.607900  0.117000  1
  C  C1399  1  0.423600  0.107900  0.383000  1
  C  C1400  1  0.576400  0.392100  0.883000  1
  C  C1401  1  0.648800  0.913800  0.612400  1
  C  C1402  1  0.351200  0.586200  0.112400  1
  C  C1403  1  0.351200  0.086200  0.387600  1
  C  C1404  1  0.648800  0.413800  0.887600  1
  N  N1405  1  0.683400  0.864320  0.347750  1
  N  N1406  1  0.316600  0.635680  0.847750  1
  N  N1407  1  0.316600  0.135680  0.652250  1
  N  N1408  1  0.683400  0.364320  0.152250  1
  N  N1409  1  0.556600  0.899300  0.352600  1
  N  N1410  1  0.443400  0.600700  0.852600  1
  N  N1411  1  0.443400  0.100700  0.647400  1
  N  N1412  1  0.556600  0.399300  0.147400  1
  N  N1413  1  0.792200  0.895750  0.308950  1
  N  N1414  1  0.207800  0.604250  0.808950  1
  N  N1415  1  0.207800  0.104250  0.691050  1
  N  N1416  1  0.792200  0.395750  0.191050  1
  N  N1417  1  0.837800  0.915200  0.284620  1
  N  N1418  1  0.162200  0.584800  0.784620  1
  N  N1419  1  0.162200  0.084800  0.715380  1
  N  N1420  1  0.837800  0.415200  0.215380  1
  N  N1421  1  0.460500  0.855730  0.261140  1
  N  N1422  1  0.539500  0.644270  0.761140  1
  N  N1423  1  0.539500  0.144270  0.738860  1
  N  N1424  1  0.460500  0.355730  0.238860  1
  N  N1425  1  0.592300  0.826970  0.271820  1
  N  N1426  1  0.407700  0.673030  0.771820  1
  N  N1427  1  0.407700  0.173030  0.728180  1
  N  N1428  1  0.592300  0.326970  0.228180  1
  N  N1429  1  0.351200  0.837390  0.305500  1
  N  N1430  1  0.648800  0.662610  0.805500  1
  N  N1431  1  0.648800  0.162610  0.694500  1
  N  N1432  1  0.351200  0.337390  0.194500  1
  N  N1433  1  0.307300  0.827170  0.334280  1
  N  N1434  1  0.692700  0.672830  0.834280  1
  N  N1435  1  0.692700  0.172830  0.665720  1
  N  N1436  1  0.307300  0.327170  0.165720  1
  N  N1437  1  0.824200  0.875450  0.388690  1
  N  N1438  1  0.175800  0.624550  0.888690  1
  N  N1439  1  0.175800  0.124550  0.611310  1
  N  N1440  1  0.824200  0.375450  0.111310  1
  N  N1441  1  0.890100  0.920450  0.445380  1
  N  N1442  1  0.109900  0.579550  0.945380  1
  N  N1443  1  0.109900  0.079550  0.554620  1
  N  N1444  1  0.890100  0.420450  0.054620  1
  N  N1445  1  0.896300  0.830520  0.344840  1
  N  N1446  1  0.103700  0.669480  0.844840  1
  N  N1447  1  0.103700  0.169480  0.655160  1
  N  N1448  1  0.896300  0.330520  0.155160  1
  N  N1449  1  0.942200  0.807140  0.328750  1
  N  N1450  1  0.057800  0.692860  0.828750  1
  N  N1451  1  0.057800  0.192860  0.671250  1
  N  N1452  1  0.942200  0.307140  0.171250  1
  N  N1453  1  0.054700  0.575300  0.152600  1
  N  N1454  1  0.945300  0.924700  0.652600  1
  N  N1455  1  0.945300  0.424700  0.847400  1
  N  N1456  1  0.054700  0.075300  0.347400  1
  N  N1457  1  0.124600  0.524530  0.197330  1
  N  N1458  1  0.875400  0.975470  0.697330  1
  N  N1459  1  0.875400  0.475470  0.802670  1
  N  N1460  1  0.124600  0.024530  0.302670  1
  N  N1461  1  0.916400  0.581970  0.157960  1
  N  N1462  1  0.083600  0.918030  0.657960  1
  N  N1463  1  0.083600  0.418030  0.842040  1
  N  N1464  1  0.916400  0.081970  0.342040  1
  N  N1465  1  0.846500  0.578310  0.164910  1
  N  N1466  1  0.153500  0.921690  0.664910  1
  N  N1467  1  0.153500  0.421690  0.835090  1
  N  N1468  1  0.846500  0.078310  0.335090  1
  N  N1469  1  0.753900  0.809530  0.292550  1
  N  N1470  1  0.246100  0.690470  0.792550  1
  N  N1471  1  0.246100  0.190470  0.707450  1
  N  N1472  1  0.753900  0.309530  0.207450  1
  N  N1473  1  0.693600  0.762500  0.235400  1
  N  N1474  1  0.306400  0.737500  0.735400  1
  N  N1475  1  0.306400  0.237500  0.764600  1
  N  N1476  1  0.693600  0.262500  0.264600  1
  N  N1477  1  0.743300  0.785970  0.363170  1
  N  N1478  1  0.256700  0.714030  0.863170  1
  N  N1479  1  0.256700  0.214030  0.636830  1
  N  N1480  1  0.743300  0.285970  0.136830  1
  N  N1481  1  0.724800  0.769140  0.395320  1
  N  N1482  1  0.275200  0.730860  0.895320  1
  N  N1483  1  0.275200  0.230860  0.604680  1
  N  N1484  1  0.724800  0.269140  0.104680  1
  N  N1485  1  0.302400  0.586530  0.414240  1
  N  N1486  1  0.697600  0.913470  0.914240  1
  N  N1487  1  0.697600  0.413470  0.585760  1
  N  N1488  1  0.302400  0.086530  0.085760  1
  N  N1489  1  0.406400  0.553400  0.373800  1
  N  N1490  1  0.593600  0.946600  0.873800  1
  N  N1491  1  0.593600  0.446600  0.626200  1
  N  N1492  1  0.406400  0.053400  0.126200  1
  N  N1493  1  0.225000  0.641260  0.385790  1
  N  N1494  1  0.775000  0.858740  0.885790  1
  N  N1495  1  0.775000  0.358740  0.614210  1
  N  N1496  1  0.225000  0.141260  0.114210  1
  N  N1497  1  0.189700  0.665440  0.364360  1
  N  N1498  1  0.810300  0.834560  0.864360  1
  N  N1499  1  0.810300  0.334560  0.635640  1
  N  N1500  1  0.189700  0.165440  0.135640  1
  N  N1501  1  0.372500  0.925490  0.287750  1
  N  N1502  1  0.627500  0.574510  0.787750  1
  N  N1503  1  0.627500  0.074510  0.712250  1
  N  N1504  1  0.372500  0.425490  0.212250  1
  N  N1505  1  0.384100  0.999900  0.321700  1
  N  N1506  1  0.615900  0.500100  0.821700  1
  N  N1507  1  0.615900  0.000100  0.678300  1
  N  N1508  1  0.384100  0.499900  0.178300  1
  N  N1509  1  0.252200  0.894780  0.256930  1
  N  N1510  1  0.747800  0.605220  0.756930  1
  N  N1511  1  0.747800  0.105220  0.743070  1
  N  N1512  1  0.252200  0.394780  0.243070  1
  N  N1513  1  0.185900  0.885100  0.245590  1
  N  N1514  1  0.814100  0.614900  0.745590  1
  N  N1515  1  0.814100  0.114900  0.754410  1
  N  N1516  1  0.185900  0.385100  0.254410  1
  N  N1517  1  0.962000  0.571710  0.078450  1
  N  N1518  1  0.038000  0.928290  0.578450  1
  N  N1519  1  0.038000  0.428290  0.921550  1
  N  N1520  1  0.962000  0.071710  0.421550  1
  N  N1521  1  0.934000  0.527270  0.014910  1
  N  N1522  1  0.066000  0.972730  0.514910  1
  N  N1523  1  0.066000  0.472730  0.985090  1
  N  N1524  1  0.934000  0.027270  0.485090  1
  N  N1525  1  0.076500  0.623860  0.083930  1
  N  N1526  1  0.923500  0.876140  0.583930  1
  N  N1527  1  0.923500  0.376140  0.916070  1
  N  N1528  1  0.076500  0.123860  0.416070  1
  N  N1529  1  0.142000  0.643420  0.082690  1
  N  N1530  1  0.858000  0.856580  0.582690  1
  N  N1531  1  0.858000  0.356580  0.917310  1
  N  N1532  1  0.142000  0.143420  0.417310  1
  N  N1533  1  0.376000  0.907150  0.205730  1
  N  N1534  1  0.624000  0.592850  0.705730  1
  N  N1535  1  0.624000  0.092850  0.794270  1
  N  N1536  1  0.376000  0.407150  0.294270  1
  N  N1537  1  0.382600  0.944820  0.137460  1
  N  N1538  1  0.617400  0.555180  0.637460  1
  N  N1539  1  0.617400  0.055180  0.862540  1
  N  N1540  1  0.382600  0.444820  0.362540  1
  N  N1541  1  0.336700  0.828890  0.212290  1
  N  N1542  1  0.663300  0.671110  0.712290  1
  N  N1543  1  0.663300  0.171110  0.787710  1
  N  N1544  1  0.336700  0.328890  0.287710  1
  N  N1545  1  0.320200  0.789610  0.207760  1
  N  N1546  1  0.679800  0.710390  0.707760  1
  N  N1547  1  0.679800  0.210390  0.792240  1
  N  N1548  1  0.320200  0.289610  0.292240  1
  N  N1549  1  0.236700  0.588100  0.494200  1
  N  N1550  1  0.763300  0.911900  0.994200  1
  N  N1551  1  0.763300  0.411900  0.505800  1
  N  N1552  1  0.236700  0.088100  0.005800  1
  N  N1553  1  0.259400  0.558600  0.563100  1
  N  N1554  1  0.740600  0.941400  0.063100  1
  N  N1555  1  0.740600  0.441400  0.436900  1
  N  N1556  1  0.259400  0.058600  0.936900  1
  N  N1557  1  0.305900  0.654560  0.467880  1
  N  N1558  1  0.694100  0.845440  0.967880  1
  N  N1559  1  0.694100  0.345440  0.532120  1
  N  N1560  1  0.305900  0.154560  0.032120  1
  N  N1561  1  0.349600  0.688150  0.461440  1
  N  N1562  1  0.650400  0.811850  0.961440  1
  N  N1563  1  0.650400  0.311850  0.538560  1
  N  N1564  1  0.349600  0.188150  0.038560  1
  N  N1565  1  0.935400  0.657240  0.095630  1
  N  N1566  1  0.064600  0.842760  0.595630  1
  N  N1567  1  0.064600  0.342760  0.904370  1
  N  N1568  1  0.935400  0.157240  0.404370  1
  N  N1569  1  0.885100  0.722850  0.060600  1
  N  N1570  1  0.114900  0.777150  0.560600  1
  N  N1571  1  0.114900  0.277150  0.939400  1
  N  N1572  1  0.885100  0.222850  0.439400  1
  N  N1573  1  0.012700  0.665560  0.157930  1
  N  N1574  1  0.987300  0.834440  0.657930  1
  N  N1575  1  0.987300  0.334440  0.842070  1
  N  N1576  1  0.012700  0.165560  0.342070  1
  N  N1577  1  0.044600  0.678120  0.189700  1
  N  N1578  1  0.955400  0.821880  0.689700  1
  N  N1579  1  0.955400  0.321880  0.810300  1
  N  N1580  1  0.044600  0.178120  0.310300  1
  N  N1581  1  0.142600  0.650570  0.464270  1
  N  N1582  1  0.857400  0.849430  0.964270  1
  N  N1583  1  0.857400  0.349430  0.535730  1
  N  N1584  1  0.142600  0.150570  0.035730  1
  N  N1585  1  0.031100  0.684000  0.498270  1
  N  N1586  1  0.968900  0.816000  0.998270  1
  N  N1587  1  0.968900  0.316000  0.501730  1
  N  N1588  1  0.031100  0.184000  0.001730  1
  N  N1589  1  0.127900  0.578750  0.433280  1
  N  N1590  1  0.872100  0.921250  0.933280  1
  N  N1591  1  0.872100  0.421250  0.566720  1
  N  N1592  1  0.127900  0.078750  0.066720  1
  N  N1593  1  0.110200  0.541330  0.423230  1
  N  N1594  1  0.889800  0.958670  0.923230  1
  N  N1595  1  0.889800  0.458670  0.576770  1
  N  N1596  1  0.110200  0.041330  0.076770  1
  N  N1597  1  0.965800  0.978900  0.223220  1
  N  N1598  1  0.034200  0.521100  0.723220  1
  N  N1599  1  0.034200  0.021100  0.776780  1
  N  N1600  1  0.965800  0.478900  0.276780  1
  N  N1601  1  0.714500  0.870400  0.484200  1
  N  N1602  1  0.285500  0.629600  0.984200  1
  N  N1603  1  0.285500  0.129600  0.515800  1
  N  N1604  1  0.714500  0.370400  0.015800  1
  N  N1605  1  0.931900  0.623200  0.978400  1
  N  N1606  1  0.068100  0.876800  0.478400  1
  N  N1607  1  0.068100  0.376800  0.021600  1
  N  N1608  1  0.931900  0.123200  0.521600  1
  O  O1609  1  0.648300  0.646700  0.560800  1
  O  O1610  1  0.351700  0.853300  0.060800  1
  O  O1611  1  0.351700  0.353300  0.439200  1
  O  O1612  1  0.648300  0.146700  0.939200  1
  O  O1613  1  0.678400  0.665600  0.504400  1
  O  O1614  1  0.321600  0.834400  0.004400  1
  O  O1615  1  0.321600  0.334400  0.495600  1
  O  O1616  1  0.678400  0.165600  0.995600  1
  O  O1617  1  0.763400  0.958400  0.591300  1
  O  O1618  1  0.236600  0.541600  0.091300  1
  O  O1619  1  0.236600  0.041600  0.408700  1
  O  O1620  1  0.763400  0.458400  0.908700  1
  O  O1621  1  0.655100  0.931700  0.575700  1
  O  O1622  1  0.344900  0.568300  0.075700  1
  O  O1623  1  0.344900  0.068300  0.424300  1
  O  O1624  1  0.655100  0.431700  0.924300  1
  F  F1625  1  0.962300  0.856000  0.165500  1
  F  F1626  1  0.037700  0.644000  0.665500  1
  F  F1627  1  0.037700  0.144000  0.834500  1
  F  F1628  1  0.962300  0.356000  0.334500  1
  F  F1629  1  0.000500  0.874800  0.221600  1
  F  F1630  1  0.999500  0.625200  0.721600  1
  F  F1631  1  0.999500  0.125200  0.778400  1
  F  F1632  1  0.000500  0.374800  0.278400  1
  F  F1633  1  0.987000  0.811100  0.207400  1
  F  F1634  1  0.013000  0.688900  0.707400  1
  F  F1635  1  0.013000  0.188900  0.792600  1
  F  F1636  1  0.987000  0.311100  0.292600  1
  F  F1637  1  0.890200  0.841300  0.216300  1
  F  F1638  1  0.109800  0.658700  0.716300  1
  F  F1639  1  0.109800  0.158700  0.783700  1
  F  F1640  1  0.890200  0.341300  0.283700  1
  F  F1641  1  0.845800  0.702120  0.906980  1
  F  F1642  1  0.154200  0.797880  0.406980  1
  F  F1643  1  0.154200  0.297880  0.093020  1
  F  F1644  1  0.845800  0.202120  0.593020  1
  F  F1645  1  0.758200  0.733870  0.928600  1
  F  F1646  1  0.241800  0.766130  0.428600  1
  F  F1647  1  0.241800  0.266130  0.071400  1
  F  F1648  1  0.758200  0.233870  0.571400  1
  F  F1649  1  0.758900  0.669960  0.940450  1
  F  F1650  1  0.241100  0.830040  0.440450  1
  F  F1651  1  0.241100  0.330040  0.059550  1
  F  F1652  1  0.758900  0.169960  0.559550  1
  F  F1653  1  0.841500  0.714390  0.965980  1
  F  F1654  1  0.158500  0.785610  0.465980  1
  F  F1655  1  0.158500  0.285610  0.034020  1
  F  F1656  1  0.841500  0.214390  0.534020  1
  F  F1657  1  0.512600  0.776900  0.408300  1
  F  F1658  1  0.487400  0.723100  0.908300  1
  F  F1659  1  0.487400  0.223100  0.591700  1
  F  F1660  1  0.512600  0.276900  0.091700  1
  F  F1661  1  0.490800  0.780300  0.471100  1
  F  F1662  1  0.509200  0.719700  0.971100  1
  F  F1663  1  0.509200  0.219700  0.528900  1
  F  F1664  1  0.490800  0.280300  0.028900  1
  F  F1665  1  0.546800  0.731800  0.445900  1
  F  F1666  1  0.453200  0.768200  0.945900  1
  F  F1667  1  0.453200  0.268200  0.554100  1
  F  F1668  1  0.546800  0.231800  0.054100  1
  F  F1669  1  0.600900  0.795100  0.448400  1
  F  F1670  1  0.399100  0.704900  0.948400  1
  F  F1671  1  0.399100  0.204900  0.551600  1
  F  F1672  1  0.600900  0.295100  0.051600  1
  F  F1673  1  0.760800  0.805250  0.680480  1
  F  F1674  1  0.239200  0.694750  0.180480  1
  F  F1675  1  0.239200  0.194750  0.319520  1
  F  F1676  1  0.760800  0.305250  0.819520  1
  F  F1677  1  0.754900  0.871460  0.671700  1
  F  F1678  1  0.245100  0.628540  0.171700  1
  F  F1679  1  0.245100  0.128540  0.328300  1
  F  F1680  1  0.754900  0.371460  0.828300  1
  F  F1681  1  0.653300  0.829390  0.681170  1
  F  F1682  1  0.346700  0.670610  0.181170  1
  F  F1683  1  0.346700  0.170610  0.318830  1
  F  F1684  1  0.653300  0.329390  0.818830  1
  F  F1685  1  0.732400  0.843260  0.728110  1
  F  F1686  1  0.267600  0.656740  0.228110  1
  F  F1687  1  0.267600  0.156740  0.271890  1
  F  F1688  1  0.732400  0.343260  0.771890  1
  F  F1689  1  0.679700  0.962400  0.385800  1
  F  F1690  1  0.320300  0.537600  0.885800  1
  F  F1691  1  0.320300  0.037600  0.614200  1
  F  F1692  1  0.679700  0.462400  0.114200  1
  F  F1693  1  0.785500  0.001100  0.380400  1
  F  F1694  1  0.214500  0.498900  0.880400  1
  F  F1695  1  0.214500  0.998900  0.619600  1
  F  F1696  1  0.785500  0.501100  0.119600  1
  F  F1697  1  0.723600  0.000400  0.432300  1
  F  F1698  1  0.276400  0.499600  0.932300  1
  F  F1699  1  0.276400  0.999600  0.567700  1
  F  F1700  1  0.723600  0.500400  0.067700  1
  F  F1701  1  0.680500  0.030000  0.382800  1
  F  F1702  1  0.319500  0.470000  0.882800  1
  F  F1703  1  0.319500  0.970000  0.617200  1
  F  F1704  1  0.680500  0.530000  0.117200  1
  F  F1705  1  0.910100  0.778060  0.790290  1
  F  F1706  1  0.089900  0.721940  0.290290  1
  F  F1707  1  0.089900  0.221940  0.209710  1
  F  F1708  1  0.910100  0.278060  0.709710  1
  F  F1709  1  0.891000  0.710920  0.789740  1
  F  F1710  1  0.109000  0.789080  0.289740  1
  F  F1711  1  0.109000  0.289080  0.210260  1
  F  F1712  1  0.891000  0.210920  0.710260  1
  F  F1713  1  0.846400  0.745790  0.744870  1
  F  F1714  1  0.153600  0.754210  0.244870  1
  F  F1715  1  0.153600  0.254210  0.255130  1
  F  F1716  1  0.846400  0.245790  0.755130  1
  F  F1717  1  0.800400  0.747780  0.804070  1
  F  F1718  1  0.199600  0.752220  0.304070  1
  F  F1719  1  0.199600  0.252220  0.195930  1
  F  F1720  1  0.800400  0.247780  0.695930  1
  F  F1721  1  0.561400  0.950800  0.253800  1
  F  F1722  1  0.438600  0.549200  0.753800  1
  F  F1723  1  0.438600  0.049200  0.746200  1
  F  F1724  1  0.561400  0.450800  0.246200  1
  F  F1725  1  0.565400  0.944100  0.191800  1
  F  F1726  1  0.434600  0.555900  0.691800  1
  F  F1727  1  0.434600  0.055900  0.808200  1
  F  F1728  1  0.565400  0.444100  0.308200  1
  F  F1729  1  0.529700  0.000900  0.218400  1
  F  F1730  1  0.470300  0.499100  0.718400  1
  F  F1731  1  0.470300  0.999100  0.781600  1
  F  F1732  1  0.529700  0.500900  0.281600  1
  F  F1733  1  0.644900  0.988700  0.220900  1
  F  F1734  1  0.355100  0.511300  0.720900  1
  F  F1735  1  0.355100  0.011300  0.779100  1
  F  F1736  1  0.644900  0.488700  0.279100  1
  F  F1737  1  0.131100  0.473400  0.496200  1
  F  F1738  1  0.868900  0.026600  0.996200  1
  F  F1739  1  0.868900  0.526600  0.503800  1
  F  F1740  1  0.131100  0.973400  0.003800  1
  F  F1741  1  0.227200  0.441200  0.488700  1
  F  F1742  1  0.772800  0.058800  0.988700  1
  F  F1743  1  0.772800  0.558800  0.511300  1
  F  F1744  1  0.227200  0.941200  0.011300  1
  F  F1745  1  0.137100  0.434100  0.446300  1
  F  F1746  1  0.862900  0.065900  0.946300  1
  F  F1747  1  0.862900  0.565900  0.553700  1
  F  F1748  1  0.137100  0.934100  0.053700  1
  F  F1749  1  0.122900  0.406600  0.504100  1
  F  F1750  1  0.877100  0.093400  0.004100  1
  F  F1751  1  0.877100  0.593400  0.495900  1
  F  F1752  1  0.122900  0.906600  0.995900  1
  F  F1753  1  0.955300  0.875500  0.169400  1
  F  F1754  1  0.044700  0.624500  0.669400  1
  F  F1755  1  0.044700  0.124500  0.830600  1
  F  F1756  1  0.955300  0.375500  0.330600  1
  F  F1757  1  0.001000  0.861900  0.225600  1
  F  F1758  1  0.999000  0.638100  0.725600  1
  F  F1759  1  0.999000  0.138100  0.774400  1
  F  F1760  1  0.001000  0.361900  0.274400  1
  F  F1761  1  0.947600  0.812900  0.190000  1
  F  F1762  1  0.052400  0.687100  0.690000  1
  F  F1763  1  0.052400  0.187100  0.810000  1
  F  F1764  1  0.947600  0.312900  0.310000  1
  F  F1765  1  0.884400  0.859100  0.215400  1
  F  F1766  1  0.115600  0.640900  0.715400  1
  F  F1767  1  0.115600  0.140900  0.784600  1
  F  F1768  1  0.884400  0.359100  0.284600  1
  F  F1769  1  0.539400  0.769100  0.397800  1
  F  F1770  1  0.460600  0.730900  0.897800  1
  F  F1771  1  0.460600  0.230900  0.602200  1
  F  F1772  1  0.539400  0.269100  0.102200  1
  F  F1773  1  0.470000  0.781500  0.446400  1
  F  F1774  1  0.530000  0.718500  0.946400  1
  F  F1775  1  0.530000  0.218500  0.553600  1
  F  F1776  1  0.470000  0.281500  0.053600  1
  F  F1777  1  0.568200  0.743700  0.454100  1
  F  F1778  1  0.431800  0.756300  0.954100  1
  F  F1779  1  0.431800  0.256300  0.545900  1
  F  F1780  1  0.568200  0.243700  0.045900  1
  F  F1781  1  0.583100  0.810700  0.443100  1
  F  F1782  1  0.416900  0.689300  0.943100  1
  F  F1783  1  0.416900  0.189300  0.556900  1
  F  F1784  1  0.583100  0.310700  0.056900  1
  F  F1785  1  0.680400  0.963000  0.405200  1
  F  F1786  1  0.319600  0.537000  0.905200  1
  F  F1787  1  0.319600  0.037000  0.594800  1
  F  F1788  1  0.680400  0.463000  0.094800  1
  F  F1789  1  0.774600  0.987200  0.368700  1
  F  F1790  1  0.225400  0.512800  0.868700  1
  F  F1791  1  0.225400  0.012800  0.631300  1
  F  F1792  1  0.774600  0.487200  0.131300  1
  F  F1793  1  0.736900  0.024300  0.416000  1
  F  F1794  1  0.263100  0.475700  0.916000  1
  F  F1795  1  0.263100  0.975700  0.584000  1
  F  F1796  1  0.736900  0.524300  0.084000  1
  F  F1797  1  0.670600  0.014800  0.364400  1
  F  F1798  1  0.329400  0.485200  0.864400  1
  F  F1799  1  0.329400  0.985200  0.635600  1
  F  F1800  1  0.670600  0.514800  0.135600  1
  F  F1801  1  0.101800  0.466400  0.477000  1
  F  F1802  1  0.898200  0.033600  0.977000  1
  F  F1803  1  0.898200  0.533600  0.523000  1
  F  F1804  1  0.101800  0.966400  0.023000  1
  F  F1805  1  0.201300  0.439100  0.455300  1
  F  F1806  1  0.798700  0.060900  0.955300  1
  F  F1807  1  0.798700  0.560900  0.544700  1
  F  F1808  1  0.201300  0.939100  0.044700  1
  F  F1809  1  0.109400  0.398400  0.478800  1
  F  F1810  1  0.890600  0.101600  0.978800  1
  F  F1811  1  0.890600  0.601600  0.521200  1
  F  F1812  1  0.109400  0.898400  0.021200  1
  F  F1813  1  0.174300  0.439500  0.518500  1
  F  F1814  1  0.825700  0.060500  0.018500  1
  F  F1815  1  0.825700  0.560500  0.481500  1
  F  F1816  1  0.174300  0.939500  0.981500  1
