# generated using pymatgen
data_Cu4B7H156C180N48(O3F20)2
_symmetry_space_group_name_H-M   'P 1'
_cell_length_a   37.13716117
_cell_length_b   37.13716117
_cell_length_c   37.13716117
_cell_angle_alpha   109.47122063
_cell_angle_beta   109.47122063
_cell_angle_gamma   109.47122063
_symmetry_Int_Tables_number   1
_chemical_formula_structural   Cu4B7H156C180N48(O3F20)2
_chemical_formula_sum   'Cu32 B56 H1248 C1440 N384 O48 F320'
_cell_volume   39427.95177194
_cell_formula_units_Z   8
loop_
 _symmetry_equiv_pos_site_id
 _symmetry_equiv_pos_as_xyz
  1  'x, y, z'
loop_
 _atom_site_type_symbol
 _atom_site_label
 _atom_site_symmetry_multiplicity
 _atom_site_fract_x
 _atom_site_fract_y
 _atom_site_fract_z
 _atom_site_occupancy
  B  B1  1  0.630000  0.546400  0.163600  1
  B  B2  1  0.870000  0.533600  0.416400  1
  B  B3  1  0.117200  0.953600  0.083600  1
  B  B4  1  0.382800  0.966400  0.336400  1
  B  B5  1  0.546400  0.163600  0.630000  1
  B  B6  1  0.533600  0.416400  0.870000  1
  B  B7  1  0.953600  0.083600  0.117200  1
  B  B8  1  0.966400  0.336400  0.382800  1
  B  B9  1  0.163600  0.630000  0.546400  1
  B  B10  1  0.416400  0.870000  0.533600  1
  B  B11  1  0.083600  0.117200  0.953600  1
  B  B12  1  0.336400  0.382800  0.966400  1
  B  B13  1  0.130000  0.663600  0.046400  1
  B  B14  1  0.370000  0.916400  0.033600  1
  B  B15  1  0.617200  0.583600  0.453600  1
  B  B16  1  0.882800  0.836400  0.466400  1
  B  B17  1  0.046400  0.130000  0.663600  1
  B  B18  1  0.033600  0.370000  0.916400  1
  B  B19  1  0.453600  0.617200  0.583600  1
  B  B20  1  0.466400  0.882800  0.836400  1
  B  B21  1  0.663600  0.046400  0.130000  1
  B  B22  1  0.916400  0.033600  0.370000  1
  B  B23  1  0.583600  0.453600  0.617200  1
  B  B24  1  0.836400  0.466400  0.882800  1
  B  B25  1  0.674900  0.925900  0.580600  1
  B  B26  1  0.825100  0.905700  0.751000  1
  B  B27  1  0.154700  0.574100  0.749000  1
  B  B28  1  0.345300  0.594300  0.919400  1
  B  B29  1  0.925900  0.580600  0.674900  1
  B  B30  1  0.905700  0.751000  0.825100  1
  B  B31  1  0.574100  0.749000  0.154700  1
  B  B32  1  0.594300  0.919400  0.345300  1
  B  B33  1  0.580600  0.674900  0.925900  1
  B  B34  1  0.751000  0.825100  0.905700  1
  B  B35  1  0.749000  0.154700  0.574100  1
  B  B36  1  0.919400  0.345300  0.594300  1
  B  B37  1  0.174900  0.080600  0.425900  1
  B  B38  1  0.325100  0.251000  0.405700  1
  B  B39  1  0.654700  0.249000  0.074100  1
  B  B40  1  0.845300  0.419400  0.094300  1
  B  B41  1  0.425900  0.174900  0.080600  1
  B  B42  1  0.405700  0.325100  0.251000  1
  B  B43  1  0.074100  0.654700  0.249000  1
  B  B44  1  0.094300  0.845300  0.419400  1
  B  B45  1  0.080600  0.425900  0.174900  1
  B  B46  1  0.251000  0.405700  0.325100  1
  B  B47  1  0.249000  0.074100  0.654700  1
  B  B48  1  0.419400  0.094300  0.845300  1
  B  B49  1  0.445660  0.000000  0.500000  1
  B  B50  1  0.054340  0.054340  0.054340  1
  B  B51  1  0.000000  0.500000  0.445660  1
  B  B52  1  0.500000  0.445660  0.000000  1
  B  B53  1  0.945660  0.000000  0.500000  1
  B  B54  1  0.554340  0.554340  0.554340  1
  B  B55  1  0.500000  0.945660  0.000000  1
  B  B56  1  0.000000  0.500000  0.945660  1
  C  C57  1  0.502700  0.751000  0.347300  1
  C  C58  1  0.997300  0.844600  0.748300  1
  C  C59  1  0.096300  0.749000  0.751700  1
  C  C60  1  0.403700  0.655400  0.152700  1
  C  C61  1  0.751000  0.347300  0.502700  1
  C  C62  1  0.844600  0.748300  0.997300  1
  C  C63  1  0.749000  0.751700  0.096300  1
  C  C64  1  0.655400  0.152700  0.403700  1
  C  C65  1  0.347300  0.502700  0.751000  1
  C  C66  1  0.748300  0.997300  0.844600  1
  C  C67  1  0.751700  0.096300  0.749000  1
  C  C68  1  0.152700  0.403700  0.655400  1
  C  C69  1  0.002700  0.847300  0.251000  1
  C  C70  1  0.497300  0.248300  0.344600  1
  C  C71  1  0.596300  0.251700  0.249000  1
  C  C72  1  0.903700  0.652700  0.155400  1
  C  C73  1  0.251000  0.002700  0.847300  1
  C  C74  1  0.344600  0.497300  0.248300  1
  C  C75  1  0.249000  0.596300  0.251700  1
  C  C76  1  0.155400  0.903700  0.652700  1
  C  C77  1  0.847300  0.251000  0.002700  1
  C  C78  1  0.248300  0.344600  0.497300  1
  C  C79  1  0.251700  0.249000  0.596300  1
  C  C80  1  0.652700  0.155400  0.903700  1
  C  C81  1  0.467700  0.757600  0.317900  1
  C  C82  1  0.032300  0.850200  0.789900  1
  C  C83  1  0.060300  0.742400  0.710100  1
  C  C84  1  0.439700  0.649800  0.182100  1
  C  C85  1  0.757600  0.317900  0.467700  1
  C  C86  1  0.850200  0.789900  0.032300  1
  C  C87  1  0.742400  0.710100  0.060300  1
  C  C88  1  0.649800  0.182100  0.439700  1
  C  C89  1  0.317900  0.467700  0.757600  1
  C  C90  1  0.789900  0.032300  0.850200  1
  C  C91  1  0.710100  0.060300  0.742400  1
  C  C92  1  0.182100  0.439700  0.649800  1
  C  C93  1  0.967700  0.817900  0.257600  1
  C  C94  1  0.532300  0.289900  0.350200  1
  C  C95  1  0.560300  0.210100  0.242400  1
  C  C96  1  0.939700  0.682100  0.149800  1
  C  C97  1  0.257600  0.967700  0.817900  1
  C  C98  1  0.350200  0.532300  0.289900  1
  C  C99  1  0.242400  0.560300  0.210100  1
  C  C100  1  0.149800  0.939700  0.682100  1
  C  C101  1  0.817900  0.257600  0.967700  1
  C  C102  1  0.289900  0.350200  0.532300  1
  C  C103  1  0.210100  0.242400  0.560300  1
  C  C104  1  0.682100  0.149800  0.939700  1
  C  C105  1  0.394300  0.729800  0.265300  1
  C  C106  1  0.105700  0.871000  0.835500  1
  C  C107  1  0.035500  0.770200  0.664500  1
  C  C108  1  0.464500  0.629000  0.234700  1
  C  C109  1  0.729800  0.265300  0.394300  1
  C  C110  1  0.871000  0.835500  0.105700  1
  C  C111  1  0.770200  0.664500  0.035500  1
  C  C112  1  0.629000  0.234700  0.464500  1
  C  C113  1  0.265300  0.394300  0.729800  1
  C  C114  1  0.835500  0.105700  0.871000  1
  C  C115  1  0.664500  0.035500  0.770200  1
  C  C116  1  0.234700  0.464500  0.629000  1
  C  C117  1  0.894300  0.765300  0.229800  1
  C  C118  1  0.605700  0.335500  0.371000  1
  C  C119  1  0.535500  0.164500  0.270200  1
  C  C120  1  0.964500  0.734700  0.129000  1
  C  C121  1  0.229800  0.894300  0.765300  1
  C  C122  1  0.371000  0.605700  0.335500  1
  C  C123  1  0.270200  0.535500  0.164500  1
  C  C124  1  0.129000  0.964500  0.734700  1
  C  C125  1  0.765300  0.229800  0.894300  1
  C  C126  1  0.335500  0.371000  0.605700  1
  C  C127  1  0.164500  0.270200  0.535500  1
  C  C128  1  0.734700  0.129000  0.964500  1
  C  C129  1  0.353000  0.685200  0.233200  1
  C  C130  1  0.147000  0.880200  0.832200  1
  C  C131  1  0.048000  0.814800  0.667800  1
  C  C132  1  0.452000  0.619800  0.266800  1
  C  C133  1  0.685200  0.233200  0.353000  1
  C  C134  1  0.880200  0.832200  0.147000  1
  C  C135  1  0.814800  0.667800  0.048000  1
  C  C136  1  0.619800  0.266800  0.452000  1
  C  C137  1  0.233200  0.353000  0.685200  1
  C  C138  1  0.832200  0.147000  0.880200  1
  C  C139  1  0.667800  0.048000  0.814800  1
  C  C140  1  0.266800  0.452000  0.619800  1
  C  C141  1  0.853000  0.733200  0.185200  1
  C  C142  1  0.647000  0.332200  0.380200  1
  C  C143  1  0.548000  0.167800  0.314800  1
  C  C144  1  0.952000  0.766800  0.119800  1
  C  C145  1  0.185200  0.853000  0.733200  1
  C  C146  1  0.380200  0.647000  0.332200  1
  C  C147  1  0.314800  0.548000  0.167800  1
  C  C148  1  0.119800  0.952000  0.766800  1
  C  C149  1  0.733200  0.185200  0.853000  1
  C  C150  1  0.332200  0.380200  0.647000  1
  C  C151  1  0.167800  0.314800  0.548000  1
  C  C152  1  0.766800  0.119800  0.952000  1
  C  C153  1  0.118600  0.766780  0.219980  1.0
  C  C154  1  0.381400  0.101380  0.148180  1.0
  C  C155  1  0.953200  0.733220  0.351820  1.0
  C  C156  1  0.546800  0.398620  0.280020  1.0
  C  C157  1  0.766780  0.219980  0.118600  1.0
  C  C158  1  0.101380  0.148180  0.381400  1.0
  C  C159  1  0.733220  0.351820  0.953200  1.0
  C  C160  1  0.398620  0.280020  0.546800  1.0
  C  C161  1  0.219980  0.118600  0.766780  1.0
  C  C162  1  0.148180  0.381400  0.101380  1.0
  C  C163  1  0.351820  0.953200  0.733220  1.0
  C  C164  1  0.280020  0.546800  0.398620  1.0
  C  C165  1  0.618600  0.719980  0.266780  1.0
  C  C166  1  0.881400  0.648180  0.601380  1.0
  C  C167  1  0.453200  0.851820  0.233220  1.0
  C  C168  1  0.046800  0.780020  0.898620  1.0
  C  C169  1  0.266780  0.618600  0.719980  1.0
  C  C170  1  0.601380  0.881400  0.648180  1.0
  C  C171  1  0.233220  0.453200  0.851820  1.0
  C  C172  1  0.898620  0.046800  0.780020  1.0
  C  C173  1  0.719980  0.266780  0.618600  1.0
  C  C174  1  0.648180  0.601380  0.881400  1.0
  C  C175  1  0.851820  0.233220  0.453200  1.0
  C  C176  1  0.780020  0.898620  0.046800  1.0
  C  C177  1  0.085150  0.745540  0.176490  1.0
  C  C178  1  0.414850  0.091340  0.160390  1.0
  C  C179  1  0.930950  0.754460  0.339610  1.0
  C  C180  1  0.569050  0.408660  0.323510  1.0
  C  C181  1  0.745540  0.176490  0.085150  1.0
  C  C182  1  0.091340  0.160390  0.414850  1.0
  C  C183  1  0.754460  0.339610  0.930950  1.0
  C  C184  1  0.408660  0.323510  0.569050  1.0
  C  C185  1  0.176490  0.085150  0.745540  1.0
  C  C186  1  0.160390  0.414850  0.091340  1.0
  C  C187  1  0.339610  0.930950  0.754460  1.0
  C  C188  1  0.323510  0.569050  0.408660  1.0
  C  C189  1  0.585150  0.676490  0.245540  1.0
  C  C190  1  0.914850  0.660390  0.591340  1.0
  C  C191  1  0.430950  0.839610  0.254460  1.0
  C  C192  1  0.069050  0.823510  0.908660  1.0
  C  C193  1  0.245540  0.585150  0.676490  1.0
  C  C194  1  0.591340  0.914850  0.660390  1.0
  C  C195  1  0.254460  0.430950  0.839610  1.0
  C  C196  1  0.908660  0.069050  0.823510  1.0
  C  C197  1  0.676490  0.245540  0.585150  1.0
  C  C198  1  0.660390  0.591340  0.914850  1.0
  C  C199  1  0.839610  0.254460  0.430950  1.0
  C  C200  1  0.823510  0.908660  0.069050  1.0
  C  C201  1  0.135800  0.738500  0.151500  1.0
  C  C202  1  0.364200  0.015700  0.102700  1.0
  C  C203  1  0.913000  0.761500  0.397300  1.0
  C  C204  1  0.587000  0.484300  0.348500  1.0
  C  C205  1  0.738500  0.151500  0.135800  1.0
  C  C206  1  0.015700  0.102700  0.364200  1.0
  C  C207  1  0.761500  0.397300  0.913000  1.0
  C  C208  1  0.484300  0.348500  0.587000  1.0
  C  C209  1  0.151500  0.135800  0.738500  1.0
  C  C210  1  0.102700  0.364200  0.015700  1.0
  C  C211  1  0.397300  0.913000  0.761500  1.0
  C  C212  1  0.348500  0.587000  0.484300  1.0
  C  C213  1  0.635800  0.651500  0.238500  1.0
  C  C214  1  0.864200  0.602700  0.515700  1.0
  C  C215  1  0.413000  0.897300  0.261500  1.0
  C  C216  1  0.087000  0.848500  0.984300  1.0
  C  C217  1  0.238500  0.635800  0.651500  1.0
  C  C218  1  0.515700  0.864200  0.602700  1.0
  C  C219  1  0.261500  0.413000  0.897300  1.0
  C  C220  1  0.984300  0.087000  0.848500  1.0
  C  C221  1  0.651500  0.238500  0.635800  1.0
  C  C222  1  0.602700  0.515700  0.864200  1.0
  C  C223  1  0.897300  0.261500  0.413000  1.0
  C  C224  1  0.848500  0.984300  0.087000  1.0
  C  C225  1  0.169300  0.759750  0.195050  1.0
  C  C226  1  0.330700  0.025750  0.090450  1.0
  C  C227  1  0.935300  0.740250  0.409550  1.0
  C  C228  1  0.564700  0.474250  0.304950  1.0
  C  C229  1  0.759750  0.195050  0.169300  1.0
  C  C230  1  0.025750  0.090450  0.330700  1.0
  C  C231  1  0.740250  0.409550  0.935300  1.0
  C  C232  1  0.474250  0.304950  0.564700  1.0
  C  C233  1  0.195050  0.169300  0.759750  1.0
  C  C234  1  0.090450  0.330700  0.025750  1.0
  C  C235  1  0.409550  0.935300  0.740250  1.0
  C  C236  1  0.304950  0.564700  0.474250  1.0
  C  C237  1  0.669300  0.695050  0.259750  1.0
  C  C238  1  0.830700  0.590450  0.525750  1.0
  C  C239  1  0.435300  0.909550  0.240250  1.0
  C  C240  1  0.064700  0.804950  0.974250  1.0
  C  C241  1  0.259750  0.669300  0.695050  1.0
  C  C242  1  0.525750  0.830700  0.590450  1.0
  C  C243  1  0.240250  0.435300  0.909550  1.0
  C  C244  1  0.974250  0.064700  0.804950  1.0
  C  C245  1  0.695050  0.259750  0.669300  1.0
  C  C246  1  0.590450  0.525750  0.830700  1.0
  C  C247  1  0.909550  0.240250  0.435300  1.0
  C  C248  1  0.804950  0.974250  0.064700  1.0
  C  C249  1  0.273600  0.768500  0.206300  1.0
  C  C250  1  0.226400  0.932700  0.994900  1.0
  C  C251  1  0.937800  0.731500  0.505100  1.0
  C  C252  1  0.562200  0.567300  0.293700  1.0
  C  C253  1  0.768500  0.206300  0.273600  1.0
  C  C254  1  0.932700  0.994900  0.226400  1.0
  C  C255  1  0.731500  0.505100  0.937800  1.0
  C  C256  1  0.567300  0.293700  0.562200  1.0
  C  C257  1  0.206300  0.273600  0.768500  1.0
  C  C258  1  0.994900  0.226400  0.932700  1.0
  C  C259  1  0.505100  0.937800  0.731500  1.0
  C  C260  1  0.293700  0.562200  0.567300  1.0
  C  C261  1  0.773600  0.706300  0.268500  1.0
  C  C262  1  0.726400  0.494900  0.432700  1.0
  C  C263  1  0.437800  0.005100  0.231500  1.0
  C  C264  1  0.062200  0.793700  0.067300  1.0
  C  C265  1  0.268500  0.773600  0.706300  1.0
  C  C266  1  0.432700  0.726400  0.494900  1.0
  C  C267  1  0.231500  0.437800  0.005100  1.0
  C  C268  1  0.067300  0.062200  0.793700  1.0
  C  C269  1  0.706300  0.268500  0.773600  1.0
  C  C270  1  0.494900  0.432700  0.726400  1.0
  C  C271  1  0.005100  0.231500  0.437800  1.0
  C  C272  1  0.793700  0.067300  0.062200  1.0
  C  C273  1  0.228300  0.752400  0.178300  1.0
  C  C274  1  0.271700  0.950000  0.024100  1.0
  C  C275  1  0.925900  0.747600  0.475900  1.0
  C  C276  1  0.574100  0.550000  0.321700  1.0
  C  C277  1  0.752400  0.178300  0.228300  1.0
  C  C278  1  0.950000  0.024100  0.271700  1.0
  C  C279  1  0.747600  0.475900  0.925900  1.0
  C  C280  1  0.550000  0.321700  0.574100  1.0
  C  C281  1  0.178300  0.228300  0.752400  1.0
  C  C282  1  0.024100  0.271700  0.950000  1.0
  C  C283  1  0.475900  0.925900  0.747600  1.0
  C  C284  1  0.321700  0.574100  0.550000  1.0
  C  C285  1  0.728300  0.678300  0.252400  1.0
  C  C286  1  0.771700  0.524100  0.450000  1.0
  C  C287  1  0.425900  0.975900  0.247600  1.0
  C  C288  1  0.074100  0.821700  0.050000  1.0
  C  C289  1  0.252400  0.728300  0.678300  1.0
  C  C290  1  0.450000  0.771700  0.524100  1.0
  C  C291  1  0.247600  0.425900  0.975900  1.0
  C  C292  1  0.050000  0.074100  0.821700  1.0
  C  C293  1  0.678300  0.252400  0.728300  1.0
  C  C294  1  0.524100  0.450000  0.771700  1.0
  C  C295  1  0.975900  0.247600  0.425900  1.0
  C  C296  1  0.821700  0.050000  0.074100  1.0
  C  C297  1  0.211500  0.769200  0.204900  1.0
  C  C298  1  0.288500  0.993400  0.057700  1.0
  C  C299  1  0.935700  0.730800  0.442300  1.0
  C  C300  1  0.564300  0.506600  0.295100  1.0
  C  C301  1  0.769200  0.204900  0.211500  1.0
  C  C302  1  0.993400  0.057700  0.288500  1.0
  C  C303  1  0.730800  0.442300  0.935700  1.0
  C  C304  1  0.506600  0.295100  0.564300  1.0
  C  C305  1  0.204900  0.211500  0.769200  1.0
  C  C306  1  0.057700  0.288500  0.993400  1.0
  C  C307  1  0.442300  0.935700  0.730800  1.0
  C  C308  1  0.295100  0.564300  0.506600  1.0
  C  C309  1  0.711500  0.704900  0.269200  1.0
  C  C310  1  0.788500  0.557700  0.493400  1.0
  C  C311  1  0.435700  0.942300  0.230800  1.0
  C  C312  1  0.064300  0.795100  0.006600  1.0
  C  C313  1  0.269200  0.711500  0.704900  1.0
  C  C314  1  0.493400  0.788500  0.557700  1.0
  C  C315  1  0.230800  0.435700  0.942300  1.0
  C  C316  1  0.006600  0.064300  0.795100  1.0
  C  C317  1  0.704900  0.269200  0.711500  1.0
  C  C318  1  0.557700  0.493400  0.788500  1.0
  C  C319  1  0.942300  0.230800  0.435700  1.0
  C  C320  1  0.795100  0.006600  0.064300  1.0
  C  C321  1  0.326100  0.819900  0.289600  1.0
  C  C322  1  0.173900  0.963500  0.993800  1.0
  C  C323  1  0.969700  0.680100  0.506200  1.0
  C  C324  1  0.530300  0.536500  0.210400  1.0
  C  C325  1  0.819900  0.289600  0.326100  1.0
  C  C326  1  0.963500  0.993800  0.173900  1.0
  C  C327  1  0.680100  0.506200  0.969700  1.0
  C  C328  1  0.536500  0.210400  0.530300  1.0
  C  C329  1  0.289600  0.326100  0.819900  1.0
  C  C330  1  0.993800  0.173900  0.963500  1.0
  C  C331  1  0.506200  0.969700  0.680100  1.0
  C  C332  1  0.210400  0.530300  0.536500  1.0
  C  C333  1  0.826100  0.789600  0.319900  1.0
  C  C334  1  0.673900  0.493800  0.463500  1.0
  C  C335  1  0.469700  0.006200  0.180100  1.0
  C  C336  1  0.030300  0.710400  0.036500  1.0
  C  C337  1  0.319900  0.826100  0.789600  1.0
  C  C338  1  0.463500  0.673900  0.493800  1.0
  C  C339  1  0.180100  0.469700  0.006200  1.0
  C  C340  1  0.036500  0.030300  0.710400  1.0
  C  C341  1  0.789600  0.319900  0.826100  1.0
  C  C342  1  0.493800  0.463500  0.673900  1.0
  C  C343  1  0.006200  0.180100  0.469700  1.0
  C  C344  1  0.710400  0.036500  0.030300  1.0
  C  C345  1  0.699700  0.055200  0.566300  1.0
  C  C346  1  0.800300  0.866600  0.855500  1.0
  C  C347  1  0.011100  0.444800  0.644500  1.0
  C  C348  1  0.488900  0.633400  0.933700  1.0
  C  C349  1  0.055200  0.566300  0.699700  1.0
  C  C350  1  0.866600  0.855500  0.800300  1.0
  C  C351  1  0.444800  0.644500  0.011100  1.0
  C  C352  1  0.633400  0.933700  0.488900  1.0
  C  C353  1  0.566300  0.699700  0.055200  1.0
  C  C354  1  0.855500  0.800300  0.866600  1.0
  C  C355  1  0.644500  0.011100  0.444800  1.0
  C  C356  1  0.933700  0.488900  0.633400  1.0
  C  C357  1  0.199700  0.066300  0.555200  1.0
  C  C358  1  0.300300  0.355500  0.366600  1.0
  C  C359  1  0.511100  0.144500  0.944800  1.0
  C  C360  1  0.988900  0.433700  0.133400  1.0
  C  C361  1  0.555200  0.199700  0.066300  1.0
  C  C362  1  0.366600  0.300300  0.355500  1.0
  C  C363  1  0.944800  0.511100  0.144500  1.0
  C  C364  1  0.133400  0.988900  0.433700  1.0
  C  C365  1  0.066300  0.555200  0.199700  1.0
  C  C366  1  0.355500  0.366600  0.300300  1.0
  C  C367  1  0.144500  0.944800  0.511100  1.0
  C  C368  1  0.433700  0.133400  0.988900  1.0
  C  C369  1  0.736600  0.075200  0.607400  1.0
  C  C370  1  0.763400  0.870800  0.838600  1.0
  C  C371  1  0.032200  0.424800  0.661400  1.0
  C  C372  1  0.467800  0.629200  0.892600  1.0
  C  C373  1  0.075200  0.607400  0.736600  1.0
  C  C374  1  0.870800  0.838600  0.763400  1.0
  C  C375  1  0.424800  0.661400  0.032200  1.0
  C  C376  1  0.629200  0.892600  0.467800  1.0
  C  C377  1  0.607400  0.736600  0.075200  1.0
  C  C378  1  0.838600  0.763400  0.870800  1.0
  C  C379  1  0.661400  0.032200  0.424800  1.0
  C  C380  1  0.892600  0.467800  0.629200  1.0
  C  C381  1  0.236600  0.107400  0.575200  1.0
  C  C382  1  0.263400  0.338600  0.370800  1.0
  C  C383  1  0.532200  0.161400  0.924800  1.0
  C  C384  1  0.967800  0.392600  0.129200  1.0
  C  C385  1  0.575200  0.236600  0.107400  1.0
  C  C386  1  0.370800  0.263400  0.338600  1.0
  C  C387  1  0.924800  0.532200  0.161400  1.0
  C  C388  1  0.129200  0.967800  0.392600  1.0
  C  C389  1  0.107400  0.575200  0.236600  1.0
  C  C390  1  0.338600  0.370800  0.263400  1.0
  C  C391  1  0.161400  0.924800  0.532200  1.0
  C  C392  1  0.392600  0.129200  0.967800  1.0
  C  C393  1  0.690300  0.043800  0.633500  1.0
  C  C394  1  0.809700  0.943200  0.853500  1.0
  C  C395  1  0.089700  0.456200  0.646500  1.0
  C  C396  1  0.410300  0.556800  0.866500  1.0
  C  C397  1  0.043800  0.633500  0.690300  1.0
  C  C398  1  0.943200  0.853500  0.809700  1.0
  C  C399  1  0.456200  0.646500  0.089700  1.0
  C  C400  1  0.556800  0.866500  0.410300  1.0
  C  C401  1  0.633500  0.690300  0.043800  1.0
  C  C402  1  0.853500  0.809700  0.943200  1.0
  C  C403  1  0.646500  0.089700  0.456200  1.0
  C  C404  1  0.866500  0.410300  0.556800  1.0
  C  C405  1  0.190300  0.133500  0.543800  1.0
  C  C406  1  0.309700  0.353500  0.443200  1.0
  C  C407  1  0.589700  0.146500  0.956200  1.0
  C  C408  1  0.910300  0.366500  0.056800  1.0
  C  C409  1  0.543800  0.190300  0.133500  1.0
  C  C410  1  0.443200  0.309700  0.353500  1.0
  C  C411  1  0.956200  0.589700  0.146500  1.0
  C  C412  1  0.056800  0.910300  0.366500  1.0
  C  C413  1  0.133500  0.543800  0.190300  1.0
  C  C414  1  0.353500  0.443200  0.309700  1.0
  C  C415  1  0.146500  0.956200  0.589700  1.0
  C  C416  1  0.366500  0.056800  0.910300  1.0
  C  C417  1  0.653390  0.023800  0.592390  1.0
  C  C418  1  0.846610  0.939000  0.870410  1.0
  C  C419  1  0.068590  0.476200  0.629590  1.0
  C  C420  1  0.431410  0.561000  0.907610  1.0
  C  C421  1  0.023800  0.592390  0.653390  1.0
  C  C422  1  0.939000  0.870410  0.846610  1.0
  C  C423  1  0.476200  0.629590  0.068590  1.0
  C  C424  1  0.561000  0.907610  0.431410  1.0
  C  C425  1  0.592390  0.653390  0.023800  1.0
  C  C426  1  0.870410  0.846610  0.939000  1.0
  C  C427  1  0.629590  0.068590  0.476200  1.0
  C  C428  1  0.907610  0.431410  0.561000  1.0
  C  C429  1  0.153390  0.092390  0.523800  1.0
  C  C430  1  0.346610  0.370410  0.439000  1.0
  C  C431  1  0.568590  0.129590  0.976200  1.0
  C  C432  1  0.931410  0.407610  0.061000  1.0
  C  C433  1  0.523800  0.153390  0.092390  1.0
  C  C434  1  0.439000  0.346610  0.370410  1.0
  C  C435  1  0.976200  0.568590  0.129590  1.0
  C  C436  1  0.061000  0.931410  0.407610  1.0
  C  C437  1  0.092390  0.523800  0.153390  1.0
  C  C438  1  0.370410  0.439000  0.346610  1.0
  C  C439  1  0.129590  0.976200  0.568590  1.0
  C  C440  1  0.407610  0.061000  0.931410  1.0
  C  C441  1  0.553230  0.959300  0.585530  1.0
  C  C442  1  0.946770  0.032300  0.906070  1.0
  C  C443  1  0.126230  0.540700  0.593930  1.0
  C  C444  1  0.373770  0.467700  0.914470  1.0
  C  C445  1  0.959300  0.585530  0.553230  1.0
  C  C446  1  0.032300  0.906070  0.946770  1.0
  C  C447  1  0.540700  0.593930  0.126230  1.0
  C  C448  1  0.467700  0.914470  0.373770  1.0
  C  C449  1  0.585530  0.553230  0.959300  1.0
  C  C450  1  0.906070  0.946770  0.032300  1.0
  C  C451  1  0.593930  0.126230  0.540700  1.0
  C  C452  1  0.914470  0.373770  0.467700  1.0
  C  C453  1  0.053230  0.085530  0.459300  1.0
  C  C454  1  0.446770  0.406070  0.532300  1.0
  C  C455  1  0.626230  0.093930  0.040700  1.0
  C  C456  1  0.873770  0.414470  0.967700  1.0
  C  C457  1  0.459300  0.053230  0.085530  1.0
  C  C458  1  0.532300  0.446770  0.406070  1.0
  C  C459  1  0.040700  0.626230  0.093930  1.0
  C  C460  1  0.967700  0.873770  0.414470  1.0
  C  C461  1  0.085530  0.459300  0.053230  1.0
  C  C462  1  0.406070  0.532300  0.446770  1.0
  C  C463  1  0.093930  0.040700  0.626230  1.0
  C  C464  1  0.414470  0.967700  0.873770  1.0
  C  C465  1  0.599750  0.987450  0.611400  1.0
  C  C466  1  0.900250  0.011650  0.887700  1.0
  C  C467  1  0.123950  0.512550  0.612300  1.0
  C  C468  1  0.376050  0.488350  0.888600  1.0
  C  C469  1  0.987450  0.611400  0.599750  1.0
  C  C470  1  0.011650  0.887700  0.900250  1.0
  C  C471  1  0.512550  0.612300  0.123950  1.0
  C  C472  1  0.488350  0.888600  0.376050  1.0
  C  C473  1  0.611400  0.599750  0.987450  1.0
  C  C474  1  0.887700  0.900250  0.011650  1.0
  C  C475  1  0.612300  0.123950  0.512550  1.0
  C  C476  1  0.888600  0.376050  0.488350  1.0
  C  C477  1  0.099750  0.111400  0.487450  1.0
  C  C478  1  0.400250  0.387700  0.511650  1.0
  C  C479  1  0.623950  0.112300  0.012550  1.0
  C  C480  1  0.876050  0.388600  0.988350  1.0
  C  C481  1  0.487450  0.099750  0.111400  1.0
  C  C482  1  0.511650  0.400250  0.387700  1.0
  C  C483  1  0.012550  0.623950  0.112300  1.0
  C  C484  1  0.988350  0.876050  0.388600  1.0
  C  C485  1  0.111400  0.487450  0.099750  1.0
  C  C486  1  0.387700  0.511650  0.400250  1.0
  C  C487  1  0.112300  0.012550  0.623950  1.0
  C  C488  1  0.388600  0.988350  0.876050  1.0
  C  C489  1  0.614720  0.000600  0.584920  1.0
  C  C490  1  0.885280  0.970200  0.885880  1.0
  C  C491  1  0.084320  0.499400  0.614120  1.0
  C  C492  1  0.415680  0.529800  0.915080  1.0
  C  C493  1  0.000600  0.584920  0.614720  1.0
  C  C494  1  0.970200  0.885880  0.885280  1.0
  C  C495  1  0.499400  0.614120  0.084320  1.0
  C  C496  1  0.529800  0.915080  0.415680  1.0
  C  C497  1  0.584920  0.614720  0.000600  1.0
  C  C498  1  0.885880  0.885280  0.970200  1.0
  C  C499  1  0.614120  0.084320  0.499400  1.0
  C  C500  1  0.915080  0.415680  0.529800  1.0
  C  C501  1  0.114720  0.084920  0.500600  1.0
  C  C502  1  0.385280  0.385880  0.470200  1.0
  C  C503  1  0.584320  0.114120  0.999400  1.0
  C  C504  1  0.915680  0.415080  0.029800  1.0
  C  C505  1  0.500600  0.114720  0.084920  1.0
  C  C506  1  0.470200  0.385280  0.385880  1.0
  C  C507  1  0.999400  0.584320  0.114120  1.0
  C  C508  1  0.029800  0.915680  0.415080  1.0
  C  C509  1  0.084920  0.500600  0.114720  1.0
  C  C510  1  0.385880  0.470200  0.385280  1.0
  C  C511  1  0.114120  0.999400  0.584320  1.0
  C  C512  1  0.415080  0.029800  0.915680  1.0
  C  C513  1  0.498700  0.932000  0.506500  1.0
  C  C514  1  0.001300  0.007800  0.933300  1.0
  C  C515  1  0.074500  0.568000  0.566700  1.0
  C  C516  1  0.425500  0.492200  0.993500  1.0
  C  C517  1  0.932000  0.506500  0.498700  1.0
  C  C518  1  0.007800  0.933300  0.001300  1.0
  C  C519  1  0.568000  0.566700  0.074500  1.0
  C  C520  1  0.492200  0.993500  0.425500  1.0
  C  C521  1  0.506500  0.498700  0.932000  1.0
  C  C522  1  0.933300  0.001300  0.007800  1.0
  C  C523  1  0.566700  0.074500  0.568000  1.0
  C  C524  1  0.993500  0.425500  0.492200  1.0
  C  C525  1  0.998700  0.006500  0.432000  1.0
  C  C526  1  0.501300  0.433300  0.507800  1.0
  C  C527  1  0.574500  0.066700  0.068000  1.0
  C  C528  1  0.925500  0.493500  0.992200  1.0
  C  C529  1  0.432000  0.998700  0.006500  1.0
  C  C530  1  0.507800  0.501300  0.433300  1.0
  C  C531  1  0.068000  0.574500  0.066700  1.0
  C  C532  1  0.992200  0.925500  0.493500  1.0
  C  C533  1  0.006500  0.432000  0.998700  1.0
  C  C534  1  0.433300  0.507800  0.501300  1.0
  C  C535  1  0.066700  0.068000  0.574500  1.0
  C  C536  1  0.493500  0.992200  0.925500  1.0
  C  C537  1  0.484730  0.884450  0.475600  1.0
  C  C538  1  0.015270  0.990870  0.899720  1.0
  C  C539  1  0.091150  0.615550  0.600280  1.0
  C  C540  1  0.408850  0.509130  0.024400  1.0
  C  C541  1  0.884450  0.475600  0.484730  1.0
  C  C542  1  0.990870  0.899720  0.015270  1.0
  C  C543  1  0.615550  0.600280  0.091150  1.0
  C  C544  1  0.509130  0.024400  0.408850  1.0
  C  C545  1  0.475600  0.484730  0.884450  1.0
  C  C546  1  0.899720  0.015270  0.990870  1.0
  C  C547  1  0.600280  0.091150  0.615550  1.0
  C  C548  1  0.024400  0.408850  0.509130  1.0
  C  C549  1  0.984730  0.975600  0.384450  1.0
  C  C550  1  0.515270  0.399720  0.490870  1.0
  C  C551  1  0.591150  0.100280  0.115550  1.0
  C  C552  1  0.908850  0.524400  0.009130  1.0
  C  C553  1  0.384450  0.984730  0.975600  1.0
  C  C554  1  0.490870  0.515270  0.399720  1.0
  C  C555  1  0.115550  0.591150  0.100280  1.0
  C  C556  1  0.009130  0.908850  0.524400  1.0
  C  C557  1  0.975600  0.384450  0.984730  1.0
  C  C558  1  0.399720  0.490870  0.515270  1.0
  C  C559  1  0.100280  0.115550  0.591150  1.0
  C  C560  1  0.524400  0.009130  0.908850  1.0
  C  C561  1  0.444210  0.861840  0.437190  1.0
  C  C562  1  0.055790  0.992980  0.917630  1.0
  C  C563  1  0.075350  0.638160  0.582370  1.0
  C  C564  1  0.424650  0.507020  0.062810  1.0
  C  C565  1  0.861840  0.437190  0.444210  1.0
  C  C566  1  0.992980  0.917630  0.055790  1.0
  C  C567  1  0.638160  0.582370  0.075350  1.0
  C  C568  1  0.507020  0.062810  0.424650  1.0
  C  C569  1  0.437190  0.444210  0.861840  1.0
  C  C570  1  0.917630  0.055790  0.992980  1.0
  C  C571  1  0.582370  0.075350  0.638160  1.0
  C  C572  1  0.062810  0.424650  0.507020  1.0
  C  C573  1  0.944210  0.937190  0.361840  1.0
  C  C574  1  0.555790  0.417630  0.492980  1.0
  C  C575  1  0.575350  0.082370  0.138160  1.0
  C  C576  1  0.924650  0.562810  0.007020  1.0
  C  C577  1  0.361840  0.944210  0.937190  1.0
  C  C578  1  0.492980  0.555790  0.417630  1.0
  C  C579  1  0.138160  0.575350  0.082370  1.0
  C  C580  1  0.007020  0.924650  0.562810  1.0
  C  C581  1  0.937190  0.361840  0.944210  1.0
  C  C582  1  0.417630  0.492980  0.555790  1.0
  C  C583  1  0.082370  0.138160  0.575350  1.0
  C  C584  1  0.562810  0.007020  0.924650  1.0
  C  C585  1  0.428200  0.818570  0.406270  1.0
  C  C586  1  0.071800  0.978070  0.890370  1.0
  C  C587  1  0.087700  0.681430  0.609630  1.0
  C  C588  1  0.412300  0.521930  0.093730  1.0
  C  C589  1  0.818570  0.406270  0.428200  1.0
  C  C590  1  0.978070  0.890370  0.071800  1.0
  C  C591  1  0.681430  0.609630  0.087700  1.0
  C  C592  1  0.521930  0.093730  0.412300  1.0
  C  C593  1  0.406270  0.428200  0.818570  1.0
  C  C594  1  0.890370  0.071800  0.978070  1.0
  C  C595  1  0.609630  0.087700  0.681430  1.0
  C  C596  1  0.093730  0.412300  0.521930  1.0
  C  C597  1  0.928200  0.906270  0.318570  1.0
  C  C598  1  0.571800  0.390370  0.478070  1.0
  C  C599  1  0.587700  0.109630  0.181430  1.0
  C  C600  1  0.912300  0.593730  0.021930  1.0
  C  C601  1  0.318570  0.928200  0.906270  1.0
  C  C602  1  0.478070  0.571800  0.390370  1.0
  C  C603  1  0.181430  0.587700  0.109630  1.0
  C  C604  1  0.021930  0.912300  0.593730  1.0
  C  C605  1  0.906270  0.318570  0.928200  1.0
  C  C606  1  0.390370  0.478070  0.571800  1.0
  C  C607  1  0.109630  0.181430  0.587700  1.0
  C  C608  1  0.593730  0.021930  0.912300  1.0
  C  C609  1  0.452690  0.797910  0.413760  1.0
  C  C610  1  0.047310  0.961070  0.845220  1.0
  C  C611  1  0.115850  0.702090  0.654780  1.0
  C  C612  1  0.384150  0.538930  0.086240  1.0
  C  C613  1  0.797910  0.413760  0.452690  1.0
  C  C614  1  0.961070  0.845220  0.047310  1.0
  C  C615  1  0.702090  0.654780  0.115850  1.0
  C  C616  1  0.538930  0.086240  0.384150  1.0
  C  C617  1  0.413760  0.452690  0.797910  1.0
  C  C618  1  0.845220  0.047310  0.961070  1.0
  C  C619  1  0.654780  0.115850  0.702090  1.0
  C  C620  1  0.086240  0.384150  0.538930  1.0
  C  C621  1  0.952690  0.913760  0.297910  1.0
  C  C622  1  0.547310  0.345220  0.461070  1.0
  C  C623  1  0.615850  0.154780  0.202090  1.0
  C  C624  1  0.884150  0.586240  0.038930  1.0
  C  C625  1  0.297910  0.952690  0.913760  1.0
  C  C626  1  0.461070  0.547310  0.345220  1.0
  C  C627  1  0.202090  0.615850  0.154780  1.0
  C  C628  1  0.038930  0.884150  0.586240  1.0
  C  C629  1  0.913760  0.297910  0.952690  1.0
  C  C630  1  0.345220  0.461070  0.547310  1.0
  C  C631  1  0.154780  0.202090  0.615850  1.0
  C  C632  1  0.586240  0.038930  0.884150  1.0
  C  C633  1  0.493210  0.820530  0.452180  1.0
  C  C634  1  0.006790  0.958970  0.827320  1.0
  C  C635  1  0.131650  0.679470  0.672680  1.0
  C  C636  1  0.368350  0.541030  0.047820  1.0
  C  C637  1  0.820530  0.452180  0.493210  1.0
  C  C638  1  0.958970  0.827320  0.006790  1.0
  C  C639  1  0.679470  0.672680  0.131650  1.0
  C  C640  1  0.541030  0.047820  0.368350  1.0
  C  C641  1  0.452180  0.493210  0.820530  1.0
  C  C642  1  0.827320  0.006790  0.958970  1.0
  C  C643  1  0.672680  0.131650  0.679470  1.0
  C  C644  1  0.047820  0.368350  0.541030  1.0
  C  C645  1  0.993210  0.952180  0.320530  1.0
  C  C646  1  0.506790  0.327320  0.458970  1.0
  C  C647  1  0.631650  0.172680  0.179470  1.0
  C  C648  1  0.868350  0.547820  0.041030  1.0
  C  C649  1  0.320530  0.993210  0.952180  1.0
  C  C650  1  0.458970  0.506790  0.327320  1.0
  C  C651  1  0.179470  0.631650  0.172680  1.0
  C  C652  1  0.041030  0.868350  0.547820  1.0
  C  C653  1  0.952180  0.320530  0.993210  1.0
  C  C654  1  0.327320  0.458970  0.506790  1.0
  C  C655  1  0.172680  0.179470  0.631650  1.0
  C  C656  1  0.547820  0.041030  0.868350  1.0
  C  C657  1  0.509230  0.863800  0.483090  1.0
  C  C658  1  0.990770  0.973860  0.854570  1.0
  C  C659  1  0.119290  0.636200  0.645430  1.0
  C  C660  1  0.380710  0.526140  0.016910  1.0
  C  C661  1  0.863800  0.483090  0.509230  1.0
  C  C662  1  0.973860  0.854570  0.990770  1.0
  C  C663  1  0.636200  0.645430  0.119290  1.0
  C  C664  1  0.526140  0.016910  0.380710  1.0
  C  C665  1  0.483090  0.509230  0.863800  1.0
  C  C666  1  0.854570  0.990770  0.973860  1.0
  C  C667  1  0.645430  0.119290  0.636200  1.0
  C  C668  1  0.016910  0.380710  0.526140  1.0
  C  C669  1  0.009230  0.983090  0.363800  1.0
  C  C670  1  0.490770  0.354570  0.473860  1.0
  C  C671  1  0.619290  0.145430  0.136200  1.0
  C  C672  1  0.880710  0.516910  0.026140  1.0
  C  C673  1  0.363800  0.009230  0.983090  1.0
  C  C674  1  0.473860  0.490770  0.354570  1.0
  C  C675  1  0.136200  0.619290  0.145430  1.0
  C  C676  1  0.026140  0.880710  0.516910  1.0
  C  C677  1  0.983090  0.363800  0.009230  1.0
  C  C678  1  0.354570  0.473860  0.490770  1.0
  C  C679  1  0.145430  0.136200  0.619290  1.0
  C  C680  1  0.516910  0.026140  0.880710  1.0
  C  C681  1  0.333540  0.791420  0.307540  1.0
  C  C682  1  0.166460  0.974000  0.957880  1.0
  C  C683  1  0.016120  0.708580  0.542120  1.0
  C  C684  1  0.483880  0.526000  0.192460  1.0
  C  C685  1  0.791420  0.307540  0.333540  1.0
  C  C686  1  0.974000  0.957880  0.166460  1.0
  C  C687  1  0.708580  0.542120  0.016120  1.0
  C  C688  1  0.526000  0.192460  0.483880  1.0
  C  C689  1  0.307540  0.333540  0.791420  1.0
  C  C690  1  0.957880  0.166460  0.974000  1.0
  C  C691  1  0.542120  0.016120  0.708580  1.0
  C  C692  1  0.192460  0.483880  0.526000  1.0
  C  C693  1  0.833540  0.807540  0.291420  1.0
  C  C694  1  0.666460  0.457880  0.474000  1.0
  C  C695  1  0.516120  0.042120  0.208580  1.0
  C  C696  1  0.983880  0.692460  0.026000  1.0
  C  C697  1  0.291420  0.833540  0.807540  1.0
  C  C698  1  0.474000  0.666460  0.457880  1.0
  C  C699  1  0.208580  0.516120  0.042120  1.0
  C  C700  1  0.026000  0.983880  0.692460  1.0
  C  C701  1  0.807540  0.291420  0.833540  1.0
  C  C702  1  0.457880  0.474000  0.666460  1.0
  C  C703  1  0.042120  0.208580  0.516120  1.0
  C  C704  1  0.692460  0.026000  0.983880  1.0
  C  C705  1  0.373500  0.816800  0.346940  1.0
  C  C706  1  0.126500  0.973440  0.943300  1.0
  C  C707  1  0.030140  0.683200  0.556700  1.0
  C  C708  1  0.469860  0.526560  0.153060  1.0
  C  C709  1  0.816800  0.346940  0.373500  1.0
  C  C710  1  0.973440  0.943300  0.126500  1.0
  C  C711  1  0.683200  0.556700  0.030140  1.0
  C  C712  1  0.526560  0.153060  0.469860  1.0
  C  C713  1  0.346940  0.373500  0.816800  1.0
  C  C714  1  0.943300  0.126500  0.973440  1.0
  C  C715  1  0.556700  0.030140  0.683200  1.0
  C  C716  1  0.153060  0.469860  0.526560  1.0
  C  C717  1  0.873500  0.846940  0.316800  1.0
  C  C718  1  0.626500  0.443300  0.473440  1.0
  C  C719  1  0.530140  0.056700  0.183200  1.0
  C  C720  1  0.969860  0.653060  0.026560  1.0
  C  C721  1  0.316800  0.873500  0.846940  1.0
  C  C722  1  0.473440  0.626500  0.443300  1.0
  C  C723  1  0.183200  0.530140  0.056700  1.0
  C  C724  1  0.026560  0.969860  0.653060  1.0
  C  C725  1  0.846940  0.316800  0.873500  1.0
  C  C726  1  0.443300  0.473440  0.626500  1.0
  C  C727  1  0.056700  0.183200  0.530140  1.0
  C  C728  1  0.653060  0.026560  0.969860  1.0
  C  C729  1  0.387440  0.797680  0.371020  1.0
  C  C730  1  0.112560  0.983580  0.910240  1.0
  C  C731  1  0.073340  0.702320  0.589760  1.0
  C  C732  1  0.426660  0.516420  0.128980  1.0
  C  C733  1  0.797680  0.371020  0.387440  1.0
  C  C734  1  0.983580  0.910240  0.112560  1.0
  C  C735  1  0.702320  0.589760  0.073340  1.0
  C  C736  1  0.516420  0.128980  0.426660  1.0
  C  C737  1  0.371020  0.387440  0.797680  1.0
  C  C738  1  0.910240  0.112560  0.983580  1.0
  C  C739  1  0.589760  0.073340  0.702320  1.0
  C  C740  1  0.128980  0.426660  0.516420  1.0
  C  C741  1  0.887440  0.871020  0.297680  1.0
  C  C742  1  0.612560  0.410240  0.483580  1.0
  C  C743  1  0.573340  0.089760  0.202320  1.0
  C  C744  1  0.926660  0.628980  0.016420  1.0
  C  C745  1  0.297680  0.887440  0.871020  1.0
  C  C746  1  0.483580  0.612560  0.410240  1.0
  C  C747  1  0.202320  0.573340  0.089760  1.0
  C  C748  1  0.016420  0.926660  0.628980  1.0
  C  C749  1  0.871020  0.297680  0.887440  1.0
  C  C750  1  0.410240  0.483580  0.612560  1.0
  C  C751  1  0.089760  0.202320  0.573340  1.0
  C  C752  1  0.628980  0.016420  0.926660  1.0
  C  C753  1  0.361420  0.753160  0.355700  1.0
  C  C754  1  0.138580  0.994280  0.891740  1.0
  C  C755  1  0.102540  0.746840  0.608260  1.0
  C  C756  1  0.397460  0.505720  0.144300  1.0
  C  C757  1  0.753160  0.355700  0.361420  1.0
  C  C758  1  0.994280  0.891740  0.138580  1.0
  C  C759  1  0.746840  0.608260  0.102540  1.0
  C  C760  1  0.505720  0.144300  0.397460  1.0
  C  C761  1  0.355700  0.361420  0.753160  1.0
  C  C762  1  0.891740  0.138580  0.994280  1.0
  C  C763  1  0.608260  0.102540  0.746840  1.0
  C  C764  1  0.144300  0.397460  0.505720  1.0
  C  C765  1  0.861420  0.855700  0.253160  1.0
  C  C766  1  0.638580  0.391740  0.494280  1.0
  C  C767  1  0.602540  0.108260  0.246840  1.0
  C  C768  1  0.897460  0.644300  0.005720  1.0
  C  C769  1  0.253160  0.861420  0.855700  1.0
  C  C770  1  0.494280  0.638580  0.391740  1.0
  C  C771  1  0.246840  0.602540  0.108260  1.0
  C  C772  1  0.005720  0.897460  0.644300  1.0
  C  C773  1  0.855700  0.253160  0.861420  1.0
  C  C774  1  0.391740  0.494280  0.638580  1.0
  C  C775  1  0.108260  0.246840  0.602540  1.0
  C  C776  1  0.644300  0.005720  0.897460  1.0
  C  C777  1  0.321460  0.727770  0.316290  1.0
  C  C778  1  0.178540  0.994830  0.906310  1.0
  C  C779  1  0.088520  0.772230  0.593690  1.0
  C  C780  1  0.411480  0.505170  0.183710  1.0
  C  C781  1  0.727770  0.316290  0.321460  1.0
  C  C782  1  0.994830  0.906310  0.178540  1.0
  C  C783  1  0.772230  0.593690  0.088520  1.0
  C  C784  1  0.505170  0.183710  0.411480  1.0
  C  C785  1  0.316290  0.321460  0.727770  1.0
  C  C786  1  0.906310  0.178540  0.994830  1.0
  C  C787  1  0.593690  0.088520  0.772230  1.0
  C  C788  1  0.183710  0.411480  0.505170  1.0
  C  C789  1  0.821460  0.816290  0.227770  1.0
  C  C790  1  0.678540  0.406310  0.494830  1.0
  C  C791  1  0.588520  0.093690  0.272230  1.0
  C  C792  1  0.911480  0.683710  0.005170  1.0
  C  C793  1  0.227770  0.821460  0.816290  1.0
  C  C794  1  0.494830  0.678540  0.406310  1.0
  C  C795  1  0.272230  0.588520  0.093690  1.0
  C  C796  1  0.005170  0.911480  0.683710  1.0
  C  C797  1  0.816290  0.227770  0.821460  1.0
  C  C798  1  0.406310  0.494830  0.678540  1.0
  C  C799  1  0.093690  0.272230  0.588520  1.0
  C  C800  1  0.683710  0.005170  0.911480  1.0
  C  C801  1  0.307520  0.746890  0.292210  1.0
  C  C802  1  0.192480  0.984690  0.939370  1.0
  C  C803  1  0.045320  0.753110  0.560630  1.0
  C  C804  1  0.454680  0.515310  0.207790  1.0
  C  C805  1  0.746890  0.292210  0.307520  1.0
  C  C806  1  0.984690  0.939370  0.192480  1.0
  C  C807  1  0.753110  0.560630  0.045320  1.0
  C  C808  1  0.515310  0.207790  0.454680  1.0
  C  C809  1  0.292210  0.307520  0.746890  1.0
  C  C810  1  0.939370  0.192480  0.984690  1.0
  C  C811  1  0.560630  0.045320  0.753110  1.0
  C  C812  1  0.207790  0.454680  0.515310  1.0
  C  C813  1  0.807520  0.792210  0.246890  1.0
  C  C814  1  0.692480  0.439370  0.484690  1.0
  C  C815  1  0.545320  0.060630  0.253110  1.0
  C  C816  1  0.954680  0.707790  0.015310  1.0
  C  C817  1  0.246890  0.807520  0.792210  1.0
  C  C818  1  0.484690  0.692480  0.439370  1.0
  C  C819  1  0.253110  0.545320  0.060630  1.0
  C  C820  1  0.015310  0.954680  0.707790  1.0
  C  C821  1  0.792210  0.246890  0.807520  1.0
  C  C822  1  0.439370  0.484690  0.692480  1.0
  C  C823  1  0.060630  0.253110  0.545320  1.0
  C  C824  1  0.707790  0.015310  0.954680  1.0
  C  C825  1  0.480020  0.228050  0.611170  1.0
  C  C826  1  0.019980  0.131150  0.248030  1.0
  C  C827  1  0.883120  0.271950  0.251970  1.0
  C  C828  1  0.616880  0.368850  0.888830  1.0
  C  C829  1  0.228050  0.611170  0.480020  1.0
  C  C830  1  0.131150  0.248030  0.019980  1.0
  C  C831  1  0.271950  0.251970  0.883120  1.0
  C  C832  1  0.368850  0.888830  0.616880  1.0
  C  C833  1  0.611170  0.480020  0.228050  1.0
  C  C834  1  0.248030  0.019980  0.131150  1.0
  C  C835  1  0.251970  0.883120  0.271950  1.0
  C  C836  1  0.888830  0.616880  0.368850  1.0
  C  C837  1  0.980020  0.111170  0.728050  1.0
  C  C838  1  0.519980  0.748030  0.631150  1.0
  C  C839  1  0.383120  0.751970  0.771950  1.0
  C  C840  1  0.116880  0.388830  0.868850  1.0
  C  C841  1  0.728050  0.980020  0.111170  1.0
  C  C842  1  0.631150  0.519980  0.748030  1.0
  C  C843  1  0.771950  0.383120  0.751970  1.0
  C  C844  1  0.868850  0.116880  0.388830  1.0
  C  C845  1  0.111170  0.728050  0.980020  1.0
  C  C846  1  0.748030  0.631150  0.519980  1.0
  C  C847  1  0.751970  0.771950  0.383120  1.0
  C  C848  1  0.388830  0.868850  0.116880  1.0
  C  C849  1  0.490430  0.238180  0.654170  1.0
  C  C850  1  0.009570  0.163740  0.247750  1.0
  C  C851  1  0.915990  0.261820  0.252250  1.0
  C  C852  1  0.584010  0.336260  0.845830  1.0
  C  C853  1  0.238180  0.654170  0.490430  1.0
  C  C854  1  0.163740  0.247750  0.009570  1.0
  C  C855  1  0.261820  0.252250  0.915990  1.0
  C  C856  1  0.336260  0.845830  0.584010  1.0
  C  C857  1  0.654170  0.490430  0.238180  1.0
  C  C858  1  0.247750  0.009570  0.163740  1.0
  C  C859  1  0.252250  0.915990  0.261820  1.0
  C  C860  1  0.845830  0.584010  0.336260  1.0
  C  C861  1  0.990430  0.154170  0.738180  1.0
  C  C862  1  0.509570  0.747750  0.663740  1.0
  C  C863  1  0.415990  0.752250  0.761820  1.0
  C  C864  1  0.084010  0.345830  0.836260  1.0
  C  C865  1  0.738180  0.990430  0.154170  1.0
  C  C866  1  0.663740  0.509570  0.747750  1.0
  C  C867  1  0.761820  0.415990  0.752250  1.0
  C  C868  1  0.836260  0.084010  0.345830  1.0
  C  C869  1  0.154170  0.738180  0.990430  1.0
  C  C870  1  0.747750  0.663740  0.509570  1.0
  C  C871  1  0.752250  0.761820  0.415990  1.0
  C  C872  1  0.345830  0.836260  0.084010  1.0
  C  C873  1  0.414110  0.213000  0.633390  1.0
  C  C874  1  0.085890  0.219280  0.298890  1.0
  C  C875  1  0.920390  0.287000  0.201110  1.0
  C  C876  1  0.579610  0.280720  0.866610  1.0
  C  C877  1  0.213000  0.633390  0.414110  1.0
  C  C878  1  0.219280  0.298890  0.085890  1.0
  C  C879  1  0.287000  0.201110  0.920390  1.0
  C  C880  1  0.280720  0.866610  0.579610  1.0
  C  C881  1  0.633390  0.414110  0.213000  1.0
  C  C882  1  0.298890  0.085890  0.219280  1.0
  C  C883  1  0.201110  0.920390  0.287000  1.0
  C  C884  1  0.866610  0.579610  0.280720  1.0
  C  C885  1  0.914110  0.133390  0.713000  1.0
  C  C886  1  0.585890  0.798890  0.719280  1.0
  C  C887  1  0.420390  0.701110  0.787000  1.0
  C  C888  1  0.079610  0.366610  0.780720  1.0
  C  C889  1  0.713000  0.914110  0.133390  1.0
  C  C890  1  0.719280  0.585890  0.798890  1.0
  C  C891  1  0.787000  0.420390  0.701110  1.0
  C  C892  1  0.780720  0.079610  0.366610  1.0
  C  C893  1  0.133390  0.713000  0.914110  1.0
  C  C894  1  0.798890  0.719280  0.585890  1.0
  C  C895  1  0.701110  0.787000  0.420390  1.0
  C  C896  1  0.366610  0.780720  0.079610  1.0
  C  C897  1  0.403710  0.202870  0.590400  1.0
  C  C898  1  0.096290  0.186690  0.299160  1.0
  C  C899  1  0.887530  0.297130  0.200840  1.0
  C  C900  1  0.612470  0.313310  0.909600  1.0
  C  C901  1  0.202870  0.590400  0.403710  1.0
  C  C902  1  0.186690  0.299160  0.096290  1.0
  C  C903  1  0.297130  0.200840  0.887530  1.0
  C  C904  1  0.313310  0.909600  0.612470  1.0
  C  C905  1  0.590400  0.403710  0.202870  1.0
  C  C906  1  0.299160  0.096290  0.186690  1.0
  C  C907  1  0.200840  0.887530  0.297130  1.0
  C  C908  1  0.909600  0.612470  0.313310  1.0
  C  C909  1  0.903710  0.090400  0.702870  1.0
  C  C910  1  0.596290  0.799160  0.686690  1.0
  C  C911  1  0.387530  0.700840  0.797130  1.0
  C  C912  1  0.112470  0.409600  0.813310  1.0
  C  C913  1  0.702870  0.903710  0.090400  1.0
  C  C914  1  0.686690  0.596290  0.799160  1.0
  C  C915  1  0.797130  0.387530  0.700840  1.0
  C  C916  1  0.813310  0.112470  0.409600  1.0
  C  C917  1  0.090400  0.702870  0.903710  1.0
  C  C918  1  0.799160  0.686690  0.596290  1.0
  C  C919  1  0.700840  0.797130  0.387530  1.0
  C  C920  1  0.409600  0.813310  0.112470  1.0
  C  C921  1  0.291000  0.164300  0.512700  1.0
  C  C922  1  0.209000  0.221700  0.373300  1.0
  C  C923  1  0.848400  0.335700  0.126700  1.0
  C  C924  1  0.651600  0.278300  0.987300  1.0
  C  C925  1  0.164300  0.512700  0.291000  1.0
  C  C926  1  0.221700  0.373300  0.209000  1.0
  C  C927  1  0.335700  0.126700  0.848400  1.0
  C  C928  1  0.278300  0.987300  0.651600  1.0
  C  C929  1  0.512700  0.291000  0.164300  1.0
  C  C930  1  0.373300  0.209000  0.221700  1.0
  C  C931  1  0.126700  0.848400  0.335700  1.0
  C  C932  1  0.987300  0.651600  0.278300  1.0
  C  C933  1  0.791000  0.012700  0.664300  1.0
  C  C934  1  0.709000  0.873300  0.721700  1.0
  C  C935  1  0.348400  0.626700  0.835700  1.0
  C  C936  1  0.151600  0.487300  0.778300  1.0
  C  C937  1  0.664300  0.791000  0.012700  1.0
  C  C938  1  0.721700  0.709000  0.873300  1.0
  C  C939  1  0.835700  0.348400  0.626700  1.0
  C  C940  1  0.778300  0.151600  0.487300  1.0
  C  C941  1  0.012700  0.664300  0.791000  1.0
  C  C942  1  0.873300  0.721700  0.709000  1.0
  C  C943  1  0.626700  0.835700  0.348400  1.0
  C  C944  1  0.487300  0.778300  0.151600  1.0
  C  C945  1  0.321900  0.177200  0.555900  1.0
  C  C946  1  0.178100  0.234000  0.355300  1.0
  C  C947  1  0.878700  0.322800  0.144700  1.0
  C  C948  1  0.621300  0.266000  0.944100  1.0
  C  C949  1  0.177200  0.555900  0.321900  1.0
  C  C950  1  0.234000  0.355300  0.178100  1.0
  C  C951  1  0.322800  0.144700  0.878700  1.0
  C  C952  1  0.266000  0.944100  0.621300  1.0
  C  C953  1  0.555900  0.321900  0.177200  1.0
  C  C954  1  0.355300  0.178100  0.234000  1.0
  C  C955  1  0.144700  0.878700  0.322800  1.0
  C  C956  1  0.944100  0.621300  0.266000  1.0
  C  C957  1  0.821900  0.055900  0.677200  1.0
  C  C958  1  0.678100  0.855300  0.734000  1.0
  C  C959  1  0.378700  0.644700  0.822800  1.0
  C  C960  1  0.121300  0.444100  0.766000  1.0
  C  C961  1  0.677200  0.821900  0.055900  1.0
  C  C962  1  0.734000  0.678100  0.855300  1.0
  C  C963  1  0.822800  0.378700  0.644700  1.0
  C  C964  1  0.766000  0.121300  0.444100  1.0
  C  C965  1  0.055900  0.677200  0.821900  1.0
  C  C966  1  0.855300  0.734000  0.678100  1.0
  C  C967  1  0.644700  0.822800  0.378700  1.0
  C  C968  1  0.444100  0.766000  0.121300  1.0
  C  C969  1  0.363240  0.186840  0.558200  1.0
  C  C970  1  0.136760  0.194960  0.323600  1.0
  C  C971  1  0.871360  0.313160  0.176400  1.0
  C  C972  1  0.628640  0.305040  0.941800  1.0
  C  C973  1  0.186840  0.558200  0.363240  1.0
  C  C974  1  0.194960  0.323600  0.136760  1.0
  C  C975  1  0.313160  0.176400  0.871360  1.0
  C  C976  1  0.305040  0.941800  0.628640  1.0
  C  C977  1  0.558200  0.363240  0.186840  1.0
  C  C978  1  0.323600  0.136760  0.194960  1.0
  C  C979  1  0.176400  0.871360  0.313160  1.0
  C  C980  1  0.941800  0.628640  0.305040  1.0
  C  C981  1  0.863240  0.058200  0.686840  1.0
  C  C982  1  0.636760  0.823600  0.694960  1.0
  C  C983  1  0.371360  0.676400  0.813160  1.0
  C  C984  1  0.128640  0.441800  0.805040  1.0
  C  C985  1  0.686840  0.863240  0.058200  1.0
  C  C986  1  0.694960  0.636760  0.823600  1.0
  C  C987  1  0.813160  0.371360  0.676400  1.0
  C  C988  1  0.805040  0.128640  0.441800  1.0
  C  C989  1  0.058200  0.686840  0.863240  1.0
  C  C990  1  0.823600  0.694960  0.636760  1.0
  C  C991  1  0.676400  0.813160  0.371360  1.0
  C  C992  1  0.441800  0.805040  0.128640  1.0
  C  C993  1  0.296600  0.160000  0.447400  1.0
  C  C994  1  0.203400  0.150800  0.363400  1.0
  C  C995  1  0.787400  0.340000  0.136600  1.0
  C  C996  1  0.712600  0.349200  0.052600  1.0
  C  C997  1  0.160000  0.447400  0.296600  1.0
  C  C998  1  0.150800  0.363400  0.203400  1.0
  C  C999  1  0.340000  0.136600  0.787400  1.0
  C  C1000  1  0.349200  0.052600  0.712600  1.0
  C  C1001  1  0.447400  0.296600  0.160000  1.0
  C  C1002  1  0.363400  0.203400  0.150800  1.0
  C  C1003  1  0.136600  0.787400  0.340000  1.0
  C  C1004  1  0.052600  0.712600  0.349200  1.0
  C  C1005  1  0.796600  0.947400  0.660000  1.0
  C  C1006  1  0.703400  0.863400  0.650800  1.0
  C  C1007  1  0.287400  0.636600  0.840000  1.0
  C  C1008  1  0.212600  0.552600  0.849200  1.0
  C  C1009  1  0.660000  0.796600  0.947400  1.0
  C  C1010  1  0.650800  0.703400  0.863400  1.0
  C  C1011  1  0.840000  0.287400  0.636600  1.0
  C  C1012  1  0.849200  0.212600  0.552600  1.0
  C  C1013  1  0.947400  0.660000  0.796600  1.0
  C  C1014  1  0.863400  0.650800  0.703400  1.0
  C  C1015  1  0.636600  0.840000  0.287400  1.0
  C  C1016  1  0.552600  0.849200  0.212600  1.0
  C  C1017  1  0.182190  0.721860  0.271850  1.0
  C  C1018  1  0.317810  0.089660  0.039670  1.0
  C  C1019  1  0.049990  0.778140  0.460330  1.0
  C  C1020  1  0.450010  0.410340  0.228150  1.0
  C  C1021  1  0.721860  0.271850  0.182190  1.0
  C  C1022  1  0.089660  0.039670  0.317810  1.0
  C  C1023  1  0.778140  0.460330  0.049990  1.0
  C  C1024  1  0.410340  0.228150  0.450010  1.0
  C  C1025  1  0.271850  0.182190  0.721860  1.0
  C  C1026  1  0.039670  0.317810  0.089660  1.0
  C  C1027  1  0.460330  0.049990  0.778140  1.0
  C  C1028  1  0.228150  0.450010  0.410340  1.0
  C  C1029  1  0.682190  0.771850  0.221860  1.0
  C  C1030  1  0.817810  0.539670  0.589660  1.0
  C  C1031  1  0.549990  0.960330  0.278140  1.0
  C  C1032  1  0.950010  0.728150  0.910340  1.0
  C  C1033  1  0.221860  0.682190  0.771850  1.0
  C  C1034  1  0.589660  0.817810  0.539670  1.0
  C  C1035  1  0.278140  0.549990  0.960330  1.0
  C  C1036  1  0.910340  0.950010  0.728150  1.0
  C  C1037  1  0.771850  0.221860  0.682190  1.0
  C  C1038  1  0.539670  0.589660  0.817810  1.0
  C  C1039  1  0.960330  0.278140  0.549990  1.0
  C  C1040  1  0.728150  0.910340  0.950010  1.0
  C  C1041  1  0.182100  0.686900  0.277800  1.0
  C  C1042  1  0.317900  0.095700  0.004800  1.0
  C  C1043  1  0.090900  0.813100  0.495200  1.0
  C  C1044  1  0.409100  0.404300  0.222200  1.0
  C  C1045  1  0.686900  0.277800  0.182100  1.0
  C  C1046  1  0.095700  0.004800  0.317900  1.0
  C  C1047  1  0.813100  0.495200  0.090900  1.0
  C  C1048  1  0.404300  0.222200  0.409100  1.0
  C  C1049  1  0.277800  0.182100  0.686900  1.0
  C  C1050  1  0.004800  0.317900  0.095700  1.0
  C  C1051  1  0.495200  0.090900  0.813100  1.0
  C  C1052  1  0.222200  0.409100  0.404300  1.0
  C  C1053  1  0.682100  0.777800  0.186900  1.0
  C  C1054  1  0.817900  0.504800  0.595700  1.0
  C  C1055  1  0.590900  0.995200  0.313100  1.0
  C  C1056  1  0.909100  0.722200  0.904300  1.0
  C  C1057  1  0.186900  0.682100  0.777800  1.0
  C  C1058  1  0.595700  0.817900  0.504800  1.0
  C  C1059  1  0.313100  0.590900  0.995200  1.0
  C  C1060  1  0.904300  0.909100  0.722200  1.0
  C  C1061  1  0.777800  0.186900  0.682100  1.0
  C  C1062  1  0.504800  0.595700  0.817900  1.0
  C  C1063  1  0.995200  0.313100  0.590900  1.0
  C  C1064  1  0.722200  0.904300  0.909100  1.0
  C  C1065  1  0.250290  0.737500  0.346790  1.0
  C  C1066  1  0.249710  0.096500  0.987210  1.0
  C  C1067  1  0.109290  0.762500  0.512790  1.0
  C  C1068  1  0.390710  0.403500  0.153210  1.0
  C  C1069  1  0.737500  0.346790  0.250290  1.0
  C  C1070  1  0.096500  0.987210  0.249710  1.0
  C  C1071  1  0.762500  0.512790  0.109290  1.0
  C  C1072  1  0.403500  0.153210  0.390710  1.0
  C  C1073  1  0.346790  0.250290  0.737500  1.0
  C  C1074  1  0.987210  0.249710  0.096500  1.0
  C  C1075  1  0.512790  0.109290  0.762500  1.0
  C  C1076  1  0.153210  0.390710  0.403500  1.0
  C  C1077  1  0.750290  0.846790  0.237500  1.0
  C  C1078  1  0.749710  0.487210  0.596500  1.0
  C  C1079  1  0.609290  0.012790  0.262500  1.0
  C  C1080  1  0.890710  0.653210  0.903500  1.0
  C  C1081  1  0.237500  0.750290  0.846790  1.0
  C  C1082  1  0.596500  0.749710  0.487210  1.0
  C  C1083  1  0.262500  0.609290  0.012790  1.0
  C  C1084  1  0.903500  0.890710  0.653210  1.0
  C  C1085  1  0.846790  0.237500  0.750290  1.0
  C  C1086  1  0.487210  0.596500  0.749710  1.0
  C  C1087  1  0.012790  0.262500  0.609290  1.0
  C  C1088  1  0.653210  0.903500  0.890710  1.0
  C  C1089  1  0.250360  0.772520  0.340840  1.0
  C  C1090  1  0.249640  0.090480  0.022160  1.0
  C  C1091  1  0.068320  0.727480  0.477840  1.0
  C  C1092  1  0.431680  0.409520  0.159160  1.0
  C  C1093  1  0.772520  0.340840  0.250360  1.0
  C  C1094  1  0.090480  0.022160  0.249640  1.0
  C  C1095  1  0.727480  0.477840  0.068320  1.0
  C  C1096  1  0.409520  0.159160  0.431680  1.0
  C  C1097  1  0.340840  0.250360  0.772520  1.0
  C  C1098  1  0.022160  0.249640  0.090480  1.0
  C  C1099  1  0.477840  0.068320  0.727480  1.0
  C  C1100  1  0.159160  0.431680  0.409520  1.0
  C  C1101  1  0.750360  0.840840  0.272520  1.0
  C  C1102  1  0.749640  0.522160  0.590480  1.0
  C  C1103  1  0.568320  0.977840  0.227480  1.0
  C  C1104  1  0.931680  0.659160  0.909520  1.0
  C  C1105  1  0.272520  0.750360  0.840840  1.0
  C  C1106  1  0.590480  0.749640  0.522160  1.0
  C  C1107  1  0.227480  0.568320  0.977840  1.0
  C  C1108  1  0.909520  0.931680  0.659160  1.0
  C  C1109  1  0.840840  0.272520  0.750360  1.0
  C  C1110  1  0.522160  0.590480  0.749640  1.0
  C  C1111  1  0.977840  0.227480  0.568320  1.0
  C  C1112  1  0.659160  0.909520  0.931680  1.0
  C  C1113  1  0.339520  0.883520  0.425120  1.0
  C  C1114  1  0.160480  0.085600  0.044000  1.0
  C  C1115  1  0.041600  0.616480  0.456000  1.0
  C  C1116  1  0.458400  0.414400  0.074880  1.0
  C  C1117  1  0.883520  0.425120  0.339520  1.0
  C  C1118  1  0.085600  0.044000  0.160480  1.0
  C  C1119  1  0.616480  0.456000  0.041600  1.0
  C  C1120  1  0.414400  0.074880  0.458400  1.0
  C  C1121  1  0.425120  0.339520  0.883520  1.0
  C  C1122  1  0.044000  0.160480  0.085600  1.0
  C  C1123  1  0.456000  0.041600  0.616480  1.0
  C  C1124  1  0.074880  0.458400  0.414400  1.0
  C  C1125  1  0.839520  0.925120  0.383520  1.0
  C  C1126  1  0.660480  0.544000  0.585600  1.0
  C  C1127  1  0.541600  0.956000  0.116480  1.0
  C  C1128  1  0.958400  0.574880  0.914400  1.0
  C  C1129  1  0.383520  0.839520  0.925120  1.0
  C  C1130  1  0.585600  0.660480  0.544000  1.0
  C  C1131  1  0.116480  0.541600  0.956000  1.0
  C  C1132  1  0.914400  0.958400  0.574880  1.0
  C  C1133  1  0.925120  0.383520  0.839520  1.0
  C  C1134  1  0.544000  0.585600  0.660480  1.0
  C  C1135  1  0.956000  0.116480  0.541600  1.0
  C  C1136  1  0.574880  0.914400  0.958400  1.0
  C  C1137  1  0.319120  0.838170  0.412530  1.0
  C  C1138  1  0.180880  0.093410  0.019050  1.0
  C  C1139  1  0.074360  0.661830  0.480950  1.0
  C  C1140  1  0.425640  0.406590  0.087470  1.0
  C  C1141  1  0.838170  0.412530  0.319120  1.0
  C  C1142  1  0.093410  0.019050  0.180880  1.0
  C  C1143  1  0.661830  0.480950  0.074360  1.0
  C  C1144  1  0.406590  0.087470  0.425640  1.0
  C  C1145  1  0.412530  0.319120  0.838170  1.0
  C  C1146  1  0.019050  0.180880  0.093410  1.0
  C  C1147  1  0.480950  0.074360  0.661830  1.0
  C  C1148  1  0.087470  0.425640  0.406590  1.0
  C  C1149  1  0.819120  0.912530  0.338170  1.0
  C  C1150  1  0.680880  0.519050  0.593410  1.0
  C  C1151  1  0.574360  0.980950  0.161830  1.0
  C  C1152  1  0.925640  0.587470  0.906590  1.0
  C  C1153  1  0.338170  0.819120  0.912530  1.0
  C  C1154  1  0.593410  0.680880  0.519050  1.0
  C  C1155  1  0.161830  0.574360  0.980950  1.0
  C  C1156  1  0.906590  0.925640  0.587470  1.0
  C  C1157  1  0.912530  0.338170  0.819120  1.0
  C  C1158  1  0.519050  0.593410  0.680880  1.0
  C  C1159  1  0.980950  0.161830  0.574360  1.0
  C  C1160  1  0.587470  0.906590  0.925640  1.0
  C  C1161  1  0.281060  0.814720  0.370140  1.0
  C  C1162  1  0.218940  0.089080  0.033660  1.0
  C  C1163  1  0.055420  0.685280  0.466340  1.0
  C  C1164  1  0.444580  0.410920  0.129860  1.0
  C  C1165  1  0.814720  0.370140  0.281060  1.0
  C  C1166  1  0.089080  0.033660  0.218940  1.0
  C  C1167  1  0.685280  0.466340  0.055420  1.0
  C  C1168  1  0.410920  0.129860  0.444580  1.0
  C  C1169  1  0.370140  0.281060  0.814720  1.0
  C  C1170  1  0.033660  0.218940  0.089080  1.0
  C  C1171  1  0.466340  0.055420  0.685280  1.0
  C  C1172  1  0.129860  0.444580  0.410920  1.0
  C  C1173  1  0.781060  0.870140  0.314720  1.0
  C  C1174  1  0.718940  0.533660  0.589080  1.0
  C  C1175  1  0.555420  0.966340  0.185280  1.0
  C  C1176  1  0.944580  0.629860  0.910920  1.0
  C  C1177  1  0.314720  0.781060  0.870140  1.0
  C  C1178  1  0.589080  0.718940  0.533660  1.0
  C  C1179  1  0.185280  0.555420  0.966340  1.0
  C  C1180  1  0.910920  0.944580  0.629860  1.0
  C  C1181  1  0.870140  0.314720  0.781060  1.0
  C  C1182  1  0.533660  0.589080  0.718940  1.0
  C  C1183  1  0.966340  0.185280  0.555420  1.0
  C  C1184  1  0.629860  0.910920  0.944580  1.0
  C  C1185  1  0.323590  0.928190  0.388200  1.0
  C  C1186  1  0.176410  0.064610  0.104600  1.0
  C  C1187  1  0.960010  0.571810  0.395400  1.0
  C  C1188  1  0.539990  0.435390  0.111800  1.0
  C  C1189  1  0.928190  0.388200  0.323590  1.0
  C  C1190  1  0.064610  0.104600  0.176410  1.0
  C  C1191  1  0.571810  0.395400  0.960010  1.0
  C  C1192  1  0.435390  0.111800  0.539990  1.0
  C  C1193  1  0.388200  0.323590  0.928190  1.0
  C  C1194  1  0.104600  0.176410  0.064610  1.0
  C  C1195  1  0.395400  0.960010  0.571810  1.0
  C  C1196  1  0.111800  0.539990  0.435390  1.0
  C  C1197  1  0.823590  0.888200  0.428190  1.0
  C  C1198  1  0.676410  0.604600  0.564610  1.0
  C  C1199  1  0.460010  0.895400  0.071810  1.0
  C  C1200  1  0.039990  0.611800  0.935390  1.0
  C  C1201  1  0.428190  0.823590  0.888200  1.0
  C  C1202  1  0.564610  0.676410  0.604600  1.0
  C  C1203  1  0.071810  0.460010  0.895400  1.0
  C  C1204  1  0.935390  0.039990  0.611800  1.0
  C  C1205  1  0.888200  0.428190  0.823590  1.0
  C  C1206  1  0.604600  0.564610  0.676410  1.0
  C  C1207  1  0.895400  0.071810  0.460010  1.0
  C  C1208  1  0.611800  0.935390  0.039990  1.0
  C  C1209  1  0.297900  0.948550  0.397090  1.0
  C  C1210  1  0.202100  0.099190  0.150650  1.0
  C  C1211  1  0.948540  0.551450  0.349350  1.0
  C  C1212  1  0.551460  0.400810  0.102910  1.0
  C  C1213  1  0.948550  0.397090  0.297900  1.0
  C  C1214  1  0.099190  0.150650  0.202100  1.0
  C  C1215  1  0.551450  0.349350  0.948540  1.0
  C  C1216  1  0.400810  0.102910  0.551460  1.0
  C  C1217  1  0.397090  0.297900  0.948550  1.0
  C  C1218  1  0.150650  0.202100  0.099190  1.0
  C  C1219  1  0.349350  0.948540  0.551450  1.0
  C  C1220  1  0.102910  0.551460  0.400810  1.0
  C  C1221  1  0.797900  0.897090  0.448550  1.0
  C  C1222  1  0.702100  0.650650  0.599190  1.0
  C  C1223  1  0.448540  0.849350  0.051450  1.0
  C  C1224  1  0.051460  0.602910  0.900810  1.0
  C  C1225  1  0.448550  0.797900  0.897090  1.0
  C  C1226  1  0.599190  0.702100  0.650650  1.0
  C  C1227  1  0.051450  0.448540  0.849350  1.0
  C  C1228  1  0.900810  0.051460  0.602910  1.0
  C  C1229  1  0.897090  0.448550  0.797900  1.0
  C  C1230  1  0.650650  0.599190  0.702100  1.0
  C  C1231  1  0.849350  0.051450  0.448540  1.0
  C  C1232  1  0.602910  0.900810  0.051460  1.0
  C  C1233  1  0.301310  0.981810  0.386780  1.0
  C  C1234  1  0.198690  0.085470  0.180500  1.0
  C  C1235  1  0.904970  0.518190  0.319500  1.0
  C  C1236  1  0.595030  0.414530  0.113220  1.0
  C  C1237  1  0.981810  0.386780  0.301310  1.0
  C  C1238  1  0.085470  0.180500  0.198690  1.0
  C  C1239  1  0.518190  0.319500  0.904970  1.0
  C  C1240  1  0.414530  0.113220  0.595030  1.0
  C  C1241  1  0.386780  0.301310  0.981810  1.0
  C  C1242  1  0.180500  0.198690  0.085470  1.0
  C  C1243  1  0.319500  0.904970  0.518190  1.0
  C  C1244  1  0.113220  0.595030  0.414530  1.0
  C  C1245  1  0.801310  0.886780  0.481810  1.0
  C  C1246  1  0.698690  0.680500  0.585470  1.0
  C  C1247  1  0.404970  0.819500  0.018190  1.0
  C  C1248  1  0.095030  0.613220  0.914530  1.0
  C  C1249  1  0.481810  0.801310  0.886780  1.0
  C  C1250  1  0.585470  0.698690  0.680500  1.0
  C  C1251  1  0.018190  0.404970  0.819500  1.0
  C  C1252  1  0.914530  0.095030  0.613220  1.0
  C  C1253  1  0.886780  0.481810  0.801310  1.0
  C  C1254  1  0.680500  0.585470  0.698690  1.0
  C  C1255  1  0.819500  0.018190  0.404970  1.0
  C  C1256  1  0.613220  0.914530  0.095030  1.0
  C  C1257  1  0.279170  0.004320  0.395370  1.0
  C  C1258  1  0.220830  0.116200  0.225150  1.0
  C  C1259  1  0.891050  0.495680  0.274850  1.0
  C  C1260  1  0.608950  0.383800  0.104630  1.0
  C  C1261  1  0.004320  0.395370  0.279170  1.0
  C  C1262  1  0.116200  0.225150  0.220830  1.0
  C  C1263  1  0.495680  0.274850  0.891050  1.0
  C  C1264  1  0.383800  0.104630  0.608950  1.0
  C  C1265  1  0.395370  0.279170  0.004320  1.0
  C  C1266  1  0.225150  0.220830  0.116200  1.0
  C  C1267  1  0.274850  0.891050  0.495680  1.0
  C  C1268  1  0.104630  0.608950  0.383800  1.0
  C  C1269  1  0.779170  0.895370  0.504320  1.0
  C  C1270  1  0.720830  0.725150  0.616200  1.0
  C  C1271  1  0.391050  0.774850  0.995680  1.0
  C  C1272  1  0.108950  0.604630  0.883800  1.0
  C  C1273  1  0.504320  0.779170  0.895370  1.0
  C  C1274  1  0.616200  0.720830  0.725150  1.0
  C  C1275  1  0.995680  0.391050  0.774850  1.0
  C  C1276  1  0.883800  0.108950  0.604630  1.0
  C  C1277  1  0.895370  0.504320  0.779170  1.0
  C  C1278  1  0.725150  0.616200  0.720830  1.0
  C  C1279  1  0.774850  0.995680  0.391050  1.0
  C  C1280  1  0.604630  0.883800  0.108950  1.0
  C  C1281  1  0.253630  0.993570  0.414300  1.0
  C  C1282  1  0.246370  0.160670  0.239940  1.0
  C  C1283  1  0.920730  0.506430  0.260060  1.0
  C  C1284  1  0.579270  0.339330  0.085700  1.0
  C  C1285  1  0.993570  0.414300  0.253630  1.0
  C  C1286  1  0.160670  0.239940  0.246370  1.0
  C  C1287  1  0.506430  0.260060  0.920730  1.0
  C  C1288  1  0.339330  0.085700  0.579270  1.0
  C  C1289  1  0.414300  0.253630  0.993570  1.0
  C  C1290  1  0.239940  0.246370  0.160670  1.0
  C  C1291  1  0.260060  0.920730  0.506430  1.0
  C  C1292  1  0.085700  0.579270  0.339330  1.0
  C  C1293  1  0.753630  0.914300  0.493570  1.0
  C  C1294  1  0.746370  0.739940  0.660670  1.0
  C  C1295  1  0.420730  0.760060  0.006430  1.0
  C  C1296  1  0.079270  0.585700  0.839330  1.0
  C  C1297  1  0.493570  0.753630  0.914300  1.0
  C  C1298  1  0.660670  0.746370  0.739940  1.0
  C  C1299  1  0.006430  0.420730  0.760060  1.0
  C  C1300  1  0.839330  0.079270  0.585700  1.0
  C  C1301  1  0.914300  0.493570  0.753630  1.0
  C  C1302  1  0.739940  0.660670  0.746370  1.0
  C  C1303  1  0.760060  0.006430  0.420730  1.0
  C  C1304  1  0.585700  0.839330  0.079270  1.0
  C  C1305  1  0.250220  0.960310  0.424610  1.0
  C  C1306  1  0.249780  0.174390  0.210090  1.0
  C  C1307  1  0.964300  0.539690  0.289910  1.0
  C  C1308  1  0.535700  0.325610  0.075390  1.0
  C  C1309  1  0.960310  0.424610  0.250220  1.0
  C  C1310  1  0.174390  0.210090  0.249780  1.0
  C  C1311  1  0.539690  0.289910  0.964300  1.0
  C  C1312  1  0.325610  0.075390  0.535700  1.0
  C  C1313  1  0.424610  0.250220  0.960310  1.0
  C  C1314  1  0.210090  0.249780  0.174390  1.0
  C  C1315  1  0.289910  0.964300  0.539690  1.0
  C  C1316  1  0.075390  0.535700  0.325610  1.0
  C  C1317  1  0.750220  0.924610  0.460310  1.0
  C  C1318  1  0.749780  0.710090  0.674390  1.0
  C  C1319  1  0.464300  0.789910  0.039690  1.0
  C  C1320  1  0.035700  0.575390  0.825610  1.0
  C  C1321  1  0.460310  0.750220  0.924610  1.0
  C  C1322  1  0.674390  0.749780  0.710090  1.0
  C  C1323  1  0.039690  0.464300  0.789910  1.0
  C  C1324  1  0.825610  0.035700  0.575390  1.0
  C  C1325  1  0.924610  0.460310  0.750220  1.0
  C  C1326  1  0.710090  0.674390  0.749780  1.0
  C  C1327  1  0.789910  0.039690  0.464300  1.0
  C  C1328  1  0.575390  0.825610  0.035700  1.0
  C  C1329  1  0.272350  0.937800  0.416010  1.0
  C  C1330  1  0.227650  0.143660  0.165450  1.0
  C  C1331  1  0.978210  0.562200  0.334550  1.0
  C  C1332  1  0.521790  0.356340  0.083990  1.0
  C  C1333  1  0.937800  0.416010  0.272350  1.0
  C  C1334  1  0.143660  0.165450  0.227650  1.0
  C  C1335  1  0.562200  0.334550  0.978210  1.0
  C  C1336  1  0.356340  0.083990  0.521790  1.0
  C  C1337  1  0.416010  0.272350  0.937800  1.0
  C  C1338  1  0.165450  0.227650  0.143660  1.0
  C  C1339  1  0.334550  0.978210  0.562200  1.0
  C  C1340  1  0.083990  0.521790  0.356340  1.0
  C  C1341  1  0.772350  0.916010  0.437800  1.0
  C  C1342  1  0.727650  0.665450  0.643660  1.0
  C  C1343  1  0.478210  0.834550  0.062200  1.0
  C  C1344  1  0.021790  0.583990  0.856340  1.0
  C  C1345  1  0.437800  0.772350  0.916010  1.0
  C  C1346  1  0.643660  0.727650  0.665450  1.0
  C  C1347  1  0.062200  0.478210  0.834550  1.0
  C  C1348  1  0.856340  0.021790  0.583990  1.0
  C  C1349  1  0.916010  0.437800  0.772350  1.0
  C  C1350  1  0.665450  0.643660  0.727650  1.0
  C  C1351  1  0.834550  0.062200  0.478210  1.0
  C  C1352  1  0.583990  0.856340  0.021790  1.0
  C  C1353  1  0.302130  0.087740  0.354050  1.0
  C  C1354  1  0.197870  0.051920  0.285610  1.0
  C  C1355  1  0.766310  0.412260  0.214390  1.0
  C  C1356  1  0.733690  0.448080  0.145950  1.0
  C  C1357  1  0.087740  0.354050  0.302130  1.0
  C  C1358  1  0.051920  0.285610  0.197870  1.0
  C  C1359  1  0.412260  0.214390  0.766310  1.0
  C  C1360  1  0.448080  0.145950  0.733690  1.0
  C  C1361  1  0.354050  0.302130  0.087740  1.0
  C  C1362  1  0.285610  0.197870  0.051920  1.0
  C  C1363  1  0.214390  0.766310  0.412260  1.0
  C  C1364  1  0.145950  0.733690  0.448080  1.0
  C  C1365  1  0.802130  0.854050  0.587740  1.0
  C  C1366  1  0.697870  0.785610  0.551920  1.0
  C  C1367  1  0.266310  0.714390  0.912260  1.0
  C  C1368  1  0.233690  0.645950  0.948080  1.0
  C  C1369  1  0.587740  0.802130  0.854050  1.0
  C  C1370  1  0.551920  0.697870  0.785610  1.0
  C  C1371  1  0.912260  0.266310  0.714390  1.0
  C  C1372  1  0.948080  0.233690  0.645950  1.0
  C  C1373  1  0.854050  0.587740  0.802130  1.0
  C  C1374  1  0.785610  0.551920  0.697870  1.0
  C  C1375  1  0.714390  0.912260  0.266310  1.0
  C  C1376  1  0.645950  0.948080  0.233690  1.0
  C  C1377  1  0.293910  0.049790  0.357040  1.0
  C  C1378  1  0.206090  0.063130  0.255880  1.0
  C  C1379  1  0.807250  0.450210  0.244120  1.0
  C  C1380  1  0.692750  0.436870  0.142960  1.0
  C  C1381  1  0.049790  0.357040  0.293910  1.0
  C  C1382  1  0.063130  0.255880  0.206090  1.0
  C  C1383  1  0.450210  0.244120  0.807250  1.0
  C  C1384  1  0.436870  0.142960  0.692750  1.0
  C  C1385  1  0.357040  0.293910  0.049790  1.0
  C  C1386  1  0.255880  0.206090  0.063130  1.0
  C  C1387  1  0.244120  0.807250  0.450210  1.0
  C  C1388  1  0.142960  0.692750  0.436870  1.0
  C  C1389  1  0.793910  0.857040  0.549790  1.0
  C  C1390  1  0.706090  0.755880  0.563130  1.0
  C  C1391  1  0.307250  0.744120  0.950210  1.0
  C  C1392  1  0.192750  0.642960  0.936870  1.0
  C  C1393  1  0.549790  0.793910  0.857040  1.0
  C  C1394  1  0.563130  0.706090  0.755880  1.0
  C  C1395  1  0.950210  0.307250  0.744120  1.0
  C  C1396  1  0.936870  0.192750  0.642960  1.0
  C  C1397  1  0.857040  0.549790  0.793910  1.0
  C  C1398  1  0.755880  0.563130  0.706090  1.0
  C  C1399  1  0.744120  0.950210  0.307250  1.0
  C  C1400  1  0.642960  0.936870  0.192750  1.0
  C  C1401  1  0.286320  0.046650  0.390370  1.0
  C  C1402  1  0.213680  0.104050  0.260330  1.0
  C  C1403  1  0.843720  0.453350  0.239670  1.0
  C  C1404  1  0.656280  0.395950  0.109630  1.0
  C  C1405  1  0.046650  0.390370  0.286320  1.0
  C  C1406  1  0.104050  0.260330  0.213680  1.0
  C  C1407  1  0.453350  0.239670  0.843720  1.0
  C  C1408  1  0.395950  0.109630  0.656280  1.0
  C  C1409  1  0.390370  0.286320  0.046650  1.0
  C  C1410  1  0.260330  0.213680  0.104050  1.0
  C  C1411  1  0.239670  0.843720  0.453350  1.0
  C  C1412  1  0.109630  0.656280  0.395950  1.0
  C  C1413  1  0.786320  0.890370  0.546650  1.0
  C  C1414  1  0.713680  0.760330  0.604050  1.0
  C  C1415  1  0.343720  0.739670  0.953350  1.0
  C  C1416  1  0.156280  0.609630  0.895950  1.0
  C  C1417  1  0.546650  0.786320  0.890370  1.0
  C  C1418  1  0.604050  0.713680  0.760330  1.0
  C  C1419  1  0.953350  0.343720  0.739670  1.0
  C  C1420  1  0.895950  0.156280  0.609630  1.0
  C  C1421  1  0.890370  0.546650  0.786320  1.0
  C  C1422  1  0.760330  0.604050  0.713680  1.0
  C  C1423  1  0.739670  0.953350  0.343720  1.0
  C  C1424  1  0.609630  0.895950  0.156280  1.0
  C  C1425  1  0.286970  0.081470  0.420720  1.0
  C  C1426  1  0.213030  0.133750  0.294500  1.0
  C  C1427  1  0.839250  0.418530  0.205500  1.0
  C  C1428  1  0.660750  0.366250  0.079280  1.0
  C  C1429  1  0.081470  0.420720  0.286970  1.0
  C  C1430  1  0.133750  0.294500  0.213030  1.0
  C  C1431  1  0.418530  0.205500  0.839250  1.0
  C  C1432  1  0.366250  0.079280  0.660750  1.0
  C  C1433  1  0.420720  0.286970  0.081470  1.0
  C  C1434  1  0.294500  0.213030  0.133750  1.0
  C  C1435  1  0.205500  0.839250  0.418530  1.0
  C  C1436  1  0.079280  0.660750  0.366250  1.0
  C  C1437  1  0.786970  0.920720  0.581470  1.0
  C  C1438  1  0.713030  0.794500  0.633750  1.0
  C  C1439  1  0.339250  0.705500  0.918530  1.0
  C  C1440  1  0.160750  0.579280  0.866250  1.0
  C  C1441  1  0.581470  0.786970  0.920720  1.0
  C  C1442  1  0.633750  0.713030  0.794500  1.0
  C  C1443  1  0.918530  0.339250  0.705500  1.0
  C  C1444  1  0.866250  0.160750  0.579280  1.0
  C  C1445  1  0.920720  0.581470  0.786970  1.0
  C  C1446  1  0.794500  0.633750  0.713030  1.0
  C  C1447  1  0.705500  0.918530  0.339250  1.0
  C  C1448  1  0.579280  0.866250  0.160750  1.0
  C  C1449  1  0.295190  0.119410  0.417720  1.0
  C  C1450  1  0.204810  0.122530  0.324220  1.0
  C  C1451  1  0.798310  0.380590  0.175780  1.0
  C  C1452  1  0.701690  0.377470  0.082280  1.0
  C  C1453  1  0.119410  0.417720  0.295190  1.0
  C  C1454  1  0.122530  0.324220  0.204810  1.0
  C  C1455  1  0.380590  0.175780  0.798310  1.0
  C  C1456  1  0.377470  0.082280  0.701690  1.0
  C  C1457  1  0.417720  0.295190  0.119410  1.0
  C  C1458  1  0.324220  0.204810  0.122530  1.0
  C  C1459  1  0.175780  0.798310  0.380590  1.0
  C  C1460  1  0.082280  0.701690  0.377470  1.0
  C  C1461  1  0.795190  0.917720  0.619410  1.0
  C  C1462  1  0.704810  0.824220  0.622530  1.0
  C  C1463  1  0.298310  0.675780  0.880590  1.0
  C  C1464  1  0.201690  0.582280  0.877470  1.0
  C  C1465  1  0.619410  0.795190  0.917720  1.0
  C  C1466  1  0.622530  0.704810  0.824220  1.0
  C  C1467  1  0.880590  0.298310  0.675780  1.0
  C  C1468  1  0.877470  0.201690  0.582280  1.0
  C  C1469  1  0.917720  0.619410  0.795190  1.0
  C  C1470  1  0.824220  0.622530  0.704810  1.0
  C  C1471  1  0.675780  0.880590  0.298310  1.0
  C  C1472  1  0.582280  0.877470  0.201690  1.0
  C  C1473  1  0.302770  0.122550  0.384380  1.0
  C  C1474  1  0.197230  0.081610  0.319780  1.0
  C  C1475  1  0.761830  0.377450  0.180220  1.0
  C  C1476  1  0.738170  0.418390  0.115620  1.0
  C  C1477  1  0.122550  0.384380  0.302770  1.0
  C  C1478  1  0.081610  0.319780  0.197230  1.0
  C  C1479  1  0.377450  0.180220  0.761830  1.0
  C  C1480  1  0.418390  0.115620  0.738170  1.0
  C  C1481  1  0.384380  0.302770  0.122550  1.0
  C  C1482  1  0.319780  0.197230  0.081610  1.0
  C  C1483  1  0.180220  0.761830  0.377450  1.0
  C  C1484  1  0.115620  0.738170  0.418390  1.0
  C  C1485  1  0.802770  0.884380  0.622550  1.0
  C  C1486  1  0.697230  0.819780  0.581610  1.0
  C  C1487  1  0.261830  0.680220  0.877450  1.0
  C  C1488  1  0.238170  0.615620  0.918390  1.0
  C  C1489  1  0.622550  0.802770  0.884380  1.0
  C  C1490  1  0.581610  0.697230  0.819780  1.0
  C  C1491  1  0.877450  0.261830  0.680220  1.0
  C  C1492  1  0.918390  0.238170  0.615620  1.0
  C  C1493  1  0.884380  0.622550  0.802770  1.0
  C  C1494  1  0.819780  0.581610  0.697230  1.0
  C  C1495  1  0.680220  0.877450  0.261830  1.0
  C  C1496  1  0.615620  0.918390  0.238170  1.0
  Cu  Cu1497  1  0.597380  0.000000  0.500000  1
  Cu  Cu1498  1  0.902620  0.902620  0.902620  1
  Cu  Cu1499  1  0.000000  0.500000  0.597380  1
  Cu  Cu1500  1  0.500000  0.597380  0.000000  1
  Cu  Cu1501  1  0.097380  0.000000  0.500000  1
  Cu  Cu1502  1  0.402620  0.402620  0.402620  1
  Cu  Cu1503  1  0.500000  0.097380  1.000000  1
  Cu  Cu1504  1  0.000000  0.500000  0.097380  1
  Cu  Cu1505  1  0.220570  0.817320  0.295590  1.0
  Cu  Cu1506  1  0.279430  0.075020  0.096750  1.0
  Cu  Cu1507  1  0.978270  0.682680  0.403250  1.0
  Cu  Cu1508  1  0.521730  0.424980  0.204410  1.0
  Cu  Cu1509  1  0.817320  0.295590  0.220570  1.0
  Cu  Cu1510  1  0.075020  0.096750  0.279430  1.0
  Cu  Cu1511  1  0.682680  0.403250  0.978270  1.0
  Cu  Cu1512  1  0.424980  0.204410  0.521730  1.0
  Cu  Cu1513  1  0.295590  0.220570  0.817320  1.0
  Cu  Cu1514  1  0.096750  0.279430  0.075020  1.0
  Cu  Cu1515  1  0.403250  0.978270  0.682680  1.0
  Cu  Cu1516  1  0.204410  0.521730  0.424980  1.0
  Cu  Cu1517  1  0.720570  0.795590  0.317320  1.0
  Cu  Cu1518  1  0.779430  0.596750  0.575020  1.0
  Cu  Cu1519  1  0.478270  0.903250  0.182680  1.0
  Cu  Cu1520  1  0.021730  0.704410  0.924980  1.0
  Cu  Cu1521  1  0.317320  0.720570  0.795590  1.0
  Cu  Cu1522  1  0.575020  0.779430  0.596750  1.0
  Cu  Cu1523  1  0.182680  0.478270  0.903250  1.0
  Cu  Cu1524  1  0.924980  0.021730  0.704410  1.0
  Cu  Cu1525  1  0.795590  0.317320  0.720570  1.0
  Cu  Cu1526  1  0.596750  0.575020  0.779430  1.0
  Cu  Cu1527  1  0.903250  0.182680  0.478270  1.0
  Cu  Cu1528  1  0.704410  0.924980  0.021730  1.0
  F  F1529  1  0.664300  0.584000  0.174100  1
  F  F1530  1  0.835700  0.509800  0.419700  1
  F  F1531  1  0.090100  0.916000  0.080300  1
  F  F1532  1  0.409900  0.990200  0.325900  1
  F  F1533  1  0.584000  0.174100  0.664300  1
  F  F1534  1  0.509800  0.419700  0.835700  1
  F  F1535  1  0.916000  0.080300  0.090100  1
  F  F1536  1  0.990200  0.325900  0.409900  1
  F  F1537  1  0.174100  0.664300  0.584000  1
  F  F1538  1  0.419700  0.835700  0.509800  1
  F  F1539  1  0.080300  0.090100  0.916000  1
  F  F1540  1  0.325900  0.409900  0.990200  1
  F  F1541  1  0.164300  0.674100  0.084000  1
  F  F1542  1  0.335700  0.919700  0.009800  1
  F  F1543  1  0.590100  0.580300  0.416000  1
  F  F1544  1  0.909900  0.825900  0.490200  1
  F  F1545  1  0.084000  0.164300  0.674100  1
  F  F1546  1  0.009800  0.335700  0.919700  1
  F  F1547  1  0.416000  0.590100  0.580300  1
  F  F1548  1  0.490200  0.909900  0.825900  1
  F  F1549  1  0.674100  0.084000  0.164300  1
  F  F1550  1  0.919700  0.009800  0.335700  1
  F  F1551  1  0.580300  0.416000  0.590100  1
  F  F1552  1  0.825900  0.490200  0.909900  1
  F  F1553  1  0.595800  0.547700  0.171100  1
  F  F1554  1  0.904200  0.575300  0.451900  1
  F  F1555  1  0.123400  0.952300  0.048100  1
  F  F1556  1  0.376600  0.924700  0.328900  1
  F  F1557  1  0.547700  0.171100  0.595800  1
  F  F1558  1  0.575300  0.451900  0.904200  1
  F  F1559  1  0.952300  0.048100  0.123400  1
  F  F1560  1  0.924700  0.328900  0.376600  1
  F  F1561  1  0.171100  0.595800  0.547700  1
  F  F1562  1  0.451900  0.904200  0.575300  1
  F  F1563  1  0.048100  0.123400  0.952300  1
  F  F1564  1  0.328900  0.376600  0.924700  1
  F  F1565  1  0.095800  0.671100  0.047700  1
  F  F1566  1  0.404200  0.951900  0.075300  1
  F  F1567  1  0.623400  0.548100  0.452300  1
  F  F1568  1  0.876600  0.828900  0.424700  1
  F  F1569  1  0.047700  0.095800  0.671100  1
  F  F1570  1  0.075300  0.404200  0.951900  1
  F  F1571  1  0.452300  0.623400  0.548100  1
  F  F1572  1  0.424700  0.876600  0.828900  1
  F  F1573  1  0.671100  0.047700  0.095800  1
  F  F1574  1  0.951900  0.075300  0.404200  1
  F  F1575  1  0.548100  0.452300  0.623400  1
  F  F1576  1  0.828900  0.424700  0.876600  1
  F  F1577  1  0.646600  0.524500  0.185300  1
  F  F1578  1  0.853400  0.538700  0.377900  1
  F  F1579  1  0.160800  0.975500  0.122100  1
  F  F1580  1  0.339200  0.961300  0.314700  1
  F  F1581  1  0.524500  0.185300  0.646600  1
  F  F1582  1  0.538700  0.377900  0.853400  1
  F  F1583  1  0.975500  0.122100  0.160800  1
  F  F1584  1  0.961300  0.314700  0.339200  1
  F  F1585  1  0.185300  0.646600  0.524500  1
  F  F1586  1  0.377900  0.853400  0.538700  1
  F  F1587  1  0.122100  0.160800  0.975500  1
  F  F1588  1  0.314700  0.339200  0.961300  1
  F  F1589  1  0.146600  0.685300  0.024500  1
  F  F1590  1  0.353400  0.877900  0.038700  1
  F  F1591  1  0.660800  0.622100  0.475500  1
  F  F1592  1  0.839200  0.814700  0.461300  1
  F  F1593  1  0.024500  0.146600  0.685300  1
  F  F1594  1  0.038700  0.353400  0.877900  1
  F  F1595  1  0.475500  0.660800  0.622100  1
  F  F1596  1  0.461300  0.839200  0.814700  1
  F  F1597  1  0.685300  0.024500  0.146600  1
  F  F1598  1  0.877900  0.038700  0.353400  1
  F  F1599  1  0.622100  0.475500  0.660800  1
  F  F1600  1  0.814700  0.461300  0.839200  1
  F  F1601  1  0.609600  0.513800  0.115800  1
  F  F1602  1  0.890400  0.506200  0.404200  1
  F  F1603  1  0.102000  0.986200  0.095800  1
  F  F1604  1  0.398000  0.993800  0.384200  1
  F  F1605  1  0.513800  0.115800  0.609600  1
  F  F1606  1  0.506200  0.404200  0.890400  1
  F  F1607  1  0.986200  0.095800  0.102000  1
  F  F1608  1  0.993800  0.384200  0.398000  1
  F  F1609  1  0.115800  0.609600  0.513800  1
  F  F1610  1  0.404200  0.890400  0.506200  1
  F  F1611  1  0.095800  0.102000  0.986200  1
  F  F1612  1  0.384200  0.398000  0.993800  1
  F  F1613  1  0.109600  0.615800  0.013800  1
  F  F1614  1  0.390400  0.904200  0.006200  1
  F  F1615  1  0.602000  0.595800  0.486200  1
  F  F1616  1  0.898000  0.884200  0.493800  1
  F  F1617  1  0.013800  0.109600  0.615800  1
  F  F1618  1  0.006200  0.390400  0.904200  1
  F  F1619  1  0.486200  0.602000  0.595800  1
  F  F1620  1  0.493800  0.898000  0.884200  1
  F  F1621  1  0.615800  0.013800  0.109600  1
  F  F1622  1  0.904200  0.006200  0.390400  1
  F  F1623  1  0.595800  0.486200  0.602000  1
  F  F1624  1  0.884200  0.493800  0.898000  1
  F  F1625  1  0.699700  0.962000  0.578300  1
  F  F1626  1  0.800300  0.878600  0.762300  1
  F  F1627  1  0.116300  0.538000  0.737700  1
  F  F1628  1  0.383700  0.621400  0.921700  1
  F  F1629  1  0.962000  0.578300  0.699700  1
  F  F1630  1  0.878600  0.762300  0.800300  1
  F  F1631  1  0.538000  0.737700  0.116300  1
  F  F1632  1  0.621400  0.921700  0.383700  1
  F  F1633  1  0.578300  0.699700  0.962000  1
  F  F1634  1  0.762300  0.800300  0.878600  1
  F  F1635  1  0.737700  0.116300  0.538000  1
  F  F1636  1  0.921700  0.383700  0.621400  1
  F  F1637  1  0.199700  0.078300  0.462000  1
  F  F1638  1  0.300300  0.262300  0.378600  1
  F  F1639  1  0.616300  0.237700  0.038000  1
  F  F1640  1  0.883700  0.421700  0.121400  1
  F  F1641  1  0.462000  0.199700  0.078300  1
  F  F1642  1  0.378600  0.300300  0.262300  1
  F  F1643  1  0.038000  0.616300  0.237700  1
  F  F1644  1  0.121400  0.883700  0.421700  1
  F  F1645  1  0.078300  0.462000  0.199700  1
  F  F1646  1  0.262300  0.378600  0.300300  1
  F  F1647  1  0.237700  0.038000  0.616300  1
  F  F1648  1  0.421700  0.121400  0.883700  1
  F  F1649  1  0.629280  0.913370  0.561010  1
  F  F1650  1  0.870720  0.931730  0.784090  1
  F  F1651  1  0.147640  0.586630  0.715910  1
  F  F1652  1  0.352360  0.568270  0.938990  1
  F  F1653  1  0.913370  0.561010  0.629280  1
  F  F1654  1  0.931730  0.784090  0.870720  1
  F  F1655  1  0.586630  0.715910  0.147640  1
  F  F1656  1  0.568270  0.938990  0.352360  1
  F  F1657  1  0.561010  0.629280  0.913370  1
  F  F1658  1  0.784090  0.870720  0.931730  1
  F  F1659  1  0.715910  0.147640  0.586630  1
  F  F1660  1  0.938990  0.352360  0.568270  1
  F  F1661  1  0.129280  0.061010  0.413370  1
  F  F1662  1  0.370720  0.284090  0.431730  1
  F  F1663  1  0.647640  0.215910  0.086630  1
  F  F1664  1  0.852360  0.438990  0.068270  1
  F  F1665  1  0.413370  0.129280  0.061010  1
  F  F1666  1  0.431730  0.370720  0.284090  1
  F  F1667  1  0.086630  0.647640  0.215910  1
  F  F1668  1  0.068270  0.852360  0.438990  1
  F  F1669  1  0.061010  0.413370  0.129280  1
  F  F1670  1  0.284090  0.431730  0.370720  1
  F  F1671  1  0.215910  0.086630  0.647640  1
  F  F1672  1  0.438990  0.068270  0.852360  1
  F  F1673  1  0.689400  0.932700  0.624300  1
  F  F1674  1  0.810600  0.934900  0.743300  1
  F  F1675  1  0.191600  0.567300  0.756700  1
  F  F1676  1  0.308400  0.565100  0.875700  1
  F  F1677  1  0.932700  0.624300  0.689400  1
  F  F1678  1  0.934900  0.743300  0.810600  1
  F  F1679  1  0.567300  0.756700  0.191600  1
  F  F1680  1  0.565100  0.875700  0.308400  1
  F  F1681  1  0.624300  0.689400  0.932700  1
  F  F1682  1  0.743300  0.810600  0.934900  1
  F  F1683  1  0.756700  0.191600  0.567300  1
  F  F1684  1  0.875700  0.308400  0.565100  1
  F  F1685  1  0.189400  0.124300  0.432700  1
  F  F1686  1  0.310600  0.243300  0.434900  1
  F  F1687  1  0.691600  0.256700  0.067300  1
  F  F1688  1  0.808400  0.375700  0.065100  1
  F  F1689  1  0.432700  0.189400  0.124300  1
  F  F1690  1  0.434900  0.310600  0.243300  1
  F  F1691  1  0.067300  0.691600  0.256700  1
  F  F1692  1  0.065100  0.808400  0.375700  1
  F  F1693  1  0.124300  0.432700  0.189400  1
  F  F1694  1  0.243300  0.434900  0.310600  1
  F  F1695  1  0.256700  0.067300  0.691600  1
  F  F1696  1  0.375700  0.065100  0.808400  1
  F  F1697  1  0.679300  0.889400  0.556300  1
  F  F1698  1  0.820700  0.877000  0.710100  1
  F  F1699  1  0.166900  0.610600  0.789900  1
  F  F1700  1  0.333100  0.623000  0.943700  1
  F  F1701  1  0.889400  0.556300  0.679300  1
  F  F1702  1  0.877000  0.710100  0.820700  1
  F  F1703  1  0.610600  0.789900  0.166900  1
  F  F1704  1  0.623000  0.943700  0.333100  1
  F  F1705  1  0.556300  0.679300  0.889400  1
  F  F1706  1  0.710100  0.820700  0.877000  1
  F  F1707  1  0.789900  0.166900  0.610600  1
  F  F1708  1  0.943700  0.333100  0.623000  1
  F  F1709  1  0.179300  0.056300  0.389400  1
  F  F1710  1  0.320700  0.210100  0.377000  1
  F  F1711  1  0.666900  0.289900  0.110600  1
  F  F1712  1  0.833100  0.443700  0.123000  1
  F  F1713  1  0.389400  0.179300  0.056300  1
  F  F1714  1  0.377000  0.320700  0.210100  1
  F  F1715  1  0.110600  0.666900  0.289900  1
  F  F1716  1  0.123000  0.833100  0.443700  1
  F  F1717  1  0.056300  0.389400  0.179300  1
  F  F1718  1  0.210100  0.377000  0.320700  1
  F  F1719  1  0.289900  0.110600  0.666900  1
  F  F1720  1  0.443700  0.123000  0.833100  1
  F  F1721  1  0.407160  0.000000  0.500000  1
  F  F1722  1  0.092840  0.092840  0.092840  1
  F  F1723  1  0.000000  0.500000  0.407160  1
  F  F1724  1  0.500000  0.407160  0.000000  1
  F  F1725  1  0.907160  0.000000  0.500000  1
  F  F1726  1  0.592840  0.592840  0.592840  1
  F  F1727  1  0.500000  0.907160  0.000000  1
  F  F1728  1  0.000000  0.500000  0.907160  1
  F  F1729  1  0.648400  0.594700  0.181700  1
  F  F1730  1  0.851600  0.533300  0.446300  1
  F  F1731  1  0.087000  0.905300  0.053700  1
  F  F1732  1  0.413000  0.966700  0.318300  1
  F  F1733  1  0.594700  0.181700  0.648400  1
  F  F1734  1  0.533300  0.446300  0.851600  1
  F  F1735  1  0.905300  0.053700  0.087000  1
  F  F1736  1  0.966700  0.318300  0.413000  1
  F  F1737  1  0.181700  0.648400  0.594700  1
  F  F1738  1  0.446300  0.851600  0.533300  1
  F  F1739  1  0.053700  0.087000  0.905300  1
  F  F1740  1  0.318300  0.413000  0.966700  1
  F  F1741  1  0.148400  0.681700  0.094700  1
  F  F1742  1  0.351600  0.946300  0.033300  1
  F  F1743  1  0.587000  0.553700  0.405300  1
  F  F1744  1  0.913000  0.818300  0.466700  1
  F  F1745  1  0.094700  0.148400  0.681700  1
  F  F1746  1  0.033300  0.351600  0.946300  1
  F  F1747  1  0.405300  0.587000  0.553700  1
  F  F1748  1  0.466700  0.913000  0.818300  1
  F  F1749  1  0.681700  0.094700  0.148400  1
  F  F1750  1  0.946300  0.033300  0.351600  1
  F  F1751  1  0.553700  0.405300  0.587000  1
  F  F1752  1  0.818300  0.466700  0.913000  1
  F  F1753  1  0.589600  0.546300  0.150900  1
  F  F1754  1  0.910400  0.561300  0.456700  1
  F  F1755  1  0.104600  0.953700  0.043300  1
  F  F1756  1  0.395400  0.938700  0.349100  1
  F  F1757  1  0.546300  0.150900  0.589600  1
  F  F1758  1  0.561300  0.456700  0.910400  1
  F  F1759  1  0.953700  0.043300  0.104600  1
  F  F1760  1  0.938700  0.349100  0.395400  1
  F  F1761  1  0.150900  0.589600  0.546300  1
  F  F1762  1  0.456700  0.910400  0.561300  1
  F  F1763  1  0.043300  0.104600  0.953700  1
  F  F1764  1  0.349100  0.395400  0.938700  1
  F  F1765  1  0.089600  0.650900  0.046300  1
  F  F1766  1  0.410400  0.956700  0.061300  1
  F  F1767  1  0.604600  0.543300  0.453700  1
  F  F1768  1  0.895400  0.849100  0.438700  1
  F  F1769  1  0.046300  0.089600  0.650900  1
  F  F1770  1  0.061300  0.410400  0.956700  1
  F  F1771  1  0.453700  0.604600  0.543300  1
  F  F1772  1  0.438700  0.895400  0.849100  1
  F  F1773  1  0.650900  0.046300  0.089600  1
  F  F1774  1  0.956700  0.061300  0.410400  1
  F  F1775  1  0.543300  0.453700  0.604600  1
  F  F1776  1  0.849100  0.438700  0.895400  1
  F  F1777  1  0.640400  0.514300  0.153100  1
  F  F1778  1  0.859600  0.512700  0.373900  1
  F  F1779  1  0.138800  0.985700  0.126100  1
  F  F1780  1  0.361200  0.987300  0.346900  1
  F  F1781  1  0.514300  0.153100  0.640400  1
  F  F1782  1  0.512700  0.373900  0.859600  1
  F  F1783  1  0.985700  0.126100  0.138800  1
  F  F1784  1  0.987300  0.346900  0.361200  1
  F  F1785  1  0.153100  0.640400  0.514300  1
  F  F1786  1  0.373900  0.859600  0.512700  1
  F  F1787  1  0.126100  0.138800  0.985700  1
  F  F1788  1  0.346900  0.361200  0.987300  1
  F  F1789  1  0.140400  0.653100  0.014300  1
  F  F1790  1  0.359600  0.873900  0.012700  1
  F  F1791  1  0.638800  0.626100  0.485700  1
  F  F1792  1  0.861200  0.846900  0.487300  1
  F  F1793  1  0.014300  0.140400  0.653100  1
  F  F1794  1  0.012700  0.359600  0.873900  1
  F  F1795  1  0.485700  0.638800  0.626100  1
  F  F1796  1  0.487300  0.861200  0.846900  1
  F  F1797  1  0.653100  0.014300  0.140400  1
  F  F1798  1  0.873900  0.012700  0.359600  1
  F  F1799  1  0.626100  0.485700  0.638800  1
  F  F1800  1  0.846900  0.487300  0.861200  1
  F  F1801  1  0.643400  0.559800  0.209800  1
  F  F1802  1  0.856600  0.566400  0.416400  1
  F  F1803  1  0.150000  0.940200  0.083600  1
  F  F1804  1  0.350000  0.933600  0.290200  1
  F  F1805  1  0.559800  0.209800  0.643400  1
  F  F1806  1  0.566400  0.416400  0.856600  1
  F  F1807  1  0.940200  0.083600  0.150000  1
  F  F1808  1  0.933600  0.290200  0.350000  1
  F  F1809  1  0.209800  0.643400  0.559800  1
  F  F1810  1  0.416400  0.856600  0.566400  1
  F  F1811  1  0.083600  0.150000  0.940200  1
  F  F1812  1  0.290200  0.350000  0.933600  1
  F  F1813  1  0.143400  0.709800  0.059800  1
  F  F1814  1  0.356600  0.916400  0.066400  1
  F  F1815  1  0.650000  0.583600  0.440200  1
  F  F1816  1  0.850000  0.790200  0.433600  1
  F  F1817  1  0.059800  0.143400  0.709800  1
  F  F1818  1  0.066400  0.356600  0.916400  1
  F  F1819  1  0.440200  0.650000  0.583600  1
  F  F1820  1  0.433600  0.850000  0.790200  1
  F  F1821  1  0.709800  0.059800  0.143400  1
  F  F1822  1  0.916400  0.066400  0.356600  1
  F  F1823  1  0.583600  0.440200  0.650000  1
  F  F1824  1  0.790200  0.433600  0.850000  1
  F  F1825  1  0.432380  0.961860  0.463300  1.0
  F  F1826  1  0.067620  0.030920  0.029480  1.0
  F  F1827  1  0.001440  0.538140  0.470520  1.0
  F  F1828  1  0.498560  0.469080  0.036700  1.0
  F  F1829  1  0.961860  0.463300  0.432380  1.0
  F  F1830  1  0.030920  0.029480  0.067620  1.0
  F  F1831  1  0.538140  0.470520  0.001440  1.0
  F  F1832  1  0.469080  0.036700  0.498560  1.0
  F  F1833  1  0.463300  0.432380  0.961860  1.0
  F  F1834  1  0.029480  0.067620  0.030920  1.0
  F  F1835  1  0.470520  0.001440  0.538140  1.0
  F  F1836  1  0.036700  0.498560  0.469080  1.0
  F  F1837  1  0.932380  0.963300  0.461860  1.0
  F  F1838  1  0.567620  0.529480  0.530920  1.0
  F  F1839  1  0.501440  0.970520  0.038140  1.0
  F  F1840  1  0.998560  0.536700  0.969080  1.0
  F  F1841  1  0.461860  0.932380  0.963300  1.0
  F  F1842  1  0.530920  0.567620  0.529480  1.0
  F  F1843  1  0.038140  0.501440  0.970520  1.0
  F  F1844  1  0.969080  0.998560  0.536700  1.0
  F  F1845  1  0.963300  0.461860  0.932380  1.0
  F  F1846  1  0.529480  0.530920  0.567620  1.0
  F  F1847  1  0.970520  0.038140  0.501440  1.0
  F  F1848  1  0.536700  0.969080  0.998560  1.0
  H  H1849  1  0.512300  0.735300  0.330000  1
  H  H1850  1  0.987700  0.817700  0.723000  1
  H  H1851  1  0.094700  0.764700  0.777000  1
  H  H1852  1  0.405300  0.682300  0.170000  1
  H  H1853  1  0.735300  0.330000  0.512300  1
  H  H1854  1  0.817700  0.723000  0.987700  1
  H  H1855  1  0.764700  0.777000  0.094700  1
  H  H1856  1  0.682300  0.170000  0.405300  1
  H  H1857  1  0.330000  0.512300  0.735300  1
  H  H1858  1  0.723000  0.987700  0.817700  1
  H  H1859  1  0.777000  0.094700  0.764700  1
  H  H1860  1  0.170000  0.405300  0.682300  1
  H  H1861  1  0.012300  0.830000  0.235300  1
  H  H1862  1  0.487700  0.223000  0.317700  1
  H  H1863  1  0.594700  0.277000  0.264700  1
  H  H1864  1  0.905300  0.670000  0.182300  1
  H  H1865  1  0.235300  0.012300  0.830000  1
  H  H1866  1  0.317700  0.487700  0.223000  1
  H  H1867  1  0.264700  0.594700  0.277000  1
  H  H1868  1  0.182300  0.905300  0.670000  1
  H  H1869  1  0.830000  0.235300  0.012300  1
  H  H1870  1  0.223000  0.317700  0.487700  1
  H  H1871  1  0.277000  0.264700  0.594700  1
  H  H1872  1  0.670000  0.182300  0.905300  1
  H  H1873  1  0.490200  0.734400  0.359200  1
  H  H1874  1  0.009800  0.869000  0.744200  1
  H  H1875  1  0.124800  0.765600  0.755800  1
  H  H1876  1  0.375200  0.631000  0.140800  1
  H  H1877  1  0.734400  0.359200  0.490200  1
  H  H1878  1  0.869000  0.744200  0.009800  1
  H  H1879  1  0.765600  0.755800  0.124800  1
  H  H1880  1  0.631000  0.140800  0.375200  1
  H  H1881  1  0.359200  0.490200  0.734400  1
  H  H1882  1  0.744200  0.009800  0.869000  1
  H  H1883  1  0.755800  0.124800  0.765600  1
  H  H1884  1  0.140800  0.375200  0.631000  1
  H  H1885  1  0.990200  0.859200  0.234400  1
  H  H1886  1  0.509800  0.244200  0.369000  1
  H  H1887  1  0.624800  0.255800  0.265600  1
  H  H1888  1  0.875200  0.640800  0.131000  1
  H  H1889  1  0.234400  0.990200  0.859200  1
  H  H1890  1  0.369000  0.509800  0.244200  1
  H  H1891  1  0.265600  0.624800  0.255800  1
  H  H1892  1  0.131000  0.875200  0.640800  1
  H  H1893  1  0.859200  0.234400  0.990200  1
  H  H1894  1  0.244200  0.369000  0.509800  1
  H  H1895  1  0.255800  0.265600  0.624800  1
  H  H1896  1  0.640800  0.131000  0.875200  1
  H  H1897  1  0.527500  0.779300  0.371000  1
  H  H1898  1  0.972500  0.843500  0.751800  1
  H  H1899  1  0.091700  0.720700  0.748200  1
  H  H1900  1  0.408300  0.656500  0.129000  1
  H  H1901  1  0.779300  0.371000  0.527500  1
  H  H1902  1  0.843500  0.751800  0.972500  1
  H  H1903  1  0.720700  0.748200  0.091700  1
  H  H1904  1  0.656500  0.129000  0.408300  1
  H  H1905  1  0.371000  0.527500  0.779300  1
  H  H1906  1  0.751800  0.972500  0.843500  1
  H  H1907  1  0.748200  0.091700  0.720700  1
  H  H1908  1  0.129000  0.408300  0.656500  1
  H  H1909  1  0.027500  0.871000  0.279300  1
  H  H1910  1  0.472500  0.251800  0.343500  1
  H  H1911  1  0.591700  0.248200  0.220700  1
  H  H1912  1  0.908300  0.629000  0.156500  1
  H  H1913  1  0.279300  0.027500  0.871000  1
  H  H1914  1  0.343500  0.472500  0.251800  1
  H  H1915  1  0.220700  0.591700  0.248200  1
  H  H1916  1  0.156500  0.908300  0.629000  1
  H  H1917  1  0.871000  0.279300  0.027500  1
  H  H1918  1  0.251800  0.343500  0.472500  1
  H  H1919  1  0.248200  0.220700  0.591700  1
  H  H1920  1  0.629000  0.156500  0.908300  1
  H  H1921  1  0.405900  0.742400  0.249900  1
  H  H1922  1  0.094100  0.844000  0.836500  1
  H  H1923  1  0.007500  0.757600  0.663500  1
  H  H1924  1  0.492500  0.656000  0.250100  1
  H  H1925  1  0.742400  0.249900  0.405900  1
  H  H1926  1  0.844000  0.836500  0.094100  1
  H  H1927  1  0.757600  0.663500  0.007500  1
  H  H1928  1  0.656000  0.250100  0.492500  1
  H  H1929  1  0.249900  0.405900  0.742400  1
  H  H1930  1  0.836500  0.094100  0.844000  1
  H  H1931  1  0.663500  0.007500  0.757600  1
  H  H1932  1  0.250100  0.492500  0.656000  1
  H  H1933  1  0.905900  0.749900  0.242400  1
  H  H1934  1  0.594100  0.336500  0.344000  1
  H  H1935  1  0.507500  0.163500  0.257600  1
  H  H1936  1  0.992500  0.750100  0.156000  1
  H  H1937  1  0.242400  0.905900  0.749900  1
  H  H1938  1  0.344000  0.594100  0.336500  1
  H  H1939  1  0.257600  0.507500  0.163500  1
  H  H1940  1  0.156000  0.992500  0.750100  1
  H  H1941  1  0.749900  0.242400  0.905900  1
  H  H1942  1  0.336500  0.344000  0.594100  1
  H  H1943  1  0.163500  0.257600  0.507500  1
  H  H1944  1  0.750100  0.156000  0.992500  1
  H  H1945  1  0.388600  0.750100  0.283700  1
  H  H1946  1  0.111400  0.895100  0.861500  1
  H  H1947  1  0.033600  0.749900  0.638500  1
  H  H1948  1  0.466400  0.604900  0.216300  1
  H  H1949  1  0.750100  0.283700  0.388600  1
  H  H1950  1  0.895100  0.861500  0.111400  1
  H  H1951  1  0.749900  0.638500  0.033600  1
  H  H1952  1  0.604900  0.216300  0.466400  1
  H  H1953  1  0.283700  0.388600  0.750100  1
  H  H1954  1  0.861500  0.111400  0.895100  1
  H  H1955  1  0.638500  0.033600  0.749900  1
  H  H1956  1  0.216300  0.466400  0.604900  1
  H  H1957  1  0.888600  0.783700  0.250100  1
  H  H1958  1  0.611400  0.361500  0.395100  1
  H  H1959  1  0.533600  0.138500  0.249900  1
  H  H1960  1  0.966400  0.716300  0.104900  1
  H  H1961  1  0.250100  0.888600  0.783700  1
  H  H1962  1  0.395100  0.611400  0.361500  1
  H  H1963  1  0.249900  0.533600  0.138500  1
  H  H1964  1  0.104900  0.966400  0.716300  1
  H  H1965  1  0.783700  0.250100  0.888600  1
  H  H1966  1  0.361500  0.395100  0.611400  1
  H  H1967  1  0.138500  0.249900  0.533600  1
  H  H1968  1  0.716300  0.104900  0.966400  1
  H  H1969  1  0.360900  0.663900  0.220800  1
  H  H1970  1  0.139100  0.859900  0.803000  1
  H  H1971  1  0.056900  0.836100  0.697000  1
  H  H1972  1  0.443100  0.640100  0.279200  1
  H  H1973  1  0.663900  0.220800  0.360900  1
  H  H1974  1  0.859900  0.803000  0.139100  1
  H  H1975  1  0.836100  0.697000  0.056900  1
  H  H1976  1  0.640100  0.279200  0.443100  1
  H  H1977  1  0.220800  0.360900  0.663900  1
  H  H1978  1  0.803000  0.139100  0.859900  1
  H  H1979  1  0.697000  0.056900  0.836100  1
  H  H1980  1  0.279200  0.443100  0.640100  1
  H  H1981  1  0.860900  0.720800  0.163900  1
  H  H1982  1  0.639100  0.303000  0.359900  1
  H  H1983  1  0.556900  0.197000  0.336100  1
  H  H1984  1  0.943100  0.779200  0.140100  1
  H  H1985  1  0.163900  0.860900  0.720800  1
  H  H1986  1  0.359900  0.639100  0.303000  1
  H  H1987  1  0.336100  0.556900  0.197000  1
  H  H1988  1  0.140100  0.943100  0.779200  1
  H  H1989  1  0.720800  0.163900  0.860900  1
  H  H1990  1  0.303000  0.359900  0.639100  1
  H  H1991  1  0.197000  0.336100  0.556900  1
  H  H1992  1  0.779200  0.140100  0.943100  1
  H  H1993  1  0.333500  0.686900  0.210000  1
  H  H1994  1  0.166500  0.876500  0.853400  1
  H  H1995  1  0.023100  0.813100  0.646600  1
  H  H1996  1  0.476900  0.623500  0.290000  1
  H  H1997  1  0.686900  0.210000  0.333500  1
  H  H1998  1  0.876500  0.853400  0.166500  1
  H  H1999  1  0.813100  0.646600  0.023100  1
  H  H2000  1  0.623500  0.290000  0.476900  1
  H  H2001  1  0.210000  0.333500  0.686900  1
  H  H2002  1  0.853400  0.166500  0.876500  1
  H  H2003  1  0.646600  0.023100  0.813100  1
  H  H2004  1  0.290000  0.476900  0.623500  1
  H  H2005  1  0.833500  0.710000  0.186900  1
  H  H2006  1  0.666500  0.353400  0.376500  1
  H  H2007  1  0.523100  0.146600  0.313100  1
  H  H2008  1  0.976900  0.790000  0.123500  1
  H  H2009  1  0.186900  0.833500  0.710000  1
  H  H2010  1  0.376500  0.666500  0.353400  1
  H  H2011  1  0.313100  0.523100  0.146600  1
  H  H2012  1  0.123500  0.976900  0.790000  1
  H  H2013  1  0.710000  0.186900  0.833500  1
  H  H2014  1  0.353400  0.376500  0.666500  1
  H  H2015  1  0.146600  0.313100  0.523100  1
  H  H2016  1  0.790000  0.123500  0.976900  1
  H  H2017  1  0.338600  0.676500  0.248500  1
  H  H2018  1  0.161400  0.909900  0.837900  1
  H  H2019  1  0.072000  0.823500  0.662100  1
  H  H2020  1  0.428000  0.590100  0.251500  1
  H  H2021  1  0.676500  0.248500  0.338600  1
  H  H2022  1  0.909900  0.837900  0.161400  1
  H  H2023  1  0.823500  0.662100  0.072000  1
  H  H2024  1  0.590100  0.251500  0.428000  1
  H  H2025  1  0.248500  0.338600  0.676500  1
  H  H2026  1  0.837900  0.161400  0.909900  1
  H  H2027  1  0.662100  0.072000  0.823500  1
  H  H2028  1  0.251500  0.428000  0.590100  1
  H  H2029  1  0.838600  0.748500  0.176500  1
  H  H2030  1  0.661400  0.337900  0.409900  1
  H  H2031  1  0.572000  0.162100  0.323500  1
  H  H2032  1  0.928000  0.751500  0.090100  1
  H  H2033  1  0.176500  0.838600  0.748500  1
  H  H2034  1  0.409900  0.661400  0.337900  1
  H  H2035  1  0.323500  0.572000  0.162100  1
  H  H2036  1  0.090100  0.928000  0.751500  1
  H  H2037  1  0.748500  0.176500  0.838600  1
  H  H2038  1  0.337900  0.409900  0.661400  1
  H  H2039  1  0.162100  0.323500  0.572000  1
  H  H2040  1  0.751500  0.090100  0.928000  1
  H  H2041  1  0.112800  0.776200  0.242800  1.0
  H  H2042  1  0.387200  0.130000  0.163400  1.0
  H  H2043  1  0.966600  0.723800  0.336600  1.0
  H  H2044  1  0.533400  0.370000  0.257200  1.0
  H  H2045  1  0.776200  0.242800  0.112800  1.0
  H  H2046  1  0.130000  0.163400  0.387200  1.0
  H  H2047  1  0.723800  0.336600  0.966600  1.0
  H  H2048  1  0.370000  0.257200  0.533400  1.0
  H  H2049  1  0.242800  0.112800  0.776200  1.0
  H  H2050  1  0.163400  0.387200  0.130000  1.0
  H  H2051  1  0.336600  0.966600  0.723800  1.0
  H  H2052  1  0.257200  0.533400  0.370000  1.0
  H  H2053  1  0.612800  0.742800  0.276200  1.0
  H  H2054  1  0.887200  0.663400  0.630000  1.0
  H  H2055  1  0.466600  0.836600  0.223800  1.0
  H  H2056  1  0.033400  0.757200  0.870000  1.0
  H  H2057  1  0.276200  0.612800  0.742800  1.0
  H  H2058  1  0.630000  0.887200  0.663400  1.0
  H  H2059  1  0.223800  0.466600  0.836600  1.0
  H  H2060  1  0.870000  0.033400  0.757200  1.0
  H  H2061  1  0.742800  0.276200  0.612800  1.0
  H  H2062  1  0.663400  0.630000  0.887200  1.0
  H  H2063  1  0.836600  0.223800  0.466600  1.0
  H  H2064  1  0.757200  0.870000  0.033400  1.0
  H  H2065  1  0.057100  0.740800  0.170300  1.0
  H  H2066  1  0.442900  0.113200  0.183700  1.0
  H  H2067  1  0.929500  0.759200  0.316300  1.0
  H  H2068  1  0.570500  0.386800  0.329700  1.0
  H  H2069  1  0.740800  0.170300  0.057100  1.0
  H  H2070  1  0.113200  0.183700  0.442900  1.0
  H  H2071  1  0.759200  0.316300  0.929500  1.0
  H  H2072  1  0.386800  0.329700  0.570500  1.0
  H  H2073  1  0.170300  0.057100  0.740800  1.0
  H  H2074  1  0.183700  0.442900  0.113200  1.0
  H  H2075  1  0.316300  0.929500  0.759200  1.0
  H  H2076  1  0.329700  0.570500  0.386800  1.0
  H  H2077  1  0.557100  0.670300  0.240800  1.0
  H  H2078  1  0.942900  0.683700  0.613200  1.0
  H  H2079  1  0.429500  0.816300  0.259200  1.0
  H  H2080  1  0.070500  0.829700  0.886800  1.0
  H  H2081  1  0.240800  0.557100  0.670300  1.0
  H  H2082  1  0.613200  0.942900  0.683700  1.0
  H  H2083  1  0.259200  0.429500  0.816300  1.0
  H  H2084  1  0.886800  0.070500  0.829700  1.0
  H  H2085  1  0.670300  0.240800  0.557100  1.0
  H  H2086  1  0.683700  0.613200  0.942900  1.0
  H  H2087  1  0.816300  0.259200  0.429500  1.0
  H  H2088  1  0.829700  0.886800  0.070500  1.0
  H  H2089  1  0.141600  0.729000  0.128600  1.0
  H  H2090  1  0.358400  0.987000  0.087400  1.0
  H  H2091  1  0.899600  0.771000  0.412600  1.0
  H  H2092  1  0.600400  0.513000  0.371400  1.0
  H  H2093  1  0.729000  0.128600  0.141600  1.0
  H  H2094  1  0.987000  0.087400  0.358400  1.0
  H  H2095  1  0.771000  0.412600  0.899600  1.0
  H  H2096  1  0.513000  0.371400  0.600400  1.0
  H  H2097  1  0.128600  0.141600  0.729000  1.0
  H  H2098  1  0.087400  0.358400  0.987000  1.0
  H  H2099  1  0.412600  0.899600  0.771000  1.0
  H  H2100  1  0.371400  0.600400  0.513000  1.0
  H  H2101  1  0.641600  0.628600  0.229000  1.0
  H  H2102  1  0.858400  0.587400  0.487000  1.0
  H  H2103  1  0.399600  0.912600  0.271000  1.0
  H  H2104  1  0.100400  0.871400  0.013000  1.0
  H  H2105  1  0.229000  0.641600  0.628600  1.0
  H  H2106  1  0.487000  0.858400  0.587400  1.0
  H  H2107  1  0.271000  0.399600  0.912600  1.0
  H  H2108  1  0.013000  0.100400  0.871400  1.0
  H  H2109  1  0.628600  0.229000  0.641600  1.0
  H  H2110  1  0.587400  0.487000  0.858400  1.0
  H  H2111  1  0.912600  0.271000  0.399600  1.0
  H  H2112  1  0.871400  0.013000  0.100400  1.0
  H  H2113  1  0.292600  0.762600  0.197400  1.0
  H  H2114  1  0.207400  0.904800  0.970000  1.0
  H  H2115  1  0.934800  0.737400  0.530000  1.0
  H  H2116  1  0.565200  0.595200  0.302600  1.0
  H  H2117  1  0.762600  0.197400  0.292600  1.0
  H  H2118  1  0.904800  0.970000  0.207400  1.0
  H  H2119  1  0.737400  0.530000  0.934800  1.0
  H  H2120  1  0.595200  0.302600  0.565200  1.0
  H  H2121  1  0.197400  0.292600  0.762600  1.0
  H  H2122  1  0.970000  0.207400  0.904800  1.0
  H  H2123  1  0.530000  0.934800  0.737400  1.0
  H  H2124  1  0.302600  0.565200  0.595200  1.0
  H  H2125  1  0.792600  0.697400  0.262600  1.0
  H  H2126  1  0.707400  0.470000  0.404800  1.0
  H  H2127  1  0.434800  0.030000  0.237400  1.0
  H  H2128  1  0.065200  0.802600  0.095200  1.0
  H  H2129  1  0.262600  0.792600  0.697400  1.0
  H  H2130  1  0.404800  0.707400  0.470000  1.0
  H  H2131  1  0.237400  0.434800  0.030000  1.0
  H  H2132  1  0.095200  0.065200  0.802600  1.0
  H  H2133  1  0.697400  0.262600  0.792600  1.0
  H  H2134  1  0.470000  0.404800  0.707400  1.0
  H  H2135  1  0.030000  0.237400  0.434800  1.0
  H  H2136  1  0.802600  0.095200  0.065200  1.0
  H  H2137  1  0.212400  0.734200  0.147800  1.0
  H  H2138  1  0.287600  0.935400  0.021800  1.0
  H  H2139  1  0.913600  0.765800  0.478200  1.0
  H  H2140  1  0.586400  0.564600  0.352200  1.0
  H  H2141  1  0.734200  0.147800  0.212400  1.0
  H  H2142  1  0.935400  0.021800  0.287600  1.0
  H  H2143  1  0.765800  0.478200  0.913600  1.0
  H  H2144  1  0.564600  0.352200  0.586400  1.0
  H  H2145  1  0.147800  0.212400  0.734200  1.0
  H  H2146  1  0.021800  0.287600  0.935400  1.0
  H  H2147  1  0.478200  0.913600  0.765800  1.0
  H  H2148  1  0.352200  0.586400  0.564600  1.0
  H  H2149  1  0.712400  0.647800  0.234200  1.0
  H  H2150  1  0.787600  0.521800  0.435400  1.0
  H  H2151  1  0.413600  0.978200  0.265800  1.0
  H  H2152  1  0.086400  0.852200  0.064600  1.0
  H  H2153  1  0.234200  0.712400  0.647800  1.0
  H  H2154  1  0.435400  0.787600  0.521800  1.0
  H  H2155  1  0.265800  0.413600  0.978200  1.0
  H  H2156  1  0.064600  0.086400  0.852200  1.0
  H  H2157  1  0.647800  0.234200  0.712400  1.0
  H  H2158  1  0.521800  0.435400  0.787600  1.0
  H  H2159  1  0.978200  0.265800  0.413600  1.0
  H  H2160  1  0.852200  0.064600  0.086400  1.0
  H  H2161  1  0.326900  0.844100  0.311200  1.0
  H  H2162  1  0.173100  0.984300  0.017200  1.0
  H  H2163  1  0.967100  0.655900  0.482800  1.0
  H  H2164  1  0.532900  0.515700  0.188800  1.0
  H  H2165  1  0.844100  0.311200  0.326900  1.0
  H  H2166  1  0.984300  0.017200  0.173100  1.0
  H  H2167  1  0.655900  0.482800  0.967100  1.0
  H  H2168  1  0.515700  0.188800  0.532900  1.0
  H  H2169  1  0.311200  0.326900  0.844100  1.0
  H  H2170  1  0.017200  0.173100  0.984300  1.0
  H  H2171  1  0.482800  0.967100  0.655900  1.0
  H  H2172  1  0.188800  0.532900  0.515700  1.0
  H  H2173  1  0.826900  0.811200  0.344100  1.0
  H  H2174  1  0.673100  0.517200  0.484300  1.0
  H  H2175  1  0.467100  0.982800  0.155900  1.0
  H  H2176  1  0.032900  0.688800  0.015700  1.0
  H  H2177  1  0.344100  0.826900  0.811200  1.0
  H  H2178  1  0.484300  0.673100  0.517200  1.0
  H  H2179  1  0.155900  0.467100  0.982800  1.0
  H  H2180  1  0.015700  0.032900  0.688800  1.0
  H  H2181  1  0.811200  0.344100  0.826900  1.0
  H  H2182  1  0.517200  0.484300  0.673100  1.0
  H  H2183  1  0.982800  0.155900  0.467100  1.0
  H  H2184  1  0.688800  0.015700  0.032900  1.0
  H  H2185  1  0.349400  0.832200  0.283600  1.0
  H  H2186  1  0.150600  0.934200  0.982800  1.0
  H  H2187  1  0.951400  0.667800  0.517200  1.0
  H  H2188  1  0.548600  0.565800  0.216400  1.0
  H  H2189  1  0.832200  0.283600  0.349400  1.0
  H  H2190  1  0.934200  0.982800  0.150600  1.0
  H  H2191  1  0.667800  0.517200  0.951400  1.0
  H  H2192  1  0.565800  0.216400  0.548600  1.0
  H  H2193  1  0.283600  0.349400  0.832200  1.0
  H  H2194  1  0.982800  0.150600  0.934200  1.0
  H  H2195  1  0.517200  0.951400  0.667800  1.0
  H  H2196  1  0.216400  0.548600  0.565800  1.0
  H  H2197  1  0.849400  0.783600  0.332200  1.0
  H  H2198  1  0.650600  0.482800  0.434200  1.0
  H  H2199  1  0.451400  0.017200  0.167800  1.0
  H  H2200  1  0.048600  0.716400  0.065800  1.0
  H  H2201  1  0.332200  0.849400  0.783600  1.0
  H  H2202  1  0.434200  0.650600  0.482800  1.0
  H  H2203  1  0.167800  0.451400  0.017200  1.0
  H  H2204  1  0.065800  0.048600  0.716400  1.0
  H  H2205  1  0.783600  0.332200  0.849400  1.0
  H  H2206  1  0.482800  0.434200  0.650600  1.0
  H  H2207  1  0.017200  0.167800  0.451400  1.0
  H  H2208  1  0.716400  0.065800  0.048600  1.0
  H  H2209  1  0.702900  0.059100  0.543800  1.0
  H  H2210  1  0.797100  0.840900  0.856200  1.0
  H  H2211  1  0.984700  0.440900  0.643800  1.0
  H  H2212  1  0.515300  0.659100  0.956200  1.0
  H  H2213  1  0.059100  0.543800  0.702900  1.0
  H  H2214  1  0.840900  0.856200  0.797100  1.0
  H  H2215  1  0.440900  0.643800  0.984700  1.0
  H  H2216  1  0.659100  0.956200  0.515300  1.0
  H  H2217  1  0.543800  0.702900  0.059100  1.0
  H  H2218  1  0.856200  0.797100  0.840900  1.0
  H  H2219  1  0.643800  0.984700  0.440900  1.0
  H  H2220  1  0.956200  0.515300  0.659100  1.0
  H  H2221  1  0.202900  0.043800  0.559100  1.0
  H  H2222  1  0.297100  0.356200  0.340900  1.0
  H  H2223  1  0.484700  0.143800  0.940900  1.0
  H  H2224  1  0.015300  0.456200  0.159100  1.0
  H  H2225  1  0.559100  0.202900  0.043800  1.0
  H  H2226  1  0.340900  0.297100  0.356200  1.0
  H  H2227  1  0.940900  0.484700  0.143800  1.0
  H  H2228  1  0.159100  0.015300  0.456200  1.0
  H  H2229  1  0.043800  0.559100  0.202900  1.0
  H  H2230  1  0.356200  0.340900  0.297100  1.0
  H  H2231  1  0.143800  0.940900  0.484700  1.0
  H  H2232  1  0.456200  0.159100  0.015300  1.0
  H  H2233  1  0.764500  0.092500  0.612400  1.0
  H  H2234  1  0.735500  0.847900  0.828000  1.0
  H  H2235  1  0.019900  0.407500  0.672000  1.0
  H  H2236  1  0.480100  0.652100  0.887600  1.0
  H  H2237  1  0.092500  0.612400  0.764500  1.0
  H  H2238  1  0.847900  0.828000  0.735500  1.0
  H  H2239  1  0.407500  0.672000  0.019900  1.0
  H  H2240  1  0.652100  0.887600  0.480100  1.0
  H  H2241  1  0.612400  0.764500  0.092500  1.0
  H  H2242  1  0.828000  0.735500  0.847900  1.0
  H  H2243  1  0.672000  0.019900  0.407500  1.0
  H  H2244  1  0.887600  0.480100  0.652100  1.0
  H  H2245  1  0.264500  0.112400  0.592500  1.0
  H  H2246  1  0.235500  0.328000  0.347900  1.0
  H  H2247  1  0.519900  0.172000  0.907500  1.0
  H  H2248  1  0.980100  0.387600  0.152100  1.0
  H  H2249  1  0.592500  0.264500  0.112400  1.0
  H  H2250  1  0.347900  0.235500  0.328000  1.0
  H  H2251  1  0.907500  0.519900  0.172000  1.0
  H  H2252  1  0.152100  0.980100  0.387600  1.0
  H  H2253  1  0.112400  0.592500  0.264500  1.0
  H  H2254  1  0.328000  0.347900  0.235500  1.0
  H  H2255  1  0.172000  0.907500  0.519900  1.0
  H  H2256  1  0.387600  0.152100  0.980100  1.0
  H  H2257  1  0.687100  0.039900  0.656000  1.0
  H  H2258  1  0.812900  0.968900  0.852800  1.0
  H  H2259  1  0.116100  0.460100  0.647200  1.0
  H  H2260  1  0.383900  0.531100  0.844000  1.0
  H  H2261  1  0.039900  0.656000  0.687100  1.0
  H  H2262  1  0.968900  0.852800  0.812900  1.0
  H  H2263  1  0.460100  0.647200  0.116100  1.0
  H  H2264  1  0.531100  0.844000  0.383900  1.0
  H  H2265  1  0.656000  0.687100  0.039900  1.0
  H  H2266  1  0.852800  0.812900  0.968900  1.0
  H  H2267  1  0.647200  0.116100  0.460100  1.0
  H  H2268  1  0.844000  0.383900  0.531100  1.0
  H  H2269  1  0.187100  0.156000  0.539900  1.0
  H  H2270  1  0.312900  0.352800  0.468900  1.0
  H  H2271  1  0.616100  0.147200  0.960100  1.0
  H  H2272  1  0.883900  0.344000  0.031100  1.0
  H  H2273  1  0.539900  0.187100  0.156000  1.0
  H  H2274  1  0.468900  0.312900  0.352800  1.0
  H  H2275  1  0.960100  0.616100  0.147200  1.0
  H  H2276  1  0.031100  0.883900  0.344000  1.0
  H  H2277  1  0.156000  0.539900  0.187100  1.0
  H  H2278  1  0.352800  0.468900  0.312900  1.0
  H  H2279  1  0.147200  0.960100  0.616100  1.0
  H  H2280  1  0.344000  0.031100  0.883900  1.0
  H  H2281  1  0.535100  0.946100  0.594800  1.0
  H  H2282  1  0.964900  0.059700  0.911000  1.0
  H  H2283  1  0.148700  0.553900  0.589000  1.0
  H  H2284  1  0.351300  0.440300  0.905200  1.0
  H  H2285  1  0.946100  0.594800  0.535100  1.0
  H  H2286  1  0.059700  0.911000  0.964900  1.0
  H  H2287  1  0.553900  0.589000  0.148700  1.0
  H  H2288  1  0.440300  0.905200  0.351300  1.0
  H  H2289  1  0.594800  0.535100  0.946100  1.0
  H  H2290  1  0.911000  0.964900  0.059700  1.0
  H  H2291  1  0.589000  0.148700  0.553900  1.0
  H  H2292  1  0.905200  0.351300  0.440300  1.0
  H  H2293  1  0.035100  0.094800  0.446100  1.0
  H  H2294  1  0.464900  0.411000  0.559700  1.0
  H  H2295  1  0.648700  0.089000  0.053900  1.0
  H  H2296  1  0.851300  0.405200  0.940300  1.0
  H  H2297  1  0.446100  0.035100  0.094800  1.0
  H  H2298  1  0.559700  0.464900  0.411000  1.0
  H  H2299  1  0.053900  0.648700  0.089000  1.0
  H  H2300  1  0.940300  0.851300  0.405200  1.0
  H  H2301  1  0.094800  0.446100  0.035100  1.0
  H  H2302  1  0.411000  0.559700  0.464900  1.0
  H  H2303  1  0.089000  0.053900  0.648700  1.0
  H  H2304  1  0.405200  0.940300  0.851300  1.0
  H  H2305  1  0.617300  0.995800  0.640500  1.0
  H  H2306  1  0.882700  0.023200  0.878500  1.0
  H  H2307  1  0.144700  0.504200  0.621500  1.0
  H  H2308  1  0.355300  0.476800  0.859500  1.0
  H  H2309  1  0.995800  0.640500  0.617300  1.0
  H  H2310  1  0.023200  0.878500  0.882700  1.0
  H  H2311  1  0.504200  0.621500  0.144700  1.0
  H  H2312  1  0.476800  0.859500  0.355300  1.0
  H  H2313  1  0.640500  0.617300  0.995800  1.0
  H  H2314  1  0.878500  0.882700  0.023200  1.0
  H  H2315  1  0.621500  0.144700  0.504200  1.0
  H  H2316  1  0.859500  0.355300  0.476800  1.0
  H  H2317  1  0.117300  0.140500  0.495800  1.0
  H  H2318  1  0.382700  0.378500  0.523200  1.0
  H  H2319  1  0.644700  0.121500  0.004200  1.0
  H  H2320  1  0.855300  0.359500  0.976800  1.0
  H  H2321  1  0.495800  0.117300  0.140500  1.0
  H  H2322  1  0.523200  0.382700  0.378500  1.0
  H  H2323  1  0.004200  0.644700  0.121500  1.0
  H  H2324  1  0.976800  0.855300  0.359500  1.0
  H  H2325  1  0.140500  0.495800  0.117300  1.0
  H  H2326  1  0.378500  0.523200  0.382700  1.0
  H  H2327  1  0.121500  0.004200  0.644700  1.0
  H  H2328  1  0.359500  0.976800  0.855300  1.0
  H  H2329  1  0.498100  0.947600  0.490100  1.0
  H  H2330  1  0.001900  0.992000  0.949500  1.0
  H  H2331  1  0.042500  0.552400  0.550500  1.0
  H  H2332  1  0.457500  0.508000  0.009900  1.0
  H  H2333  1  0.947600  0.490100  0.498100  1.0
  H  H2334  1  0.992000  0.949500  0.001900  1.0
  H  H2335  1  0.552400  0.550500  0.042500  1.0
  H  H2336  1  0.508000  0.009900  0.457500  1.0
  H  H2337  1  0.490100  0.498100  0.947600  1.0
  H  H2338  1  0.949500  0.001900  0.992000  1.0
  H  H2339  1  0.550500  0.042500  0.552400  1.0
  H  H2340  1  0.009900  0.457500  0.508000  1.0
  H  H2341  1  0.998100  0.990100  0.447600  1.0
  H  H2342  1  0.501900  0.449500  0.492000  1.0
  H  H2343  1  0.542500  0.050500  0.052400  1.0
  H  H2344  1  0.957500  0.509900  0.008000  1.0
  H  H2345  1  0.447600  0.998100  0.990100  1.0
  H  H2346  1  0.492000  0.501900  0.449500  1.0
  H  H2347  1  0.052400  0.542500  0.050500  1.0
  H  H2348  1  0.008000  0.957500  0.509900  1.0
  H  H2349  1  0.990100  0.447600  0.998100  1.0
  H  H2350  1  0.449500  0.492000  0.501900  1.0
  H  H2351  1  0.050500  0.052400  0.542500  1.0
  H  H2352  1  0.509900  0.008000  0.957500  1.0
  H  H2353  1  0.477200  0.931600  0.516000  1.0
  H  H2354  1  0.022800  0.038800  0.954400  1.0
  H  H2355  1  0.084400  0.568400  0.545600  1.0
  H  H2356  1  0.415600  0.461200  0.984000  1.0
  H  H2357  1  0.931600  0.516000  0.477200  1.0
  H  H2358  1  0.038800  0.954400  0.022800  1.0
  H  H2359  1  0.568400  0.545600  0.084400  1.0
  H  H2360  1  0.461200  0.984000  0.415600  1.0
  H  H2361  1  0.516000  0.477200  0.931600  1.0
  H  H2362  1  0.954400  0.022800  0.038800  1.0
  H  H2363  1  0.545600  0.084400  0.568400  1.0
  H  H2364  1  0.984000  0.415600  0.461200  1.0
  H  H2365  1  0.977200  0.016000  0.431600  1.0
  H  H2366  1  0.522800  0.454400  0.538800  1.0
  H  H2367  1  0.584400  0.045600  0.068400  1.0
  H  H2368  1  0.915600  0.484000  0.961200  1.0
  H  H2369  1  0.431600  0.977200  0.016000  1.0
  H  H2370  1  0.538800  0.522800  0.454400  1.0
  H  H2371  1  0.068400  0.584400  0.045600  1.0
  H  H2372  1  0.961200  0.915600  0.484000  1.0
  H  H2373  1  0.016000  0.431600  0.977200  1.0
  H  H2374  1  0.454400  0.538800  0.522800  1.0
  H  H2375  1  0.045600  0.068400  0.584400  1.0
  H  H2376  1  0.484000  0.961200  0.915600  1.0
  H  H2377  1  0.427900  0.875700  0.432200  1.0
  H  H2378  1  0.072100  0.004300  0.947800  1.0
  H  H2379  1  0.056500  0.624300  0.552200  1.0
  H  H2380  1  0.443500  0.495700  0.067800  1.0
  H  H2381  1  0.875700  0.432200  0.427900  1.0
  H  H2382  1  0.004300  0.947800  0.072100  1.0
  H  H2383  1  0.624300  0.552200  0.056500  1.0
  H  H2384  1  0.495700  0.067800  0.443500  1.0
  H  H2385  1  0.432200  0.427900  0.875700  1.0
  H  H2386  1  0.947800  0.072100  0.004300  1.0
  H  H2387  1  0.552200  0.056500  0.624300  1.0
  H  H2388  1  0.067800  0.443500  0.495700  1.0
  H  H2389  1  0.927900  0.932200  0.375700  1.0
  H  H2390  1  0.572100  0.447800  0.504300  1.0
  H  H2391  1  0.556500  0.052200  0.124300  1.0
  H  H2392  1  0.943500  0.567800  0.995700  1.0
  H  H2393  1  0.375700  0.927900  0.932200  1.0
  H  H2394  1  0.504300  0.572100  0.447800  1.0
  H  H2395  1  0.124300  0.556500  0.052200  1.0
  H  H2396  1  0.995700  0.943500  0.567800  1.0
  H  H2397  1  0.932200  0.375700  0.927900  1.0
  H  H2398  1  0.447800  0.504300  0.572100  1.0
  H  H2399  1  0.052200  0.124300  0.556500  1.0
  H  H2400  1  0.567800  0.995700  0.943500  1.0
  H  H2401  1  0.441900  0.768900  0.393000  1.0
  H  H2402  1  0.058100  0.951100  0.827000  1.0
  H  H2403  1  0.124100  0.731100  0.673000  1.0
  H  H2404  1  0.375900  0.548900  0.107000  1.0
  H  H2405  1  0.768900  0.393000  0.441900  1.0
  H  H2406  1  0.951100  0.827000  0.058100  1.0
  H  H2407  1  0.731100  0.673000  0.124100  1.0
  H  H2408  1  0.548900  0.107000  0.375900  1.0
  H  H2409  1  0.393000  0.441900  0.768900  1.0
  H  H2410  1  0.827000  0.058100  0.951100  1.0
  H  H2411  1  0.673000  0.124100  0.731100  1.0
  H  H2412  1  0.107000  0.375900  0.548900  1.0
  H  H2413  1  0.941900  0.893000  0.268900  1.0
  H  H2414  1  0.558100  0.327000  0.451100  1.0
  H  H2415  1  0.624100  0.173000  0.231100  1.0
  H  H2416  1  0.875900  0.607000  0.048900  1.0
  H  H2417  1  0.268900  0.941900  0.893000  1.0
  H  H2418  1  0.451100  0.558100  0.327000  1.0
  H  H2419  1  0.231100  0.624100  0.173000  1.0
  H  H2420  1  0.048900  0.875900  0.607000  1.0
  H  H2421  1  0.893000  0.268900  0.941900  1.0
  H  H2422  1  0.327000  0.451100  0.558100  1.0
  H  H2423  1  0.173000  0.231100  0.624100  1.0
  H  H2424  1  0.607000  0.048900  0.875900  1.0
  H  H2425  1  0.509600  0.806800  0.457200  1.0
  H  H2426  1  0.990400  0.947600  0.797200  1.0
  H  H2427  1  0.150400  0.693200  0.702800  1.0
  H  H2428  1  0.349600  0.552400  0.042800  1.0
  H  H2429  1  0.806800  0.457200  0.509600  1.0
  H  H2430  1  0.947600  0.797200  0.990400  1.0
  H  H2431  1  0.693200  0.702800  0.150400  1.0
  H  H2432  1  0.552400  0.042800  0.349600  1.0
  H  H2433  1  0.457200  0.509600  0.806800  1.0
  H  H2434  1  0.797200  0.990400  0.947600  1.0
  H  H2435  1  0.702800  0.150400  0.693200  1.0
  H  H2436  1  0.042800  0.349600  0.552400  1.0
  H  H2437  1  0.009600  0.957200  0.306800  1.0
  H  H2438  1  0.490400  0.297200  0.447600  1.0
  H  H2439  1  0.650400  0.202800  0.193200  1.0
  H  H2440  1  0.849600  0.542800  0.052400  1.0
  H  H2441  1  0.306800  0.009600  0.957200  1.0
  H  H2442  1  0.447600  0.490400  0.297200  1.0
  H  H2443  1  0.193200  0.650400  0.202800  1.0
  H  H2444  1  0.052400  0.849600  0.542800  1.0
  H  H2445  1  0.957200  0.306800  0.009600  1.0
  H  H2446  1  0.297200  0.447600  0.490400  1.0
  H  H2447  1  0.202800  0.193200  0.650400  1.0
  H  H2448  1  0.542800  0.052400  0.849600  1.0
  H  H2449  1  0.536300  0.878900  0.508800  1.0
  H  H2450  1  0.963700  0.972500  0.842600  1.0
  H  H2451  1  0.129900  0.621100  0.657400  1.0
  H  H2452  1  0.370100  0.527500  0.991200  1.0
  H  H2453  1  0.878900  0.508800  0.536300  1.0
  H  H2454  1  0.972500  0.842600  0.963700  1.0
  H  H2455  1  0.621100  0.657400  0.129900  1.0
  H  H2456  1  0.527500  0.991200  0.370100  1.0
  H  H2457  1  0.508800  0.536300  0.878900  1.0
  H  H2458  1  0.842600  0.963700  0.972500  1.0
  H  H2459  1  0.657400  0.129900  0.621100  1.0
  H  H2460  1  0.991200  0.370100  0.527500  1.0
  H  H2461  1  0.036300  0.008800  0.378900  1.0
  H  H2462  1  0.463700  0.342600  0.472500  1.0
  H  H2463  1  0.629900  0.157400  0.121100  1.0
  H  H2464  1  0.870100  0.491200  0.027500  1.0
  H  H2465  1  0.378900  0.036300  0.008800  1.0
  H  H2466  1  0.472500  0.463700  0.342600  1.0
  H  H2467  1  0.121100  0.629900  0.157400  1.0
  H  H2468  1  0.027500  0.870100  0.491200  1.0
  H  H2469  1  0.008800  0.378900  0.036300  1.0
  H  H2470  1  0.342600  0.472500  0.463700  1.0
  H  H2471  1  0.157400  0.121100  0.629900  1.0
  H  H2472  1  0.491200  0.027500  0.870100  1.0
  H  H2473  1  0.391000  0.846600  0.357200  1.0
  H  H2474  1  0.109000  0.966200  0.955600  1.0
  H  H2475  1  0.010600  0.653400  0.544400  1.0
  H  H2476  1  0.489400  0.533800  0.142800  1.0
  H  H2477  1  0.846600  0.357200  0.391000  1.0
  H  H2478  1  0.966200  0.955600  0.109000  1.0
  H  H2479  1  0.653400  0.544400  0.010600  1.0
  H  H2480  1  0.533800  0.142800  0.489400  1.0
  H  H2481  1  0.357200  0.391000  0.846600  1.0
  H  H2482  1  0.955600  0.109000  0.966200  1.0
  H  H2483  1  0.544400  0.010600  0.653400  1.0
  H  H2484  1  0.142800  0.489400  0.533800  1.0
  H  H2485  1  0.891000  0.857200  0.346600  1.0
  H  H2486  1  0.609000  0.455600  0.466200  1.0
  H  H2487  1  0.510600  0.044400  0.153400  1.0
  H  H2488  1  0.989400  0.642800  0.033800  1.0
  H  H2489  1  0.346600  0.891000  0.857200  1.0
  H  H2490  1  0.466200  0.609000  0.455600  1.0
  H  H2491  1  0.153400  0.510600  0.044400  1.0
  H  H2492  1  0.033800  0.989400  0.642800  1.0
  H  H2493  1  0.857200  0.346600  0.891000  1.0
  H  H2494  1  0.455600  0.466200  0.609000  1.0
  H  H2495  1  0.044400  0.153400  0.510600  1.0
  H  H2496  1  0.642800  0.033800  0.989400  1.0
  H  H2497  1  0.370800  0.740400  0.371800  1.0
  H  H2498  1  0.129200  0.001000  0.869600  1.0
  H  H2499  1  0.131400  0.759600  0.630400  1.0
  H  H2500  1  0.368600  0.499000  0.128200  1.0
  H  H2501  1  0.740400  0.371800  0.370800  1.0
  H  H2502  1  0.001000  0.869600  0.129200  1.0
  H  H2503  1  0.759600  0.630400  0.131400  1.0
  H  H2504  1  0.499000  0.128200  0.368600  1.0
  H  H2505  1  0.371800  0.370800  0.740400  1.0
  H  H2506  1  0.869600  0.129200  0.001000  1.0
  H  H2507  1  0.630400  0.131400  0.759600  1.0
  H  H2508  1  0.128200  0.368600  0.499000  1.0
  H  H2509  1  0.870800  0.871800  0.240400  1.0
  H  H2510  1  0.629200  0.369600  0.501000  1.0
  H  H2511  1  0.631400  0.130400  0.259600  1.0
  H  H2512  1  0.868600  0.628200  0.999000  1.0
  H  H2513  1  0.240400  0.870800  0.871800  1.0
  H  H2514  1  0.501000  0.629200  0.369600  1.0
  H  H2515  1  0.259600  0.631400  0.130400  1.0
  H  H2516  1  0.999000  0.868600  0.628200  1.0
  H  H2517  1  0.871800  0.240400  0.870800  1.0
  H  H2518  1  0.369600  0.501000  0.629200  1.0
  H  H2519  1  0.130400  0.259600  0.631400  1.0
  H  H2520  1  0.628200  0.999000  0.868600  1.0
  H  H2521  1  0.304100  0.698000  0.306100  1.0
  H  H2522  1  0.195900  0.002000  0.893900  1.0
  H  H2523  1  0.108100  0.802000  0.606100  1.0
  H  H2524  1  0.391900  0.498000  0.193900  1.0
  H  H2525  1  0.698000  0.306100  0.304100  1.0
  H  H2526  1  0.002000  0.893900  0.195900  1.0
  H  H2527  1  0.802000  0.606100  0.108100  1.0
  H  H2528  1  0.498000  0.193900  0.391900  1.0
  H  H2529  1  0.306100  0.304100  0.698000  1.0
  H  H2530  1  0.893900  0.195900  0.002000  1.0
  H  H2531  1  0.606100  0.108100  0.802000  1.0
  H  H2532  1  0.193900  0.391900  0.498000  1.0
  H  H2533  1  0.804100  0.806100  0.198000  1.0
  H  H2534  1  0.695900  0.393900  0.502000  1.0
  H  H2535  1  0.608100  0.106100  0.302000  1.0
  H  H2536  1  0.891900  0.693900  0.998000  1.0
  H  H2537  1  0.198000  0.804100  0.806100  1.0
  H  H2538  1  0.502000  0.695900  0.393900  1.0
  H  H2539  1  0.302000  0.608100  0.106100  1.0
  H  H2540  1  0.998000  0.891900  0.693900  1.0
  H  H2541  1  0.806100  0.198000  0.804100  1.0
  H  H2542  1  0.393900  0.502000  0.695900  1.0
  H  H2543  1  0.106100  0.302000  0.608100  1.0
  H  H2544  1  0.693900  0.998000  0.891900  1.0
  H  H2545  1  0.280800  0.729900  0.265900  1.0
  H  H2546  1  0.219200  0.985100  0.949100  1.0
  H  H2547  1  0.036000  0.770100  0.550900  1.0
  H  H2548  1  0.464000  0.514900  0.234100  1.0
  H  H2549  1  0.729900  0.265900  0.280800  1.0
  H  H2550  1  0.985100  0.949100  0.219200  1.0
  H  H2551  1  0.770100  0.550900  0.036000  1.0
  H  H2552  1  0.514900  0.234100  0.464000  1.0
  H  H2553  1  0.265900  0.280800  0.729900  1.0
  H  H2554  1  0.949100  0.219200  0.985100  1.0
  H  H2555  1  0.550900  0.036000  0.770100  1.0
  H  H2556  1  0.234100  0.464000  0.514900  1.0
  H  H2557  1  0.780800  0.765900  0.229900  1.0
  H  H2558  1  0.719200  0.449100  0.485100  1.0
  H  H2559  1  0.536000  0.050900  0.270100  1.0
  H  H2560  1  0.964000  0.734100  0.014900  1.0
  H  H2561  1  0.229900  0.780800  0.765900  1.0
  H  H2562  1  0.485100  0.719200  0.449100  1.0
  H  H2563  1  0.270100  0.536000  0.050900  1.0
  H  H2564  1  0.014900  0.964000  0.734100  1.0
  H  H2565  1  0.765900  0.229900  0.780800  1.0
  H  H2566  1  0.449100  0.485100  0.719200  1.0
  H  H2567  1  0.050900  0.270100  0.536000  1.0
  H  H2568  1  0.734100  0.014900  0.964000  1.0
  H  H2569  1  0.502100  0.233100  0.603800  1.0
  H  H2570  1  0.997900  0.101700  0.231000  1.0
  H  H2571  1  0.870700  0.266900  0.269000  1.0
  H  H2572  1  0.629300  0.398300  0.896200  1.0
  H  H2573  1  0.233100  0.603800  0.502100  1.0
  H  H2574  1  0.101700  0.231000  0.997900  1.0
  H  H2575  1  0.266900  0.269000  0.870700  1.0
  H  H2576  1  0.398300  0.896200  0.629300  1.0
  H  H2577  1  0.603800  0.502100  0.233100  1.0
  H  H2578  1  0.231000  0.997900  0.101700  1.0
  H  H2579  1  0.269000  0.870700  0.266900  1.0
  H  H2580  1  0.896200  0.629300  0.398300  1.0
  H  H2581  1  0.002100  0.103800  0.733100  1.0
  H  H2582  1  0.497900  0.731000  0.601700  1.0
  H  H2583  1  0.370700  0.769000  0.766900  1.0
  H  H2584  1  0.129300  0.396200  0.898300  1.0
  H  H2585  1  0.733100  0.002100  0.103800  1.0
  H  H2586  1  0.601700  0.497900  0.731000  1.0
  H  H2587  1  0.766900  0.370700  0.769000  1.0
  H  H2588  1  0.898300  0.129300  0.396200  1.0
  H  H2589  1  0.103800  0.733100  0.002100  1.0
  H  H2590  1  0.731000  0.601700  0.497900  1.0
  H  H2591  1  0.769000  0.766900  0.370700  1.0
  H  H2592  1  0.396200  0.898300  0.129300  1.0
  H  H2593  1  0.519500  0.250000  0.675500  1.0
  H  H2594  1  0.980500  0.156000  0.230500  1.0
  H  H2595  1  0.925500  0.250000  0.269500  1.0
  H  H2596  1  0.574500  0.344000  0.824500  1.0
  H  H2597  1  0.250000  0.675500  0.519500  1.0
  H  H2598  1  0.156000  0.230500  0.980500  1.0
  H  H2599  1  0.250000  0.269500  0.925500  1.0
  H  H2600  1  0.344000  0.824500  0.574500  1.0
  H  H2601  1  0.675500  0.519500  0.250000  1.0
  H  H2602  1  0.230500  0.980500  0.156000  1.0
  H  H2603  1  0.269500  0.925500  0.250000  1.0
  H  H2604  1  0.824500  0.574500  0.344000  1.0
  H  H2605  1  0.019500  0.175500  0.750000  1.0
  H  H2606  1  0.480500  0.730500  0.656000  1.0
  H  H2607  1  0.425500  0.769500  0.750000  1.0
  H  H2608  1  0.074500  0.324500  0.844000  1.0
  H  H2609  1  0.750000  0.019500  0.175500  1.0
  H  H2610  1  0.656000  0.480500  0.730500  1.0
  H  H2611  1  0.750000  0.425500  0.769500  1.0
  H  H2612  1  0.844000  0.074500  0.324500  1.0
  H  H2613  1  0.175500  0.750000  0.019500  1.0
  H  H2614  1  0.730500  0.656000  0.480500  1.0
  H  H2615  1  0.769500  0.750000  0.425500  1.0
  H  H2616  1  0.324500  0.844000  0.074500  1.0
  H  H2617  1  0.392100  0.208000  0.640900  1.0
  H  H2618  1  0.107900  0.248800  0.315900  1.0
  H  H2619  1  0.932900  0.292000  0.184100  1.0
  H  H2620  1  0.567100  0.251200  0.859100  1.0
  H  H2621  1  0.208000  0.640900  0.392100  1.0
  H  H2622  1  0.248800  0.315900  0.107900  1.0
  H  H2623  1  0.292000  0.184100  0.932900  1.0
  H  H2624  1  0.251200  0.859100  0.567100  1.0
  H  H2625  1  0.640900  0.392100  0.208000  1.0
  H  H2626  1  0.315900  0.107900  0.248800  1.0
  H  H2627  1  0.184100  0.932900  0.292000  1.0
  H  H2628  1  0.859100  0.567100  0.251200  1.0
  H  H2629  1  0.892100  0.140900  0.708000  1.0
  H  H2630  1  0.607900  0.815900  0.748800  1.0
  H  H2631  1  0.432900  0.684100  0.792000  1.0
  H  H2632  1  0.067100  0.359100  0.751200  1.0
  H  H2633  1  0.708000  0.892100  0.140900  1.0
  H  H2634  1  0.748800  0.607900  0.815900  1.0
  H  H2635  1  0.792000  0.432900  0.684100  1.0
  H  H2636  1  0.751200  0.067100  0.359100  1.0
  H  H2637  1  0.140900  0.708000  0.892100  1.0
  H  H2638  1  0.815900  0.748800  0.607900  1.0
  H  H2639  1  0.684100  0.792000  0.432900  1.0
  H  H2640  1  0.359100  0.751200  0.067100  1.0
  H  H2641  1  0.261500  0.156200  0.502300  1.0
  H  H2642  1  0.238500  0.240800  0.394700  1.0
  H  H2643  1  0.846100  0.343800  0.105300  1.0
  H  H2644  1  0.653900  0.259200  0.997700  1.0
  H  H2645  1  0.156200  0.502300  0.261500  1.0
  H  H2646  1  0.240800  0.394700  0.238500  1.0
  H  H2647  1  0.343800  0.105300  0.846100  1.0
  H  H2648  1  0.259200  0.997700  0.653900  1.0
  H  H2649  1  0.502300  0.261500  0.156200  1.0
  H  H2650  1  0.394700  0.238500  0.240800  1.0
  H  H2651  1  0.105300  0.846100  0.343800  1.0
  H  H2652  1  0.997700  0.653900  0.259200  1.0
  H  H2653  1  0.761500  0.002300  0.656200  1.0
  H  H2654  1  0.738500  0.894700  0.740800  1.0
  H  H2655  1  0.346100  0.605300  0.843800  1.0
  H  H2656  1  0.153900  0.497700  0.759200  1.0
  H  H2657  1  0.656200  0.761500  0.002300  1.0
  H  H2658  1  0.740800  0.738500  0.894700  1.0
  H  H2659  1  0.843800  0.346100  0.605300  1.0
  H  H2660  1  0.759200  0.153900  0.497700  1.0
  H  H2661  1  0.002300  0.656200  0.761500  1.0
  H  H2662  1  0.894700  0.740800  0.738500  1.0
  H  H2663  1  0.605300  0.843800  0.346100  1.0
  H  H2664  1  0.497700  0.759200  0.153900  1.0
  H  H2665  1  0.316100  0.179100  0.578800  1.0
  H  H2666  1  0.183900  0.262700  0.363000  1.0
  H  H2667  1  0.899700  0.320900  0.137000  1.0
  H  H2668  1  0.600300  0.237300  0.921200  1.0
  H  H2669  1  0.179100  0.578800  0.316100  1.0
  H  H2670  1  0.262700  0.363000  0.183900  1.0
  H  H2671  1  0.320900  0.137000  0.899700  1.0
  H  H2672  1  0.237300  0.921200  0.600300  1.0
  H  H2673  1  0.578800  0.316100  0.179100  1.0
  H  H2674  1  0.363000  0.183900  0.262700  1.0
  H  H2675  1  0.137000  0.899700  0.320900  1.0
  H  H2676  1  0.921200  0.600300  0.237300  1.0
  H  H2677  1  0.816100  0.078800  0.679100  1.0
  H  H2678  1  0.683900  0.863000  0.762700  1.0
  H  H2679  1  0.399700  0.637000  0.820900  1.0
  H  H2680  1  0.100300  0.421200  0.737300  1.0
  H  H2681  1  0.679100  0.816100  0.078800  1.0
  H  H2682  1  0.762700  0.683900  0.863000  1.0
  H  H2683  1  0.820900  0.399700  0.637000  1.0
  H  H2684  1  0.737300  0.100300  0.421200  1.0
  H  H2685  1  0.078800  0.679100  0.816100  1.0
  H  H2686  1  0.863000  0.762700  0.683900  1.0
  H  H2687  1  0.637000  0.820900  0.399700  1.0
  H  H2688  1  0.421200  0.737300  0.100300  1.0
  H  H2689  1  0.314900  0.185500  0.447200  1.0
  H  H2690  1  0.185100  0.132300  0.370600  1.0
  H  H2691  1  0.761700  0.314500  0.129400  1.0
  H  H2692  1  0.738300  0.367700  0.052800  1.0
  H  H2693  1  0.185500  0.447200  0.314900  1.0
  H  H2694  1  0.132300  0.370600  0.185100  1.0
  H  H2695  1  0.314500  0.129400  0.761700  1.0
  H  H2696  1  0.367700  0.052800  0.738300  1.0
  H  H2697  1  0.447200  0.314900  0.185500  1.0
  H  H2698  1  0.370600  0.185100  0.132300  1.0
  H  H2699  1  0.129400  0.761700  0.314500  1.0
  H  H2700  1  0.052800  0.738300  0.367700  1.0
  H  H2701  1  0.814900  0.947200  0.685500  1.0
  H  H2702  1  0.685100  0.870600  0.632300  1.0
  H  H2703  1  0.261700  0.629400  0.814500  1.0
  H  H2704  1  0.238300  0.552800  0.867700  1.0
  H  H2705  1  0.685500  0.814900  0.947200  1.0
  H  H2706  1  0.632300  0.685100  0.870600  1.0
  H  H2707  1  0.814500  0.261700  0.629400  1.0
  H  H2708  1  0.867700  0.238300  0.552800  1.0
  H  H2709  1  0.947200  0.685500  0.814900  1.0
  H  H2710  1  0.870600  0.632300  0.685100  1.0
  H  H2711  1  0.629400  0.814500  0.261700  1.0
  H  H2712  1  0.552800  0.867700  0.238300  1.0
  H  H2713  1  0.267000  0.155900  0.436900  1.0
  H  H2714  1  0.233000  0.169900  0.388900  1.0
  H  H2715  1  0.781000  0.344100  0.111100  1.0
  H  H2716  1  0.719000  0.330100  0.063100  1.0
  H  H2717  1  0.155900  0.436900  0.267000  1.0
  H  H2718  1  0.169900  0.388900  0.233000  1.0
  H  H2719  1  0.344100  0.111100  0.781000  1.0
  H  H2720  1  0.330100  0.063100  0.719000  1.0
  H  H2721  1  0.436900  0.267000  0.155900  1.0
  H  H2722  1  0.388900  0.233000  0.169900  1.0
  H  H2723  1  0.111100  0.781000  0.344100  1.0
  H  H2724  1  0.063100  0.719000  0.330100  1.0
  H  H2725  1  0.767000  0.936900  0.655900  1.0
  H  H2726  1  0.733000  0.888900  0.669900  1.0
  H  H2727  1  0.281000  0.611100  0.844100  1.0
  H  H2728  1  0.219000  0.563100  0.830100  1.0
  H  H2729  1  0.655900  0.767000  0.936900  1.0
  H  H2730  1  0.669900  0.733000  0.888900  1.0
  H  H2731  1  0.844100  0.281000  0.611100  1.0
  H  H2732  1  0.830100  0.219000  0.563100  1.0
  H  H2733  1  0.936900  0.655900  0.767000  1.0
  H  H2734  1  0.888900  0.669900  0.733000  1.0
  H  H2735  1  0.611100  0.844100  0.281000  1.0
  H  H2736  1  0.563100  0.830100  0.219000  1.0
  H  H2737  1  0.159500  0.716700  0.246800  1.0
  H  H2738  1  0.340500  0.087300  0.057200  1.0
  H  H2739  1  0.030100  0.783300  0.442800  1.0
  H  H2740  1  0.469900  0.412700  0.253200  1.0
  H  H2741  1  0.716700  0.246800  0.159500  1.0
  H  H2742  1  0.087300  0.057200  0.340500  1.0
  H  H2743  1  0.783300  0.442800  0.030100  1.0
  H  H2744  1  0.412700  0.253200  0.469900  1.0
  H  H2745  1  0.246800  0.159500  0.716700  1.0
  H  H2746  1  0.057200  0.340500  0.087300  1.0
  H  H2747  1  0.442800  0.030100  0.783300  1.0
  H  H2748  1  0.253200  0.469900  0.412700  1.0
  H  H2749  1  0.659500  0.746800  0.216700  1.0
  H  H2750  1  0.840500  0.557200  0.587300  1.0
  H  H2751  1  0.530100  0.942800  0.283300  1.0
  H  H2752  1  0.969900  0.753200  0.912700  1.0
  H  H2753  1  0.216700  0.659500  0.746800  1.0
  H  H2754  1  0.587300  0.840500  0.557200  1.0
  H  H2755  1  0.283300  0.530100  0.942800  1.0
  H  H2756  1  0.912700  0.969900  0.753200  1.0
  H  H2757  1  0.746800  0.216700  0.659500  1.0
  H  H2758  1  0.557200  0.587300  0.840500  1.0
  H  H2759  1  0.942800  0.283300  0.530100  1.0
  H  H2760  1  0.753200  0.912700  0.969900  1.0
  H  H2761  1  0.159300  0.658200  0.256700  1.0
  H  H2762  1  0.340700  0.097400  0.998900  1.0
  H  H2763  1  0.098500  0.841800  0.501100  1.0
  H  H2764  1  0.401500  0.402600  0.243300  1.0
  H  H2765  1  0.658200  0.256700  0.159300  1.0
  H  H2766  1  0.097400  0.998900  0.340700  1.0
  H  H2767  1  0.841800  0.501100  0.098500  1.0
  H  H2768  1  0.402600  0.243300  0.401500  1.0
  H  H2769  1  0.256700  0.159300  0.658200  1.0
  H  H2770  1  0.998900  0.340700  0.097400  1.0
  H  H2771  1  0.501100  0.098500  0.841800  1.0
  H  H2772  1  0.243300  0.401500  0.402600  1.0
  H  H2773  1  0.659300  0.756700  0.158200  1.0
  H  H2774  1  0.840700  0.498900  0.597400  1.0
  H  H2775  1  0.598500  0.001100  0.341800  1.0
  H  H2776  1  0.901500  0.743300  0.902600  1.0
  H  H2777  1  0.158200  0.659300  0.756700  1.0
  H  H2778  1  0.597400  0.840700  0.498900  1.0
  H  H2779  1  0.341800  0.598500  0.001100  1.0
  H  H2780  1  0.902600  0.901500  0.743300  1.0
  H  H2781  1  0.756700  0.158200  0.659300  1.0
  H  H2782  1  0.498900  0.597400  0.840700  1.0
  H  H2783  1  0.001100  0.341800  0.598500  1.0
  H  H2784  1  0.743300  0.902600  0.901500  1.0
  H  H2785  1  0.273000  0.742700  0.371900  1.0
  H  H2786  1  0.227000  0.098900  0.969700  1.0
  H  H2787  1  0.129200  0.757300  0.530300  1.0
  H  H2788  1  0.370800  0.401100  0.128100  1.0
  H  H2789  1  0.742700  0.371900  0.273000  1.0
  H  H2790  1  0.098900  0.969700  0.227000  1.0
  H  H2791  1  0.757300  0.530300  0.129200  1.0
  H  H2792  1  0.401100  0.128100  0.370800  1.0
  H  H2793  1  0.371900  0.273000  0.742700  1.0
  H  H2794  1  0.969700  0.227000  0.098900  1.0
  H  H2795  1  0.530300  0.129200  0.757300  1.0
  H  H2796  1  0.128100  0.370800  0.401100  1.0
  H  H2797  1  0.773000  0.871900  0.242700  1.0
  H  H2798  1  0.727000  0.469700  0.598900  1.0
  H  H2799  1  0.629200  0.030300  0.257300  1.0
  H  H2800  1  0.870800  0.628100  0.901100  1.0
  H  H2801  1  0.242700  0.773000  0.871900  1.0
  H  H2802  1  0.598900  0.727000  0.469700  1.0
  H  H2803  1  0.257300  0.629200  0.030300  1.0
  H  H2804  1  0.901100  0.870800  0.628100  1.0
  H  H2805  1  0.871900  0.242700  0.773000  1.0
  H  H2806  1  0.469700  0.598900  0.727000  1.0
  H  H2807  1  0.030300  0.257300  0.629200  1.0
  H  H2808  1  0.628100  0.901100  0.870800  1.0
  H  H2809  1  0.365000  0.906200  0.451400  1.0
  H  H2810  1  0.135000  0.086400  0.041200  1.0
  H  H2811  1  0.045200  0.593800  0.458800  1.0
  H  H2812  1  0.454800  0.413600  0.048600  1.0
  H  H2813  1  0.906200  0.451400  0.365000  1.0
  H  H2814  1  0.086400  0.041200  0.135000  1.0
  H  H2815  1  0.593800  0.458800  0.045200  1.0
  H  H2816  1  0.413600  0.048600  0.454800  1.0
  H  H2817  1  0.451400  0.365000  0.906200  1.0
  H  H2818  1  0.041200  0.135000  0.086400  1.0
  H  H2819  1  0.458800  0.045200  0.593800  1.0
  H  H2820  1  0.048600  0.454800  0.413600  1.0
  H  H2821  1  0.865000  0.951400  0.406200  1.0
  H  H2822  1  0.635000  0.541200  0.586400  1.0
  H  H2823  1  0.545200  0.958800  0.093800  1.0
  H  H2824  1  0.954800  0.548600  0.913600  1.0
  H  H2825  1  0.406200  0.865000  0.951400  1.0
  H  H2826  1  0.586400  0.635000  0.541200  1.0
  H  H2827  1  0.093800  0.545200  0.958800  1.0
  H  H2828  1  0.913600  0.954800  0.548600  1.0
  H  H2829  1  0.951400  0.406200  0.865000  1.0
  H  H2830  1  0.541200  0.586400  0.635000  1.0
  H  H2831  1  0.958800  0.093800  0.545200  1.0
  H  H2832  1  0.548600  0.913600  0.954800  1.0
  H  H2833  1  0.329000  0.826000  0.429200  1.0
  H  H2834  1  0.171000  0.100200  0.997000  1.0
  H  H2835  1  0.103200  0.674000  0.503000  1.0
  H  H2836  1  0.396800  0.399800  0.070800  1.0
  H  H2837  1  0.826000  0.429200  0.329000  1.0
  H  H2838  1  0.100200  0.997000  0.171000  1.0
  H  H2839  1  0.674000  0.503000  0.103200  1.0
  H  H2840  1  0.399800  0.070800  0.396800  1.0
  H  H2841  1  0.429200  0.329000  0.826000  1.0
  H  H2842  1  0.997000  0.171000  0.100200  1.0
  H  H2843  1  0.503000  0.103200  0.674000  1.0
  H  H2844  1  0.070800  0.396800  0.399800  1.0
  H  H2845  1  0.829000  0.929200  0.326000  1.0
  H  H2846  1  0.671000  0.497000  0.600200  1.0
  H  H2847  1  0.603200  0.003000  0.174000  1.0
  H  H2848  1  0.896800  0.570800  0.899800  1.0
  H  H2849  1  0.326000  0.829000  0.929200  1.0
  H  H2850  1  0.600200  0.671000  0.497000  1.0
  H  H2851  1  0.174000  0.603200  0.003000  1.0
  H  H2852  1  0.899800  0.896800  0.570800  1.0
  H  H2853  1  0.929200  0.326000  0.829000  1.0
  H  H2854  1  0.497000  0.600200  0.671000  1.0
  H  H2855  1  0.003000  0.174000  0.603200  1.0
  H  H2856  1  0.570800  0.899800  0.896800  1.0
  H  H2857  1  0.319100  0.921700  0.359000  1.0
  H  H2858  1  0.180900  0.039900  0.102600  1.0
  H  H2859  1  0.937300  0.578300  0.397400  1.0
  H  H2860  1  0.562700  0.460100  0.141000  1.0
  H  H2861  1  0.921700  0.359000  0.319100  1.0
  H  H2862  1  0.039900  0.102600  0.180900  1.0
  H  H2863  1  0.578300  0.397400  0.937300  1.0
  H  H2864  1  0.460100  0.141000  0.562700  1.0
  H  H2865  1  0.359000  0.319100  0.921700  1.0
  H  H2866  1  0.102600  0.180900  0.039900  1.0
  H  H2867  1  0.397400  0.937300  0.578300  1.0
  H  H2868  1  0.141000  0.562700  0.460100  1.0
  H  H2869  1  0.819100  0.859000  0.421700  1.0
  H  H2870  1  0.680900  0.602600  0.539900  1.0
  H  H2871  1  0.437300  0.897400  0.078300  1.0
  H  H2872  1  0.062700  0.641000  0.960100  1.0
  H  H2873  1  0.421700  0.819100  0.859000  1.0
  H  H2874  1  0.539900  0.680900  0.602600  1.0
  H  H2875  1  0.078300  0.437300  0.897400  1.0
  H  H2876  1  0.960100  0.062700  0.641000  1.0
  H  H2877  1  0.859000  0.421700  0.819100  1.0
  H  H2878  1  0.602600  0.539900  0.680900  1.0
  H  H2879  1  0.897400  0.078300  0.437300  1.0
  H  H2880  1  0.641000  0.960100  0.062700  1.0
  H  H2881  1  0.354500  0.949500  0.409000  1.0
  H  H2882  1  0.145500  0.054500  0.095000  1.0
  H  H2883  1  0.959500  0.550500  0.405000  1.0
  H  H2884  1  0.540500  0.445500  0.091000  1.0
  H  H2885  1  0.949500  0.409000  0.354500  1.0
  H  H2886  1  0.054500  0.095000  0.145500  1.0
  H  H2887  1  0.550500  0.405000  0.959500  1.0
  H  H2888  1  0.445500  0.091000  0.540500  1.0
  H  H2889  1  0.409000  0.354500  0.949500  1.0
  H  H2890  1  0.095000  0.145500  0.054500  1.0
  H  H2891  1  0.405000  0.959500  0.550500  1.0
  H  H2892  1  0.091000  0.540500  0.445500  1.0
  H  H2893  1  0.854500  0.909000  0.449500  1.0
  H  H2894  1  0.645500  0.595000  0.554500  1.0
  H  H2895  1  0.459500  0.905000  0.050500  1.0
  H  H2896  1  0.040500  0.591000  0.945500  1.0
  H  H2897  1  0.449500  0.854500  0.909000  1.0
  H  H2898  1  0.554500  0.645500  0.595000  1.0
  H  H2899  1  0.050500  0.459500  0.905000  1.0
  H  H2900  1  0.945500  0.040500  0.591000  1.0
  H  H2901  1  0.909000  0.449500  0.854500  1.0
  H  H2902  1  0.595000  0.554500  0.645500  1.0
  H  H2903  1  0.905000  0.050500  0.459500  1.0
  H  H2904  1  0.591000  0.945500  0.040500  1.0
  H  H2905  1  0.318400  0.989000  0.374200  1.0
  H  H2906  1  0.181600  0.055800  0.170600  1.0
  H  H2907  1  0.885200  0.511000  0.329400  1.0
  H  H2908  1  0.614800  0.444200  0.125800  1.0
  H  H2909  1  0.989000  0.374200  0.318400  1.0
  H  H2910  1  0.055800  0.170600  0.181600  1.0
  H  H2911  1  0.511000  0.329400  0.885200  1.0
  H  H2912  1  0.444200  0.125800  0.614800  1.0
  H  H2913  1  0.374200  0.318400  0.989000  1.0
  H  H2914  1  0.170600  0.181600  0.055800  1.0
  H  H2915  1  0.329400  0.885200  0.511000  1.0
  H  H2916  1  0.125800  0.614800  0.444200  1.0
  H  H2917  1  0.818400  0.874200  0.489000  1.0
  H  H2918  1  0.681600  0.670600  0.555800  1.0
  H  H2919  1  0.385200  0.829400  0.011000  1.0
  H  H2920  1  0.114800  0.625800  0.944200  1.0
  H  H2921  1  0.489000  0.818400  0.874200  1.0
  H  H2922  1  0.555800  0.681600  0.670600  1.0
  H  H2923  1  0.011000  0.385200  0.829400  1.0
  H  H2924  1  0.944200  0.114800  0.625800  1.0
  H  H2925  1  0.874200  0.489000  0.818400  1.0
  H  H2926  1  0.670600  0.555800  0.681600  1.0
  H  H2927  1  0.829400  0.011000  0.385200  1.0
  H  H2928  1  0.625800  0.944200  0.114800  1.0
  H  H2929  1  0.238800  0.008600  0.420000  1.0
  H  H2930  1  0.261200  0.181200  0.269800  1.0
  H  H2931  1  0.911400  0.491400  0.230200  1.0
  H  H2932  1  0.588600  0.318800  0.080000  1.0
  H  H2933  1  0.008600  0.420000  0.238800  1.0
  H  H2934  1  0.181200  0.269800  0.261200  1.0
  H  H2935  1  0.491400  0.230200  0.911400  1.0
  H  H2936  1  0.318800  0.080000  0.588600  1.0
  H  H2937  1  0.420000  0.238800  0.008600  1.0
  H  H2938  1  0.269800  0.261200  0.181200  1.0
  H  H2939  1  0.230200  0.911400  0.491400  1.0
  H  H2940  1  0.080000  0.588600  0.318800  1.0
  H  H2941  1  0.738800  0.920000  0.508600  1.0
  H  H2942  1  0.761200  0.769800  0.681200  1.0
  H  H2943  1  0.411400  0.730200  0.991400  1.0
  H  H2944  1  0.088600  0.580000  0.818800  1.0
  H  H2945  1  0.508600  0.738800  0.920000  1.0
  H  H2946  1  0.681200  0.761200  0.769800  1.0
  H  H2947  1  0.991400  0.411400  0.730200  1.0
  H  H2948  1  0.818800  0.088600  0.580000  1.0
  H  H2949  1  0.920000  0.508600  0.738800  1.0
  H  H2950  1  0.769800  0.681200  0.761200  1.0
  H  H2951  1  0.730200  0.991400  0.411400  1.0
  H  H2952  1  0.580000  0.818800  0.088600  1.0
  H  H2953  1  0.233100  0.953100  0.437200  1.0
  H  H2954  1  0.266900  0.204100  0.220000  1.0
  H  H2955  1  0.984100  0.546900  0.280000  1.0
  H  H2956  1  0.515900  0.295900  0.062800  1.0
  H  H2957  1  0.953100  0.437200  0.233100  1.0
  H  H2958  1  0.204100  0.220000  0.266900  1.0
  H  H2959  1  0.546900  0.280000  0.984100  1.0
  H  H2960  1  0.295900  0.062800  0.515900  1.0
  H  H2961  1  0.437200  0.233100  0.953100  1.0
  H  H2962  1  0.220000  0.266900  0.204100  1.0
  H  H2963  1  0.280000  0.984100  0.546900  1.0
  H  H2964  1  0.062800  0.515900  0.295900  1.0
  H  H2965  1  0.733100  0.937200  0.453100  1.0
  H  H2966  1  0.766900  0.720000  0.704100  1.0
  H  H2967  1  0.484100  0.780000  0.046900  1.0
  H  H2968  1  0.015900  0.562800  0.795900  1.0
  H  H2969  1  0.453100  0.733100  0.937200  1.0
  H  H2970  1  0.704100  0.766900  0.720000  1.0
  H  H2971  1  0.046900  0.484100  0.780000  1.0
  H  H2972  1  0.795900  0.015900  0.562800  1.0
  H  H2973  1  0.937200  0.453100  0.733100  1.0
  H  H2974  1  0.720000  0.704100  0.766900  1.0
  H  H2975  1  0.780000  0.046900  0.484100  1.0
  H  H2976  1  0.562800  0.795900  0.015900  1.0
  H  H2977  1  0.270100  0.915600  0.422900  1.0
  H  H2978  1  0.229900  0.152800  0.145500  1.0
  H  H2979  1  0.007300  0.584400  0.354500  1.0
  H  H2980  1  0.492700  0.347200  0.077100  1.0
  H  H2981  1  0.915600  0.422900  0.270100  1.0
  H  H2982  1  0.152800  0.145500  0.229900  1.0
  H  H2983  1  0.584400  0.354500  0.007300  1.0
  H  H2984  1  0.347200  0.077100  0.492700  1.0
  H  H2985  1  0.422900  0.270100  0.915600  1.0
  H  H2986  1  0.145500  0.229900  0.152800  1.0
  H  H2987  1  0.354500  0.007300  0.584400  1.0
  H  H2988  1  0.077100  0.492700  0.347200  1.0
  H  H2989  1  0.770100  0.922900  0.415600  1.0
  H  H2990  1  0.729900  0.645500  0.652800  1.0
  H  H2991  1  0.507300  0.854500  0.084400  1.0
  H  H2992  1  0.992700  0.577100  0.847200  1.0
  H  H2993  1  0.415600  0.770100  0.922900  1.0
  H  H2994  1  0.652800  0.729900  0.645500  1.0
  H  H2995  1  0.084400  0.507300  0.854500  1.0
  H  H2996  1  0.847200  0.992700  0.577100  1.0
  H  H2997  1  0.922900  0.415600  0.770100  1.0
  H  H2998  1  0.645500  0.652800  0.729900  1.0
  H  H2999  1  0.854500  0.084400  0.507300  1.0
  H  H3000  1  0.577100  0.847200  0.992700  1.0
  H  H3001  1  0.307200  0.089800  0.331800  1.0
  H  H3002  1  0.192800  0.024600  0.282600  1.0
  H  H3003  1  0.742000  0.410200  0.217400  1.0
  H  H3004  1  0.758000  0.475400  0.168200  1.0
  H  H3005  1  0.089800  0.331800  0.307200  1.0
  H  H3006  1  0.024600  0.282600  0.192800  1.0
  H  H3007  1  0.410200  0.217400  0.742000  1.0
  H  H3008  1  0.475400  0.168200  0.758000  1.0
  H  H3009  1  0.331800  0.307200  0.089800  1.0
  H  H3010  1  0.282600  0.192800  0.024600  1.0
  H  H3011  1  0.217400  0.742000  0.410200  1.0
  H  H3012  1  0.168200  0.758000  0.475400  1.0
  H  H3013  1  0.807200  0.831800  0.589800  1.0
  H  H3014  1  0.692800  0.782600  0.524600  1.0
  H  H3015  1  0.242000  0.717400  0.910200  1.0
  H  H3016  1  0.258000  0.668200  0.975400  1.0
  H  H3017  1  0.589800  0.807200  0.831800  1.0
  H  H3018  1  0.524600  0.692800  0.782600  1.0
  H  H3019  1  0.910200  0.242000  0.717400  1.0
  H  H3020  1  0.975400  0.258000  0.668200  1.0
  H  H3021  1  0.831800  0.589800  0.807200  1.0
  H  H3022  1  0.782600  0.524600  0.692800  1.0
  H  H3023  1  0.717400  0.910200  0.242000  1.0
  H  H3024  1  0.668200  0.975400  0.258000  1.0
  H  H3025  1  0.293500  0.026500  0.336800  1.0
  H  H3026  1  0.206500  0.043300  0.233000  1.0
  H  H3027  1  0.810300  0.473500  0.267000  1.0
  H  H3028  1  0.689700  0.456700  0.163200  1.0
  H  H3029  1  0.026500  0.336800  0.293500  1.0
  H  H3030  1  0.043300  0.233000  0.206500  1.0
  H  H3031  1  0.473500  0.267000  0.810300  1.0
  H  H3032  1  0.456700  0.163200  0.689700  1.0
  H  H3033  1  0.336800  0.293500  0.026500  1.0
  H  H3034  1  0.233000  0.206500  0.043300  1.0
  H  H3035  1  0.267000  0.810300  0.473500  1.0
  H  H3036  1  0.163200  0.689700  0.456700  1.0
  H  H3037  1  0.793500  0.836800  0.526500  1.0
  H  H3038  1  0.706500  0.733000  0.543300  1.0
  H  H3039  1  0.310300  0.767000  0.973500  1.0
  H  H3040  1  0.189700  0.663200  0.956700  1.0
  H  H3041  1  0.526500  0.793500  0.836800  1.0
  H  H3042  1  0.543300  0.706500  0.733000  1.0
  H  H3043  1  0.973500  0.310300  0.767000  1.0
  H  H3044  1  0.956700  0.189700  0.663200  1.0
  H  H3045  1  0.836800  0.526500  0.793500  1.0
  H  H3046  1  0.733000  0.543300  0.706500  1.0
  H  H3047  1  0.767000  0.973500  0.310300  1.0
  H  H3048  1  0.663200  0.956700  0.189700  1.0
  H  H3049  1  0.281900  0.079300  0.443000  1.0
  H  H3050  1  0.218100  0.161100  0.297400  1.0
  H  H3051  1  0.863700  0.420700  0.202600  1.0
  H  H3052  1  0.636300  0.338900  0.057000  1.0
  H  H3053  1  0.079300  0.443000  0.281900  1.0
  H  H3054  1  0.161100  0.297400  0.218100  1.0
  H  H3055  1  0.420700  0.202600  0.863700  1.0
  H  H3056  1  0.338900  0.057000  0.636300  1.0
  H  H3057  1  0.443000  0.281900  0.079300  1.0
  H  H3058  1  0.297400  0.218100  0.161100  1.0
  H  H3059  1  0.202600  0.863700  0.420700  1.0
  H  H3060  1  0.057000  0.636300  0.338900  1.0
  H  H3061  1  0.781900  0.943000  0.579300  1.0
  H  H3062  1  0.718100  0.797400  0.661100  1.0
  H  H3063  1  0.363700  0.702600  0.920700  1.0
  H  H3064  1  0.136300  0.557000  0.838900  1.0
  H  H3065  1  0.579300  0.781900  0.943000  1.0
  H  H3066  1  0.661100  0.718100  0.797400  1.0
  H  H3067  1  0.920700  0.363700  0.702600  1.0
  H  H3068  1  0.838900  0.136300  0.557000  1.0
  H  H3069  1  0.943000  0.579300  0.781900  1.0
  H  H3070  1  0.797400  0.661100  0.718100  1.0
  H  H3071  1  0.702600  0.920700  0.363700  1.0
  H  H3072  1  0.557000  0.838900  0.136300  1.0
  H  H3073  1  0.308300  0.147900  0.382400  1.0
  H  H3074  1  0.191700  0.074100  0.339600  1.0
  H  H3075  1  0.734500  0.352100  0.160400  1.0
  H  H3076  1  0.765500  0.425900  0.117600  1.0
  H  H3077  1  0.147900  0.382400  0.308300  1.0
  H  H3078  1  0.074100  0.339600  0.191700  1.0
  H  H3079  1  0.352100  0.160400  0.734500  1.0
  H  H3080  1  0.425900  0.117600  0.765500  1.0
  H  H3081  1  0.382400  0.308300  0.147900  1.0
  H  H3082  1  0.339600  0.191700  0.074100  1.0
  H  H3083  1  0.160400  0.734500  0.352100  1.0
  H  H3084  1  0.117600  0.765500  0.425900  1.0
  H  H3085  1  0.808300  0.882400  0.647900  1.0
  H  H3086  1  0.691700  0.839600  0.574100  1.0
  H  H3087  1  0.234500  0.660400  0.852100  1.0
  H  H3088  1  0.265500  0.617600  0.925900  1.0
  H  H3089  1  0.647900  0.808300  0.882400  1.0
  H  H3090  1  0.574100  0.691700  0.839600  1.0
  H  H3091  1  0.852100  0.234500  0.660400  1.0
  H  H3092  1  0.925900  0.265500  0.617600  1.0
  H  H3093  1  0.882400  0.647900  0.808300  1.0
  H  H3094  1  0.839600  0.574100  0.691700  1.0
  H  H3095  1  0.660400  0.852100  0.234500  1.0
  H  H3096  1  0.617600  0.925900  0.265500  1.0
  N  N3097  1  0.160590  0.773830  0.229220  1.0
  N  N3098  1  0.339410  0.068630  0.113240  1.0
  N  N3099  1  0.955390  0.726170  0.386760  1.0
  N  N3100  1  0.544610  0.431370  0.270780  1.0
  N  N3101  1  0.773830  0.229220  0.160590  1.0
  N  N3102  1  0.068630  0.113240  0.339410  1.0
  N  N3103  1  0.726170  0.386760  0.955390  1.0
  N  N3104  1  0.431370  0.270780  0.544610  1.0
  N  N3105  1  0.229220  0.160590  0.773830  1.0
  N  N3106  1  0.113240  0.339410  0.068630  1.0
  N  N3107  1  0.386760  0.955390  0.726170  1.0
  N  N3108  1  0.270780  0.544610  0.431370  1.0
  N  N3109  1  0.660590  0.729220  0.273830  1.0
  N  N3110  1  0.839410  0.613240  0.568630  1.0
  N  N3111  1  0.455390  0.886760  0.226170  1.0
  N  N3112  1  0.044610  0.770780  0.931370  1.0
  N  N3113  1  0.273830  0.660590  0.729220  1.0
  N  N3114  1  0.568630  0.839410  0.613240  1.0
  N  N3115  1  0.226170  0.455390  0.886760  1.0
  N  N3116  1  0.931370  0.044610  0.770780  1.0
  N  N3117  1  0.729220  0.273830  0.660590  1.0
  N  N3118  1  0.613240  0.568630  0.839410  1.0
  N  N3119  1  0.886760  0.226170  0.455390  1.0
  N  N3120  1  0.770780  0.931370  0.044610  1.0
  N  N3121  1  0.093800  0.731500  0.142300  1.0
  N  N3122  1  0.406200  0.048500  0.137700  1.0
  N  N3123  1  0.910800  0.768500  0.362300  1.0
  N  N3124  1  0.589200  0.451500  0.357700  1.0
  N  N3125  1  0.731500  0.142300  0.093800  1.0
  N  N3126  1  0.048500  0.137700  0.406200  1.0
  N  N3127  1  0.768500  0.362300  0.910800  1.0
  N  N3128  1  0.451500  0.357700  0.589200  1.0
  N  N3129  1  0.142300  0.093800  0.731500  1.0
  N  N3130  1  0.137700  0.406200  0.048500  1.0
  N  N3131  1  0.362300  0.910800  0.768500  1.0
  N  N3132  1  0.357700  0.589200  0.451500  1.0
  N  N3133  1  0.593800  0.642300  0.231500  1.0
  N  N3134  1  0.906200  0.637700  0.548500  1.0
  N  N3135  1  0.410800  0.862300  0.268500  1.0
  N  N3136  1  0.089200  0.857700  0.951500  1.0
  N  N3137  1  0.231500  0.593800  0.642300  1.0
  N  N3138  1  0.548500  0.906200  0.637700  1.0
  N  N3139  1  0.268500  0.410800  0.862300  1.0
  N  N3140  1  0.951500  0.089200  0.857700  1.0
  N  N3141  1  0.642300  0.231500  0.593800  1.0
  N  N3142  1  0.637700  0.548500  0.906200  1.0
  N  N3143  1  0.862300  0.268500  0.410800  1.0
  N  N3144  1  0.857700  0.951500  0.089200  1.0
  N  N3145  1  0.246400  0.795610  0.249410  1.0
  N  N3146  1  0.253600  0.003010  0.049210  1.0
  N  N3147  1  0.953800  0.704390  0.450790  1.0
  N  N3148  1  0.546200  0.496990  0.250590  1.0
  N  N3149  1  0.795610  0.249410  0.246400  1.0
  N  N3150  1  0.003010  0.049210  0.253600  1.0
  N  N3151  1  0.704390  0.450790  0.953800  1.0
  N  N3152  1  0.496990  0.250590  0.546200  1.0
  N  N3153  1  0.249410  0.246400  0.795610  1.0
  N  N3154  1  0.049210  0.253600  0.003010  1.0
  N  N3155  1  0.450790  0.953800  0.704390  1.0
  N  N3156  1  0.250590  0.546200  0.496990  1.0
  N  N3157  1  0.746400  0.749410  0.295610  1.0
  N  N3158  1  0.753600  0.549210  0.503010  1.0
  N  N3159  1  0.453800  0.950790  0.204390  1.0
  N  N3160  1  0.046200  0.750590  0.996990  1.0
  N  N3161  1  0.295610  0.746400  0.749410  1.0
  N  N3162  1  0.503010  0.753600  0.549210  1.0
  N  N3163  1  0.204390  0.453800  0.950790  1.0
  N  N3164  1  0.996990  0.046200  0.750590  1.0
  N  N3165  1  0.749410  0.295610  0.746400  1.0
  N  N3166  1  0.549210  0.503010  0.753600  1.0
  N  N3167  1  0.950790  0.204390  0.453800  1.0
  N  N3168  1  0.750590  0.996990  0.046200  1.0
  N  N3169  1  0.284700  0.795100  0.250200  1.0
  N  N3170  1  0.215300  0.965500  0.010400  1.0
  N  N3171  1  0.955100  0.704900  0.489600  1.0
  N  N3172  1  0.544900  0.534500  0.249800  1.0
  N  N3173  1  0.795100  0.250200  0.284700  1.0
  N  N3174  1  0.965500  0.010400  0.215300  1.0
  N  N3175  1  0.704900  0.489600  0.955100  1.0
  N  N3176  1  0.534500  0.249800  0.544900  1.0
  N  N3177  1  0.250200  0.284700  0.795100  1.0
  N  N3178  1  0.010400  0.215300  0.965500  1.0
  N  N3179  1  0.489600  0.955100  0.704900  1.0
  N  N3180  1  0.249800  0.544900  0.534500  1.0
  N  N3181  1  0.784700  0.750200  0.295100  1.0
  N  N3182  1  0.715300  0.510400  0.465500  1.0
  N  N3183  1  0.455100  0.989600  0.204900  1.0
  N  N3184  1  0.044900  0.749800  0.034500  1.0
  N  N3185  1  0.295100  0.784700  0.750200  1.0
  N  N3186  1  0.465500  0.715300  0.510400  1.0
  N  N3187  1  0.204900  0.455100  0.989600  1.0
  N  N3188  1  0.034500  0.044900  0.749800  1.0
  N  N3189  1  0.750200  0.295100  0.784700  1.0
  N  N3190  1  0.510400  0.465500  0.715300  1.0
  N  N3191  1  0.989600  0.204900  0.455100  1.0
  N  N3192  1  0.749800  0.034500  0.044900  1.0
  N  N3193  1  0.658080  0.029500  0.558780  1.0
  N  N3194  1  0.841920  0.900700  0.871420  1.0
  N  N3195  1  0.029280  0.470500  0.628580  1.0
  N  N3196  1  0.470720  0.599300  0.941220  1.0
  N  N3197  1  0.029500  0.558780  0.658080  1.0
  N  N3198  1  0.900700  0.871420  0.841920  1.0
  N  N3199  1  0.470500  0.628580  0.029280  1.0
  N  N3200  1  0.599300  0.941220  0.470720  1.0
  N  N3201  1  0.558780  0.658080  0.029500  1.0
  N  N3202  1  0.871420  0.841920  0.900700  1.0
  N  N3203  1  0.628580  0.029280  0.470500  1.0
  N  N3204  1  0.941220  0.470720  0.599300  1.0
  N  N3205  1  0.158080  0.058780  0.529500  1.0
  N  N3206  1  0.341920  0.371420  0.400700  1.0
  N  N3207  1  0.529280  0.128580  0.970500  1.0
  N  N3208  1  0.970720  0.441220  0.099300  1.0
  N  N3209  1  0.529500  0.158080  0.058780  1.0
  N  N3210  1  0.400700  0.341920  0.371420  1.0
  N  N3211  1  0.970500  0.529280  0.128580  1.0
  N  N3212  1  0.099300  0.970720  0.441220  1.0
  N  N3213  1  0.058780  0.529500  0.158080  1.0
  N  N3214  1  0.371420  0.400700  0.341920  1.0
  N  N3215  1  0.128580  0.970500  0.529280  1.0
  N  N3216  1  0.441220  0.099300  0.970720  1.0
  N  N3217  1  0.731910  0.069500  0.641010  1.0
  N  N3218  1  0.768090  0.909100  0.837590  1.0
  N  N3219  1  0.071510  0.430500  0.662410  1.0
  N  N3220  1  0.428490  0.590900  0.858990  1.0
  N  N3221  1  0.069500  0.641010  0.731910  1.0
  N  N3222  1  0.909100  0.837590  0.768090  1.0
  N  N3223  1  0.430500  0.662410  0.071510  1.0
  N  N3224  1  0.590900  0.858990  0.428490  1.0
  N  N3225  1  0.641010  0.731910  0.069500  1.0
  N  N3226  1  0.837590  0.768090  0.909100  1.0
  N  N3227  1  0.662410  0.071510  0.430500  1.0
  N  N3228  1  0.858990  0.428490  0.590900  1.0
  N  N3229  1  0.231910  0.141010  0.569500  1.0
  N  N3230  1  0.268090  0.337590  0.409100  1.0
  N  N3231  1  0.571510  0.162410  0.930500  1.0
  N  N3232  1  0.928490  0.358990  0.090900  1.0
  N  N3233  1  0.569500  0.231910  0.141010  1.0
  N  N3234  1  0.409100  0.268090  0.337590  1.0
  N  N3235  1  0.930500  0.571510  0.162410  1.0
  N  N3236  1  0.090900  0.928490  0.358990  1.0
  N  N3237  1  0.141010  0.569500  0.231910  1.0
  N  N3238  1  0.337590  0.409100  0.268090  1.0
  N  N3239  1  0.162410  0.930500  0.571510  1.0
  N  N3240  1  0.358990  0.090900  0.928490  1.0
  N  N3241  1  0.577490  0.980600  0.542690  1.0
  N  N3242  1  0.922510  0.965200  0.903110  1.0
  N  N3243  1  0.062090  0.519400  0.596890  1.0
  N  N3244  1  0.437910  0.534800  0.957310  1.0
  N  N3245  1  0.980600  0.542690  0.577490  1.0
  N  N3246  1  0.965200  0.903110  0.922510  1.0
  N  N3247  1  0.519400  0.596890  0.062090  1.0
  N  N3248  1  0.534800  0.957310  0.437910  1.0
  N  N3249  1  0.542690  0.577490  0.980600  1.0
  N  N3250  1  0.903110  0.922510  0.965200  1.0
  N  N3251  1  0.596890  0.062090  0.519400  1.0
  N  N3252  1  0.957310  0.437910  0.534800  1.0
  N  N3253  1  0.077490  0.042690  0.480600  1.0
  N  N3254  1  0.422510  0.403110  0.465200  1.0
  N  N3255  1  0.562090  0.096890  0.019400  1.0
  N  N3256  1  0.937910  0.457310  0.034800  1.0
  N  N3257  1  0.480600  0.077490  0.042690  1.0
  N  N3258  1  0.465200  0.422510  0.403110  1.0
  N  N3259  1  0.019400  0.562090  0.096890  1.0
  N  N3260  1  0.034800  0.937910  0.457310  1.0
  N  N3261  1  0.042690  0.480600  0.077490  1.0
  N  N3262  1  0.403110  0.465200  0.422510  1.0
  N  N3263  1  0.096890  0.019400  0.562090  1.0
  N  N3264  1  0.457310  0.034800  0.937910  1.0
  N  N3265  1  0.539540  0.955120  0.543060  1.0
  N  N3266  1  0.960460  0.003520  0.915580  1.0
  N  N3267  1  0.087940  0.544880  0.584420  1.0
  N  N3268  1  0.412060  0.496480  0.956940  1.0
  N  N3269  1  0.955120  0.543060  0.539540  1.0
  N  N3270  1  0.003520  0.915580  0.960460  1.0
  N  N3271  1  0.544880  0.584420  0.087940  1.0
  N  N3272  1  0.496480  0.956940  0.412060  1.0
  N  N3273  1  0.543060  0.539540  0.955120  1.0
  N  N3274  1  0.915580  0.960460  0.003520  1.0
  N  N3275  1  0.584420  0.087940  0.544880  1.0
  N  N3276  1  0.956940  0.412060  0.496480  1.0
  N  N3277  1  0.039540  0.043060  0.455120  1.0
  N  N3278  1  0.460460  0.415580  0.503520  1.0
  N  N3279  1  0.587940  0.084420  0.044880  1.0
  N  N3280  1  0.912060  0.456940  0.996480  1.0
  N  N3281  1  0.455120  0.039540  0.043060  1.0
  N  N3282  1  0.503520  0.460460  0.415580  1.0
  N  N3283  1  0.044880  0.587940  0.084420  1.0
  N  N3284  1  0.996480  0.912060  0.456940  1.0
  N  N3285  1  0.043060  0.455120  0.039540  1.0
  N  N3286  1  0.415580  0.503520  0.460460  1.0
  N  N3287  1  0.084420  0.044880  0.587940  1.0
  N  N3288  1  0.456940  0.996480  0.912060  1.0
  N  N3289  1  0.436670  0.210400  0.579290  1.0
  N  N3290  1  0.063330  0.142620  0.273730  1.0
  N  N3291  1  0.868890  0.289600  0.226270  1.0
  N  N3292  1  0.631110  0.357380  0.920710  1.0
  N  N3293  1  0.210400  0.579290  0.436670  1.0
  N  N3294  1  0.142620  0.273730  0.063330  1.0
  N  N3295  1  0.289600  0.226270  0.868890  1.0
  N  N3296  1  0.357380  0.920710  0.631110  1.0
  N  N3297  1  0.579290  0.436670  0.210400  1.0
  N  N3298  1  0.273730  0.063330  0.142620  1.0
  N  N3299  1  0.226270  0.868890  0.289600  1.0
  N  N3300  1  0.920710  0.631110  0.357380  1.0
  N  N3301  1  0.936670  0.079290  0.710400  1.0
  N  N3302  1  0.563330  0.773730  0.642620  1.0
  N  N3303  1  0.368890  0.726270  0.789600  1.0
  N  N3304  1  0.131110  0.420710  0.857380  1.0
  N  N3305  1  0.710400  0.936670  0.079290  1.0
  N  N3306  1  0.642620  0.563330  0.773730  1.0
  N  N3307  1  0.789600  0.368890  0.726270  1.0
  N  N3308  1  0.857380  0.131110  0.420710  1.0
  N  N3309  1  0.079290  0.710400  0.936670  1.0
  N  N3310  1  0.773730  0.642620  0.563330  1.0
  N  N3311  1  0.726270  0.789600  0.368890  1.0
  N  N3312  1  0.420710  0.857380  0.131110  1.0
  N  N3313  1  0.457470  0.230650  0.665280  1.0
  N  N3314  1  0.042530  0.207810  0.273180  1.0
  N  N3315  1  0.934630  0.269350  0.226820  1.0
  N  N3316  1  0.565370  0.292190  0.834720  1.0
  N  N3317  1  0.230650  0.665280  0.457470  1.0
  N  N3318  1  0.207810  0.273180  0.042530  1.0
  N  N3319  1  0.269350  0.226820  0.934630  1.0
  N  N3320  1  0.292190  0.834720  0.565370  1.0
  N  N3321  1  0.665280  0.457470  0.230650  1.0
  N  N3322  1  0.273180  0.042530  0.207810  1.0
  N  N3323  1  0.226820  0.934630  0.269350  1.0
  N  N3324  1  0.834720  0.565370  0.292190  1.0
  N  N3325  1  0.957470  0.165280  0.730650  1.0
  N  N3326  1  0.542530  0.773180  0.707810  1.0
  N  N3327  1  0.434630  0.726820  0.769350  1.0
  N  N3328  1  0.065370  0.334720  0.792190  1.0
  N  N3329  1  0.730650  0.957470  0.165280  1.0
  N  N3330  1  0.707810  0.542530  0.773180  1.0
  N  N3331  1  0.769350  0.434630  0.726820  1.0
  N  N3332  1  0.792190  0.065370  0.334720  1.0
  N  N3333  1  0.165280  0.730650  0.957470  1.0
  N  N3334  1  0.773180  0.707810  0.542530  1.0
  N  N3335  1  0.726820  0.769350  0.434630  1.0
  N  N3336  1  0.334720  0.792190  0.065370  1.0
  N  N3337  1  0.357820  0.179810  0.516250  1.0
  N  N3338  1  0.142180  0.158430  0.321990  1.0
  N  N3339  1  0.836440  0.320190  0.178010  1.0
  N  N3340  1  0.663560  0.341570  0.983750  1.0
  N  N3341  1  0.179810  0.516250  0.357820  1.0
  N  N3342  1  0.158430  0.321990  0.142180  1.0
  N  N3343  1  0.320190  0.178010  0.836440  1.0
  N  N3344  1  0.341570  0.983750  0.663560  1.0
  N  N3345  1  0.516250  0.357820  0.179810  1.0
  N  N3346  1  0.321990  0.142180  0.158430  1.0
  N  N3347  1  0.178010  0.836440  0.320190  1.0
  N  N3348  1  0.983750  0.663560  0.341570  1.0
  N  N3349  1  0.857820  0.016250  0.679810  1.0
  N  N3350  1  0.642180  0.821990  0.658430  1.0
  N  N3351  1  0.336440  0.678010  0.820190  1.0
  N  N3352  1  0.163560  0.483750  0.841570  1.0
  N  N3353  1  0.679810  0.857820  0.016250  1.0
  N  N3354  1  0.658430  0.642180  0.821990  1.0
  N  N3355  1  0.820190  0.336440  0.678010  1.0
  N  N3356  1  0.841570  0.163560  0.483750  1.0
  N  N3357  1  0.016250  0.679810  0.857820  1.0
  N  N3358  1  0.821990  0.658430  0.642180  1.0
  N  N3359  1  0.678010  0.820190  0.336440  1.0
  N  N3360  1  0.483750  0.841570  0.163560  1.0
  N  N3361  1  0.313170  0.165870  0.488100  1.0
  N  N3362  1  0.186830  0.174930  0.352700  1.0
  N  N3363  1  0.822230  0.334130  0.147300  1.0
  N  N3364  1  0.677770  0.325070  0.011900  1.0
  N  N3365  1  0.165870  0.488100  0.313170  1.0
  N  N3366  1  0.174930  0.352700  0.186830  1.0
  N  N3367  1  0.334130  0.147300  0.822230  1.0
  N  N3368  1  0.325070  0.011900  0.677770  1.0
  N  N3369  1  0.488100  0.313170  0.165870  1.0
  N  N3370  1  0.352700  0.186830  0.174930  1.0
  N  N3371  1  0.147300  0.822230  0.334130  1.0
  N  N3372  1  0.011900  0.677770  0.325070  1.0
  N  N3373  1  0.813170  0.988100  0.665870  1.0
  N  N3374  1  0.686830  0.852700  0.674930  1.0
  N  N3375  1  0.322230  0.647300  0.834130  1.0
  N  N3376  1  0.177770  0.511900  0.825070  1.0
  N  N3377  1  0.665870  0.813170  0.988100  1.0
  N  N3378  1  0.674930  0.686830  0.852700  1.0
  N  N3379  1  0.834130  0.322230  0.647300  1.0
  N  N3380  1  0.825070  0.177770  0.511900  1.0
  N  N3381  1  0.988100  0.665870  0.813170  1.0
  N  N3382  1  0.852700  0.674930  0.686830  1.0
  N  N3383  1  0.647300  0.834130  0.322230  1.0
  N  N3384  1  0.511900  0.825070  0.177770  1.0
  N  N3385  1  0.216350  0.764740  0.303370  1.0
  N  N3386  1  0.283650  0.087020  0.048390  1.0
  N  N3387  1  0.038630  0.735260  0.451610  1.0
  N  N3388  1  0.461370  0.412980  0.196630  1.0
  N  N3389  1  0.764740  0.303370  0.216350  1.0
  N  N3390  1  0.087020  0.048390  0.283650  1.0
  N  N3391  1  0.735260  0.451610  0.038630  1.0
  N  N3392  1  0.412980  0.196630  0.461370  1.0
  N  N3393  1  0.303370  0.216350  0.764740  1.0
  N  N3394  1  0.048390  0.283650  0.087020  1.0
  N  N3395  1  0.451610  0.038630  0.735260  1.0
  N  N3396  1  0.196630  0.461370  0.412980  1.0
  N  N3397  1  0.716350  0.803370  0.264740  1.0
  N  N3398  1  0.783650  0.548390  0.587020  1.0
  N  N3399  1  0.538630  0.951610  0.235260  1.0
  N  N3400  1  0.961370  0.696630  0.912980  1.0
  N  N3401  1  0.264740  0.716350  0.803370  1.0
  N  N3402  1  0.587020  0.783650  0.548390  1.0
  N  N3403  1  0.235260  0.538630  0.951610  1.0
  N  N3404  1  0.912980  0.961370  0.696630  1.0
  N  N3405  1  0.803370  0.264740  0.716350  1.0
  N  N3406  1  0.548390  0.587020  0.783650  1.0
  N  N3407  1  0.951610  0.235260  0.538630  1.0
  N  N3408  1  0.696630  0.912980  0.961370  1.0
  N  N3409  1  0.216200  0.694700  0.315300  1.0
  N  N3410  1  0.283800  0.099100  0.978500  1.0
  N  N3411  1  0.120600  0.805300  0.521500  1.0
  N  N3412  1  0.379400  0.400900  0.184700  1.0
  N  N3413  1  0.694700  0.315300  0.216200  1.0
  N  N3414  1  0.099100  0.978500  0.283800  1.0
  N  N3415  1  0.805300  0.521500  0.120600  1.0
  N  N3416  1  0.400900  0.184700  0.379400  1.0
  N  N3417  1  0.315300  0.216200  0.694700  1.0
  N  N3418  1  0.978500  0.283800  0.099100  1.0
  N  N3419  1  0.521500  0.120600  0.805300  1.0
  N  N3420  1  0.184700  0.379400  0.400900  1.0
  N  N3421  1  0.716200  0.815300  0.194700  1.0
  N  N3422  1  0.783800  0.478500  0.599100  1.0
  N  N3423  1  0.620600  0.021500  0.305300  1.0
  N  N3424  1  0.879400  0.684700  0.900900  1.0
  N  N3425  1  0.194700  0.716200  0.815300  1.0
  N  N3426  1  0.599100  0.783800  0.478500  1.0
  N  N3427  1  0.305300  0.620600  0.021500  1.0
  N  N3428  1  0.900900  0.879400  0.684700  1.0
  N  N3429  1  0.815300  0.194700  0.716200  1.0
  N  N3430  1  0.478500  0.599100  0.783800  1.0
  N  N3431  1  0.021500  0.305300  0.620600  1.0
  N  N3432  1  0.684700  0.900900  0.879400  1.0
  N  N3433  1  0.277930  0.845560  0.356530  1.0
  N  N3434  1  0.222070  0.078600  0.067630  1.0
  N  N3435  1  0.010970  0.654440  0.432370  1.0
  N  N3436  1  0.489030  0.421400  0.143470  1.0
  N  N3437  1  0.845560  0.356530  0.277930  1.0
  N  N3438  1  0.078600  0.067630  0.222070  1.0
  N  N3439  1  0.654440  0.432370  0.010970  1.0
  N  N3440  1  0.421400  0.143470  0.489030  1.0
  N  N3441  1  0.356530  0.277930  0.845560  1.0
  N  N3442  1  0.067630  0.222070  0.078600  1.0
  N  N3443  1  0.432370  0.010970  0.654440  1.0
  N  N3444  1  0.143470  0.489030  0.421400  1.0
  N  N3445  1  0.777930  0.856530  0.345560  1.0
  N  N3446  1  0.722070  0.567630  0.578600  1.0
  N  N3447  1  0.510970  0.932370  0.154440  1.0
  N  N3448  1  0.989030  0.643470  0.921400  1.0
  N  N3449  1  0.345560  0.777930  0.856530  1.0
  N  N3450  1  0.578600  0.722070  0.567630  1.0
  N  N3451  1  0.154440  0.510970  0.932370  1.0
  N  N3452  1  0.921400  0.989030  0.643470  1.0
  N  N3453  1  0.856530  0.345560  0.777930  1.0
  N  N3454  1  0.567630  0.578600  0.722070  1.0
  N  N3455  1  0.932370  0.154440  0.510970  1.0
  N  N3456  1  0.643470  0.921400  0.989030  1.0
  N  N3457  1  0.314070  0.888080  0.390510  1.0
  N  N3458  1  0.185930  0.076440  0.074010  1.0
  N  N3459  1  0.002430  0.611920  0.425990  1.0
  N  N3460  1  0.497570  0.423560  0.109490  1.0
  N  N3461  1  0.888080  0.390510  0.314070  1.0
  N  N3462  1  0.076440  0.074010  0.185930  1.0
  N  N3463  1  0.611920  0.425990  0.002430  1.0
  N  N3464  1  0.423560  0.109490  0.497570  1.0
  N  N3465  1  0.390510  0.314070  0.888080  1.0
  N  N3466  1  0.074010  0.185930  0.076440  1.0
  N  N3467  1  0.425990  0.002430  0.611920  1.0
  N  N3468  1  0.109490  0.497570  0.423560  1.0
  N  N3469  1  0.814070  0.890510  0.388080  1.0
  N  N3470  1  0.685930  0.574010  0.576440  1.0
  N  N3471  1  0.502430  0.925990  0.111920  1.0
  N  N3472  1  0.997570  0.609490  0.923560  1.0
  N  N3473  1  0.388080  0.814070  0.890510  1.0
  N  N3474  1  0.576440  0.685930  0.574010  1.0
  N  N3475  1  0.111920  0.502430  0.925990  1.0
  N  N3476  1  0.923560  0.997570  0.609490  1.0
  N  N3477  1  0.890510  0.388080  0.814070  1.0
  N  N3478  1  0.574010  0.576440  0.685930  1.0
  N  N3479  1  0.925990  0.111920  0.502430  1.0
  N  N3480  1  0.609490  0.923560  0.997570  1.0
  O  O3481  1  0.471700  0.790000  0.315300  1
  O  O3482  1  0.028300  0.843600  0.818300  1
  O  O3483  1  0.025300  0.710000  0.681700  1
  O  O3484  1  0.474700  0.656400  0.184700  1
  O  O3485  1  0.790000  0.315300  0.471700  1
  O  O3486  1  0.843600  0.818300  0.028300  1
  O  O3487  1  0.710000  0.681700  0.025300  1
  O  O3488  1  0.656400  0.184700  0.474700  1
  O  O3489  1  0.315300  0.471700  0.790000  1
  O  O3490  1  0.818300  0.028300  0.843600  1
  O  O3491  1  0.681700  0.025300  0.710000  1
  O  O3492  1  0.184700  0.474700  0.656400  1
  O  O3493  1  0.971700  0.815300  0.290000  1
  O  O3494  1  0.528300  0.318300  0.343600  1
  O  O3495  1  0.525300  0.181700  0.210000  1
  O  O3496  1  0.974700  0.684700  0.156400  1
  O  O3497  1  0.290000  0.971700  0.815300  1
  O  O3498  1  0.343600  0.528300  0.318300  1
  O  O3499  1  0.210000  0.525300  0.181700  1
  O  O3500  1  0.156400  0.974700  0.684700  1
  O  O3501  1  0.815300  0.290000  0.971700  1
  O  O3502  1  0.318300  0.343600  0.528300  1
  O  O3503  1  0.181700  0.210000  0.525300  1
  O  O3504  1  0.684700  0.156400  0.974700  1
  O  O3505  1  0.423800  0.720000  0.290600  1
  O  O3506  1  0.076200  0.866800  0.796200  1
  O  O3507  1  0.070600  0.780000  0.703800  1
  O  O3508  1  0.429400  0.633200  0.209400  1
  O  O3509  1  0.720000  0.290600  0.423800  1
  O  O3510  1  0.866800  0.796200  0.076200  1
  O  O3511  1  0.780000  0.703800  0.070600  1
  O  O3512  1  0.633200  0.209400  0.429400  1
  O  O3513  1  0.290600  0.423800  0.720000  1
  O  O3514  1  0.796200  0.076200  0.866800  1
  O  O3515  1  0.703800  0.070600  0.780000  1
  O  O3516  1  0.209400  0.429400  0.633200  1
  O  O3517  1  0.923800  0.790600  0.220000  1
  O  O3518  1  0.576200  0.296200  0.366800  1
  O  O3519  1  0.570600  0.203800  0.280000  1
  O  O3520  1  0.929400  0.709400  0.133200  1
  O  O3521  1  0.220000  0.923800  0.790600  1
  O  O3522  1  0.366800  0.576200  0.296200  1
  O  O3523  1  0.280000  0.570600  0.203800  1
  O  O3524  1  0.133200  0.929400  0.709400  1
  O  O3525  1  0.790600  0.220000  0.923800  1
  O  O3526  1  0.296200  0.366800  0.576200  1
  O  O3527  1  0.203800  0.280000  0.570600  1
  O  O3528  1  0.709400  0.133200  0.929400  1
