
#######################################################################
#
#                 Cambridge Crystallographic Data Centre
#                                CCDC 
#
#######################################################################
#
# If this CIF has been generated from an entry in the Cambridge 
# Structural Database, then it will include bibliographic, chemical, 
# crystal, experimental, refinement or atomic coordinate data resulting 
# from the CCDC's data processing and validation procedures.
#
#######################################################################

data_XEHBAP
_chemical_formula_moiety         
'C156 H120 Co4 N48 8+,6(B1 F4 1-),F6 Si1 2-,4(C4 H8 O2),0.67(H2 O1)'
_chemical_name_systematic        
"hexakis(\m~2~-2,2'-(Naphthalene-1,8-diylbis(methanediyl-1H-pyrazole-1,3-diyl))dipyrazine)-tetra-cobalt hexakis(tetrafluoroborate) hexafluorosilicate ethyl acetate solvate hydrate"
_symmetry_cell_setting           rhombohedral
_symmetry_space_group_name_H-M   'R -3 c'
_symmetry_Int_Tables_number      167
_space_group_name_Hall           '-R 3 2"c'
loop_
_symmetry_equiv_pos_site_id
_symmetry_equiv_pos_as_xyz
1 x,y,z
2 -y,x-y,z
3 -x+y,-x,z
4 x-y,-y,1/2-z
5 -x,-x+y,1/2-z
6 y,x,1/2-z
7 2/3+x,1/3+y,1/3+z
8 2/3-y,1/3+x-y,1/3+z
9 2/3-x+y,1/3-x,1/3+z
10 2/3+x-y,1/3-y,5/6-z
11 2/3-x,1/3-x+y,5/6-z
12 2/3+y,1/3+x,5/6-z
13 1/3+x,2/3+y,2/3+z
14 1/3-y,2/3+x-y,2/3+z
15 1/3-x+y,2/3-x,2/3+z
16 1/3+x-y,2/3-y,1/6-z
17 1/3-x,2/3-x+y,1/6-z
18 1/3+y,2/3+x,1/6-z
19 -x,-y,-z
20 y,-x+y,-z
21 x-y,x,-z
22 -x+y,y,1/2+z
23 x,x-y,1/2+z
24 -y,-x,1/2+z
25 1/3-x,2/3-y,2/3-z
26 1/3+y,2/3-x+y,2/3-z
27 1/3+x-y,2/3+x,2/3-z
28 1/3-x+y,2/3+y,1/6+z
29 1/3+x,2/3+x-y,1/6+z
30 1/3-y,2/3-x,1/6+z
31 2/3-x,1/3-y,1/3-z
32 2/3+y,1/3-x+y,1/3-z
33 2/3+x-y,1/3+x,1/3-z
34 2/3-x+y,1/3+y,5/6+z
35 2/3+x,1/3+x-y,5/6+z
36 2/3-y,1/3-x,5/6+z
_cell_length_a                   36.0545(13)
_cell_length_b                   36.0545(13)
_cell_length_c                   75.704(3)
_cell_angle_alpha                90
_cell_angle_beta                 90
_cell_angle_gamma                120
_cell_volume                     85225.3
_exptl_crystal_colour            orange
_exptl_crystal_description       block
_cell_formula_units_Z            18
loop_
_atom_site_label
_atom_site_type_symbol
_atom_site_fract_x
_atom_site_fract_y
_atom_site_fract_z
Co1 Co -0.05354(6) 0.30036(4) 0.144513(16)
Co2 Co 0.22090(6) 0.48180(4) 0.097796(16)
N1 N -0.1099(4) 0.3061(3) 0.14328(10)
N2 N -0.1786(4) 0.3206(3) 0.13709(13)
N3 N -0.0314(4) 0.3599(2) 0.13103(9)
N4 N 0.0049(4) 0.3914(2) 0.12344(9)
N5 N 0.2017(3) 0.4267(2) 0.11369(9)
N6 N 0.1659(3) 0.3953(2) 0.12210(9)
N7 N 0.2775(3) 0.4766(2) 0.09893(10)
N8 N 0.3461(4) 0.4610(3) 0.10294(12)
N9 N -0.0850(4) 0.2389(2) 0.15714(10)
N10 N -0.1252(4) 0.1561(3) 0.17036(11)
N11 N -0.0796(3) 0.2572(2) 0.12276(9)
N12 N -0.0818(3) 0.2571(2) 0.10497(9)
N13 N -0.0285(4) 0.3367(2) 0.16802(9)
N14 N 0.0140(4) 0.3886(3) 0.19710(10)
N15 N 0.0056(3) 0.3004(2) 0.14827(9)
N16 N 0.0290(4) 0.2842(2) 0.14067(10)
N17 N 0.2310(3) 0.5155(2) 0.12237(10)
N18 N 0.2325(4) 0.5542(3) 0.15467(11)
N19 N 0.1649(3) 0.4879(2) 0.09975(9)
N20 N 0.1293(4) 0.4798(2) 0.09058(10)
N21 N 0.2457(4) 0.5357(2) 0.08051(10)
N22 N 0.2725(4) 0.6005(3) 0.05544(15)
N23 N 0.2101(3) 0.4531(2) 0.07226(10)
N24 N 0.1932(4) 0.4137(2) 0.06456(10)
C1 C -0.1048(4) 0.3409(3) 0.13375(12)
C2 C -0.1395(6) 0.3470(4) 0.13122(15)
H1 H -0.1349 0.3712 0.1250
C3 C -0.1822(6) 0.2871(4) 0.14634(16)
H2 H -0.2090 0.2678 0.1509
C4 C -0.1490(6) 0.2792(4) 0.14973(14)
H3 H -0.1536 0.2556 0.1564
C5 C -0.0033(4) 0.4201(3) 0.11503(12)
H4 H 0.0167 0.4446 0.1091
C6 C -0.0459(4) 0.4065(3) 0.11688(11)
H5 H -0.0608 0.4192 0.1124
C7 C -0.0620(4) 0.3694(3) 0.12704(11)
C8 C 0.0480(4) 0.3976(3) 0.12776(11)
H6 H 0.0669 0.4104 0.1178
H7 H 0.0455 0.3700 0.1301
C9 C 0.0671(4) 0.4264(3) 0.14391(11)
C10 C 0.0443(4) 0.4433(3) 0.15160(12)
H8 H 0.0178 0.4364 0.1469
C11 C 0.0594(4) 0.4706(3) 0.16642(12)
H9 H 0.0444 0.4834 0.1708
C12 C 0.0955(4) 0.4778(3) 0.17408(12)
H10 H 0.1050 0.4947 0.1842
C13 C 0.1198(4) 0.4607(3) 0.16727(11)
C14 C 0.1069(4) 0.4359(3) 0.15117(11)
C15 C 0.1573(4) 0.4687(3) 0.17644(13)
H11 H 0.1646 0.4841 0.1870
C16 C 0.1825(4) 0.4545(3) 0.17011(12)
H12 H 0.2067 0.4592 0.1763
C17 C 0.1720(4) 0.4322(3) 0.15403(12)
H13 H 0.1903 0.4232 0.1497
C18 C 0.1367(4) 0.4232(3) 0.14459(11)
C19 C 0.1723(4) 0.3641(3) 0.12826(12)
H14 H 0.1522 0.3396 0.1342
C20 C 0.2143(4) 0.3748(3) 0.12432(11)
H15 H 0.2280 0.3595 0.1271
C21 C 0.2312(4) 0.4143(3) 0.11518(11)
C22 C 0.1299(4) 0.4014(3) 0.12668(11)
H16 H 0.1037 0.3738 0.1270
H17 H 0.1266 0.4187 0.1177
C23 C 0.2731(4) 0.4420(3) 0.10798(11)
C24 C 0.3076(4) 0.4351(3) 0.10997(13)
H18 H 0.3037 0.4115 0.1165
C25 C 0.3499(6) 0.4940(4) 0.09341(15)
H19 H 0.3760 0.5123 0.0881
C26 C 0.3160(4) 0.5019(3) 0.09120(14)
H20 H 0.3199 0.5249 0.0843
C27 C -0.1018(4) 0.2053(3) 0.14627(12)
C28 C -0.1214(4) 0.1642(3) 0.15303(14)
H21 H -0.1325 0.1412 0.1452
C29 C -0.1085(5) 0.1893(3) 0.18086(14)
H22 H -0.1102 0.1849 0.1930
C30 C -0.0884(5) 0.2303(3) 0.17460(13)
H23 H -0.0767 0.2529 0.1826
C31 C -0.1013(4) 0.2171(3) 0.09872(13)
H24 H -0.1067 0.2096 0.0869
C32 C -0.1124(4) 0.1887(3) 0.11234(12)
H25 H -0.1258 0.1590 0.1119
C33 C -0.0984(4) 0.2158(3) 0.12744(12)
C34 C -0.0734(4) 0.2955(3) 0.09478(11)
H26 H -0.0623 0.2945 0.0832
H27 H -0.0517 0.3209 0.1008
C35 C -0.1133(4) 0.2986(3) 0.09265(11)
C36 C -0.1505(4) 0.2676(3) 0.10023(13)
H28 H -0.1501 0.2453 0.1062
C37 C -0.1892(6) 0.2678(4) 0.09945(16)
H29 H -0.2139 0.2458 0.1046
C38 C -0.1902(6) 0.2996(4) 0.09131(16)
H30 H -0.2159 0.2998 0.0908
C39 C -0.1534(4) 0.3333 0.0833
C40 C -0.1144(4) 0.3333 0.0833
C41 C 0.0109(4) 0.3450(3) 0.17250(12)
C42 C 0.0315(4) 0.3709(3) 0.18700(12)
H31 H 0.0590 0.3763 0.1899
C43 C -0.0250(5) 0.3804(3) 0.19254(13)
H32 H -0.0386 0.3919 0.1992
C44 C -0.0463(5) 0.3542(3) 0.17770(12)
H33 H -0.0734 0.3492 0.1747
C45 C 0.0659(4) 0.2972(3) 0.14994(13)
H34 H 0.0864 0.2894 0.1476
C46 C 0.0678(4) 0.3239(3) 0.16340(12)
H35 H 0.0895 0.3379 0.1717
C47 C 0.0298(4) 0.3253(3) 0.16187(12)
C48 C 0.0114(4) 0.2501(3) 0.12754(12)
H36 H 0.0342 0.2533 0.1198
H37 H -0.0098 0.2524 0.1205
C49 C 0.1983(4) 0.5213(3) 0.12746(12)
C50 C 0.1990(4) 0.5399(3) 0.14345(12)
H38 H 0.1756 0.5428 0.1466
C51 C 0.2648(5) 0.5486(3) 0.14920(12)
H39 H 0.2890 0.5582 0.1564
C52 C 0.2635(4) 0.5292(3) 0.13333(12)
H40 H 0.2865 0.5257 0.1303
C53 C 0.1059(4) 0.4932(3) 0.09951(12)
H41 H 0.0806 0.4914 0.0956
C54 C 0.1254(4) 0.5097(3) 0.11522(12)
H42 H 0.1160 0.5206 0.1242
C55 C 0.1621(4) 0.5067(3) 0.11492(12)
C56 C 0.1236(4) 0.4664(3) 0.07217(11)
H43 H 0.0935 0.4469 0.0700
H44 H 0.1389 0.4511 0.0700
C57 C 0.1399(4) 0.5045(3) 0.05949(12)
C58 C 0.1578(4) 0.5445(3) 0.06697(13)
H45 H 0.1592 0.5464 0.0793
C59 C 0.1738(4) 0.5820(3) 0.05748(13)
H46 H 0.1847 0.6083 0.0632
C60 C 0.1731(4) 0.5791(3) 0.03958(15)
H47 H 0.1842 0.6041 0.0329
C61 C 0.1557(4) 0.5385(3) 0.03062(12)
C62 C 0.1368(4) 0.5000(3) 0.04079(12)
C63 C 0.1575(4) 0.5384(3) 0.01178(14)
H48 H 0.1708 0.5642 0.0057
C64 C 0.1402(6) 0.5011(4) 0.00279(13)
H49 H 0.1421 0.5012 -0.0094
C65 C 0.1188(4) 0.4617(3) 0.01210(13)
H50 H 0.1053 0.4363 0.0058
C66 C -0.0090(4) 0.2067(3) 0.13609(12)
C67 C 0.2421(4) 0.5263(3) 0.06323(13)
C68 C 0.2567(6) 0.5593(4) 0.05080(15)
H51 H 0.2554 0.5525 0.0389
C69 C 0.2748(6) 0.6086(4) 0.07281(16)
H52 H 0.2855 0.6367 0.0766
C70 C 0.2617(4) 0.5768(3) 0.08521(14)
H53 H 0.2641 0.5839 0.0972
C71 C 0.1963(5) 0.4182(3) 0.04677(12)
H54 H 0.1878 0.3959 0.0387
C72 C 0.2134(5) 0.4592(3) 0.04260(13)
H55 H 0.2186 0.4712 0.0314
C73 C 0.2219(4) 0.4807(3) 0.05899(12)
C74 C 0.1847(4) 0.3764(3) 0.07448(12)
H56 H 0.1611 0.3513 0.0691
H57 H 0.1764 0.3789 0.0864
C75 C 0.2236(4) 0.3706(3) 0.07523(12)
C76 C 0.2605(5) 0.4014(4) 0.06785(13)
H58 H 0.2605 0.4248 0.0627
C77 C 0.2636(4) 0.3333 0.0833
C78 C 0.2233(4) 0.3333 0.0833
C79 C 0.2657(6) 0.2995(4) 0.09131(16)
H59 H 0.2916 0.2997 0.0913
C80 C 0.2983(6) 0.4002(4) 0.06760(16)
H60 H 0.3226 0.4219 0.0621
Co1O Co -0.02057(7) 0.36631(4) 0.022154(16)
Co2O Co 0.07243(7) 0.18487(4) 0.068871(16)
N1O N -0.0827(5) 0.3606(3) 0.02339(10)
N2O N -0.1659(5) 0.3461(3) 0.02958(13)
N3O N -0.0580(4) 0.3068(2) 0.03564(9)
N4O N -0.0532(4) 0.2753(2) 0.04323(9)
N5O N 0.1083(4) 0.2400(2) 0.05298(9)
N6O N 0.1039(4) 0.2714(2) 0.04457(9)
N7O N 0.1342(4) 0.1901(2) 0.06774(10)
N8O N 0.2184(5) 0.2057(3) 0.06373(12)
N9O N 0.0094(4) 0.4278(2) 0.00953(10)
N10O N 0.0520(5) 0.5106(3) -0.00369(11)
N11O N -0.0035(4) 0.4095(2) 0.04391(9)
N12O N -0.0056(4) 0.4096(2) 0.06170(9)
N13O N -0.0319(4) 0.3300(2) -0.00135(9)
N14O N -0.0413(5) 0.2781(3) -0.03043(10)
N15O N 0.0385(4) 0.3663(2) 0.01840(9)
N16O N 0.0781(4) 0.3825(2) 0.02600(10)
N17O N 0.0488(4) 0.1512(2) 0.04430(10)
N18O N 0.0116(5) 0.1125(3) 0.01200(11)
N19O N 0.0103(4) 0.1788(2) 0.06692(9)
N20O N -0.0172(4) 0.1869(2) 0.07609(10)
N21O N 0.0433(4) 0.1310(2) 0.08616(10)
N22O N 0.0053(5) 0.0662(3) 0.11123(15)
N23O N 0.0903(4) 0.2136(2) 0.09441(10)
N24O N 0.1128(4) 0.2530(2) 0.10211(10)
C1O C -0.1124(5) 0.3258(3) 0.03292(12)
C2O C -0.1532(7) 0.3197(4) 0.03545(15)
H1O H -0.1728 0.2955 0.0417
C3O C -0.1360(7) 0.3796(4) 0.02033(16)
H2O H -0.1435 0.3989 0.0158
C4O C -0.0949(7) 0.3875(4) 0.01694(14)
H3O H -0.0759 0.4111 0.0103
C5O C -0.0901(5) 0.2466(3) 0.05164(12)
H4O H -0.0946 0.2221 0.0576
C6O C -0.1191(5) 0.2602(3) 0.04979(11)
H5O H -0.1467 0.2475 0.0543
C7O C -0.0981(5) 0.2973(3) 0.03963(11)
C8O C -0.0163(5) 0.2691(3) 0.03891(11)
H6O H -0.0102 0.2563 0.0489
H7O H 0.0088 0.2967 0.0366
C9O C -0.0260(5) 0.2403(3) 0.02276(11)
C10O C -0.0657(5) 0.2234(3) 0.01507(12)
H8O H -0.0853 0.2303 0.0198
C11O C -0.0779(5) 0.1961(3) 0.00025(12)
H9O H -0.1057 0.1833 -0.0041
C12O C -0.0490(5) 0.1889(3) -0.00741(12)
H10O H -0.0564 0.1720 -0.0175
C13O C -0.0076(5) 0.2060(3) -0.00060(11)
C14O C 0.0043(5) 0.2308(3) 0.01550(11)
C15O C 0.0219(5) 0.1980(3) -0.00977(13)
H11O H 0.0138 0.1826 -0.0203
C16O C 0.0613(5) 0.2122(3) -0.00344(12)
H12O H 0.0808 0.2075 -0.0096
C17O C 0.0731(5) 0.2345(3) 0.01264(12)
H13O H 0.1004 0.2435 0.0170
C18O C 0.0468(5) 0.2435(3) 0.02208(11)
C19O C 0.1415(5) 0.3026(3) 0.03841(12)
H14O H 0.1459 0.3271 0.0325
C20O C 0.1728(5) 0.2919(3) 0.04235(11)
H15O H 0.2018 0.3072 0.0396
C21O C 0.1502(5) 0.2524(3) 0.05149(11)
C22O C 0.0618(5) 0.2653(3) 0.03999(11)
H16O H 0.0632 0.2929 0.0397
H17O H 0.0412 0.2480 0.0490
C23O C 0.1644(5) 0.2247(3) 0.05869(11)
C24O C 0.2058(5) 0.2316(3) 0.05670(13)
H18O H 0.2255 0.2552 0.0502
C25O C 0.1892(7) 0.1727(4) 0.07326(15)
H19O H 0.1970 0.1544 0.0786
C26O C 0.1474(5) 0.1648(3) 0.07547(14)
H20O H 0.1283 0.1418 0.0824
C27O C 0.0262(5) 0.4614(3) 0.02040(12)
C28O C 0.0477(5) 0.5025(3) 0.01364(14)
H21O H 0.0596 0.5255 0.0215
C29O C 0.0355(6) 0.4774(3) -0.01419(14)
H22O H 0.0382 0.4818 -0.0263
C30O C 0.0146(6) 0.4364(3) -0.00793(13)
H23O H 0.0037 0.4138 -0.0159
C31O C 0.0149(5) 0.4496(3) 0.06795(13)
H24O H 0.0170 0.4571 0.0798
C32O C 0.0322(5) 0.4780(3) 0.05433(12)
H25O H 0.0485 0.5077 0.0548
C33O C 0.0191(5) 0.4509(3) 0.03923(12)
C34O C -0.0356(5) 0.3712(3) 0.07189(11)
H26O H -0.0235 0.3722 0.0835
H27O H -0.0393 0.3458 0.0659
C35O C -0.0786(5) 0.3681(3) 0.07402(11)
C36O C -0.0848(5) 0.3991(3) 0.06644(13)
H28O H -0.0621 0.4214 0.0605
C37O C -0.1237(7) 0.3989(4) 0.06722(16)
H29O H -0.1264 0.4209 0.0621
C38O C -0.1565(7) 0.3671(4) 0.07536(16)
H30O H -0.1824 0.3669 0.0759
C41O C -0.0008(5) 0.3217(3) -0.00583(12)
C42O C -0.0061(5) 0.2958(3) -0.02033(12)
H31O H 0.0160 0.2904 -0.0232
C43O C -0.0721(6) 0.2863(3) -0.02587(13)
H32O H -0.0972 0.2748 -0.0325
C44O C -0.0672(6) 0.3125(3) -0.01103(12)
H33O H -0.0893 0.3175 -0.0080
C45O C 0.1020(5) 0.3695(3) 0.01673(13)
H34O H 0.1303 0.3773 0.0191
C46O C 0.0772(5) 0.3428(3) 0.00327(12)
H35O H 0.0849 0.3288 -0.0050
C47O C 0.0378(5) 0.3414(3) 0.00480(12)
C48O C 0.0946(5) 0.4166(3) 0.03913(12)
H36O H 0.1142 0.4134 0.0469
H37O H 0.0711 0.4143 0.0462
C49O C 0.0103(5) 0.1454(3) 0.03921(12)
C50O C -0.0076(5) 0.1268(3) 0.02322(12)
H38O H -0.0339 0.1239 0.0201
C51O C 0.0495(6) 0.1181(3) 0.01747(12)
H39O H 0.0641 0.1085 0.0103
C52O C 0.0676(5) 0.1375(3) 0.03334(12)
H40O H 0.0941 0.1410 0.0364
C53O C -0.0540(5) 0.1735(3) 0.06716(12)
H41O H -0.0775 0.1753 0.0711
C54O C -0.0510(5) 0.1570(3) 0.05145(12)
H42O H -0.0713 0.1461 0.0425
C55O C -0.0113(5) 0.1600(3) 0.05175(12)
C56O C -0.0095(5) 0.2003(3) 0.09450(11)
H43O H -0.0201 0.2198 0.0967
H44O H 0.0211 0.2156 0.0967
C57O C -0.0313(5) 0.1622(3) 0.10718(12)
C58O C -0.0534(5) 0.1222(3) 0.09970(13)
H45O H -0.0539 0.1203 0.0874
C59O C -0.0749(5) 0.0847(3) 0.10919(13)
H46O H -0.0903 0.0584 0.1035
C60O C -0.0727(5) 0.0876(3) 0.12709(15)
H47O H -0.0866 0.0626 0.1338
C61O C -0.0495(5) 0.1282(3) 0.13605(12)
C62O C -0.0299(5) 0.1667(3) 0.12588(12)
C63O C -0.0476(5) 0.1283(3) 0.15489(14)
H48O H -0.0601 0.1025 0.1610
C64O C -0.0276(7) 0.1656(4) 0.16388(13)
H49O H -0.0258 0.1655 0.1761
C65O C -0.0096(5) 0.2050(3) 0.15457(13)
H50O H 0.0023 0.2304 0.1609
C66O C 0.1176(5) 0.4600(3) 0.03058(12)
C67O C 0.0491(5) 0.1404(3) 0.10344(13)
C68O C 0.0307(7) 0.1074(4) 0.11587(15)
H51O H 0.0362 0.1142 0.1278
C69O C -0.0005(7) 0.0581(4) 0.09386(16)
H52O H -0.0179 0.0300 0.0901
C70O C 0.0182(5) 0.0899(3) 0.08146(14)
H53O H 0.0135 0.0828 0.0695
C71O C 0.1114(6) 0.2485(3) 0.11990(12)
H54O H 0.1252 0.2708 0.1280
C72O C 0.0875(6) 0.2075(3) 0.12407(13)
H55O H 0.0807 0.1955 0.1353
C73O C 0.0745(5) 0.1860(3) 0.10768(12)
C74O C 0.1416(5) 0.2903(3) 0.09219(12)
H56O H 0.1431 0.3154 0.0976
H57O H 0.1308 0.2878 0.0803
C75O C 0.1863(5) 0.2961(3) 0.09144(12)
C76O C 0.1924(6) 0.2653(4) 0.09882(13)
H58O H 0.1690 0.2419 0.1040
C79O C 0.2995(7) 0.3672(4) 0.07536(16)
H59O H 0.3252 0.3670 0.0754
C80O C 0.2314(7) 0.2665(4) 0.09907(16)
H60O H 0.2340 0.2448 0.1046
B1 B 0.20735(14) 0.38878(13) -0.00004(5)
F1 F 0.2429(2) 0.4004(2) -0.00968(8)
F2 F 0.20034(19) 0.42268(15) 0.00304(7)
F3 F 0.2095(2) 0.3712(2) 0.01594(7)
F4 F 0.1724(2) 0.35629(19) -0.00879(11)
B2 B 0.2668(10) 0.2023(6) 0.1268(2)
F5 F 0.2536(3) 0.1923(3) 0.14441(11)
F6 F 0.2327(7) 0.1868(4) 0.1165(2)
F7 F 0.2888(3) 0.2447(3) 0.12466(10)
F8 F 0.2911(9) 0.1867(5) 0.12344(16)
Si1 Si 0.05436(10) 0.3333 0.0833
F9 F 0.1013(4) 0.3721(2) 0.08743(12)
F10 F 0.04709(24) 0.3728(2) 0.08767(11)
F12 F 0.0711(4) 0.3224(3) 0.10291(7)
F9O F 0.0625(4) 0.2946(2) 0.07924(12)
F10O F 0.00762(31) 0.2939(2) 0.07900(11)
F12O F 0.0820(5) 0.3443(3) 0.06376(7)
B3 B -0.07295(13) 0.03798(12) 0.05323(5)
F13 F -0.08431(19) -0.00237(13) 0.05987(8)
F14 F -0.03461(15) 0.05221(19) 0.04536(8)
F15 F -0.10464(19) 0.0326(2) 0.04063(8)
F16 F -0.0724(2) 0.06184(17) 0.06625(7)
C81 C -0.2761(6) 0.1554(5) 0.0346(2)
H61 H -0.3000 0.1594 0.0315
H62 H -0.2653 0.1494 0.0238
O1 O -0.3366(4) 0.0750(4) 0.02787(16)
O2 O -0.2895(3) 0.1208(4) 0.04680(13)
C82 C -0.3209(5) 0.0818(6) 0.0418(2)
C83 C -0.3317(5) 0.0483(5) 0.0561(2)
H63 H -0.3543 0.0211 0.0520
H64 H -0.3409 0.0565 0.0665
H65 H -0.3068 0.0461 0.0587
C84 C -0.2410(6) 0.1952(6) 0.0436(3)
H66 H -0.2314 0.2193 0.0358
H67 H -0.2175 0.1909 0.0464
H68 H -0.2521 0.2005 0.0542
O3 O 0.3009(3) 0.1490(2) 0.06636(10)
O4 O 0.3199(3) 0.2186(3) 0.06618(13)
C85 C 0.3059(4) 0.1794(4) 0.05882(16)
C86 C 0.2965(5) 0.1813(6) 0.03954(18)
H69 H 0.2866 0.1537 0.0343
H70 H 0.3221 0.2022 0.0337
H71 H 0.2748 0.1891 0.0384
C87 C 0.3264(6) 0.2220(5) 0.08568(18)
H72 H 0.3048 0.1959 0.0913
H73 H 0.3233 0.2456 0.0901
C88 C 0.3701(6) 0.2295(5) 0.0901(3)
H74 H 0.3740 0.2316 0.1027
H75 H 0.3914 0.2556 0.0847
H76 H 0.3730 0.2060 0.0858
O5 O 0.0000 0.0000 0.0591(4)
loop_
_geom_bond_atom_site_label_1
_geom_bond_atom_site_label_2
_geom_bond_site_symmetry_1
_geom_bond_site_symmetry_2
Co1 N1 1_555 1_555
Co2 N5 1_555 1_555
N1 C1 1_555 1_555
N2 C2 1_555 1_555
N3 Co1 1_555 1_555
N4 N3 1_555 1_555
N5 N6 1_555 1_555
N6 C19 1_555 1_555
N7 Co2 1_555 1_555
N8 C24 1_555 1_555
N9 Co1 1_555 1_555
N10 C28 1_555 1_555
N11 Co1 1_555 1_555
N12 N11 1_555 1_555
N13 Co1 1_555 1_555
N14 C42 1_555 1_555
N15 Co1 1_555 1_555
N16 N15 1_555 1_555
N17 Co2 1_555 1_555
N18 C50 1_555 1_555
N19 Co2 1_555 1_555
N20 N19 1_555 1_555
N21 Co2 1_555 1_555
N22 C68 1_555 1_555
N23 Co2 1_555 1_555
N24 N23 1_555 1_555
C1 C2 1_555 1_555
C2 H1 1_555 1_555
C3 N2 1_555 1_555
H2 C3 1_555 1_555
C4 N1 1_555 1_555
H3 C4 1_555 1_555
C5 N4 1_555 1_555
H4 C5 1_555 1_555
C6 C5 1_555 1_555
H5 C6 1_555 1_555
C7 N3 1_555 1_555
C8 N4 1_555 1_555
H6 C8 1_555 1_555
H7 C8 1_555 1_555
C9 C8 1_555 1_555
C10 C9 1_555 1_555
H8 C10 1_555 1_555
C11 C10 1_555 1_555
H9 C11 1_555 1_555
C12 C11 1_555 1_555
H10 C12 1_555 1_555
C13 C12 1_555 1_555
C14 C9 1_555 1_555
C15 C13 1_555 1_555
H11 C15 1_555 1_555
C16 C15 1_555 1_555
H12 C16 1_555 1_555
C17 C16 1_555 1_555
H13 C17 1_555 1_555
C18 C14 1_555 1_555
C19 H14 1_555 1_555
C20 C19 1_555 1_555
H15 C20 1_555 1_555
C21 N5 1_555 1_555
C22 N6 1_555 1_555
H16 C22 1_555 1_555
H17 C22 1_555 1_555
C23 N7 1_555 1_555
C24 C23 1_555 1_555
H18 C24 1_555 1_555
C25 N8 1_555 1_555
H19 C25 1_555 1_555
C26 N7 1_555 1_555
H20 C26 1_555 1_555
C27 N9 1_555 1_555
C28 C27 1_555 1_555
H21 C28 1_555 1_555
C29 N10 1_555 1_555
H22 C29 1_555 1_555
C30 N9 1_555 1_555
H23 C30 1_555 1_555
C31 N12 1_555 1_555
H24 C31 1_555 1_555
C32 C31 1_555 1_555
H25 C32 1_555 1_555
C33 N11 1_555 1_555
C34 N12 1_555 1_555
H26 C34 1_555 1_555
H27 C34 1_555 1_555
C35 C34 1_555 1_555
C36 C35 1_555 1_555
H28 C36 1_555 1_555
C37 C36 1_555 1_555
H29 C37 1_555 1_555
C38 C37 1_555 1_555
H30 C38 1_555 1_555
C39 C38 1_555 1_555
C40 C35 1_555 1_555
C41 N13 1_555 1_555
C42 C41 1_555 1_555
H31 C42 1_555 1_555
C43 N14 1_555 1_555
H32 C43 1_555 1_555
C44 N13 1_555 1_555
H33 C44 1_555 1_555
C45 N16 1_555 1_555
H34 C45 1_555 1_555
C46 C45 1_555 1_555
H35 C46 1_555 1_555
C47 N15 1_555 1_555
C48 N16 1_555 1_555
H36 C48 1_555 1_555
H37 C48 1_555 1_555
C49 N17 1_555 1_555
C50 C49 1_555 1_555
H38 C50 1_555 1_555
C51 N18 1_555 1_555
H39 C51 1_555 1_555
C52 N17 1_555 1_555
H40 C52 1_555 1_555
C53 N20 1_555 1_555
H41 C53 1_555 1_555
C54 C53 1_555 1_555
H42 C54 1_555 1_555
C55 N19 1_555 1_555
C56 N20 1_555 1_555
H43 C56 1_555 1_555
H44 C56 1_555 1_555
C57 C56 1_555 1_555
C58 C57 1_555 1_555
H45 C58 1_555 1_555
C59 C58 1_555 1_555
H46 C59 1_555 1_555
C60 C59 1_555 1_555
H47 C60 1_555 1_555
C61 C60 1_555 1_555
C62 C57 1_555 1_555
C63 C61 1_555 1_555
H48 C63 1_555 1_555
C64 C63 1_555 1_555
H49 C64 1_555 1_555
C65 C64 1_555 1_555
H50 C65 1_555 1_555
C66 C48 1_555 1_555
C67 N21 1_555 1_555
C68 C67 1_555 1_555
H51 C68 1_555 1_555
C69 N22 1_555 1_555
H52 C69 1_555 1_555
C70 N21 1_555 1_555
H53 C70 1_555 1_555
C71 N24 1_555 1_555
H54 C71 1_555 1_555
C72 C71 1_555 1_555
H55 C72 1_555 1_555
C73 N23 1_555 1_555
C74 N24 1_555 1_555
H56 C74 1_555 1_555
H57 C74 1_555 1_555
C75 C74 1_555 1_555
C76 C75 1_555 1_555
H58 C76 1_555 1_555
C77 C78 1_555 1_555
C78 C75 1_555 1_555
C79 C77 1_555 1_555
H59 C79 1_555 1_555
C80 C76 1_555 1_555
H60 C80 1_555 1_555
B1 F1 1_555 1_555
F2 B1 1_555 1_555
F3 B1 1_555 1_555
F4 B1 1_555 1_555
B2 F5 1_555 1_555
F6 B2 1_555 1_555
F7 B2 1_555 1_555
F8 B2 1_555 1_555
Si1 F9 1_555 1_555
F10 Si1 1_555 1_555
F12 Si1 1_555 1_555
B3 F13 1_555 1_555
F14 B3 1_555 1_555
F15 B3 1_555 1_555
F16 B3 1_555 1_555
C81 H61 1_555 1_555
H62 C81 1_555 1_555
O1 C82 1_555 1_555
O2 C81 1_555 1_555
C82 O2 1_555 1_555
C83 C82 1_555 1_555
H63 C83 1_555 1_555
H64 C83 1_555 1_555
H65 C83 1_555 1_555
C84 C81 1_555 1_555
H66 C84 1_555 1_555
H67 C84 1_555 1_555
H68 C84 1_555 1_555
O3 C85 1_555 1_555
O4 C85 1_555 1_555
C85 C86 1_555 1_555
C86 H69 1_555 1_555
H70 C86 1_555 1_555
H71 C86 1_555 1_555
C87 O4 1_555 1_555
H72 C87 1_555 1_555
H73 C87 1_555 1_555
C88 C87 1_555 1_555
H74 C88 1_555 1_555
H75 C88 1_555 1_555
H76 C88 1_555 1_555
Co1O N1O 1_555 1_555
Co2O N5O 1_555 1_555
N1O C1O 1_555 1_555
N2O C2O 1_555 1_555
N3O Co1O 1_555 1_555
N4O N3O 1_555 1_555
N5O N6O 1_555 1_555
N6O C19O 1_555 1_555
N7O Co2O 1_555 1_555
N8O C24O 1_555 1_555
N9O Co1O 1_555 1_555
N10O C28O 1_555 1_555
N11O Co1O 1_555 1_555
N12O N11O 1_555 1_555
N13O Co1O 1_555 1_555
N14O C42O 1_555 1_555
N15O Co1O 1_555 1_555
N16O N15O 1_555 1_555
N17O Co2O 1_555 1_555
N18O C50O 1_555 1_555
N19O Co2O 1_555 1_555
N20O N19O 1_555 1_555
N21O Co2O 1_555 1_555
N22O C68O 1_555 1_555
N23O Co2O 1_555 1_555
N24O N23O 1_555 1_555
C1O C2O 1_555 1_555
C2O H1O 1_555 1_555
C3O N2O 1_555 1_555
H2O C3O 1_555 1_555
C4O N1O 1_555 1_555
H3O C4O 1_555 1_555
C5O N4O 1_555 1_555
H4O C5O 1_555 1_555
C6O C5O 1_555 1_555
H5O C6O 1_555 1_555
C7O N3O 1_555 1_555
C8O N4O 1_555 1_555
H6O C8O 1_555 1_555
H7O C8O 1_555 1_555
C9O C8O 1_555 1_555
C10O C9O 1_555 1_555
H8O C10O 1_555 1_555
C11O C10O 1_555 1_555
H9O C11O 1_555 1_555
C12O C11O 1_555 1_555
H10O C12O 1_555 1_555
C13O C12O 1_555 1_555
C14O C9O 1_555 1_555
C15O C13O 1_555 1_555
H11O C15O 1_555 1_555
C16O C15O 1_555 1_555
H12O C16O 1_555 1_555
C17O C16O 1_555 1_555
H13O C17O 1_555 1_555
C18O C14O 1_555 1_555
C19O H14O 1_555 1_555
C20O C19O 1_555 1_555
H15O C20O 1_555 1_555
C21O N5O 1_555 1_555
C22O N6O 1_555 1_555
H16O C22O 1_555 1_555
H17O C22O 1_555 1_555
C23O N7O 1_555 1_555
C24O C23O 1_555 1_555
H18O C24O 1_555 1_555
C25O N8O 1_555 1_555
H19O C25O 1_555 1_555
C26O N7O 1_555 1_555
H20O C26O 1_555 1_555
C27O N9O 1_555 1_555
C28O C27O 1_555 1_555
H21O C28O 1_555 1_555
C29O N10O 1_555 1_555
H22O C29O 1_555 1_555
C30O N9O 1_555 1_555
H23O C30O 1_555 1_555
C31O N12O 1_555 1_555
H24O C31O 1_555 1_555
C32O C31O 1_555 1_555
H25O C32O 1_555 1_555
C33O N11O 1_555 1_555
C34O N12O 1_555 1_555
H26O C34O 1_555 1_555
H27O C34O 1_555 1_555
C35O C40 1_555 1_555
C36O C35O 1_555 1_555
H28O C36O 1_555 1_555
C37O C36O 1_555 1_555
H29O C37O 1_555 1_555
C38O C39 1_555 1_555
H30O C38O 1_555 1_555
C41O N13O 1_555 1_555
C42O C41O 1_555 1_555
H31O C42O 1_555 1_555
C43O N14O 1_555 1_555
H32O C43O 1_555 1_555
C44O N13O 1_555 1_555
H33O C44O 1_555 1_555
C45O N16O 1_555 1_555
H34O C45O 1_555 1_555
C46O C45O 1_555 1_555
H35O C46O 1_555 1_555
C47O N15O 1_555 1_555
C48O N16O 1_555 1_555
H36O C48O 1_555 1_555
H37O C48O 1_555 1_555
C49O N17O 1_555 1_555
C50O C49O 1_555 1_555
H38O C50O 1_555 1_555
C51O N18O 1_555 1_555
H39O C51O 1_555 1_555
C52O N17O 1_555 1_555
H40O C52O 1_555 1_555
C53O N20O 1_555 1_555
H41O C53O 1_555 1_555
C54O C53O 1_555 1_555
H42O C54O 1_555 1_555
C55O N19O 1_555 1_555
C56O N20O 1_555 1_555
H43O C56O 1_555 1_555
H44O C56O 1_555 1_555
C57O C56O 1_555 1_555
C58O C57O 1_555 1_555
H45O C58O 1_555 1_555
C59O C58O 1_555 1_555
H46O C59O 1_555 1_555
C60O C59O 1_555 1_555
H47O C60O 1_555 1_555
C61O C60O 1_555 1_555
C62O C66 1_555 1_555
C63O C61O 1_555 1_555
H48O C63O 1_555 1_555
C64O C63O 1_555 1_555
H49O C64O 1_555 1_555
C65O C66 1_555 1_555
H50O C65O 1_555 1_555
C66O C62 1_555 1_555
C67O N21O 1_555 1_555
C68O C67O 1_555 1_555
H51O C68O 1_555 1_555
C69O N22O 1_555 1_555
H52O C69O 1_555 1_555
C70O N21O 1_555 1_555
H53O C70O 1_555 1_555
C71O N24O 1_555 1_555
H54O C71O 1_555 1_555
C72O C71O 1_555 1_555
H55O C72O 1_555 1_555
C73O N23O 1_555 1_555
C74O N24O 1_555 1_555
H56O C74O 1_555 1_555
H57O C74O 1_555 1_555
C75O C78 1_555 1_555
C76O C75O 1_555 1_555
H58O C76O 1_555 1_555
C79O C77 1_555 1_555
H59O C79O 1_555 1_555
C80O C79 1_555 1_555
H60O C80O 1_555 1_555
F9O Si1 1_555 1_555
F10O Si1 1_555 1_555
F12O Si1 1_555 1_555
C1 C7 1_555 1_555
C3 C4 1_555 1_555
C6 C7 1_555 1_555
C13 C14 1_555 1_555
C17 C18 1_555 1_555
C18 C22 1_555 1_555
C20 C21 1_555 1_555
C21 C23 1_555 1_555
C25 C26 1_555 1_555
C27 C33 1_555 1_555
C29 C30 1_555 1_555
C32 C33 1_555 1_555
C39 C40 1_555 1_555
C41 C47 1_555 1_555
C43 C44 1_555 1_555
C46 C47 1_555 1_555
C49 C55 1_555 1_555
C51 C52 1_555 1_555
C54 C55 1_555 1_555
C61 C62 1_555 1_555
C65 C66O 1_555 1_555
C67 C73 1_555 1_555
C69 C70 1_555 1_555
C72 C73 1_555 1_555
C80 C79O 1_555 1_555
C1O C7O 1_555 1_555
C3O C4O 1_555 1_555
C6O C7O 1_555 1_555
C13O C14O 1_555 1_555
C17O C18O 1_555 1_555
C18O C22O 1_555 1_555
C20O C21O 1_555 1_555
C21O C23O 1_555 1_555
C25O C26O 1_555 1_555
C27O C33O 1_555 1_555
C29O C30O 1_555 1_555
C32O C33O 1_555 1_555
C34O C35O 1_555 1_555
C37O C38O 1_555 1_555
C41O C47O 1_555 1_555
C43O C44O 1_555 1_555
C46O C47O 1_555 1_555
C48O C66O 1_555 1_555
C49O C55O 1_555 1_555
C51O C52O 1_555 1_555
C54O C55O 1_555 1_555
C57O C62O 1_555 1_555
C61O C62O 1_555 1_555
C64O C65O 1_555 1_555
C67O C73O 1_555 1_555
C69O C70O 1_555 1_555
C72O C73O 1_555 1_555
C74O C75O 1_555 1_555
C76O C80O 1_555 1_555

#END
