# generated using pymatgen
data_Co12Si3B18H456C516N144(O7F24)4
_symmetry_space_group_name_H-M   'P 1'
_cell_length_a   32.71234311
_cell_length_b   32.71234311
_cell_length_c   32.71234311
_cell_angle_alpha   66.88282810
_cell_angle_beta   66.88282810
_cell_angle_gamma   66.88282810
_symmetry_Int_Tables_number   1
_chemical_formula_structural   Co12Si3B18H456C516N144(O7F24)4
_chemical_formula_sum   'Co24 Si6 B36 H912 C1032 N288 O56 F192'
_cell_volume   28408.42512407
_cell_formula_units_Z   2
loop_
 _symmetry_equiv_pos_site_id
 _symmetry_equiv_pos_as_xyz
  1  'x, y, z'
loop_
 _atom_site_type_symbol
 _atom_site_label
 _atom_site_symmetry_multiplicity
 _atom_site_fract_x
 _atom_site_fract_y
 _atom_site_fract_z
 _atom_site_occupancy
  B  B1  1  0.207310  0.181390  0.611180  1
  B  B2  1  0.611180  0.207310  0.181390  1
  B  B3  1  0.181390  0.611180  0.207310  1
  B  B4  1  0.318610  0.292690  0.888820  1
  B  B5  1  0.292690  0.888820  0.318610  1
  B  B6  1  0.888820  0.318610  0.292690  1
  B  B7  1  0.792690  0.818610  0.388820  1
  B  B8  1  0.388820  0.792690  0.818610  1
  B  B9  1  0.818610  0.388820  0.792690  1
  B  B10  1  0.681390  0.707310  0.111180  1
  B  B11  1  0.707310  0.111180  0.681390  1
  B  B12  1  0.111180  0.681390  0.707310  1
  B  B13  1  0.393600  0.062300  0.924500  1
  B  B14  1  0.924500  0.393600  0.062300  1
  B  B15  1  0.062300  0.924500  0.393600  1
  B  B16  1  0.437700  0.106400  0.575500  1
  B  B17  1  0.106400  0.575500  0.437700  1
  B  B18  1  0.575500  0.437700  0.106400  1
  B  B19  1  0.606400  0.937700  0.075500  1
  B  B20  1  0.075500  0.606400  0.937700  1
  B  B21  1  0.937700  0.075500  0.606400  1
  B  B22  1  0.562300  0.893600  0.424500  1
  B  B23  1  0.893600  0.424500  0.562300  1
  B  B24  1  0.424500  0.562300  0.893600  1
  B  B25  1  0.980280  0.164160  0.015250  1
  B  B26  1  0.015250  0.980280  0.164160  1
  B  B27  1  0.164160  0.015250  0.980280  1
  B  B28  1  0.335840  0.519720  0.484750  1
  B  B29  1  0.519720  0.484750  0.335840  1
  B  B30  1  0.484750  0.335840  0.519720  1
  B  B31  1  0.019720  0.835840  0.984750  1
  B  B32  1  0.984750  0.019720  0.835840  1
  B  B33  1  0.835840  0.984750  0.019720  1
  B  B34  1  0.664160  0.480280  0.515250  1
  B  B35  1  0.480280  0.515250  0.664160  1
  B  B36  1  0.515250  0.664160  0.480280  1
  C  C37  1  0.929944  0.570078  0.750011  1
  C  C38  1  0.750011  0.929944  0.570078  1
  C  C39  1  0.570078  0.750011  0.929944  1
  C  C40  1  0.070056  0.429922  0.249989  1
  C  C41  1  0.249989  0.070056  0.429922  1
  C  C42  1  0.429922  0.249989  0.070056  1
  C  C43  1  0.968944  0.531078  0.750011  1
  C  C44  1  0.750011  0.968944  0.531078  1
  C  C45  1  0.531078  0.750011  0.968944  1
  C  C46  1  0.031056  0.468922  0.249989  1
  C  C47  1  0.249989  0.031056  0.468922  1
  C  C48  1  0.468922  0.249989  0.031056  1
  C  C49  1  0.346944  0.153078  0.750011  1
  C  C50  1  0.750011  0.346944  0.153078  1
  C  C51  1  0.153078  0.750011  0.346944  1
  C  C52  1  0.653056  0.846922  0.249989  1
  C  C53  1  0.249989  0.653056  0.846922  1
  C  C54  1  0.846922  0.249989  0.653056  1
  C  C55  1  0.306644  0.193378  0.750011  1
  C  C56  1  0.750011  0.306644  0.193378  1
  C  C57  1  0.193378  0.750011  0.306644  1
  C  C58  1  0.693356  0.806622  0.249989  1
  C  C59  1  0.249989  0.693356  0.806622  1
  C  C60  1  0.806622  0.249989  0.693356  1
  C  C61  1  0.758500  0.466100  0.879200  1
  C  C62  1  0.879200  0.758500  0.466100  1
  C  C63  1  0.466100  0.879200  0.758500  1
  C  C64  1  0.033900  0.741500  0.620800  1
  C  C65  1  0.741500  0.620800  0.033900  1
  C  C66  1  0.620800  0.033900  0.741500  1
  C  C67  1  0.241500  0.533900  0.120800  1
  C  C68  1  0.120800  0.241500  0.533900  1
  C  C69  1  0.533900  0.120800  0.241500  1
  C  C70  1  0.966100  0.258500  0.379200  1
  C  C71  1  0.258500  0.379200  0.966100  1
  C  C72  1  0.379200  0.966100  0.258500  1
  C  C73  1  0.720900  0.444500  0.960000  1
  C  C74  1  0.960000  0.720900  0.444500  1
  C  C75  1  0.444500  0.960000  0.720900  1
  C  C76  1  0.055500  0.779100  0.540000  1
  C  C77  1  0.779100  0.540000  0.055500  1
  C  C78  1  0.540000  0.055500  0.779100  1
  C  C79  1  0.279100  0.555500  0.040000  1
  C  C80  1  0.040000  0.279100  0.555500  1
  C  C81  1  0.555500  0.040000  0.279100  1
  C  C82  1  0.944500  0.220900  0.460000  1
  C  C83  1  0.220900  0.460000  0.944500  1
  C  C84  1  0.460000  0.944500  0.220900  1
  C  C85  1  0.724400  0.436100  0.007800  1
  C  C86  1  0.007800  0.724400  0.436100  1
  C  C87  1  0.436100  0.007800  0.724400  1
  C  C88  1  0.063900  0.775600  0.492200  1
  C  C89  1  0.775600  0.492200  0.063900  1
  C  C90  1  0.492200  0.063900  0.775600  1
  C  C91  1  0.275600  0.563900  0.992200  1
  C  C92  1  0.992200  0.275600  0.563900  1
  C  C93  1  0.563900  0.992200  0.275600  1
  C  C94  1  0.936100  0.224400  0.507800  1
  C  C95  1  0.224400  0.507800  0.936100  1
  C  C96  1  0.507800  0.936100  0.224400  1
  C  C97  1  0.802600  0.479800  0.848400  1
  C  C98  1  0.848400  0.802600  0.479800  1
  C  C99  1  0.479800  0.848400  0.802600  1
  C  C100  1  0.020200  0.697400  0.651600  1
  C  C101  1  0.697400  0.651600  0.020200  1
  C  C102  1  0.651600  0.020200  0.697400  1
  C  C103  1  0.197400  0.520200  0.151600  1
  C  C104  1  0.151600  0.197400  0.520200  1
  C  C105  1  0.520200  0.151600  0.197400  1
  C  C106  1  0.979800  0.302600  0.348400  1
  C  C107  1  0.302600  0.348400  0.979800  1
  C  C108  1  0.348400  0.979800  0.302600  1
  C  C109  1  0.364720  0.932320  0.879420  1
  C  C110  1  0.879420  0.364720  0.932320  1
  C  C111  1  0.932320  0.879420  0.364720  1
  C  C112  1  0.567680  0.135280  0.620580  1
  C  C113  1  0.135280  0.620580  0.567680  1
  C  C114  1  0.620580  0.567680  0.135280  1
  C  C115  1  0.635280  0.067680  0.120580  1
  C  C116  1  0.120580  0.635280  0.067680  1
  C  C117  1  0.067680  0.120580  0.635280  1
  C  C118  1  0.432320  0.864720  0.379420  1
  C  C119  1  0.864720  0.379420  0.432320  1
  C  C120  1  0.379420  0.432320  0.864720  1
  C  C121  1  0.336040  0.924340  0.858240  1
  C  C122  1  0.858240  0.336040  0.924340  1
  C  C123  1  0.924340  0.858240  0.336040  1
  C  C124  1  0.575660  0.163960  0.641760  1
  C  C125  1  0.163960  0.641760  0.575660  1
  C  C126  1  0.641760  0.575660  0.163960  1
  C  C127  1  0.663960  0.075660  0.141760  1
  C  C128  1  0.141760  0.663960  0.075660  1
  C  C129  1  0.075660  0.141760  0.663960  1
  C  C130  1  0.424340  0.836040  0.358240  1
  C  C131  1  0.836040  0.358240  0.424340  1
  C  C132  1  0.358240  0.424340  0.836040  1
  C  C133  1  0.412080  0.981280  0.863680  1
  C  C134  1  0.863680  0.412080  0.981280  1
  C  C135  1  0.981280  0.863680  0.412080  1
  C  C136  1  0.518720  0.087920  0.636320  1
  C  C137  1  0.087920  0.636320  0.518720  1
  C  C138  1  0.636320  0.518720  0.087920  1
  C  C139  1  0.587920  0.018720  0.136320  1
  C  C140  1  0.136320  0.587920  0.018720  1
  C  C141  1  0.018720  0.136320  0.587920  1
  C  C142  1  0.481280  0.912080  0.363680  1
  C  C143  1  0.912080  0.363680  0.481280  1
  C  C144  1  0.363680  0.481280  0.912080  1
  C  C145  1  0.460200  0.949500  0.860600  1
  C  C146  1  0.860600  0.460200  0.949500  1
  C  C147  1  0.949500  0.860600  0.460200  1
  C  C148  1  0.550500  0.039800  0.639400  1
  C  C149  1  0.039800  0.639400  0.550500  1
  C  C150  1  0.639400  0.550500  0.039800  1
  C  C151  1  0.539800  0.050500  0.139400  1
  C  C152  1  0.139400  0.539800  0.050500  1
  C  C153  1  0.050500  0.139400  0.539800  1
  C  C154  1  0.449500  0.960200  0.360600  1
  C  C155  1  0.960200  0.360600  0.449500  1
  C  C156  1  0.360600  0.449500  0.960200  1
  C  C157  1  0.028950  0.579450  0.792850  1.0
  C  C158  1  0.792850  0.028950  0.579450  1.0
  C  C159  1  0.579450  0.792850  0.028950  1.0
  C  C160  1  0.920550  0.471050  0.707150  1.0
  C  C161  1  0.471050  0.707150  0.920550  1.0
  C  C162  1  0.707150  0.920550  0.471050  1.0
  C  C163  1  0.971050  0.420550  0.207150  1.0
  C  C164  1  0.207150  0.971050  0.420550  1.0
  C  C165  1  0.420550  0.207150  0.971050  1.0
  C  C166  1  0.079450  0.528950  0.292850  1.0
  C  C167  1  0.528950  0.292850  0.079450  1.0
  C  C168  1  0.292850  0.079450  0.528950  1.0
  C  C169  1  0.991720  0.617720  0.784220  1.0
  C  C170  1  0.784220  0.991720  0.617720  1.0
  C  C171  1  0.617720  0.784220  0.991720  1.0
  C  C172  1  0.882280  0.508280  0.715780  1.0
  C  C173  1  0.508280  0.715780  0.882280  1.0
  C  C174  1  0.715780  0.882280  0.508280  1.0
  C  C175  1  0.008280  0.382280  0.215780  1.0
  C  C176  1  0.215780  0.008280  0.382280  1.0
  C  C177  1  0.382280  0.215780  0.008280  1.0
  C  C178  1  0.117720  0.491720  0.284220  1.0
  C  C179  1  0.491720  0.284220  0.117720  1.0
  C  C180  1  0.284220  0.117720  0.491720  1.0
  C  C181  1  0.964140  0.615640  0.859240  1.0
  C  C182  1  0.859240  0.964140  0.615640  1.0
  C  C183  1  0.615640  0.859240  0.964140  1.0
  C  C184  1  0.884360  0.535860  0.640760  1.0
  C  C185  1  0.535860  0.640760  0.884360  1.0
  C  C186  1  0.640760  0.884360  0.535860  1.0
  C  C187  1  0.035860  0.384360  0.140760  1.0
  C  C188  1  0.140760  0.035860  0.384360  1.0
  C  C189  1  0.384360  0.140760  0.035860  1.0
  C  C190  1  0.115640  0.464140  0.359240  1.0
  C  C191  1  0.464140  0.359240  0.115640  1.0
  C  C192  1  0.359240  0.115640  0.464140  1.0
  C  C193  1  0.000730  0.577930  0.870530  1.0
  C  C194  1  0.870530  0.000730  0.577930  1.0
  C  C195  1  0.577930  0.870530  0.000730  1.0
  C  C196  1  0.922070  0.499270  0.629470  1.0
  C  C197  1  0.499270  0.629470  0.922070  1.0
  C  C198  1  0.629470  0.922070  0.499270  1.0
  C  C199  1  0.999270  0.422070  0.129470  1.0
  C  C200  1  0.129470  0.999270  0.422070  1.0
  C  C201  1  0.422070  0.129470  0.999270  1.0
  C  C202  1  0.077930  0.500730  0.370530  1.0
  C  C203  1  0.500730  0.370530  0.077930  1.0
  C  C204  1  0.370530  0.077930  0.500730  1.0
  C  C205  1  0.111730  0.538430  0.694930  1.0
  C  C206  1  0.694930  0.111730  0.538430  1.0
  C  C207  1  0.538430  0.694930  0.111730  1.0
  C  C208  1  0.961570  0.388270  0.805070  1.0
  C  C209  1  0.388270  0.805070  0.961570  1.0
  C  C210  1  0.805070  0.961570  0.388270  1.0
  C  C211  1  0.888270  0.461570  0.305070  1.0
  C  C212  1  0.305070  0.888270  0.461570  1.0
  C  C213  1  0.461570  0.305070  0.888270  1.0
  C  C214  1  0.038430  0.611730  0.194930  1.0
  C  C215  1  0.611730  0.194930  0.038430  1.0
  C  C216  1  0.194930  0.038430  0.611730  1.0
  C  C217  1  0.070980  0.569280  0.710380  1.0
  C  C218  1  0.710380  0.070980  0.569280  1.0
  C  C219  1  0.569280  0.710380  0.070980  1.0
  C  C220  1  0.930720  0.429020  0.789620  1.0
  C  C221  1  0.429020  0.789620  0.930720  1.0
  C  C222  1  0.789620  0.930720  0.429020  1.0
  C  C223  1  0.929020  0.430720  0.289620  1.0
  C  C224  1  0.289620  0.929020  0.430720  1.0
  C  C225  1  0.430720  0.289620  0.929020  1.0
  C  C226  1  0.069280  0.570980  0.210380  1.0
  C  C227  1  0.570980  0.210380  0.069280  1.0
  C  C228  1  0.210380  0.069280  0.570980  1.0
  C  C229  1  0.065040  0.558440  0.757640  1.0
  C  C230  1  0.757640  0.065040  0.558440  1.0
  C  C231  1  0.558440  0.757640  0.065040  1.0
  C  C232  1  0.941560  0.434960  0.742360  1.0
  C  C233  1  0.434960  0.742360  0.941560  1.0
  C  C234  1  0.742360  0.941560  0.434960  1.0
  C  C235  1  0.934960  0.441560  0.242360  1.0
  C  C236  1  0.242360  0.934960  0.441560  1.0
  C  C237  1  0.441560  0.242360  0.934960  1.0
  C  C238  1  0.058440  0.565040  0.257640  1.0
  C  C239  1  0.565040  0.257640  0.058440  1.0
  C  C240  1  0.257640  0.058440  0.565040  1.0
  C  C241  1  0.175760  0.477360  0.730160  1.0
  C  C242  1  0.730160  0.175760  0.477360  1.0
  C  C243  1  0.477360  0.730160  0.175760  1.0
  C  C244  1  0.022640  0.324240  0.769840  1.0
  C  C245  1  0.324240  0.769840  0.022640  1.0
  C  C246  1  0.769840  0.022640  0.324240  1.0
  C  C247  1  0.824240  0.522640  0.269840  1.0
  C  C248  1  0.269840  0.824240  0.522640  1.0
  C  C249  1  0.522640  0.269840  0.824240  1.0
  C  C250  1  0.977360  0.675760  0.230160  1.0
  C  C251  1  0.675760  0.230160  0.977360  1.0
  C  C252  1  0.230160  0.977360  0.675760  1.0
  C  C253  1  0.211010  0.503210  0.717510  1.0
  C  C254  1  0.717510  0.211010  0.503210  1.0
  C  C255  1  0.503210  0.717510  0.211010  1.0
  C  C256  1  0.996790  0.288990  0.782490  1.0
  C  C257  1  0.288990  0.782490  0.996790  1.0
  C  C258  1  0.782490  0.996790  0.288990  1.0
  C  C259  1  0.788990  0.496790  0.282490  1.0
  C  C260  1  0.282490  0.788990  0.496790  1.0
  C  C261  1  0.496790  0.282490  0.788990  1.0
  C  C262  1  0.003210  0.711010  0.217510  1.0
  C  C263  1  0.711010  0.217510  0.003210  1.0
  C  C264  1  0.217510  0.003210  0.711010  1.0
  C  C265  1  0.195900  0.550600  0.708300  1.0
  C  C266  1  0.708300  0.195900  0.550600  1.0
  C  C267  1  0.550600  0.708300  0.195900  1.0
  C  C268  1  0.949400  0.304100  0.791700  1.0
  C  C269  1  0.304100  0.791700  0.949400  1.0
  C  C270  1  0.791700  0.949400  0.304100  1.0
  C  C271  1  0.804100  0.449400  0.291700  1.0
  C  C272  1  0.291700  0.804100  0.449400  1.0
  C  C273  1  0.449400  0.291700  0.804100  1.0
  C  C274  1  0.050600  0.695900  0.208300  1.0
  C  C275  1  0.695900  0.208300  0.050600  1.0
  C  C276  1  0.208300  0.050600  0.695900  1.0
  C  C277  1  0.225820  0.577620  0.695820  1.0
  C  C278  1  0.695820  0.225820  0.577620  1.0
  C  C279  1  0.577620  0.695820  0.225820  1.0
  C  C280  1  0.922380  0.274180  0.804180  1.0
  C  C281  1  0.274180  0.804180  0.922380  1.0
  C  C282  1  0.804180  0.922380  0.274180  1.0
  C  C283  1  0.774180  0.422380  0.304180  1.0
  C  C284  1  0.304180  0.774180  0.422380  1.0
  C  C285  1  0.422380  0.304180  0.774180  1.0
  C  C286  1  0.077620  0.725820  0.195820  1.0
  C  C287  1  0.725820  0.195820  0.077620  1.0
  C  C288  1  0.195820  0.077620  0.725820  1.0
  C  C289  1  0.269580  0.556380  0.696280  1.0
  C  C290  1  0.696280  0.269580  0.556380  1.0
  C  C291  1  0.556380  0.696280  0.269580  1.0
  C  C292  1  0.943620  0.230420  0.803720  1.0
  C  C293  1  0.230420  0.803720  0.943620  1.0
  C  C294  1  0.803720  0.943620  0.230420  1.0
  C  C295  1  0.730420  0.443620  0.303720  1.0
  C  C296  1  0.303720  0.730420  0.443620  1.0
  C  C297  1  0.443620  0.303720  0.730420  1.0
  C  C298  1  0.056380  0.769580  0.196280  1.0
  C  C299  1  0.769580  0.196280  0.056380  1.0
  C  C300  1  0.196280  0.056380  0.769580  1.0
  C  C301  1  0.287070  0.508170  0.706570  1.0
  C  C302  1  0.706570  0.287070  0.508170  1.0
  C  C303  1  0.508170  0.706570  0.287070  1.0
  C  C304  1  0.991830  0.212930  0.793430  1.0
  C  C305  1  0.212930  0.793430  0.991830  1.0
  C  C306  1  0.793430  0.991830  0.212930  1.0
  C  C307  1  0.712930  0.491830  0.293430  1.0
  C  C308  1  0.293430  0.712930  0.491830  1.0
  C  C309  1  0.491830  0.293430  0.712930  1.0
  C  C310  1  0.008170  0.787070  0.206570  1.0
  C  C311  1  0.787070  0.206570  0.008170  1.0
  C  C312  1  0.206570  0.008170  0.787070  1.0
  C  C313  1  0.258070  0.480170  0.715270  1.0
  C  C314  1  0.715270  0.258070  0.480170  1.0
  C  C315  1  0.480170  0.715270  0.258070  1.0
  C  C316  1  0.019830  0.241930  0.784730  1.0
  C  C317  1  0.241930  0.784730  0.019830  1.0
  C  C318  1  0.784730  0.019830  0.241930  1.0
  C  C319  1  0.741930  0.519830  0.284730  1.0
  C  C320  1  0.284730  0.741930  0.519830  1.0
  C  C321  1  0.519830  0.284730  0.741930  1.0
  C  C322  1  0.980170  0.758070  0.215270  1.0
  C  C323  1  0.758070  0.215270  0.980170  1.0
  C  C324  1  0.215270  0.980170  0.758070  1.0
  C  C325  1  0.333740  0.487840  0.707740  1.0
  C  C326  1  0.707740  0.333740  0.487840  1.0
  C  C327  1  0.487840  0.707740  0.333740  1.0
  C  C328  1  0.012160  0.166260  0.792260  1.0
  C  C329  1  0.166260  0.792260  0.012160  1.0
  C  C330  1  0.792260  0.012160  0.166260  1.0
  C  C331  1  0.666260  0.512160  0.292260  1.0
  C  C332  1  0.292260  0.666260  0.512160  1.0
  C  C333  1  0.512160  0.292260  0.666260  1.0
  C  C334  1  0.987840  0.833740  0.207740  1.0
  C  C335  1  0.833740  0.207740  0.987840  1.0
  C  C336  1  0.207740  0.987840  0.833740  1.0
  C  C337  1  0.352610  0.442110  0.715610  1.0
  C  C338  1  0.715610  0.352610  0.442110  1.0
  C  C339  1  0.442110  0.715610  0.352610  1.0
  C  C340  1  0.057890  0.147390  0.784390  1.0
  C  C341  1  0.147390  0.784390  0.057890  1.0
  C  C342  1  0.784390  0.057890  0.147390  1.0
  C  C343  1  0.647390  0.557890  0.284390  1.0
  C  C344  1  0.284390  0.647390  0.557890  1.0
  C  C345  1  0.557890  0.284390  0.647390  1.0
  C  C346  1  0.942110  0.852610  0.215610  1.0
  C  C347  1  0.852610  0.215610  0.942110  1.0
  C  C348  1  0.215610  0.942110  0.852610  1.0
  C  C349  1  0.326030  0.414230  0.721830  1.0
  C  C350  1  0.721830  0.326030  0.414230  1.0
  C  C351  1  0.414230  0.721830  0.326030  1.0
  C  C352  1  0.085770  0.173970  0.778170  1.0
  C  C353  1  0.173970  0.778170  0.085770  1.0
  C  C354  1  0.778170  0.085770  0.173970  1.0
  C  C355  1  0.673970  0.585770  0.278170  1.0
  C  C356  1  0.278170  0.673970  0.585770  1.0
  C  C357  1  0.585770  0.278170  0.673970  1.0
  C  C358  1  0.914230  0.826030  0.221830  1.0
  C  C359  1  0.826030  0.221830  0.914230  1.0
  C  C360  1  0.221830  0.914230  0.826030  1.0
  C  C361  1  0.281290  0.431090  0.721390  1.0
  C  C362  1  0.721390  0.281290  0.431090  1.0
  C  C363  1  0.431090  0.721390  0.281290  1.0
  C  C364  1  0.068910  0.218710  0.778610  1.0
  C  C365  1  0.218710  0.778610  0.068910  1.0
  C  C366  1  0.778610  0.068910  0.218710  1.0
  C  C367  1  0.718710  0.568910  0.278610  1.0
  C  C368  1  0.278610  0.718710  0.568910  1.0
  C  C369  1  0.568910  0.278610  0.718710  1.0
  C  C370  1  0.931090  0.781290  0.221390  1.0
  C  C371  1  0.781290  0.221390  0.931090  1.0
  C  C372  1  0.221390  0.931090  0.781290  1.0
  C  C373  1  0.300560  0.320060  0.764160  1.0
  C  C374  1  0.764160  0.300560  0.320060  1.0
  C  C375  1  0.320060  0.764160  0.300560  1.0
  C  C376  1  0.179940  0.199440  0.735840  1.0
  C  C377  1  0.199440  0.735840  0.179940  1.0
  C  C378  1  0.735840  0.179940  0.199440  1.0
  C  C379  1  0.699440  0.679940  0.235840  1.0
  C  C380  1  0.235840  0.699440  0.679940  1.0
  C  C381  1  0.679940  0.235840  0.699440  1.0
  C  C382  1  0.820060  0.800560  0.264160  1.0
  C  C383  1  0.800560  0.264160  0.820060  1.0
  C  C384  1  0.264160  0.820060  0.800560  1.0
  C  C385  1  0.338620  0.284820  0.749520  1.0
  C  C386  1  0.749520  0.338620  0.284820  1.0
  C  C387  1  0.284820  0.749520  0.338620  1.0
  C  C388  1  0.215180  0.161380  0.750480  1.0
  C  C389  1  0.161380  0.750480  0.215180  1.0
  C  C390  1  0.750480  0.215180  0.161380  1.0
  C  C391  1  0.661380  0.715180  0.250480  1.0
  C  C392  1  0.250480  0.661380  0.715180  1.0
  C  C393  1  0.715180  0.250480  0.661380  1.0
  C  C394  1  0.784820  0.838620  0.249520  1.0
  C  C395  1  0.838620  0.249520  0.784820  1.0
  C  C396  1  0.249520  0.784820  0.838620  1.0
  C  C397  1  0.346380  0.298280  0.700880  1.0
  C  C398  1  0.700880  0.346380  0.298280  1.0
  C  C399  1  0.298280  0.700880  0.346380  1.0
  C  C400  1  0.201720  0.153620  0.799120  1.0
  C  C401  1  0.153620  0.799120  0.201720  1.0
  C  C402  1  0.799120  0.201720  0.153620  1.0
  C  C403  1  0.653620  0.701720  0.299120  1.0
  C  C404  1  0.299120  0.653620  0.701720  1.0
  C  C405  1  0.701720  0.299120  0.653620  1.0
  C  C406  1  0.798280  0.846380  0.200880  1.0
  C  C407  1  0.846380  0.200880  0.798280  1.0
  C  C408  1  0.200880  0.798280  0.846380  1.0
  C  C409  1  0.256580  0.398180  0.725280  1.0
  C  C410  1  0.725280  0.256580  0.398180  1.0
  C  C411  1  0.398180  0.725280  0.256580  1.0
  C  C412  1  0.101820  0.243420  0.774720  1.0
  C  C413  1  0.243420  0.774720  0.101820  1.0
  C  C414  1  0.774720  0.101820  0.243420  1.0
  C  C415  1  0.743420  0.601820  0.274720  1.0
  C  C416  1  0.274720  0.743420  0.601820  1.0
  C  C417  1  0.601820  0.274720  0.743420  1.0
  C  C418  1  0.898180  0.756580  0.225280  1.0
  C  C419  1  0.756580  0.225280  0.898180  1.0
  C  C420  1  0.225280  0.898180  0.756580  1.0
  C  C421  1  0.381080  0.276880  0.665980  1.0
  C  C422  1  0.665980  0.381080  0.276880  1.0
  C  C423  1  0.276880  0.665980  0.381080  1.0
  C  C424  1  0.223120  0.118920  0.834020  1.0
  C  C425  1  0.118920  0.834020  0.223120  1.0
  C  C426  1  0.834020  0.223120  0.118920  1.0
  C  C427  1  0.618920  0.723120  0.334020  1.0
  C  C428  1  0.334020  0.618920  0.723120  1.0
  C  C429  1  0.723120  0.334020  0.618920  1.0
  C  C430  1  0.776880  0.881080  0.165980  1.0
  C  C431  1  0.881080  0.165980  0.776880  1.0
  C  C432  1  0.165980  0.776880  0.881080  1.0
  C  C433  1  0.417570  0.237470  0.674870  1.0
  C  C434  1  0.674870  0.417570  0.237470  1.0
  C  C435  1  0.237470  0.674870  0.417570  1.0
  C  C436  1  0.262530  0.082430  0.825130  1.0
  C  C437  1  0.082430  0.825130  0.262530  1.0
  C  C438  1  0.825130  0.262530  0.082430  1.0
  C  C439  1  0.582430  0.762530  0.325130  1.0
  C  C440  1  0.325130  0.582430  0.762530  1.0
  C  C441  1  0.762530  0.325130  0.582430  1.0
  C  C442  1  0.737470  0.917570  0.174870  1.0
  C  C443  1  0.917570  0.174870  0.737470  1.0
  C  C444  1  0.174870  0.737470  0.917570  1.0
  C  C445  1  0.443310  0.237510  0.599410  1.0
  C  C446  1  0.599410  0.443310  0.237510  1.0
  C  C447  1  0.237510  0.599410  0.443310  1.0
  C  C448  1  0.262490  0.056690  0.900590  1.0
  C  C449  1  0.056690  0.900590  0.262490  1.0
  C  C450  1  0.900590  0.262490  0.056690  1.0
  C  C451  1  0.556690  0.762490  0.400590  1.0
  C  C452  1  0.400590  0.556690  0.762490  1.0
  C  C453  1  0.762490  0.400590  0.556690  1.0
  C  C454  1  0.737510  0.943310  0.099410  1.0
  C  C455  1  0.943310  0.099410  0.737510  1.0
  C  C456  1  0.099410  0.737510  0.943310  1.0
  C  C457  1  0.407200  0.277100  0.589300  1.0
  C  C458  1  0.589300  0.407200  0.277100  1.0
  C  C459  1  0.277100  0.589300  0.407200  1.0
  C  C460  1  0.222900  0.092800  0.910700  1.0
  C  C461  1  0.092800  0.910700  0.222900  1.0
  C  C462  1  0.910700  0.222900  0.092800  1.0
  C  C463  1  0.592800  0.722900  0.410700  1.0
  C  C464  1  0.410700  0.592800  0.722900  1.0
  C  C465  1  0.722900  0.410700  0.592800  1.0
  C  C466  1  0.777100  0.907200  0.089300  1.0
  C  C467  1  0.907200  0.089300  0.777100  1.0
  C  C468  1  0.089300  0.777100  0.907200  1.0
  C  C469  1  0.044470  0.453370  0.940970  1.0
  C  C470  1  0.940970  0.044470  0.453370  1.0
  C  C471  1  0.453370  0.940970  0.044470  1.0
  C  C472  1  0.046630  0.455530  0.559030  1.0
  C  C473  1  0.455530  0.559030  0.046630  1.0
  C  C474  1  0.559030  0.046630  0.455530  1.0
  C  C475  1  0.955530  0.546630  0.059030  1.0
  C  C476  1  0.059030  0.955530  0.546630  1.0
  C  C477  1  0.546630  0.059030  0.955530  1.0
  C  C478  1  0.953370  0.544470  0.440970  1.0
  C  C479  1  0.544470  0.440970  0.953370  1.0
  C  C480  1  0.440970  0.953370  0.544470  1.0
  C  C481  1  0.031630  0.438630  0.988830  1.0
  C  C482  1  0.988830  0.031630  0.438630  1.0
  C  C483  1  0.438630  0.988830  0.031630  1.0
  C  C484  1  0.061370  0.468370  0.511170  1.0
  C  C485  1  0.468370  0.511170  0.061370  1.0
  C  C486  1  0.511170  0.061370  0.468370  1.0
  C  C487  1  0.968370  0.561370  0.011170  1.0
  C  C488  1  0.011170  0.968370  0.561370  1.0
  C  C489  1  0.561370  0.011170  0.968370  1.0
  C  C490  1  0.938630  0.531630  0.488830  1.0
  C  C491  1  0.531630  0.488830  0.938630  1.0
  C  C492  1  0.488830  0.938630  0.531630  1.0
  C  C493  1  0.072360  0.478660  0.991560  1.0
  C  C494  1  0.991560  0.072360  0.478660  1.0
  C  C495  1  0.478660  0.991560  0.072360  1.0
  C  C496  1  0.021340  0.427640  0.508440  1.0
  C  C497  1  0.427640  0.508440  0.021340  1.0
  C  C498  1  0.508440  0.021340  0.427640  1.0
  C  C499  1  0.927640  0.521340  0.008440  1.0
  C  C500  1  0.008440  0.927640  0.521340  1.0
  C  C501  1  0.521340  0.008440  0.927640  1.0
  C  C502  1  0.978660  0.572360  0.491560  1.0
  C  C503  1  0.572360  0.491560  0.978660  1.0
  C  C504  1  0.491560  0.978660  0.572360  1.0
  C  C505  1  0.086200  0.493300  0.944300  1.0
  C  C506  1  0.944300  0.086200  0.493300  1.0
  C  C507  1  0.493300  0.944300  0.086200  1.0
  C  C508  1  0.006700  0.413800  0.555700  1.0
  C  C509  1  0.413800  0.555700  0.006700  1.0
  C  C510  1  0.555700  0.006700  0.413800  1.0
  C  C511  1  0.913800  0.506700  0.055700  1.0
  C  C512  1  0.055700  0.913800  0.506700  1.0
  C  C513  1  0.506700  0.055700  0.913800  1.0
  C  C514  1  0.993300  0.586200  0.444300  1.0
  C  C515  1  0.586200  0.444300  0.993300  1.0
  C  C516  1  0.444300  0.993300  0.586200  1.0
  C  C517  1  0.997420  0.417120  0.881620  1.0
  C  C518  1  0.881620  0.997420  0.417120  1.0
  C  C519  1  0.417120  0.881620  0.997420  1.0
  C  C520  1  0.082880  0.502580  0.618380  1.0
  C  C521  1  0.502580  0.618380  0.082880  1.0
  C  C522  1  0.618380  0.082880  0.502580  1.0
  C  C523  1  0.002580  0.582880  0.118380  1.0
  C  C524  1  0.118380  0.002580  0.582880  1.0
  C  C525  1  0.582880  0.118380  0.002580  1.0
  C  C526  1  0.917120  0.497420  0.381620  1.0
  C  C527  1  0.497420  0.381620  0.917120  1.0
  C  C528  1  0.381620  0.917120  0.497420  1.0
  C  C529  1  0.999940  0.413440  0.923640  1.0
  C  C530  1  0.923640  0.999940  0.413440  1.0
  C  C531  1  0.413440  0.923640  0.999940  1.0
  C  C532  1  0.086560  0.500060  0.576360  1.0
  C  C533  1  0.500060  0.576360  0.086560  1.0
  C  C534  1  0.576360  0.086560  0.500060  1.0
  C  C535  1  0.000060  0.586560  0.076360  1.0
  C  C536  1  0.076360  0.000060  0.586560  1.0
  C  C537  1  0.586560  0.076360  0.000060  1.0
  C  C538  1  0.913440  0.499940  0.423640  1.0
  C  C539  1  0.499940  0.423640  0.913440  1.0
  C  C540  1  0.423640  0.913440  0.499940  1.0
  C  C541  1  0.029040  0.441640  0.911640  1.0
  C  C542  1  0.911640  0.029040  0.441640  1.0
  C  C543  1  0.441640  0.911640  0.029040  1.0
  C  C544  1  0.058360  0.470960  0.588360  1.0
  C  C545  1  0.470960  0.588360  0.058360  1.0
  C  C546  1  0.588360  0.058360  0.470960  1.0
  C  C547  1  0.970960  0.558360  0.088360  1.0
  C  C548  1  0.088360  0.970960  0.558360  1.0
  C  C549  1  0.558360  0.088360  0.970960  1.0
  C  C550  1  0.941640  0.529040  0.411640  1.0
  C  C551  1  0.529040  0.411640  0.941640  1.0
  C  C552  1  0.411640  0.941640  0.529040  1.0
  C  C553  1  0.021380  0.463680  0.799280  1.0
  C  C554  1  0.799280  0.021380  0.463680  1.0
  C  C555  1  0.463680  0.799280  0.021380  1.0
  C  C556  1  0.036320  0.478620  0.700720  1.0
  C  C557  1  0.478620  0.700720  0.036320  1.0
  C  C558  1  0.700720  0.036320  0.478620  1.0
  C  C559  1  0.978620  0.536320  0.200720  1.0
  C  C560  1  0.200720  0.978620  0.536320  1.0
  C  C561  1  0.536320  0.200720  0.978620  1.0
  C  C562  1  0.963680  0.521380  0.299280  1.0
  C  C563  1  0.521380  0.299280  0.963680  1.0
  C  C564  1  0.299280  0.963680  0.521380  1.0
  C  C565  1  0.979350  0.504550  0.794050  1.0
  C  C566  1  0.794050  0.979350  0.504550  1.0
  C  C567  1  0.504550  0.794050  0.979350  1.0
  C  C568  1  0.995450  0.520650  0.705950  1.0
  C  C569  1  0.520650  0.705950  0.995450  1.0
  C  C570  1  0.705950  0.995450  0.520650  1.0
  C  C571  1  0.020650  0.495450  0.205950  1.0
  C  C572  1  0.205950  0.020650  0.495450  1.0
  C  C573  1  0.495450  0.205950  0.020650  1.0
  C  C574  1  0.004550  0.479350  0.294050  1.0
  C  C575  1  0.479350  0.294050  0.004550  1.0
  C  C576  1  0.294050  0.004550  0.479350  1.0
  C  C577  1  0.949730  0.518330  0.832630  1.0
  C  C578  1  0.832630  0.949730  0.518330  1.0
  C  C579  1  0.518330  0.832630  0.949730  1.0
  C  C580  1  0.981670  0.550270  0.667370  1.0
  C  C581  1  0.550270  0.667370  0.981670  1.0
  C  C582  1  0.667370  0.981670  0.550270  1.0
  C  C583  1  0.050270  0.481670  0.167370  1.0
  C  C584  1  0.167370  0.050270  0.481670  1.0
  C  C585  1  0.481670  0.167370  0.050270  1.0
  C  C586  1  0.018330  0.449730  0.332630  1.0
  C  C587  1  0.449730  0.332630  0.018330  1.0
  C  C588  1  0.332630  0.018330  0.449730  1.0
  C  C589  1  0.910250  0.556450  0.831650  1.0
  C  C590  1  0.831650  0.910250  0.556450  1.0
  C  C591  1  0.556450  0.831650  0.910250  1.0
  C  C592  1  0.943550  0.589750  0.668350  1.0
  C  C593  1  0.589750  0.668350  0.943550  1.0
  C  C594  1  0.668350  0.943550  0.589750  1.0
  C  C595  1  0.089750  0.443550  0.168350  1.0
  C  C596  1  0.168350  0.089750  0.443550  1.0
  C  C597  1  0.443550  0.168350  0.089750  1.0
  C  C598  1  0.056450  0.410250  0.331650  1.0
  C  C599  1  0.410250  0.331650  0.056450  1.0
  C  C600  1  0.331650  0.056450  0.410250  1.0
  C  C601  1  0.901110  0.581110  0.791710  1.0
  C  C602  1  0.791710  0.901110  0.581110  1.0
  C  C603  1  0.581110  0.791710  0.901110  1.0
  C  C604  1  0.918890  0.598890  0.708290  1.0
  C  C605  1  0.598890  0.708290  0.918890  1.0
  C  C606  1  0.708290  0.918890  0.598890  1.0
  C  C607  1  0.098890  0.418890  0.208290  1.0
  C  C608  1  0.208290  0.098890  0.418890  1.0
  C  C609  1  0.418890  0.208290  0.098890  1.0
  C  C610  1  0.081110  0.401110  0.291710  1.0
  C  C611  1  0.401110  0.291710  0.081110  1.0
  C  C612  1  0.291710  0.081110  0.401110  1.0
  C  C613  1  0.183400  0.506600  0.827500  1.0
  C  C614  1  0.827500  0.183400  0.506600  1.0
  C  C615  1  0.506600  0.827500  0.183400  1.0
  C  C616  1  0.993400  0.316600  0.672500  1.0
  C  C617  1  0.316600  0.672500  0.993400  1.0
  C  C618  1  0.672500  0.993400  0.316600  1.0
  C  C619  1  0.816600  0.493400  0.172500  1.0
  C  C620  1  0.172500  0.816600  0.493400  1.0
  C  C621  1  0.493400  0.172500  0.816600  1.0
  C  C622  1  0.006600  0.683400  0.327500  1.0
  C  C623  1  0.683400  0.327500  0.006600  1.0
  C  C624  1  0.327500  0.006600  0.683400  1.0
  C  C625  1  0.218500  0.526400  0.816100  1.0
  C  C626  1  0.816100  0.218500  0.526400  1.0
  C  C627  1  0.526400  0.816100  0.218500  1.0
  C  C628  1  0.973600  0.281500  0.683900  1.0
  C  C629  1  0.281500  0.683900  0.973600  1.0
  C  C630  1  0.683900  0.973600  0.281500  1.0
  C  C631  1  0.781500  0.473600  0.183900  1.0
  C  C632  1  0.183900  0.781500  0.473600  1.0
  C  C633  1  0.473600  0.183900  0.781500  1.0
  C  C634  1  0.026400  0.718500  0.316100  1.0
  C  C635  1  0.718500  0.316100  0.026400  1.0
  C  C636  1  0.316100  0.026400  0.718500  1.0
  C  C637  1  0.167540  0.597940  0.812140  1.0
  C  C638  1  0.812140  0.167540  0.597940  1.0
  C  C639  1  0.597940  0.812140  0.167540  1.0
  C  C640  1  0.902060  0.332460  0.687860  1.0
  C  C641  1  0.332460  0.687860  0.902060  1.0
  C  C642  1  0.687860  0.902060  0.332460  1.0
  C  C643  1  0.832460  0.402060  0.187860  1.0
  C  C644  1  0.187860  0.832460  0.402060  1.0
  C  C645  1  0.402060  0.187860  0.832460  1.0
  C  C646  1  0.097940  0.667540  0.312140  1.0
  C  C647  1  0.667540  0.312140  0.097940  1.0
  C  C648  1  0.312140  0.097940  0.667540  1.0
  C  C649  1  0.131400  0.578200  0.823500  1.0
  C  C650  1  0.823500  0.131400  0.578200  1.0
  C  C651  1  0.578200  0.823500  0.131400  1.0
  C  C652  1  0.921800  0.368600  0.676500  1.0
  C  C653  1  0.368600  0.676500  0.921800  1.0
  C  C654  1  0.676500  0.921800  0.368600  1.0
  C  C655  1  0.868600  0.421800  0.176500  1.0
  C  C656  1  0.176500  0.868600  0.421800  1.0
  C  C657  1  0.421800  0.176500  0.868600  1.0
  C  C658  1  0.078200  0.631400  0.323500  1.0
  C  C659  1  0.631400  0.323500  0.078200  1.0
  C  C660  1  0.323500  0.078200  0.631400  1.0
  C  C661  1  0.215840  0.381240  0.852740  1.0
  C  C662  1  0.852740  0.215840  0.381240  1.0
  C  C663  1  0.381240  0.852740  0.215840  1.0
  C  C664  1  0.118760  0.284160  0.647260  1.0
  C  C665  1  0.284160  0.647260  0.118760  1.0
  C  C666  1  0.647260  0.118760  0.284160  1.0
  C  C667  1  0.784160  0.618760  0.147260  1.0
  C  C668  1  0.147260  0.784160  0.618760  1.0
  C  C669  1  0.618760  0.147260  0.784160  1.0
  C  C670  1  0.881240  0.715840  0.352740  1.0
  C  C671  1  0.715840  0.352740  0.881240  1.0
  C  C672  1  0.352740  0.881240  0.715840  1.0
  C  C673  1  0.231200  0.419500  0.839500  1.0
  C  C674  1  0.839500  0.231200  0.419500  1.0
  C  C675  1  0.419500  0.839500  0.231200  1.0
  C  C676  1  0.080500  0.268800  0.660500  1.0
  C  C677  1  0.268800  0.660500  0.080500  1.0
  C  C678  1  0.660500  0.080500  0.268800  1.0
  C  C679  1  0.768800  0.580500  0.160500  1.0
  C  C680  1  0.160500  0.768800  0.580500  1.0
  C  C681  1  0.580500  0.160500  0.768800  1.0
  C  C682  1  0.919500  0.731200  0.339500  1.0
  C  C683  1  0.731200  0.339500  0.919500  1.0
  C  C684  1  0.339500  0.919500  0.731200  1.0
  C  C685  1  0.191670  0.457370  0.836570  1.0
  C  C686  1  0.836570  0.191670  0.457370  1.0
  C  C687  1  0.457370  0.836570  0.191670  1.0
  C  C688  1  0.042630  0.308330  0.663430  1.0
  C  C689  1  0.308330  0.663430  0.042630  1.0
  C  C690  1  0.663430  0.042630  0.308330  1.0
  C  C691  1  0.808330  0.542630  0.163430  1.0
  C  C692  1  0.163430  0.808330  0.542630  1.0
  C  C693  1  0.542630  0.163430  0.808330  1.0
  C  C694  1  0.957370  0.691670  0.336570  1.0
  C  C695  1  0.691670  0.336570  0.957370  1.0
  C  C696  1  0.336570  0.957370  0.691670  1.0
  C  C697  1  0.138940  0.366240  0.877440  1.0
  C  C698  1  0.877440  0.138940  0.366240  1.0
  C  C699  1  0.366240  0.877440  0.138940  1.0
  C  C700  1  0.133760  0.361060  0.622560  1.0
  C  C701  1  0.361060  0.622560  0.133760  1.0
  C  C702  1  0.622560  0.133760  0.361060  1.0
  C  C703  1  0.861060  0.633760  0.122560  1.0
  C  C704  1  0.122560  0.861060  0.633760  1.0
  C  C705  1  0.633760  0.122560  0.861060  1.0
  C  C706  1  0.866240  0.638940  0.377440  1.0
  C  C707  1  0.638940  0.377440  0.866240  1.0
  C  C708  1  0.377440  0.866240  0.638940  1.0
  C  C709  1  0.325760  0.450460  0.606160  1.0
  C  C710  1  0.606160  0.325760  0.450460  1.0
  C  C711  1  0.450460  0.606160  0.325760  1.0
  C  C712  1  0.049540  0.174240  0.893840  1.0
  C  C713  1  0.174240  0.893840  0.049540  1.0
  C  C714  1  0.893840  0.049540  0.174240  1.0
  C  C715  1  0.674240  0.549540  0.393840  1.0
  C  C716  1  0.393840  0.674240  0.549540  1.0
  C  C717  1  0.549540  0.393840  0.674240  1.0
  C  C718  1  0.950460  0.825760  0.106160  1.0
  C  C719  1  0.825760  0.106160  0.950460  1.0
  C  C720  1  0.106160  0.950460  0.825760  1.0
  C  C721  1  0.342450  0.484350  0.603550  1.0
  C  C722  1  0.603550  0.342450  0.484350  1.0
  C  C723  1  0.484350  0.603550  0.342450  1.0
  C  C724  1  0.015650  0.157550  0.896450  1.0
  C  C725  1  0.157550  0.896450  0.015650  1.0
  C  C726  1  0.896450  0.015650  0.157550  1.0
  C  C727  1  0.657550  0.515650  0.396450  1.0
  C  C728  1  0.396450  0.657550  0.515650  1.0
  C  C729  1  0.515650  0.396450  0.657550  1.0
  C  C730  1  0.984350  0.842450  0.103550  1.0
  C  C731  1  0.842450  0.103550  0.984350  1.0
  C  C732  1  0.103550  0.984350  0.842450  1.0
  C  C733  1  0.414000  0.433000  0.600600  1.0
  C  C734  1  0.600600  0.414000  0.433000  1.0
  C  C735  1  0.433000  0.600600  0.414000  1.0
  C  C736  1  0.067000  0.086000  0.899400  1.0
  C  C737  1  0.086000  0.899400  0.067000  1.0
  C  C738  1  0.899400  0.067000  0.086000  1.0
  C  C739  1  0.586000  0.567000  0.399400  1.0
  C  C740  1  0.399400  0.586000  0.567000  1.0
  C  C741  1  0.567000  0.399400  0.586000  1.0
  C  C742  1  0.933000  0.914000  0.100600  1.0
  C  C743  1  0.914000  0.100600  0.933000  1.0
  C  C744  1  0.100600  0.933000  0.914000  1.0
  C  C745  1  0.396830  0.399030  0.604130  1.0
  C  C746  1  0.604130  0.396830  0.399030  1.0
  C  C747  1  0.399030  0.604130  0.396830  1.0
  C  C748  1  0.100970  0.103170  0.895870  1.0
  C  C749  1  0.103170  0.895870  0.100970  1.0
  C  C750  1  0.895870  0.100970  0.103170  1.0
  C  C751  1  0.603170  0.600970  0.395870  1.0
  C  C752  1  0.395870  0.603170  0.600970  1.0
  C  C753  1  0.600970  0.395870  0.603170  1.0
  C  C754  1  0.899030  0.896830  0.104130  1.0
  C  C755  1  0.896830  0.104130  0.899030  1.0
  C  C756  1  0.104130  0.899030  0.896830  1.0
  C  C757  1  0.205410  0.486810  0.606310  1.0
  C  C758  1  0.606310  0.205410  0.486810  1.0
  C  C759  1  0.486810  0.606310  0.205410  1.0
  C  C760  1  0.013190  0.294590  0.893690  1.0
  C  C761  1  0.294590  0.893690  0.013190  1.0
  C  C762  1  0.893690  0.013190  0.294590  1.0
  C  C763  1  0.794590  0.513190  0.393690  1.0
  C  C764  1  0.393690  0.794590  0.513190  1.0
  C  C765  1  0.513190  0.393690  0.794590  1.0
  C  C766  1  0.986810  0.705410  0.106310  1.0
  C  C767  1  0.705410  0.106310  0.986810  1.0
  C  C768  1  0.106310  0.986810  0.705410  1.0
  C  C769  1  0.240620  0.499520  0.605520  1.0
  C  C770  1  0.605520  0.240620  0.499520  1.0
  C  C771  1  0.499520  0.605520  0.240620  1.0
  C  C772  1  0.000480  0.259380  0.894480  1.0
  C  C773  1  0.259380  0.894480  0.000480  1.0
  C  C774  1  0.894480  0.000480  0.259380  1.0
  C  C775  1  0.759380  0.500480  0.394480  1.0
  C  C776  1  0.394480  0.759380  0.500480  1.0
  C  C777  1  0.500480  0.394480  0.759380  1.0
  C  C778  1  0.999520  0.740620  0.105520  1.0
  C  C779  1  0.740620  0.105520  0.999520  1.0
  C  C780  1  0.105520  0.999520  0.740620  1.0
  C  C781  1  0.277020  0.459520  0.608220  1.0
  C  C782  1  0.608220  0.277020  0.459520  1.0
  C  C783  1  0.459520  0.608220  0.277020  1.0
  C  C784  1  0.040480  0.222980  0.891780  1.0
  C  C785  1  0.222980  0.891780  0.040480  1.0
  C  C786  1  0.891780  0.040480  0.222980  1.0
  C  C787  1  0.722980  0.540480  0.391780  1.0
  C  C788  1  0.391780  0.722980  0.540480  1.0
  C  C789  1  0.540480  0.391780  0.722980  1.0
  C  C790  1  0.959520  0.777020  0.108220  1.0
  C  C791  1  0.777020  0.108220  0.959520  1.0
  C  C792  1  0.108220  0.959520  0.777020  1.0
  C  C793  1  0.195770  0.414970  0.605770  1.0
  C  C794  1  0.605770  0.195770  0.414970  1.0
  C  C795  1  0.414970  0.605770  0.195770  1.0
  C  C796  1  0.085030  0.304230  0.894230  1.0
  C  C797  1  0.304230  0.894230  0.085030  1.0
  C  C798  1  0.894230  0.085030  0.304230  1.0
  C  C799  1  0.804230  0.585030  0.394230  1.0
  C  C800  1  0.394230  0.804230  0.585030  1.0
  C  C801  1  0.585030  0.394230  0.804230  1.0
  C  C802  1  0.914970  0.695770  0.105770  1.0
  C  C803  1  0.695770  0.105770  0.914970  1.0
  C  C804  1  0.105770  0.914970  0.695770  1.0
  C  C805  1  0.199390  0.424090  0.554990  1.0
  C  C806  1  0.554990  0.199390  0.424090  1.0
  C  C807  1  0.424090  0.554990  0.199390  1.0
  C  C808  1  0.075910  0.300610  0.945010  1.0
  C  C809  1  0.300610  0.945010  0.075910  1.0
  C  C810  1  0.945010  0.075910  0.300610  1.0
  C  C811  1  0.800610  0.575910  0.445010  1.0
  C  C812  1  0.445010  0.800610  0.575910  1.0
  C  C813  1  0.575910  0.445010  0.800610  1.0
  C  C814  1  0.924090  0.699390  0.054990  1.0
  C  C815  1  0.699390  0.054990  0.924090  1.0
  C  C816  1  0.054990  0.924090  0.699390  1.0
  C  C817  1  0.224770  0.453670  0.522470  1.0
  C  C818  1  0.522470  0.224770  0.453670  1.0
  C  C819  1  0.453670  0.522470  0.224770  1.0
  C  C820  1  0.046330  0.275230  0.977530  1.0
  C  C821  1  0.275230  0.977530  0.046330  1.0
  C  C822  1  0.977530  0.046330  0.275230  1.0
  C  C823  1  0.775230  0.546330  0.477530  1.0
  C  C824  1  0.477530  0.775230  0.546330  1.0
  C  C825  1  0.546330  0.477530  0.775230  1.0
  C  C826  1  0.953670  0.724770  0.022470  1.0
  C  C827  1  0.724770  0.022470  0.953670  1.0
  C  C828  1  0.022470  0.953670  0.724770  1.0
  C  C829  1  0.231280  0.465680  0.475480  1.0
  C  C830  1  0.475480  0.231280  0.465680  1.0
  C  C831  1  0.465680  0.475480  0.231280  1.0
  C  C832  1  0.034320  0.268720  0.024520  1.0
  C  C833  1  0.268720  0.024520  0.034320  1.0
  C  C834  1  0.024520  0.034320  0.268720  1.0
  C  C835  1  0.768720  0.534320  0.524520  1.0
  C  C836  1  0.524520  0.768720  0.534320  1.0
  C  C837  1  0.534320  0.524520  0.768720  1.0
  C  C838  1  0.965680  0.731280  0.975480  1.0
  C  C839  1  0.731280  0.975480  0.965680  1.0
  C  C840  1  0.975480  0.965680  0.731280  1.0
  C  C841  1  0.212680  0.445580  0.460480  1.0
  C  C842  1  0.460480  0.212680  0.445580  1.0
  C  C843  1  0.445580  0.460480  0.212680  1.0
  C  C844  1  0.054420  0.287320  0.039520  1.0
  C  C845  1  0.287320  0.039520  0.054420  1.0
  C  C846  1  0.039520  0.054420  0.287320  1.0
  C  C847  1  0.787320  0.554420  0.539520  1.0
  C  C848  1  0.539520  0.787320  0.554420  1.0
  C  C849  1  0.554420  0.539520  0.787320  1.0
  C  C850  1  0.945580  0.712680  0.960480  1.0
  C  C851  1  0.712680  0.960480  0.945580  1.0
  C  C852  1  0.960480  0.945580  0.712680  1.0
  C  C853  1  0.186320  0.413420  0.492120  1.0
  C  C854  1  0.492120  0.186320  0.413420  1.0
  C  C855  1  0.413420  0.492120  0.186320  1.0
  C  C856  1  0.086580  0.313680  0.007880  1.0
  C  C857  1  0.313680  0.007880  0.086580  1.0
  C  C858  1  0.007880  0.086580  0.313680  1.0
  C  C859  1  0.813680  0.586580  0.507880  1.0
  C  C860  1  0.507880  0.813680  0.586580  1.0
  C  C861  1  0.586580  0.507880  0.813680  1.0
  C  C862  1  0.913420  0.686320  0.992120  1.0
  C  C863  1  0.686320  0.992120  0.913420  1.0
  C  C864  1  0.992120  0.913420  0.686320  1.0
  C  C865  1  0.177590  0.403990  0.540790  1.0
  C  C866  1  0.540790  0.177590  0.403990  1.0
  C  C867  1  0.403990  0.540790  0.177590  1.0
  C  C868  1  0.096010  0.322410  0.959210  1.0
  C  C869  1  0.322410  0.959210  0.096010  1.0
  C  C870  1  0.959210  0.096010  0.322410  1.0
  C  C871  1  0.822410  0.596010  0.459210  1.0
  C  C872  1  0.459210  0.822410  0.596010  1.0
  C  C873  1  0.596010  0.459210  0.822410  1.0
  C  C874  1  0.903990  0.677590  0.040790  1.0
  C  C875  1  0.677590  0.040790  0.903990  1.0
  C  C876  1  0.040790  0.903990  0.677590  1.0
  C  C877  1  0.169280  0.392680  0.473380  1.0
  C  C878  1  0.473380  0.169280  0.392680  1.0
  C  C879  1  0.392680  0.473380  0.169280  1.0
  C  C880  1  0.107320  0.330720  0.026620  1.0
  C  C881  1  0.330720  0.026620  0.107320  1.0
  C  C882  1  0.026620  0.107320  0.330720  1.0
  C  C883  1  0.830720  0.607320  0.526620  1.0
  C  C884  1  0.526620  0.830720  0.607320  1.0
  C  C885  1  0.607320  0.526620  0.830720  1.0
  C  C886  1  0.892680  0.669280  0.973380  1.0
  C  C887  1  0.669280  0.973380  0.892680  1.0
  C  C888  1  0.973380  0.892680  0.669280  1.0
  C  C889  1  0.142990  0.363690  0.501690  1.0
  C  C890  1  0.501690  0.142990  0.363690  1.0
  C  C891  1  0.363690  0.501690  0.142990  1.0
  C  C892  1  0.136310  0.357010  0.998310  1.0
  C  C893  1  0.357010  0.998310  0.136310  1.0
  C  C894  1  0.998310  0.136310  0.357010  1.0
  C  C895  1  0.857010  0.636310  0.498310  1.0
  C  C896  1  0.498310  0.857010  0.636310  1.0
  C  C897  1  0.636310  0.498310  0.857010  1.0
  C  C898  1  0.863690  0.642990  0.001690  1.0
  C  C899  1  0.642990  0.001690  0.863690  1.0
  C  C900  1  0.001690  0.863690  0.642990  1.0
  C  C901  1  0.130900  0.355000  0.550400  1.0
  C  C902  1  0.550400  0.130900  0.355000  1.0
  C  C903  1  0.355000  0.550400  0.130900  1.0
  C  C904  1  0.145000  0.369100  0.949600  1.0
  C  C905  1  0.369100  0.949600  0.145000  1.0
  C  C906  1  0.949600  0.145000  0.369100  1.0
  C  C907  1  0.869100  0.645000  0.449600  1.0
  C  C908  1  0.449600  0.869100  0.645000  1.0
  C  C909  1  0.645000  0.449600  0.869100  1.0
  C  C910  1  0.855000  0.630900  0.050400  1.0
  C  C911  1  0.630900  0.050400  0.855000  1.0
  C  C912  1  0.050400  0.855000  0.630900  1.0
  C  C913  1  0.127090  0.351790  0.929390  1.0
  C  C914  1  0.929390  0.127090  0.351790  1.0
  C  C915  1  0.351790  0.929390  0.127090  1.0
  C  C916  1  0.148210  0.372910  0.570610  1.0
  C  C917  1  0.372910  0.570610  0.148210  1.0
  C  C918  1  0.570610  0.148210  0.372910  1.0
  C  C919  1  0.872910  0.648210  0.070610  1.0
  C  C920  1  0.070610  0.872910  0.648210  1.0
  C  C921  1  0.648210  0.070610  0.872910  1.0
  C  C922  1  0.851790  0.627090  0.429390  1.0
  C  C923  1  0.627090  0.429390  0.851790  1.0
  C  C924  1  0.429390  0.851790  0.627090  1.0
  C  C925  1  0.305330  0.347430  0.536930  1.0
  C  C926  1  0.536930  0.305330  0.347430  1.0
  C  C927  1  0.347430  0.536930  0.305330  1.0
  C  C928  1  0.152570  0.194670  0.963070  1.0
  C  C929  1  0.194670  0.963070  0.152570  1.0
  C  C930  1  0.963070  0.152570  0.194670  1.0
  C  C931  1  0.694670  0.652570  0.463070  1.0
  C  C932  1  0.463070  0.694670  0.652570  1.0
  C  C933  1  0.652570  0.463070  0.694670  1.0
  C  C934  1  0.847430  0.805330  0.036930  1.0
  C  C935  1  0.805330  0.036930  0.847430  1.0
  C  C936  1  0.036930  0.847430  0.805330  1.0
  C  C937  1  0.307500  0.353400  0.491500  1.0
  C  C938  1  0.491500  0.307500  0.353400  1.0
  C  C939  1  0.353400  0.491500  0.307500  1.0
  C  C940  1  0.146600  0.192500  0.008500  1.0
  C  C941  1  0.192500  0.008500  0.146600  1.0
  C  C942  1  0.008500  0.146600  0.192500  1.0
  C  C943  1  0.692500  0.646600  0.508500  1.0
  C  C944  1  0.508500  0.692500  0.646600  1.0
  C  C945  1  0.646600  0.508500  0.692500  1.0
  C  C946  1  0.853400  0.807500  0.991500  1.0
  C  C947  1  0.807500  0.991500  0.853400  1.0
  C  C948  1  0.991500  0.853400  0.807500  1.0
  C  C949  1  0.347610  0.406610  0.464210  1.0
  C  C950  1  0.464210  0.347610  0.406610  1.0
  C  C951  1  0.406610  0.464210  0.347610  1.0
  C  C952  1  0.093390  0.152390  0.035790  1.0
  C  C953  1  0.152390  0.035790  0.093390  1.0
  C  C954  1  0.035790  0.093390  0.152390  1.0
  C  C955  1  0.652390  0.593390  0.535790  1.0
  C  C956  1  0.535790  0.652390  0.593390  1.0
  C  C957  1  0.593390  0.535790  0.652390  1.0
  C  C958  1  0.906610  0.847610  0.964210  1.0
  C  C959  1  0.847610  0.964210  0.906610  1.0
  C  C960  1  0.964210  0.906610  0.847610  1.0
  C  C961  1  0.346910  0.400310  0.508410  1.0
  C  C962  1  0.508410  0.346910  0.400310  1.0
  C  C963  1  0.400310  0.508410  0.346910  1.0
  C  C964  1  0.099690  0.153090  0.991590  1.0
  C  C965  1  0.153090  0.991590  0.099690  1.0
  C  C966  1  0.991590  0.099690  0.153090  1.0
  C  C967  1  0.653090  0.599690  0.491590  1.0
  C  C968  1  0.491590  0.653090  0.599690  1.0
  C  C969  1  0.599690  0.491590  0.653090  1.0
  C  C970  1  0.900310  0.846910  0.008410  1.0
  C  C971  1  0.846910  0.008410  0.900310  1.0
  C  C972  1  0.008410  0.900310  0.846910  1.0
  C  C973  1  0.243070  0.268670  0.628570  1.0
  C  C974  1  0.628570  0.243070  0.268670  1.0
  C  C975  1  0.268670  0.628570  0.243070  1.0
  C  C976  1  0.231330  0.256930  0.871430  1.0
  C  C977  1  0.256930  0.871430  0.231330  1.0
  C  C978  1  0.871430  0.231330  0.256930  1.0
  C  C979  1  0.756930  0.731330  0.371430  1.0
  C  C980  1  0.371430  0.756930  0.731330  1.0
  C  C981  1  0.731330  0.371430  0.756930  1.0
  C  C982  1  0.768670  0.743070  0.128570  1.0
  C  C983  1  0.743070  0.128570  0.768670  1.0
  C  C984  1  0.128570  0.768670  0.743070  1.0
  C  C985  1  0.256000  0.288400  0.583400  1.0
  C  C986  1  0.583400  0.256000  0.288400  1.0
  C  C987  1  0.288400  0.583400  0.256000  1.0
  C  C988  1  0.211600  0.244000  0.916600  1.0
  C  C989  1  0.244000  0.916600  0.211600  1.0
  C  C990  1  0.916600  0.211600  0.244000  1.0
  C  C991  1  0.744000  0.711600  0.416600  1.0
  C  C992  1  0.416600  0.744000  0.711600  1.0
  C  C993  1  0.711600  0.416600  0.744000  1.0
  C  C994  1  0.788400  0.756000  0.083400  1.0
  C  C995  1  0.756000  0.083400  0.788400  1.0
  C  C996  1  0.083400  0.788400  0.756000  1.0
  C  C997  1  0.280890  0.317790  0.578290  1.0
  C  C998  1  0.578290  0.280890  0.317790  1.0
  C  C999  1  0.317790  0.578290  0.280890  1.0
  C  C1000  1  0.182210  0.219110  0.921710  1.0
  C  C1001  1  0.219110  0.921710  0.182210  1.0
  C  C1002  1  0.921710  0.182210  0.219110  1.0
  C  C1003  1  0.719110  0.682210  0.421710  1.0
  C  C1004  1  0.421710  0.719110  0.682210  1.0
  C  C1005  1  0.682210  0.421710  0.719110  1.0
  C  C1006  1  0.817790  0.780890  0.078290  1.0
  C  C1007  1  0.780890  0.078290  0.817790  1.0
  C  C1008  1  0.078290  0.817790  0.780890  1.0
  C  C1009  1  0.259180  0.266180  0.698080  1.0
  C  C1010  1  0.698080  0.259180  0.266180  1.0
  C  C1011  1  0.266180  0.698080  0.259180  1.0
  C  C1012  1  0.233820  0.240820  0.801920  1.0
  C  C1013  1  0.240820  0.801920  0.233820  1.0
  C  C1014  1  0.801920  0.233820  0.240820  1.0
  C  C1015  1  0.740820  0.733820  0.301920  1.0
  C  C1016  1  0.301920  0.740820  0.733820  1.0
  C  C1017  1  0.733820  0.301920  0.740820  1.0
  C  C1018  1  0.766180  0.759180  0.198080  1.0
  C  C1019  1  0.759180  0.198080  0.766180  1.0
  C  C1020  1  0.198080  0.766180  0.759180  1.0
  C  C1021  1  0.298830  0.222230  0.704630  1.0
  C  C1022  1  0.704630  0.298830  0.222230  1.0
  C  C1023  1  0.222230  0.704630  0.298830  1.0
  C  C1024  1  0.277770  0.201170  0.795370  1.0
  C  C1025  1  0.201170  0.795370  0.277770  1.0
  C  C1026  1  0.795370  0.277770  0.201170  1.0
  C  C1027  1  0.701170  0.777770  0.295370  1.0
  C  C1028  1  0.295370  0.701170  0.777770  1.0
  C  C1029  1  0.777770  0.295370  0.701170  1.0
  C  C1030  1  0.722230  0.798830  0.204630  1.0
  C  C1031  1  0.798830  0.204630  0.722230  1.0
  C  C1032  1  0.204630  0.722230  0.798830  1.0
  C  C1033  1  0.328350  0.208750  0.666450  1.0
  C  C1034  1  0.666450  0.328350  0.208750  1.0
  C  C1035  1  0.208750  0.666450  0.328350  1.0
  C  C1036  1  0.291250  0.171650  0.833550  1.0
  C  C1037  1  0.171650  0.833550  0.291250  1.0
  C  C1038  1  0.833550  0.291250  0.171650  1.0
  C  C1039  1  0.671650  0.791250  0.333550  1.0
  C  C1040  1  0.333550  0.671650  0.791250  1.0
  C  C1041  1  0.791250  0.333550  0.671650  1.0
  C  C1042  1  0.708750  0.828350  0.166450  1.0
  C  C1043  1  0.828350  0.166450  0.708750  1.0
  C  C1044  1  0.166450  0.708750  0.828350  1.0
  C  C1045  1  0.357010  0.125110  0.791810  1.0
  C  C1046  1  0.791810  0.357010  0.125110  1.0
  C  C1047  1  0.125110  0.791810  0.357010  1.0
  C  C1048  1  0.374890  0.142990  0.708190  1.0
  C  C1049  1  0.142990  0.708190  0.374890  1.0
  C  C1050  1  0.708190  0.374890  0.142990  1.0
  C  C1051  1  0.642990  0.874890  0.208190  1.0
  C  C1052  1  0.208190  0.642990  0.874890  1.0
  C  C1053  1  0.874890  0.208190  0.642990  1.0
  C  C1054  1  0.625110  0.857010  0.291810  1.0
  C  C1055  1  0.857010  0.291810  0.625110  1.0
  C  C1056  1  0.291810  0.625110  0.857010  1.0
  C  C1057  1  0.365900  0.169500  0.667400  1.0
  C  C1058  1  0.667400  0.365900  0.169500  1.0
  C  C1059  1  0.169500  0.667400  0.365900  1.0
  C  C1060  1  0.330500  0.134100  0.832600  1.0
  C  C1061  1  0.134100  0.832600  0.330500  1.0
  C  C1062  1  0.832600  0.330500  0.134100  1.0
  C  C1063  1  0.634100  0.830500  0.332600  1.0
  C  C1064  1  0.332600  0.634100  0.830500  1.0
  C  C1065  1  0.830500  0.332600  0.634100  1.0
  C  C1066  1  0.669500  0.865900  0.167400  1.0
  C  C1067  1  0.865900  0.167400  0.669500  1.0
  C  C1068  1  0.167400  0.669500  0.865900  1.0
  Co  Co1069  1  0.090973  0.498413  0.844153  1.0
  Co  Co1070  1  0.844153  0.090973  0.498413  1.0
  Co  Co1071  1  0.498413  0.844153  0.090973  1.0
  Co  Co1072  1  0.001587  0.409027  0.655847  1.0
  Co  Co1073  1  0.409027  0.655847  0.001587  1.0
  Co  Co1074  1  0.655847  0.001587  0.409027  1.0
  Co  Co1075  1  0.909027  0.501587  0.155847  1.0
  Co  Co1076  1  0.155847  0.909027  0.501587  1.0
  Co  Co1077  1  0.501587  0.155847  0.909027  1.0
  Co  Co1078  1  0.998413  0.590973  0.344153  1.0
  Co  Co1079  1  0.590973  0.344153  0.998413  1.0
  Co  Co1080  1  0.344153  0.998413  0.590973  1.0
  Co  Co1081  1  0.318696  0.358696  0.615996  1.0
  Co  Co1082  1  0.615996  0.318696  0.358696  1.0
  Co  Co1083  1  0.358696  0.615996  0.318696  1.0
  Co  Co1084  1  0.141304  0.181304  0.884004  1.0
  Co  Co1085  1  0.181304  0.884004  0.141304  1.0
  Co  Co1086  1  0.884004  0.141304  0.181304  1.0
  Co  Co1087  1  0.681304  0.641304  0.384004  1.0
  Co  Co1088  1  0.384004  0.681304  0.641304  1.0
  Co  Co1089  1  0.641304  0.384004  0.681304  1.0
  Co  Co1090  1  0.858696  0.818696  0.115996  1.0
  Co  Co1091  1  0.818696  0.115996  0.858696  1.0
  Co  Co1092  1  0.115996  0.858696  0.818696  1.0
  F  F1093  1  0.233220  0.147820  0.589920  1
  F  F1094  1  0.589920  0.233220  0.147820  1
  F  F1095  1  0.147820  0.589920  0.233220  1
  F  F1096  1  0.352180  0.266780  0.910080  1
  F  F1097  1  0.266780  0.910080  0.352180  1
  F  F1098  1  0.910080  0.352180  0.266780  1
  F  F1099  1  0.766780  0.852180  0.410080  1
  F  F1100  1  0.410080  0.766780  0.852180  1
  F  F1101  1  0.852180  0.410080  0.766780  1
  F  F1102  1  0.647820  0.733220  0.089920  1
  F  F1103  1  0.733220  0.089920  0.647820  1
  F  F1104  1  0.089920  0.647820  0.733220  1
  F  F1105  1  0.203380  0.225380  0.580360  1
  F  F1106  1  0.580360  0.203380  0.225380  1
  F  F1107  1  0.225380  0.580360  0.203380  1
  F  F1108  1  0.274620  0.296620  0.919640  1
  F  F1109  1  0.296620  0.919640  0.274620  1
  F  F1110  1  0.919640  0.274620  0.296620  1
  F  F1111  1  0.796620  0.774620  0.419640  1
  F  F1112  1  0.419640  0.796620  0.774620  1
  F  F1113  1  0.774620  0.419640  0.796620  1
  F  F1114  1  0.725380  0.703380  0.080360  1
  F  F1115  1  0.703380  0.080360  0.725380  1
  F  F1116  1  0.080360  0.725380  0.703380  1
  F  F1117  1  0.225440  0.177640  0.644740  1
  F  F1118  1  0.644740  0.225440  0.177640  1
  F  F1119  1  0.177640  0.644740  0.225440  1
  F  F1120  1  0.322360  0.274560  0.855260  1
  F  F1121  1  0.274560  0.855260  0.322360  1
  F  F1122  1  0.855260  0.322360  0.274560  1
  F  F1123  1  0.774560  0.822360  0.355260  1
  F  F1124  1  0.355260  0.774560  0.822360  1
  F  F1125  1  0.822360  0.355260  0.774560  1
  F  F1126  1  0.677640  0.725440  0.144740  1
  F  F1127  1  0.725440  0.144740  0.677640  1
  F  F1128  1  0.144740  0.677640  0.725440  1
  F  F1129  1  0.163610  0.175100  0.634920  1
  F  F1130  1  0.634920  0.163610  0.175100  1
  F  F1131  1  0.175100  0.634920  0.163610  1
  F  F1132  1  0.324900  0.336390  0.865080  1
  F  F1133  1  0.336390  0.865080  0.324900  1
  F  F1134  1  0.865080  0.324900  0.336390  1
  F  F1135  1  0.836390  0.824900  0.365080  1
  F  F1136  1  0.365080  0.836390  0.824900  1
  F  F1137  1  0.824900  0.365080  0.836390  1
  F  F1138  1  0.675100  0.663610  0.134920  1
  F  F1139  1  0.663610  0.134920  0.675100  1
  F  F1140  1  0.134920  0.675100  0.663610  1
  F  F1141  1  0.398010  0.083110  0.952110  1
  F  F1142  1  0.952110  0.398010  0.083110  1
  F  F1143  1  0.083110  0.952110  0.398010  1
  F  F1144  1  0.416890  0.101990  0.547890  1
  F  F1145  1  0.101990  0.547890  0.416890  1
  F  F1146  1  0.547890  0.416890  0.101990  1
  F  F1147  1  0.601990  0.916890  0.047890  1
  F  F1148  1  0.047890  0.601990  0.916890  1
  F  F1149  1  0.916890  0.047890  0.601990  1
  F  F1150  1  0.583110  0.898010  0.452110  1
  F  F1151  1  0.898010  0.452110  0.583110  1
  F  F1152  1  0.452110  0.583110  0.898010  1
  F  F1153  1  0.349200  0.070600  0.929700  1
  F  F1154  1  0.929700  0.349200  0.070600  1
  F  F1155  1  0.070600  0.929700  0.349200  1
  F  F1156  1  0.429400  0.150800  0.570300  1
  F  F1157  1  0.150800  0.570300  0.429400  1
  F  F1158  1  0.570300  0.429400  0.150800  1
  F  F1159  1  0.650800  0.929400  0.070300  1
  F  F1160  1  0.070300  0.650800  0.929400  1
  F  F1161  1  0.929400  0.070300  0.650800  1
  F  F1162  1  0.570600  0.849200  0.429700  1
  F  F1163  1  0.849200  0.429700  0.570600  1
  F  F1164  1  0.429700  0.570600  0.849200  1
  F  F1165  1  0.413460  0.080560  0.879960  1
  F  F1166  1  0.879960  0.413460  0.080560  1
  F  F1167  1  0.080560  0.879960  0.413460  1
  F  F1168  1  0.419440  0.086540  0.620040  1
  F  F1169  1  0.086540  0.620040  0.419440  1
  F  F1170  1  0.620040  0.419440  0.086540  1
  F  F1171  1  0.586540  0.919440  0.120040  1
  F  F1172  1  0.120040  0.586540  0.919440  1
  F  F1173  1  0.919440  0.120040  0.586540  1
  F  F1174  1  0.580560  0.913460  0.379960  1
  F  F1175  1  0.913460  0.379960  0.580560  1
  F  F1176  1  0.379960  0.580560  0.913460  1
  F  F1177  1  0.414540  0.019040  0.936740  1
  F  F1178  1  0.936740  0.414540  0.019040  1
  F  F1179  1  0.019040  0.936740  0.414540  1
  F  F1180  1  0.480960  0.085460  0.563260  1
  F  F1181  1  0.085460  0.563260  0.480960  1
  F  F1182  1  0.563260  0.480960  0.085460  1
  F  F1183  1  0.585460  0.980960  0.063260  1
  F  F1184  1  0.063260  0.585460  0.980960  1
  F  F1185  1  0.980960  0.063260  0.585460  1
  F  F1186  1  0.519040  0.914540  0.436740  1
  F  F1187  1  0.914540  0.436740  0.519040  1
  F  F1188  1  0.436740  0.519040  0.914540  1
  F  F1189  1  0.975560  0.141810  0.062240  1
  F  F1190  1  0.062240  0.975560  0.141810  1
  F  F1191  1  0.141810  0.062240  0.975560  1
  F  F1192  1  0.358190  0.524440  0.437760  1
  F  F1193  1  0.524440  0.437760  0.358190  1
  F  F1194  1  0.437760  0.358190  0.524440  1
  F  F1195  1  0.024440  0.858190  0.937760  1
  F  F1196  1  0.937760  0.024440  0.858190  1
  F  F1197  1  0.858190  0.937760  0.024440  1
  F  F1198  1  0.641810  0.475560  0.562240  1
  F  F1199  1  0.475560  0.562240  0.641810  1
  F  F1200  1  0.562240  0.641810  0.475560  1
  F  F1201  1  0.010750  0.132180  0.993150  1
  F  F1202  1  0.993150  0.010750  0.132180  1
  F  F1203  1  0.132180  0.993150  0.010750  1
  F  F1204  1  0.367820  0.489250  0.506850  1
  F  F1205  1  0.489250  0.506850  0.367820  1
  F  F1206  1  0.506850  0.367820  0.489250  1
  F  F1207  1  0.989250  0.867820  0.006850  1
  F  F1208  1  0.006850  0.989250  0.867820  1
  F  F1209  1  0.867820  0.006850  0.989250  1
  F  F1210  1  0.632180  0.510750  0.493150  1
  F  F1211  1  0.510750  0.493150  0.632180  1
  F  F1212  1  0.493150  0.632180  0.510750  1
  F  F1213  1  0.935990  0.177870  0.008030  1
  F  F1214  1  0.008030  0.935990  0.177870  1
  F  F1215  1  0.177870  0.008030  0.935990  1
  F  F1216  1  0.322130  0.564010  0.491970  1
  F  F1217  1  0.564010  0.491970  0.322130  1
  F  F1218  1  0.491970  0.322130  0.564010  1
  F  F1219  1  0.064010  0.822130  0.991970  1
  F  F1220  1  0.991970  0.064010  0.822130  1
  F  F1221  1  0.822130  0.991970  0.064010  1
  F  F1222  1  0.677870  0.435990  0.508030  1
  F  F1223  1  0.435990  0.508030  0.677870  1
  F  F1224  1  0.508030  0.677870  0.435990  1
  F  F1225  1  0.993850  0.200490  0.004410  1
  F  F1226  1  0.004410  0.993850  0.200490  1
  F  F1227  1  0.200490  0.004410  0.993850  1
  F  F1228  1  0.299510  0.506150  0.495590  1
  F  F1229  1  0.506150  0.495590  0.299510  1
  F  F1230  1  0.495590  0.299510  0.506150  1
  F  F1231  1  0.006150  0.799510  0.995590  1
  F  F1232  1  0.995590  0.006150  0.799510  1
  F  F1233  1  0.799510  0.995590  0.006150  1
  F  F1234  1  0.700490  0.493850  0.504410  1
  F  F1235  1  0.493850  0.504410  0.700490  1
  F  F1236  1  0.504410  0.700490  0.493850  1
  F  F1237  1  0.133690  0.393790  0.780890  1
  F  F1238  1  0.780890  0.133690  0.393790  1
  F  F1239  1  0.393790  0.780890  0.133690  1
  F  F1240  1  0.106210  0.366310  0.719110  1
  F  F1241  1  0.366310  0.719110  0.106210  1
  F  F1242  1  0.719110  0.106210  0.366310  1
  F  F1243  1  0.866310  0.606210  0.219110  1
  F  F1244  1  0.219110  0.866310  0.606210  1
  F  F1245  1  0.606210  0.219110  0.866310  1
  F  F1246  1  0.893790  0.633690  0.280890  1
  F  F1247  1  0.633690  0.280890  0.893790  1
  F  F1248  1  0.280890  0.893790  0.633690  1
  F  F1249  1  0.188730  0.358230  0.715330  1.0
  F  F1250  1  0.715330  0.188730  0.358230  1.0
  F  F1251  1  0.358230  0.715330  0.188730  1.0
  F  F1252  1  0.141770  0.311270  0.784670  1.0
  F  F1253  1  0.311270  0.784670  0.141770  1.0
  F  F1254  1  0.784670  0.141770  0.311270  1.0
  F  F1255  1  0.811270  0.641770  0.284670  1.0
  F  F1256  1  0.284670  0.811270  0.641770  1.0
  F  F1257  1  0.641770  0.284670  0.811270  1.0
  F  F1258  1  0.858230  0.688730  0.215330  1.0
  F  F1259  1  0.688730  0.215330  0.858230  1.0
  F  F1260  1  0.215330  0.858230  0.688730  1.0
  F  F1261  1  0.134760  0.413380  0.714870  1.0
  F  F1262  1  0.714870  0.134760  0.413380  1.0
  F  F1263  1  0.413380  0.714870  0.134760  1.0
  F  F1264  1  0.086620  0.365240  0.785130  1.0
  F  F1265  1  0.365240  0.785130  0.086620  1.0
  F  F1266  1  0.785130  0.086620  0.365240  1.0
  F  F1267  1  0.865240  0.586620  0.285130  1.0
  F  F1268  1  0.285130  0.865240  0.586620  1.0
  F  F1269  1  0.586620  0.285130  0.865240  1.0
  F  F1270  1  0.913380  0.634760  0.214870  1.0
  F  F1271  1  0.634760  0.214870  0.913380  1.0
  F  F1272  1  0.214870  0.913380  0.634760  1.0
  F  F1273  1  0.174010  0.354210  0.780510  1.0
  F  F1274  1  0.780510  0.174010  0.354210  1.0
  F  F1275  1  0.354210  0.780510  0.174010  1.0
  F  F1276  1  0.145790  0.325990  0.719490  1.0
  F  F1277  1  0.325990  0.719490  0.145790  1.0
  F  F1278  1  0.719490  0.145790  0.325990  1.0
  F  F1279  1  0.825990  0.645790  0.219490  1.0
  F  F1280  1  0.219490  0.825990  0.645790  1.0
  F  F1281  1  0.645790  0.219490  0.825990  1.0
  F  F1282  1  0.854210  0.674010  0.280510  1.0
  F  F1283  1  0.674010  0.280510  0.854210  1.0
  F  F1284  1  0.280510  0.854210  0.674010  1.0
  H  H1285  1  0.731500  0.490900  0.872100  1
  H  H1286  1  0.872100  0.731500  0.490900  1
  H  H1287  1  0.490900  0.872100  0.731500  1
  H  H1288  1  0.009100  0.768500  0.627900  1
  H  H1289  1  0.768500  0.627900  0.009100  1
  H  H1290  1  0.627900  0.009100  0.768500  1
  H  H1291  1  0.268500  0.509100  0.127900  1
  H  H1292  1  0.127900  0.268500  0.509100  1
  H  H1293  1  0.509100  0.127900  0.268500  1
  H  H1294  1  0.990900  0.231500  0.372100  1
  H  H1295  1  0.231500  0.372100  0.990900  1
  H  H1296  1  0.372100  0.990900  0.231500  1
  H  H1297  1  0.758500  0.438500  0.874400  1
  H  H1298  1  0.874400  0.758500  0.438500  1
  H  H1299  1  0.438500  0.874400  0.758500  1
  H  H1300  1  0.061500  0.741500  0.625600  1
  H  H1301  1  0.741500  0.625600  0.061500  1
  H  H1302  1  0.625600  0.061500  0.741500  1
  H  H1303  1  0.241500  0.561500  0.125600  1
  H  H1304  1  0.125600  0.241500  0.561500  1
  H  H1305  1  0.561500  0.125600  0.241500  1
  H  H1306  1  0.938500  0.258500  0.374400  1
  H  H1307  1  0.258500  0.374400  0.938500  1
  H  H1308  1  0.374400  0.938500  0.258500  1
  H  H1309  1  0.697700  0.427400  0.030900  1
  H  H1310  1  0.030900  0.697700  0.427400  1
  H  H1311  1  0.427400  0.030900  0.697700  1
  H  H1312  1  0.072600  0.802300  0.469100  1
  H  H1313  1  0.802300  0.469100  0.072600  1
  H  H1314  1  0.469100  0.072600  0.802300  1
  H  H1315  1  0.302300  0.572600  0.969100  1
  H  H1316  1  0.969100  0.302300  0.572600  1
  H  H1317  1  0.572600  0.969100  0.302300  1
  H  H1318  1  0.927400  0.197700  0.530900  1
  H  H1319  1  0.197700  0.530900  0.927400  1
  H  H1320  1  0.530900  0.927400  0.197700  1
  H  H1321  1  0.725600  0.463900  0.010000  1
  H  H1322  1  0.010000  0.725600  0.463900  1
  H  H1323  1  0.463900  0.010000  0.725600  1
  H  H1324  1  0.036100  0.774400  0.490000  1
  H  H1325  1  0.774400  0.490000  0.036100  1
  H  H1326  1  0.490000  0.036100  0.774400  1
  H  H1327  1  0.274400  0.536100  0.990000  1
  H  H1328  1  0.990000  0.274400  0.536100  1
  H  H1329  1  0.536100  0.990000  0.274400  1
  H  H1330  1  0.963900  0.225600  0.510000  1
  H  H1331  1  0.225600  0.510000  0.963900  1
  H  H1332  1  0.510000  0.963900  0.225600  1
  H  H1333  1  0.751900  0.411600  0.012600  1
  H  H1334  1  0.012600  0.751900  0.411600  1
  H  H1335  1  0.411600  0.012600  0.751900  1
  H  H1336  1  0.088400  0.748100  0.487400  1
  H  H1337  1  0.748100  0.487400  0.088400  1
  H  H1338  1  0.487400  0.088400  0.748100  1
  H  H1339  1  0.248100  0.588400  0.987400  1
  H  H1340  1  0.987400  0.248100  0.588400  1
  H  H1341  1  0.588400  0.987400  0.248100  1
  H  H1342  1  0.911600  0.251900  0.512600  1
  H  H1343  1  0.251900  0.512600  0.911600  1
  H  H1344  1  0.512600  0.911600  0.251900  1
  H  H1345  1  0.804400  0.486500  0.816500  1
  H  H1346  1  0.816500  0.804400  0.486500  1
  H  H1347  1  0.486500  0.816500  0.804400  1
  H  H1348  1  0.013500  0.695600  0.683500  1
  H  H1349  1  0.695600  0.683500  0.013500  1
  H  H1350  1  0.683500  0.013500  0.695600  1
  H  H1351  1  0.195600  0.513500  0.183500  1
  H  H1352  1  0.183500  0.195600  0.513500  1
  H  H1353  1  0.513500  0.183500  0.195600  1
  H  H1354  1  0.986500  0.304400  0.316500  1
  H  H1355  1  0.304400  0.316500  0.986500  1
  H  H1356  1  0.316500  0.986500  0.304400  1
  H  H1357  1  0.828900  0.454800  0.855500  1
  H  H1358  1  0.855500  0.828900  0.454800  1
  H  H1359  1  0.454800  0.855500  0.828900  1
  H  H1360  1  0.045200  0.671100  0.644500  1
  H  H1361  1  0.671100  0.644500  0.045200  1
  H  H1362  1  0.644500  0.045200  0.671100  1
  H  H1363  1  0.171100  0.545200  0.144500  1
  H  H1364  1  0.144500  0.171100  0.545200  1
  H  H1365  1  0.545200  0.144500  0.171100  1
  H  H1366  1  0.954800  0.328900  0.355500  1
  H  H1367  1  0.328900  0.355500  0.954800  1
  H  H1368  1  0.355500  0.954800  0.328900  1
  H  H1369  1  0.802100  0.506800  0.853700  1
  H  H1370  1  0.853700  0.802100  0.506800  1
  H  H1371  1  0.506800  0.853700  0.802100  1
  H  H1372  1  0.993200  0.697900  0.646300  1
  H  H1373  1  0.697900  0.646300  0.993200  1
  H  H1374  1  0.646300  0.993200  0.697900  1
  H  H1375  1  0.197900  0.493200  0.146300  1
  H  H1376  1  0.146300  0.197900  0.493200  1
  H  H1377  1  0.493200  0.146300  0.197900  1
  H  H1378  1  0.006800  0.302100  0.353700  1
  H  H1379  1  0.302100  0.353700  0.006800  1
  H  H1380  1  0.353700  0.006800  0.302100  1
  H  H1381  1  0.320900  0.901400  0.880600  1
  H  H1382  1  0.880600  0.320900  0.901400  1
  H  H1383  1  0.901400  0.880600  0.320900  1
  H  H1384  1  0.598600  0.179100  0.619400  1
  H  H1385  1  0.179100  0.619400  0.598600  1
  H  H1386  1  0.619400  0.598600  0.179100  1
  H  H1387  1  0.679100  0.098600  0.119400  1
  H  H1388  1  0.119400  0.679100  0.098600  1
  H  H1389  1  0.098600  0.119400  0.679100  1
  H  H1390  1  0.401400  0.820900  0.380600  1
  H  H1391  1  0.820900  0.380600  0.401400  1
  H  H1392  1  0.380600  0.401400  0.820900  1
  H  H1393  1  0.355800  0.913800  0.831500  1
  H  H1394  1  0.831500  0.355800  0.913800  1
  H  H1395  1  0.913800  0.831500  0.355800  1
  H  H1396  1  0.586200  0.144200  0.668500  1
  H  H1397  1  0.144200  0.668500  0.586200  1
  H  H1398  1  0.668500  0.586200  0.144200  1
  H  H1399  1  0.644200  0.086200  0.168500  1
  H  H1400  1  0.168500  0.644200  0.086200  1
  H  H1401  1  0.086200  0.168500  0.644200  1
  H  H1402  1  0.413800  0.855800  0.331500  1
  H  H1403  1  0.855800  0.331500  0.413800  1
  H  H1404  1  0.331500  0.413800  0.855800  1
  H  H1405  1  0.313200  0.952700  0.849300  1
  H  H1406  1  0.849300  0.313200  0.952700  1
  H  H1407  1  0.952700  0.849300  0.313200  1
  H  H1408  1  0.547300  0.186800  0.650700  1
  H  H1409  1  0.186800  0.650700  0.547300  1
  H  H1410  1  0.650700  0.547300  0.186800  1
  H  H1411  1  0.686800  0.047300  0.150700  1
  H  H1412  1  0.150700  0.686800  0.047300  1
  H  H1413  1  0.047300  0.150700  0.686800  1
  H  H1414  1  0.452700  0.813200  0.349300  1
  H  H1415  1  0.813200  0.349300  0.452700  1
  H  H1416  1  0.349300  0.452700  0.813200  1
  H  H1417  1  0.396100  0.982400  0.895400  1
  H  H1418  1  0.895400  0.396100  0.982400  1
  H  H1419  1  0.982400  0.895400  0.396100  1
  H  H1420  1  0.517600  0.103900  0.604600  1
  H  H1421  1  0.103900  0.604600  0.517600  1
  H  H1422  1  0.604600  0.517600  0.103900  1
  H  H1423  1  0.603900  0.017600  0.104600  1
  H  H1424  1  0.104600  0.603900  0.017600  1
  H  H1425  1  0.017600  0.104600  0.603900  1
  H  H1426  1  0.482400  0.896100  0.395400  1
  H  H1427  1  0.896100  0.395400  0.482400  1
  H  H1428  1  0.395400  0.482400  0.896100  1
  H  H1429  1  0.413400  0.012400  0.844500  1
  H  H1430  1  0.844500  0.413400  0.012400  1
  H  H1431  1  0.012400  0.844500  0.413400  1
  H  H1432  1  0.487600  0.086600  0.655500  1
  H  H1433  1  0.086600  0.655500  0.487600  1
  H  H1434  1  0.655500  0.487600  0.086600  1
  H  H1435  1  0.586600  0.987600  0.155500  1
  H  H1436  1  0.155500  0.586600  0.987600  1
  H  H1437  1  0.987600  0.155500  0.586600  1
  H  H1438  1  0.512400  0.913400  0.344500  1
  H  H1439  1  0.913400  0.344500  0.512400  1
  H  H1440  1  0.344500  0.512400  0.913400  1
  H  H1441  1  0.476700  0.960300  0.871100  1
  H  H1442  1  0.871100  0.476700  0.960300  1
  H  H1443  1  0.960300  0.871100  0.476700  1
  H  H1444  1  0.539700  0.023300  0.628900  1
  H  H1445  1  0.023300  0.628900  0.539700  1
  H  H1446  1  0.628900  0.539700  0.023300  1
  H  H1447  1  0.523300  0.039700  0.128900  1
  H  H1448  1  0.128900  0.523300  0.039700  1
  H  H1449  1  0.039700  0.128900  0.523300  1
  H  H1450  1  0.460300  0.976700  0.371100  1
  H  H1451  1  0.976700  0.371100  0.460300  1
  H  H1452  1  0.371100  0.460300  0.976700  1
  H  H1453  1  0.476100  0.948900  0.829100  1
  H  H1454  1  0.829100  0.476100  0.948900  1
  H  H1455  1  0.948900  0.829100  0.476100  1
  H  H1456  1  0.551100  0.023900  0.670900  1
  H  H1457  1  0.023900  0.670900  0.551100  1
  H  H1458  1  0.670900  0.551100  0.023900  1
  H  H1459  1  0.523900  0.051100  0.170900  1
  H  H1460  1  0.170900  0.523900  0.051100  1
  H  H1461  1  0.051100  0.170900  0.523900  1
  H  H1462  1  0.448900  0.976100  0.329100  1
  H  H1463  1  0.976100  0.329100  0.448900  1
  H  H1464  1  0.329100  0.448900  0.976100  1
  H  H1465  1  0.458800  0.918800  0.879800  1
  H  H1466  1  0.879800  0.458800  0.918800  1
  H  H1467  1  0.918800  0.879800  0.458800  1
  H  H1468  1  0.581200  0.041200  0.620200  1
  H  H1469  1  0.041200  0.620200  0.581200  1
  H  H1470  1  0.620200  0.581200  0.041200  1
  H  H1471  1  0.541200  0.081200  0.120200  1
  H  H1472  1  0.120200  0.541200  0.081200  1
  H  H1473  1  0.081200  0.120200  0.541200  1
  H  H1474  1  0.418800  0.958800  0.379800  1
  H  H1475  1  0.958800  0.379800  0.418800  1
  H  H1476  1  0.379800  0.418800  0.958800  1
  H  H1477  1  0.990100  0.631100  0.753800  1.0
  H  H1478  1  0.753800  0.990100  0.631100  1.0
  H  H1479  1  0.631100  0.753800  0.990100  1.0
  H  H1480  1  0.868900  0.509900  0.746200  1.0
  H  H1481  1  0.509900  0.746200  0.868900  1.0
  H  H1482  1  0.746200  0.868900  0.509900  1.0
  H  H1483  1  0.009900  0.368900  0.246200  1.0
  H  H1484  1  0.246200  0.009900  0.368900  1.0
  H  H1485  1  0.368900  0.246200  0.009900  1.0
  H  H1486  1  0.131100  0.490100  0.253800  1.0
  H  H1487  1  0.490100  0.253800  0.131100  1.0
  H  H1488  1  0.253800  0.131100  0.490100  1.0
  H  H1489  1  0.941900  0.627700  0.883100  1.0
  H  H1490  1  0.883100  0.941900  0.627700  1.0
  H  H1491  1  0.627700  0.883100  0.941900  1.0
  H  H1492  1  0.872300  0.558100  0.616900  1.0
  H  H1493  1  0.558100  0.616900  0.872300  1.0
  H  H1494  1  0.616900  0.872300  0.558100  1.0
  H  H1495  1  0.058100  0.372300  0.116900  1.0
  H  H1496  1  0.116900  0.058100  0.372300  1.0
  H  H1497  1  0.372300  0.116900  0.058100  1.0
  H  H1498  1  0.127700  0.441900  0.383100  1.0
  H  H1499  1  0.441900  0.383100  0.127700  1.0
  H  H1500  1  0.383100  0.127700  0.441900  1.0
  H  H1501  1  0.002800  0.565600  0.900800  1.0
  H  H1502  1  0.900800  0.002800  0.565600  1.0
  H  H1503  1  0.565600  0.900800  0.002800  1.0
  H  H1504  1  0.934400  0.497200  0.599200  1.0
  H  H1505  1  0.497200  0.599200  0.934400  1.0
  H  H1506  1  0.599200  0.934400  0.497200  1.0
  H  H1507  1  0.997200  0.434400  0.099200  1.0
  H  H1508  1  0.099200  0.997200  0.434400  1.0
  H  H1509  1  0.434400  0.099200  0.997200  1.0
  H  H1510  1  0.065600  0.502800  0.400800  1.0
  H  H1511  1  0.502800  0.400800  0.065600  1.0
  H  H1512  1  0.400800  0.065600  0.502800  1.0
  H  H1513  1  0.125800  0.537000  0.664500  1.0
  H  H1514  1  0.664500  0.125800  0.537000  1.0
  H  H1515  1  0.537000  0.664500  0.125800  1.0
  H  H1516  1  0.963000  0.374200  0.835500  1.0
  H  H1517  1  0.374200  0.835500  0.963000  1.0
  H  H1518  1  0.835500  0.963000  0.374200  1.0
  H  H1519  1  0.874200  0.463000  0.335500  1.0
  H  H1520  1  0.335500  0.874200  0.463000  1.0
  H  H1521  1  0.463000  0.335500  0.874200  1.0
  H  H1522  1  0.037000  0.625800  0.164500  1.0
  H  H1523  1  0.625800  0.164500  0.037000  1.0
  H  H1524  1  0.164500  0.037000  0.625800  1.0
  H  H1525  1  0.051600  0.592400  0.693200  1.0
  H  H1526  1  0.693200  0.051600  0.592400  1.0
  H  H1527  1  0.592400  0.693200  0.051600  1.0
  H  H1528  1  0.907600  0.448400  0.806800  1.0
  H  H1529  1  0.448400  0.806800  0.907600  1.0
  H  H1530  1  0.806800  0.907600  0.448400  1.0
  H  H1531  1  0.948400  0.407600  0.306800  1.0
  H  H1532  1  0.306800  0.948400  0.407600  1.0
  H  H1533  1  0.407600  0.306800  0.948400  1.0
  H  H1534  1  0.092400  0.551600  0.193200  1.0
  H  H1535  1  0.551600  0.193200  0.092400  1.0
  H  H1536  1  0.193200  0.092400  0.551600  1.0
  H  H1537  1  0.184700  0.461300  0.707400  1.0
  H  H1538  1  0.707400  0.184700  0.461300  1.0
  H  H1539  1  0.461300  0.707400  0.184700  1.0
  H  H1540  1  0.038700  0.315300  0.792600  1.0
  H  H1541  1  0.315300  0.792600  0.038700  1.0
  H  H1542  1  0.792600  0.038700  0.315300  1.0
  H  H1543  1  0.815300  0.538700  0.292600  1.0
  H  H1544  1  0.292600  0.815300  0.538700  1.0
  H  H1545  1  0.538700  0.292600  0.815300  1.0
  H  H1546  1  0.961300  0.684700  0.207400  1.0
  H  H1547  1  0.684700  0.207400  0.961300  1.0
  H  H1548  1  0.207400  0.961300  0.684700  1.0
  H  H1549  1  0.175600  0.454600  0.760100  1.0
  H  H1550  1  0.760100  0.175600  0.454600  1.0
  H  H1551  1  0.454600  0.760100  0.175600  1.0
  H  H1552  1  0.045400  0.324400  0.739900  1.0
  H  H1553  1  0.324400  0.739900  0.045400  1.0
  H  H1554  1  0.739900  0.045400  0.324400  1.0
  H  H1555  1  0.824400  0.545400  0.239900  1.0
  H  H1556  1  0.239900  0.824400  0.545400  1.0
  H  H1557  1  0.545400  0.239900  0.824400  1.0
  H  H1558  1  0.954600  0.675600  0.260100  1.0
  H  H1559  1  0.675600  0.260100  0.954600  1.0
  H  H1560  1  0.260100  0.954600  0.675600  1.0
  H  H1561  1  0.164700  0.565500  0.710500  1.0
  H  H1562  1  0.710500  0.164700  0.565500  1.0
  H  H1563  1  0.565500  0.710500  0.164700  1.0
  H  H1564  1  0.934500  0.335300  0.789500  1.0
  H  H1565  1  0.335300  0.789500  0.934500  1.0
  H  H1566  1  0.789500  0.934500  0.335300  1.0
  H  H1567  1  0.835300  0.434500  0.289500  1.0
  H  H1568  1  0.289500  0.835300  0.434500  1.0
  H  H1569  1  0.434500  0.289500  0.835300  1.0
  H  H1570  1  0.065500  0.664700  0.210500  1.0
  H  H1571  1  0.664700  0.210500  0.065500  1.0
  H  H1572  1  0.210500  0.065500  0.664700  1.0
  H  H1573  1  0.215200  0.609800  0.687400  1.0
  H  H1574  1  0.687400  0.215200  0.609800  1.0
  H  H1575  1  0.609800  0.687400  0.215200  1.0
  H  H1576  1  0.890200  0.284800  0.812600  1.0
  H  H1577  1  0.284800  0.812600  0.890200  1.0
  H  H1578  1  0.812600  0.890200  0.284800  1.0
  H  H1579  1  0.784800  0.390200  0.312600  1.0
  H  H1580  1  0.312600  0.784800  0.390200  1.0
  H  H1581  1  0.390200  0.312600  0.784800  1.0
  H  H1582  1  0.109800  0.715200  0.187400  1.0
  H  H1583  1  0.715200  0.187400  0.109800  1.0
  H  H1584  1  0.187400  0.109800  0.715200  1.0
  H  H1585  1  0.289200  0.573900  0.689500  1.0
  H  H1586  1  0.689500  0.289200  0.573900  1.0
  H  H1587  1  0.573900  0.689500  0.289200  1.0
  H  H1588  1  0.926100  0.210800  0.810500  1.0
  H  H1589  1  0.210800  0.810500  0.926100  1.0
  H  H1590  1  0.810500  0.926100  0.210800  1.0
  H  H1591  1  0.710800  0.426100  0.310500  1.0
  H  H1592  1  0.310500  0.710800  0.426100  1.0
  H  H1593  1  0.426100  0.310500  0.710800  1.0
  H  H1594  1  0.073900  0.789200  0.189500  1.0
  H  H1595  1  0.789200  0.189500  0.073900  1.0
  H  H1596  1  0.189500  0.073900  0.789200  1.0
  H  H1597  1  0.351600  0.506500  0.702900  1.0
  H  H1598  1  0.702900  0.351600  0.506500  1.0
  H  H1599  1  0.506500  0.702900  0.351600  1.0
  H  H1600  1  0.993500  0.148400  0.797100  1.0
  H  H1601  1  0.148400  0.797100  0.993500  1.0
  H  H1602  1  0.797100  0.993500  0.148400  1.0
  H  H1603  1  0.648400  0.493500  0.297100  1.0
  H  H1604  1  0.297100  0.648400  0.493500  1.0
  H  H1605  1  0.493500  0.297100  0.648400  1.0
  H  H1606  1  0.006500  0.851600  0.202900  1.0
  H  H1607  1  0.851600  0.202900  0.006500  1.0
  H  H1608  1  0.202900  0.006500  0.851600  1.0
  H  H1609  1  0.383000  0.428800  0.717100  1.0
  H  H1610  1  0.717100  0.383000  0.428800  1.0
  H  H1611  1  0.428800  0.717100  0.383000  1.0
  H  H1612  1  0.071200  0.117000  0.782900  1.0
  H  H1613  1  0.117000  0.782900  0.071200  1.0
  H  H1614  1  0.782900  0.071200  0.117000  1.0
  H  H1615  1  0.617000  0.571200  0.282900  1.0
  H  H1616  1  0.282900  0.617000  0.571200  1.0
  H  H1617  1  0.571200  0.282900  0.617000  1.0
  H  H1618  1  0.928800  0.883000  0.217100  1.0
  H  H1619  1  0.883000  0.217100  0.928800  1.0
  H  H1620  1  0.217100  0.928800  0.883000  1.0
  H  H1621  1  0.340000  0.382600  0.726500  1.0
  H  H1622  1  0.726500  0.340000  0.382600  1.0
  H  H1623  1  0.382600  0.726500  0.340000  1.0
  H  H1624  1  0.117400  0.160000  0.773500  1.0
  H  H1625  1  0.160000  0.773500  0.117400  1.0
  H  H1626  1  0.773500  0.117400  0.160000  1.0
  H  H1627  1  0.660000  0.617400  0.273500  1.0
  H  H1628  1  0.273500  0.660000  0.617400  1.0
  H  H1629  1  0.617400  0.273500  0.660000  1.0
  H  H1630  1  0.882600  0.840000  0.226500  1.0
  H  H1631  1  0.840000  0.226500  0.882600  1.0
  H  H1632  1  0.226500  0.882600  0.840000  1.0
  H  H1633  1  0.286400  0.321600  0.794600  1.0
  H  H1634  1  0.794600  0.286400  0.321600  1.0
  H  H1635  1  0.321600  0.794600  0.286400  1.0
  H  H1636  1  0.178400  0.213600  0.705400  1.0
  H  H1637  1  0.213600  0.705400  0.178400  1.0
  H  H1638  1  0.705400  0.178400  0.213600  1.0
  H  H1639  1  0.713600  0.678400  0.205400  1.0
  H  H1640  1  0.205400  0.713600  0.678400  1.0
  H  H1641  1  0.678400  0.205400  0.713600  1.0
  H  H1642  1  0.821600  0.786400  0.294600  1.0
  H  H1643  1  0.786400  0.294600  0.821600  1.0
  H  H1644  1  0.294600  0.821600  0.786400  1.0
  H  H1645  1  0.355100  0.258600  0.767600  1.0
  H  H1646  1  0.767600  0.355100  0.258600  1.0
  H  H1647  1  0.258600  0.767600  0.355100  1.0
  H  H1648  1  0.241400  0.144900  0.732400  1.0
  H  H1649  1  0.144900  0.732400  0.241400  1.0
  H  H1650  1  0.732400  0.241400  0.144900  1.0
  H  H1651  1  0.644900  0.741400  0.232400  1.0
  H  H1652  1  0.232400  0.644900  0.741400  1.0
  H  H1653  1  0.741400  0.232400  0.644900  1.0
  H  H1654  1  0.758600  0.855100  0.267600  1.0
  H  H1655  1  0.855100  0.267600  0.758600  1.0
  H  H1656  1  0.267600  0.758600  0.855100  1.0
  H  H1657  1  0.230700  0.397100  0.753200  1.0
  H  H1658  1  0.753200  0.230700  0.397100  1.0
  H  H1659  1  0.397100  0.753200  0.230700  1.0
  H  H1660  1  0.102900  0.269300  0.746800  1.0
  H  H1661  1  0.269300  0.746800  0.102900  1.0
  H  H1662  1  0.746800  0.102900  0.269300  1.0
  H  H1663  1  0.769300  0.602900  0.246800  1.0
  H  H1664  1  0.246800  0.769300  0.602900  1.0
  H  H1665  1  0.602900  0.246800  0.769300  1.0
  H  H1666  1  0.897100  0.730700  0.253200  1.0
  H  H1667  1  0.730700  0.253200  0.897100  1.0
  H  H1668  1  0.253200  0.897100  0.730700  1.0
  H  H1669  1  0.244300  0.409800  0.699000  1.0
  H  H1670  1  0.699000  0.244300  0.409800  1.0
  H  H1671  1  0.409800  0.699000  0.244300  1.0
  H  H1672  1  0.090200  0.255700  0.801000  1.0
  H  H1673  1  0.255700  0.801000  0.090200  1.0
  H  H1674  1  0.801000  0.090200  0.255700  1.0
  H  H1675  1  0.755700  0.590200  0.301000  1.0
  H  H1676  1  0.301000  0.755700  0.590200  1.0
  H  H1677  1  0.590200  0.301000  0.755700  1.0
  H  H1678  1  0.909800  0.744300  0.199000  1.0
  H  H1679  1  0.744300  0.199000  0.909800  1.0
  H  H1680  1  0.199000  0.909800  0.744300  1.0
  H  H1681  1  0.420200  0.224300  0.705000  1.0
  H  H1682  1  0.705000  0.420200  0.224300  1.0
  H  H1683  1  0.224300  0.705000  0.420200  1.0
  H  H1684  1  0.275700  0.079800  0.795000  1.0
  H  H1685  1  0.079800  0.795000  0.275700  1.0
  H  H1686  1  0.795000  0.275700  0.079800  1.0
  H  H1687  1  0.579800  0.775700  0.295000  1.0
  H  H1688  1  0.295000  0.579800  0.775700  1.0
  H  H1689  1  0.775700  0.295000  0.579800  1.0
  H  H1690  1  0.724300  0.920200  0.205000  1.0
  H  H1691  1  0.920200  0.205000  0.724300  1.0
  H  H1692  1  0.205000  0.724300  0.920200  1.0
  H  H1693  1  0.464100  0.224400  0.575800  1.0
  H  H1694  1  0.575800  0.464100  0.224400  1.0
  H  H1695  1  0.224400  0.575800  0.464100  1.0
  H  H1696  1  0.275600  0.035900  0.924200  1.0
  H  H1697  1  0.035900  0.924200  0.275600  1.0
  H  H1698  1  0.924200  0.275600  0.035900  1.0
  H  H1699  1  0.535900  0.775600  0.424200  1.0
  H  H1700  1  0.424200  0.535900  0.775600  1.0
  H  H1701  1  0.775600  0.424200  0.535900  1.0
  H  H1702  1  0.724400  0.964100  0.075800  1.0
  H  H1703  1  0.964100  0.075800  0.724400  1.0
  H  H1704  1  0.075800  0.724400  0.964100  1.0
  H  H1705  1  0.404200  0.289300  0.559400  1.0
  H  H1706  1  0.559400  0.404200  0.289300  1.0
  H  H1707  1  0.289300  0.559400  0.404200  1.0
  H  H1708  1  0.210700  0.095800  0.940600  1.0
  H  H1709  1  0.095800  0.940600  0.210700  1.0
  H  H1710  1  0.940600  0.210700  0.095800  1.0
  H  H1711  1  0.595800  0.710700  0.440600  1.0
  H  H1712  1  0.440600  0.595800  0.710700  1.0
  H  H1713  1  0.710700  0.440600  0.595800  1.0
  H  H1714  1  0.789300  0.904200  0.059400  1.0
  H  H1715  1  0.904200  0.059400  0.789300  1.0
  H  H1716  1  0.059400  0.789300  0.904200  1.0
  H  H1717  1  0.012700  0.418900  0.004000  1.0
  H  H1718  1  0.004000  0.012700  0.418900  1.0
  H  H1719  1  0.418900  0.004000  0.012700  1.0
  H  H1720  1  0.081100  0.487300  0.496000  1.0
  H  H1721  1  0.487300  0.496000  0.081100  1.0
  H  H1722  1  0.496000  0.081100  0.487300  1.0
  H  H1723  1  0.987300  0.581100  0.996000  1.0
  H  H1724  1  0.996000  0.987300  0.581100  1.0
  H  H1725  1  0.581100  0.996000  0.987300  1.0
  H  H1726  1  0.918900  0.512700  0.504000  1.0
  H  H1727  1  0.512700  0.504000  0.918900  1.0
  H  H1728  1  0.504000  0.918900  0.512700  1.0
  H  H1729  1  0.082800  0.488100  0.008100  1.0
  H  H1730  1  0.008100  0.082800  0.488100  1.0
  H  H1731  1  0.488100  0.008100  0.082800  1.0
  H  H1732  1  0.011900  0.417200  0.491900  1.0
  H  H1733  1  0.417200  0.491900  0.011900  1.0
  H  H1734  1  0.491900  0.011900  0.417200  1.0
  H  H1735  1  0.917200  0.511900  0.991900  1.0
  H  H1736  1  0.991900  0.917200  0.511900  1.0
  H  H1737  1  0.511900  0.991900  0.917200  1.0
  H  H1738  1  0.988100  0.582800  0.508100  1.0
  H  H1739  1  0.582800  0.508100  0.988100  1.0
  H  H1740  1  0.508100  0.988100  0.582800  1.0
  H  H1741  1  0.105900  0.512200  0.929700  1.0
  H  H1742  1  0.929700  0.105900  0.512200  1.0
  H  H1743  1  0.512200  0.929700  0.105900  1.0
  H  H1744  1  0.987800  0.394100  0.570300  1.0
  H  H1745  1  0.394100  0.570300  0.987800  1.0
  H  H1746  1  0.570300  0.987800  0.394100  1.0
  H  H1747  1  0.894100  0.487800  0.070300  1.0
  H  H1748  1  0.070300  0.894100  0.487800  1.0
  H  H1749  1  0.487800  0.070300  0.894100  1.0
  H  H1750  1  0.012200  0.605900  0.429700  1.0
  H  H1751  1  0.605900  0.429700  0.012200  1.0
  H  H1752  1  0.429700  0.012200  0.605900  1.0
  H  H1753  1  0.980200  0.403200  0.877300  1.0
  H  H1754  1  0.877300  0.980200  0.403200  1.0
  H  H1755  1  0.403200  0.877300  0.980200  1.0
  H  H1756  1  0.096800  0.519800  0.622700  1.0
  H  H1757  1  0.519800  0.622700  0.096800  1.0
  H  H1758  1  0.622700  0.096800  0.519800  1.0
  H  H1759  1  0.019800  0.596800  0.122700  1.0
  H  H1760  1  0.122700  0.019800  0.596800  1.0
  H  H1761  1  0.596800  0.122700  0.019800  1.0
  H  H1762  1  0.903200  0.480200  0.377300  1.0
  H  H1763  1  0.480200  0.377300  0.903200  1.0
  H  H1764  1  0.377300  0.903200  0.480200  1.0
  H  H1765  1  0.986100  0.396700  0.952900  1.0
  H  H1766  1  0.952900  0.986100  0.396700  1.0
  H  H1767  1  0.396700  0.952900  0.986100  1.0
  H  H1768  1  0.103300  0.513900  0.547100  1.0
  H  H1769  1  0.513900  0.547100  0.103300  1.0
  H  H1770  1  0.547100  0.103300  0.513900  1.0
  H  H1771  1  0.013900  0.603300  0.047100  1.0
  H  H1772  1  0.047100  0.013900  0.603300  1.0
  H  H1773  1  0.603300  0.047100  0.013900  1.0
  H  H1774  1  0.896700  0.486100  0.452900  1.0
  H  H1775  1  0.486100  0.452900  0.896700  1.0
  H  H1776  1  0.452900  0.896700  0.486100  1.0
  H  H1777  1  0.020900  0.440000  0.788700  1.0
  H  H1778  1  0.788700  0.020900  0.440000  1.0
  H  H1779  1  0.440000  0.788700  0.020900  1.0
  H  H1780  1  0.060000  0.479100  0.711300  1.0
  H  H1781  1  0.479100  0.711300  0.060000  1.0
  H  H1782  1  0.711300  0.060000  0.479100  1.0
  H  H1783  1  0.979100  0.560000  0.211300  1.0
  H  H1784  1  0.211300  0.979100  0.560000  1.0
  H  H1785  1  0.560000  0.211300  0.979100  1.0
  H  H1786  1  0.940000  0.520900  0.288700  1.0
  H  H1787  1  0.520900  0.288700  0.940000  1.0
  H  H1788  1  0.288700  0.940000  0.520900  1.0
  H  H1789  1  0.049100  0.473400  0.779900  1.0
  H  H1790  1  0.779900  0.049100  0.473400  1.0
  H  H1791  1  0.473400  0.779900  0.049100  1.0
  H  H1792  1  0.026600  0.450900  0.720100  1.0
  H  H1793  1  0.450900  0.720100  0.026600  1.0
  H  H1794  1  0.720100  0.026600  0.450900  1.0
  H  H1795  1  0.950900  0.526600  0.220100  1.0
  H  H1796  1  0.220100  0.950900  0.526600  1.0
  H  H1797  1  0.526600  0.220100  0.950900  1.0
  H  H1798  1  0.973400  0.549100  0.279900  1.0
  H  H1799  1  0.549100  0.279900  0.973400  1.0
  H  H1800  1  0.279900  0.973400  0.549100  1.0
  H  H1801  1  0.956100  0.501600  0.860900  1.0
  H  H1802  1  0.860900  0.956100  0.501600  1.0
  H  H1803  1  0.501600  0.860900  0.956100  1.0
  H  H1804  1  0.998400  0.543900  0.639100  1.0
  H  H1805  1  0.543900  0.639100  0.998400  1.0
  H  H1806  1  0.639100  0.998400  0.543900  1.0
  H  H1807  1  0.043900  0.498400  0.139100  1.0
  H  H1808  1  0.139100  0.043900  0.498400  1.0
  H  H1809  1  0.498400  0.139100  0.043900  1.0
  H  H1810  1  0.001600  0.456100  0.360900  1.0
  H  H1811  1  0.456100  0.360900  0.001600  1.0
  H  H1812  1  0.360900  0.001600  0.456100  1.0
  H  H1813  1  0.890700  0.564300  0.858800  1.0
  H  H1814  1  0.858800  0.890700  0.564300  1.0
  H  H1815  1  0.564300  0.858800  0.890700  1.0
  H  H1816  1  0.935700  0.609300  0.641200  1.0
  H  H1817  1  0.609300  0.641200  0.935700  1.0
  H  H1818  1  0.641200  0.935700  0.609300  1.0
  H  H1819  1  0.109300  0.435700  0.141200  1.0
  H  H1820  1  0.141200  0.109300  0.435700  1.0
  H  H1821  1  0.435700  0.141200  0.109300  1.0
  H  H1822  1  0.064300  0.390700  0.358800  1.0
  H  H1823  1  0.390700  0.358800  0.064300  1.0
  H  H1824  1  0.358800  0.064300  0.390700  1.0
  H  H1825  1  0.874900  0.606500  0.791000  1.0
  H  H1826  1  0.791000  0.874900  0.606500  1.0
  H  H1827  1  0.606500  0.791000  0.874900  1.0
  H  H1828  1  0.893500  0.625100  0.709000  1.0
  H  H1829  1  0.625100  0.709000  0.893500  1.0
  H  H1830  1  0.709000  0.893500  0.625100  1.0
  H  H1831  1  0.125100  0.393500  0.209000  1.0
  H  H1832  1  0.209000  0.125100  0.393500  1.0
  H  H1833  1  0.393500  0.209000  0.125100  1.0
  H  H1834  1  0.106500  0.374900  0.291000  1.0
  H  H1835  1  0.374900  0.291000  0.106500  1.0
  H  H1836  1  0.291000  0.106500  0.374900  1.0
  H  H1837  1  0.248900  0.507200  0.813600  1.0
  H  H1838  1  0.813600  0.248900  0.507200  1.0
  H  H1839  1  0.507200  0.813600  0.248900  1.0
  H  H1840  1  0.992800  0.251100  0.686400  1.0
  H  H1841  1  0.251100  0.686400  0.992800  1.0
  H  H1842  1  0.686400  0.992800  0.251100  1.0
  H  H1843  1  0.751100  0.492800  0.186400  1.0
  H  H1844  1  0.186400  0.751100  0.492800  1.0
  H  H1845  1  0.492800  0.186400  0.751100  1.0
  H  H1846  1  0.007200  0.748900  0.313600  1.0
  H  H1847  1  0.748900  0.313600  0.007200  1.0
  H  H1848  1  0.313600  0.007200  0.748900  1.0
  H  H1849  1  0.160600  0.629700  0.807300  1.0
  H  H1850  1  0.807300  0.160600  0.629700  1.0
  H  H1851  1  0.629700  0.807300  0.160600  1.0
  H  H1852  1  0.870300  0.339400  0.692700  1.0
  H  H1853  1  0.339400  0.692700  0.870300  1.0
  H  H1854  1  0.692700  0.870300  0.339400  1.0
  H  H1855  1  0.839400  0.370300  0.192700  1.0
  H  H1856  1  0.192700  0.839400  0.370300  1.0
  H  H1857  1  0.370300  0.192700  0.839400  1.0
  H  H1858  1  0.129700  0.660600  0.307300  1.0
  H  H1859  1  0.660600  0.307300  0.129700  1.0
  H  H1860  1  0.307300  0.129700  0.660600  1.0
  H  H1861  1  0.101300  0.597300  0.825500  1.0
  H  H1862  1  0.825500  0.101300  0.597300  1.0
  H  H1863  1  0.597300  0.825500  0.101300  1.0
  H  H1864  1  0.902700  0.398700  0.674500  1.0
  H  H1865  1  0.398700  0.674500  0.902700  1.0
  H  H1866  1  0.674500  0.902700  0.398700  1.0
  H  H1867  1  0.898700  0.402700  0.174500  1.0
  H  H1868  1  0.174500  0.898700  0.402700  1.0
  H  H1869  1  0.402700  0.174500  0.898700  1.0
  H  H1870  1  0.097300  0.601300  0.325500  1.0
  H  H1871  1  0.601300  0.325500  0.097300  1.0
  H  H1872  1  0.325500  0.097300  0.601300  1.0
  H  H1873  1  0.234000  0.350600  0.858200  1.0
  H  H1874  1  0.858200  0.234000  0.350600  1.0
  H  H1875  1  0.350600  0.858200  0.234000  1.0
  H  H1876  1  0.149400  0.266000  0.641800  1.0
  H  H1877  1  0.266000  0.641800  0.149400  1.0
  H  H1878  1  0.641800  0.149400  0.266000  1.0
  H  H1879  1  0.766000  0.649400  0.141800  1.0
  H  H1880  1  0.141800  0.766000  0.649400  1.0
  H  H1881  1  0.649400  0.141800  0.766000  1.0
  H  H1882  1  0.850600  0.734000  0.358200  1.0
  H  H1883  1  0.734000  0.358200  0.850600  1.0
  H  H1884  1  0.358200  0.850600  0.734000  1.0
  H  H1885  1  0.261200  0.420100  0.833800  1.0
  H  H1886  1  0.833800  0.261200  0.420100  1.0
  H  H1887  1  0.420100  0.833800  0.261200  1.0
  H  H1888  1  0.079900  0.238800  0.666200  1.0
  H  H1889  1  0.238800  0.666200  0.079900  1.0
  H  H1890  1  0.666200  0.079900  0.238800  1.0
  H  H1891  1  0.738800  0.579900  0.166200  1.0
  H  H1892  1  0.166200  0.738800  0.579900  1.0
  H  H1893  1  0.579900  0.166200  0.738800  1.0
  H  H1894  1  0.920100  0.761200  0.333800  1.0
  H  H1895  1  0.761200  0.333800  0.920100  1.0
  H  H1896  1  0.333800  0.920100  0.761200  1.0
  H  H1897  1  0.154000  0.338900  0.866500  1.0
  H  H1898  1  0.866500  0.154000  0.338900  1.0
  H  H1899  1  0.338900  0.866500  0.154000  1.0
  H  H1900  1  0.161100  0.346000  0.633500  1.0
  H  H1901  1  0.346000  0.633500  0.161100  1.0
  H  H1902  1  0.633500  0.161100  0.346000  1.0
  H  H1903  1  0.846000  0.661100  0.133500  1.0
  H  H1904  1  0.133500  0.846000  0.661100  1.0
  H  H1905  1  0.661100  0.133500  0.846000  1.0
  H  H1906  1  0.838900  0.654000  0.366500  1.0
  H  H1907  1  0.654000  0.366500  0.838900  1.0
  H  H1908  1  0.366500  0.838900  0.654000  1.0
  H  H1909  1  0.110700  0.382700  0.868100  1.0
  H  H1910  1  0.868100  0.110700  0.382700  1.0
  H  H1911  1  0.382700  0.868100  0.110700  1.0
  H  H1912  1  0.117300  0.389300  0.631900  1.0
  H  H1913  1  0.389300  0.631900  0.117300  1.0
  H  H1914  1  0.631900  0.117300  0.389300  1.0
  H  H1915  1  0.889300  0.617300  0.131900  1.0
  H  H1916  1  0.131900  0.889300  0.617300  1.0
  H  H1917  1  0.617300  0.131900  0.889300  1.0
  H  H1918  1  0.882700  0.610700  0.368100  1.0
  H  H1919  1  0.610700  0.368100  0.882700  1.0
  H  H1920  1  0.368100  0.882700  0.610700  1.0
  H  H1921  1  0.322200  0.513800  0.603800  1.0
  H  H1922  1  0.603800  0.322200  0.513800  1.0
  H  H1923  1  0.513800  0.603800  0.322200  1.0
  H  H1924  1  0.986200  0.177800  0.896200  1.0
  H  H1925  1  0.177800  0.896200  0.986200  1.0
  H  H1926  1  0.896200  0.986200  0.177800  1.0
  H  H1927  1  0.677800  0.486200  0.396200  1.0
  H  H1928  1  0.396200  0.677800  0.486200  1.0
  H  H1929  1  0.486200  0.396200  0.677800  1.0
  H  H1930  1  0.013800  0.822200  0.103800  1.0
  H  H1931  1  0.822200  0.103800  0.013800  1.0
  H  H1932  1  0.103800  0.013800  0.822200  1.0
  H  H1933  1  0.445400  0.425600  0.598200  1.0
  H  H1934  1  0.598200  0.445400  0.425600  1.0
  H  H1935  1  0.425600  0.598200  0.445400  1.0
  H  H1936  1  0.074400  0.054600  0.901800  1.0
  H  H1937  1  0.054600  0.901800  0.074400  1.0
  H  H1938  1  0.901800  0.074400  0.054600  1.0
  H  H1939  1  0.554600  0.574400  0.401800  1.0
  H  H1940  1  0.401800  0.554600  0.574400  1.0
  H  H1941  1  0.574400  0.401800  0.554600  1.0
  H  H1942  1  0.925600  0.945400  0.098200  1.0
  H  H1943  1  0.945400  0.098200  0.925600  1.0
  H  H1944  1  0.098200  0.925600  0.945400  1.0
  H  H1945  1  0.416800  0.369500  0.604600  1.0
  H  H1946  1  0.604600  0.416800  0.369500  1.0
  H  H1947  1  0.369500  0.604600  0.416800  1.0
  H  H1948  1  0.130500  0.083200  0.895400  1.0
  H  H1949  1  0.083200  0.895400  0.130500  1.0
  H  H1950  1  0.895400  0.130500  0.083200  1.0
  H  H1951  1  0.583200  0.630500  0.395400  1.0
  H  H1952  1  0.395400  0.583200  0.630500  1.0
  H  H1953  1  0.630500  0.395400  0.583200  1.0
  H  H1954  1  0.869500  0.916800  0.104600  1.0
  H  H1955  1  0.916800  0.104600  0.869500  1.0
  H  H1956  1  0.104600  0.869500  0.916800  1.0
  H  H1957  1  0.176200  0.506400  0.604200  1.0
  H  H1958  1  0.604200  0.176200  0.506400  1.0
  H  H1959  1  0.506400  0.604200  0.176200  1.0
  H  H1960  1  0.993600  0.323800  0.895800  1.0
  H  H1961  1  0.323800  0.895800  0.993600  1.0
  H  H1962  1  0.895800  0.993600  0.323800  1.0
  H  H1963  1  0.823800  0.493600  0.395800  1.0
  H  H1964  1  0.395800  0.823800  0.493600  1.0
  H  H1965  1  0.493600  0.395800  0.823800  1.0
  H  H1966  1  0.006400  0.676200  0.104200  1.0
  H  H1967  1  0.676200  0.104200  0.006400  1.0
  H  H1968  1  0.104200  0.006400  0.676200  1.0
  H  H1969  1  0.240200  0.528800  0.603600  1.0
  H  H1970  1  0.603600  0.240200  0.528800  1.0
  H  H1971  1  0.528800  0.603600  0.240200  1.0
  H  H1972  1  0.971200  0.259800  0.896400  1.0
  H  H1973  1  0.259800  0.896400  0.971200  1.0
  H  H1974  1  0.896400  0.971200  0.259800  1.0
  H  H1975  1  0.759800  0.471200  0.396400  1.0
  H  H1976  1  0.396400  0.759800  0.471200  1.0
  H  H1977  1  0.471200  0.396400  0.759800  1.0
  H  H1978  1  0.028800  0.740200  0.103600  1.0
  H  H1979  1  0.740200  0.103600  0.028800  1.0
  H  H1980  1  0.103600  0.028800  0.740200  1.0
  H  H1981  1  0.163500  0.423400  0.623100  1.0
  H  H1982  1  0.623100  0.163500  0.423400  1.0
  H  H1983  1  0.423400  0.623100  0.163500  1.0
  H  H1984  1  0.076600  0.336500  0.876900  1.0
  H  H1985  1  0.336500  0.876900  0.076600  1.0
  H  H1986  1  0.876900  0.076600  0.336500  1.0
  H  H1987  1  0.836500  0.576600  0.376900  1.0
  H  H1988  1  0.376900  0.836500  0.576600  1.0
  H  H1989  1  0.576600  0.376900  0.836500  1.0
  H  H1990  1  0.923400  0.663500  0.123100  1.0
  H  H1991  1  0.663500  0.123100  0.923400  1.0
  H  H1992  1  0.123100  0.923400  0.663500  1.0
  H  H1993  1  0.208900  0.382200  0.618900  1.0
  H  H1994  1  0.618900  0.208900  0.382200  1.0
  H  H1995  1  0.382200  0.618900  0.208900  1.0
  H  H1996  1  0.117800  0.291100  0.881100  1.0
  H  H1997  1  0.291100  0.881100  0.117800  1.0
  H  H1998  1  0.881100  0.117800  0.291100  1.0
  H  H1999  1  0.791100  0.617800  0.381100  1.0
  H  H2000  1  0.381100  0.791100  0.617800  1.0
  H  H2001  1  0.617800  0.381100  0.791100  1.0
  H  H2002  1  0.882200  0.708900  0.118900  1.0
  H  H2003  1  0.708900  0.118900  0.882200  1.0
  H  H2004  1  0.118900  0.882200  0.708900  1.0
  H  H2005  1  0.238500  0.466500  0.532900  1.0
  H  H2006  1  0.532900  0.238500  0.466500  1.0
  H  H2007  1  0.466500  0.532900  0.238500  1.0
  H  H2008  1  0.033500  0.261500  0.967100  1.0
  H  H2009  1  0.261500  0.967100  0.033500  1.0
  H  H2010  1  0.967100  0.033500  0.261500  1.0
  H  H2011  1  0.761500  0.533500  0.467100  1.0
  H  H2012  1  0.467100  0.761500  0.533500  1.0
  H  H2013  1  0.533500  0.467100  0.761500  1.0
  H  H2014  1  0.966500  0.738500  0.032900  1.0
  H  H2015  1  0.738500  0.032900  0.966500  1.0
  H  H2016  1  0.032900  0.966500  0.738500  1.0
  H  H2017  1  0.247900  0.486800  0.454900  1.0
  H  H2018  1  0.454900  0.247900  0.486800  1.0
  H  H2019  1  0.486800  0.454900  0.247900  1.0
  H  H2020  1  0.013200  0.252100  0.045100  1.0
  H  H2021  1  0.252100  0.045100  0.013200  1.0
  H  H2022  1  0.045100  0.013200  0.252100  1.0
  H  H2023  1  0.752100  0.513200  0.545100  1.0
  H  H2024  1  0.545100  0.752100  0.513200  1.0
  H  H2025  1  0.513200  0.545100  0.752100  1.0
  H  H2026  1  0.986800  0.747900  0.954900  1.0
  H  H2027  1  0.747900  0.954900  0.986800  1.0
  H  H2028  1  0.954900  0.986800  0.747900  1.0
  H  H2029  1  0.217100  0.452800  0.428800  1.0
  H  H2030  1  0.428800  0.217100  0.452800  1.0
  H  H2031  1  0.452800  0.428800  0.217100  1.0
  H  H2032  1  0.047200  0.282900  0.071200  1.0
  H  H2033  1  0.282900  0.071200  0.047200  1.0
  H  H2034  1  0.071200  0.047200  0.282900  1.0
  H  H2035  1  0.782900  0.547200  0.571200  1.0
  H  H2036  1  0.571200  0.782900  0.547200  1.0
  H  H2037  1  0.547200  0.571200  0.782900  1.0
  H  H2038  1  0.952800  0.717100  0.928800  1.0
  H  H2039  1  0.717100  0.928800  0.952800  1.0
  H  H2040  1  0.928800  0.952800  0.717100  1.0
  H  H2041  1  0.176500  0.399100  0.441500  1.0
  H  H2042  1  0.441500  0.176500  0.399100  1.0
  H  H2043  1  0.399100  0.441500  0.176500  1.0
  H  H2044  1  0.100900  0.323500  0.058500  1.0
  H  H2045  1  0.323500  0.058500  0.100900  1.0
  H  H2046  1  0.058500  0.100900  0.323500  1.0
  H  H2047  1  0.823500  0.600900  0.558500  1.0
  H  H2048  1  0.558500  0.823500  0.600900  1.0
  H  H2049  1  0.600900  0.558500  0.823500  1.0
  H  H2050  1  0.899100  0.676500  0.941500  1.0
  H  H2051  1  0.676500  0.941500  0.899100  1.0
  H  H2052  1  0.941500  0.899100  0.676500  1.0
  H  H2053  1  0.132700  0.349700  0.489400  1.0
  H  H2054  1  0.489400  0.132700  0.349700  1.0
  H  H2055  1  0.349700  0.489400  0.132700  1.0
  H  H2056  1  0.150300  0.367300  0.010600  1.0
  H  H2057  1  0.367300  0.010600  0.150300  1.0
  H  H2058  1  0.010600  0.150300  0.367300  1.0
  H  H2059  1  0.867300  0.650300  0.510600  1.0
  H  H2060  1  0.510600  0.867300  0.650300  1.0
  H  H2061  1  0.650300  0.510600  0.867300  1.0
  H  H2062  1  0.849700  0.632700  0.989400  1.0
  H  H2063  1  0.632700  0.989400  0.849700  1.0
  H  H2064  1  0.989400  0.849700  0.632700  1.0
  H  H2065  1  0.111100  0.336800  0.569500  1.0
  H  H2066  1  0.569500  0.111100  0.336800  1.0
  H  H2067  1  0.336800  0.569500  0.111100  1.0
  H  H2068  1  0.163200  0.388900  0.930500  1.0
  H  H2069  1  0.388900  0.930500  0.163200  1.0
  H  H2070  1  0.930500  0.163200  0.388900  1.0
  H  H2071  1  0.888900  0.663200  0.430500  1.0
  H  H2072  1  0.430500  0.888900  0.663200  1.0
  H  H2073  1  0.663200  0.430500  0.888900  1.0
  H  H2074  1  0.836800  0.611100  0.069500  1.0
  H  H2075  1  0.611100  0.069500  0.836800  1.0
  H  H2076  1  0.069500  0.836800  0.611100  1.0
  H  H2077  1  0.294300  0.336000  0.486400  1.0
  H  H2078  1  0.486400  0.294300  0.336000  1.0
  H  H2079  1  0.336000  0.486400  0.294300  1.0
  H  H2080  1  0.164000  0.205700  0.013600  1.0
  H  H2081  1  0.205700  0.013600  0.164000  1.0
  H  H2082  1  0.013600  0.164000  0.205700  1.0
  H  H2083  1  0.705700  0.664000  0.513600  1.0
  H  H2084  1  0.513600  0.705700  0.664000  1.0
  H  H2085  1  0.664000  0.513600  0.705700  1.0
  H  H2086  1  0.836000  0.794300  0.986400  1.0
  H  H2087  1  0.794300  0.986400  0.836000  1.0
  H  H2088  1  0.986400  0.836000  0.794300  1.0
  H  H2089  1  0.362100  0.427800  0.439900  1.0
  H  H2090  1  0.439900  0.362100  0.427800  1.0
  H  H2091  1  0.427800  0.439900  0.362100  1.0
  H  H2092  1  0.072200  0.137900  0.060100  1.0
  H  H2093  1  0.137900  0.060100  0.072200  1.0
  H  H2094  1  0.060100  0.072200  0.137900  1.0
  H  H2095  1  0.637900  0.572200  0.560100  1.0
  H  H2096  1  0.560100  0.637900  0.572200  1.0
  H  H2097  1  0.572200  0.560100  0.637900  1.0
  H  H2098  1  0.927800  0.862100  0.939900  1.0
  H  H2099  1  0.862100  0.939900  0.927800  1.0
  H  H2100  1  0.939900  0.927800  0.862100  1.0
  H  H2101  1  0.361300  0.417000  0.513300  1.0
  H  H2102  1  0.513300  0.361300  0.417000  1.0
  H  H2103  1  0.417000  0.513300  0.361300  1.0
  H  H2104  1  0.083000  0.138700  0.986700  1.0
  H  H2105  1  0.138700  0.986700  0.083000  1.0
  H  H2106  1  0.986700  0.083000  0.138700  1.0
  H  H2107  1  0.638700  0.583000  0.486700  1.0
  H  H2108  1  0.486700  0.638700  0.583000  1.0
  H  H2109  1  0.583000  0.486700  0.638700  1.0
  H  H2110  1  0.917000  0.861300  0.013300  1.0
  H  H2111  1  0.861300  0.013300  0.917000  1.0
  H  H2112  1  0.013300  0.917000  0.861300  1.0
  H  H2113  1  0.226500  0.246800  0.642800  1.0
  H  H2114  1  0.642800  0.226500  0.246800  1.0
  H  H2115  1  0.246800  0.642800  0.226500  1.0
  H  H2116  1  0.253200  0.273500  0.857200  1.0
  H  H2117  1  0.273500  0.857200  0.253200  1.0
  H  H2118  1  0.857200  0.253200  0.273500  1.0
  H  H2119  1  0.773500  0.753200  0.357200  1.0
  H  H2120  1  0.357200  0.773500  0.753200  1.0
  H  H2121  1  0.753200  0.357200  0.773500  1.0
  H  H2122  1  0.746800  0.726500  0.142800  1.0
  H  H2123  1  0.726500  0.142800  0.746800  1.0
  H  H2124  1  0.142800  0.746800  0.726500  1.0
  H  H2125  1  0.250000  0.284000  0.560200  1.0
  H  H2126  1  0.560200  0.250000  0.284000  1.0
  H  H2127  1  0.284000  0.560200  0.250000  1.0
  H  H2128  1  0.216000  0.250000  0.939800  1.0
  H  H2129  1  0.250000  0.939800  0.216000  1.0
  H  H2130  1  0.939800  0.216000  0.250000  1.0
  H  H2131  1  0.750000  0.716000  0.439800  1.0
  H  H2132  1  0.439800  0.750000  0.716000  1.0
  H  H2133  1  0.716000  0.439800  0.750000  1.0
  H  H2134  1  0.784000  0.750000  0.060200  1.0
  H  H2135  1  0.750000  0.060200  0.784000  1.0
  H  H2136  1  0.060200  0.784000  0.750000  1.0
  H  H2137  1  0.230200  0.259300  0.717800  1.0
  H  H2138  1  0.717800  0.230200  0.259300  1.0
  H  H2139  1  0.259300  0.717800  0.230200  1.0
  H  H2140  1  0.240700  0.269800  0.782200  1.0
  H  H2141  1  0.269800  0.782200  0.240700  1.0
  H  H2142  1  0.782200  0.240700  0.269800  1.0
  H  H2143  1  0.769800  0.740700  0.282200  1.0
  H  H2144  1  0.282200  0.769800  0.740700  1.0
  H  H2145  1  0.740700  0.282200  0.769800  1.0
  H  H2146  1  0.759300  0.730200  0.217800  1.0
  H  H2147  1  0.730200  0.217800  0.759300  1.0
  H  H2148  1  0.217800  0.759300  0.730200  1.0
  H  H2149  1  0.262800  0.288900  0.707500  1.0
  H  H2150  1  0.707500  0.262800  0.288900  1.0
  H  H2151  1  0.288900  0.707500  0.262800  1.0
  H  H2152  1  0.211100  0.237200  0.792500  1.0
  H  H2153  1  0.237200  0.792500  0.211100  1.0
  H  H2154  1  0.792500  0.211100  0.237200  1.0
  H  H2155  1  0.737200  0.711100  0.292500  1.0
  H  H2156  1  0.292500  0.737200  0.711100  1.0
  H  H2157  1  0.711100  0.292500  0.737200  1.0
  H  H2158  1  0.788900  0.762800  0.207500  1.0
  H  H2159  1  0.762800  0.207500  0.788900  1.0
  H  H2160  1  0.207500  0.788900  0.762800  1.0
  H  H2161  1  0.323200  0.227000  0.637900  1.0
  H  H2162  1  0.637900  0.323200  0.227000  1.0
  H  H2163  1  0.227000  0.637900  0.323200  1.0
  H  H2164  1  0.273000  0.176800  0.862100  1.0
  H  H2165  1  0.176800  0.862100  0.273000  1.0
  H  H2166  1  0.862100  0.273000  0.176800  1.0
  H  H2167  1  0.676800  0.773000  0.362100  1.0
  H  H2168  1  0.362100  0.676800  0.773000  1.0
  H  H2169  1  0.773000  0.362100  0.676800  1.0
  H  H2170  1  0.727000  0.823200  0.137900  1.0
  H  H2171  1  0.823200  0.137900  0.727000  1.0
  H  H2172  1  0.137900  0.727000  0.823200  1.0
  H  H2173  1  0.382900  0.099400  0.791600  1.0
  H  H2174  1  0.791600  0.382900  0.099400  1.0
  H  H2175  1  0.099400  0.791600  0.382900  1.0
  H  H2176  1  0.400600  0.117100  0.708400  1.0
  H  H2177  1  0.117100  0.708400  0.400600  1.0
  H  H2178  1  0.708400  0.400600  0.117100  1.0
  H  H2179  1  0.617100  0.900600  0.208400  1.0
  H  H2180  1  0.208400  0.617100  0.900600  1.0
  H  H2181  1  0.900600  0.208400  0.617100  1.0
  H  H2182  1  0.599400  0.882900  0.291600  1.0
  H  H2183  1  0.882900  0.291600  0.599400  1.0
  H  H2184  1  0.291600  0.599400  0.882900  1.0
  H  H2185  1  0.384700  0.161400  0.640200  1.0
  H  H2186  1  0.640200  0.384700  0.161400  1.0
  H  H2187  1  0.161400  0.640200  0.384700  1.0
  H  H2188  1  0.338600  0.115300  0.859800  1.0
  H  H2189  1  0.115300  0.859800  0.338600  1.0
  H  H2190  1  0.859800  0.338600  0.115300  1.0
  H  H2191  1  0.615300  0.838600  0.359800  1.0
  H  H2192  1  0.359800  0.615300  0.838600  1.0
  H  H2193  1  0.838600  0.359800  0.615300  1.0
  H  H2194  1  0.661400  0.884700  0.140200  1.0
  H  H2195  1  0.884700  0.140200  0.661400  1.0
  H  H2196  1  0.140200  0.661400  0.884700  1.0
  N  N2197  1  0.033380  0.559280  0.837180  1.0
  N  N2198  1  0.837180  0.033380  0.559280  1.0
  N  N2199  1  0.559280  0.837180  0.033380  1.0
  N  N2200  1  0.940720  0.466620  0.662820  1.0
  N  N2201  1  0.466620  0.662820  0.940720  1.0
  N  N2202  1  0.662820  0.940720  0.466620  1.0
  N  N2203  1  0.966620  0.440720  0.162820  1.0
  N  N2204  1  0.162820  0.966620  0.440720  1.0
  N  N2205  1  0.440720  0.162820  0.966620  1.0
  N  N2206  1  0.059280  0.533380  0.337180  1.0
  N  N2207  1  0.533380  0.337180  0.059280  1.0
  N  N2208  1  0.337180  0.059280  0.533380  1.0
  N  N2209  1  0.958490  0.636290  0.816490  1.0
  N  N2210  1  0.816490  0.958490  0.636290  1.0
  N  N2211  1  0.636290  0.816490  0.958490  1.0
  N  N2212  1  0.863710  0.541510  0.683510  1.0
  N  N2213  1  0.541510  0.683510  0.863710  1.0
  N  N2214  1  0.683510  0.863710  0.541510  1.0
  N  N2215  1  0.041510  0.363710  0.183510  1.0
  N  N2216  1  0.183510  0.041510  0.363710  1.0
  N  N2217  1  0.363710  0.183510  0.041510  1.0
  N  N2218  1  0.136290  0.458490  0.316490  1.0
  N  N2219  1  0.458490  0.316490  0.136290  1.0
  N  N2220  1  0.316490  0.136290  0.458490  1.0
  N  N2221  1  0.099630  0.522330  0.771130  1.0
  N  N2222  1  0.771130  0.099630  0.522330  1.0
  N  N2223  1  0.522330  0.771130  0.099630  1.0
  N  N2224  1  0.977670  0.400370  0.728870  1.0
  N  N2225  1  0.400370  0.728870  0.977670  1.0
  N  N2226  1  0.728870  0.977670  0.400370  1.0
  N  N2227  1  0.900370  0.477670  0.228870  1.0
  N  N2228  1  0.228870  0.900370  0.477670  1.0
  N  N2229  1  0.477670  0.228870  0.900370  1.0
  N  N2230  1  0.022330  0.599630  0.271130  1.0
  N  N2231  1  0.599630  0.271130  0.022330  1.0
  N  N2232  1  0.271130  0.022330  0.599630  1.0
  N  N2233  1  0.128340  0.509940  0.732040  1.0
  N  N2234  1  0.732040  0.128340  0.509940  1.0
  N  N2235  1  0.509940  0.732040  0.128340  1.0
  N  N2236  1  0.990060  0.371660  0.767960  1.0
  N  N2237  1  0.371660  0.767960  0.990060  1.0
  N  N2238  1  0.767960  0.990060  0.371660  1.0
  N  N2239  1  0.871660  0.490060  0.267960  1.0
  N  N2240  1  0.267960  0.871660  0.490060  1.0
  N  N2241  1  0.490060  0.267960  0.871660  1.0
  N  N2242  1  0.009940  0.628340  0.232040  1.0
  N  N2243  1  0.628340  0.232040  0.009940  1.0
  N  N2244  1  0.232040  0.009940  0.628340  1.0
  N  N2245  1  0.315390  0.338690  0.686990  1.0
  N  N2246  1  0.686990  0.315390  0.338690  1.0
  N  N2247  1  0.338690  0.686990  0.315390  1.0
  N  N2248  1  0.161310  0.184610  0.813010  1.0
  N  N2249  1  0.184610  0.813010  0.161310  1.0
  N  N2250  1  0.813010  0.161310  0.184610  1.0
  N  N2251  1  0.684610  0.661310  0.313010  1.0
  N  N2252  1  0.313010  0.684610  0.661310  1.0
  N  N2253  1  0.661310  0.313010  0.684610  1.0
  N  N2254  1  0.838690  0.815390  0.186990  1.0
  N  N2255  1  0.815390  0.186990  0.838690  1.0
  N  N2256  1  0.186990  0.838690  0.815390  1.0
  N  N2257  1  0.288000  0.351500  0.726800  1.0
  N  N2258  1  0.726800  0.288000  0.351500  1.0
  N  N2259  1  0.351500  0.726800  0.288000  1.0
  N  N2260  1  0.148500  0.212000  0.773200  1.0
  N  N2261  1  0.212000  0.773200  0.148500  1.0
  N  N2262  1  0.773200  0.148500  0.212000  1.0
  N  N2263  1  0.712000  0.648500  0.273200  1.0
  N  N2264  1  0.273200  0.712000  0.648500  1.0
  N  N2265  1  0.648500  0.273200  0.712000  1.0
  N  N2266  1  0.851500  0.788000  0.226800  1.0
  N  N2267  1  0.788000  0.226800  0.851500  1.0
  N  N2268  1  0.226800  0.851500  0.788000  1.0
  N  N2269  1  0.376430  0.298030  0.622330  1.0
  N  N2270  1  0.622330  0.376430  0.298030  1.0
  N  N2271  1  0.298030  0.622330  0.376430  1.0
  N  N2272  1  0.201970  0.123570  0.877670  1.0
  N  N2273  1  0.123570  0.877670  0.201970  1.0
  N  N2274  1  0.877670  0.201970  0.123570  1.0
  N  N2275  1  0.623570  0.701970  0.377670  1.0
  N  N2276  1  0.377670  0.623570  0.701970  1.0
  N  N2277  1  0.701970  0.377670  0.623570  1.0
  N  N2278  1  0.798030  0.876430  0.122330  1.0
  N  N2279  1  0.876430  0.122330  0.798030  1.0
  N  N2280  1  0.122330  0.798030  0.876430  1.0
  N  N2281  1  0.449040  0.217840  0.641940  1.0
  N  N2282  1  0.641940  0.449040  0.217840  1.0
  N  N2283  1  0.217840  0.641940  0.449040  1.0
  N  N2284  1  0.282160  0.050960  0.858060  1.0
  N  N2285  1  0.050960  0.858060  0.282160  1.0
  N  N2286  1  0.858060  0.282160  0.050960  1.0
  N  N2287  1  0.550960  0.782160  0.358060  1.0
  N  N2288  1  0.358060  0.550960  0.782160  1.0
  N  N2289  1  0.782160  0.358060  0.550960  1.0
  N  N2290  1  0.717840  0.949040  0.141940  1.0
  N  N2291  1  0.949040  0.141940  0.717840  1.0
  N  N2292  1  0.141940  0.717840  0.949040  1.0
  N  N2293  1  0.072140  0.481040  0.918240  1.0
  N  N2294  1  0.918240  0.072140  0.481040  1.0
  N  N2295  1  0.481040  0.918240  0.072140  1.0
  N  N2296  1  0.018960  0.427860  0.581760  1.0
  N  N2297  1  0.427860  0.581760  0.018960  1.0
  N  N2298  1  0.581760  0.018960  0.427860  1.0
  N  N2299  1  0.927860  0.518960  0.081760  1.0
  N  N2300  1  0.081760  0.927860  0.518960  1.0
  N  N2301  1  0.518960  0.081760  0.927860  1.0
  N  N2302  1  0.981040  0.572140  0.418240  1.0
  N  N2303  1  0.572140  0.418240  0.981040  1.0
  N  N2304  1  0.418240  0.981040  0.572140  1.0
  N  N2305  1  0.045160  0.451660  0.014260  1.0
  N  N2306  1  0.014260  0.045160  0.451660  1.0
  N  N2307  1  0.451660  0.014260  0.045160  1.0
  N  N2308  1  0.048340  0.454840  0.485740  1.0
  N  N2309  1  0.454840  0.485740  0.048340  1.0
  N  N2310  1  0.485740  0.048340  0.454840  1.0
  N  N2311  1  0.954840  0.548340  0.985740  1.0
  N  N2312  1  0.985740  0.954840  0.548340  1.0
  N  N2313  1  0.548340  0.985740  0.954840  1.0
  N  N2314  1  0.951660  0.545160  0.514260  1.0
  N  N2315  1  0.545160  0.514260  0.951660  1.0
  N  N2316  1  0.514260  0.951660  0.545160  1.0
  N  N2317  1  0.043160  0.459560  0.865560  1.0
  N  N2318  1  0.865560  0.043160  0.459560  1.0
  N  N2319  1  0.459560  0.865560  0.043160  1.0
  N  N2320  1  0.040440  0.456840  0.634440  1.0
  N  N2321  1  0.456840  0.634440  0.040440  1.0
  N  N2322  1  0.634440  0.040440  0.456840  1.0
  N  N2323  1  0.956840  0.540440  0.134440  1.0
  N  N2324  1  0.134440  0.956840  0.540440  1.0
  N  N2325  1  0.540440  0.134440  0.956840  1.0
  N  N2326  1  0.959560  0.543160  0.365560  1.0
  N  N2327  1  0.543160  0.365560  0.959560  1.0
  N  N2328  1  0.365560  0.959560  0.543160  1.0
  N  N2329  1  0.023170  0.443870  0.847870  1.0
  N  N2330  1  0.847870  0.023170  0.443870  1.0
  N  N2331  1  0.443870  0.847870  0.023170  1.0
  N  N2332  1  0.056130  0.476830  0.652130  1.0
  N  N2333  1  0.476830  0.652130  0.056130  1.0
  N  N2334  1  0.652130  0.056130  0.476830  1.0
  N  N2335  1  0.976830  0.556130  0.152130  1.0
  N  N2336  1  0.152130  0.976830  0.556130  1.0
  N  N2337  1  0.556130  0.152130  0.976830  1.0
  N  N2338  1  0.943870  0.523170  0.347870  1.0
  N  N2339  1  0.523170  0.347870  0.943870  1.0
  N  N2340  1  0.347870  0.943870  0.523170  1.0
  N  N2341  1  0.139520  0.533220  0.831320  1.0
  N  N2342  1  0.831320  0.139520  0.533220  1.0
  N  N2343  1  0.533220  0.831320  0.139520  1.0
  N  N2344  1  0.966780  0.360480  0.668680  1.0
  N  N2345  1  0.360480  0.668680  0.966780  1.0
  N  N2346  1  0.668680  0.966780  0.360480  1.0
  N  N2347  1  0.860480  0.466780  0.168680  1.0
  N  N2348  1  0.168680  0.860480  0.466780  1.0
  N  N2349  1  0.466780  0.168680  0.860480  1.0
  N  N2350  1  0.033220  0.639520  0.331320  1.0
  N  N2351  1  0.639520  0.331320  0.033220  1.0
  N  N2352  1  0.331320  0.033220  0.639520  1.0
  N  N2353  1  0.211100  0.571700  0.808500  1.0
  N  N2354  1  0.808500  0.211100  0.571700  1.0
  N  N2355  1  0.571700  0.808500  0.211100  1.0
  N  N2356  1  0.928300  0.288900  0.691500  1.0
  N  N2357  1  0.288900  0.691500  0.928300  1.0
  N  N2358  1  0.691500  0.928300  0.288900  1.0
  N  N2359  1  0.788900  0.428300  0.191500  1.0
  N  N2360  1  0.191500  0.788900  0.428300  1.0
  N  N2361  1  0.428300  0.191500  0.788900  1.0
  N  N2362  1  0.071700  0.711100  0.308500  1.0
  N  N2363  1  0.711100  0.308500  0.071700  1.0
  N  N2364  1  0.308500  0.071700  0.711100  1.0
  N  N2365  1  0.153870  0.443070  0.847870  1.0
  N  N2366  1  0.847870  0.153870  0.443070  1.0
  N  N2367  1  0.443070  0.847870  0.153870  1.0
  N  N2368  1  0.056930  0.346130  0.652130  1.0
  N  N2369  1  0.346130  0.652130  0.056930  1.0
  N  N2370  1  0.652130  0.056930  0.346130  1.0
  N  N2371  1  0.846130  0.556930  0.152130  1.0
  N  N2372  1  0.152130  0.846130  0.556930  1.0
  N  N2373  1  0.556930  0.152130  0.846130  1.0
  N  N2374  1  0.943070  0.653870  0.347870  1.0
  N  N2375  1  0.653870  0.347870  0.943070  1.0
  N  N2376  1  0.347870  0.943070  0.653870  1.0
  N  N2377  1  0.169670  0.395870  0.856470  1.0
  N  N2378  1  0.856470  0.169670  0.395870  1.0
  N  N2379  1  0.395870  0.856470  0.169670  1.0
  N  N2380  1  0.104130  0.330330  0.643530  1.0
  N  N2381  1  0.330330  0.643530  0.104130  1.0
  N  N2382  1  0.643530  0.104130  0.330330  1.0
  N  N2383  1  0.830330  0.604130  0.143530  1.0
  N  N2384  1  0.143530  0.830330  0.604130  1.0
  N  N2385  1  0.604130  0.143530  0.830330  1.0
  N  N2386  1  0.895870  0.669670  0.356470  1.0
  N  N2387  1  0.669670  0.356470  0.895870  1.0
  N  N2388  1  0.356470  0.895870  0.669670  1.0
  N  N2389  1  0.353370  0.406870  0.606870  1.0
  N  N2390  1  0.606870  0.353370  0.406870  1.0
  N  N2391  1  0.406870  0.606870  0.353370  1.0
  N  N2392  1  0.093130  0.146630  0.893130  1.0
  N  N2393  1  0.146630  0.893130  0.093130  1.0
  N  N2394  1  0.893130  0.093130  0.146630  1.0
  N  N2395  1  0.646630  0.593130  0.393130  1.0
  N  N2396  1  0.393130  0.646630  0.593130  1.0
  N  N2397  1  0.593130  0.393130  0.646630  1.0
  N  N2398  1  0.906870  0.853370  0.106870  1.0
  N  N2399  1  0.853370  0.106870  0.906870  1.0
  N  N2400  1  0.106870  0.906870  0.853370  1.0
  N  N2401  1  0.387170  0.476370  0.600470  1.0
  N  N2402  1  0.600470  0.387170  0.476370  1.0
  N  N2403  1  0.476370  0.600470  0.387170  1.0
  N  N2404  1  0.023630  0.112830  0.899530  1.0
  N  N2405  1  0.112830  0.899530  0.023630  1.0
  N  N2406  1  0.899530  0.023630  0.112830  1.0
  N  N2407  1  0.612830  0.523630  0.399530  1.0
  N  N2408  1  0.399530  0.612830  0.523630  1.0
  N  N2409  1  0.523630  0.399530  0.612830  1.0
  N  N2410  1  0.976370  0.887170  0.100470  1.0
  N  N2411  1  0.887170  0.100470  0.976370  1.0
  N  N2412  1  0.100470  0.976370  0.887170  1.0
  N  N2413  1  0.264650  0.422750  0.611850  1.0
  N  N2414  1  0.611850  0.264650  0.422750  1.0
  N  N2415  1  0.422750  0.611850  0.264650  1.0
  N  N2416  1  0.077250  0.235350  0.888150  1.0
  N  N2417  1  0.235350  0.888150  0.077250  1.0
  N  N2418  1  0.888150  0.077250  0.235350  1.0
  N  N2419  1  0.735350  0.577250  0.388150  1.0
  N  N2420  1  0.388150  0.735350  0.577250  1.0
  N  N2421  1  0.577250  0.388150  0.735350  1.0
  N  N2422  1  0.922750  0.764650  0.111850  1.0
  N  N2423  1  0.764650  0.111850  0.922750  1.0
  N  N2424  1  0.111850  0.922750  0.764650  1.0
  N  N2425  1  0.219880  0.441080  0.610780  1.0
  N  N2426  1  0.610780  0.219880  0.441080  1.0
  N  N2427  1  0.441080  0.610780  0.219880  1.0
  N  N2428  1  0.058920  0.280120  0.889220  1.0
  N  N2429  1  0.280120  0.889220  0.058920  1.0
  N  N2430  1  0.889220  0.058920  0.280120  1.0
  N  N2431  1  0.780120  0.558920  0.389220  1.0
  N  N2432  1  0.389220  0.780120  0.558920  1.0
  N  N2433  1  0.558920  0.389220  0.780120  1.0
  N  N2434  1  0.941080  0.719880  0.110780  1.0
  N  N2435  1  0.719880  0.110780  0.941080  1.0
  N  N2436  1  0.110780  0.941080  0.719880  1.0
  N  N2437  1  0.326210  0.370510  0.544810  1.0
  N  N2438  1  0.544810  0.326210  0.370510  1.0
  N  N2439  1  0.370510  0.544810  0.326210  1.0
  N  N2440  1  0.129490  0.173790  0.955190  1.0
  N  N2441  1  0.173790  0.955190  0.129490  1.0
  N  N2442  1  0.955190  0.129490  0.173790  1.0
  N  N2443  1  0.673790  0.629490  0.455190  1.0
  N  N2444  1  0.455190  0.673790  0.629490  1.0
  N  N2445  1  0.629490  0.455190  0.673790  1.0
  N  N2446  1  0.870510  0.826210  0.044810  1.0
  N  N2447  1  0.826210  0.044810  0.870510  1.0
  N  N2448  1  0.044810  0.870510  0.826210  1.0
  N  N2449  1  0.327940  0.383440  0.454940  1.0
  N  N2450  1  0.454940  0.327940  0.383440  1.0
  N  N2451  1  0.383440  0.454940  0.327940  1.0
  N  N2452  1  0.116560  0.172060  0.045060  1.0
  N  N2453  1  0.172060  0.045060  0.116560  1.0
  N  N2454  1  0.045060  0.116560  0.172060  1.0
  N  N2455  1  0.672060  0.616560  0.545060  1.0
  N  N2456  1  0.545060  0.672060  0.616560  1.0
  N  N2457  1  0.616560  0.545060  0.672060  1.0
  N  N2458  1  0.883440  0.827940  0.954940  1.0
  N  N2459  1  0.827940  0.954940  0.883440  1.0
  N  N2460  1  0.954940  0.883440  0.827940  1.0
  N  N2461  1  0.282360  0.315260  0.619160  1.0
  N  N2462  1  0.619160  0.282360  0.315260  1.0
  N  N2463  1  0.315260  0.619160  0.282360  1.0
  N  N2464  1  0.184740  0.217640  0.880840  1.0
  N  N2465  1  0.217640  0.880840  0.184740  1.0
  N  N2466  1  0.880840  0.184740  0.217640  1.0
  N  N2467  1  0.717640  0.684740  0.380840  1.0
  N  N2468  1  0.380840  0.717640  0.684740  1.0
  N  N2469  1  0.684740  0.380840  0.717640  1.0
  N  N2470  1  0.815260  0.782360  0.119160  1.0
  N  N2471  1  0.782360  0.119160  0.815260  1.0
  N  N2472  1  0.119160  0.815260  0.782360  1.0
  N  N2473  1  0.257760  0.285060  0.650860  1.0
  N  N2474  1  0.650860  0.257760  0.285060  1.0
  N  N2475  1  0.285060  0.650860  0.257760  1.0
  N  N2476  1  0.214940  0.242240  0.849140  1.0
  N  N2477  1  0.242240  0.849140  0.214940  1.0
  N  N2478  1  0.849140  0.214940  0.242240  1.0
  N  N2479  1  0.742240  0.714940  0.349140  1.0
  N  N2480  1  0.349140  0.742240  0.714940  1.0
  N  N2481  1  0.714940  0.349140  0.742240  1.0
  N  N2482  1  0.785060  0.757760  0.150860  1.0
  N  N2483  1  0.757760  0.150860  0.785060  1.0
  N  N2484  1  0.150860  0.785060  0.757760  1.0
  O  O2485  1  0.691270  0.439470  0.952870  1
  O  O2486  1  0.952870  0.691270  0.439470  1
  O  O2487  1  0.439470  0.952870  0.691270  1
  O  O2488  1  0.060530  0.808730  0.547130  1
  O  O2489  1  0.808730  0.547130  0.060530  1
  O  O2490  1  0.547130  0.060530  0.808730  1
  O  O2491  1  0.308730  0.560530  0.047130  1
  O  O2492  1  0.047130  0.308730  0.560530  1
  O  O2493  1  0.560530  0.047130  0.308730  1
  O  O2494  1  0.939470  0.191270  0.452870  1
  O  O2495  1  0.191270  0.452870  0.939470  1
  O  O2496  1  0.452870  0.939470  0.191270  1
  O  O2497  1  0.757300  0.457100  0.926000  1
  O  O2498  1  0.926000  0.757300  0.457100  1
  O  O2499  1  0.457100  0.926000  0.757300  1
  O  O2500  1  0.042900  0.742700  0.574000  1
  O  O2501  1  0.742700  0.574000  0.042900  1
  O  O2502  1  0.574000  0.042900  0.742700  1
  O  O2503  1  0.242700  0.542900  0.074000  1
  O  O2504  1  0.074000  0.242700  0.542900  1
  O  O2505  1  0.542900  0.074000  0.242700  1
  O  O2506  1  0.957100  0.257300  0.426000  1
  O  O2507  1  0.257300  0.426000  0.957100  1
  O  O2508  1  0.426000  0.957100  0.257300  1
  O  O2509  1  0.367260  0.914460  0.917360  1
  O  O2510  1  0.917360  0.367260  0.914460  1
  O  O2511  1  0.914460  0.917360  0.367260  1
  O  O2512  1  0.585540  0.132740  0.582640  1
  O  O2513  1  0.132740  0.582640  0.585540  1
  O  O2514  1  0.582640  0.585540  0.132740  1
  O  O2515  1  0.632740  0.085540  0.082640  1
  O  O2516  1  0.082640  0.632740  0.085540  1
  O  O2517  1  0.085540  0.082640  0.632740  1
  O  O2518  1  0.414460  0.867260  0.417360  1
  O  O2519  1  0.867260  0.417360  0.414460  1
  O  O2520  1  0.417360  0.414460  0.867260  1
  O  O2521  1  0.386080  0.964880  0.847580  1
  O  O2522  1  0.847580  0.386080  0.964880  1
  O  O2523  1  0.964880  0.847580  0.386080  1
  O  O2524  1  0.535120  0.113920  0.652420  1
  O  O2525  1  0.113920  0.652420  0.535120  1
  O  O2526  1  0.652420  0.535120  0.113920  1
  O  O2527  1  0.613920  0.035120  0.152420  1
  O  O2528  1  0.152420  0.613920  0.035120  1
  O  O2529  1  0.035120  0.152420  0.613920  1
  O  O2530  1  0.464880  0.886080  0.347580  1
  O  O2531  1  0.886080  0.347580  0.464880  1
  O  O2532  1  0.347580  0.464880  0.886080  1
  O  O2533  1  0.059100  0.059100  0.059100  1
  O  O2534  1  0.440900  0.440900  0.440900  1
  O  O2535  1  0.940900  0.940900  0.940900  1
  O  O2536  1  0.559100  0.559100  0.559100  1
  O  O2537  1  0.007600  0.007600  0.007600  1
  O  O2538  1  0.492400  0.492400  0.492400  1
  O  O2539  1  0.992400  0.992400  0.992400  1
  O  O2540  1  0.507600  0.507600  0.507600  1
  Si  Si2541  1  0.137704  0.362318  0.750011  1
  Si  Si2542  1  0.750011  0.137704  0.362318  1
  Si  Si2543  1  0.362318  0.750011  0.137704  1
  Si  Si2544  1  0.862296  0.637682  0.249989  1
  Si  Si2545  1  0.249989  0.862296  0.637682  1
  Si  Si2546  1  0.637682  0.249989  0.862296  1
