
#######################################################################
#
#                 Cambridge Crystallographic Data Centre
#                                CCDC 
#
#######################################################################
#
# If this CIF has been generated from an entry in the Cambridge 
# Structural Database, then it will include bibliographic, chemical, 
# crystal, experimental, refinement or atomic coordinate data resulting 
# from the CCDC's data processing and validation procedures.
#
#######################################################################

data_XEHBOD
_chemical_formula_moiety         
'C168 H132 Co4 N48 8+,C4 H8 O2,8(B1 F4 1-),3(C2 H3 N1)'
_chemical_name_systematic        
"hexakis(\m~2~-2,2'-(Biphenyl-3,3'-diylbis(methanediyl-1H-pyrazole-1,3-diyl))dipyrazine)-tetra-cobalt octakis(tetrafluoroborate) acetonitrile ethyl acetate solvate"
_symmetry_cell_setting           monoclinic
_symmetry_space_group_name_H-M   'P 21/c'
_symmetry_Int_Tables_number      14
_space_group_name_Hall           '-P 2ybc'
loop_
_symmetry_equiv_pos_site_id
_symmetry_equiv_pos_as_xyz
1 x,y,z
2 -x,1/2+y,1/2-z
3 -x,-y,-z
4 x,1/2-y,1/2+z
_cell_length_a                   18.9964(5)
_cell_length_b                   36.4219(8)
_cell_length_c                   33.8056(8)
_cell_angle_alpha                90
_cell_angle_beta                 95.5360(10)
_cell_angle_gamma                90
_cell_volume                     23280.5
_exptl_crystal_colour            yellow
_exptl_crystal_description       block
_cell_formula_units_Z            4
loop_
_atom_site_label
_atom_site_type_symbol
_atom_site_fract_x
_atom_site_fract_y
_atom_site_fract_z
Co1 Co 1.21256(4) 0.65888(2) 0.15766(2)
Co2 Co 0.64626(4) 0.74414(2) 0.12815(2)
Co3 Co 1.00807(5) 0.87682(2) 0.38606(2)
Co4 Co 0.77720(6) 0.55938(3) 0.38197(3)
N1 N 1.3166(3) 0.65225(15) 0.13568(16)
C1 C 1.3688(4) 0.6290(2) 0.1489(2)
H1 H 1.3628 0.6146 0.1711
C2 C 1.4293(4) 0.6258(2) 0.1314(2)
H2 H 1.4623 0.6082 0.1407
N2 N 1.4434(3) 0.6474(2) 0.1007(2)
C3 C 1.3917(4) 0.6708(2) 0.0871(2)
H3 H 1.3984 0.6860 0.0657
C4 C 1.3272(4) 0.67266(19) 0.1049(2)
N3 N 1.2078(3) 0.69105(14) 0.10425(16)
N4 N 1.1622(3) 0.71538(14) 0.08480(15)
C5 C 1.1939(4) 0.7346(2) 0.0582(2)
H4 H 1.1727 0.7525 0.0414
C6 C 1.2643(4) 0.7235(2) 0.0597(2)
H5 H 1.2997 0.7322 0.0450
C7 C 1.2687(4) 0.6962(2) 0.0887(2)
C8 C 1.0869(3) 0.71491(18) 0.0909(2)
H6 H 1.0649 0.7371 0.0797
H7 H 1.0820 0.7149 0.1192
N5 N 0.5395(3) 0.73886(14) 0.14427(15)
C9 C 0.4872(4) 0.7627(2) 0.1366(2)
H8 H 0.4942 0.7836 0.1216
C10 C 0.4224(4) 0.7567(2) 0.1506(2)
H9 H 0.3867 0.7736 0.1439
N6 N 0.4077(3) 0.72818(16) 0.17303(18)
C11 C 0.4617(3) 0.70482(19) 0.18078(19)
H10 H 0.4550 0.6843 0.1963
C12 C 0.5275(3) 0.71000(18) 0.16650(19)
N7 N 0.6488(3) 0.69450(14) 0.16261(14)
N8 N 0.6927(3) 0.66572(14) 0.17283(15)
C13 C 0.6580(4) 0.63839(18) 0.19023(19)
H11 H 0.6770 0.6160 0.1992
C14 C 0.5894(4) 0.65001(17) 0.19208(19)
H12 H 0.5532 0.6374 0.2029
C15 C 0.5856(3) 0.68470(17) 0.17422(17)
C16 C 0.7650(3) 0.66578(18) 0.16420(18)
H13 H 0.7923 0.6510 0.1840
H14 H 0.7829 0.6907 0.1667
C17 C 0.7774(3) 0.65148(17) 0.12359(19)
C18 C 0.7267(3) 0.63585(18) 0.09732(19)
H15 H 0.6807 0.6330 0.1041
C19 C 0.7443(3) 0.62443(18) 0.0608(2)
H16 H 0.7095 0.6142 0.0429
C20 C 0.8113(3) 0.62761(17) 0.0500(2)
H17 H 0.8214 0.6192 0.0252
C21 C 0.8653(3) 0.64338(17) 0.07561(17)
C22 C 0.8465(3) 0.65523(17) 0.11286(18)
H18 H 0.8809 0.6658 0.1308
C23 C 1.0484(3) 0.68210(16) 0.07221(18)
C24 C 0.9792(3) 0.67672(17) 0.08059(17)
H19 H 0.9598 0.6931 0.0976
C25 C 0.9376(3) 0.64813(16) 0.06483(17)
C26 C 0.9671(3) 0.62496(17) 0.03837(18)
H20 H 0.9400 0.6059 0.0265
C27 C 1.0354(4) 0.62964(18) 0.02938(19)
H21 H 1.0545 0.6134 0.0121
C28 C 1.0766(3) 0.65855(17) 0.04587(17)
H22 H 1.1225 0.6619 0.0392
N9 N 1.1758(3) 0.61131(13) 0.12455(14)
C29 C 1.2089(3) 0.59358(18) 0.09762(19)
H23 H 1.2549 0.6002 0.0934
C30 C 1.1754(4) 0.56466(18) 0.07517(19)
H24 H 1.2003 0.5524 0.0568
N10 N 1.1099(3) 0.55462(14) 0.07955(16)
C31 C 1.0754(4) 0.57357(18) 0.10665(19)
H25 H 1.0290 0.5675 0.1105
C32 C 1.1093(3) 0.60189(16) 0.12866(19)
N11 N 1.1037(3) 0.65516(15) 0.16948(15)
N12 N 1.0578(3) 0.67125(15) 0.19286(15)
C33 C 1.0000(4) 0.65057(19) 0.19423(19)
H26 H 0.9615 0.6560 0.2082
C34 C 1.0075(3) 0.62003(19) 0.17141(19)
H27 H 0.9759 0.6007 0.1670
C35 C 1.0728(3) 0.62417(16) 0.15628(18)
C36 C 1.0673(4) 0.70930(18) 0.2078(2)
H28 H 1.0209 0.7202 0.2088
H29 H 1.0913 0.7232 0.1887
N13 N 0.9453(3) 0.84740(15) 0.42470(16)
C37 C 0.8782(4) 0.8522(2) 0.4295(2)
H30 H 0.8534 0.8710 0.4157
C38 C 0.8427(5) 0.8296(3) 0.4551(2)
H31 H 0.7951 0.8337 0.4576
N14 N 0.8754(5) 0.80267(18) 0.47547(18)
C39 C 0.9423(5) 0.79828(19) 0.4712(2)
H32 H 0.9669 0.7799 0.4857
C40 C 0.9792(4) 0.82022(18) 0.44552(18)
N15 N 1.0836(3) 0.84204(14) 0.41803(16)
N16 N 1.1535(4) 0.83509(16) 0.42169(16)
C41 C 1.1689(5) 0.8064(2) 0.4470(2)
H33 H 1.2136 0.7966 0.4539
C42 C 1.1082(5) 0.7948(2) 0.4599(2)
H34 H 1.1027 0.7756 0.4774
C43 C 1.0548(4) 0.81727(18) 0.44208(18)
C44 C 1.2024(4) 0.8550(2) 0.3998(2)
H35 H 1.2498 0.8521 0.4129
H36 H 1.1908 0.8809 0.4002
C45 C 1.2020(4) 0.8426(2) 0.3569(2)
C46 C 1.2248(4) 0.8671(2) 0.3293(2)
H37 H 1.2403 0.8905 0.3369
C47 C 1.2236(4) 0.8557(2) 0.2904(2)
H38 H 1.2373 0.8720 0.2715
C48 C 1.2025(4) 0.8205(2) 0.2787(2)
H39 H 1.2025 0.8135 0.2523
C49 C 1.1812(4) 0.79558(18) 0.3069(2)
C50 C 1.1819(4) 0.80777(19) 0.3457(2)
H40 H 1.1681 0.7917 0.3649
C51 C 1.1075(4) 0.71358(19) 0.24762(18)
C52 C 1.1235(4) 0.6853(2) 0.2739(2)
H41 H 1.1096 0.6614 0.2672
C53 C 1.1603(4) 0.6923(2) 0.3105(2)
H42 H 1.1720 0.6730 0.3278
C54 C 1.1801(4) 0.72776(19) 0.3219(2)
H43 H 1.2051 0.7321 0.3464
C55 C 1.1621(4) 0.75686(19) 0.29583(19)
C56 C 1.1267(3) 0.74928(18) 0.25845(19)
H44 H 1.1160 0.7684 0.2406
N17 N 1.2461(3) 0.70745(14) 0.19047(16)
C57 C 1.2433(3) 0.74218(18) 0.1784(2)
H45 H 1.2205 0.7480 0.1536
C58 C 1.2733(4) 0.76935(19) 0.2018(2)
H46 H 1.2701 0.7932 0.1919
N18 N 1.3064(3) 0.76460(18) 0.2375(2)
C59 C 1.3088(4) 0.7297(2) 0.2501(2)
H47 H 1.3310 0.7245 0.2752
C60 C 1.2791(3) 0.70113(18) 0.2270(2)
N19 N 1.2567(3) 0.63683(15) 0.21403(15)
N20 N 1.2752(3) 0.60468(16) 0.23086(16)
C61 C 1.3144(4) 0.6089(2) 0.2650(2)
H48 H 1.3334 0.5902 0.2815
C62 C 1.3221(4) 0.6462(2) 0.2719(2)
H49 H 1.3458 0.6577 0.2939
C63 C 1.2868(3) 0.6625(2) 0.2389(2)
C64 C 1.2496(4) 0.56956(19) 0.2137(2)
H50 H 1.2783 0.5498 0.2258
H51 H 1.2549 0.5695 0.1854
N21 N 0.6976(4) 0.58576(18) 0.41347(19)
C65 C 0.6519(6) 0.5702(3) 0.4365(3)
H52 H 0.6542 0.5452 0.4416
C66 C 0.6018(6) 0.5914(3) 0.4524(3)
H53 H 0.5716 0.5797 0.4684
N22 N 0.5936(4) 0.6262(2) 0.4466(2)
C67 C 0.6383(5) 0.6417(2) 0.4230(2)
H54 H 0.6347 0.6667 0.4175
C68 C 0.6899(4) 0.6212(2) 0.4065(2)
N23 N 0.7750(3) 0.61421(16) 0.35874(16)
N24 N 0.8103(3) 0.63564(16) 0.33456(16)
C69 C 0.7944(4) 0.67124(19) 0.3390(2)
H55 H 0.8118 0.6907 0.3251
C70 C 0.7484(4) 0.67401(18) 0.3673(2)
H56 H 0.7288 0.6953 0.3769
C71 C 0.7370(4) 0.6371(2) 0.3790(2)
C72 C 0.8479(4) 0.6202(2) 0.3024(2)
H57 H 0.8420 0.6367 0.2798
H58 H 0.8257 0.5970 0.2942
C73 C 0.9265(4) 0.61344(18) 0.3125(2)
C74 C 0.9653(5) 0.6246(2) 0.3484(2)
H59 H 0.9427 0.6364 0.3680
C75 C 1.0366(4) 0.6178(2) 0.3538(2)
H60 H 1.0626 0.6252 0.3772
C76 C 1.0702(4) 0.5999(2) 0.3244(2)
H61 H 1.1183 0.5950 0.3287
C77 C 1.0338(4) 0.58942(18) 0.28922(19)
C78 C 0.9612(4) 0.59627(18) 0.2836(2)
H62 H 0.9358 0.5891 0.2600
C79 C 1.1728(4) 0.56278(17) 0.21991(19)
C80 C 1.1336(4) 0.53817(17) 0.1946(2)
H63 H 1.1550 0.5265 0.1744
C81 C 1.0643(4) 0.53117(18) 0.1993(2)
H64 H 1.0383 0.5159 0.1813
C82 C 1.0321(4) 0.54639(17) 0.23048(19)
H65 H 0.9856 0.5403 0.2341
C83 C 1.0691(4) 0.57090(17) 0.2566(2)
C84 C 1.1391(4) 0.57871(18) 0.25041(19)
H66 H 1.1643 0.5952 0.2673
N25 N 0.6275(3) 0.71225(15) 0.07451(16)
C85 C 0.5692(4) 0.6937(2) 0.0616(2)
H67 H 0.5315 0.6928 0.0771
C86 C 0.5644(6) 0.6757(3) 0.0253(3)
H68 H 0.5247 0.6614 0.0180
N26 N 0.6159(5) 0.6783(2) 0.0001(2)
C87 C 0.6728(5) 0.6962(2) 0.0143(2)
H69 H 0.7099 0.6978 -0.0017
C88 C 0.6820(4) 0.71271(19) 0.05106(19)
N27 N 0.7478(3) 0.74307(13) 0.10522(15)
N28 N 0.8141(3) 0.75441(14) 0.11490(15)
C89 C 0.8536(4) 0.74946(18) 0.0847(2)
H70 H 0.9008 0.7562 0.0843
C90 C 0.8127(4) 0.73289(19) 0.0545(2)
H71 H 0.8263 0.7255 0.0300
C91 C 0.7472(4) 0.72942(17) 0.06791(18)
C92 C 0.8351(3) 0.77388(16) 0.15124(18)
H72 H 0.8831 0.7669 0.1606
H73 H 0.8046 0.7665 0.1713
N29 N 1.0380(3) 0.92155(14) 0.42829(14)
C93 C 1.0979(4) 0.92511(18) 0.45089(17)
H74 H 1.1307 0.9061 0.4527
C94 C 1.1119(4) 0.9575(2) 0.47215(19)
H75 H 1.1558 0.9600 0.4867
N30 N 1.0660(3) 0.98509(15) 0.47273(17)
C95 C 1.0070(4) 0.98076(19) 0.4502(2)
H76 H 0.9734 0.9994 0.4494
C96 C 0.9917(4) 0.94945(18) 0.42728(18)
N31 N 0.9235(3) 0.91607(14) 0.37614(15)
N32 N 0.8580(3) 0.91731(14) 0.35658(16)
C97 C 0.8216(4) 0.94692(19) 0.3677(2)
H77 H 0.7761 0.9536 0.3578
C98 C 0.8636(4) 0.96503(18) 0.3959(2)
H78 H 0.8529 0.9863 0.4093
C99 C 0.9268(3) 0.94479(17) 0.40066(18)
C100 C 0.8379(4) 0.89308(17) 0.32285(19)
H79 H 0.7867 0.8913 0.3191
H80 H 0.8565 0.8687 0.3289
C101 C 0.8644(4) 0.90615(18) 0.2852(2)
C102 C 0.9030(4) 0.93902(19) 0.2824(2)
H81 H 0.9142 0.9533 0.3049
C103 C 0.9241(4) 0.9499(2) 0.2462(2)
H82 H 0.9509 0.9712 0.2449
C104 C 0.9070(5) 0.9306(2) 0.2126(2)
H83 H 0.9201 0.9392 0.1885
C105 C 0.8689(4) 0.89696(18) 0.2140(2)
C106 C 0.8488(3) 0.88546(18) 0.25051(19)
H84 H 0.8244 0.8634 0.2519
C107 C 0.8316(3) 0.81622(17) 0.14654(19)
C108 C 0.8126(4) 0.83223(17) 0.1097(2)
H85 H 0.7998 0.8181 0.0873
C109 C 0.8135(4) 0.87078(18) 0.10806(19)
H86 H 0.8003 0.8824 0.0840
C110 C 0.8331(4) 0.89154(19) 0.1405(2)
H87 H 0.8351 0.9170 0.1381
C111 C 0.8505(4) 0.8751(2) 0.17753(19)
C112 C 0.8500(3) 0.83640(18) 0.1795(2)
H88 H 0.8624 0.8247 0.2037
N33 N 0.6240(3) 0.79427(14) 0.09285(16)
C113 C 0.6079(3) 0.79758(19) 0.0535(2)
H89 H 0.5990 0.7765 0.0384
C114 C 0.6041(4) 0.8306(2) 0.0351(2)
H90 H 0.5921 0.8314 0.0078
N34 N 0.6174(3) 0.86254(18) 0.05518(19)
C115 C 0.6334(4) 0.85978(19) 0.0944(2)
H91 H 0.6421 0.8811 0.1093
C116 C 0.6376(4) 0.82594(19) 0.1136(2)
N35 N 0.6633(3) 0.78771(14) 0.17111(15)
N36 N 0.6798(3) 0.79224(14) 0.21039(15)
C117 C 0.6818(4) 0.82778(18) 0.2204(2)
H92 H 0.6924 0.8373 0.2457
C118 C 0.6651(4) 0.84788(19) 0.1855(2)
H93 H 0.6617 0.8732 0.1828
C119 C 0.6549(3) 0.82191(17) 0.15613(19)
C120 C 0.6880(4) 0.76093(18) 0.23772(19)
H94 H 0.7208 0.7675 0.2604
H95 H 0.7083 0.7405 0.2243
N37 N 0.7633(5) 0.5058(2) 0.4119(2)
C121 C 0.7971(7) 0.4942(3) 0.4448(3)
H96 H 0.8306 0.5093 0.4585
C122 C 0.7837(10) 0.4595(5) 0.4599(4)
H97 H 0.8070 0.4525 0.4842
N38 N 0.7406(8) 0.4369(3) 0.4414(4)
C123 C 0.7049(7) 0.4491(3) 0.4074(3)
H98 H 0.6712 0.4341 0.3938
C124 C 0.7177(5) 0.4838(2) 0.3924(3)
N39 N 0.6941(3) 0.53212(16) 0.34544(18)
N40 N 0.6504(4) 0.53856(18) 0.31185(19)
C125 C 0.6087(5) 0.5087(2) 0.3021(3)
H99 H 0.5750 0.5068 0.2804
C126 C 0.6260(5) 0.4816(3) 0.3307(3)
H100 H 0.6064 0.4583 0.3321
C127 C 0.6794(5) 0.4972(2) 0.3568(3)
C128 C 0.6477(4) 0.5736(2) 0.2927(2)
H101 H 0.6301 0.5701 0.2651
H102 H 0.6955 0.5830 0.2932
C129 C 0.6026(4) 0.6024(2) 0.3103(2)
C130 C 0.5543(5) 0.5936(3) 0.3382(3)
H103 H 0.5514 0.5697 0.3478
C131 C 0.5116(5) 0.6210(2) 0.3508(3)
H104 H 0.4809 0.6157 0.3699
C132 C 0.5139(5) 0.6556(2) 0.3358(2)
H105 H 0.4847 0.6737 0.3448
C133 C 0.5598(4) 0.66462(19) 0.3069(2)
C134 C 0.6041(4) 0.6373(2) 0.2952(2)
H106 H 0.6358 0.6427 0.2767
C135 C 0.6193(3) 0.74897(18) 0.25221(19)
C136 C 0.5572(4) 0.7689(2) 0.24791(19)
H107 H 0.5557 0.7913 0.2346
C137 C 0.4977(4) 0.7557(2) 0.2632(2)
H108 H 0.4560 0.7693 0.2600
C138 C 0.4990(4) 0.72285(19) 0.2831(2)
H109 H 0.4581 0.7144 0.2931
C139 C 0.5599(4) 0.70215(19) 0.2884(2)
C140 C 0.6198(4) 0.71540(19) 0.27256(18)
H110 H 0.6612 0.7017 0.2756
N41 N 1.0646(3) 0.90437(15) 0.34276(15)
C141 C 1.0976(4) 0.9368(2) 0.3457(2)
H111 H 1.1026 0.9482 0.3705
C142 C 1.1250(5) 0.9548(2) 0.3139(2)
H112 H 1.1495 0.9768 0.3178
N42 N 1.1149(4) 0.9394(2) 0.27715(19)
C143 C 1.0818(4) 0.9073(2) 0.2739(2)
H113 H 1.0748 0.8964 0.2490
C144 C 1.0565(4) 0.88897(19) 0.3064(2)
N43 N 0.9873(3) 0.84207(14) 0.33444(15)
N44 N 0.9554(3) 0.81030(15) 0.32188(16)
C145 C 0.9697(4) 0.8025(2) 0.2846(2)
H114 H 0.9548 0.7817 0.2701
C146 C 1.0098(4) 0.8301(2) 0.2719(2)
H115 H 1.0267 0.8323 0.2471
C147 C 1.0201(4) 0.8540(2) 0.30302(19)
C148 C 0.9084(4) 0.79043(18) 0.3449(2)
H116 H 0.8707 0.7802 0.3269
H117 H 0.8871 0.8077 0.3620
N45 N 0.8574(4) 0.53573(16) 0.34943(16)
C149 C 0.8495(5) 0.5196(2) 0.3134(2)
H118 H 0.8050 0.5196 0.2993
C150 C 0.9042(5) 0.5034(2) 0.2968(2)
H119 H 0.8963 0.4932 0.2715
N46 N 0.9689(4) 0.50173(18) 0.3160(2)
C151 C 0.9789(5) 0.5177(2) 0.3523(2)
H120 H 1.0234 0.5175 0.3664
C152 C 0.9218(5) 0.5346(2) 0.3685(2)
N47 N 0.8721(4) 0.56672(16) 0.42125(17)
N48 N 0.8898(4) 0.57677(18) 0.45867(18)
C153 C 0.9570(6) 0.5679(2) 0.4690(3)
H121 H 0.9817 0.5727 0.4936
C154 C 0.9844(5) 0.5506(3) 0.4375(3)
H122 H 1.0297 0.5412 0.4363
C155 C 0.9283(5) 0.5504(2) 0.4083(2)
C156 C 0.8413(5) 0.5957(2) 0.4829(2)
H123 H 0.8580 0.5927 0.5108
H124 H 0.7950 0.5844 0.4786
C157 C 0.8344(4) 0.6358(2) 0.4738(2)
C158 C 0.8801(4) 0.6549(2) 0.45141(19)
H125 H 0.9159 0.6419 0.4407
C159 C 0.8750(4) 0.69231(19) 0.44427(19)
C160 C 0.8204(4) 0.7110(2) 0.4610(2)
H126 H 0.8151 0.7362 0.4570
C161 C 0.7742(4) 0.6926(2) 0.4834(2)
H127 H 0.7380 0.7055 0.4939
C162 C 0.7812(4) 0.6553(2) 0.4902(2)
H128 H 0.7506 0.6432 0.5057
C163 C 0.9419(4) 0.75892(17) 0.37108(19)
C164 C 1.0100(4) 0.74837(19) 0.3703(2)
H129 H 1.0393 0.7605 0.3542
C165 C 1.0355(4) 0.7192(2) 0.3938(2)
H130 H 1.0820 0.7114 0.3930
C166 C 0.9926(4) 0.7020(2) 0.4182(2)
H131 H 1.0108 0.6831 0.4347
C167 C 0.9221(4) 0.71229(19) 0.41879(19)
C168 C 0.8982(4) 0.74097(18) 0.39467(18)
H132 H 0.8513 0.7484 0.3944
B1 B 0.0462(4) 0.7985(2) 0.1505(2)
F1 F 0.0377(6) 0.8345(2) 0.1440(3)
F2 F -0.0005(4) 0.7784(2) 0.1252(2)
F3 F 0.0130(5) 0.7926(3) 0.1889(2)
F4 F 0.1098(4) 0.7837(2) 0.1587(2)
B2 B 0.1993(4) 0.0637(2) 0.2951(2)
F5 F 0.1542(3) 0.09302(15) 0.29788(17)
F6 F 0.2418(3) 0.07140(15) 0.26613(16)
F7 F 0.2411(3) 0.05955(17) 0.33004(18)
F8 F 0.1585(3) 0.03402(16) 0.28561(18)
B3 B 0.4617(5) 0.5596(3) 0.2253(3)
F9 F 0.4874(7) 0.5917(3) 0.2231(4)
F10 F 0.5092(6) 0.5289(3) 0.2197(4)
F11 F 0.4532(7) 0.5541(4) 0.2682(3)
F12 F 0.3991(5) 0.5516(3) 0.2049(3)
B4 B 0.2745(5) 0.3097(2) 0.1626(3)
F13 F 0.2392(2) 0.31952(12) 0.19475(13)
F14 F 0.2451(3) 0.32830(14) 0.12854(15)
F15 F 0.3467(3) 0.31883(16) 0.17061(18)
F16 F 0.2676(3) 0.27189(13) 0.15674(15)
B5 B 0.2841(4) 0.6094(2) 0.0025(2)
F17 F 0.3203(4) 0.6142(2) 0.0376(2)
F18 F 0.2145(5) 0.6196(3) -0.0011(3)
F19 F 0.2764(6) 0.5677(3) -0.0004(4)
F20 F 0.3195(6) 0.6172(3) -0.0300(3)
B6 B 0.1383(4) 0.2172(2) 0.2539(2)
F21 F 0.0899(3) 0.20971(17) 0.22194(18)
F22 F 0.1090(2) 0.21026(12) 0.28908(13)
F23 F 0.1536(3) 0.25513(12) 0.25421(14)
F24 F 0.1996(2) 0.19593(10) 0.25222(11)
B7 B 0.4247(10) 0.7782(5) 0.0293(5)
F25 F 0.4386(6) 0.7462(3) 0.0492(3)
F26 F 0.4346(9) 0.8082(4) 0.0559(5)
F27 F 0.4703(9) 0.7816(5) -0.0009(5)
F28 F 0.3551(8) 0.7791(5) 0.0113(5)
B8 B 0.8494(7) 0.5173(4) 0.5617(4)
F29 F 0.8689(8) 0.5038(4) 0.5266(4)
F30 F 0.7728(7) 0.5113(5) 0.5588(5)
F31 F 0.8629(10) 0.5537(4) 0.5659(5)
F32 F 0.8771(8) 0.4959(4) 0.5934(4)
N49 N 1.0342(4) 0.77678(19) 0.0211(2)
C169 C 1.0026(4) 0.8006(2) 0.0319(3)
C170 C 0.9581(5) 0.8315(2) 0.0481(3)
H133 H 0.9393 0.8233 0.0720
H134 H 0.9198 0.8377 0.0286
H135 H 0.9873 0.8527 0.0538
N50 N 0.2855(4) 0.5158(2) 0.1296(3)
C171 C 0.3435(4) 0.5086(3) 0.1283(3)
C172 C 0.4201(4) 0.4941(3) 0.1310(4)
H136 H 0.4272 0.4766 0.1522
H137 H 0.4524 0.5143 0.1360
H138 H 0.4285 0.4826 0.1064
N51 N 0.0681(4) 0.0216(2) 0.3768(3)
C173 C 0.1226(4) 0.0294(2) 0.3911(3)
C174 C 0.1978(5) 0.0355(4) 0.4115(4)
H139 H 0.1958 0.0380 0.4397
H140 H 0.2174 0.0574 0.4013
H141 H 0.2270 0.0148 0.4064
C175 C 0.4414(7) 0.4795(4) 0.3328(5)
H142 H 0.4391 0.5041 0.3228
H143 H 0.4588 0.4635 0.3133
H144 H 0.4728 0.4786 0.3568
C176 C 0.3703(6) 0.4674(3) 0.3412(3)
O1 O 0.3517(5) 0.4392(3) 0.3533(3)
O2 O 0.3216(5) 0.4956(3) 0.3344(3)
C177 C 0.2503(7) 0.4862(4) 0.3408(5)
H145 H 0.2470 0.4830 0.3691
H146 H 0.2377 0.4632 0.3276
C178 C 0.1990(10) 0.5156(5) 0.3252(6)
H147 H 0.1518 0.5086 0.3299
H148 H 0.2015 0.5186 0.2971
H149 H 0.2108 0.5384 0.3385
C179 C 0.2756(12) 0.4695(4) 0.0272(6)
H150 H 0.3188 0.4826 0.0344
H151 H 0.2369 0.4824 0.0370
H152 H 0.2679 0.4676 -0.0012
C180 C 0.2809(8) 0.4305(4) 0.0456(4)
O3 O 0.2366(7) 0.4087(3) 0.0416(4)
O4 O 0.3449(7) 0.4243(4) 0.0683(4)
C181 C 0.4236(11) 0.3830(7) 0.1079(7)
H153 H 0.4270 0.3591 0.1201
H154 H 0.4311 0.4015 0.1280
H155 H 0.4587 0.3852 0.0895
C182 C 0.3512(9) 0.3876(4) 0.0862(5)
H156 H 0.3436 0.3691 0.0656
H157 H 0.3154 0.3845 0.1045
F33? F 0.0447(8) 0.8306(3) 0.1245(4)
F34? F -0.0010(6) 0.7744(3) 0.1381(4)
F35? F 0.0524(7) 0.8100(4) 0.1871(3)
F36? F 0.1156(6) 0.7846(3) 0.1409(4)
F37? F 0.4606(7) 0.6022(3) 0.2309(4)
F38? F 0.5300(6) 0.5536(4) 0.2185(4)
F39? F 0.4318(7) 0.5459(4) 0.2563(3)
F40? F 0.4169(6) 0.5569(3) 0.1893(3)
F41? F 0.3196(5) 0.5948(3) 0.0370(3)
F42? F 0.2254(6) 0.6313(3) 0.0128(4)
F43? F 0.2631(7) 0.5840(3) -0.0243(4)
F44? F 0.3294(7) 0.6356(3) -0.0148(4)
F45? F 0.8982(8) 0.5230(4) 0.5336(4)
F46? F 0.7987(9) 0.5447(4) 0.5609(5)
F47? F 0.8906(8) 0.5212(4) 0.6016(4)
F48? F 0.8257(8) 0.4815(4) 0.5605(5)
loop_
_geom_bond_atom_site_label_1
_geom_bond_atom_site_label_2
_geom_bond_site_symmetry_1
_geom_bond_site_symmetry_2
Co1 N1 1_555 1_555
Co2 N5 1_555 1_555
Co3 N13 1_555 1_555
Co4 N21 1_555 1_555
N1 C1 1_555 1_555
C1 H1 1_555 1_555
C2 C1 1_555 1_555
H2 C2 1_555 1_555
N2 C2 1_555 1_555
C3 N2 1_555 1_555
H3 C3 1_555 1_555
C4 N1 1_555 1_555
N3 Co1 1_555 1_555
N4 N3 1_555 1_555
C5 N4 1_555 1_555
H4 C5 1_555 1_555
C6 C5 1_555 1_555
H5 C6 1_555 1_555
C7 C4 1_555 1_555
C8 N4 1_555 1_555
H6 C8 1_555 1_555
H7 C8 1_555 1_555
N5 C9 1_555 1_555
C9 H8 1_555 1_555
C10 C9 1_555 1_555
H9 C10 1_555 1_555
N6 C10 1_555 1_555
C11 N6 1_555 1_555
H10 C11 1_555 1_555
C12 N5 1_555 1_555
N7 Co2 1_555 1_555
N8 N7 1_555 1_555
C13 N8 1_555 1_555
H11 C13 1_555 1_555
C14 C13 1_555 1_555
H12 C14 1_555 1_555
C15 C12 1_555 1_555
C16 N8 1_555 1_555
H13 C16 1_555 1_555
H14 C16 1_555 1_555
C17 C16 1_555 1_555
C18 C17 1_555 1_555
H15 C18 1_555 1_555
C19 C18 1_555 1_555
H16 C19 1_555 1_555
C20 C19 1_555 1_555
H17 C20 1_555 1_555
C21 C20 1_555 1_555
C22 C17 1_555 1_555
H18 C22 1_555 1_555
C23 C8 1_555 1_555
C24 C23 1_555 1_555
H19 C24 1_555 1_555
C25 C21 1_555 1_555
C26 C25 1_555 1_555
H20 C26 1_555 1_555
C27 C26 1_555 1_555
H21 C27 1_555 1_555
C28 C23 1_555 1_555
H22 C28 1_555 1_555
N9 Co1 1_555 1_555
C29 N9 1_555 1_555
H23 C29 1_555 1_555
C30 C29 1_555 1_555
H24 C30 1_555 1_555
N10 C30 1_555 1_555
C31 N10 1_555 1_555
H25 C31 1_555 1_555
C32 N9 1_555 1_555
N11 Co1 1_555 1_555
N12 N11 1_555 1_555
C33 N12 1_555 1_555
H26 C33 1_555 1_555
C34 C33 1_555 1_555
H27 C34 1_555 1_555
C35 C32 1_555 1_555
C36 N12 1_555 1_555
H28 C36 1_555 1_555
H29 C36 1_555 1_555
N13 C37 1_555 1_555
C37 H30 1_555 1_555
C38 C37 1_555 1_555
H31 C38 1_555 1_555
N14 C38 1_555 1_555
C39 N14 1_555 1_555
H32 C39 1_555 1_555
C40 N13 1_555 1_555
N15 Co3 1_555 1_555
N16 N15 1_555 1_555
C41 N16 1_555 1_555
H33 C41 1_555 1_555
C42 C41 1_555 1_555
H34 C42 1_555 1_555
C43 C40 1_555 1_555
C44 N16 1_555 1_555
H35 C44 1_555 1_555
H36 C44 1_555 1_555
C45 C44 1_555 1_555
C46 C45 1_555 1_555
H37 C46 1_555 1_555
C47 C46 1_555 1_555
H38 C47 1_555 1_555
C48 C47 1_555 1_555
H39 C48 1_555 1_555
C49 C48 1_555 1_555
C50 C45 1_555 1_555
H40 C50 1_555 1_555
C51 C36 1_555 1_555
C52 C51 1_555 1_555
H41 C52 1_555 1_555
C53 C52 1_555 1_555
H42 C53 1_555 1_555
C54 C53 1_555 1_555
H43 C54 1_555 1_555
C55 C49 1_555 1_555
C56 C51 1_555 1_555
H44 C56 1_555 1_555
N17 Co1 1_555 1_555
C57 N17 1_555 1_555
H45 C57 1_555 1_555
C58 C57 1_555 1_555
H46 C58 1_555 1_555
N18 C58 1_555 1_555
C59 N18 1_555 1_555
H47 C59 1_555 1_555
C60 N17 1_555 1_555
N19 Co1 1_555 1_555
N20 N19 1_555 1_555
C61 N20 1_555 1_555
H48 C61 1_555 1_555
C62 C61 1_555 1_555
H49 C62 1_555 1_555
C63 C60 1_555 1_555
C64 N20 1_555 1_555
H50 C64 1_555 1_555
H51 C64 1_555 1_555
N21 C65 1_555 1_555
C65 H52 1_555 1_555
C66 C65 1_555 1_555
H53 C66 1_555 1_555
N22 C66 1_555 1_555
C67 N22 1_555 1_555
H54 C67 1_555 1_555
C68 N21 1_555 1_555
N23 Co4 1_555 1_555
N24 N23 1_555 1_555
C69 N24 1_555 1_555
H55 C69 1_555 1_555
C70 C69 1_555 1_555
H56 C70 1_555 1_555
C71 C68 1_555 1_555
C72 N24 1_555 1_555
H57 C72 1_555 1_555
H58 C72 1_555 1_555
C73 C72 1_555 1_555
C74 C73 1_555 1_555
H59 C74 1_555 1_555
C75 C74 1_555 1_555
H60 C75 1_555 1_555
C76 C75 1_555 1_555
H61 C76 1_555 1_555
C77 C76 1_555 1_555
C78 C73 1_555 1_555
H62 C78 1_555 1_555
C79 C64 1_555 1_555
C80 C79 1_555 1_555
H63 C80 1_555 1_555
C81 C80 1_555 1_555
H64 C81 1_555 1_555
C82 C81 1_555 1_555
H65 C82 1_555 1_555
C83 C77 1_555 1_555
C84 C79 1_555 1_555
H66 C84 1_555 1_555
N25 Co2 1_555 1_555
C85 N25 1_555 1_555
H67 C85 1_555 1_555
C86 C85 1_555 1_555
H68 C86 1_555 1_555
N26 C86 1_555 1_555
C87 N26 1_555 1_555
H69 C87 1_555 1_555
C88 N25 1_555 1_555
N27 Co2 1_555 1_555
N28 N27 1_555 1_555
C89 N28 1_555 1_555
H70 C89 1_555 1_555
C90 C89 1_555 1_555
H71 C90 1_555 1_555
C91 C88 1_555 1_555
C92 N28 1_555 1_555
H72 C92 1_555 1_555
H73 C92 1_555 1_555
N29 Co3 1_555 1_555
C93 N29 1_555 1_555
H74 C93 1_555 1_555
C94 C93 1_555 1_555
H75 C94 1_555 1_555
N30 C94 1_555 1_555
C95 N30 1_555 1_555
H76 C95 1_555 1_555
C96 N29 1_555 1_555
N31 Co3 1_555 1_555
N32 N31 1_555 1_555
C97 N32 1_555 1_555
H77 C97 1_555 1_555
C98 C97 1_555 1_555
H78 C98 1_555 1_555
C99 C96 1_555 1_555
C100 N32 1_555 1_555
H79 C100 1_555 1_555
H80 C100 1_555 1_555
C101 C100 1_555 1_555
C102 C101 1_555 1_555
H81 C102 1_555 1_555
C103 C102 1_555 1_555
H82 C103 1_555 1_555
C104 C103 1_555 1_555
H83 C104 1_555 1_555
C105 C104 1_555 1_555
C106 C101 1_555 1_555
H84 C106 1_555 1_555
C107 C92 1_555 1_555
C108 C107 1_555 1_555
H85 C108 1_555 1_555
C109 C108 1_555 1_555
H86 C109 1_555 1_555
C110 C109 1_555 1_555
H87 C110 1_555 1_555
C111 C105 1_555 1_555
C112 C107 1_555 1_555
H88 C112 1_555 1_555
N33 Co2 1_555 1_555
C113 N33 1_555 1_555
H89 C113 1_555 1_555
C114 C113 1_555 1_555
H90 C114 1_555 1_555
N34 C114 1_555 1_555
C115 N34 1_555 1_555
H91 C115 1_555 1_555
C116 N33 1_555 1_555
N35 Co2 1_555 1_555
N36 N35 1_555 1_555
C117 N36 1_555 1_555
H92 C117 1_555 1_555
C118 C117 1_555 1_555
H93 C118 1_555 1_555
C119 C116 1_555 1_555
C120 N36 1_555 1_555
H94 C120 1_555 1_555
H95 C120 1_555 1_555
N37 Co4 1_555 1_555
C121 N37 1_555 1_555
H96 C121 1_555 1_555
C122 C121 1_555 1_555
H97 C122 1_555 1_555
N38 C122 1_555 1_555
C123 N38 1_555 1_555
H98 C123 1_555 1_555
C124 N37 1_555 1_555
N39 Co4 1_555 1_555
N40 N39 1_555 1_555
C125 N40 1_555 1_555
H99 C125 1_555 1_555
C126 C125 1_555 1_555
H100 C126 1_555 1_555
C127 C124 1_555 1_555
C128 N40 1_555 1_555
H101 C128 1_555 1_555
H102 C128 1_555 1_555
C129 C128 1_555 1_555
C130 C129 1_555 1_555
H103 C130 1_555 1_555
C131 C130 1_555 1_555
H104 C131 1_555 1_555
C132 C131 1_555 1_555
H105 C132 1_555 1_555
C133 C132 1_555 1_555
C134 C129 1_555 1_555
H106 C134 1_555 1_555
C135 C120 1_555 1_555
C136 C135 1_555 1_555
H107 C136 1_555 1_555
C137 C136 1_555 1_555
H108 C137 1_555 1_555
C138 C137 1_555 1_555
H109 C138 1_555 1_555
C139 C133 1_555 1_555
C140 C135 1_555 1_555
H110 C140 1_555 1_555
N41 Co3 1_555 1_555
C141 N41 1_555 1_555
H111 C141 1_555 1_555
C142 C141 1_555 1_555
H112 C142 1_555 1_555
N42 C142 1_555 1_555
C143 N42 1_555 1_555
H113 C143 1_555 1_555
C144 N41 1_555 1_555
N43 Co3 1_555 1_555
N44 N43 1_555 1_555
C145 N44 1_555 1_555
H114 C145 1_555 1_555
C146 C145 1_555 1_555
H115 C146 1_555 1_555
C147 C144 1_555 1_555
C148 N44 1_555 1_555
H116 C148 1_555 1_555
H117 C148 1_555 1_555
N45 Co4 1_555 1_555
C149 N45 1_555 1_555
H118 C149 1_555 1_555
C150 C149 1_555 1_555
H119 C150 1_555 1_555
N46 C150 1_555 1_555
C151 N46 1_555 1_555
H120 C151 1_555 1_555
C152 N45 1_555 1_555
N47 Co4 1_555 1_555
N48 N47 1_555 1_555
C153 N48 1_555 1_555
H121 C153 1_555 1_555
C154 C153 1_555 1_555
H122 C154 1_555 1_555
C155 C152 1_555 1_555
C156 N48 1_555 1_555
H123 C156 1_555 1_555
H124 C156 1_555 1_555
C157 C156 1_555 1_555
C158 C157 1_555 1_555
H125 C158 1_555 1_555
C159 C158 1_555 1_555
C160 C159 1_555 1_555
H126 C160 1_555 1_555
C161 C160 1_555 1_555
H127 C161 1_555 1_555
C162 C157 1_555 1_555
H128 C162 1_555 1_555
C163 C148 1_555 1_555
C164 C163 1_555 1_555
H129 C164 1_555 1_555
C165 C164 1_555 1_555
H130 C165 1_555 1_555
C166 C165 1_555 1_555
H131 C166 1_555 1_555
C167 C159 1_555 1_555
C168 C163 1_555 1_555
H132 C168 1_555 1_555
B1 F1 1_555 1_555
F2 B1 1_555 1_555
F3 B1 1_555 1_555
F4 B1 1_555 1_555
B2 F5 1_555 1_555
F6 B2 1_555 1_555
F7 B2 1_555 1_555
F8 B2 1_555 1_555
B3 F9 1_555 1_555
F10 B3 1_555 1_555
F11 B3 1_555 1_555
F12 B3 1_555 1_555
B4 F13 1_555 1_555
F14 B4 1_555 1_555
F15 B4 1_555 1_555
F16 B4 1_555 1_555
B5 F17 1_555 1_555
F18 B5 1_555 1_555
F19 B5 1_555 1_555
F20 B5 1_555 1_555
B6 F21 1_555 1_555
F22 B6 1_555 1_555
F23 B6 1_555 1_555
F24 B6 1_555 1_555
B7 F25 1_555 1_555
F26 B7 1_555 1_555
F27 B7 1_555 1_555
F28 B7 1_555 1_555
B8 F29 1_555 1_555
F30 B8 1_555 1_555
F31 B8 1_555 1_555
F32 B8 1_555 1_555
N49 C169 1_555 1_555
C169 C170 1_555 1_555
C170 H133 1_555 1_555
H134 C170 1_555 1_555
H135 C170 1_555 1_555
N50 C171 1_555 1_555
C171 C172 1_555 1_555
C172 H136 1_555 1_555
H137 C172 1_555 1_555
H138 C172 1_555 1_555
N51 C173 1_555 1_555
C173 C174 1_555 1_555
C174 H139 1_555 1_555
H140 C174 1_555 1_555
H141 C174 1_555 1_555
C175 H142 1_555 1_555
H143 C175 1_555 1_555
H144 C175 1_555 1_555
C176 C175 1_555 1_555
O1 C176 1_555 1_555
O2 C176 1_555 1_555
C177 O2 1_555 1_555
H145 C177 1_555 1_555
H146 C177 1_555 1_555
C178 C177 1_555 1_555
H147 C178 1_555 1_555
H148 C178 1_555 1_555
H149 C178 1_555 1_555
C179 H150 1_555 1_555
H151 C179 1_555 1_555
H152 C179 1_555 1_555
C180 C179 1_555 1_555
O3 C180 1_555 1_555
O4 C180 1_555 1_555
C181 H153 1_555 1_555
H154 C181 1_555 1_555
H155 C181 1_555 1_555
C182 O4 1_555 1_555
H156 C182 1_555 1_555
H157 C182 1_555 1_555
C3 C4 1_555 1_555
N3 C7 1_555 1_555
C6 C7 1_555 1_555
C11 C12 1_555 1_555
N7 C15 1_555 1_555
C14 C15 1_555 1_555
C21 C22 1_555 1_555
C24 C25 1_555 1_555
C27 C28 1_555 1_555
C31 C32 1_555 1_555
N11 C35 1_555 1_555
C34 C35 1_555 1_555
C39 C40 1_555 1_555
N15 C43 1_555 1_555
C42 C43 1_555 1_555
C49 C50 1_555 1_555
C54 C55 1_555 1_555
C55 C56 1_555 1_555
C59 C60 1_555 1_555
N19 C63 1_555 1_555
C62 C63 1_555 1_555
C67 C68 1_555 1_555
N23 C71 1_555 1_555
C70 C71 1_555 1_555
C77 C78 1_555 1_555
C82 C83 1_555 1_555
C83 C84 1_555 1_555
C87 C88 1_555 1_555
N27 C91 1_555 1_555
C90 C91 1_555 1_555
C95 C96 1_555 1_555
N31 C99 1_555 1_555
C98 C99 1_555 1_555
C105 C106 1_555 1_555
C110 C111 1_555 1_555
C111 C112 1_555 1_555
C115 C116 1_555 1_555
N35 C119 1_555 1_555
C118 C119 1_555 1_555
C123 C124 1_555 1_555
N39 C127 1_555 1_555
C126 C127 1_555 1_555
C133 C134 1_555 1_555
C138 C139 1_555 1_555
C139 C140 1_555 1_555
C143 C144 1_555 1_555
N43 C147 1_555 1_555
C146 C147 1_555 1_555
C151 C152 1_555 1_555
N47 C155 1_555 1_555
C154 C155 1_555 1_555
C161 C162 1_555 1_555
C166 C167 1_555 1_555
C167 C168 1_555 1_555
C181 C182 1_555 1_555

#END
