# generated using pymatgen
data_Si3Ni12B18H408C498N150(O17F24)4
_symmetry_space_group_name_H-M   'P 1'
_cell_length_a   32.66539327
_cell_length_b   32.66539327
_cell_length_c   32.66539327
_cell_angle_alpha   67.74521937
_cell_angle_beta   67.74521937
_cell_angle_gamma   67.74521937
_symmetry_Int_Tables_number   1
_chemical_formula_structural   Si3Ni12B18H408C498N150(O17F24)4
_chemical_formula_sum   'Si6 Ni24 B36 H816 C996 N300 O136 F192'
_cell_volume   28707.05626364
_cell_formula_units_Z   2
loop_
 _symmetry_equiv_pos_site_id
 _symmetry_equiv_pos_as_xyz
  1  'x, y, z'
loop_
 _atom_site_type_symbol
 _atom_site_label
 _atom_site_symmetry_multiplicity
 _atom_site_fract_x
 _atom_site_fract_y
 _atom_site_fract_z
 _atom_site_occupancy
  B  B1  1  0.209300  0.181920  0.614000  1
  B  B2  1  0.614000  0.209300  0.181920  1
  B  B3  1  0.181920  0.614000  0.209300  1
  B  B4  1  0.318080  0.290700  0.886000  1
  B  B5  1  0.290700  0.886000  0.318080  1
  B  B6  1  0.886000  0.318080  0.290700  1
  B  B7  1  0.790700  0.818080  0.386000  1
  B  B8  1  0.386000  0.790700  0.818080  1
  B  B9  1  0.818080  0.386000  0.790700  1
  B  B10  1  0.681920  0.709300  0.114000  1
  B  B11  1  0.709300  0.114000  0.681920  1
  B  B12  1  0.114000  0.681920  0.709300  1
  B  B13  1  0.443400  0.108700  0.575400  1
  B  B14  1  0.575400  0.443400  0.108700  1
  B  B15  1  0.108700  0.575400  0.443400  1
  B  B16  1  0.391300  0.056600  0.924600  1
  B  B17  1  0.056600  0.924600  0.391300  1
  B  B18  1  0.924600  0.391300  0.056600  1
  B  B19  1  0.556600  0.891300  0.424600  1
  B  B20  1  0.424600  0.556600  0.891300  1
  B  B21  1  0.891300  0.424600  0.556600  1
  B  B22  1  0.608700  0.943400  0.075400  1
  B  B23  1  0.943400  0.075400  0.608700  1
  B  B24  1  0.075400  0.608700  0.943400  1
  B  B25  1  0.977040  0.166440  0.011740  1
  B  B26  1  0.011740  0.977040  0.166440  1
  B  B27  1  0.166440  0.011740  0.977040  1
  B  B28  1  0.333560  0.522960  0.488260  1
  B  B29  1  0.522960  0.488260  0.333560  1
  B  B30  1  0.488260  0.333560  0.522960  1
  B  B31  1  0.022960  0.833560  0.988260  1
  B  B32  1  0.988260  0.022960  0.833560  1
  B  B33  1  0.833560  0.988260  0.022960  1
  B  B34  1  0.666440  0.477040  0.511740  1
  B  B35  1  0.477040  0.511740  0.666440  1
  B  B36  1  0.511740  0.666440  0.477040  1
  C  C37  1  0.932844  0.567178  0.750011  1
  C  C38  1  0.750011  0.932844  0.567178  1
  C  C39  1  0.567178  0.750011  0.932844  1
  C  C40  1  0.067156  0.432822  0.249989  1
  C  C41  1  0.249989  0.067156  0.432822  1
  C  C42  1  0.432822  0.249989  0.067156  1
  C  C43  1  0.970844  0.529178  0.750011  1
  C  C44  1  0.750011  0.970844  0.529178  1
  C  C45  1  0.529178  0.750011  0.970844  1
  C  C46  1  0.029156  0.470822  0.249989  1
  C  C47  1  0.249989  0.029156  0.470822  1
  C  C48  1  0.470822  0.249989  0.029156  1
  C  C49  1  0.342944  0.157078  0.750011  1
  C  C50  1  0.750011  0.342944  0.157078  1
  C  C51  1  0.157078  0.750011  0.342944  1
  C  C52  1  0.657056  0.842922  0.249989  1
  C  C53  1  0.249989  0.657056  0.842922  1
  C  C54  1  0.842922  0.249989  0.657056  1
  C  C55  1  0.302544  0.197478  0.750011  1
  C  C56  1  0.750011  0.302544  0.197478  1
  C  C57  1  0.197478  0.750011  0.302544  1
  C  C58  1  0.697456  0.802522  0.249989  1
  C  C59  1  0.249989  0.697456  0.802522  1
  C  C60  1  0.802522  0.249989  0.697456  1
  C  C61  1  0.057580  0.155680  0.646580  1
  C  C62  1  0.646580  0.057580  0.155680  1
  C  C63  1  0.155680  0.646580  0.057580  1
  C  C64  1  0.344320  0.442420  0.853420  1
  C  C65  1  0.442420  0.853420  0.344320  1
  C  C66  1  0.853420  0.344320  0.442420  1
  C  C67  1  0.942420  0.844320  0.353420  1
  C  C68  1  0.353420  0.942420  0.844320  1
  C  C69  1  0.844320  0.353420  0.942420  1
  C  C70  1  0.655680  0.557580  0.146580  1
  C  C71  1  0.557580  0.146580  0.655680  1
  C  C72  1  0.146580  0.655680  0.557580  1
  C  C73  1  0.032660  0.150160  0.619060  1
  C  C74  1  0.619060  0.032660  0.150160  1
  C  C75  1  0.150160  0.619060  0.032660  1
  C  C76  1  0.349840  0.467340  0.880940  1
  C  C77  1  0.467340  0.880940  0.349840  1
  C  C78  1  0.880940  0.349840  0.467340  1
  C  C79  1  0.967340  0.849840  0.380940  1
  C  C80  1  0.380940  0.967340  0.849840  1
  C  C81  1  0.849840  0.380940  0.967340  1
  C  C82  1  0.650160  0.532660  0.119060  1
  C  C83  1  0.532660  0.119060  0.650160  1
  C  C84  1  0.119060  0.650160  0.532660  1
  C  C85  1  0.050050  0.099350  0.623050  1
  C  C86  1  0.623050  0.050050  0.099350  1
  C  C87  1  0.099350  0.623050  0.050050  1
  C  C88  1  0.400650  0.449950  0.876950  1
  C  C89  1  0.449950  0.876950  0.400650  1
  C  C90  1  0.876950  0.400650  0.449950  1
  C  C91  1  0.949950  0.900650  0.376950  1
  C  C92  1  0.376950  0.949950  0.900650  1
  C  C93  1  0.900650  0.376950  0.949950  1
  C  C94  1  0.599350  0.550050  0.123050  1
  C  C95  1  0.550050  0.123050  0.599350  1
  C  C96  1  0.123050  0.599350  0.550050  1
  C  C97  1  0.095700  0.113600  0.650900  1
  C  C98  1  0.650900  0.095700  0.113600  1
  C  C99  1  0.113600  0.650900  0.095700  1
  C  C100  1  0.386400  0.404300  0.849100  1
  C  C101  1  0.404300  0.849100  0.386400  1
  C  C102  1  0.849100  0.386400  0.404300  1
  C  C103  1  0.904300  0.886400  0.349100  1
  C  C104  1  0.349100  0.904300  0.886400  1
  C  C105  1  0.886400  0.349100  0.904300  1
  C  C106  1  0.613600  0.595700  0.150900  1
  C  C107  1  0.595700  0.150900  0.613600  1
  C  C108  1  0.150900  0.613600  0.595700  1
  C  C109  1  0.309100  0.169400  0.946300  1
  C  C110  1  0.946300  0.309100  0.169400  1
  C  C111  1  0.169400  0.946300  0.309100  1
  C  C112  1  0.330600  0.190900  0.553700  1
  C  C113  1  0.190900  0.553700  0.330600  1
  C  C114  1  0.553700  0.330600  0.190900  1
  C  C115  1  0.690900  0.830600  0.053700  1
  C  C116  1  0.053700  0.690900  0.830600  1
  C  C117  1  0.830600  0.053700  0.690900  1
  C  C118  1  0.669400  0.809100  0.446300  1
  C  C119  1  0.809100  0.446300  0.669400  1
  C  C120  1  0.446300  0.669400  0.809100  1
  C  C121  1  0.922180  0.470980  0.701280  1.0
  C  C122  1  0.701280  0.922180  0.470980  1.0
  C  C123  1  0.470980  0.701280  0.922180  1.0
  C  C124  1  0.029020  0.577820  0.798720  1.0
  C  C125  1  0.577820  0.798720  0.029020  1.0
  C  C126  1  0.798720  0.029020  0.577820  1.0
  C  C127  1  0.077820  0.529020  0.298720  1.0
  C  C128  1  0.298720  0.077820  0.529020  1.0
  C  C129  1  0.529020  0.298720  0.077820  1.0
  C  C130  1  0.970980  0.422180  0.201280  1.0
  C  C131  1  0.422180  0.201280  0.970980  1.0
  C  C132  1  0.201280  0.970980  0.422180  1.0
  C  C133  1  0.885380  0.507780  0.709080  1.0
  C  C134  1  0.709080  0.885380  0.507780  1.0
  C  C135  1  0.507780  0.709080  0.885380  1.0
  C  C136  1  0.992220  0.614620  0.790920  1.0
  C  C137  1  0.614620  0.790920  0.992220  1.0
  C  C138  1  0.790920  0.992220  0.614620  1.0
  C  C139  1  0.114620  0.492220  0.290920  1.0
  C  C140  1  0.290920  0.114620  0.492220  1.0
  C  C141  1  0.492220  0.290920  0.114620  1.0
  C  C142  1  0.007780  0.385380  0.209080  1.0
  C  C143  1  0.385380  0.209080  0.007780  1.0
  C  C144  1  0.209080  0.007780  0.385380  1.0
  C  C145  1  0.888000  0.532600  0.635200  1.0
  C  C146  1  0.635200  0.888000  0.532600  1.0
  C  C147  1  0.532600  0.635200  0.888000  1.0
  C  C148  1  0.967400  0.612000  0.864800  1.0
  C  C149  1  0.612000  0.864800  0.967400  1.0
  C  C150  1  0.864800  0.967400  0.612000  1.0
  C  C151  1  0.112000  0.467400  0.364800  1.0
  C  C152  1  0.364800  0.112000  0.467400  1.0
  C  C153  1  0.467400  0.364800  0.112000  1.0
  C  C154  1  0.032600  0.388000  0.135200  1.0
  C  C155  1  0.388000  0.135200  0.032600  1.0
  C  C156  1  0.135200  0.032600  0.388000  1.0
  C  C157  1  0.924740  0.497140  0.625040  1.0
  C  C158  1  0.625040  0.924740  0.497140  1.0
  C  C159  1  0.497140  0.625040  0.924740  1.0
  C  C160  1  0.002860  0.575260  0.874960  1.0
  C  C161  1  0.575260  0.874960  0.002860  1.0
  C  C162  1  0.874960  0.002860  0.575260  1.0
  C  C163  1  0.075260  0.502860  0.374960  1.0
  C  C164  1  0.374960  0.075260  0.502860  1.0
  C  C165  1  0.502860  0.374960  0.075260  1.0
  C  C166  1  0.997140  0.424740  0.125040  1.0
  C  C167  1  0.424740  0.125040  0.997140  1.0
  C  C168  1  0.125040  0.997140  0.424740  1.0
  C  C169  1  0.964530  0.390330  0.799130  1.0
  C  C170  1  0.799130  0.964530  0.390330  1.0
  C  C171  1  0.390330  0.799130  0.964530  1.0
  C  C172  1  0.109670  0.535470  0.700870  1.0
  C  C173  1  0.535470  0.700870  0.109670  1.0
  C  C174  1  0.700870  0.109670  0.535470  1.0
  C  C175  1  0.035470  0.609670  0.200870  1.0
  C  C176  1  0.200870  0.035470  0.609670  1.0
  C  C177  1  0.609670  0.200870  0.035470  1.0
  C  C178  1  0.890330  0.464530  0.299130  1.0
  C  C179  1  0.464530  0.299130  0.890330  1.0
  C  C180  1  0.299130  0.890330  0.464530  1.0
  C  C181  1  0.932930  0.429830  0.784030  1.0
  C  C182  1  0.784030  0.932930  0.429830  1.0
  C  C183  1  0.429830  0.784030  0.932930  1.0
  C  C184  1  0.070170  0.567070  0.715970  1.0
  C  C185  1  0.567070  0.715970  0.070170  1.0
  C  C186  1  0.715970  0.070170  0.567070  1.0
  C  C187  1  0.067070  0.570170  0.215970  1.0
  C  C188  1  0.215970  0.067070  0.570170  1.0
  C  C189  1  0.570170  0.215970  0.067070  1.0
  C  C190  1  0.929830  0.432930  0.284030  1.0
  C  C191  1  0.432930  0.284030  0.929830  1.0
  C  C192  1  0.284030  0.929830  0.432930  1.0
  C  C193  1  0.942550  0.435650  0.737150  1.0
  C  C194  1  0.737150  0.942550  0.435650  1.0
  C  C195  1  0.435650  0.737150  0.942550  1.0
  C  C196  1  0.064350  0.557450  0.762850  1.0
  C  C197  1  0.557450  0.762850  0.064350  1.0
  C  C198  1  0.762850  0.064350  0.557450  1.0
  C  C199  1  0.057450  0.564350  0.262850  1.0
  C  C200  1  0.262850  0.057450  0.564350  1.0
  C  C201  1  0.564350  0.262850  0.057450  1.0
  C  C202  1  0.935650  0.442550  0.237150  1.0
  C  C203  1  0.442550  0.237150  0.935650  1.0
  C  C204  1  0.237150  0.935650  0.442550  1.0
  C  C205  1  0.023410  0.326310  0.765510  1.0
  C  C206  1  0.765510  0.023410  0.326310  1.0
  C  C207  1  0.326310  0.765510  0.023410  1.0
  C  C208  1  0.173690  0.476590  0.734490  1.0
  C  C209  1  0.476590  0.734490  0.173690  1.0
  C  C210  1  0.734490  0.173690  0.476590  1.0
  C  C211  1  0.976590  0.673690  0.234490  1.0
  C  C212  1  0.234490  0.976590  0.673690  1.0
  C  C213  1  0.673690  0.234490  0.976590  1.0
  C  C214  1  0.826310  0.523410  0.265510  1.0
  C  C215  1  0.523410  0.265510  0.826310  1.0
  C  C216  1  0.265510  0.826310  0.523410  1.0
  C  C217  1  0.997420  0.291020  0.778820  1.0
  C  C218  1  0.778820  0.997420  0.291020  1.0
  C  C219  1  0.291020  0.778820  0.997420  1.0
  C  C220  1  0.208980  0.502580  0.721180  1.0
  C  C221  1  0.502580  0.721180  0.208980  1.0
  C  C222  1  0.721180  0.208980  0.502580  1.0
  C  C223  1  0.002580  0.708980  0.221180  1.0
  C  C224  1  0.221180  0.002580  0.708980  1.0
  C  C225  1  0.708980  0.221180  0.002580  1.0
  C  C226  1  0.791020  0.497420  0.278820  1.0
  C  C227  1  0.497420  0.278820  0.791020  1.0
  C  C228  1  0.278820  0.791020  0.497420  1.0
  C  C229  1  0.950220  0.306320  0.788820  1.0
  C  C230  1  0.788820  0.950220  0.306320  1.0
  C  C231  1  0.306320  0.788820  0.950220  1.0
  C  C232  1  0.193680  0.549780  0.711180  1.0
  C  C233  1  0.549780  0.711180  0.193680  1.0
  C  C234  1  0.711180  0.193680  0.549780  1.0
  C  C235  1  0.049780  0.693680  0.211180  1.0
  C  C236  1  0.211180  0.049780  0.693680  1.0
  C  C237  1  0.693680  0.211180  0.049780  1.0
  C  C238  1  0.806320  0.450220  0.288820  1.0
  C  C239  1  0.450220  0.288820  0.806320  1.0
  C  C240  1  0.288820  0.806320  0.450220  1.0
  C  C241  1  0.922670  0.275770  0.801770  1.0
  C  C242  1  0.801770  0.922670  0.275770  1.0
  C  C243  1  0.275770  0.801770  0.922670  1.0
  C  C244  1  0.224230  0.577330  0.698230  1.0
  C  C245  1  0.577330  0.698230  0.224230  1.0
  C  C246  1  0.698230  0.224230  0.577330  1.0
  C  C247  1  0.077330  0.724230  0.198230  1.0
  C  C248  1  0.198230  0.077330  0.724230  1.0
  C  C249  1  0.724230  0.198230  0.077330  1.0
  C  C250  1  0.775770  0.422670  0.301770  1.0
  C  C251  1  0.422670  0.301770  0.775770  1.0
  C  C252  1  0.301770  0.775770  0.422670  1.0
  C  C253  1  0.943190  0.231790  0.801290  1.0
  C  C254  1  0.801290  0.943190  0.231790  1.0
  C  C255  1  0.231790  0.801290  0.943190  1.0
  C  C256  1  0.268210  0.556810  0.698710  1.0
  C  C257  1  0.556810  0.698710  0.268210  1.0
  C  C258  1  0.698710  0.268210  0.556810  1.0
  C  C259  1  0.056810  0.768210  0.198710  1.0
  C  C260  1  0.198710  0.056810  0.768210  1.0
  C  C261  1  0.768210  0.198710  0.056810  1.0
  C  C262  1  0.731790  0.443190  0.301290  1.0
  C  C263  1  0.443190  0.301290  0.731790  1.0
  C  C264  1  0.301290  0.731790  0.443190  1.0
  C  C265  1  0.992250  0.215250  0.788450  1.0
  C  C266  1  0.788450  0.992250  0.215250  1.0
  C  C267  1  0.215250  0.788450  0.992250  1.0
  C  C268  1  0.284750  0.507750  0.711550  1.0
  C  C269  1  0.507750  0.711550  0.284750  1.0
  C  C270  1  0.711550  0.284750  0.507750  1.0
  C  C271  1  0.007750  0.784750  0.211550  1.0
  C  C272  1  0.211550  0.007750  0.784750  1.0
  C  C273  1  0.784750  0.211550  0.007750  1.0
  C  C274  1  0.715250  0.492250  0.288450  1.0
  C  C275  1  0.492250  0.288450  0.715250  1.0
  C  C276  1  0.288450  0.715250  0.492250  1.0
  C  C277  1  0.020160  0.244160  0.780260  1.0
  C  C278  1  0.780260  0.020160  0.244160  1.0
  C  C279  1  0.244160  0.780260  0.020160  1.0
  C  C280  1  0.255840  0.479840  0.719740  1.0
  C  C281  1  0.479840  0.719740  0.255840  1.0
  C  C282  1  0.719740  0.255840  0.479840  1.0
  C  C283  1  0.979840  0.755840  0.219740  1.0
  C  C284  1  0.219740  0.979840  0.755840  1.0
  C  C285  1  0.755840  0.219740  0.979840  1.0
  C  C286  1  0.744160  0.520160  0.280260  1.0
  C  C287  1  0.520160  0.280260  0.744160  1.0
  C  C288  1  0.280260  0.744160  0.520160  1.0
  C  C289  1  0.012040  0.169540  0.786440  1.0
  C  C290  1  0.786440  0.012040  0.169540  1.0
  C  C291  1  0.169540  0.786440  0.012040  1.0
  C  C292  1  0.330460  0.487960  0.713560  1.0
  C  C293  1  0.487960  0.713560  0.330460  1.0
  C  C294  1  0.713560  0.330460  0.487960  1.0
  C  C295  1  0.987960  0.830460  0.213560  1.0
  C  C296  1  0.213560  0.987960  0.830460  1.0
  C  C297  1  0.830460  0.213560  0.987960  1.0
  C  C298  1  0.669540  0.512040  0.286440  1.0
  C  C299  1  0.512040  0.286440  0.669540  1.0
  C  C300  1  0.286440  0.669540  0.512040  1.0
  C  C301  1  0.058930  0.150530  0.777430  1.0
  C  C302  1  0.777430  0.058930  0.150530  1.0
  C  C303  1  0.150530  0.777430  0.058930  1.0
  C  C304  1  0.349470  0.441070  0.722570  1.0
  C  C305  1  0.441070  0.722570  0.349470  1.0
  C  C306  1  0.722570  0.349470  0.441070  1.0
  C  C307  1  0.941070  0.849470  0.222570  1.0
  C  C308  1  0.222570  0.941070  0.849470  1.0
  C  C309  1  0.849470  0.222570  0.941070  1.0
  C  C310  1  0.650530  0.558930  0.277430  1.0
  C  C311  1  0.558930  0.277430  0.650530  1.0
  C  C312  1  0.277430  0.650530  0.558930  1.0
  C  C313  1  0.085550  0.176250  0.772850  1.0
  C  C314  1  0.772850  0.085550  0.176250  1.0
  C  C315  1  0.176250  0.772850  0.085550  1.0
  C  C316  1  0.323750  0.414450  0.727150  1.0
  C  C317  1  0.414450  0.727150  0.323750  1.0
  C  C318  1  0.727150  0.323750  0.414450  1.0
  C  C319  1  0.914450  0.823750  0.227150  1.0
  C  C320  1  0.227150  0.914450  0.823750  1.0
  C  C321  1  0.823750  0.227150  0.914450  1.0
  C  C322  1  0.676250  0.585550  0.272850  1.0
  C  C323  1  0.585550  0.272850  0.676250  1.0
  C  C324  1  0.272850  0.676250  0.585550  1.0
  C  C325  1  0.068490  0.221290  0.774390  1.0
  C  C326  1  0.774390  0.068490  0.221290  1.0
  C  C327  1  0.221290  0.774390  0.068490  1.0
  C  C328  1  0.278710  0.431510  0.725610  1.0
  C  C329  1  0.431510  0.725610  0.278710  1.0
  C  C330  1  0.725610  0.278710  0.431510  1.0
  C  C331  1  0.931510  0.778710  0.225610  1.0
  C  C332  1  0.225610  0.931510  0.778710  1.0
  C  C333  1  0.778710  0.225610  0.931510  1.0
  C  C334  1  0.721290  0.568490  0.274390  1.0
  C  C335  1  0.568490  0.274390  0.721290  1.0
  C  C336  1  0.274390  0.721290  0.568490  1.0
  C  C337  1  0.179190  0.201290  0.733790  1.0
  C  C338  1  0.733790  0.179190  0.201290  1.0
  C  C339  1  0.201290  0.733790  0.179190  1.0
  C  C340  1  0.298710  0.320810  0.766210  1.0
  C  C341  1  0.320810  0.766210  0.298710  1.0
  C  C342  1  0.766210  0.298710  0.320810  1.0
  C  C343  1  0.820810  0.798710  0.266210  1.0
  C  C344  1  0.266210  0.820810  0.798710  1.0
  C  C345  1  0.798710  0.266210  0.820810  1.0
  C  C346  1  0.701290  0.679190  0.233790  1.0
  C  C347  1  0.679190  0.233790  0.701290  1.0
  C  C348  1  0.233790  0.701290  0.679190  1.0
  C  C349  1  0.212350  0.164550  0.749250  1.0
  C  C350  1  0.749250  0.212350  0.164550  1.0
  C  C351  1  0.164550  0.749250  0.212350  1.0
  C  C352  1  0.335450  0.287650  0.750750  1.0
  C  C353  1  0.287650  0.750750  0.335450  1.0
  C  C354  1  0.750750  0.335450  0.287650  1.0
  C  C355  1  0.787650  0.835450  0.250750  1.0
  C  C356  1  0.250750  0.787650  0.835450  1.0
  C  C357  1  0.835450  0.250750  0.787650  1.0
  C  C358  1  0.664550  0.712350  0.249250  1.0
  C  C359  1  0.712350  0.249250  0.664550  1.0
  C  C360  1  0.249250  0.664550  0.712350  1.0
  C  C361  1  0.198790  0.157090  0.796790  1.0
  C  C362  1  0.796790  0.198790  0.157090  1.0
  C  C363  1  0.157090  0.796790  0.198790  1.0
  C  C364  1  0.342910  0.301210  0.703210  1.0
  C  C365  1  0.301210  0.703210  0.342910  1.0
  C  C366  1  0.703210  0.342910  0.301210  1.0
  C  C367  1  0.801210  0.842910  0.203210  1.0
  C  C368  1  0.203210  0.801210  0.842910  1.0
  C  C369  1  0.842910  0.203210  0.801210  1.0
  C  C370  1  0.657090  0.698790  0.296790  1.0
  C  C371  1  0.698790  0.296790  0.657090  1.0
  C  C372  1  0.296790  0.657090  0.698790  1.0
  C  C373  1  0.101880  0.245480  0.771380  1.0
  C  C374  1  0.771380  0.101880  0.245480  1.0
  C  C375  1  0.245480  0.771380  0.101880  1.0
  C  C376  1  0.254520  0.398120  0.728620  1.0
  C  C377  1  0.398120  0.728620  0.254520  1.0
  C  C378  1  0.728620  0.254520  0.398120  1.0
  C  C379  1  0.898120  0.754520  0.228620  1.0
  C  C380  1  0.228620  0.898120  0.754520  1.0
  C  C381  1  0.754520  0.228620  0.898120  1.0
  C  C382  1  0.745480  0.601880  0.271380  1.0
  C  C383  1  0.601880  0.271380  0.745480  1.0
  C  C384  1  0.271380  0.745480  0.601880  1.0
  C  C385  1  0.220740  0.121440  0.832840  1.0
  C  C386  1  0.832840  0.220740  0.121440  1.0
  C  C387  1  0.121440  0.832840  0.220740  1.0
  C  C388  1  0.378560  0.279260  0.667160  1.0
  C  C389  1  0.279260  0.667160  0.378560  1.0
  C  C390  1  0.667160  0.378560  0.279260  1.0
  C  C391  1  0.779260  0.878560  0.167160  1.0
  C  C392  1  0.167160  0.779260  0.878560  1.0
  C  C393  1  0.878560  0.167160  0.779260  1.0
  C  C394  1  0.621440  0.720740  0.332840  1.0
  C  C395  1  0.720740  0.332840  0.621440  1.0
  C  C396  1  0.332840  0.621440  0.720740  1.0
  C  C397  1  0.260120  0.086820  0.823520  1.0
  C  C398  1  0.823520  0.260120  0.086820  1.0
  C  C399  1  0.086820  0.823520  0.260120  1.0
  C  C400  1  0.413180  0.239880  0.676480  1.0
  C  C401  1  0.239880  0.676480  0.413180  1.0
  C  C402  1  0.676480  0.413180  0.239880  1.0
  C  C403  1  0.739880  0.913180  0.176480  1.0
  C  C404  1  0.176480  0.739880  0.913180  1.0
  C  C405  1  0.913180  0.176480  0.739880  1.0
  C  C406  1  0.586820  0.760120  0.323520  1.0
  C  C407  1  0.760120  0.323520  0.586820  1.0
  C  C408  1  0.323520  0.586820  0.760120  1.0
  C  C409  1  0.258090  0.061290  0.899290  1.0
  C  C410  1  0.899290  0.258090  0.061290  1.0
  C  C411  1  0.061290  0.899290  0.258090  1.0
  C  C412  1  0.438710  0.241910  0.600710  1.0
  C  C413  1  0.241910  0.600710  0.438710  1.0
  C  C414  1  0.600710  0.438710  0.241910  1.0
  C  C415  1  0.741910  0.938710  0.100710  1.0
  C  C416  1  0.100710  0.741910  0.938710  1.0
  C  C417  1  0.938710  0.100710  0.741910  1.0
  C  C418  1  0.561290  0.758090  0.399290  1.0
  C  C419  1  0.758090  0.399290  0.561290  1.0
  C  C420  1  0.399290  0.561290  0.758090  1.0
  C  C421  1  0.217450  0.095850  0.908250  1.0
  C  C422  1  0.908250  0.217450  0.095850  1.0
  C  C423  1  0.095850  0.908250  0.217450  1.0
  C  C424  1  0.404150  0.282550  0.591750  1.0
  C  C425  1  0.282550  0.591750  0.404150  1.0
  C  C426  1  0.591750  0.404150  0.282550  1.0
  C  C427  1  0.782550  0.904150  0.091750  1.0
  C  C428  1  0.091750  0.782550  0.904150  1.0
  C  C429  1  0.904150  0.091750  0.782550  1.0
  C  C430  1  0.595850  0.717450  0.408250  1.0
  C  C431  1  0.717450  0.408250  0.595850  1.0
  C  C432  1  0.408250  0.595850  0.717450  1.0
  C  C433  1  0.046530  0.453830  0.559430  1.0
  C  C434  1  0.559430  0.046530  0.453830  1.0
  C  C435  1  0.453830  0.559430  0.046530  1.0
  C  C436  1  0.046170  0.453470  0.940570  1.0
  C  C437  1  0.453470  0.940570  0.046170  1.0
  C  C438  1  0.940570  0.046170  0.453470  1.0
  C  C439  1  0.953470  0.546170  0.440570  1.0
  C  C440  1  0.440570  0.953470  0.546170  1.0
  C  C441  1  0.546170  0.440570  0.953470  1.0
  C  C442  1  0.953830  0.546530  0.059430  1.0
  C  C443  1  0.546530  0.059430  0.953830  1.0
  C  C444  1  0.059430  0.953830  0.546530  1.0
  C  C445  1  0.061530  0.467530  0.511530  1.0
  C  C446  1  0.511530  0.061530  0.467530  1.0
  C  C447  1  0.467530  0.511530  0.061530  1.0
  C  C448  1  0.032470  0.438470  0.988470  1.0
  C  C449  1  0.438470  0.988470  0.032470  1.0
  C  C450  1  0.988470  0.032470  0.438470  1.0
  C  C451  1  0.938470  0.532470  0.488470  1.0
  C  C452  1  0.488470  0.938470  0.532470  1.0
  C  C453  1  0.532470  0.488470  0.938470  1.0
  C  C454  1  0.967530  0.561530  0.011530  1.0
  C  C455  1  0.561530  0.011530  0.967530  1.0
  C  C456  1  0.011530  0.967530  0.561530  1.0
  C  C457  1  0.020080  0.427280  0.507880  1.0
  C  C458  1  0.507880  0.020080  0.427280  1.0
  C  C459  1  0.427280  0.507880  0.020080  1.0
  C  C460  1  0.072720  0.479920  0.992120  1.0
  C  C461  1  0.479920  0.992120  0.072720  1.0
  C  C462  1  0.992120  0.072720  0.479920  1.0
  C  C463  1  0.979920  0.572720  0.492120  1.0
  C  C464  1  0.492120  0.979920  0.572720  1.0
  C  C465  1  0.572720  0.492120  0.979920  1.0
  C  C466  1  0.927280  0.520080  0.007880  1.0
  C  C467  1  0.520080  0.007880  0.927280  1.0
  C  C468  1  0.007880  0.927280  0.520080  1.0
  C  C469  1  0.004320  0.413320  0.555720  1.0
  C  C470  1  0.555720  0.004320  0.413320  1.0
  C  C471  1  0.413320  0.555720  0.004320  1.0
  C  C472  1  0.086680  0.495680  0.944280  1.0
  C  C473  1  0.495680  0.944280  0.086680  1.0
  C  C474  1  0.944280  0.086680  0.495680  1.0
  C  C475  1  0.995680  0.586680  0.444280  1.0
  C  C476  1  0.444280  0.995680  0.586680  1.0
  C  C477  1  0.586680  0.444280  0.995680  1.0
  C  C478  1  0.913320  0.504320  0.055720  1.0
  C  C479  1  0.504320  0.055720  0.913320  1.0
  C  C480  1  0.055720  0.913320  0.504320  1.0
  C  C481  1  0.083930  0.500130  0.619430  1.0
  C  C482  1  0.619430  0.083930  0.500130  1.0
  C  C483  1  0.500130  0.619430  0.083930  1.0
  C  C484  1  0.999870  0.416070  0.880570  1.0
  C  C485  1  0.416070  0.880570  0.999870  1.0
  C  C486  1  0.880570  0.999870  0.416070  1.0
  C  C487  1  0.916070  0.499870  0.380570  1.0
  C  C488  1  0.380570  0.916070  0.499870  1.0
  C  C489  1  0.499870  0.380570  0.916070  1.0
  C  C490  1  0.000130  0.583930  0.119430  1.0
  C  C491  1  0.583930  0.119430  0.000130  1.0
  C  C492  1  0.119430  0.000130  0.583930  1.0
  C  C493  1  0.087440  0.497240  0.577440  1.0
  C  C494  1  0.577440  0.087440  0.497240  1.0
  C  C495  1  0.497240  0.577440  0.087440  1.0
  C  C496  1  0.002760  0.412560  0.922560  1.0
  C  C497  1  0.412560  0.922560  0.002760  1.0
  C  C498  1  0.922560  0.002760  0.412560  1.0
  C  C499  1  0.912560  0.502760  0.422560  1.0
  C  C500  1  0.422560  0.912560  0.502760  1.0
  C  C501  1  0.502760  0.422560  0.912560  1.0
  C  C502  1  0.997240  0.587440  0.077440  1.0
  C  C503  1  0.587440  0.077440  0.997240  1.0
  C  C504  1  0.077440  0.997240  0.587440  1.0
  C  C505  1  0.059180  0.469080  0.588380  1.0
  C  C506  1  0.588380  0.059180  0.469080  1.0
  C  C507  1  0.469080  0.588380  0.059180  1.0
  C  C508  1  0.030920  0.440820  0.911620  1.0
  C  C509  1  0.440820  0.911620  0.030920  1.0
  C  C510  1  0.911620  0.030920  0.440820  1.0
  C  C511  1  0.940820  0.530920  0.411620  1.0
  C  C512  1  0.411620  0.940820  0.530920  1.0
  C  C513  1  0.530920  0.411620  0.940820  1.0
  C  C514  1  0.969080  0.559180  0.088380  1.0
  C  C515  1  0.559180  0.088380  0.969080  1.0
  C  C516  1  0.088380  0.969080  0.559180  1.0
  C  C517  1  0.037350  0.475750  0.700950  1.0
  C  C518  1  0.700950  0.037350  0.475750  1.0
  C  C519  1  0.475750  0.700950  0.037350  1.0
  C  C520  1  0.024250  0.462650  0.799050  1.0
  C  C521  1  0.462650  0.799050  0.024250  1.0
  C  C522  1  0.799050  0.024250  0.462650  1.0
  C  C523  1  0.962650  0.524250  0.299050  1.0
  C  C524  1  0.299050  0.962650  0.524250  1.0
  C  C525  1  0.524250  0.299050  0.962650  1.0
  C  C526  1  0.975750  0.537350  0.200950  1.0
  C  C527  1  0.537350  0.200950  0.975750  1.0
  C  C528  1  0.200950  0.975750  0.537350  1.0
  C  C529  1  0.996250  0.518450  0.706250  1.0
  C  C530  1  0.706250  0.996250  0.518450  1.0
  C  C531  1  0.518450  0.706250  0.996250  1.0
  C  C532  1  0.981550  0.503750  0.793750  1.0
  C  C533  1  0.503750  0.793750  0.981550  1.0
  C  C534  1  0.793750  0.981550  0.503750  1.0
  C  C535  1  0.003750  0.481550  0.293750  1.0
  C  C536  1  0.293750  0.003750  0.481550  1.0
  C  C537  1  0.481550  0.293750  0.003750  1.0
  C  C538  1  0.018450  0.496250  0.206250  1.0
  C  C539  1  0.496250  0.206250  0.018450  1.0
  C  C540  1  0.206250  0.018450  0.496250  1.0
  C  C541  1  0.982420  0.547820  0.667820  1.0
  C  C542  1  0.667820  0.982420  0.547820  1.0
  C  C543  1  0.547820  0.667820  0.982420  1.0
  C  C544  1  0.952180  0.517580  0.832180  1.0
  C  C545  1  0.517580  0.832180  0.952180  1.0
  C  C546  1  0.832180  0.952180  0.517580  1.0
  C  C547  1  0.017580  0.452180  0.332180  1.0
  C  C548  1  0.332180  0.017580  0.452180  1.0
  C  C549  1  0.452180  0.332180  0.017580  1.0
  C  C550  1  0.047820  0.482420  0.167820  1.0
  C  C551  1  0.482420  0.167820  0.047820  1.0
  C  C552  1  0.167820  0.047820  0.482420  1.0
  C  C553  1  0.945690  0.584890  0.668590  1.0
  C  C554  1  0.668590  0.945690  0.584890  1.0
  C  C555  1  0.584890  0.668590  0.945690  1.0
  C  C556  1  0.915110  0.554310  0.831410  1.0
  C  C557  1  0.554310  0.831410  0.915110  1.0
  C  C558  1  0.831410  0.915110  0.554310  1.0
  C  C559  1  0.054310  0.415110  0.331410  1.0
  C  C560  1  0.331410  0.054310  0.415110  1.0
  C  C561  1  0.415110  0.331410  0.054310  1.0
  C  C562  1  0.084890  0.445690  0.168590  1.0
  C  C563  1  0.445690  0.168590  0.084890  1.0
  C  C564  1  0.168590  0.084890  0.445690  1.0
  C  C565  1  0.921100  0.595400  0.709100  1.0
  C  C566  1  0.709100  0.921100  0.595400  1.0
  C  C567  1  0.595400  0.709100  0.921100  1.0
  C  C568  1  0.904600  0.578900  0.790900  1.0
  C  C569  1  0.578900  0.790900  0.904600  1.0
  C  C570  1  0.790900  0.904600  0.578900  1.0
  C  C571  1  0.078900  0.404600  0.290900  1.0
  C  C572  1  0.290900  0.078900  0.404600  1.0
  C  C573  1  0.404600  0.290900  0.078900  1.0
  C  C574  1  0.095400  0.421100  0.209100  1.0
  C  C575  1  0.421100  0.209100  0.095400  1.0
  C  C576  1  0.209100  0.095400  0.421100  1.0
  C  C577  1  0.993020  0.317220  0.668820  1.0
  C  C578  1  0.668820  0.993020  0.317220  1.0
  C  C579  1  0.317220  0.668820  0.993020  1.0
  C  C580  1  0.182780  0.506980  0.831180  1.0
  C  C581  1  0.506980  0.831180  0.182780  1.0
  C  C582  1  0.831180  0.182780  0.506980  1.0
  C  C583  1  0.006980  0.682780  0.331180  1.0
  C  C584  1  0.331180  0.006980  0.682780  1.0
  C  C585  1  0.682780  0.331180  0.006980  1.0
  C  C586  1  0.817220  0.493020  0.168820  1.0
  C  C587  1  0.493020  0.168820  0.817220  1.0
  C  C588  1  0.168820  0.817220  0.493020  1.0
  C  C589  1  0.973540  0.281640  0.680740  1.0
  C  C590  1  0.680740  0.973540  0.281640  1.0
  C  C591  1  0.281640  0.680740  0.973540  1.0
  C  C592  1  0.218360  0.526460  0.819260  1.0
  C  C593  1  0.526460  0.819260  0.218360  1.0
  C  C594  1  0.819260  0.218360  0.526460  1.0
  C  C595  1  0.026460  0.718360  0.319260  1.0
  C  C596  1  0.319260  0.026460  0.718360  1.0
  C  C597  1  0.718360  0.319260  0.026460  1.0
  C  C598  1  0.781640  0.473540  0.180740  1.0
  C  C599  1  0.473540  0.180740  0.781640  1.0
  C  C600  1  0.180740  0.781640  0.473540  1.0
  C  C601  1  0.903020  0.331820  0.686920  1.0
  C  C602  1  0.686920  0.903020  0.331820  1.0
  C  C603  1  0.331820  0.686920  0.903020  1.0
  C  C604  1  0.168180  0.596980  0.813080  1.0
  C  C605  1  0.596980  0.813080  0.168180  1.0
  C  C606  1  0.813080  0.168180  0.596980  1.0
  C  C607  1  0.096980  0.668180  0.313080  1.0
  C  C608  1  0.313080  0.096980  0.668180  1.0
  C  C609  1  0.668180  0.313080  0.096980  1.0
  C  C610  1  0.831820  0.403020  0.186920  1.0
  C  C611  1  0.403020  0.186920  0.831820  1.0
  C  C612  1  0.186920  0.831820  0.403020  1.0
  C  C613  1  0.921780  0.368680  0.673780  1.0
  C  C614  1  0.673780  0.921780  0.368680  1.0
  C  C615  1  0.368680  0.673780  0.921780  1.0
  C  C616  1  0.131320  0.578220  0.826220  1.0
  C  C617  1  0.578220  0.826220  0.131320  1.0
  C  C618  1  0.826220  0.131320  0.578220  1.0
  C  C619  1  0.078220  0.631320  0.326220  1.0
  C  C620  1  0.326220  0.078220  0.631320  1.0
  C  C621  1  0.631320  0.326220  0.078220  1.0
  C  C622  1  0.868680  0.421780  0.173780  1.0
  C  C623  1  0.421780  0.173780  0.868680  1.0
  C  C624  1  0.173780  0.868680  0.421780  1.0
  C  C625  1  0.117740  0.287240  0.644940  1.0
  C  C626  1  0.644940  0.117740  0.287240  1.0
  C  C627  1  0.287240  0.644940  0.117740  1.0
  C  C628  1  0.212760  0.382260  0.855060  1.0
  C  C629  1  0.382260  0.855060  0.212760  1.0
  C  C630  1  0.855060  0.212760  0.382260  1.0
  C  C631  1  0.882260  0.712760  0.355060  1.0
  C  C632  1  0.355060  0.882260  0.712760  1.0
  C  C633  1  0.712760  0.355060  0.882260  1.0
  C  C634  1  0.787240  0.617740  0.144940  1.0
  C  C635  1  0.617740  0.144940  0.787240  1.0
  C  C636  1  0.144940  0.787240  0.617740  1.0
  C  C637  1  0.080660  0.270860  0.656160  1.0
  C  C638  1  0.656160  0.080660  0.270860  1.0
  C  C639  1  0.270860  0.656160  0.080660  1.0
  C  C640  1  0.229140  0.419340  0.843840  1.0
  C  C641  1  0.419340  0.843840  0.229140  1.0
  C  C642  1  0.843840  0.229140  0.419340  1.0
  C  C643  1  0.919340  0.729140  0.343840  1.0
  C  C644  1  0.343840  0.919340  0.729140  1.0
  C  C645  1  0.729140  0.343840  0.919340  1.0
  C  C646  1  0.770860  0.580660  0.156160  1.0
  C  C647  1  0.580660  0.156160  0.770860  1.0
  C  C648  1  0.156160  0.770860  0.580660  1.0
  C  C649  1  0.042570  0.310070  0.658670  1.0
  C  C650  1  0.658670  0.042570  0.310070  1.0
  C  C651  1  0.310070  0.658670  0.042570  1.0
  C  C652  1  0.189930  0.457430  0.841330  1.0
  C  C653  1  0.457430  0.841330  0.189930  1.0
  C  C654  1  0.841330  0.189930  0.457430  1.0
  C  C655  1  0.957430  0.689930  0.341330  1.0
  C  C656  1  0.341330  0.957430  0.689930  1.0
  C  C657  1  0.689930  0.341330  0.957430  1.0
  C  C658  1  0.810070  0.542570  0.158670  1.0
  C  C659  1  0.542570  0.158670  0.810070  1.0
  C  C660  1  0.158670  0.810070  0.542570  1.0
  C  C661  1  0.132040  0.362440  0.622640  1.0
  C  C662  1  0.622640  0.132040  0.362440  1.0
  C  C663  1  0.362440  0.622640  0.132040  1.0
  C  C664  1  0.137560  0.367960  0.877360  1.0
  C  C665  1  0.367960  0.877360  0.137560  1.0
  C  C666  1  0.877360  0.137560  0.367960  1.0
  C  C667  1  0.867960  0.637560  0.377360  1.0
  C  C668  1  0.377360  0.867960  0.637560  1.0
  C  C669  1  0.637560  0.377360  0.867960  1.0
  C  C670  1  0.862440  0.632040  0.122640  1.0
  C  C671  1  0.632040  0.122640  0.862440  1.0
  C  C672  1  0.122640  0.862440  0.632040  1.0
  C  C673  1  0.051020  0.174020  0.888120  1.0
  C  C674  1  0.888120  0.051020  0.174020  1.0
  C  C675  1  0.174020  0.888120  0.051020  1.0
  C  C676  1  0.325980  0.448980  0.611880  1.0
  C  C677  1  0.448980  0.611880  0.325980  1.0
  C  C678  1  0.611880  0.325980  0.448980  1.0
  C  C679  1  0.948980  0.825980  0.111880  1.0
  C  C680  1  0.111880  0.948980  0.825980  1.0
  C  C681  1  0.825980  0.111880  0.948980  1.0
  C  C682  1  0.674020  0.551020  0.388120  1.0
  C  C683  1  0.551020  0.388120  0.674020  1.0
  C  C684  1  0.388120  0.674020  0.551020  1.0
  C  C685  1  0.017810  0.156410  0.890010  1.0
  C  C686  1  0.890010  0.017810  0.156410  1.0
  C  C687  1  0.156410  0.890010  0.017810  1.0
  C  C688  1  0.343590  0.482190  0.609990  1.0
  C  C689  1  0.482190  0.609990  0.343590  1.0
  C  C690  1  0.609990  0.343590  0.482190  1.0
  C  C691  1  0.982190  0.843590  0.109990  1.0
  C  C692  1  0.109990  0.982190  0.843590  1.0
  C  C693  1  0.843590  0.109990  0.982190  1.0
  C  C694  1  0.656410  0.517810  0.390010  1.0
  C  C695  1  0.517810  0.390010  0.656410  1.0
  C  C696  1  0.390010  0.656410  0.517810  1.0
  C  C697  1  0.068750  0.086750  0.892650  1.0
  C  C698  1  0.892650  0.068750  0.086750  1.0
  C  C699  1  0.086750  0.892650  0.068750  1.0
  C  C700  1  0.413250  0.431250  0.607350  1.0
  C  C701  1  0.431250  0.607350  0.413250  1.0
  C  C702  1  0.607350  0.413250  0.431250  1.0
  C  C703  1  0.931250  0.913250  0.107350  1.0
  C  C704  1  0.107350  0.931250  0.913250  1.0
  C  C705  1  0.913250  0.107350  0.931250  1.0
  C  C706  1  0.586750  0.568750  0.392650  1.0
  C  C707  1  0.568750  0.392650  0.586750  1.0
  C  C708  1  0.392650  0.586750  0.568750  1.0
  C  C709  1  0.102600  0.103900  0.891000  1.0
  C  C710  1  0.891000  0.102600  0.103900  1.0
  C  C711  1  0.103900  0.891000  0.102600  1.0
  C  C712  1  0.396100  0.397400  0.609000  1.0
  C  C713  1  0.397400  0.609000  0.396100  1.0
  C  C714  1  0.609000  0.396100  0.397400  1.0
  C  C715  1  0.897400  0.896100  0.109000  1.0
  C  C716  1  0.109000  0.897400  0.896100  1.0
  C  C717  1  0.896100  0.109000  0.897400  1.0
  C  C718  1  0.603900  0.602600  0.391000  1.0
  C  C719  1  0.602600  0.391000  0.603900  1.0
  C  C720  1  0.391000  0.603900  0.602600  1.0
  C  C721  1  0.014180  0.294580  0.887680  1.0
  C  C722  1  0.887680  0.014180  0.294580  1.0
  C  C723  1  0.294580  0.887680  0.014180  1.0
  C  C724  1  0.205420  0.485820  0.612320  1.0
  C  C725  1  0.485820  0.612320  0.205420  1.0
  C  C726  1  0.612320  0.205420  0.485820  1.0
  C  C727  1  0.985820  0.705420  0.112320  1.0
  C  C728  1  0.112320  0.985820  0.705420  1.0
  C  C729  1  0.705420  0.112320  0.985820  1.0
  C  C730  1  0.794580  0.514180  0.387680  1.0
  C  C731  1  0.514180  0.387680  0.794580  1.0
  C  C732  1  0.387680  0.794580  0.514180  1.0
  C  C733  1  0.002790  0.257890  0.888990  1.0
  C  C734  1  0.888990  0.002790  0.257890  1.0
  C  C735  1  0.257890  0.888990  0.002790  1.0
  C  C736  1  0.242110  0.497210  0.611010  1.0
  C  C737  1  0.497210  0.611010  0.242110  1.0
  C  C738  1  0.611010  0.242110  0.497210  1.0
  C  C739  1  0.997210  0.742110  0.111010  1.0
  C  C740  1  0.111010  0.997210  0.742110  1.0
  C  C741  1  0.742110  0.111010  0.997210  1.0
  C  C742  1  0.757890  0.502790  0.388990  1.0
  C  C743  1  0.502790  0.388990  0.757890  1.0
  C  C744  1  0.388990  0.757890  0.502790  1.0
  C  C745  1  0.042010  0.222610  0.886310  1.0
  C  C746  1  0.886310  0.042010  0.222610  1.0
  C  C747  1  0.222610  0.886310  0.042010  1.0
  C  C748  1  0.277390  0.457990  0.613690  1.0
  C  C749  1  0.457990  0.613690  0.277390  1.0
  C  C750  1  0.613690  0.277390  0.457990  1.0
  C  C751  1  0.957990  0.777390  0.113690  1.0
  C  C752  1  0.113690  0.957990  0.777390  1.0
  C  C753  1  0.777390  0.113690  0.957990  1.0
  C  C754  1  0.722610  0.542010  0.386310  1.0
  C  C755  1  0.542010  0.386310  0.722610  1.0
  C  C756  1  0.386310  0.722610  0.542010  1.0
  C  C757  1  0.085140  0.305340  0.890440  1.0
  C  C758  1  0.890440  0.085140  0.305340  1.0
  C  C759  1  0.305340  0.890440  0.085140  1.0
  C  C760  1  0.194660  0.414860  0.609560  1.0
  C  C761  1  0.414860  0.609560  0.194660  1.0
  C  C762  1  0.609560  0.194660  0.414860  1.0
  C  C763  1  0.914860  0.694660  0.109560  1.0
  C  C764  1  0.109560  0.914860  0.694660  1.0
  C  C765  1  0.694660  0.109560  0.914860  1.0
  C  C766  1  0.805340  0.585140  0.390440  1.0
  C  C767  1  0.585140  0.390440  0.805340  1.0
  C  C768  1  0.390440  0.805340  0.585140  1.0
  C  C769  1  0.075510  0.300410  0.941810  1.0
  C  C770  1  0.941810  0.075510  0.300410  1.0
  C  C771  1  0.300410  0.941810  0.075510  1.0
  C  C772  1  0.199590  0.424490  0.558190  1.0
  C  C773  1  0.424490  0.558190  0.199590  1.0
  C  C774  1  0.558190  0.199590  0.424490  1.0
  C  C775  1  0.924490  0.699590  0.058190  1.0
  C  C776  1  0.058190  0.924490  0.699590  1.0
  C  C777  1  0.699590  0.058190  0.924490  1.0
  C  C778  1  0.800410  0.575510  0.441810  1.0
  C  C779  1  0.575510  0.441810  0.800410  1.0
  C  C780  1  0.441810  0.800410  0.575510  1.0
  C  C781  1  0.046800  0.274100  0.973400  1.0
  C  C782  1  0.973400  0.046800  0.274100  1.0
  C  C783  1  0.274100  0.973400  0.046800  1.0
  C  C784  1  0.225900  0.453200  0.526600  1.0
  C  C785  1  0.453200  0.526600  0.225900  1.0
  C  C786  1  0.526600  0.225900  0.453200  1.0
  C  C787  1  0.953200  0.725900  0.026600  1.0
  C  C788  1  0.026600  0.953200  0.725900  1.0
  C  C789  1  0.725900  0.026600  0.953200  1.0
  C  C790  1  0.774100  0.546800  0.473400  1.0
  C  C791  1  0.546800  0.473400  0.774100  1.0
  C  C792  1  0.473400  0.774100  0.546800  1.0
  C  C793  1  0.036400  0.266200  0.020500  1.0
  C  C794  1  0.020500  0.036400  0.266200  1.0
  C  C795  1  0.266200  0.020500  0.036400  1.0
  C  C796  1  0.233800  0.463600  0.479500  1.0
  C  C797  1  0.463600  0.479500  0.233800  1.0
  C  C798  1  0.479500  0.233800  0.463600  1.0
  C  C799  1  0.963600  0.733800  0.979500  1.0
  C  C800  1  0.979500  0.963600  0.733800  1.0
  C  C801  1  0.733800  0.979500  0.963600  1.0
  C  C802  1  0.766200  0.536400  0.520500  1.0
  C  C803  1  0.536400  0.520500  0.766200  1.0
  C  C804  1  0.520500  0.766200  0.536400  1.0
  C  C805  1  0.056400  0.284000  0.036400  1.0
  C  C806  1  0.036400  0.056400  0.284000  1.0
  C  C807  1  0.284000  0.036400  0.056400  1.0
  C  C808  1  0.216000  0.443600  0.463600  1.0
  C  C809  1  0.443600  0.463600  0.216000  1.0
  C  C810  1  0.463600  0.216000  0.443600  1.0
  C  C811  1  0.943600  0.716000  0.963600  1.0
  C  C812  1  0.963600  0.943600  0.716000  1.0
  C  C813  1  0.716000  0.963600  0.943600  1.0
  C  C814  1  0.784000  0.556400  0.536400  1.0
  C  C815  1  0.556400  0.536400  0.784000  1.0
  C  C816  1  0.536400  0.784000  0.556400  1.0
  C  C817  1  0.086390  0.311190  0.006190  1.0
  C  C818  1  0.006190  0.086390  0.311190  1.0
  C  C819  1  0.311190  0.006190  0.086390  1.0
  C  C820  1  0.188810  0.413610  0.493810  1.0
  C  C821  1  0.413610  0.493810  0.188810  1.0
  C  C822  1  0.493810  0.188810  0.413610  1.0
  C  C823  1  0.913610  0.688810  0.993810  1.0
  C  C824  1  0.993810  0.913610  0.688810  1.0
  C  C825  1  0.688810  0.993810  0.913610  1.0
  C  C826  1  0.811190  0.586390  0.506190  1.0
  C  C827  1  0.586390  0.506190  0.811190  1.0
  C  C828  1  0.506190  0.811190  0.586390  1.0
  C  C829  1  0.095900  0.321300  0.958700  1.0
  C  C830  1  0.958700  0.095900  0.321300  1.0
  C  C831  1  0.321300  0.958700  0.095900  1.0
  C  C832  1  0.178700  0.404100  0.541300  1.0
  C  C833  1  0.404100  0.541300  0.178700  1.0
  C  C834  1  0.541300  0.178700  0.404100  1.0
  C  C835  1  0.904100  0.678700  0.041300  1.0
  C  C836  1  0.041300  0.904100  0.678700  1.0
  C  C837  1  0.678700  0.041300  0.904100  1.0
  C  C838  1  0.821300  0.595900  0.458700  1.0
  C  C839  1  0.595900  0.458700  0.821300  1.0
  C  C840  1  0.458700  0.821300  0.595900  1.0
  C  C841  1  0.106430  0.328530  0.026230  1.0
  C  C842  1  0.026230  0.106430  0.328530  1.0
  C  C843  1  0.328530  0.026230  0.106430  1.0
  C  C844  1  0.171470  0.393570  0.473770  1.0
  C  C845  1  0.393570  0.473770  0.171470  1.0
  C  C846  1  0.473770  0.171470  0.393570  1.0
  C  C847  1  0.893570  0.671470  0.973770  1.0
  C  C848  1  0.973770  0.893570  0.671470  1.0
  C  C849  1  0.671470  0.973770  0.893570  1.0
  C  C850  1  0.828530  0.606430  0.526230  1.0
  C  C851  1  0.606430  0.526230  0.828530  1.0
  C  C852  1  0.526230  0.828530  0.606430  1.0
  C  C853  1  0.134430  0.356230  0.999630  1.0
  C  C854  1  0.999630  0.134430  0.356230  1.0
  C  C855  1  0.356230  0.999630  0.134430  1.0
  C  C856  1  0.143770  0.365570  0.500370  1.0
  C  C857  1  0.365570  0.500370  0.143770  1.0
  C  C858  1  0.500370  0.143770  0.365570  1.0
  C  C859  1  0.865570  0.643770  0.000370  1.0
  C  C860  1  0.000370  0.865570  0.643770  1.0
  C  C861  1  0.643770  0.000370  0.865570  1.0
  C  C862  1  0.856230  0.634430  0.499630  1.0
  C  C863  1  0.634430  0.499630  0.856230  1.0
  C  C864  1  0.499630  0.856230  0.634430  1.0
  C  C865  1  0.143270  0.368370  0.951170  1.0
  C  C866  1  0.951170  0.143270  0.368370  1.0
  C  C867  1  0.368370  0.951170  0.143270  1.0
  C  C868  1  0.131630  0.356730  0.548830  1.0
  C  C869  1  0.356730  0.548830  0.131630  1.0
  C  C870  1  0.548830  0.131630  0.356730  1.0
  C  C871  1  0.856730  0.631630  0.048830  1.0
  C  C872  1  0.048830  0.856730  0.631630  1.0
  C  C873  1  0.631630  0.048830  0.856730  1.0
  C  C874  1  0.868370  0.643270  0.451170  1.0
  C  C875  1  0.643270  0.451170  0.868370  1.0
  C  C876  1  0.451170  0.868370  0.643270  1.0
  C  C877  1  0.147850  0.374450  0.571150  1.0
  C  C878  1  0.571150  0.147850  0.374450  1.0
  C  C879  1  0.374450  0.571150  0.147850  1.0
  C  C880  1  0.125550  0.352150  0.928850  1.0
  C  C881  1  0.352150  0.928850  0.125550  1.0
  C  C882  1  0.928850  0.125550  0.352150  1.0
  C  C883  1  0.852150  0.625550  0.428850  1.0
  C  C884  1  0.428850  0.852150  0.625550  1.0
  C  C885  1  0.625550  0.428850  0.852150  1.0
  C  C886  1  0.874450  0.647850  0.071150  1.0
  C  C887  1  0.647850  0.071150  0.874450  1.0
  C  C888  1  0.071150  0.874450  0.647850  1.0
  C  C889  1  0.149540  0.193740  0.960140  1.0
  C  C890  1  0.960140  0.149540  0.193740  1.0
  C  C891  1  0.193740  0.960140  0.149540  1.0
  C  C892  1  0.306260  0.350460  0.539860  1.0
  C  C893  1  0.350460  0.539860  0.306260  1.0
  C  C894  1  0.539860  0.306260  0.350460  1.0
  C  C895  1  0.850460  0.806260  0.039860  1.0
  C  C896  1  0.039860  0.850460  0.806260  1.0
  C  C897  1  0.806260  0.039860  0.850460  1.0
  C  C898  1  0.693740  0.649540  0.460140  1.0
  C  C899  1  0.649540  0.460140  0.693740  1.0
  C  C900  1  0.460140  0.693740  0.649540  1.0
  C  C901  1  0.142380  0.191280  0.005580  1.0
  C  C902  1  0.005580  0.142380  0.191280  1.0
  C  C903  1  0.191280  0.005580  0.142380  1.0
  C  C904  1  0.308720  0.357620  0.494420  1.0
  C  C905  1  0.357620  0.494420  0.308720  1.0
  C  C906  1  0.494420  0.308720  0.357620  1.0
  C  C907  1  0.857620  0.808720  0.994420  1.0
  C  C908  1  0.994420  0.857620  0.808720  1.0
  C  C909  1  0.808720  0.994420  0.857620  1.0
  C  C910  1  0.691280  0.642380  0.505580  1.0
  C  C911  1  0.642380  0.505580  0.691280  1.0
  C  C912  1  0.505580  0.691280  0.642380  1.0
  C  C913  1  0.093700  0.147600  0.030500  1.0
  C  C914  1  0.030500  0.093700  0.147600  1.0
  C  C915  1  0.147600  0.030500  0.093700  1.0
  C  C916  1  0.352400  0.406300  0.469500  1.0
  C  C917  1  0.406300  0.469500  0.352400  1.0
  C  C918  1  0.469500  0.352400  0.406300  1.0
  C  C919  1  0.906300  0.852400  0.969500  1.0
  C  C920  1  0.969500  0.906300  0.852400  1.0
  C  C921  1  0.852400  0.969500  0.906300  1.0
  C  C922  1  0.647600  0.593700  0.530500  1.0
  C  C923  1  0.593700  0.530500  0.647600  1.0
  C  C924  1  0.530500  0.647600  0.593700  1.0
  C  C925  1  0.099680  0.149780  0.985380  1.0
  C  C926  1  0.985380  0.099680  0.149780  1.0
  C  C927  1  0.149780  0.985380  0.099680  1.0
  C  C928  1  0.350220  0.400320  0.514620  1.0
  C  C929  1  0.400320  0.514620  0.350220  1.0
  C  C930  1  0.514620  0.350220  0.400320  1.0
  C  C931  1  0.900320  0.850220  0.014620  1.0
  C  C932  1  0.014620  0.900320  0.850220  1.0
  C  C933  1  0.850220  0.014620  0.900320  1.0
  C  C934  1  0.649780  0.599680  0.485380  1.0
  C  C935  1  0.599680  0.485380  0.649780  1.0
  C  C936  1  0.485380  0.649780  0.599680  1.0
  C  C937  1  0.226260  0.259160  0.871460  1.0
  C  C938  1  0.871460  0.226260  0.259160  1.0
  C  C939  1  0.259160  0.871460  0.226260  1.0
  C  C940  1  0.240840  0.273740  0.628540  1.0
  C  C941  1  0.273740  0.628540  0.240840  1.0
  C  C942  1  0.628540  0.240840  0.273740  1.0
  C  C943  1  0.773740  0.740840  0.128540  1.0
  C  C944  1  0.128540  0.773740  0.740840  1.0
  C  C945  1  0.740840  0.128540  0.773740  1.0
  C  C946  1  0.759160  0.726260  0.371460  1.0
  C  C947  1  0.726260  0.371460  0.759160  1.0
  C  C948  1  0.371460  0.759160  0.726260  1.0
  C  C949  1  0.206310  0.245410  0.916710  1.0
  C  C950  1  0.916710  0.206310  0.245410  1.0
  C  C951  1  0.245410  0.916710  0.206310  1.0
  C  C952  1  0.254590  0.293690  0.583290  1.0
  C  C953  1  0.293690  0.583290  0.254590  1.0
  C  C954  1  0.583290  0.254590  0.293690  1.0
  C  C955  1  0.793690  0.754590  0.083290  1.0
  C  C956  1  0.083290  0.793690  0.754590  1.0
  C  C957  1  0.754590  0.083290  0.793690  1.0
  C  C958  1  0.745410  0.706310  0.416710  1.0
  C  C959  1  0.706310  0.416710  0.745410  1.0
  C  C960  1  0.416710  0.745410  0.706310  1.0
  C  C961  1  0.178150  0.219450  0.921150  1.0
  C  C962  1  0.921150  0.178150  0.219450  1.0
  C  C963  1  0.219450  0.921150  0.178150  1.0
  C  C964  1  0.280550  0.321850  0.578850  1.0
  C  C965  1  0.321850  0.578850  0.280550  1.0
  C  C966  1  0.578850  0.280550  0.321850  1.0
  C  C967  1  0.821850  0.780550  0.078850  1.0
  C  C968  1  0.078850  0.821850  0.780550  1.0
  C  C969  1  0.780550  0.078850  0.821850  1.0
  C  C970  1  0.719450  0.678150  0.421150  1.0
  C  C971  1  0.678150  0.421150  0.719450  1.0
  C  C972  1  0.421150  0.719450  0.678150  1.0
  C  C973  1  0.230450  0.243550  0.801850  1.0
  C  C974  1  0.801850  0.230450  0.243550  1.0
  C  C975  1  0.243550  0.801850  0.230450  1.0
  C  C976  1  0.256450  0.269550  0.698150  1.0
  C  C977  1  0.269550  0.698150  0.256450  1.0
  C  C978  1  0.698150  0.256450  0.269550  1.0
  C  C979  1  0.769550  0.756450  0.198150  1.0
  C  C980  1  0.198150  0.769550  0.756450  1.0
  C  C981  1  0.756450  0.198150  0.769550  1.0
  C  C982  1  0.743550  0.730450  0.301850  1.0
  C  C983  1  0.730450  0.301850  0.743550  1.0
  C  C984  1  0.301850  0.743550  0.730450  1.0
  C  C985  1  0.274890  0.204190  0.794790  1.0
  C  C986  1  0.794790  0.274890  0.204190  1.0
  C  C987  1  0.204190  0.794790  0.274890  1.0
  C  C988  1  0.295810  0.225110  0.705210  1.0
  C  C989  1  0.225110  0.705210  0.295810  1.0
  C  C990  1  0.705210  0.295810  0.225110  1.0
  C  C991  1  0.725110  0.795810  0.205210  1.0
  C  C992  1  0.205210  0.725110  0.795810  1.0
  C  C993  1  0.795810  0.205210  0.725110  1.0
  C  C994  1  0.704190  0.774890  0.294790  1.0
  C  C995  1  0.774890  0.294790  0.704190  1.0
  C  C996  1  0.294790  0.704190  0.774890  1.0
  C  C997  1  0.287960  0.174160  0.833260  1.0
  C  C998  1  0.833260  0.287960  0.174160  1.0
  C  C999  1  0.174160  0.833260  0.287960  1.0
  C  C1000  1  0.325840  0.212040  0.666740  1.0
  C  C1001  1  0.212040  0.666740  0.325840  1.0
  C  C1002  1  0.666740  0.325840  0.212040  1.0
  C  C1003  1  0.712040  0.825840  0.166740  1.0
  C  C1004  1  0.166740  0.712040  0.825840  1.0
  C  C1005  1  0.825840  0.166740  0.712040  1.0
  C  C1006  1  0.674160  0.787960  0.333260  1.0
  C  C1007  1  0.787960  0.333260  0.674160  1.0
  C  C1008  1  0.333260  0.674160  0.787960  1.0
  C  C1009  1  0.371670  0.146570  0.708470  1.0
  C  C1010  1  0.708470  0.371670  0.146570  1.0
  C  C1011  1  0.146570  0.708470  0.371670  1.0
  C  C1012  1  0.353430  0.128330  0.791530  1.0
  C  C1013  1  0.128330  0.791530  0.353430  1.0
  C  C1014  1  0.791530  0.353430  0.128330  1.0
  C  C1015  1  0.628330  0.853430  0.291530  1.0
  C  C1016  1  0.291530  0.628330  0.853430  1.0
  C  C1017  1  0.853430  0.291530  0.628330  1.0
  C  C1018  1  0.646570  0.871670  0.208470  1.0
  C  C1019  1  0.871670  0.208470  0.646570  1.0
  C  C1020  1  0.208470  0.646570  0.871670  1.0
  C  C1021  1  0.326710  0.136310  0.832810  1.0
  C  C1022  1  0.832810  0.326710  0.136310  1.0
  C  C1023  1  0.136310  0.832810  0.326710  1.0
  C  C1024  1  0.363690  0.173290  0.667190  1.0
  C  C1025  1  0.173290  0.667190  0.363690  1.0
  C  C1026  1  0.667190  0.363690  0.173290  1.0
  C  C1027  1  0.673290  0.863690  0.167190  1.0
  C  C1028  1  0.167190  0.673290  0.863690  1.0
  C  C1029  1  0.863690  0.167190  0.673290  1.0
  C  C1030  1  0.636310  0.826710  0.332810  1.0
  C  C1031  1  0.826710  0.332810  0.636310  1.0
  C  C1032  1  0.332810  0.636310  0.826710  1.0
  F  F1033  1  0.232200  0.149200  0.591300  1
  F  F1034  1  0.591300  0.232200  0.149200  1
  F  F1035  1  0.149200  0.591300  0.232200  1
  F  F1036  1  0.350800  0.267800  0.908700  1
  F  F1037  1  0.267800  0.908700  0.350800  1
  F  F1038  1  0.908700  0.350800  0.267800  1
  F  F1039  1  0.767800  0.850800  0.408700  1
  F  F1040  1  0.408700  0.767800  0.850800  1
  F  F1041  1  0.850800  0.408700  0.767800  1
  F  F1042  1  0.649200  0.732200  0.091300  1
  F  F1043  1  0.732200  0.091300  0.649200  1
  F  F1044  1  0.091300  0.649200  0.732200  1
  F  F1045  1  0.204860  0.226410  0.584210  1
  F  F1046  1  0.584210  0.204860  0.226410  1
  F  F1047  1  0.226410  0.584210  0.204860  1
  F  F1048  1  0.273590  0.295140  0.915790  1
  F  F1049  1  0.295140  0.915790  0.273590  1
  F  F1050  1  0.915790  0.273590  0.295140  1
  F  F1051  1  0.795140  0.773590  0.415790  1
  F  F1052  1  0.415790  0.795140  0.773590  1
  F  F1053  1  0.773590  0.415790  0.795140  1
  F  F1054  1  0.726410  0.704860  0.084210  1
  F  F1055  1  0.704860  0.084210  0.726410  1
  F  F1056  1  0.084210  0.726410  0.704860  1
  F  F1057  1  0.231250  0.175990  0.645410  1
  F  F1058  1  0.645410  0.231250  0.175990  1
  F  F1059  1  0.175990  0.645410  0.231250  1
  F  F1060  1  0.324010  0.268750  0.854590  1
  F  F1061  1  0.268750  0.854590  0.324010  1
  F  F1062  1  0.854590  0.324010  0.268750  1
  F  F1063  1  0.768750  0.824010  0.354590  1
  F  F1064  1  0.354590  0.768750  0.824010  1
  F  F1065  1  0.824010  0.354590  0.768750  1
  F  F1066  1  0.675990  0.731250  0.145410  1
  F  F1067  1  0.731250  0.145410  0.675990  1
  F  F1068  1  0.145410  0.675990  0.731250  1
  F  F1069  1  0.165790  0.176310  0.640470  1
  F  F1070  1  0.640470  0.165790  0.176310  1
  F  F1071  1  0.176310  0.640470  0.165790  1
  F  F1072  1  0.323690  0.334210  0.859530  1
  F  F1073  1  0.334210  0.859530  0.323690  1
  F  F1074  1  0.859530  0.323690  0.334210  1
  F  F1075  1  0.834210  0.823690  0.359530  1
  F  F1076  1  0.359530  0.834210  0.823690  1
  F  F1077  1  0.823690  0.359530  0.834210  1
  F  F1078  1  0.676310  0.665790  0.140470  1
  F  F1079  1  0.665790  0.140470  0.676310  1
  F  F1080  1  0.140470  0.676310  0.665790  1
  F  F1081  1  0.425210  0.109210  0.543010  1
  F  F1082  1  0.543010  0.425210  0.109210  1
  F  F1083  1  0.109210  0.543010  0.425210  1
  F  F1084  1  0.390790  0.074790  0.956990  1
  F  F1085  1  0.074790  0.956990  0.390790  1
  F  F1086  1  0.956990  0.390790  0.074790  1
  F  F1087  1  0.574790  0.890790  0.456990  1
  F  F1088  1  0.456990  0.574790  0.890790  1
  F  F1089  1  0.890790  0.456990  0.574790  1
  F  F1090  1  0.609210  0.925210  0.043010  1
  F  F1091  1  0.925210  0.043010  0.609210  1
  F  F1092  1  0.043010  0.609210  0.925210  1
  F  F1093  1  0.446710  0.149610  0.572910  1
  F  F1094  1  0.572910  0.446710  0.149610  1
  F  F1095  1  0.149610  0.572910  0.446710  1
  F  F1096  1  0.350390  0.053290  0.927090  1
  F  F1097  1  0.053290  0.927090  0.350390  1
  F  F1098  1  0.927090  0.350390  0.053290  1
  F  F1099  1  0.553290  0.850390  0.427090  1
  F  F1100  1  0.427090  0.553290  0.850390  1
  F  F1101  1  0.850390  0.427090  0.553290  1
  F  F1102  1  0.649610  0.946710  0.072910  1
  F  F1103  1  0.946710  0.072910  0.649610  1
  F  F1104  1  0.072910  0.649610  0.946710  1
  F  F1105  1  0.417060  0.089860  0.619560  1
  F  F1106  1  0.619560  0.417060  0.089860  1
  F  F1107  1  0.089860  0.619560  0.417060  1
  F  F1108  1  0.410140  0.082940  0.880440  1
  F  F1109  1  0.082940  0.880440  0.410140  1
  F  F1110  1  0.880440  0.410140  0.082940  1
  F  F1111  1  0.582940  0.910140  0.380440  1
  F  F1112  1  0.380440  0.582940  0.910140  1
  F  F1113  1  0.910140  0.380440  0.582940  1
  F  F1114  1  0.589860  0.917060  0.119560  1
  F  F1115  1  0.917060  0.119560  0.589860  1
  F  F1116  1  0.119560  0.589860  0.917060  1
  F  F1117  1  0.489120  0.076320  0.570820  1
  F  F1118  1  0.570820  0.489120  0.076320  1
  F  F1119  1  0.076320  0.570820  0.489120  1
  F  F1120  1  0.423680  0.010880  0.929180  1
  F  F1121  1  0.010880  0.929180  0.423680  1
  F  F1122  1  0.929180  0.423680  0.010880  1
  F  F1123  1  0.510880  0.923680  0.429180  1
  F  F1124  1  0.429180  0.510880  0.923680  1
  F  F1125  1  0.923680  0.429180  0.510880  1
  F  F1126  1  0.576320  0.989120  0.070820  1
  F  F1127  1  0.989120  0.070820  0.576320  1
  F  F1128  1  0.070820  0.576320  0.989120  1
  F  F1129  1  0.976430  0.140930  0.057330  1
  F  F1130  1  0.057330  0.976430  0.140930  1
  F  F1131  1  0.140930  0.057330  0.976430  1
  F  F1132  1  0.359070  0.523570  0.442670  1
  F  F1133  1  0.523570  0.442670  0.359070  1
  F  F1134  1  0.442670  0.359070  0.523570  1
  F  F1135  1  0.023570  0.859070  0.942670  1
  F  F1136  1  0.942670  0.023570  0.859070  1
  F  F1137  1  0.859070  0.942670  0.023570  1
  F  F1138  1  0.640930  0.476430  0.557330  1
  F  F1139  1  0.476430  0.557330  0.640930  1
  F  F1140  1  0.557330  0.640930  0.476430  1
  F  F1141  1  0.006260  0.137260  0.985960  1
  F  F1142  1  0.985960  0.006260  0.137260  1
  F  F1143  1  0.137260  0.985960  0.006260  1
  F  F1144  1  0.362740  0.493740  0.514040  1
  F  F1145  1  0.493740  0.514040  0.362740  1
  F  F1146  1  0.514040  0.362740  0.493740  1
  F  F1147  1  0.993740  0.862740  0.014040  1
  F  F1148  1  0.014040  0.993740  0.862740  1
  F  F1149  1  0.862740  0.014040  0.993740  1
  F  F1150  1  0.637260  0.506260  0.485960  1
  F  F1151  1  0.506260  0.485960  0.637260  1
  F  F1152  1  0.485960  0.637260  0.506260  1
  F  F1153  1  0.931110  0.180010  0.008310  1
  F  F1154  1  0.008310  0.931110  0.180010  1
  F  F1155  1  0.180010  0.008310  0.931110  1
  F  F1156  1  0.319990  0.568890  0.491690  1
  F  F1157  1  0.568890  0.491690  0.319990  1
  F  F1158  1  0.491690  0.319990  0.568890  1
  F  F1159  1  0.068890  0.819990  0.991690  1
  F  F1160  1  0.991690  0.068890  0.819990  1
  F  F1161  1  0.819990  0.991690  0.068890  1
  F  F1162  1  0.680010  0.431110  0.508310  1
  F  F1163  1  0.431110  0.508310  0.680010  1
  F  F1164  1  0.508310  0.680010  0.431110  1
  F  F1165  1  0.989760  0.203060  0.002060  1
  F  F1166  1  0.002060  0.989760  0.203060  1
  F  F1167  1  0.203060  0.002060  0.989760  1
  F  F1168  1  0.296940  0.510240  0.497940  1
  F  F1169  1  0.510240  0.497940  0.296940  1
  F  F1170  1  0.497940  0.296940  0.510240  1
  F  F1171  1  0.010240  0.796940  0.997940  1
  F  F1172  1  0.997940  0.010240  0.796940  1
  F  F1173  1  0.796940  0.997940  0.010240  1
  F  F1174  1  0.703060  0.489760  0.502060  1
  F  F1175  1  0.489760  0.502060  0.703060  1
  F  F1176  1  0.502060  0.703060  0.489760  1
  F  F1177  1  0.143970  0.326770  0.719970  1
  F  F1178  1  0.719970  0.143970  0.326770  1
  F  F1179  1  0.326770  0.719970  0.143970  1
  F  F1180  1  0.173230  0.356030  0.780030  1
  F  F1181  1  0.356030  0.780030  0.173230  1
  F  F1182  1  0.780030  0.173230  0.356030  1
  F  F1183  1  0.856030  0.673230  0.280030  1
  F  F1184  1  0.280030  0.856030  0.673230  1
  F  F1185  1  0.673230  0.280030  0.856030  1
  F  F1186  1  0.826770  0.643970  0.219970  1
  F  F1187  1  0.643970  0.219970  0.826770  1
  F  F1188  1  0.219970  0.826770  0.643970  1
  F  F1189  1  0.139950  0.312400  0.785100  1.0
  F  F1190  1  0.785100  0.139950  0.312400  1.0
  F  F1191  1  0.312400  0.785100  0.139950  1.0
  F  F1192  1  0.187600  0.360050  0.714900  1.0
  F  F1193  1  0.360050  0.714900  0.187600  1.0
  F  F1194  1  0.714900  0.187600  0.360050  1.0
  F  F1195  1  0.860050  0.687600  0.214900  1.0
  F  F1196  1  0.214900  0.860050  0.687600  1.0
  F  F1197  1  0.687600  0.214900  0.860050  1.0
  F  F1198  1  0.812400  0.639950  0.285100  1.0
  F  F1199  1  0.639950  0.285100  0.812400  1.0
  F  F1200  1  0.285100  0.812400  0.639950  1.0
  F  F1201  1  0.085650  0.367230  0.784990  1.0
  F  F1202  1  0.784990  0.085650  0.367230  1.0
  F  F1203  1  0.367230  0.784990  0.085650  1.0
  F  F1204  1  0.132770  0.414350  0.715010  1.0
  F  F1205  1  0.414350  0.715010  0.132770  1.0
  F  F1206  1  0.715010  0.132770  0.414350  1.0
  F  F1207  1  0.914350  0.632770  0.215010  1.0
  F  F1208  1  0.215010  0.914350  0.632770  1.0
  F  F1209  1  0.632770  0.215010  0.914350  1.0
  F  F1210  1  0.867230  0.585650  0.284990  1.0
  F  F1211  1  0.585650  0.284990  0.867230  1.0
  F  F1212  1  0.284990  0.867230  0.585650  1.0
  F  F1213  1  0.105080  0.367780  0.719080  1.0
  F  F1214  1  0.719080  0.105080  0.367780  1.0
  F  F1215  1  0.367780  0.719080  0.105080  1.0
  F  F1216  1  0.132220  0.394920  0.780920  1.0
  F  F1217  1  0.394920  0.780920  0.132220  1.0
  F  F1218  1  0.780920  0.132220  0.394920  1.0
  F  F1219  1  0.894920  0.632220  0.280920  1.0
  F  F1220  1  0.280920  0.894920  0.632220  1.0
  F  F1221  1  0.632220  0.280920  0.894920  1.0
  F  F1222  1  0.867780  0.605080  0.219080  1.0
  F  F1223  1  0.605080  0.219080  0.867780  1.0
  F  F1224  1  0.219080  0.867780  0.605080  1.0
  H  H1225  1  0.068900  0.182700  0.630500  1
  H  H1226  1  0.630500  0.068900  0.182700  1
  H  H1227  1  0.182700  0.630500  0.068900  1
  H  H1228  1  0.317300  0.431100  0.869500  1
  H  H1229  1  0.431100  0.869500  0.317300  1
  H  H1230  1  0.869500  0.317300  0.431100  1
  H  H1231  1  0.931100  0.817300  0.369500  1
  H  H1232  1  0.369500  0.931100  0.817300  1
  H  H1233  1  0.817300  0.369500  0.931100  1
  H  H1234  1  0.682700  0.568900  0.130500  1
  H  H1235  1  0.568900  0.130500  0.682700  1
  H  H1236  1  0.130500  0.682700  0.568900  1
  H  H1237  1  0.037300  0.158700  0.676500  1
  H  H1238  1  0.676500  0.037300  0.158700  1
  H  H1239  1  0.158700  0.676500  0.037300  1
  H  H1240  1  0.341300  0.462700  0.823500  1
  H  H1241  1  0.462700  0.823500  0.341300  1
  H  H1242  1  0.823500  0.341300  0.462700  1
  H  H1243  1  0.962700  0.841300  0.323500  1
  H  H1244  1  0.323500  0.962700  0.841300  1
  H  H1245  1  0.841300  0.323500  0.962700  1
  H  H1246  1  0.658700  0.537300  0.176500  1
  H  H1247  1  0.537300  0.176500  0.658700  1
  H  H1248  1  0.176500  0.658700  0.537300  1
  H  H1249  1  0.999500  0.159300  0.632100  1
  H  H1250  1  0.632100  0.999500  0.159300  1
  H  H1251  1  0.159300  0.632100  0.999500  1
  H  H1252  1  0.340700  0.500500  0.867900  1
  H  H1253  1  0.500500  0.867900  0.340700  1
  H  H1254  1  0.867900  0.340700  0.500500  1
  H  H1255  1  0.000500  0.840700  0.367900  1
  H  H1256  1  0.367900  0.000500  0.840700  1
  H  H1257  1  0.840700  0.367900  0.000500  1
  H  H1258  1  0.659300  0.499500  0.132100  1
  H  H1259  1  0.499500  0.132100  0.659300  1
  H  H1260  1  0.132100  0.659300  0.499500  1
  H  H1261  1  0.040300  0.168200  0.587200  1
  H  H1262  1  0.587200  0.040300  0.168200  1
  H  H1263  1  0.168200  0.587200  0.040300  1
  H  H1264  1  0.331800  0.459700  0.912800  1
  H  H1265  1  0.459700  0.912800  0.331800  1
  H  H1266  1  0.912800  0.331800  0.459700  1
  H  H1267  1  0.959700  0.831800  0.412800  1
  H  H1268  1  0.412800  0.959700  0.831800  1
  H  H1269  1  0.831800  0.412800  0.959700  1
  H  H1270  1  0.668200  0.540300  0.087200  1
  H  H1271  1  0.540300  0.087200  0.668200  1
  H  H1272  1  0.087200  0.668200  0.540300  1
  H  H1273  1  0.029600  0.083100  0.648800  1
  H  H1274  1  0.648800  0.029600  0.083100  1
  H  H1275  1  0.083100  0.648800  0.029600  1
  H  H1276  1  0.416900  0.470400  0.851200  1
  H  H1277  1  0.470400  0.851200  0.416900  1
  H  H1278  1  0.851200  0.416900  0.470400  1
  H  H1279  1  0.970400  0.916900  0.351200  1
  H  H1280  1  0.351200  0.970400  0.916900  1
  H  H1281  1  0.916900  0.351200  0.970400  1
  H  H1282  1  0.583100  0.529600  0.148800  1
  H  H1283  1  0.529600  0.148800  0.583100  1
  H  H1284  1  0.148800  0.583100  0.529600  1
  H  H1285  1  0.051700  0.093800  0.595300  1
  H  H1286  1  0.595300  0.051700  0.093800  1
  H  H1287  1  0.093800  0.595300  0.051700  1
  H  H1288  1  0.406200  0.448300  0.904700  1
  H  H1289  1  0.448300  0.904700  0.406200  1
  H  H1290  1  0.904700  0.406200  0.448300  1
  H  H1291  1  0.948300  0.906200  0.404700  1
  H  H1292  1  0.404700  0.948300  0.906200  1
  H  H1293  1  0.906200  0.404700  0.948300  1
  H  H1294  1  0.593800  0.551700  0.095300  1
  H  H1295  1  0.551700  0.095300  0.593800  1
  H  H1296  1  0.095300  0.593800  0.551700  1
  H  H1297  1  0.124800  0.121400  0.636500  1
  H  H1298  1  0.636500  0.124800  0.121400  1
  H  H1299  1  0.121400  0.636500  0.124800  1
  H  H1300  1  0.378600  0.375200  0.863500  1
  H  H1301  1  0.375200  0.863500  0.378600  1
  H  H1302  1  0.863500  0.378600  0.375200  1
  H  H1303  1  0.875200  0.878600  0.363500  1
  H  H1304  1  0.363500  0.875200  0.878600  1
  H  H1305  1  0.878600  0.363500  0.875200  1
  H  H1306  1  0.621400  0.624800  0.136500  1
  H  H1307  1  0.624800  0.136500  0.621400  1
  H  H1308  1  0.136500  0.621400  0.624800  1
  H  H1309  1  0.093800  0.098200  0.683200  1
  H  H1310  1  0.683200  0.093800  0.098200  1
  H  H1311  1  0.098200  0.683200  0.093800  1
  H  H1312  1  0.401800  0.406200  0.816800  1
  H  H1313  1  0.406200  0.816800  0.401800  1
  H  H1314  1  0.816800  0.401800  0.406200  1
  H  H1315  1  0.906200  0.901800  0.316800  1
  H  H1316  1  0.316800  0.906200  0.901800  1
  H  H1317  1  0.901800  0.316800  0.906200  1
  H  H1318  1  0.598200  0.593800  0.183200  1
  H  H1319  1  0.593800  0.183200  0.598200  1
  H  H1320  1  0.183200  0.598200  0.593800  1
  H  H1321  1  0.872200  0.510700  0.738900  1.0
  H  H1322  1  0.738900  0.872200  0.510700  1.0
  H  H1323  1  0.510700  0.738900  0.872200  1.0
  H  H1324  1  0.989300  0.627800  0.761100  1.0
  H  H1325  1  0.627800  0.761100  0.989300  1.0
  H  H1326  1  0.761100  0.989300  0.627800  1.0
  H  H1327  1  0.127800  0.489300  0.261100  1.0
  H  H1328  1  0.261100  0.127800  0.489300  1.0
  H  H1329  1  0.489300  0.261100  0.127800  1.0
  H  H1330  1  0.010700  0.372200  0.238900  1.0
  H  H1331  1  0.372200  0.238900  0.010700  1.0
  H  H1332  1  0.238900  0.010700  0.372200  1.0
  H  H1333  1  0.876300  0.554000  0.611100  1.0
  H  H1334  1  0.611100  0.876300  0.554000  1.0
  H  H1335  1  0.554000  0.611100  0.876300  1.0
  H  H1336  1  0.946000  0.623700  0.888900  1.0
  H  H1337  1  0.623700  0.888900  0.946000  1.0
  H  H1338  1  0.888900  0.946000  0.623700  1.0
  H  H1339  1  0.123700  0.446000  0.388900  1.0
  H  H1340  1  0.388900  0.123700  0.446000  1.0
  H  H1341  1  0.446000  0.388900  0.123700  1.0
  H  H1342  1  0.054000  0.376300  0.111100  1.0
  H  H1343  1  0.376300  0.111100  0.054000  1.0
  H  H1344  1  0.111100  0.054000  0.376300  1.0
  H  H1345  1  0.937900  0.495100  0.594900  1.0
  H  H1346  1  0.594900  0.937900  0.495100  1.0
  H  H1347  1  0.495100  0.594900  0.937900  1.0
  H  H1348  1  0.004900  0.562100  0.905100  1.0
  H  H1349  1  0.562100  0.905100  0.004900  1.0
  H  H1350  1  0.905100  0.004900  0.562100  1.0
  H  H1351  1  0.062100  0.504900  0.405100  1.0
  H  H1352  1  0.405100  0.062100  0.504900  1.0
  H  H1353  1  0.504900  0.405100  0.062100  1.0
  H  H1354  1  0.995100  0.437900  0.094900  1.0
  H  H1355  1  0.437900  0.094900  0.995100  1.0
  H  H1356  1  0.094900  0.995100  0.437900  1.0
  H  H1357  1  0.966800  0.377400  0.829200  1.0
  H  H1358  1  0.829200  0.966800  0.377400  1.0
  H  H1359  1  0.377400  0.829200  0.966800  1.0
  H  H1360  1  0.122600  0.533200  0.670800  1.0
  H  H1361  1  0.533200  0.670800  0.122600  1.0
  H  H1362  1  0.670800  0.122600  0.533200  1.0
  H  H1363  1  0.033200  0.622600  0.170800  1.0
  H  H1364  1  0.170800  0.033200  0.622600  1.0
  H  H1365  1  0.622600  0.170800  0.033200  1.0
  H  H1366  1  0.877400  0.466800  0.329200  1.0
  H  H1367  1  0.466800  0.329200  0.877400  1.0
  H  H1368  1  0.329200  0.877400  0.466800  1.0
  H  H1369  1  0.909900  0.448900  0.801400  1.0
  H  H1370  1  0.801400  0.909900  0.448900  1.0
  H  H1371  1  0.448900  0.801400  0.909900  1.0
  H  H1372  1  0.051100  0.590100  0.698600  1.0
  H  H1373  1  0.590100  0.698600  0.051100  1.0
  H  H1374  1  0.698600  0.051100  0.590100  1.0
  H  H1375  1  0.090100  0.551100  0.198600  1.0
  H  H1376  1  0.198600  0.090100  0.551100  1.0
  H  H1377  1  0.551100  0.198600  0.090100  1.0
  H  H1378  1  0.948900  0.409900  0.301400  1.0
  H  H1379  1  0.409900  0.301400  0.948900  1.0
  H  H1380  1  0.301400  0.948900  0.409900  1.0
  H  H1381  1  0.039800  0.318200  0.788100  1.0
  H  H1382  1  0.788100  0.039800  0.318200  1.0
  H  H1383  1  0.318200  0.788100  0.039800  1.0
  H  H1384  1  0.181800  0.460200  0.711900  1.0
  H  H1385  1  0.460200  0.711900  0.181800  1.0
  H  H1386  1  0.711900  0.181800  0.460200  1.0
  H  H1387  1  0.960200  0.681800  0.211900  1.0
  H  H1388  1  0.211900  0.960200  0.681800  1.0
  H  H1389  1  0.681800  0.211900  0.960200  1.0
  H  H1390  1  0.818200  0.539800  0.288100  1.0
  H  H1391  1  0.539800  0.288100  0.818200  1.0
  H  H1392  1  0.288100  0.818200  0.539800  1.0
  H  H1393  1  0.045900  0.325900  0.735900  1.0
  H  H1394  1  0.735900  0.045900  0.325900  1.0
  H  H1395  1  0.325900  0.735900  0.045900  1.0
  H  H1396  1  0.174100  0.454100  0.764100  1.0
  H  H1397  1  0.454100  0.764100  0.174100  1.0
  H  H1398  1  0.764100  0.174100  0.454100  1.0
  H  H1399  1  0.954100  0.674100  0.264100  1.0
  H  H1400  1  0.264100  0.954100  0.674100  1.0
  H  H1401  1  0.674100  0.264100  0.954100  1.0
  H  H1402  1  0.825900  0.545900  0.235900  1.0
  H  H1403  1  0.545900  0.235900  0.825900  1.0
  H  H1404  1  0.235900  0.825900  0.545900  1.0
  H  H1405  1  0.935800  0.337400  0.787100  1.0
  H  H1406  1  0.787100  0.935800  0.337400  1.0
  H  H1407  1  0.337400  0.787100  0.935800  1.0
  H  H1408  1  0.162600  0.564200  0.712900  1.0
  H  H1409  1  0.564200  0.712900  0.162600  1.0
  H  H1410  1  0.712900  0.162600  0.564200  1.0
  H  H1411  1  0.064200  0.662600  0.212900  1.0
  H  H1412  1  0.212900  0.064200  0.662600  1.0
  H  H1413  1  0.662600  0.212900  0.064200  1.0
  H  H1414  1  0.837400  0.435800  0.287100  1.0
  H  H1415  1  0.435800  0.287100  0.837400  1.0
  H  H1416  1  0.287100  0.837400  0.435800  1.0
  H  H1417  1  0.890700  0.286400  0.810600  1.0
  H  H1418  1  0.810600  0.890700  0.286400  1.0
  H  H1419  1  0.286400  0.810600  0.890700  1.0
  H  H1420  1  0.213600  0.609300  0.689400  1.0
  H  H1421  1  0.609300  0.689400  0.213600  1.0
  H  H1422  1  0.689400  0.213600  0.609300  1.0
  H  H1423  1  0.109300  0.713600  0.189400  1.0
  H  H1424  1  0.189400  0.109300  0.713600  1.0
  H  H1425  1  0.713600  0.189400  0.109300  1.0
  H  H1426  1  0.786400  0.390700  0.310600  1.0
  H  H1427  1  0.390700  0.310600  0.786400  1.0
  H  H1428  1  0.310600  0.786400  0.390700  1.0
  H  H1429  1  0.925500  0.211900  0.809200  1.0
  H  H1430  1  0.809200  0.925500  0.211900  1.0
  H  H1431  1  0.211900  0.809200  0.925500  1.0
  H  H1432  1  0.288100  0.574500  0.690800  1.0
  H  H1433  1  0.574500  0.690800  0.288100  1.0
  H  H1434  1  0.690800  0.288100  0.574500  1.0
  H  H1435  1  0.074500  0.788100  0.190800  1.0
  H  H1436  1  0.190800  0.074500  0.788100  1.0
  H  H1437  1  0.788100  0.190800  0.074500  1.0
  H  H1438  1  0.711900  0.425500  0.309200  1.0
  H  H1439  1  0.425500  0.309200  0.711900  1.0
  H  H1440  1  0.309200  0.711900  0.425500  1.0
  H  H1441  1  0.993300  0.151800  0.791300  1.0
  H  H1442  1  0.791300  0.993300  0.151800  1.0
  H  H1443  1  0.151800  0.791300  0.993300  1.0
  H  H1444  1  0.348200  0.506700  0.708700  1.0
  H  H1445  1  0.506700  0.708700  0.348200  1.0
  H  H1446  1  0.708700  0.348200  0.506700  1.0
  H  H1447  1  0.006700  0.848200  0.208700  1.0
  H  H1448  1  0.208700  0.006700  0.848200  1.0
  H  H1449  1  0.848200  0.208700  0.006700  1.0
  H  H1450  1  0.651800  0.493300  0.291300  1.0
  H  H1451  1  0.493300  0.291300  0.651800  1.0
  H  H1452  1  0.291300  0.651800  0.493300  1.0
  H  H1453  1  0.072100  0.120800  0.774400  1.0
  H  H1454  1  0.774400  0.072100  0.120800  1.0
  H  H1455  1  0.120800  0.774400  0.072100  1.0
  H  H1456  1  0.379200  0.427900  0.725600  1.0
  H  H1457  1  0.427900  0.725600  0.379200  1.0
  H  H1458  1  0.725600  0.379200  0.427900  1.0
  H  H1459  1  0.927900  0.879200  0.225600  1.0
  H  H1460  1  0.225600  0.927900  0.879200  1.0
  H  H1461  1  0.879200  0.225600  0.927900  1.0
  H  H1462  1  0.620800  0.572100  0.274400  1.0
  H  H1463  1  0.572100  0.274400  0.620800  1.0
  H  H1464  1  0.274400  0.620800  0.572100  1.0
  H  H1465  1  0.117100  0.162600  0.768600  1.0
  H  H1466  1  0.768600  0.117100  0.162600  1.0
  H  H1467  1  0.162600  0.768600  0.117100  1.0
  H  H1468  1  0.337400  0.382900  0.731400  1.0
  H  H1469  1  0.382900  0.731400  0.337400  1.0
  H  H1470  1  0.731400  0.337400  0.382900  1.0
  H  H1471  1  0.882900  0.837400  0.231400  1.0
  H  H1472  1  0.231400  0.882900  0.837400  1.0
  H  H1473  1  0.837400  0.231400  0.882900  1.0
  H  H1474  1  0.662600  0.617100  0.268600  1.0
  H  H1475  1  0.617100  0.268600  0.662600  1.0
  H  H1476  1  0.268600  0.662600  0.617100  1.0
  H  H1477  1  0.178400  0.214700  0.703200  1.0
  H  H1478  1  0.703200  0.178400  0.214700  1.0
  H  H1479  1  0.214700  0.703200  0.178400  1.0
  H  H1480  1  0.285300  0.321600  0.796800  1.0
  H  H1481  1  0.321600  0.796800  0.285300  1.0
  H  H1482  1  0.796800  0.285300  0.321600  1.0
  H  H1483  1  0.821600  0.785300  0.296800  1.0
  H  H1484  1  0.296800  0.821600  0.785300  1.0
  H  H1485  1  0.785300  0.296800  0.821600  1.0
  H  H1486  1  0.714700  0.678400  0.203200  1.0
  H  H1487  1  0.678400  0.203200  0.714700  1.0
  H  H1488  1  0.203200  0.714700  0.678400  1.0
  H  H1489  1  0.238500  0.147900  0.731800  1.0
  H  H1490  1  0.731800  0.238500  0.147900  1.0
  H  H1491  1  0.147900  0.731800  0.238500  1.0
  H  H1492  1  0.352100  0.261500  0.768200  1.0
  H  H1493  1  0.261500  0.768200  0.352100  1.0
  H  H1494  1  0.768200  0.352100  0.261500  1.0
  H  H1495  1  0.761500  0.852100  0.268200  1.0
  H  H1496  1  0.268200  0.761500  0.852100  1.0
  H  H1497  1  0.852100  0.268200  0.761500  1.0
  H  H1498  1  0.647900  0.738500  0.231800  1.0
  H  H1499  1  0.738500  0.231800  0.647900  1.0
  H  H1500  1  0.231800  0.647900  0.738500  1.0
  H  H1501  1  0.103300  0.271100  0.743800  1.0
  H  H1502  1  0.743800  0.103300  0.271100  1.0
  H  H1503  1  0.271100  0.743800  0.103300  1.0
  H  H1504  1  0.228900  0.396700  0.756200  1.0
  H  H1505  1  0.396700  0.756200  0.228900  1.0
  H  H1506  1  0.756200  0.228900  0.396700  1.0
  H  H1507  1  0.896700  0.728900  0.256200  1.0
  H  H1508  1  0.256200  0.896700  0.728900  1.0
  H  H1509  1  0.728900  0.256200  0.896700  1.0
  H  H1510  1  0.771100  0.603300  0.243800  1.0
  H  H1511  1  0.603300  0.243800  0.771100  1.0
  H  H1512  1  0.243800  0.771100  0.603300  1.0
  H  H1513  1  0.090300  0.257800  0.797700  1.0
  H  H1514  1  0.797700  0.090300  0.257800  1.0
  H  H1515  1  0.257800  0.797700  0.090300  1.0
  H  H1516  1  0.242200  0.409700  0.702300  1.0
  H  H1517  1  0.409700  0.702300  0.242200  1.0
  H  H1518  1  0.702300  0.242200  0.409700  1.0
  H  H1519  1  0.909700  0.742200  0.202300  1.0
  H  H1520  1  0.202300  0.909700  0.742200  1.0
  H  H1521  1  0.742200  0.202300  0.909700  1.0
  H  H1522  1  0.757800  0.590300  0.297700  1.0
  H  H1523  1  0.590300  0.297700  0.757800  1.0
  H  H1524  1  0.297700  0.757800  0.590300  1.0
  H  H1525  1  0.274200  0.085200  0.793300  1.0
  H  H1526  1  0.793300  0.274200  0.085200  1.0
  H  H1527  1  0.085200  0.793300  0.274200  1.0
  H  H1528  1  0.414800  0.225800  0.706700  1.0
  H  H1529  1  0.225800  0.706700  0.414800  1.0
  H  H1530  1  0.706700  0.414800  0.225800  1.0
  H  H1531  1  0.725800  0.914800  0.206700  1.0
  H  H1532  1  0.206700  0.725800  0.914800  1.0
  H  H1533  1  0.914800  0.206700  0.725800  1.0
  H  H1534  1  0.585200  0.774200  0.293300  1.0
  H  H1535  1  0.774200  0.293300  0.585200  1.0
  H  H1536  1  0.293300  0.585200  0.774200  1.0
  H  H1537  1  0.271100  0.042100  0.923200  1.0
  H  H1538  1  0.923200  0.271100  0.042100  1.0
  H  H1539  1  0.042100  0.923200  0.271100  1.0
  H  H1540  1  0.457900  0.228900  0.576800  1.0
  H  H1541  1  0.228900  0.576800  0.457900  1.0
  H  H1542  1  0.576800  0.457900  0.228900  1.0
  H  H1543  1  0.728900  0.957900  0.076800  1.0
  H  H1544  1  0.076800  0.728900  0.957900  1.0
  H  H1545  1  0.957900  0.076800  0.728900  1.0
  H  H1546  1  0.542100  0.771100  0.423200  1.0
  H  H1547  1  0.771100  0.423200  0.542100  1.0
  H  H1548  1  0.423200  0.542100  0.771100  1.0
  H  H1549  1  0.203500  0.097800  0.938400  1.0
  H  H1550  1  0.938400  0.203500  0.097800  1.0
  H  H1551  1  0.097800  0.938400  0.203500  1.0
  H  H1552  1  0.402200  0.296500  0.561600  1.0
  H  H1553  1  0.296500  0.561600  0.402200  1.0
  H  H1554  1  0.561600  0.402200  0.296500  1.0
  H  H1555  1  0.796500  0.902200  0.061600  1.0
  H  H1556  1  0.061600  0.796500  0.902200  1.0
  H  H1557  1  0.902200  0.061600  0.796500  1.0
  H  H1558  1  0.597800  0.703500  0.438400  1.0
  H  H1559  1  0.703500  0.438400  0.597800  1.0
  H  H1560  1  0.438400  0.597800  0.703500  1.0
  H  H1561  1  0.081300  0.486300  0.497200  1.0
  H  H1562  1  0.497200  0.081300  0.486300  1.0
  H  H1563  1  0.486300  0.497200  0.081300  1.0
  H  H1564  1  0.013700  0.418700  0.002800  1.0
  H  H1565  1  0.418700  0.002800  0.013700  1.0
  H  H1566  1  0.002800  0.013700  0.418700  1.0
  H  H1567  1  0.918700  0.513700  0.502800  1.0
  H  H1568  1  0.502800  0.918700  0.513700  1.0
  H  H1569  1  0.513700  0.502800  0.918700  1.0
  H  H1570  1  0.986300  0.581300  0.997200  1.0
  H  H1571  1  0.581300  0.997200  0.986300  1.0
  H  H1572  1  0.997200  0.986300  0.581300  1.0
  H  H1573  1  0.010500  0.417200  0.490700  1.0
  H  H1574  1  0.490700  0.010500  0.417200  1.0
  H  H1575  1  0.417200  0.490700  0.010500  1.0
  H  H1576  1  0.082800  0.489500  0.009300  1.0
  H  H1577  1  0.489500  0.009300  0.082800  1.0
  H  H1578  1  0.009300  0.082800  0.489500  1.0
  H  H1579  1  0.989500  0.582800  0.509300  1.0
  H  H1580  1  0.509300  0.989500  0.582800  1.0
  H  H1581  1  0.582800  0.509300  0.989500  1.0
  H  H1582  1  0.917200  0.510500  0.990700  1.0
  H  H1583  1  0.510500  0.990700  0.917200  1.0
  H  H1584  1  0.990700  0.917200  0.510500  1.0
  H  H1585  1  0.984200  0.394900  0.569600  1.0
  H  H1586  1  0.569600  0.984200  0.394900  1.0
  H  H1587  1  0.394900  0.569600  0.984200  1.0
  H  H1588  1  0.105100  0.515800  0.930400  1.0
  H  H1589  1  0.515800  0.930400  0.105100  1.0
  H  H1590  1  0.930400  0.105100  0.515800  1.0
  H  H1591  1  0.015800  0.605100  0.430400  1.0
  H  H1592  1  0.430400  0.015800  0.605100  1.0
  H  H1593  1  0.605100  0.430400  0.015800  1.0
  H  H1594  1  0.894900  0.484200  0.069600  1.0
  H  H1595  1  0.484200  0.069600  0.894900  1.0
  H  H1596  1  0.069600  0.894900  0.484200  1.0
  H  H1597  1  0.098200  0.517100  0.624100  1.0
  H  H1598  1  0.624100  0.098200  0.517100  1.0
  H  H1599  1  0.517100  0.624100  0.098200  1.0
  H  H1600  1  0.982900  0.401800  0.875900  1.0
  H  H1601  1  0.401800  0.875900  0.982900  1.0
  H  H1602  1  0.875900  0.982900  0.401800  1.0
  H  H1603  1  0.901800  0.482900  0.375900  1.0
  H  H1604  1  0.375900  0.901800  0.482900  1.0
  H  H1605  1  0.482900  0.375900  0.901800  1.0
  H  H1606  1  0.017100  0.598200  0.124100  1.0
  H  H1607  1  0.598200  0.124100  0.017100  1.0
  H  H1608  1  0.124100  0.017100  0.598200  1.0
  H  H1609  1  0.104600  0.510600  0.548600  1.0
  H  H1610  1  0.548600  0.104600  0.510600  1.0
  H  H1611  1  0.510600  0.548600  0.104600  1.0
  H  H1612  1  0.989400  0.395400  0.951400  1.0
  H  H1613  1  0.395400  0.951400  0.989400  1.0
  H  H1614  1  0.951400  0.989400  0.395400  1.0
  H  H1615  1  0.895400  0.489400  0.451400  1.0
  H  H1616  1  0.451400  0.895400  0.489400  1.0
  H  H1617  1  0.489400  0.451400  0.895400  1.0
  H  H1618  1  0.010600  0.604600  0.048600  1.0
  H  H1619  1  0.604600  0.048600  0.010600  1.0
  H  H1620  1  0.048600  0.010600  0.604600  1.0
  H  H1621  1  0.061000  0.476100  0.711900  1.0
  H  H1622  1  0.711900  0.061000  0.476100  1.0
  H  H1623  1  0.476100  0.711900  0.061000  1.0
  H  H1624  1  0.023900  0.439000  0.788100  1.0
  H  H1625  1  0.439000  0.788100  0.023900  1.0
  H  H1626  1  0.788100  0.023900  0.439000  1.0
  H  H1627  1  0.939000  0.523900  0.288100  1.0
  H  H1628  1  0.288100  0.939000  0.523900  1.0
  H  H1629  1  0.523900  0.288100  0.939000  1.0
  H  H1630  1  0.976100  0.561000  0.211900  1.0
  H  H1631  1  0.561000  0.211900  0.976100  1.0
  H  H1632  1  0.211900  0.976100  0.561000  1.0
  H  H1633  1  0.027400  0.448200  0.719700  1.0
  H  H1634  1  0.719700  0.027400  0.448200  1.0
  H  H1635  1  0.448200  0.719700  0.027400  1.0
  H  H1636  1  0.051800  0.472600  0.780300  1.0
  H  H1637  1  0.472600  0.780300  0.051800  1.0
  H  H1638  1  0.780300  0.051800  0.472600  1.0
  H  H1639  1  0.972600  0.551800  0.280300  1.0
  H  H1640  1  0.280300  0.972600  0.551800  1.0
  H  H1641  1  0.551800  0.280300  0.972600  1.0
  H  H1642  1  0.948200  0.527400  0.219700  1.0
  H  H1643  1  0.527400  0.219700  0.948200  1.0
  H  H1644  1  0.219700  0.948200  0.527400  1.0
  H  H1645  1  0.999600  0.541700  0.639600  1.0
  H  H1646  1  0.639600  0.999600  0.541700  1.0
  H  H1647  1  0.541700  0.639600  0.999600  1.0
  H  H1648  1  0.958300  0.500400  0.860400  1.0
  H  H1649  1  0.500400  0.860400  0.958300  1.0
  H  H1650  1  0.860400  0.958300  0.500400  1.0
  H  H1651  1  0.000400  0.458300  0.360400  1.0
  H  H1652  1  0.360400  0.000400  0.458300  1.0
  H  H1653  1  0.458300  0.360400  0.000400  1.0
  H  H1654  1  0.041700  0.499600  0.139600  1.0
  H  H1655  1  0.499600  0.139600  0.041700  1.0
  H  H1656  1  0.139600  0.041700  0.499600  1.0
  H  H1657  1  0.937200  0.603200  0.641700  1.0
  H  H1658  1  0.641700  0.937200  0.603200  1.0
  H  H1659  1  0.603200  0.641700  0.937200  1.0
  H  H1660  1  0.896800  0.562800  0.858300  1.0
  H  H1661  1  0.562800  0.858300  0.896800  1.0
  H  H1662  1  0.858300  0.896800  0.562800  1.0
  H  H1663  1  0.062800  0.396800  0.358300  1.0
  H  H1664  1  0.358300  0.062800  0.396800  1.0
  H  H1665  1  0.396800  0.358300  0.062800  1.0
  H  H1666  1  0.103200  0.437200  0.141700  1.0
  H  H1667  1  0.437200  0.141700  0.103200  1.0
  H  H1668  1  0.141700  0.103200  0.437200  1.0
  H  H1669  1  0.896200  0.621400  0.709800  1.0
  H  H1670  1  0.709800  0.896200  0.621400  1.0
  H  H1671  1  0.621400  0.709800  0.896200  1.0
  H  H1672  1  0.878600  0.603800  0.790200  1.0
  H  H1673  1  0.603800  0.790200  0.878600  1.0
  H  H1674  1  0.790200  0.878600  0.603800  1.0
  H  H1675  1  0.103800  0.378600  0.290200  1.0
  H  H1676  1  0.290200  0.103800  0.378600  1.0
  H  H1677  1  0.378600  0.290200  0.103800  1.0
  H  H1678  1  0.121400  0.396200  0.209800  1.0
  H  H1679  1  0.396200  0.209800  0.121400  1.0
  H  H1680  1  0.209800  0.121400  0.396200  1.0
  H  H1681  1  0.992800  0.251900  0.682400  1.0
  H  H1682  1  0.682400  0.992800  0.251900  1.0
  H  H1683  1  0.251900  0.682400  0.992800  1.0
  H  H1684  1  0.248100  0.507200  0.817600  1.0
  H  H1685  1  0.507200  0.817600  0.248100  1.0
  H  H1686  1  0.817600  0.248100  0.507200  1.0
  H  H1687  1  0.007200  0.748100  0.317600  1.0
  H  H1688  1  0.317600  0.007200  0.748100  1.0
  H  H1689  1  0.748100  0.317600  0.007200  1.0
  H  H1690  1  0.751900  0.492800  0.182400  1.0
  H  H1691  1  0.492800  0.182400  0.751900  1.0
  H  H1692  1  0.182400  0.751900  0.492800  1.0
  H  H1693  1  0.871300  0.338000  0.693800  1.0
  H  H1694  1  0.693800  0.871300  0.338000  1.0
  H  H1695  1  0.338000  0.693800  0.871300  1.0
  H  H1696  1  0.162000  0.628700  0.806200  1.0
  H  H1697  1  0.628700  0.806200  0.162000  1.0
  H  H1698  1  0.806200  0.162000  0.628700  1.0
  H  H1699  1  0.128700  0.662000  0.306200  1.0
  H  H1700  1  0.306200  0.128700  0.662000  1.0
  H  H1701  1  0.662000  0.306200  0.128700  1.0
  H  H1702  1  0.838000  0.371300  0.193800  1.0
  H  H1703  1  0.371300  0.193800  0.838000  1.0
  H  H1704  1  0.193800  0.838000  0.371300  1.0
  H  H1705  1  0.902700  0.398600  0.671400  1.0
  H  H1706  1  0.671400  0.902700  0.398600  1.0
  H  H1707  1  0.398600  0.671400  0.902700  1.0
  H  H1708  1  0.101400  0.597300  0.828600  1.0
  H  H1709  1  0.597300  0.828600  0.101400  1.0
  H  H1710  1  0.828600  0.101400  0.597300  1.0
  H  H1711  1  0.097300  0.601400  0.328600  1.0
  H  H1712  1  0.328600  0.097300  0.601400  1.0
  H  H1713  1  0.601400  0.328600  0.097300  1.0
  H  H1714  1  0.898600  0.402700  0.171400  1.0
  H  H1715  1  0.402700  0.171400  0.898600  1.0
  H  H1716  1  0.171400  0.898600  0.402700  1.0
  H  H1717  1  0.148300  0.269900  0.640300  1.0
  H  H1718  1  0.640300  0.148300  0.269900  1.0
  H  H1719  1  0.269900  0.640300  0.148300  1.0
  H  H1720  1  0.230100  0.351700  0.859700  1.0
  H  H1721  1  0.351700  0.859700  0.230100  1.0
  H  H1722  1  0.859700  0.230100  0.351700  1.0
  H  H1723  1  0.851700  0.730100  0.359700  1.0
  H  H1724  1  0.359700  0.851700  0.730100  1.0
  H  H1725  1  0.730100  0.359700  0.851700  1.0
  H  H1726  1  0.769900  0.648300  0.140300  1.0
  H  H1727  1  0.648300  0.140300  0.769900  1.0
  H  H1728  1  0.140300  0.769900  0.648300  1.0
  H  H1729  1  0.080700  0.240900  0.661000  1.0
  H  H1730  1  0.661000  0.080700  0.240900  1.0
  H  H1731  1  0.240900  0.661000  0.080700  1.0
  H  H1732  1  0.259100  0.419300  0.839000  1.0
  H  H1733  1  0.419300  0.839000  0.259100  1.0
  H  H1734  1  0.839000  0.259100  0.419300  1.0
  H  H1735  1  0.919300  0.759100  0.339000  1.0
  H  H1736  1  0.339000  0.919300  0.759100  1.0
  H  H1737  1  0.759100  0.339000  0.919300  1.0
  H  H1738  1  0.740900  0.580700  0.161000  1.0
  H  H1739  1  0.580700  0.161000  0.740900  1.0
  H  H1740  1  0.161000  0.740900  0.580700  1.0
  H  H1741  1  0.158800  0.347500  0.634700  1.0
  H  H1742  1  0.634700  0.158800  0.347500  1.0
  H  H1743  1  0.347500  0.634700  0.158800  1.0
  H  H1744  1  0.152500  0.341200  0.865300  1.0
  H  H1745  1  0.341200  0.865300  0.152500  1.0
  H  H1746  1  0.865300  0.152500  0.341200  1.0
  H  H1747  1  0.841200  0.652500  0.365300  1.0
  H  H1748  1  0.365300  0.841200  0.652500  1.0
  H  H1749  1  0.652500  0.365300  0.841200  1.0
  H  H1750  1  0.847500  0.658800  0.134700  1.0
  H  H1751  1  0.658800  0.134700  0.847500  1.0
  H  H1752  1  0.134700  0.847500  0.658800  1.0
  H  H1753  1  0.115500  0.390400  0.632400  1.0
  H  H1754  1  0.632400  0.115500  0.390400  1.0
  H  H1755  1  0.390400  0.632400  0.115500  1.0
  H  H1756  1  0.109600  0.384500  0.867600  1.0
  H  H1757  1  0.384500  0.867600  0.109600  1.0
  H  H1758  1  0.867600  0.109600  0.384500  1.0
  H  H1759  1  0.884500  0.609600  0.367600  1.0
  H  H1760  1  0.367600  0.884500  0.609600  1.0
  H  H1761  1  0.609600  0.367600  0.884500  1.0
  H  H1762  1  0.890400  0.615500  0.132400  1.0
  H  H1763  1  0.615500  0.132400  0.890400  1.0
  H  H1764  1  0.132400  0.890400  0.615500  1.0
  H  H1765  1  0.988700  0.176200  0.889100  1.0
  H  H1766  1  0.889100  0.988700  0.176200  1.0
  H  H1767  1  0.176200  0.889100  0.988700  1.0
  H  H1768  1  0.323800  0.511300  0.610900  1.0
  H  H1769  1  0.511300  0.610900  0.323800  1.0
  H  H1770  1  0.610900  0.323800  0.511300  1.0
  H  H1771  1  0.011300  0.823800  0.110900  1.0
  H  H1772  1  0.110900  0.011300  0.823800  1.0
  H  H1773  1  0.823800  0.110900  0.011300  1.0
  H  H1774  1  0.676200  0.488700  0.389100  1.0
  H  H1775  1  0.488700  0.389100  0.676200  1.0
  H  H1776  1  0.389100  0.676200  0.488700  1.0
  H  H1777  1  0.076200  0.056200  0.893400  1.0
  H  H1778  1  0.893400  0.076200  0.056200  1.0
  H  H1779  1  0.056200  0.893400  0.076200  1.0
  H  H1780  1  0.443800  0.423800  0.606600  1.0
  H  H1781  1  0.423800  0.606600  0.443800  1.0
  H  H1782  1  0.606600  0.443800  0.423800  1.0
  H  H1783  1  0.923800  0.943800  0.106600  1.0
  H  H1784  1  0.106600  0.923800  0.943800  1.0
  H  H1785  1  0.943800  0.106600  0.923800  1.0
  H  H1786  1  0.556200  0.576200  0.393400  1.0
  H  H1787  1  0.576200  0.393400  0.556200  1.0
  H  H1788  1  0.393400  0.556200  0.576200  1.0
  H  H1789  1  0.131800  0.084000  0.891900  1.0
  H  H1790  1  0.891900  0.131800  0.084000  1.0
  H  H1791  1  0.084000  0.891900  0.131800  1.0
  H  H1792  1  0.416000  0.368200  0.608100  1.0
  H  H1793  1  0.368200  0.608100  0.416000  1.0
  H  H1794  1  0.608100  0.416000  0.368200  1.0
  H  H1795  1  0.868200  0.916000  0.108100  1.0
  H  H1796  1  0.108100  0.868200  0.916000  1.0
  H  H1797  1  0.916000  0.108100  0.868200  1.0
  H  H1798  1  0.584000  0.631800  0.391900  1.0
  H  H1799  1  0.631800  0.391900  0.584000  1.0
  H  H1800  1  0.391900  0.584000  0.631800  1.0
  H  H1801  1  0.994600  0.323800  0.888900  1.0
  H  H1802  1  0.888900  0.994600  0.323800  1.0
  H  H1803  1  0.323800  0.888900  0.994600  1.0
  H  H1804  1  0.176200  0.505400  0.611100  1.0
  H  H1805  1  0.505400  0.611100  0.176200  1.0
  H  H1806  1  0.611100  0.176200  0.505400  1.0
  H  H1807  1  0.005400  0.676200  0.111100  1.0
  H  H1808  1  0.111100  0.005400  0.676200  1.0
  H  H1809  1  0.676200  0.111100  0.005400  1.0
  H  H1810  1  0.823800  0.494600  0.388900  1.0
  H  H1811  1  0.494600  0.388900  0.823800  1.0
  H  H1812  1  0.388900  0.823800  0.494600  1.0
  H  H1813  1  0.973800  0.257200  0.891400  1.0
  H  H1814  1  0.891400  0.973800  0.257200  1.0
  H  H1815  1  0.257200  0.891400  0.973800  1.0
  H  H1816  1  0.242800  0.526200  0.608600  1.0
  H  H1817  1  0.526200  0.608600  0.242800  1.0
  H  H1818  1  0.608600  0.242800  0.526200  1.0
  H  H1819  1  0.026200  0.742800  0.108600  1.0
  H  H1820  1  0.108600  0.026200  0.742800  1.0
  H  H1821  1  0.742800  0.108600  0.026200  1.0
  H  H1822  1  0.757200  0.473800  0.391400  1.0
  H  H1823  1  0.473800  0.391400  0.757200  1.0
  H  H1824  1  0.391400  0.757200  0.473800  1.0
  H  H1825  1  0.075500  0.337700  0.874200  1.0
  H  H1826  1  0.874200  0.075500  0.337700  1.0
  H  H1827  1  0.337700  0.874200  0.075500  1.0
  H  H1828  1  0.162300  0.424500  0.625800  1.0
  H  H1829  1  0.424500  0.625800  0.162300  1.0
  H  H1830  1  0.625800  0.162300  0.424500  1.0
  H  H1831  1  0.924500  0.662300  0.125800  1.0
  H  H1832  1  0.125800  0.924500  0.662300  1.0
  H  H1833  1  0.662300  0.125800  0.924500  1.0
  H  H1834  1  0.837700  0.575500  0.374200  1.0
  H  H1835  1  0.575500  0.374200  0.837700  1.0
  H  H1836  1  0.374200  0.837700  0.575500  1.0
  H  H1837  1  0.117900  0.294000  0.877300  1.0
  H  H1838  1  0.877300  0.117900  0.294000  1.0
  H  H1839  1  0.294000  0.877300  0.117900  1.0
  H  H1840  1  0.206000  0.382100  0.622700  1.0
  H  H1841  1  0.382100  0.622700  0.206000  1.0
  H  H1842  1  0.622700  0.206000  0.382100  1.0
  H  H1843  1  0.882100  0.706000  0.122700  1.0
  H  H1844  1  0.122700  0.882100  0.706000  1.0
  H  H1845  1  0.706000  0.122700  0.882100  1.0
  H  H1846  1  0.794000  0.617900  0.377300  1.0
  H  H1847  1  0.617900  0.377300  0.794000  1.0
  H  H1848  1  0.377300  0.794000  0.617900  1.0
  H  H1849  1  0.033800  0.260700  0.962600  1.0
  H  H1850  1  0.962600  0.033800  0.260700  1.0
  H  H1851  1  0.260700  0.962600  0.033800  1.0
  H  H1852  1  0.239300  0.466200  0.537400  1.0
  H  H1853  1  0.466200  0.537400  0.239300  1.0
  H  H1854  1  0.537400  0.239300  0.466200  1.0
  H  H1855  1  0.966200  0.739300  0.037400  1.0
  H  H1856  1  0.037400  0.966200  0.739300  1.0
  H  H1857  1  0.739300  0.037400  0.966200  1.0
  H  H1858  1  0.760700  0.533800  0.462600  1.0
  H  H1859  1  0.533800  0.462600  0.760700  1.0
  H  H1860  1  0.462600  0.760700  0.533800  1.0
  H  H1861  1  0.016000  0.249000  0.040700  1.0
  H  H1862  1  0.040700  0.016000  0.249000  1.0
  H  H1863  1  0.249000  0.040700  0.016000  1.0
  H  H1864  1  0.251000  0.484000  0.459300  1.0
  H  H1865  1  0.484000  0.459300  0.251000  1.0
  H  H1866  1  0.459300  0.251000  0.484000  1.0
  H  H1867  1  0.984000  0.751000  0.959300  1.0
  H  H1868  1  0.959300  0.984000  0.751000  1.0
  H  H1869  1  0.751000  0.959300  0.984000  1.0
  H  H1870  1  0.749000  0.516000  0.540700  1.0
  H  H1871  1  0.516000  0.540700  0.749000  1.0
  H  H1872  1  0.540700  0.749000  0.516000  1.0
  H  H1873  1  0.050300  0.278300  0.068000  1.0
  H  H1874  1  0.068000  0.050300  0.278300  1.0
  H  H1875  1  0.278300  0.068000  0.050300  1.0
  H  H1876  1  0.221700  0.449700  0.432000  1.0
  H  H1877  1  0.449700  0.432000  0.221700  1.0
  H  H1878  1  0.432000  0.221700  0.449700  1.0
  H  H1879  1  0.949700  0.721700  0.932000  1.0
  H  H1880  1  0.932000  0.949700  0.721700  1.0
  H  H1881  1  0.721700  0.932000  0.949700  1.0
  H  H1882  1  0.778300  0.550300  0.568000  1.0
  H  H1883  1  0.550300  0.568000  0.778300  1.0
  H  H1884  1  0.568000  0.778300  0.550300  1.0
  H  H1885  1  0.100100  0.320700  0.058000  1.0
  H  H1886  1  0.058000  0.100100  0.320700  1.0
  H  H1887  1  0.320700  0.058000  0.100100  1.0
  H  H1888  1  0.179300  0.399900  0.442000  1.0
  H  H1889  1  0.399900  0.442000  0.179300  1.0
  H  H1890  1  0.442000  0.179300  0.399900  1.0
  H  H1891  1  0.899900  0.679300  0.942000  1.0
  H  H1892  1  0.942000  0.899900  0.679300  1.0
  H  H1893  1  0.679300  0.942000  0.899900  1.0
  H  H1894  1  0.820700  0.600100  0.558000  1.0
  H  H1895  1  0.600100  0.558000  0.820700  1.0
  H  H1896  1  0.558000  0.820700  0.600100  1.0
  H  H1897  1  0.147500  0.367000  0.012900  1.0
  H  H1898  1  0.012900  0.147500  0.367000  1.0
  H  H1899  1  0.367000  0.012900  0.147500  1.0
  H  H1900  1  0.133000  0.352500  0.487100  1.0
  H  H1901  1  0.352500  0.487100  0.133000  1.0
  H  H1902  1  0.487100  0.133000  0.352500  1.0
  H  H1903  1  0.852500  0.633000  0.987100  1.0
  H  H1904  1  0.987100  0.852500  0.633000  1.0
  H  H1905  1  0.633000  0.987100  0.852500  1.0
  H  H1906  1  0.867000  0.647500  0.512900  1.0
  H  H1907  1  0.647500  0.512900  0.867000  1.0
  H  H1908  1  0.512900  0.867000  0.647500  1.0
  H  H1909  1  0.161800  0.388100  0.933100  1.0
  H  H1910  1  0.933100  0.161800  0.388100  1.0
  H  H1911  1  0.388100  0.933100  0.161800  1.0
  H  H1912  1  0.111900  0.338200  0.566900  1.0
  H  H1913  1  0.338200  0.566900  0.111900  1.0
  H  H1914  1  0.566900  0.111900  0.338200  1.0
  H  H1915  1  0.838200  0.611900  0.066900  1.0
  H  H1916  1  0.066900  0.838200  0.611900  1.0
  H  H1917  1  0.611900  0.066900  0.838200  1.0
  H  H1918  1  0.888100  0.661800  0.433100  1.0
  H  H1919  1  0.661800  0.433100  0.888100  1.0
  H  H1920  1  0.433100  0.888100  0.661800  1.0
  H  H1921  1  0.157900  0.206300  0.011400  1.0
  H  H1922  1  0.011400  0.157900  0.206300  1.0
  H  H1923  1  0.206300  0.011400  0.157900  1.0
  H  H1924  1  0.293700  0.342100  0.488600  1.0
  H  H1925  1  0.342100  0.488600  0.293700  1.0
  H  H1926  1  0.488600  0.293700  0.342100  1.0
  H  H1927  1  0.842100  0.793700  0.988600  1.0
  H  H1928  1  0.988600  0.842100  0.793700  1.0
  H  H1929  1  0.793700  0.988600  0.842100  1.0
  H  H1930  1  0.706300  0.657900  0.511400  1.0
  H  H1931  1  0.657900  0.511400  0.706300  1.0
  H  H1932  1  0.511400  0.706300  0.657900  1.0
  H  H1933  1  0.074200  0.131100  0.054200  1.0
  H  H1934  1  0.054200  0.074200  0.131100  1.0
  H  H1935  1  0.131100  0.054200  0.074200  1.0
  H  H1936  1  0.368900  0.425800  0.445800  1.0
  H  H1937  1  0.425800  0.445800  0.368900  1.0
  H  H1938  1  0.445800  0.368900  0.425800  1.0
  H  H1939  1  0.925800  0.868900  0.945800  1.0
  H  H1940  1  0.945800  0.925800  0.868900  1.0
  H  H1941  1  0.868900  0.945800  0.925800  1.0
  H  H1942  1  0.631100  0.574200  0.554200  1.0
  H  H1943  1  0.574200  0.554200  0.631100  1.0
  H  H1944  1  0.554200  0.631100  0.574200  1.0
  H  H1945  1  0.083600  0.135400  0.979600  1.0
  H  H1946  1  0.979600  0.083600  0.135400  1.0
  H  H1947  1  0.135400  0.979600  0.083600  1.0
  H  H1948  1  0.364600  0.416400  0.520400  1.0
  H  H1949  1  0.416400  0.520400  0.364600  1.0
  H  H1950  1  0.520400  0.364600  0.416400  1.0
  H  H1951  1  0.916400  0.864600  0.020400  1.0
  H  H1952  1  0.020400  0.916400  0.864600  1.0
  H  H1953  1  0.864600  0.020400  0.916400  1.0
  H  H1954  1  0.635400  0.583600  0.479600  1.0
  H  H1955  1  0.583600  0.479600  0.635400  1.0
  H  H1956  1  0.479600  0.635400  0.583600  1.0
  H  H1957  1  0.247200  0.276700  0.858000  1.0
  H  H1958  1  0.858000  0.247200  0.276700  1.0
  H  H1959  1  0.276700  0.858000  0.247200  1.0
  H  H1960  1  0.223300  0.252800  0.642000  1.0
  H  H1961  1  0.252800  0.642000  0.223300  1.0
  H  H1962  1  0.642000  0.223300  0.252800  1.0
  H  H1963  1  0.752800  0.723300  0.142000  1.0
  H  H1964  1  0.142000  0.752800  0.723300  1.0
  H  H1965  1  0.723300  0.142000  0.752800  1.0
  H  H1966  1  0.776700  0.747200  0.358000  1.0
  H  H1967  1  0.747200  0.358000  0.776700  1.0
  H  H1968  1  0.358000  0.776700  0.747200  1.0
  H  H1969  1  0.210400  0.251600  0.940300  1.0
  H  H1970  1  0.940300  0.210400  0.251600  1.0
  H  H1971  1  0.251600  0.940300  0.210400  1.0
  H  H1972  1  0.248400  0.289600  0.559700  1.0
  H  H1973  1  0.289600  0.559700  0.248400  1.0
  H  H1974  1  0.559700  0.248400  0.289600  1.0
  H  H1975  1  0.789600  0.748400  0.059700  1.0
  H  H1976  1  0.059700  0.789600  0.748400  1.0
  H  H1977  1  0.748400  0.059700  0.789600  1.0
  H  H1978  1  0.751600  0.710400  0.440300  1.0
  H  H1979  1  0.710400  0.440300  0.751600  1.0
  H  H1980  1  0.440300  0.751600  0.710400  1.0
  H  H1981  1  0.237100  0.272600  0.783400  1.0
  H  H1982  1  0.783400  0.237100  0.272600  1.0
  H  H1983  1  0.272600  0.783400  0.237100  1.0
  H  H1984  1  0.227400  0.262900  0.716600  1.0
  H  H1985  1  0.262900  0.716600  0.227400  1.0
  H  H1986  1  0.716600  0.227400  0.262900  1.0
  H  H1987  1  0.762900  0.727400  0.216600  1.0
  H  H1988  1  0.216600  0.762900  0.727400  1.0
  H  H1989  1  0.727400  0.216600  0.762900  1.0
  H  H1990  1  0.772600  0.737100  0.283400  1.0
  H  H1991  1  0.737100  0.283400  0.772600  1.0
  H  H1992  1  0.283400  0.772600  0.737100  1.0
  H  H1993  1  0.208200  0.240200  0.791300  1.0
  H  H1994  1  0.791300  0.208200  0.240200  1.0
  H  H1995  1  0.240200  0.791300  0.208200  1.0
  H  H1996  1  0.259800  0.291800  0.708700  1.0
  H  H1997  1  0.291800  0.708700  0.259800  1.0
  H  H1998  1  0.708700  0.259800  0.291800  1.0
  H  H1999  1  0.791800  0.759800  0.208700  1.0
  H  H2000  1  0.208700  0.791800  0.759800  1.0
  H  H2001  1  0.759800  0.208700  0.791800  1.0
  H  H2002  1  0.740200  0.708200  0.291300  1.0
  H  H2003  1  0.708200  0.291300  0.740200  1.0
  H  H2004  1  0.291300  0.740200  0.708200  1.0
  H  H2005  1  0.269800  0.179400  0.861600  1.0
  H  H2006  1  0.861600  0.269800  0.179400  1.0
  H  H2007  1  0.179400  0.861600  0.269800  1.0
  H  H2008  1  0.320600  0.230200  0.638400  1.0
  H  H2009  1  0.230200  0.638400  0.320600  1.0
  H  H2010  1  0.638400  0.320600  0.230200  1.0
  H  H2011  1  0.730200  0.820600  0.138400  1.0
  H  H2012  1  0.138400  0.730200  0.820600  1.0
  H  H2013  1  0.820600  0.138400  0.730200  1.0
  H  H2014  1  0.679400  0.769800  0.361600  1.0
  H  H2015  1  0.769800  0.361600  0.679400  1.0
  H  H2016  1  0.361600  0.679400  0.769800  1.0
  H  H2017  1  0.396800  0.120700  0.709300  1.0
  H  H2018  1  0.709300  0.396800  0.120700  1.0
  H  H2019  1  0.120700  0.709300  0.396800  1.0
  H  H2020  1  0.379300  0.103200  0.790700  1.0
  H  H2021  1  0.103200  0.790700  0.379300  1.0
  H  H2022  1  0.790700  0.379300  0.103200  1.0
  H  H2023  1  0.603200  0.879300  0.290700  1.0
  H  H2024  1  0.290700  0.603200  0.879300  1.0
  H  H2025  1  0.879300  0.290700  0.603200  1.0
  H  H2026  1  0.620700  0.896800  0.209300  1.0
  H  H2027  1  0.896800  0.209300  0.620700  1.0
  H  H2028  1  0.209300  0.620700  0.896800  1.0
  H  H2029  1  0.334100  0.117100  0.859900  1.0
  H  H2030  1  0.859900  0.334100  0.117100  1.0
  H  H2031  1  0.117100  0.859900  0.334100  1.0
  H  H2032  1  0.382900  0.165900  0.640100  1.0
  H  H2033  1  0.165900  0.640100  0.382900  1.0
  H  H2034  1  0.640100  0.382900  0.165900  1.0
  H  H2035  1  0.665900  0.882900  0.140100  1.0
  H  H2036  1  0.140100  0.665900  0.882900  1.0
  H  H2037  1  0.882900  0.140100  0.665900  1.0
  H  H2038  1  0.617100  0.834100  0.359900  1.0
  H  H2039  1  0.834100  0.359900  0.617100  1.0
  H  H2040  1  0.359900  0.617100  0.834100  1.0
  N  N2041  1  0.267400  0.147100  0.979100  1
  N  N2042  1  0.979100  0.267400  0.147100  1
  N  N2043  1  0.147100  0.979100  0.267400  1
  N  N2044  1  0.352900  0.232600  0.520900  1
  N  N2045  1  0.232600  0.520900  0.352900  1
  N  N2046  1  0.520900  0.352900  0.232600  1
  N  N2047  1  0.732600  0.852900  0.020900  1
  N  N2048  1  0.020900  0.732600  0.852900  1
  N  N2049  1  0.852900  0.020900  0.732600  1
  N  N2050  1  0.647100  0.767400  0.479100  1
  N  N2051  1  0.767400  0.479100  0.647100  1
  N  N2052  1  0.479100  0.647100  0.767400  1
  N  N2053  1  0.941860  0.464960  0.658460  1.0
  N  N2054  1  0.658460  0.941860  0.464960  1.0
  N  N2055  1  0.464960  0.658460  0.941860  1.0
  N  N2056  1  0.035040  0.558140  0.841540  1.0
  N  N2057  1  0.558140  0.841540  0.035040  1.0
  N  N2058  1  0.841540  0.035040  0.558140  1.0
  N  N2059  1  0.058140  0.535040  0.341540  1.0
  N  N2060  1  0.341540  0.058140  0.535040  1.0
  N  N2061  1  0.535040  0.341540  0.058140  1.0
  N  N2062  1  0.964960  0.441860  0.158460  1.0
  N  N2063  1  0.441860  0.158460  0.964960  1.0
  N  N2064  1  0.158460  0.964960  0.441860  1.0
  N  N2065  1  0.867870  0.539270  0.675570  1.0
  N  N2066  1  0.675570  0.867870  0.539270  1.0
  N  N2067  1  0.539270  0.675570  0.867870  1.0
  N  N2068  1  0.960730  0.632130  0.824430  1.0
  N  N2069  1  0.632130  0.824430  0.960730  1.0
  N  N2070  1  0.824430  0.960730  0.632130  1.0
  N  N2071  1  0.132130  0.460730  0.324430  1.0
  N  N2072  1  0.324430  0.132130  0.460730  1.0
  N  N2073  1  0.460730  0.324430  0.132130  1.0
  N  N2074  1  0.039270  0.367870  0.175570  1.0
  N  N2075  1  0.367870  0.175570  0.039270  1.0
  N  N2076  1  0.175570  0.039270  0.367870  1.0
  N  N2077  1  0.978780  0.400080  0.724580  1.0
  N  N2078  1  0.724580  0.978780  0.400080  1.0
  N  N2079  1  0.400080  0.724580  0.978780  1.0
  N  N2080  1  0.099920  0.521220  0.775420  1.0
  N  N2081  1  0.521220  0.775420  0.099920  1.0
  N  N2082  1  0.775420  0.099920  0.521220  1.0
  N  N2083  1  0.021220  0.599920  0.275420  1.0
  N  N2084  1  0.275420  0.021220  0.599920  1.0
  N  N2085  1  0.599920  0.275420  0.021220  1.0
  N  N2086  1  0.900080  0.478780  0.224580  1.0
  N  N2087  1  0.478780  0.224580  0.900080  1.0
  N  N2088  1  0.224580  0.900080  0.478780  1.0
  N  N2089  1  0.991830  0.373030  0.763030  1.0
  N  N2090  1  0.763030  0.991830  0.373030  1.0
  N  N2091  1  0.373030  0.763030  0.991830  1.0
  N  N2092  1  0.126970  0.508170  0.736970  1.0
  N  N2093  1  0.508170  0.736970  0.126970  1.0
  N  N2094  1  0.736970  0.126970  0.508170  1.0
  N  N2095  1  0.008170  0.626970  0.236970  1.0
  N  N2096  1  0.236970  0.008170  0.626970  1.0
  N  N2097  1  0.626970  0.236970  0.008170  1.0
  N  N2098  1  0.873030  0.491830  0.263030  1.0
  N  N2099  1  0.491830  0.263030  0.873030  1.0
  N  N2100  1  0.263030  0.873030  0.491830  1.0
  N  N2101  1  0.159210  0.187210  0.809610  1.0
  N  N2102  1  0.809610  0.159210  0.187210  1.0
  N  N2103  1  0.187210  0.809610  0.159210  1.0
  N  N2104  1  0.312790  0.340790  0.690390  1.0
  N  N2105  1  0.340790  0.690390  0.312790  1.0
  N  N2106  1  0.690390  0.312790  0.340790  1.0
  N  N2107  1  0.840790  0.812790  0.190390  1.0
  N  N2108  1  0.190390  0.840790  0.812790  1.0
  N  N2109  1  0.812790  0.190390  0.840790  1.0
  N  N2110  1  0.687210  0.659210  0.309610  1.0
  N  N2111  1  0.659210  0.309610  0.687210  1.0
  N  N2112  1  0.309610  0.687210  0.659210  1.0
  N  N2113  1  0.147720  0.214820  0.770420  1.0
  N  N2114  1  0.770420  0.147720  0.214820  1.0
  N  N2115  1  0.214820  0.770420  0.147720  1.0
  N  N2116  1  0.285180  0.352280  0.729580  1.0
  N  N2117  1  0.352280  0.729580  0.285180  1.0
  N  N2118  1  0.729580  0.285180  0.352280  1.0
  N  N2119  1  0.852280  0.785180  0.229580  1.0
  N  N2120  1  0.229580  0.852280  0.785180  1.0
  N  N2121  1  0.785180  0.229580  0.852280  1.0
  N  N2122  1  0.714820  0.647720  0.270420  1.0
  N  N2123  1  0.647720  0.270420  0.714820  1.0
  N  N2124  1  0.270420  0.714820  0.647720  1.0
  N  N2125  1  0.198230  0.125530  0.876430  1.0
  N  N2126  1  0.876430  0.198230  0.125530  1.0
  N  N2127  1  0.125530  0.876430  0.198230  1.0
  N  N2128  1  0.374470  0.301770  0.623570  1.0
  N  N2129  1  0.301770  0.623570  0.374470  1.0
  N  N2130  1  0.623570  0.374470  0.301770  1.0
  N  N2131  1  0.801770  0.874470  0.123570  1.0
  N  N2132  1  0.123570  0.801770  0.874470  1.0
  N  N2133  1  0.874470  0.123570  0.801770  1.0
  N  N2134  1  0.625530  0.698230  0.376430  1.0
  N  N2135  1  0.698230  0.376430  0.625530  1.0
  N  N2136  1  0.376430  0.625530  0.698230  1.0
  N  N2137  1  0.278780  0.055080  0.857180  1.0
  N  N2138  1  0.857180  0.278780  0.055080  1.0
  N  N2139  1  0.055080  0.857180  0.278780  1.0
  N  N2140  1  0.444920  0.221220  0.642820  1.0
  N  N2141  1  0.221220  0.642820  0.444920  1.0
  N  N2142  1  0.642820  0.444920  0.221220  1.0
  N  N2143  1  0.721220  0.944920  0.142820  1.0
  N  N2144  1  0.142820  0.721220  0.944920  1.0
  N  N2145  1  0.944920  0.142820  0.721220  1.0
  N  N2146  1  0.555080  0.778780  0.357180  1.0
  N  N2147  1  0.778780  0.357180  0.555080  1.0
  N  N2148  1  0.357180  0.555080  0.778780  1.0
  N  N2149  1  0.017760  0.426260  0.581960  1.0
  N  N2150  1  0.581960  0.017760  0.426260  1.0
  N  N2151  1  0.426260  0.581960  0.017760  1.0
  N  N2152  1  0.073740  0.482240  0.918040  1.0
  N  N2153  1  0.482240  0.918040  0.073740  1.0
  N  N2154  1  0.918040  0.073740  0.482240  1.0
  N  N2155  1  0.982240  0.573740  0.418040  1.0
  N  N2156  1  0.418040  0.982240  0.573740  1.0
  N  N2157  1  0.573740  0.418040  0.982240  1.0
  N  N2158  1  0.926260  0.517760  0.081960  1.0
  N  N2159  1  0.517760  0.081960  0.926260  1.0
  N  N2160  1  0.081960  0.926260  0.517760  1.0
  N  N2161  1  0.048090  0.454090  0.485490  1.0
  N  N2162  1  0.485490  0.048090  0.454090  1.0
  N  N2163  1  0.454090  0.485490  0.048090  1.0
  N  N2164  1  0.045910  0.451910  0.014510  1.0
  N  N2165  1  0.451910  0.014510  0.045910  1.0
  N  N2166  1  0.014510  0.045910  0.451910  1.0
  N  N2167  1  0.951910  0.545910  0.514510  1.0
  N  N2168  1  0.514510  0.951910  0.545910  1.0
  N  N2169  1  0.545910  0.514510  0.951910  1.0
  N  N2170  1  0.954090  0.548090  0.985490  1.0
  N  N2171  1  0.548090  0.985490  0.954090  1.0
  N  N2172  1  0.985490  0.954090  0.548090  1.0
  N  N2173  1  0.040400  0.455100  0.634100  1.0
  N  N2174  1  0.634100  0.040400  0.455100  1.0
  N  N2175  1  0.455100  0.634100  0.040400  1.0
  N  N2176  1  0.044900  0.459600  0.865900  1.0
  N  N2177  1  0.459600  0.865900  0.044900  1.0
  N  N2178  1  0.865900  0.044900  0.459600  1.0
  N  N2179  1  0.959600  0.544900  0.365900  1.0
  N  N2180  1  0.365900  0.959600  0.544900  1.0
  N  N2181  1  0.544900  0.365900  0.959600  1.0
  N  N2182  1  0.955100  0.540400  0.134100  1.0
  N  N2183  1  0.540400  0.134100  0.955100  1.0
  N  N2184  1  0.134100  0.955100  0.540400  1.0
  N  N2185  1  0.056450  0.474550  0.653050  1.0
  N  N2186  1  0.653050  0.056450  0.474550  1.0
  N  N2187  1  0.474550  0.653050  0.056450  1.0
  N  N2188  1  0.025450  0.443550  0.846950  1.0
  N  N2189  1  0.443550  0.846950  0.025450  1.0
  N  N2190  1  0.846950  0.025450  0.443550  1.0
  N  N2191  1  0.943550  0.525450  0.346950  1.0
  N  N2192  1  0.346950  0.943550  0.525450  1.0
  N  N2193  1  0.525450  0.346950  0.943550  1.0
  N  N2194  1  0.974550  0.556450  0.153050  1.0
  N  N2195  1  0.556450  0.153050  0.974550  1.0
  N  N2196  1  0.153050  0.974550  0.556450  1.0
  N  N2197  1  0.966930  0.360730  0.664930  1.0
  N  N2198  1  0.664930  0.966930  0.360730  1.0
  N  N2199  1  0.360730  0.664930  0.966930  1.0
  N  N2200  1  0.139270  0.533070  0.835070  1.0
  N  N2201  1  0.533070  0.835070  0.139270  1.0
  N  N2202  1  0.835070  0.139270  0.533070  1.0
  N  N2203  1  0.033070  0.639270  0.335070  1.0
  N  N2204  1  0.335070  0.033070  0.639270  1.0
  N  N2205  1  0.639270  0.335070  0.033070  1.0
  N  N2206  1  0.860730  0.466930  0.164930  1.0
  N  N2207  1  0.466930  0.164930  0.860730  1.0
  N  N2208  1  0.164930  0.860730  0.466930  1.0
  N  N2209  1  0.928630  0.288630  0.689830  1.0
  N  N2210  1  0.689830  0.928630  0.288630  1.0
  N  N2211  1  0.288630  0.689830  0.928630  1.0
  N  N2212  1  0.211370  0.571370  0.810170  1.0
  N  N2213  1  0.571370  0.810170  0.211370  1.0
  N  N2214  1  0.810170  0.211370  0.571370  1.0
  N  N2215  1  0.071370  0.711370  0.310170  1.0
  N  N2216  1  0.310170  0.071370  0.711370  1.0
  N  N2217  1  0.711370  0.310170  0.071370  1.0
  N  N2218  1  0.788630  0.428630  0.189830  1.0
  N  N2219  1  0.428630  0.189830  0.788630  1.0
  N  N2220  1  0.189830  0.788630  0.428630  1.0
  N  N2221  1  0.056860  0.347460  0.649560  1.0
  N  N2222  1  0.649560  0.056860  0.347460  1.0
  N  N2223  1  0.347460  0.649560  0.056860  1.0
  N  N2224  1  0.152540  0.443140  0.850440  1.0
  N  N2225  1  0.443140  0.850440  0.152540  1.0
  N  N2226  1  0.850440  0.152540  0.443140  1.0
  N  N2227  1  0.943140  0.652540  0.350440  1.0
  N  N2228  1  0.350440  0.943140  0.652540  1.0
  N  N2229  1  0.652540  0.350440  0.943140  1.0
  N  N2230  1  0.847460  0.556860  0.149560  1.0
  N  N2231  1  0.556860  0.149560  0.847460  1.0
  N  N2232  1  0.149560  0.847460  0.556860  1.0
  N  N2233  1  0.102970  0.332470  0.641570  1.0
  N  N2234  1  0.641570  0.102970  0.332470  1.0
  N  N2235  1  0.332470  0.641570  0.102970  1.0
  N  N2236  1  0.167530  0.397030  0.858430  1.0
  N  N2237  1  0.397030  0.858430  0.167530  1.0
  N  N2238  1  0.858430  0.167530  0.397030  1.0
  N  N2239  1  0.897030  0.667530  0.358430  1.0
  N  N2240  1  0.358430  0.897030  0.667530  1.0
  N  N2241  1  0.667530  0.358430  0.897030  1.0
  N  N2242  1  0.832470  0.602970  0.141570  1.0
  N  N2243  1  0.602970  0.141570  0.832470  1.0
  N  N2244  1  0.141570  0.832470  0.602970  1.0
  N  N2245  1  0.094570  0.147470  0.888370  1.0
  N  N2246  1  0.888370  0.094570  0.147470  1.0
  N  N2247  1  0.147470  0.888370  0.094570  1.0
  N  N2248  1  0.352530  0.405430  0.611630  1.0
  N  N2249  1  0.405430  0.611630  0.352530  1.0
  N  N2250  1  0.611630  0.352530  0.405430  1.0
  N  N2251  1  0.905430  0.852530  0.111630  1.0
  N  N2252  1  0.111630  0.905430  0.852530  1.0
  N  N2253  1  0.852530  0.111630  0.905430  1.0
  N  N2254  1  0.647470  0.594570  0.388370  1.0
  N  N2255  1  0.594570  0.388370  0.647470  1.0
  N  N2256  1  0.388370  0.647470  0.594570  1.0
  N  N2257  1  0.025350  0.113450  0.893150  1.0
  N  N2258  1  0.893150  0.025350  0.113450  1.0
  N  N2259  1  0.113450  0.893150  0.025350  1.0
  N  N2260  1  0.386550  0.474650  0.606850  1.0
  N  N2261  1  0.474650  0.606850  0.386550  1.0
  N  N2262  1  0.606850  0.386550  0.474650  1.0
  N  N2263  1  0.974650  0.886550  0.106850  1.0
  N  N2264  1  0.106850  0.974650  0.886550  1.0
  N  N2265  1  0.886550  0.106850  0.974650  1.0
  N  N2266  1  0.613450  0.525350  0.393150  1.0
  N  N2267  1  0.525350  0.393150  0.613450  1.0
  N  N2268  1  0.393150  0.613450  0.525350  1.0
  N  N2269  1  0.078040  0.235240  0.883640  1.0
  N  N2270  1  0.883640  0.078040  0.235240  1.0
  N  N2271  1  0.235240  0.883640  0.078040  1.0
  N  N2272  1  0.264760  0.421960  0.616360  1.0
  N  N2273  1  0.421960  0.616360  0.264760  1.0
  N  N2274  1  0.616360  0.264760  0.421960  1.0
  N  N2275  1  0.921960  0.764760  0.116360  1.0
  N  N2276  1  0.116360  0.921960  0.764760  1.0
  N  N2277  1  0.764760  0.116360  0.921960  1.0
  N  N2278  1  0.735240  0.578040  0.383640  1.0
  N  N2279  1  0.578040  0.383640  0.735240  1.0
  N  N2280  1  0.383640  0.735240  0.578040  1.0
  N  N2281  1  0.060190  0.279690  0.884190  1.0
  N  N2282  1  0.884190  0.060190  0.279690  1.0
  N  N2283  1  0.279690  0.884190  0.060190  1.0
  N  N2284  1  0.220310  0.439810  0.615810  1.0
  N  N2285  1  0.439810  0.615810  0.220310  1.0
  N  N2286  1  0.615810  0.220310  0.439810  1.0
  N  N2287  1  0.939810  0.720310  0.115810  1.0
  N  N2288  1  0.115810  0.939810  0.720310  1.0
  N  N2289  1  0.720310  0.115810  0.939810  1.0
  N  N2290  1  0.779690  0.560190  0.384190  1.0
  N  N2291  1  0.560190  0.384190  0.779690  1.0
  N  N2292  1  0.384190  0.779690  0.560190  1.0
  N  N2293  1  0.128010  0.172010  0.950210  1.0
  N  N2294  1  0.950210  0.128010  0.172010  1.0
  N  N2295  1  0.172010  0.950210  0.128010  1.0
  N  N2296  1  0.327990  0.371990  0.549790  1.0
  N  N2297  1  0.371990  0.549790  0.327990  1.0
  N  N2298  1  0.549790  0.327990  0.371990  1.0
  N  N2299  1  0.871990  0.827990  0.049790  1.0
  N  N2300  1  0.049790  0.871990  0.827990  1.0
  N  N2301  1  0.827990  0.049790  0.871990  1.0
  N  N2302  1  0.672010  0.628010  0.450210  1.0
  N  N2303  1  0.628010  0.450210  0.672010  1.0
  N  N2304  1  0.450210  0.672010  0.628010  1.0
  N  N2305  1  0.115300  0.169100  0.040800  1.0
  N  N2306  1  0.040800  0.115300  0.169100  1.0
  N  N2307  1  0.169100  0.040800  0.115300  1.0
  N  N2308  1  0.330900  0.384700  0.459200  1.0
  N  N2309  1  0.384700  0.459200  0.330900  1.0
  N  N2310  1  0.459200  0.330900  0.384700  1.0
  N  N2311  1  0.884700  0.830900  0.959200  1.0
  N  N2312  1  0.959200  0.884700  0.830900  1.0
  N  N2313  1  0.830900  0.959200  0.884700  1.0
  N  N2314  1  0.669100  0.615300  0.540800  1.0
  N  N2315  1  0.615300  0.540800  0.669100  1.0
  N  N2316  1  0.540800  0.669100  0.615300  1.0
  N  N2317  1  0.181380  0.217980  0.879280  1.0
  N  N2318  1  0.879280  0.181380  0.217980  1.0
  N  N2319  1  0.217980  0.879280  0.181380  1.0
  N  N2320  1  0.282020  0.318620  0.620720  1.0
  N  N2321  1  0.318620  0.620720  0.282020  1.0
  N  N2322  1  0.620720  0.282020  0.318620  1.0
  N  N2323  1  0.818620  0.782020  0.120720  1.0
  N  N2324  1  0.120720  0.818620  0.782020  1.0
  N  N2325  1  0.782020  0.120720  0.818620  1.0
  N  N2326  1  0.717980  0.681380  0.379280  1.0
  N  N2327  1  0.681380  0.379280  0.717980  1.0
  N  N2328  1  0.379280  0.717980  0.681380  1.0
  N  N2329  1  0.211110  0.244110  0.848410  1.0
  N  N2330  1  0.848410  0.211110  0.244110  1.0
  N  N2331  1  0.244110  0.848410  0.211110  1.0
  N  N2332  1  0.255890  0.288890  0.651590  1.0
  N  N2333  1  0.288890  0.651590  0.255890  1.0
  N  N2334  1  0.651590  0.255890  0.288890  1.0
  N  N2335  1  0.788890  0.755890  0.151590  1.0
  N  N2336  1  0.151590  0.788890  0.755890  1.0
  N  N2337  1  0.755890  0.151590  0.788890  1.0
  N  N2338  1  0.744110  0.711110  0.348410  1.0
  N  N2339  1  0.711110  0.348410  0.744110  1.0
  N  N2340  1  0.348410  0.744110  0.711110  1.0
  Ni  Ni2341  1  0.001594  0.408474  0.653154  1.0
  Ni  Ni2342  1  0.653154  0.001594  0.408474  1.0
  Ni  Ni2343  1  0.408474  0.653154  0.001594  1.0
  Ni  Ni2344  1  0.091526  0.498406  0.846846  1.0
  Ni  Ni2345  1  0.498406  0.846846  0.091526  1.0
  Ni  Ni2346  1  0.846846  0.091526  0.498406  1.0
  Ni  Ni2347  1  0.998406  0.591526  0.346846  1.0
  Ni  Ni2348  1  0.346846  0.998406  0.591526  1.0
  Ni  Ni2349  1  0.591526  0.346846  0.998406  1.0
  Ni  Ni2350  1  0.908474  0.501594  0.153154  1.0
  Ni  Ni2351  1  0.501594  0.153154  0.908474  1.0
  Ni  Ni2352  1  0.153154  0.908474  0.501594  1.0
  Ni  Ni2353  1  0.139836  0.182346  0.880516  1.0
  Ni  Ni2354  1  0.880516  0.139836  0.182346  1.0
  Ni  Ni2355  1  0.182346  0.880516  0.139836  1.0
  Ni  Ni2356  1  0.317654  0.360164  0.619484  1.0
  Ni  Ni2357  1  0.360164  0.619484  0.317654  1.0
  Ni  Ni2358  1  0.619484  0.317654  0.360164  1.0
  Ni  Ni2359  1  0.860164  0.817654  0.119484  1.0
  Ni  Ni2360  1  0.119484  0.860164  0.817654  1.0
  Ni  Ni2361  1  0.817654  0.119484  0.860164  1.0
  Ni  Ni2362  1  0.682346  0.639836  0.380516  1.0
  Ni  Ni2363  1  0.639836  0.380516  0.682346  1.0
  Ni  Ni2364  1  0.380516  0.682346  0.639836  1.0
  O  O2365  1  0.094370  0.083670  0.629870  1
  O  O2366  1  0.629870  0.094370  0.083670  1
  O  O2367  1  0.083670  0.629870  0.094370  1
  O  O2368  1  0.416330  0.405630  0.870130  1
  O  O2369  1  0.405630  0.870130  0.416330  1
  O  O2370  1  0.870130  0.416330  0.405630  1
  O  O2371  1  0.905630  0.916330  0.370130  1
  O  O2372  1  0.370130  0.905630  0.916330  1
  O  O2373  1  0.916330  0.370130  0.905630  1
  O  O2374  1  0.583670  0.594370  0.129870  1
  O  O2375  1  0.594370  0.129870  0.583670  1
  O  O2376  1  0.129870  0.583670  0.594370  1
  O  O2377  1  0.800100  0.648800  0.652500  1
  O  O2378  1  0.652500  0.800100  0.648800  1
  O  O2379  1  0.648800  0.652500  0.800100  1
  O  O2380  1  0.851200  0.699900  0.847500  1
  O  O2381  1  0.699900  0.847500  0.851200  1
  O  O2382  1  0.847500  0.851200  0.699900  1
  O  O2383  1  0.199900  0.351200  0.347500  1
  O  O2384  1  0.347500  0.199900  0.351200  1
  O  O2385  1  0.351200  0.347500  0.199900  1
  O  O2386  1  0.148800  0.300100  0.152500  1
  O  O2387  1  0.300100  0.152500  0.148800  1
  O  O2388  1  0.152500  0.148800  0.300100  1
  O  O2389  1  0.022400  0.304300  0.565000  1
  O  O2390  1  0.565000  0.022400  0.304300  1
  O  O2391  1  0.304300  0.565000  0.022400  1
  O  O2392  1  0.195700  0.477600  0.935000  1
  O  O2393  1  0.477600  0.935000  0.195700  1
  O  O2394  1  0.935000  0.195700  0.477600  1
  O  O2395  1  0.977600  0.695700  0.435000  1
  O  O2396  1  0.435000  0.977600  0.695700  1
  O  O2397  1  0.695700  0.435000  0.977600  1
  O  O2398  1  0.804300  0.522400  0.065000  1
  O  O2399  1  0.522400  0.065000  0.804300  1
  O  O2400  1  0.065000  0.804300  0.522400  1
  O  O2401  1  0.980500  0.261500  0.585500  1
  O  O2402  1  0.585500  0.980500  0.261500  1
  O  O2403  1  0.261500  0.585500  0.980500  1
  O  O2404  1  0.238500  0.519500  0.914500  1
  O  O2405  1  0.519500  0.914500  0.238500  1
  O  O2406  1  0.914500  0.238500  0.519500  1
  O  O2407  1  0.019500  0.738500  0.414500  1
  O  O2408  1  0.414500  0.019500  0.738500  1
  O  O2409  1  0.738500  0.414500  0.019500  1
  O  O2410  1  0.761500  0.480500  0.085500  1
  O  O2411  1  0.480500  0.085500  0.761500  1
  O  O2412  1  0.085500  0.761500  0.480500  1
  O  O2413  1  0.823400  0.510600  0.829800  1
  O  O2414  1  0.829800  0.823400  0.510600  1
  O  O2415  1  0.510600  0.829800  0.823400  1
  O  O2416  1  0.989400  0.676600  0.670200  1
  O  O2417  1  0.676600  0.670200  0.989400  1
  O  O2418  1  0.670200  0.989400  0.676600  1
  O  O2419  1  0.176600  0.489400  0.170200  1
  O  O2420  1  0.170200  0.176600  0.489400  1
  O  O2421  1  0.489400  0.170200  0.176600  1
  O  O2422  1  0.010600  0.323400  0.329800  1
  O  O2423  1  0.323400  0.329800  0.010600  1
  O  O2424  1  0.329800  0.010600  0.323400  1
  O  O2425  1  0.248800  0.159700  0.012100  1
  O  O2426  1  0.012100  0.248800  0.159700  1
  O  O2427  1  0.159700  0.012100  0.248800  1
  O  O2428  1  0.340300  0.251200  0.487900  1
  O  O2429  1  0.251200  0.487900  0.340300  1
  O  O2430  1  0.487900  0.340300  0.251200  1
  O  O2431  1  0.751200  0.840300  0.987900  1
  O  O2432  1  0.987900  0.751200  0.840300  1
  O  O2433  1  0.840300  0.987900  0.751200  1
  O  O2434  1  0.659700  0.748800  0.512100  1
  O  O2435  1  0.748800  0.512100  0.659700  1
  O  O2436  1  0.512100  0.659700  0.748800  1
  O  O2437  1  0.259300  0.132000  0.957600  1
  O  O2438  1  0.957600  0.259300  0.132000  1
  O  O2439  1  0.132000  0.957600  0.259300  1
  O  O2440  1  0.368000  0.240700  0.542400  1
  O  O2441  1  0.240700  0.542400  0.368000  1
  O  O2442  1  0.542400  0.368000  0.240700  1
  O  O2443  1  0.740700  0.868000  0.042400  1
  O  O2444  1  0.042400  0.740700  0.868000  1
  O  O2445  1  0.868000  0.042400  0.740700  1
  O  O2446  1  0.632000  0.759300  0.457600  1
  O  O2447  1  0.759300  0.457600  0.632000  1
  O  O2448  1  0.457600  0.632000  0.759300  1
  O  O2449  1  0.943300  0.943300  0.943300  1
  O  O2450  1  0.556700  0.556700  0.556700  1
  O  O2451  1  0.056700  0.056700  0.056700  1
  O  O2452  1  0.443300  0.443300  0.443300  1
  O  O2453  1  0.993600  0.294100  0.557800  1
  O  O2454  1  0.557800  0.993600  0.294100  1
  O  O2455  1  0.294100  0.557800  0.993600  1
  O  O2456  1  0.205900  0.506400  0.942200  1
  O  O2457  1  0.506400  0.942200  0.205900  1
  O  O2458  1  0.942200  0.205900  0.506400  1
  O  O2459  1  0.006400  0.705900  0.442200  1
  O  O2460  1  0.442200  0.006400  0.705900  1
  O  O2461  1  0.705900  0.442200  0.006400  1
  O  O2462  1  0.794100  0.493600  0.057800  1
  O  O2463  1  0.493600  0.057800  0.794100  1
  O  O2464  1  0.057800  0.794100  0.493600  1
  O  O2465  1  0.487000  0.014400  0.685500  1
  O  O2466  1  0.685500  0.487000  0.014400  1
  O  O2467  1  0.014400  0.685500  0.487000  1
  O  O2468  1  0.485600  0.013000  0.814500  1
  O  O2469  1  0.013000  0.814500  0.485600  1
  O  O2470  1  0.814500  0.485600  0.013000  1
  O  O2471  1  0.513000  0.985600  0.314500  1
  O  O2472  1  0.314500  0.513000  0.985600  1
  O  O2473  1  0.985600  0.314500  0.513000  1
  O  O2474  1  0.514400  0.987000  0.185500  1
  O  O2475  1  0.987000  0.185500  0.514400  1
  O  O2476  1  0.185500  0.514400  0.987000  1
  O  O2477  1  0.840300  0.652700  0.606600  1
  O  O2478  1  0.606600  0.840300  0.652700  1
  O  O2479  1  0.652700  0.606600  0.840300  1
  O  O2480  1  0.847300  0.659700  0.893400  1
  O  O2481  1  0.659700  0.893400  0.847300  1
  O  O2482  1  0.893400  0.847300  0.659700  1
  O  O2483  1  0.159700  0.347300  0.393400  1
  O  O2484  1  0.393400  0.159700  0.347300  1
  O  O2485  1  0.347300  0.393400  0.159700  1
  O  O2486  1  0.152700  0.340300  0.106600  1
  O  O2487  1  0.340300  0.106600  0.152700  1
  O  O2488  1  0.106600  0.152700  0.340300  1
  O  O2489  1  0.848600  0.673100  0.629800  1
  O  O2490  1  0.629800  0.848600  0.673100  1
  O  O2491  1  0.673100  0.629800  0.848600  1
  O  O2492  1  0.826900  0.651400  0.870200  1
  O  O2493  1  0.651400  0.870200  0.826900  1
  O  O2494  1  0.870200  0.826900  0.651400  1
  O  O2495  1  0.151400  0.326900  0.370200  1
  O  O2496  1  0.370200  0.151400  0.326900  1
  O  O2497  1  0.326900  0.370200  0.151400  1
  O  O2498  1  0.173100  0.348600  0.129800  1
  O  O2499  1  0.348600  0.129800  0.173100  1
  O  O2500  1  0.129800  0.173100  0.348600  1
  Si  Si2501  1  0.136854  0.363168  0.750011  1
  Si  Si2502  1  0.750011  0.136854  0.363168  1
  Si  Si2503  1  0.363168  0.750011  0.136854  1
  Si  Si2504  1  0.863146  0.636832  0.249989  1
  Si  Si2505  1  0.249989  0.863146  0.636832  1
  Si  Si2506  1  0.636832  0.249989  0.863146  1
