
#######################################################################
#
#                 Cambridge Crystallographic Data Centre
#                                CCDC 
#
#######################################################################
#
# If this CIF has been generated from an entry in the Cambridge 
# Structural Database, then it will include bibliographic, chemical, 
# crystal, experimental, refinement or atomic coordinate data resulting 
# from the CCDC's data processing and validation procedures.
#
#######################################################################

data_XEHBET
_chemical_formula_moiety         
'C156 H120 N48 Ni4 8+,6(B1 F4 1-),F6 Si1 2-,2(C4 H8 O1),C1 H3 N1 O2,8.67(H2 O1)'
_chemical_name_systematic        
"hexakis(\m~2~-2,2'-(Naphthalene-1,8-diylbis(methanediyl-1H-pyrazole-1,3-diyl))dipyrazine)-tetra-nickel hexakis(tetrafluoroborate) hexafluorosilicate nitromethane tetrahydrofuran solvate hydrate"
_symmetry_cell_setting           rhombohedral
_symmetry_space_group_name_H-M   'R -3 c'
_symmetry_Int_Tables_number      167
_space_group_name_Hall           '-R 3 2"c'
loop_
_symmetry_equiv_pos_site_id
_symmetry_equiv_pos_as_xyz
1 x,y,z
2 -y,x-y,z
3 -x+y,-x,z
4 x-y,-y,1/2-z
5 -x,-x+y,1/2-z
6 y,x,1/2-z
7 2/3+x,1/3+y,1/3+z
8 2/3-y,1/3+x-y,1/3+z
9 2/3-x+y,1/3-x,1/3+z
10 2/3+x-y,1/3-y,5/6-z
11 2/3-x,1/3-x+y,5/6-z
12 2/3+y,1/3+x,5/6-z
13 1/3+x,2/3+y,2/3+z
14 1/3-y,2/3+x-y,2/3+z
15 1/3-x+y,2/3-x,2/3+z
16 1/3+x-y,2/3-y,1/6-z
17 1/3-x,2/3-x+y,1/6-z
18 1/3+y,2/3+x,1/6-z
19 -x,-y,-z
20 y,-x+y,-z
21 x-y,x,-z
22 -x+y,y,1/2+z
23 x,x-y,1/2+z
24 -y,-x,1/2+z
25 1/3-x,2/3-y,2/3-z
26 1/3+y,2/3-x+y,2/3-z
27 1/3+x-y,2/3+x,2/3-z
28 1/3-x+y,2/3+y,1/6+z
29 1/3+x,2/3+x-y,1/6+z
30 1/3-y,2/3-x,1/6+z
31 2/3-x,1/3-y,1/3-z
32 2/3+y,1/3-x+y,1/3-z
33 2/3+x-y,1/3+x,1/3-z
34 2/3-x+y,1/3+y,5/6+z
35 2/3+x,1/3+x-y,5/6+z
36 2/3-y,1/3-x,5/6+z
_cell_length_a                   36.412(2)
_cell_length_b                   36.412(2)
_cell_length_c                   75.005(4)
_cell_angle_alpha                90
_cell_angle_beta                 90
_cell_angle_gamma                120
_cell_volume                     86121.2
_exptl_crystal_colour            colorless
_exptl_crystal_description       block
_cell_formula_units_Z            18
loop_
_atom_site_label
_atom_site_type_symbol
_atom_site_fract_x
_atom_site_fract_y
_atom_site_fract_z
Ni1 Ni -0.01948(5) 0.36792(4) 0.021074(17)
Ni2 Ni 0.07227(4) 0.18705(4) 0.067566(18)
N1 N -0.0799(3) 0.3633(3) 0.02176(11)
N2 N -0.1597(4) 0.3520(4) 0.02757(18)
N3 N -0.0557(3) 0.3099(3) 0.03448(11)
N4 N -0.0508(3) 0.2796(3) 0.04263(11)
N5 N 0.1072(3) 0.2424(3) 0.05201(10)
N6 N 0.1034(3) 0.2739(3) 0.04432(11)
N7 N 0.1315(3) 0.1903(3) 0.06673(11)
N8 N 0.2151(3) 0.2065(4) 0.06368(14)
N9 N 0.0091(3) 0.4267(3) 0.00866(11)
N10 N 0.0522(3) 0.5104(3) -0.00411(11)
N11 N -0.0028(3) 0.4091(3) 0.04320(10)
N12 N -0.0049(3) 0.4083(3) 0.06135(11)
N13 N -0.0306(3) 0.3326(3) -0.00247(11)
N14 N -0.0404(4) 0.2792(3) -0.03097(12)
N15 N 0.0389(3) 0.3684(3) 0.01796(11)
N16 N 0.0773(3) 0.3841(3) 0.02567(11)
N17 N 0.0511(3) 0.1551(3) 0.04347(12)
N18 N 0.0147(4) 0.1175(4) 0.01065(14)
N19 N 0.0124(3) 0.1820(3) 0.06564(11)
N20 N -0.0145(3) 0.1905(3) 0.07469(12)
N21 N 0.0446(3) 0.1332(3) 0.08341(13)
N22 N 0.0069(4) 0.0676(3) 0.10840(18)
N23 N 0.0885(3) 0.2136(3) 0.09288(11)
N24 N 0.1099(3) 0.2528(3) 0.10121(10)
C1 C -0.1093(4) 0.3302(3) 0.03148(15)
C2 C -0.1487(4) 0.3250(4) 0.03408(19)
H1 H -0.1684 0.3017 0.0406
C3 C -0.1306(5) 0.3834(5) 0.0186(2)
H2 H -0.1375 0.4027 0.0138
C4 C -0.0909(4) 0.3906(4) 0.01564(17)
H3 H -0.0714 0.4144 0.0093
C5 C -0.0868(3) 0.2522(3) 0.05133(13)
H4 H -0.0910 0.2286 0.0578
C6 C -0.1160(4) 0.2649(3) 0.04893(14)
H5 H -0.1435 0.2520 0.0534
C7 C -0.0959(4) 0.3013(4) 0.03845(14)
C8 C -0.0150(3) 0.2729(3) 0.03841(13)
H6 H -0.0089 0.2606 0.0487
H7 H 0.0100 0.3000 0.0359
C9 C -0.0250(4) 0.2436(3) 0.02242(13)
C10 C -0.0649(4) 0.2263(3) 0.01512(13)
H8 H -0.0843 0.2330 0.0201
C11 C -0.0774(4) 0.1983(4) 0.00007(14)
H9 H -0.1052 0.1853 -0.0041
C12 C -0.0489(4) 0.1908(4) -0.00791(15)
H10 H -0.0567 0.1730 -0.0178
C13 C -0.0064(4) 0.2102(4) -0.00135(14)
C14 C 0.0053(3) 0.2346(3) 0.01486(13)
C15 C 0.0227(4) 0.2029(4) -0.01066(16)
H11 H 0.0145 0.1875 -0.0212
C16 C 0.0633(4) 0.2182(4) -0.00437(15)
H12 H 0.0830 0.2147 -0.0109
C17 C 0.0740(4) 0.2387(4) 0.01155(14)
H13 H 0.1010 0.2475 0.0161
C18 C 0.0471(4) 0.2470(4) 0.02139(13)
C19 C 0.1411(3) 0.3043(4) 0.03809(13)
H14 H 0.1463 0.3289 0.0321
C20 C 0.1703(4) 0.2928(3) 0.04205(13)
H15 H 0.1991 0.3076 0.0394
C21 C 0.1479(3) 0.2541(3) 0.05089(12)
C22 C 0.0623(3) 0.2682(4) 0.03958(14)
H16 H 0.0639 0.2956 0.0394
H17 H 0.0417 0.2509 0.0486
C23 C 0.1624(4) 0.2255(4) 0.05834(14)
C24 C 0.2033(4) 0.2333(4) 0.05682(14)
H18 H 0.2233 0.2576 0.0509
C25 C 0.1852(4) 0.1736(4) 0.07289(18)
H19 H 0.1923 0.1556 0.0788
C26 C 0.1436(4) 0.1656(4) 0.07385(16)
H20 H 0.1236 0.1415 0.0799
C27 C 0.0266(3) 0.4605(3) 0.01993(13)
C28 C 0.0480(3) 0.5020(4) 0.01353(14)
H21 H 0.0597 0.5244 0.0216
C29 C 0.0350(4) 0.4772(4) -0.01492(14)
H22 H 0.0377 0.4821 -0.0272
C30 C 0.0132(4) 0.4354(3) -0.00888(14)
H23 H 0.0013 0.4133 -0.0171
C31 C 0.0161(3) 0.4484(3) 0.06783(14)
H24 H 0.0184 0.4557 0.0798
C32 C 0.0334(3) 0.4766(3) 0.05404(13)
H25 H 0.0500 0.5060 0.0546
C33 C 0.0203(3) 0.4505(3) 0.03888(13)
C34 C -0.0340(3) 0.3704(3) 0.07135(13)
H26 H -0.0220 0.3711 0.0830
H27 H -0.0377 0.3454 0.0651
C35 C -0.0774(4) 0.3674(4) 0.07365(15)
C36 C -0.0836(4) 0.3982(4) 0.06602(16)
H28 H -0.0607 0.4207 0.0603
C37 C -0.1207(5) 0.3978(5) 0.06639(19)
H29 H -0.1235 0.4190 0.0607
C38 C -0.1541(5) 0.3661(5) 0.0752(2)
H30 H -0.1796 0.3660 0.0758
C39 C -0.1505(5) 0.3333 0.0833
C40 C -0.1125(4) 0.3333 0.0833
C41 C 0.0000(4) 0.3242(3) -0.00698(14)
C42 C -0.0051(4) 0.2979(4) -0.02136(14)
H31 H 0.0171 0.2933 -0.0243
C43 C -0.0709(5) 0.2870(4) -0.02608(14)
H32 H -0.0964 0.2739 -0.0323
C44 C -0.0663(4) 0.3143(4) -0.01192(15)
H33 H -0.0882 0.3195 -0.0091
C45 C 0.1011(4) 0.3717(4) 0.01664(15)
H34 H 0.1288 0.3792 0.0195
C46 C 0.0781(4) 0.3464(4) 0.00256(14)
H35 H 0.0865 0.3332 -0.0058
C47 C 0.0388(4) 0.3451(3) 0.00377(13)
C48 C 0.0930(3) 0.4164(3) 0.03904(13)
H36 H 0.1118 0.4123 0.0470
H37 H 0.0694 0.4137 0.0461
C49 C 0.0133(4) 0.1496(4) 0.03772(14)
C50 C -0.0036(4) 0.1314(4) 0.02141(15)
H38 H -0.0293 0.1289 0.0180
C51 C 0.0527(4) 0.1234(4) 0.01605(16)
H39 H 0.0676 0.1152 0.0086
C52 C 0.0701(4) 0.1415(4) 0.03250(15)
H40 H 0.0959 0.1440 0.0359
C53 C -0.0513(4) 0.1778(3) 0.06548(14)
H41 H -0.0745 0.1802 0.0691
C54 C -0.0471(4) 0.1609(4) 0.04989(15)
H42 H -0.0670 0.1494 0.0408
C55 C -0.0083(4) 0.1640(4) 0.05031(15)
C56 C -0.0085(3) 0.2032(3) 0.09364(13)
H43 H -0.0203 0.2216 0.0958
H44 H 0.0215 0.2191 0.0964
C57 C -0.0304(3) 0.1641(3) 0.10591(14)
C58 C -0.0513(4) 0.1247(4) 0.09810(16)
H45 H -0.0519 0.1231 0.0857
C59 C -0.0713(4) 0.0872(4) 0.10770(17)
H46 H -0.0859 0.0612 0.1019
C60 C -0.0692(4) 0.0892(4) 0.12560(18)
H47 H -0.0819 0.0642 0.1322
C61 C -0.0482(3) 0.1284(3) 0.13459(15)
C62 C -0.0294(3) 0.1666(3) 0.12530(14)
C63 C -0.0473(4) 0.1275(4) 0.15373(16)
H48 H -0.0595 0.1016 0.1596
C64 C -0.0290(4) 0.1638(4) 0.16343(17)
H49 H -0.0283 0.1629 0.1758
C65 C -0.0110(4) 0.2031(4) 0.15427(14)
H50 H 0.0008 0.2279 0.1610
C66 C 0.1167(3) 0.4600(3) 0.03115(14)
C67 C 0.0484(3) 0.1410(4) 0.10114(16)
C68 C 0.0293(4) 0.1075(4) 0.11308(17)
H51 H 0.0327 0.1138 0.1252
C69 C 0.0031(4) 0.0601(4) 0.0906(2)
H52 H -0.0123 0.0323 0.0865
C70 C 0.0214(4) 0.0929(4) 0.07828(19)
H53 H 0.0174 0.0866 0.0662
C71 C 0.1073(4) 0.2475(4) 0.11896(13)
H54 H 0.1199 0.2693 0.1273
C72 C 0.0835(4) 0.2061(4) 0.12281(15)
H55 H 0.0763 0.1938 0.1341
C73 C 0.0719(3) 0.1851(3) 0.10625(14)
C74 C 0.1385(3) 0.2901(3) 0.09195(13)
H56 H 0.1394 0.3143 0.0977
H57 H 0.1283 0.2886 0.0799
C75 C 0.1836(3) 0.2965(3) 0.09129(13)
C76 C 0.1895(4) 0.2652(4) 0.09846(13)
H58 H 0.1662 0.2420 0.1036
C77 C 0.2596(4) 0.3333 0.0833
C78 C 0.2192(4) 0.3333 0.0833
C79 C 0.2961(3) 0.3671(4) 0.07557(14)
H59 H 0.3212 0.3663 0.0756
C80 C 0.2281(4) 0.2658(4) 0.09861(15)
H60 H 0.2304 0.2438 0.1037
Ni1O Ni -0.05407(6) 0.29875(4) 0.145593(17)
Ni2O Ni 0.21855(6) 0.47962(4) 0.099101(18)
N1O N -0.1099(4) 0.3034(3) 0.14491(11)
N2O N -0.1784(6) 0.3147(4) 0.13910(18)
N3O N -0.0323(4) 0.3568(3) 0.13219(11)
N4O N 0.0029(4) 0.3871(3) 0.12404(11)
N5O N 0.1981(4) 0.4243(3) 0.11466(10)
N6O N 0.1628(4) 0.3928(3) 0.12235(11)
N7O N 0.2745(4) 0.4764(3) 0.09994(11)
N8O N 0.3419(5) 0.4602(4) 0.10299(14)
N9O N -0.0843(4) 0.2400(3) 0.15801(11)
N10O N -0.1249(4) 0.1563(3) 0.17078(11)
N11O N -0.0786(4) 0.2576(3) 0.12347(10)
N12O N -0.0799(4) 0.2584(3) 0.10532(11)
N13O N -0.0299(4) 0.3341(3) 0.16914(11)
N14O N 0.0137(5) 0.3875(3) 0.19764(12)
N15O N 0.0038(4) 0.2983(3) 0.14871(11)
N16O N 0.0265(4) 0.2826(3) 0.14100(11)
N17O N 0.2293(4) 0.5116(3) 0.12320(12)
N18O N 0.2305(6) 0.5492(4) 0.15602(14)
N19O N 0.1637(4) 0.4847(3) 0.10103(11)
N20O N 0.1283(4) 0.4762(3) 0.09198(12)
N21O N 0.2447(4) 0.5335(3) 0.08326(13)
N22O N 0.2726(5) 0.5991(3) 0.05827(18)
N23O N 0.2082(4) 0.4531(3) 0.07379(11)
N24O N 0.1904(4) 0.4139(3) 0.06546(10)
C1O C -0.1062(5) 0.3365(3) 0.13519(15)
C2O C -0.1404(6) 0.3417(4) 0.13259(19)
H1O H -0.1368 0.3650 0.1261
C3O C -0.1807(7) 0.2833(5) 0.1481(2)
H2O H -0.2069 0.2640 0.1529
C4O C -0.1482(6) 0.2761(4) 0.15103(17)
H3O H -0.1525 0.2523 0.1574
C5O C -0.0057(4) 0.4145(3) 0.11534(13)
H4O H 0.0137 0.4381 0.1089
C6O C -0.0476(5) 0.4018(3) 0.11774(14)
H5O H -0.0622 0.4147 0.1133
C7O C -0.0639(6) 0.3654(4) 0.12822(14)
C8O C 0.0454(4) 0.3938(3) 0.12826(13)
H6O H 0.0638 0.4061 0.1180
H7O H 0.0433 0.3667 0.1308
C9O C 0.0647(5) 0.4231(3) 0.14425(13)
C10O C 0.0421(5) 0.4404(3) 0.15155(13)
H8O H 0.0160 0.4337 0.1466
C11O C 0.0576(6) 0.4684(4) 0.16660(14)
H9O H 0.0428 0.4814 0.1708
C12O C 0.0936(6) 0.4759(4) 0.17458(15)
H10O H 0.1036 0.4937 0.1845
C13O C 0.1167(6) 0.4565(4) 0.16802(14)
C14O C 0.1040(4) 0.4321(3) 0.15181(13)
C15O C 0.1531(6) 0.4638(4) 0.17733(16)
H11O H 0.1603 0.4792 0.1879
C16O C 0.1784(6) 0.4485(4) 0.17104(15)
H12O H 0.2016 0.4520 0.1776
C17O C 0.1686(6) 0.4280(4) 0.15512(14)
H13O H 0.1868 0.4192 0.1506
C18O C 0.1334(6) 0.4197(4) 0.14528(13)
C19O C 0.1701(5) 0.3624(4) 0.12858(13)
H14O H 0.1507 0.3378 0.1346
C20O C 0.2108(5) 0.3739(3) 0.12462(13)
H15O H 0.2248 0.3591 0.1273
C21O C 0.2271(4) 0.4126(3) 0.11578(12)
C22O C 0.1274(5) 0.3985(4) 0.12709(14)
H16O H 0.1016 0.3711 0.1273
H17O H 0.1241 0.4158 0.1181
C23O C 0.2702(6) 0.4412(4) 0.10833(14)
C24O C 0.3033(6) 0.4334(4) 0.10985(14)
H18O H 0.2990 0.4091 0.1158
C25O C 0.3449(6) 0.4931(4) 0.09378(18)
H19O H 0.3700 0.5111 0.0879
C26O C 0.3113(6) 0.5011(4) 0.09282(16)
H20O H 0.3154 0.5252 0.0868
C27O C -0.1006(4) 0.2062(3) 0.14674(13)
C28O C -0.1207(5) 0.1647(4) 0.15314(14)
H21O H -0.1314 0.1423 0.1451
C29O C -0.1089(6) 0.1895(4) 0.18159(14)
H22O H -0.1111 0.1846 0.1939
C30O C -0.0889(5) 0.2313(3) 0.17555(14)
H23O H -0.0787 0.2534 0.1838
C31O C -0.0990(4) 0.2183(3) 0.09884(14)
H24O H -0.1040 0.2110 0.0869
C32O C -0.1099(4) 0.1901(3) 0.11263(13)
H25O H -0.1227 0.1607 0.1121
C33O C -0.0969(4) 0.2162(3) 0.12779(13)
C34O C -0.0711(4) 0.2963(3) 0.09532(13)
H26O H -0.0598 0.2956 0.0837
H27O H -0.0498 0.3213 0.1016
C35O C -0.1115(6) 0.2993(4) 0.09302(15)
C36O C -0.1485(6) 0.2685(4) 0.10065(16)
H28O H -0.1481 0.2460 0.1064
C37O C -0.1852(7) 0.2689(5) 0.10028(19)
H29O H -0.2092 0.2477 0.1060
C38O C -0.1869(7) 0.3006(5) 0.0915(2)
H30O H -0.2123 0.3007 0.0909
C41O C 0.0091(5) 0.3425(3) 0.17365(14)
C42O C 0.0303(6) 0.3688(4) 0.18803(14)
H31O H 0.0571 0.3734 0.1910
C43O C -0.0246(6) 0.3797(4) 0.19275(14)
H32O H -0.0370 0.3928 0.1990
C44O C -0.0473(6) 0.3524(4) 0.17859(15)
H33O H -0.0744 0.3472 0.1758
C45O C 0.0627(6) 0.2950(4) 0.15003(15)
H34O H 0.0829 0.2875 0.1472
C46O C 0.0650(6) 0.3203(4) 0.16411(14)
H35O H 0.0866 0.3335 0.1725
C47O C 0.0270(5) 0.3216(3) 0.16290(13)
C48O C 0.0099(4) 0.2503(3) 0.12763(13)
H36O H 0.0328 0.2544 0.1197
H37O H -0.0110 0.2530 0.1206
C49O C 0.1970(6) 0.5171(4) 0.12895(14)
C50O C 0.1983(6) 0.5353(4) 0.14526(15)
H38O H 0.1751 0.5378 0.1487
C51O C 0.2626(6) 0.5433(4) 0.15062(16)
H39O H 0.2857 0.5515 0.1581
C52O C 0.2619(6) 0.5252(4) 0.13417(15)
H40O H 0.2852 0.5227 0.1308
C53O C 0.1042(5) 0.4889(3) 0.10119(14)
H41O H 0.0786 0.4865 0.0976
C54O C 0.1253(6) 0.5058(4) 0.11678(15)
H42O H 0.1169 0.5173 0.1259
C55O C 0.1610(6) 0.5027(4) 0.11636(15)
C56O C 0.1216(4) 0.4635(3) 0.07303(13)
H43O H 0.0914 0.4451 0.0709
H44O H 0.1357 0.4476 0.0703
C57O C 0.1388(4) 0.5026(3) 0.06076(14)
C58O C 0.1573(6) 0.5420(4) 0.06857(16)
H45O H 0.1583 0.5436 0.0810
C59O C 0.1748(6) 0.5795(4) 0.05897(17)
H46O H 0.1862 0.6055 0.0648
C60O C 0.1749(6) 0.5775(4) 0.04107(18)
H47O H 0.1872 0.6025 0.0345
C61O C 0.1567(4) 0.5383(3) 0.03208(15)
C62O C 0.1373(4) 0.5001(3) 0.04137(14)
C63O C 0.1585(6) 0.5392(4) 0.01294(16)
H48O H 0.1722 0.5651 0.0071
C64O C 0.1405(6) 0.5029(4) 0.00324(17)
H49O H 0.1421 0.5038 -0.0091
C65O C 0.1192(6) 0.4636(4) 0.01240(14)
H50O H 0.1062 0.4388 0.0057
C66O C -0.0100(4) 0.2067(3) 0.13552(14)
C67O C 0.2407(5) 0.5257(4) 0.06553(16)
C68O C 0.2551(6) 0.5592(4) 0.05359(17)
H51O H 0.2522 0.5529 0.0415
C69O C 0.2763(6) 0.6066(4) 0.0761(2)
H52O H 0.2887 0.6344 0.0802
C70O C 0.2618(6) 0.5738(4) 0.08839(19)
H53O H 0.2641 0.5801 0.1005
C71O C 0.1931(6) 0.4192(4) 0.04771(13)
H54O H 0.1839 0.3974 0.0394
C72O C 0.2107(6) 0.4606(4) 0.04386(15)
H55O H 0.2158 0.4729 0.0326
C73O C 0.2201(4) 0.4816(3) 0.06042(14)
C74O C 0.1817(4) 0.3766(3) 0.07472(13)
H56O H 0.1584 0.3524 0.0690
H57O H 0.1730 0.3781 0.0868
C75O C 0.2204(4) 0.3702(3) 0.07538(13)
C76O C 0.2576(6) 0.4015(4) 0.06821(13)
H58O H 0.2575 0.4247 0.0631
C79O C 0.2623(5) 0.2996(4) 0.09110(14)
H59O H 0.2882 0.3004 0.0911
C80O C 0.2956(6) 0.4009(4) 0.06806(15)
H60O H 0.3199 0.4229 0.0630
B1 B 0.20756(14) 0.38774(14) 0.00174(5)
F1 F 0.2413(2) 0.3996(2) -0.00910(8)
F2 F 0.1997(2) 0.42095(17) 0.00516(8)
F3 F 0.2137(2) 0.37214(19) 0.01755(6)
F4 F 0.1716(2) 0.35372(19) -0.00581(10)
B2 B 0.4009(6) 0.4671(7) 0.0425(2)
F5 F 0.3994(3) 0.4828(4) 0.02581(11)
F6 F 0.3903(3) 0.4835(3) 0.05641(11)
F7 F 0.3749(2) 0.4226(3) 0.04216(12)
F8 F 0.4437(3) 0.4746(3) 0.04542(10)
Si1 Si 0.05351(11) 0.3333 0.0833
F9 F 0.0608(3) 0.29405(18) 0.07915(12)
F10 F 0.00636(13) 0.29430(19) 0.07929(12)
F11 F 0.0411(3) 0.3449(3) 0.06398(6)
F9O F 0.10008(35) 0.37262(18) 0.08752(12)
F10O F 0.04539(23) 0.37237(19) 0.08738(12)
F11O F 0.0295(4) 0.3218(3) 0.10269(6)
B3 B -0.0747(2) 0.0400(2) 0.05174(8)
F13 F -0.0818(3) 0.0009(2) 0.05823(13)
F14 F -0.0369(2) 0.0572(3) 0.04316(12)
F15 F -0.1087(3) 0.0315(4) 0.03981(12)
F16 F -0.0752(3) 0.0629(3) 0.06496(10)
O1 O 0.1584(3) 0.3061(3) -0.06403(10)
C81 C 0.1043(4) 0.3067(5) -0.04672(17)
H61 H 0.1082 0.3302 -0.0393
H62 H 0.0798 0.2810 -0.0425
C82 C 0.0987(4) 0.3149(5) -0.06604(17)
H63 H 0.0692 0.2982 -0.0697
H64 H 0.1084 0.3447 -0.0681
C83 C 0.1259(5) 0.3011(7) -0.07585(19)
H65 H 0.1091 0.2717 -0.0795
H66 H 0.1381 0.3183 -0.0864
C84 C 0.1423(6) 0.3025(8) -0.0466(2)
H67 H 0.1639 0.3244 -0.0391
H68 H 0.1354 0.2752 -0.0416
O2 O -0.2337(18) 0.3813(19) 0.0338(8)
O4 O 0.0585(7) 0.3989(7) -0.0361(3)
O7 O 0.0380(9) 0.3570(9) -0.0575(4)
O9 O -0.2312(11) 0.2248(11) 0.0546(5)
O11 O 0.1086(8) 0.1281(8) 0.1402(3)
C85 C 0.1675(9) 0.1953(9) 0.1416(3)
N25 N 0.1362(9) 0.1521(9) 0.1312(3)
O12 O 0.1430(6) 0.1587(6) 0.1163(3)
loop_
_geom_bond_atom_site_label_1
_geom_bond_atom_site_label_2
_geom_bond_site_symmetry_1
_geom_bond_site_symmetry_2
Ni1 N1 1_555 1_555
Ni2 N5 1_555 1_555
N1 C1 1_555 1_555
N2 C2 1_555 1_555
N3 Ni1 1_555 1_555
N4 N3 1_555 1_555
N5 N6 1_555 1_555
N6 C19 1_555 1_555
N7 Ni2 1_555 1_555
N8 C24 1_555 1_555
N9 Ni1 1_555 1_555
N10 C28 1_555 1_555
N11 Ni1 1_555 1_555
N12 N11 1_555 1_555
N13 Ni1 1_555 1_555
N14 C42 1_555 1_555
N15 Ni1 1_555 1_555
N16 N15 1_555 1_555
N17 Ni2 1_555 1_555
N18 C50 1_555 1_555
N19 Ni2 1_555 1_555
N20 N19 1_555 1_555
N21 Ni2 1_555 1_555
N22 C68 1_555 1_555
N23 Ni2 1_555 1_555
N24 N23 1_555 1_555
C1 C2 1_555 1_555
C2 H1 1_555 1_555
C3 N2 1_555 1_555
H2 C3 1_555 1_555
C4 N1 1_555 1_555
H3 C4 1_555 1_555
C5 N4 1_555 1_555
H4 C5 1_555 1_555
C6 C5 1_555 1_555
H5 C6 1_555 1_555
C7 N3 1_555 1_555
C8 N4 1_555 1_555
H6 C8 1_555 1_555
H7 C8 1_555 1_555
C9 C8 1_555 1_555
C10 C9 1_555 1_555
H8 C10 1_555 1_555
C11 C10 1_555 1_555
H9 C11 1_555 1_555
C12 C11 1_555 1_555
H10 C12 1_555 1_555
C13 C12 1_555 1_555
C14 C9 1_555 1_555
C15 C13 1_555 1_555
H11 C15 1_555 1_555
C16 C15 1_555 1_555
H12 C16 1_555 1_555
C17 C16 1_555 1_555
H13 C17 1_555 1_555
C18 C14 1_555 1_555
C19 H14 1_555 1_555
C20 C19 1_555 1_555
H15 C20 1_555 1_555
C21 N5 1_555 1_555
C22 N6 1_555 1_555
H16 C22 1_555 1_555
H17 C22 1_555 1_555
C23 N7 1_555 1_555
C24 C23 1_555 1_555
H18 C24 1_555 1_555
C25 N8 1_555 1_555
H19 C25 1_555 1_555
C26 N7 1_555 1_555
H20 C26 1_555 1_555
C27 N9 1_555 1_555
C28 C27 1_555 1_555
H21 C28 1_555 1_555
C29 N10 1_555 1_555
H22 C29 1_555 1_555
C30 N9 1_555 1_555
H23 C30 1_555 1_555
C31 N12 1_555 1_555
H24 C31 1_555 1_555
C32 C31 1_555 1_555
H25 C32 1_555 1_555
C33 N11 1_555 1_555
C34 N12 1_555 1_555
H26 C34 1_555 1_555
H27 C34 1_555 1_555
C35 C34 1_555 1_555
C36 C35 1_555 1_555
H28 C36 1_555 1_555
C37 C36 1_555 1_555
H29 C37 1_555 1_555
C38 C37 1_555 1_555
H30 C38 1_555 1_555
C39 C38 1_555 1_555
C40 C35 1_555 1_555
C41 N13 1_555 1_555
C42 C41 1_555 1_555
H31 C42 1_555 1_555
C43 N14 1_555 1_555
H32 C43 1_555 1_555
C44 N13 1_555 1_555
H33 C44 1_555 1_555
C45 N16 1_555 1_555
H34 C45 1_555 1_555
C46 C45 1_555 1_555
H35 C46 1_555 1_555
C47 N15 1_555 1_555
C48 N16 1_555 1_555
H36 C48 1_555 1_555
H37 C48 1_555 1_555
C49 N17 1_555 1_555
C50 C49 1_555 1_555
H38 C50 1_555 1_555
C51 N18 1_555 1_555
H39 C51 1_555 1_555
C52 N17 1_555 1_555
H40 C52 1_555 1_555
C53 N20 1_555 1_555
H41 C53 1_555 1_555
C54 C53 1_555 1_555
H42 C54 1_555 1_555
C55 N19 1_555 1_555
C56 N20 1_555 1_555
H43 C56 1_555 1_555
H44 C56 1_555 1_555
C57 C56 1_555 1_555
C58 C57 1_555 1_555
H45 C58 1_555 1_555
C59 C58 1_555 1_555
H46 C59 1_555 1_555
C60 C59 1_555 1_555
H47 C60 1_555 1_555
C61 C60 1_555 1_555
C62 C57 1_555 1_555
C63 C61 1_555 1_555
H48 C63 1_555 1_555
C64 C63 1_555 1_555
H49 C64 1_555 1_555
C65 C64 1_555 1_555
H50 C65 1_555 1_555
C66 C48 1_555 1_555
C67 N21 1_555 1_555
C68 C67 1_555 1_555
H51 C68 1_555 1_555
C69 N22 1_555 1_555
H52 C69 1_555 1_555
C70 N21 1_555 1_555
H53 C70 1_555 1_555
C71 N24 1_555 1_555
H54 C71 1_555 1_555
C72 C71 1_555 1_555
H55 C72 1_555 1_555
C73 N23 1_555 1_555
C74 N24 1_555 1_555
H56 C74 1_555 1_555
H57 C74 1_555 1_555
C75 C74 1_555 1_555
C76 C75 1_555 1_555
H58 C76 1_555 1_555
C77 C78 1_555 1_555
C78 C75 1_555 1_555
C79 C77 1_555 1_555
H59 C79 1_555 1_555
C80 C76 1_555 1_555
H60 C80 1_555 1_555
B1 F1 1_555 1_555
F2 B1 1_555 1_555
F3 B1 1_555 1_555
F4 B1 1_555 1_555
B2 F5 1_555 1_555
F6 B2 1_555 1_555
F7 B2 1_555 1_555
F8 B2 1_555 1_555
Si1 F9 1_555 1_555
F10 Si1 1_555 1_555
F11 Si1 1_555 1_555
B3 F13 1_555 1_555
F14 B3 1_555 1_555
F15 B3 1_555 1_555
F16 B3 1_555 1_555
O1 C83 1_555 1_555
C81 H61 1_555 1_555
H62 C81 1_555 1_555
C82 C81 1_555 1_555
H63 C82 1_555 1_555
H64 C82 1_555 1_555
C83 C82 1_555 1_555
H65 C83 1_555 1_555
H66 C83 1_555 1_555
C84 O1 1_555 1_555
H67 C84 1_555 1_555
H68 C84 1_555 1_555
O11 N25 1_555 1_555
C85 N25 1_555 1_555
N25 O12 1_555 1_555
Ni1O N1O 1_555 1_555
Ni2O N5O 1_555 1_555
N1O C1O 1_555 1_555
N2O C2O 1_555 1_555
N3O Ni1O 1_555 1_555
N4O N3O 1_555 1_555
N5O N6O 1_555 1_555
N6O C19O 1_555 1_555
N7O Ni2O 1_555 1_555
N8O C24O 1_555 1_555
N9O Ni1O 1_555 1_555
N10O C28O 1_555 1_555
N11O Ni1O 1_555 1_555
N12O N11O 1_555 1_555
N13O Ni1O 1_555 1_555
N14O C42O 1_555 1_555
N15O Ni1O 1_555 1_555
N16O N15O 1_555 1_555
N17O Ni2O 1_555 1_555
N18O C50O 1_555 1_555
N19O Ni2O 1_555 1_555
N20O N19O 1_555 1_555
N21O Ni2O 1_555 1_555
N22O C68O 1_555 1_555
N23O Ni2O 1_555 1_555
N24O N23O 1_555 1_555
C1O C2O 1_555 1_555
C2O H1O 1_555 1_555
C3O N2O 1_555 1_555
H2O C3O 1_555 1_555
C4O N1O 1_555 1_555
H3O C4O 1_555 1_555
C5O N4O 1_555 1_555
H4O C5O 1_555 1_555
C6O C5O 1_555 1_555
H5O C6O 1_555 1_555
C7O N3O 1_555 1_555
C8O N4O 1_555 1_555
H6O C8O 1_555 1_555
H7O C8O 1_555 1_555
C9O C8O 1_555 1_555
C10O C9O 1_555 1_555
H8O C10O 1_555 1_555
C11O C10O 1_555 1_555
H9O C11O 1_555 1_555
C12O C11O 1_555 1_555
H10O C12O 1_555 1_555
C13O C12O 1_555 1_555
C14O C9O 1_555 1_555
C15O C13O 1_555 1_555
H11O C15O 1_555 1_555
C16O C15O 1_555 1_555
H12O C16O 1_555 1_555
C17O C16O 1_555 1_555
H13O C17O 1_555 1_555
C18O C14O 1_555 1_555
C19O H14O 1_555 1_555
C20O C19O 1_555 1_555
H15O C20O 1_555 1_555
C21O N5O 1_555 1_555
C22O N6O 1_555 1_555
H16O C22O 1_555 1_555
H17O C22O 1_555 1_555
C23O N7O 1_555 1_555
C24O C23O 1_555 1_555
H18O C24O 1_555 1_555
C25O N8O 1_555 1_555
H19O C25O 1_555 1_555
C26O N7O 1_555 1_555
H20O C26O 1_555 1_555
C27O N9O 1_555 1_555
C28O C27O 1_555 1_555
H21O C28O 1_555 1_555
C29O N10O 1_555 1_555
H22O C29O 1_555 1_555
C30O N9O 1_555 1_555
H23O C30O 1_555 1_555
C31O N12O 1_555 1_555
H24O C31O 1_555 1_555
C32O C31O 1_555 1_555
H25O C32O 1_555 1_555
C33O N11O 1_555 1_555
C34O N12O 1_555 1_555
H26O C34O 1_555 1_555
H27O C34O 1_555 1_555
C35O C40 1_555 1_555
C36O C35O 1_555 1_555
H28O C36O 1_555 1_555
C37O C36O 1_555 1_555
H29O C37O 1_555 1_555
C38O C39 1_555 1_555
H30O C38O 1_555 1_555
C41O N13O 1_555 1_555
C42O C41O 1_555 1_555
H31O C42O 1_555 1_555
C43O N14O 1_555 1_555
H32O C43O 1_555 1_555
C44O N13O 1_555 1_555
H33O C44O 1_555 1_555
C45O N16O 1_555 1_555
H34O C45O 1_555 1_555
C46O C45O 1_555 1_555
H35O C46O 1_555 1_555
C47O N15O 1_555 1_555
C48O N16O 1_555 1_555
H36O C48O 1_555 1_555
H37O C48O 1_555 1_555
C49O N17O 1_555 1_555
C50O C49O 1_555 1_555
H38O C50O 1_555 1_555
C51O N18O 1_555 1_555
H39O C51O 1_555 1_555
C52O N17O 1_555 1_555
H40O C52O 1_555 1_555
C53O N20O 1_555 1_555
H41O C53O 1_555 1_555
C54O C53O 1_555 1_555
H42O C54O 1_555 1_555
C55O N19O 1_555 1_555
C56O N20O 1_555 1_555
H43O C56O 1_555 1_555
H44O C56O 1_555 1_555
C57O C56O 1_555 1_555
C58O C57O 1_555 1_555
H45O C58O 1_555 1_555
C59O C58O 1_555 1_555
H46O C59O 1_555 1_555
C60O C59O 1_555 1_555
H47O C60O 1_555 1_555
C61O C60O 1_555 1_555
C62O C66 1_555 1_555
C63O C61O 1_555 1_555
H48O C63O 1_555 1_555
C64O C63O 1_555 1_555
H49O C64O 1_555 1_555
C65O C66 1_555 1_555
H50O C65O 1_555 1_555
C66O C62 1_555 1_555
C67O N21O 1_555 1_555
C68O C67O 1_555 1_555
H51O C68O 1_555 1_555
C69O N22O 1_555 1_555
H52O C69O 1_555 1_555
C70O N21O 1_555 1_555
H53O C70O 1_555 1_555
C71O N24O 1_555 1_555
H54O C71O 1_555 1_555
C72O C71O 1_555 1_555
H55O C72O 1_555 1_555
C73O N23O 1_555 1_555
C74O N24O 1_555 1_555
H56O C74O 1_555 1_555
H57O C74O 1_555 1_555
C75O C78 1_555 1_555
C76O C75O 1_555 1_555
H58O C76O 1_555 1_555
C79O C77 1_555 1_555
H59O C79O 1_555 1_555
C80O C79 1_555 1_555
H60O C80O 1_555 1_555
F9O Si1 1_555 1_555
F10O Si1 1_555 1_555
F11O Si1 1_555 1_555
C1 C7 1_555 1_555
C3 C4 1_555 1_555
C6 C7 1_555 1_555
C13 C14 1_555 1_555
C17 C18 1_555 1_555
C18 C22 1_555 1_555
C20 C21 1_555 1_555
C21 C23 1_555 1_555
C25 C26 1_555 1_555
C27 C33 1_555 1_555
C29 C30 1_555 1_555
C32 C33 1_555 1_555
C39 C40 1_555 1_555
C41 C47 1_555 1_555
C43 C44 1_555 1_555
C46 C47 1_555 1_555
C49 C55 1_555 1_555
C51 C52 1_555 1_555
C54 C55 1_555 1_555
C61 C62 1_555 1_555
C65 C66O 1_555 1_555
C67 C73 1_555 1_555
C69 C70 1_555 1_555
C72 C73 1_555 1_555
C80 C79O 1_555 1_555
C81 C84 1_555 1_555
C1O C7O 1_555 1_555
C3O C4O 1_555 1_555
C6O C7O 1_555 1_555
C13O C14O 1_555 1_555
C17O C18O 1_555 1_555
C18O C22O 1_555 1_555
C20O C21O 1_555 1_555
C21O C23O 1_555 1_555
C25O C26O 1_555 1_555
C27O C33O 1_555 1_555
C29O C30O 1_555 1_555
C32O C33O 1_555 1_555
C34O C35O 1_555 1_555
C37O C38O 1_555 1_555
C41O C47O 1_555 1_555
C43O C44O 1_555 1_555
C46O C47O 1_555 1_555
C48O C66O 1_555 1_555
C49O C55O 1_555 1_555
C51O C52O 1_555 1_555
C54O C55O 1_555 1_555
C57O C62O 1_555 1_555
C61O C62O 1_555 1_555
C64O C65O 1_555 1_555
C67O C73O 1_555 1_555
C69O C70O 1_555 1_555
C72O C73O 1_555 1_555
C74O C75O 1_555 1_555
C76O C80O 1_555 1_555

#END
