
#######################################################################
#
#                 Cambridge Crystallographic Data Centre
#                                CCDC 
#
#######################################################################
#
# If this CIF has been generated from an entry in the Cambridge 
# Structural Database, then it will include bibliographic, chemical, 
# crystal, experimental, refinement or atomic coordinate data resulting 
# from the CCDC's data processing and validation procedures.
#
#######################################################################

data_XEQPUG
_chemical_formula_moiety         
'C72 H76 N8 O8 Ru4 4+,4(C1 F3 O3 S1 1-),C1 H4 O1'
_chemical_name_systematic        
"bis(\m~2~-4,4'-Diazene-1,2-diyldipyridine)-bis(\m~2~-1,2,4,5-tetraoxybenzene)-tetrakis(\h^6^-p-cymene)-tetra-ruthenium tetrakis(trifluoromethanesulfonate) methanol solvate"
_chemical_properties_biological  'tested for anti-cancer activity'
_symmetry_cell_setting           triclinic
_symmetry_space_group_name_H-M   'P -1'
_symmetry_Int_Tables_number      2
_space_group_name_Hall           '-P 1'
loop_
_symmetry_equiv_pos_site_id
_symmetry_equiv_pos_as_xyz
1 x,y,z
2 -x,-y,-z
_cell_length_a                   10.472(2)
_cell_length_b                   19.443(4)
_cell_length_c                   24.876(5)
_cell_angle_alpha                97.98(3)
_cell_angle_beta                 94.22(3)
_cell_angle_gamma                91.94(3)
_cell_volume                     4997.3
_exptl_crystal_colour            colorless
_exptl_crystal_description       block
_cell_formula_units_Z            2
loop_
_atom_site_label
_atom_site_type_symbol
_atom_site_fract_x
_atom_site_fract_y
_atom_site_fract_z
Ru3 Ru 0.99178(11) 0.59637(5) 0.31847(4)
Ru4 Ru 0.93388(11) 0.21073(5) 0.16702(4)
O5 O 1.1052(9) 0.5190(5) 0.2840(3)
O6 O 0.8572(8) 0.5203(5) 0.2822(3)
O7 O 0.8249(9) 0.2969(5) 0.1838(3)
O8 O 1.0723(8) 0.2913(5) 0.1908(3)
N5 N 0.9408(11) 0.2439(5) 0.0902(4)
N6 N 1.0173(13) 0.3734(5) -0.2401(5)
N7 N 0.9380(14) 0.3121(6) -0.0627(5)
N8 N 1.0428(14) 0.3197(6) -0.0822(5)
C37 C 1.0469(14) 0.4645(8) 0.2586(5)
C38 C 0.9013(15) 0.4651(7) 0.2568(5)
C39 C 0.8254(13) 0.4098(7) 0.2279(5)
H39 H 0.7350 0.4125 0.2229
C40 C 0.8851(14) 0.3517(8) 0.2069(5)
C41 C 1.0310(13) 0.3492(8) 0.2108(5)
C42 C 1.1037(14) 0.4073(7) 0.2336(5)
H40 H 1.1941 0.4080 0.2321
C43 C 1.1417(15) 0.6452(7) 0.3768(5)
C44 C 1.0776(17) 0.5909(7) 0.3993(5)
H41 H 1.1258 0.5489 0.4058
C45 C 0.9470(16) 0.5886(7) 0.4020(5)
H42 H 0.9042 0.5446 0.4096
C46 C 0.8698(15) 0.6390(7) 0.3810(5)
C47 C 0.9315(16) 0.6944(7) 0.3604(5)
H43 H 0.8783 0.7246 0.3391
C48 C 1.0670(16) 0.6977(7) 0.3577(5)
H44 H 1.1064 0.7307 0.3355
C49 C 1.2838(15) 0.6443(8) 0.3709(6)
H45 H 1.3303 0.6566 0.4068
H46 H 1.3076 0.6781 0.3471
H47 H 1.3060 0.5977 0.3549
C50 C 0.7275(15) 0.6363(7) 0.3825(5)
H48 H 0.6908 0.6589 0.3515
C51 C 0.6628(17) 0.5644(8) 0.3780(6)
H49 H 0.6946 0.5340 0.3475
H50 H 0.5699 0.5678 0.3717
H51 H 0.6822 0.5451 0.4119
C52 C 0.6971(18) 0.6813(9) 0.4357(7)
H52 H 0.7509 0.6682 0.4663
H53 H 0.6066 0.6738 0.4418
H54 H 0.7146 0.7304 0.4329
C53 C 0.8673(14) 0.1028(6) 0.1326(5)
C54 C 0.7871(14) 0.1301(6) 0.1738(6)
H55 H 0.6955 0.1383 0.1631
C55 C 0.8405(15) 0.1586(7) 0.2278(5)
H56 H 0.7852 0.1859 0.2532
C56 C 0.9746(15) 0.1612(7) 0.2406(5)
C57 C 1.0536(15) 0.1359(6) 0.1984(6)
H57 H 1.1481 0.1469 0.2042
C58 C 1.0020(14) 0.1059(6) 0.1456(6)
H58 H 1.0605 0.0970 0.1157
C59 C 1.0336(15) 0.1936(8) 0.2947(5)
H59 H 0.9714 0.2227 0.3136
H60 H 1.1094 0.2224 0.2898
H61 H 1.0589 0.1571 0.3163
C60 C 0.8045(13) 0.0719(7) 0.0786(5)
H62 H 0.7322 0.1013 0.0690
C61 C 0.7479(16) -0.0017(8) 0.0852(7)
H63 H 0.8164 -0.0294 0.0987
H64 H 0.7102 -0.0249 0.0498
H65 H 0.6817 0.0032 0.1111
C62 C 0.8957(15) 0.0669(8) 0.0328(5)
H66 H 0.9299 0.1135 0.0294
H67 H 0.8490 0.0464 -0.0016
H68 H 0.9666 0.0376 0.0414
C63 C 1.0488(17) 0.2469(7) 0.0668(6)
H69 H 1.1246 0.2338 0.0854
C64 C 1.0581(14) 0.2687(7) 0.0152(5)
H70 H 1.1376 0.2698 -0.0009
C65 C 0.9467(17) 0.2884(7) -0.0110(5)
C66 C 0.8315(16) 0.2852(7) 0.0135(6)
H71 H 0.7541 0.2976 -0.0044
C67 C 0.8314(15) 0.2635(6) 0.0648(6)
H72 H 0.7537 0.2624 0.0822
C68 C 0.9113(16) 0.3681(6) -0.2137(6)
H73 H 0.8314 0.3759 -0.2320
C69 C 0.9119(14) 0.3521(7) -0.1622(5)
H74 H 0.8349 0.3487 -0.1446
C70 C 1.0306(16) 0.3407(7) -0.1363(5)
C71 C 1.1403(15) 0.3464(7) -0.1620(6)
H75 H 1.2211 0.3391 -0.1442
C72 C 1.1317(16) 0.3628(7) -0.2143(6)
H76 H 1.2076 0.3667 -0.2326
Ru3A Ru 1.00822(11) 0.40363(5) -0.31847(4)
Ru4A Ru 1.06612(11) 0.78927(5) -0.16702(4)
O5A O 0.8948(9) 0.4810(5) -0.2840(3)
O6A O 1.1428(8) 0.4797(5) -0.2822(3)
O7A O 1.1751(9) 0.7031(5) -0.1838(3)
O8A O 0.9277(8) 0.7087(5) -0.1908(3)
N5A N 1.0592(11) 0.7561(5) -0.0902(4)
N6A N 0.9827(13) 0.6266(5) 0.2401(5)
N7A N 1.0620(14) 0.6879(6) 0.0627(5)
N8A N 0.9572(14) 0.6803(6) 0.0822(5)
C37A C 0.9531(14) 0.5355(8) -0.2586(5)
C38A C 1.0987(15) 0.5349(7) -0.2568(5)
C39A C 1.1746(13) 0.5902(7) -0.2279(5)
H39A H 1.2650 0.5875 -0.2229
C40A C 1.1149(14) 0.6483(8) -0.2069(5)
C41A C 0.9690(13) 0.6508(8) -0.2108(5)
C42A C 0.8963(14) 0.5927(7) -0.2336(5)
H40A H 0.8059 0.5920 -0.2321
C43A C 0.8583(15) 0.3548(7) -0.3768(5)
C44A C 0.9224(17) 0.4091(7) -0.3993(5)
H41A H 0.8742 0.4511 -0.4058
C45A C 1.0530(16) 0.4114(7) -0.4020(5)
H42A H 1.0958 0.4554 -0.4096
C46A C 1.1302(15) 0.3610(7) -0.3810(5)
C47A C 1.0685(16) 0.3056(7) -0.3604(5)
H43A H 1.1217 0.2754 -0.3391
C48A C 0.9330(16) 0.3023(7) -0.3577(5)
H44A H 0.8936 0.2693 -0.3355
C49A C 0.7162(15) 0.3557(8) -0.3709(6)
H45A H 0.6697 0.3434 -0.4068
H46A H 0.6924 0.3219 -0.3471
H47A H 0.6940 0.4023 -0.3549
C50A C 1.2725(15) 0.3637(7) -0.3825(5)
H48A H 1.3092 0.3411 -0.3515
C51A C 1.3372(17) 0.4356(8) -0.3780(6)
H49A H 1.3054 0.4660 -0.3475
H50A H 1.4301 0.4322 -0.3717
H51A H 1.3178 0.4549 -0.4119
C52A C 1.3029(18) 0.3187(9) -0.4357(7)
H52A H 1.2491 0.3318 -0.4663
H53A H 1.3934 0.3262 -0.4418
H54A H 1.2854 0.2696 -0.4329
C53A C 1.1327(14) 0.8972(6) -0.1326(5)
C54A C 1.2129(14) 0.8699(6) -0.1738(6)
H55A H 1.3045 0.8617 -0.1631
C55A C 1.1595(15) 0.8414(7) -0.2278(5)
H56A H 1.2148 0.8141 -0.2532
C56A C 1.0254(15) 0.8388(7) -0.2406(5)
C57A C 0.9464(15) 0.8641(6) -0.1984(6)
H57A H 0.8519 0.8531 -0.2042
C58A C 0.9980(14) 0.8941(6) -0.1456(6)
H58A H 0.9395 0.9030 -0.1157
C59A C 0.9664(15) 0.8064(8) -0.2947(5)
H59A H 1.0286 0.7773 -0.3136
H60A H 0.8906 0.7776 -0.2898
H61A H 0.9411 0.8429 -0.3163
C60A C 1.1955(13) 0.9281(7) -0.0786(5)
H62A H 1.2678 0.8987 -0.0690
C61A C 1.2521(16) 1.0017(8) -0.0852(7)
H63A H 1.1836 1.0294 -0.0987
H64A H 1.2898 1.0249 -0.0498
H65A H 1.3183 0.9968 -0.1111
C62A C 1.1043(15) 0.9331(8) -0.0328(5)
H66A H 1.0701 0.8865 -0.0294
H67A H 1.1510 0.9536 0.0016
H68A H 1.0334 0.9624 -0.0414
C63A C 0.9512(17) 0.7531(7) -0.0668(6)
H69A H 0.8754 0.7662 -0.0854
C64A C 0.9419(14) 0.7313(7) -0.0152(5)
H70A H 0.8624 0.7302 0.0009
C65A C 1.0533(17) 0.7116(7) 0.0110(5)
C66A C 1.1685(16) 0.7148(7) -0.0135(6)
H71A H 1.2459 0.7024 0.0044
C67A C 1.1686(15) 0.7365(6) -0.0648(6)
H72A H 1.2463 0.7376 -0.0822
C68A C 1.0887(16) 0.6319(6) 0.2137(6)
H73A H 1.1686 0.6241 0.2320
C69A C 1.0881(14) 0.6479(7) 0.1622(5)
H74A H 1.1651 0.6513 0.1446
C70A C 0.9694(16) 0.6593(7) 0.1363(5)
C71A C 0.8597(15) 0.6536(7) 0.1620(6)
H75A H 0.7789 0.6609 0.1442
C72A C 0.8683(16) 0.6372(7) 0.2143(6)
H76A H 0.7924 0.6333 0.2326
S1 S 0.3492(4) 0.1069(2) 0.10747(15)
O9 O 0.2590(10) 0.0545(5) 0.0794(4)
O10 O 0.4543(10) 0.0814(6) 0.1372(4)
O11 O 0.2931(10) 0.1674(5) 0.1337(4)
C73 C 0.4244(17) 0.1405(10) 0.0542(8)
F1 F 0.5143(10) 0.1891(5) 0.0718(4)
F2 F 0.4836(9) 0.0880(6) 0.0224(3)
F3 F 0.3402(9) 0.1655(5) 0.0197(4)
S2 S 0.4937(4) 0.6207(2) 0.21916(17)
O12 O 0.5418(12) 0.6142(6) 0.1663(4)
O13 O 0.3781(10) 0.6547(6) 0.2238(5)
O14 O 0.5876(11) 0.6397(6) 0.2638(5)
C74 C 0.4460(19) 0.5312(9) 0.2242(8)
F4 F 0.4037(10) 0.5245(5) 0.2734(4)
F5 F 0.5414(11) 0.4892(5) 0.2187(5)
F6 F 0.3540(12) 0.5053(6) 0.1884(5)
S3 S 0.9481(4) 0.8415(2) 0.26678(16)
O15 O 1.0134(9) 0.8248(5) 0.2180(4)
O16 O 0.8230(10) 0.8081(5) 0.2668(4)
O17 O 1.0287(10) 0.8443(5) 0.3170(4)
C75 C 0.912(2) 0.9336(9) 0.2658(7)
F7 F 0.8469(10) 0.9426(5) 0.2211(4)
F8 F 0.8462(11) 0.9577(5) 0.3072(5)
F9 F 1.0190(10) 0.9727(5) 0.2701(5)
S4 S 0.9361(5) 0.3718(3) 0.38863(17)
O18 O 0.8538(9) 0.3161(5) 0.3623(4)
O19 O 0.845(2) 0.4241(11) 0.4196(9)
O20 O 1.0098(14) 0.4122(7) 0.3623(4)
C76 C 1.017(3) 0.3387(15) 0.4428(13)
F10 F 1.092(3) 0.2927(13) 0.4257(8)
F11 F 0.9365(11) 0.3174(6) 0.4776(4)
F12 F 1.0933(19) 0.3882(12) 0.4755(8)
Ru1 Ru 0.38559(11) -0.12280(5) 0.16997(4)
Ru2 Ru 0.47523(11) 0.25949(5) 0.32715(4)
O1 O 0.5314(8) -0.0469(5) 0.2000(4)
O2 O 0.2852(8) -0.0444(4) 0.2115(3)
O3 O 0.3448(8) 0.1757(5) 0.3134(3)
O4 O 0.5858(9) 0.1768(5) 0.2984(3)
N1 N 0.5193(12) 0.2274(5) 0.4038(4)
N2 N 0.5826(13) 0.1535(5) 0.7521(4)
N3 N 0.6035(13) 0.1868(6) 0.5625(5)
N4 N 0.5107(13) 0.1874(6) 0.5910(5)
C1 C 0.4952(14) 0.0062(8) 0.2286(5)
C2 C 0.3537(15) 0.0077(7) 0.2360(5)
C3 C 0.3019(14) 0.0638(7) 0.2669(5)
H1 H 0.2139 0.0631 0.2738
C4 C 0.3833(15) 0.1207(7) 0.2871(5)
C5 C 0.5255(14) 0.1202(8) 0.2796(5)
C6 C 0.5764(14) 0.0613(8) 0.2544(5)
H2 H 0.6667 0.0579 0.2546
C7 C 0.2268(14) -0.1371(7) 0.1079(5)
C8 C 0.3324(14) -0.1087(7) 0.0857(5)
H3 H 0.3277 -0.0600 0.0771
C9 C 0.4538(14) -0.1374(7) 0.0891(5)
H4 H 0.5310 -0.1098 0.0815
C10 C 0.4700(16) -0.2007(7) 0.1135(5)
C11 C 0.3630(15) -0.2305(7) 0.1320(5)
H5 H 0.3772 -0.2672 0.1560
C12 C 0.2418(13) -0.1995(7) 0.1315(5)
H6 H 0.1733 -0.2163 0.1532
C13 C 0.0996(13) -0.1025(8) 0.1107(6)
H7 H 0.1135 -0.0523 0.1115
H8 H 0.0605 -0.1116 0.1438
H9 H 0.0424 -0.1213 0.0787
C14 C 0.5960(15) -0.2335(7) 0.1134(6)
H10 H 0.6027 -0.2577 0.1464
C15 C 0.7129(14) -0.1818(8) 0.1197(5)
H11 H 0.7203 -0.1627 0.0855
H12 H 0.7908 -0.2059 0.1284
H13 H 0.7019 -0.1439 0.1491
C16 C 0.5963(15) -0.2906(7) 0.0646(5)
H14 H 0.5335 -0.3278 0.0683
H15 H 0.6818 -0.3094 0.0632
H16 H 0.5739 -0.2711 0.0310
C17 C 0.4895(16) 0.3127(7) 0.2549(5)
C18 C 0.3641(15) 0.3143(7) 0.2701(6)
H17 H 0.2954 0.2874 0.2450
C19 C 0.3359(14) 0.3387(7) 0.3229(5)
H18 H 0.2476 0.3295 0.3339
C20 C 0.4364(16) 0.3661(7) 0.3648(6)
C21 C 0.5642(14) 0.3645(6) 0.3499(5)
H19 H 0.6357 0.3720 0.3793
C22 C 0.5917(14) 0.3361(7) 0.2971(5)
H20 H 0.6823 0.3259 0.2898
C23 C 0.5201(15) 0.2803(8) 0.1986(5)
H21 H 0.4519 0.2459 0.1832
H22 H 0.6019 0.2574 0.2012
H23 H 0.5264 0.3165 0.1751
C24 C 0.3952(15) 0.3931(7) 0.4204(6)
H24 H 0.3301 0.3590 0.4301
C25 C 0.3325(15) 0.4615(8) 0.4183(6)
H25 H 0.3956 0.4961 0.4100
H26 H 0.2996 0.4773 0.4536
H27 H 0.2615 0.4554 0.3898
C26 C 0.5083(14) 0.4018(7) 0.4654(5)
H28 H 0.5733 0.4350 0.4567
H29 H 0.5465 0.3568 0.4674
H30 H 0.4763 0.4190 0.5006
C27 C 0.4235(15) 0.2058(7) 0.4317(5)
H31 H 0.3386 0.2012 0.4149
C28 C 0.4443(14) 0.1902(7) 0.4837(6)
H32 H 0.3752 0.1749 0.5023
C29 C 0.5648(17) 0.1970(7) 0.5078(5)
C30 C 0.6678(16) 0.2155(7) 0.4791(6)
H33 H 0.7535 0.2179 0.4949
C31 C 0.6398(14) 0.2303(7) 0.4267(6)
H34 H 0.7081 0.2428 0.4063
C32 C 0.6808(15) 0.1551(6) 0.7208(6)
H35 H 0.7646 0.1484 0.7360
C33 C 0.6650(14) 0.1659(7) 0.6675(5)
H36 H 0.7364 0.1663 0.6461
C34 C 0.5433(15) 0.1762(7) 0.6454(6)
C35 C 0.4420(15) 0.1778(7) 0.6788(6)
H37 H 0.3582 0.1870 0.6651
C36 C 0.4651(15) 0.1657(7) 0.7324(5)
H38 H 0.3962 0.1661 0.7552
Ru1A Ru 0.61441(11) 0.12280(5) 0.83003(4)
Ru2A Ru 0.52477(11) -0.25949(5) 0.67285(4)
O1A O 0.4686(8) 0.0469(5) 0.8000(4)
O2A O 0.7148(8) 0.0444(4) 0.7885(3)
O3A O 0.6552(8) -0.1757(5) 0.6866(3)
O4A O 0.4142(9) -0.1768(5) 0.7016(3)
N1A N 0.4807(12) -0.2274(5) 0.5962(4)
N2A N 0.4174(13) -0.1535(5) 0.2479(4)
N3A N 0.3965(13) -0.1868(6) 0.4375(5)
N4A N 0.4893(13) -0.1874(6) 0.4090(5)
C1A C 0.5048(14) -0.0062(8) 0.7714(5)
C2A C 0.6463(15) -0.0077(7) 0.7640(5)
C3A C 0.6981(14) -0.0638(7) 0.7331(5)
H1A H 0.7861 -0.0631 0.7262
C4A C 0.6167(15) -0.1207(7) 0.7129(5)
C5A C 0.4745(14) -0.1202(8) 0.7204(5)
C6A C 0.4236(14) -0.0613(8) 0.7456(5)
H2A H 0.3333 -0.0579 0.7454
C7A C 0.7732(14) 0.1371(7) 0.8921(5)
C8A C 0.6676(14) 0.1087(7) 0.9143(5)
H3A H 0.6723 0.0600 0.9229
C9A C 0.5462(14) 0.1374(7) 0.9109(5)
H4A H 0.4690 0.1098 0.9185
C10A C 0.5300(16) 0.2007(7) 0.8865(5)
C11A C 0.6370(15) 0.2305(7) 0.8680(5)
H5A H 0.6228 0.2672 0.8440
C12A C 0.7582(13) 0.1995(7) 0.8685(5)
H6A H 0.8267 0.2163 0.8468
C13A C 0.9004(13) 0.1025(8) 0.8893(6)
H7A H 0.8865 0.0523 0.8885
H8A H 0.9395 0.1116 0.8562
H9A H 0.9576 0.1213 0.9213
C14A C 0.4040(15) 0.2335(7) 0.8866(6)
H10A H 0.3973 0.2577 0.8536
C15A C 0.2871(14) 0.1818(8) 0.8803(5)
H11A H 0.2797 0.1627 0.9145
H12A H 0.2092 0.2059 0.8716
H13A H 0.2981 0.1439 0.8509
C16A C 0.4037(15) 0.2906(7) 0.9354(5)
H14A H 0.4665 0.3278 0.9317
H15A H 0.3182 0.3094 0.9368
H16A H 0.4261 0.2711 0.9690
C17A C 0.5105(16) -0.3127(7) 0.7451(5)
C18A C 0.6359(15) -0.3143(7) 0.7299(6)
H17A H 0.7046 -0.2874 0.7550
C19A C 0.6641(14) -0.3387(7) 0.6771(5)
H18A H 0.7524 -0.3295 0.6661
C20A C 0.5636(16) -0.3661(7) 0.6352(6)
C21A C 0.4358(14) -0.3645(6) 0.6501(5)
H19A H 0.3643 -0.3720 0.6207
C22A C 0.4083(14) -0.3361(7) 0.7029(5)
H20A H 0.3177 -0.3259 0.7102
C23A C 0.4799(15) -0.2803(8) 0.8014(5)
H21A H 0.5481 -0.2459 0.8168
H22A H 0.3981 -0.2574 0.7988
H23A H 0.4736 -0.3165 0.8249
C24A C 0.6048(15) -0.3931(7) 0.5796(6)
H24A H 0.6699 -0.3590 0.5699
C25A C 0.6675(15) -0.4615(8) 0.5817(6)
H25A H 0.6044 -0.4961 0.5900
H26A H 0.7004 -0.4773 0.5464
H27A H 0.7385 -0.4554 0.6102
C26A C 0.4917(14) -0.4018(7) 0.5346(5)
H28A H 0.4267 -0.4350 0.5433
H29A H 0.4535 -0.3568 0.5326
H30A H 0.5237 -0.4190 0.4994
C27A C 0.5765(15) -0.2058(7) 0.5683(5)
H31A H 0.6614 -0.2012 0.5851
C28A C 0.5557(14) -0.1902(7) 0.5163(6)
H32A H 0.6248 -0.1749 0.4977
C29A C 0.4352(17) -0.1970(7) 0.4922(5)
C30A C 0.3322(16) -0.2155(7) 0.5209(6)
H33A H 0.2465 -0.2179 0.5051
C31A C 0.3602(14) -0.2303(7) 0.5733(6)
H34A H 0.2919 -0.2428 0.5937
C32A C 0.3192(15) -0.1551(6) 0.2792(6)
H35A H 0.2354 -0.1484 0.2640
C33A C 0.3350(14) -0.1659(7) 0.3325(5)
H36A H 0.2636 -0.1663 0.3539
C34A C 0.4567(15) -0.1762(7) 0.3546(6)
C35A C 0.5580(15) -0.1778(7) 0.3212(6)
H37A H 0.6418 -0.1870 0.3349
C36A C 0.5349(15) -0.1657(7) 0.2676(5)
H38A H 0.6038 -0.1661 0.2448
C77? C 0.940(8) 0.389(3) 0.4566(19)
F13? F 0.830(4) 0.4290(19) 0.4571(17)
F14? F 0.9365(11) 0.3174(6) 0.4776(4)
F15? F 1.038(4) 0.4274(19) 0.4810(11)
O21? O 0.8538(9) 0.3161(5) 0.3623(4)
O22? O 1.088(3) 0.315(2) 0.3961(16)
O23? O 1.0098(14) 0.4122(7) 0.3623(4)
S5? S 0.9361(5) 0.3718(3) 0.38863(17)
loop_
_geom_bond_atom_site_label_1
_geom_bond_atom_site_label_2
_geom_bond_site_symmetry_1
_geom_bond_site_symmetry_2
Ru1 O1 1_555 1_555
Ru2 O3 1_555 1_555
Ru3 O5 1_555 1_555
Ru4 O7 1_555 1_555
O1 C1 1_555 1_555
O2 Ru1 1_555 1_555
O3 C4 1_555 1_555
O4 Ru2 1_555 1_555
N1 Ru2 1_555 1_555
N2 C32 1_555 1_555
N3 N4 1_555 1_555
N4 C34 1_555 1_555
C1 C2 1_555 1_555
C2 O2 1_555 1_555
C3 C2 1_555 1_555
H1 C3 1_555 1_555
C4 C3 1_555 1_555
C5 O4 1_555 1_555
C6 C1 1_555 1_555
H2 C6 1_555 1_555
C7 Ru1 1_555 1_555
C8 Ru1 1_555 1_555
H3 C8 1_555 1_555
C9 Ru1 1_555 1_555
H4 C9 1_555 1_555
C10 Ru1 1_555 1_555
C11 Ru1 1_555 1_555
H5 C11 1_555 1_555
C12 Ru1 1_555 1_555
H6 C12 1_555 1_555
C13 C7 1_555 1_555
H7 C13 1_555 1_555
H8 C13 1_555 1_555
H9 C13 1_555 1_555
C14 C10 1_555 1_555
H10 C14 1_555 1_555
C15 C14 1_555 1_555
H11 C15 1_555 1_555
H12 C15 1_555 1_555
H13 C15 1_555 1_555
C16 C14 1_555 1_555
H14 C16 1_555 1_555
H15 C16 1_555 1_555
H16 C16 1_555 1_555
C17 Ru2 1_555 1_555
C18 Ru2 1_555 1_555
H17 C18 1_555 1_555
C19 Ru2 1_555 1_555
H18 C19 1_555 1_555
C20 Ru2 1_555 1_555
C21 Ru2 1_555 1_555
H19 C21 1_555 1_555
C22 Ru2 1_555 1_555
H20 C22 1_555 1_555
C23 C17 1_555 1_555
H21 C23 1_555 1_555
H22 C23 1_555 1_555
H23 C23 1_555 1_555
C24 C20 1_555 1_555
H24 C24 1_555 1_555
C25 C24 1_555 1_555
H25 C25 1_555 1_555
H26 C25 1_555 1_555
H27 C25 1_555 1_555
C26 C24 1_555 1_555
H28 C26 1_555 1_555
H29 C26 1_555 1_555
H30 C26 1_555 1_555
C27 N1 1_555 1_555
H31 C27 1_555 1_555
C28 C27 1_555 1_555
H32 C28 1_555 1_555
C29 N3 1_555 1_555
C30 C29 1_555 1_555
H33 C30 1_555 1_555
C31 N1 1_555 1_555
H34 C31 1_555 1_555
C32 H35 1_555 1_555
C33 C32 1_555 1_555
H36 C33 1_555 1_555
C34 C33 1_555 1_555
C35 C34 1_555 1_555
H37 C35 1_555 1_555
C36 N2 1_555 1_555
H38 C36 1_555 1_555
O5 C37 1_555 1_555
O6 Ru3 1_555 1_555
O7 C40 1_555 1_555
O8 Ru4 1_555 1_555
N5 Ru4 1_555 1_555
N6 C68 1_555 1_555
N7 N8 1_555 1_555
N8 C70 1_555 1_555
C37 C38 1_555 1_555
C38 O6 1_555 1_555
C39 C38 1_555 1_555
H39 C39 1_555 1_555
C40 C39 1_555 1_555
C41 O8 1_555 1_555
C42 C37 1_555 1_555
H40 C42 1_555 1_555
C43 Ru3 1_555 1_555
C44 Ru3 1_555 1_555
H41 C44 1_555 1_555
C45 Ru3 1_555 1_555
H42 C45 1_555 1_555
C46 Ru3 1_555 1_555
C47 Ru3 1_555 1_555
H43 C47 1_555 1_555
C48 Ru3 1_555 1_555
H44 C48 1_555 1_555
C49 C43 1_555 1_555
H45 C49 1_555 1_555
H46 C49 1_555 1_555
H47 C49 1_555 1_555
C50 C46 1_555 1_555
H48 C50 1_555 1_555
C51 C50 1_555 1_555
H49 C51 1_555 1_555
H50 C51 1_555 1_555
H51 C51 1_555 1_555
C52 C50 1_555 1_555
H52 C52 1_555 1_555
H53 C52 1_555 1_555
H54 C52 1_555 1_555
C53 Ru4 1_555 1_555
C54 Ru4 1_555 1_555
H55 C54 1_555 1_555
C55 Ru4 1_555 1_555
H56 C55 1_555 1_555
C56 Ru4 1_555 1_555
C57 Ru4 1_555 1_555
H57 C57 1_555 1_555
C58 Ru4 1_555 1_555
H58 C58 1_555 1_555
C59 C56 1_555 1_555
H59 C59 1_555 1_555
H60 C59 1_555 1_555
H61 C59 1_555 1_555
C60 C53 1_555 1_555
H62 C60 1_555 1_555
C61 C60 1_555 1_555
H63 C61 1_555 1_555
H64 C61 1_555 1_555
H65 C61 1_555 1_555
C62 C60 1_555 1_555
H66 C62 1_555 1_555
H67 C62 1_555 1_555
H68 C62 1_555 1_555
C63 N5 1_555 1_555
H69 C63 1_555 1_555
C64 C63 1_555 1_555
H70 C64 1_555 1_555
C65 N7 1_555 1_555
C66 C65 1_555 1_555
H71 C66 1_555 1_555
C67 N5 1_555 1_555
H72 C67 1_555 1_555
C68 H73 1_555 1_555
C69 C68 1_555 1_555
H74 C69 1_555 1_555
C70 C69 1_555 1_555
C71 C70 1_555 1_555
H75 C71 1_555 1_555
C72 N6 1_555 1_555
H76 C72 1_555 1_555
S1 O9 1_555 1_555
O10 S1 1_555 1_555
O11 S1 1_555 1_555
C73 S1 1_555 1_555
F1 C73 1_555 1_555
F2 C73 1_555 1_555
F3 C73 1_555 1_555
S2 O12 1_555 1_555
O13 S2 1_555 1_555
O14 S2 1_555 1_555
C74 S2 1_555 1_555
F4 C74 1_555 1_555
F5 C74 1_555 1_555
F6 C74 1_555 1_555
S3 O15 1_555 1_555
O16 S3 1_555 1_555
O17 S3 1_555 1_555
C75 S3 1_555 1_555
F7 C75 1_555 1_555
F8 C75 1_555 1_555
F9 C75 1_555 1_555
S4 O18 1_555 1_555
O19 S4 1_555 1_555
O20 S4 1_555 1_555
C76 S4 1_555 1_555
F10 C76 1_555 1_555
F11 C76 1_555 1_555
F12 C76 1_555 1_555
Ru1A N2 1_555 1_555
Ru2A O3A 1_555 1_555
Ru3A N6 1_555 1_555
Ru4A O7A 1_555 1_555
O1A Ru1A 1_555 1_555
O2A Ru1A 1_555 1_555
O3A C4A 1_555 1_555
O4A Ru2A 1_555 1_555
N1A Ru2A 1_555 1_555
N2A Ru1 1_555 1_555
N3A N4A 1_555 1_555
N4A C34A 1_555 1_555
C1A O1A 1_555 1_555
C2A O2A 1_555 1_555
C3A C2A 1_555 1_555
H1A C3A 1_555 1_555
C4A C3A 1_555 1_555
C5A O4A 1_555 1_555
C6A C1A 1_555 1_555
H2A C6A 1_555 1_555
C7A Ru1A 1_555 1_555
C8A Ru1A 1_555 1_555
H3A C8A 1_555 1_555
C9A Ru1A 1_555 1_555
H4A C9A 1_555 1_555
C10A Ru1A 1_555 1_555
C11A Ru1A 1_555 1_555
H5A C11A 1_555 1_555
C12A Ru1A 1_555 1_555
H6A C12A 1_555 1_555
C13A C7A 1_555 1_555
H7A C13A 1_555 1_555
H8A C13A 1_555 1_555
H9A C13A 1_555 1_555
C14A C10A 1_555 1_555
H10A C14A 1_555 1_555
C15A C14A 1_555 1_555
H11A C15A 1_555 1_555
H12A C15A 1_555 1_555
H13A C15A 1_555 1_555
C16A C14A 1_555 1_555
H14A C16A 1_555 1_555
H15A C16A 1_555 1_555
H16A C16A 1_555 1_555
C17A Ru2A 1_555 1_555
C18A Ru2A 1_555 1_555
H17A C18A 1_555 1_555
C19A Ru2A 1_555 1_555
H18A C19A 1_555 1_555
C20A Ru2A 1_555 1_555
C21A Ru2A 1_555 1_555
H19A C21A 1_555 1_555
C22A Ru2A 1_555 1_555
H20A C22A 1_555 1_555
C23A C17A 1_555 1_555
H21A C23A 1_555 1_555
H22A C23A 1_555 1_555
H23A C23A 1_555 1_555
C24A C20A 1_555 1_555
H24A C24A 1_555 1_555
C25A C24A 1_555 1_555
H25A C25A 1_555 1_555
H26A C25A 1_555 1_555
H27A C25A 1_555 1_555
C26A C24A 1_555 1_555
H28A C26A 1_555 1_555
H29A C26A 1_555 1_555
H30A C26A 1_555 1_555
C27A N1A 1_555 1_555
H31A C27A 1_555 1_555
C28A C27A 1_555 1_555
H32A C28A 1_555 1_555
C29A N3A 1_555 1_555
C30A C29A 1_555 1_555
H33A C30A 1_555 1_555
C31A N1A 1_555 1_555
H34A C31A 1_555 1_555
C32A N2A 1_555 1_555
H35A C32A 1_555 1_555
C33A C32A 1_555 1_555
H36A C33A 1_555 1_555
C34A C33A 1_555 1_555
C35A C34A 1_555 1_555
H37A C35A 1_555 1_555
C36A N2A 1_555 1_555
H38A C36A 1_555 1_555
O5A Ru3A 1_555 1_555
O6A Ru3A 1_555 1_555
O7A C40A 1_555 1_555
O8A Ru4A 1_555 1_555
N5A Ru4A 1_555 1_555
N6A Ru3 1_555 1_555
N7A N8A 1_555 1_555
N8A C70A 1_555 1_555
C37A O5A 1_555 1_555
C38A O6A 1_555 1_555
C39A C38A 1_555 1_555
H39A C39A 1_555 1_555
C40A C39A 1_555 1_555
C41A O8A 1_555 1_555
C42A C37A 1_555 1_555
H40A C42A 1_555 1_555
C43A Ru3A 1_555 1_555
C44A Ru3A 1_555 1_555
H41A C44A 1_555 1_555
C45A Ru3A 1_555 1_555
H42A C45A 1_555 1_555
C46A Ru3A 1_555 1_555
C47A Ru3A 1_555 1_555
H43A C47A 1_555 1_555
C48A Ru3A 1_555 1_555
H44A C48A 1_555 1_555
C49A C43A 1_555 1_555
H45A C49A 1_555 1_555
H46A C49A 1_555 1_555
H47A C49A 1_555 1_555
C50A C46A 1_555 1_555
H48A C50A 1_555 1_555
C51A C50A 1_555 1_555
H49A C51A 1_555 1_555
H50A C51A 1_555 1_555
H51A C51A 1_555 1_555
C52A C50A 1_555 1_555
H52A C52A 1_555 1_555
H53A C52A 1_555 1_555
H54A C52A 1_555 1_555
C53A Ru4A 1_555 1_555
C54A Ru4A 1_555 1_555
H55A C54A 1_555 1_555
C55A Ru4A 1_555 1_555
H56A C55A 1_555 1_555
C56A Ru4A 1_555 1_555
C57A Ru4A 1_555 1_555
H57A C57A 1_555 1_555
C58A Ru4A 1_555 1_555
H58A C58A 1_555 1_555
C59A C56A 1_555 1_555
H59A C59A 1_555 1_555
H60A C59A 1_555 1_555
H61A C59A 1_555 1_555
C60A C53A 1_555 1_555
H62A C60A 1_555 1_555
C61A C60A 1_555 1_555
H63A C61A 1_555 1_555
H64A C61A 1_555 1_555
H65A C61A 1_555 1_555
C62A C60A 1_555 1_555
H66A C62A 1_555 1_555
H67A C62A 1_555 1_555
H68A C62A 1_555 1_555
C63A N5A 1_555 1_555
H69A C63A 1_555 1_555
C64A C63A 1_555 1_555
H70A C64A 1_555 1_555
C65A N7A 1_555 1_555
C66A C65A 1_555 1_555
H71A C66A 1_555 1_555
C67A N5A 1_555 1_555
H72A C67A 1_555 1_555
C68A N6A 1_555 1_555
H73A C68A 1_555 1_555
C69A C68A 1_555 1_555
H74A C69A 1_555 1_555
C70A C69A 1_555 1_555
C71A C70A 1_555 1_555
H75A C71A 1_555 1_555
C72A N6A 1_555 1_555
H76A C72A 1_555 1_555
C4 C5 1_555 1_555
C5 C6 1_555 1_555
C7 C8 1_555 1_555
C7 C12 1_555 1_555
C8 C9 1_555 1_555
C9 C10 1_555 1_555
C10 C11 1_555 1_555
C11 C12 1_555 1_555
C17 C18 1_555 1_555
C17 C22 1_555 1_555
C18 C19 1_555 1_555
C19 C20 1_555 1_555
C20 C21 1_555 1_555
C21 C22 1_555 1_555
C28 C29 1_555 1_555
C30 C31 1_555 1_555
C35 C36 1_555 1_555
C40 C41 1_555 1_555
C41 C42 1_555 1_555
C43 C44 1_555 1_555
C43 C48 1_555 1_555
C44 C45 1_555 1_555
C45 C46 1_555 1_555
C46 C47 1_555 1_555
C47 C48 1_555 1_555
C53 C54 1_555 1_555
C53 C58 1_555 1_555
C54 C55 1_555 1_555
C55 C56 1_555 1_555
C56 C57 1_555 1_555
C57 C58 1_555 1_555
C64 C65 1_555 1_555
C66 C67 1_555 1_555
C71 C72 1_555 1_555
C1A C2A 1_555 1_555
C4A C5A 1_555 1_555
C5A C6A 1_555 1_555
C7A C8A 1_555 1_555
C7A C12A 1_555 1_555
C8A C9A 1_555 1_555
C9A C10A 1_555 1_555
C10A C11A 1_555 1_555
C11A C12A 1_555 1_555
C17A C18A 1_555 1_555
C17A C22A 1_555 1_555
C18A C19A 1_555 1_555
C19A C20A 1_555 1_555
C20A C21A 1_555 1_555
C21A C22A 1_555 1_555
C28A C29A 1_555 1_555
C30A C31A 1_555 1_555
C35A C36A 1_555 1_555
C37A C38A 1_555 1_555
C40A C41A 1_555 1_555
C41A C42A 1_555 1_555
C43A C44A 1_555 1_555
C43A C48A 1_555 1_555
C44A C45A 1_555 1_555
C45A C46A 1_555 1_555
C46A C47A 1_555 1_555
C47A C48A 1_555 1_555
C53A C54A 1_555 1_555
C53A C58A 1_555 1_555
C54A C55A 1_555 1_555
C55A C56A 1_555 1_555
C56A C57A 1_555 1_555
C57A C58A 1_555 1_555
C64A C65A 1_555 1_555
C66A C67A 1_555 1_555
C71A C72A 1_555 1_555

#END
