
#######################################################################
#
#                 Cambridge Crystallographic Data Centre
#                                CCDC 
#
#######################################################################
#
# If this CIF has been generated from an entry in the Cambridge 
# Structural Database, then it will include bibliographic, chemical, 
# crystal, experimental, refinement or atomic coordinate data resulting 
# from the CCDC's data processing and validation procedures.
#
#######################################################################

data_XEQQAN
_chemical_formula_moiety         
'C100 H92 N8 O8 Ru4 4+,4(C1 F3 O3 S1 1-),2(C1 H4 O1),2(C4 H10 O1)'
_chemical_name_systematic        
"bis(\m~2~-3,3'-(Hydrazine-1,2-diylidenedimethylylidene)dipyridine)-bis(\m~2~-5,6,11,12-tetraoxytetracene)-tetrakis(\h^6^-p-cymene)-tetra-ruthenium tetrakis(trifluoromethanesulfonate) diethyl ether methanol solvate"
_chemical_properties_biological  'anti-cancer activity'
_symmetry_cell_setting           monoclinic
_symmetry_space_group_name_H-M   'P 21/c'
_symmetry_Int_Tables_number      14
_space_group_name_Hall           '-P 2ybc'
loop_
_symmetry_equiv_pos_site_id
_symmetry_equiv_pos_as_xyz
1 x,y,z
2 -x,1/2+y,1/2-z
3 -x,-y,-z
4 x,1/2-y,1/2+z
_cell_length_a                   15.356(3)
_cell_length_b                   23.897(5)
_cell_length_c                   17.071(3)
_cell_angle_alpha                90
_cell_angle_beta                 108.78(3)
_cell_angle_gamma                90
_cell_volume                     5930.91
_exptl_crystal_colour            black
_exptl_crystal_description       plate
_cell_formula_units_Z            2
loop_
_atom_site_label
_atom_site_type_symbol
_atom_site_fract_x
_atom_site_fract_y
_atom_site_fract_z
Ru1 Ru 0.16148(4) 0.61656(2) 0.21949(4)
Ru2 Ru 0.73726(4) 0.59170(2) 0.41390(4)
O1 O 0.2593(3) 0.55766(18) 0.2219(3)
O2 O 0.2684(3) 0.66796(17) 0.2751(3)
O3 O 0.6406(4) 0.65173(17) 0.3989(3)
O4 O 0.6319(3) 0.54225(17) 0.3474(3)
N1 N 0.1888(4) 0.6434(2) 0.1110(3)
N2 N 0.2597(4) 0.3810(2) -0.2976(4)
N3 N 0.2233(5) 0.5275(3) -0.0570(4)
N4 N 0.2333(5) 0.4941(3) -0.1217(4)
C1 C 0.5451(5) 0.5520(3) 0.3191(4)
C2 C 0.4898(5) 0.5048(2) 0.2753(4)
C3 C 0.5329(5) 0.4546(3) 0.2656(5)
H1 H 0.5978 0.4513 0.2890
C4 C 0.4832(6) 0.4107(3) 0.2233(5)
H2 H 0.5133 0.3768 0.2180
C5 C 0.3896(6) 0.4153(3) 0.1883(5)
H3 H 0.3553 0.3847 0.1581
C6 C 0.3444(5) 0.4641(3) 0.1965(5)
H4 H 0.2796 0.4668 0.1719
C7 C 0.3945(5) 0.5091(3) 0.2408(4)
C8 C 0.3479(5) 0.5606(3) 0.2522(4)
C9 C 0.3993(5) 0.6073(3) 0.2918(4)
C10 C 0.3553(5) 0.6587(3) 0.3011(4)
C11 C 0.4108(5) 0.7061(3) 0.3422(4)
C12 C 0.3690(5) 0.7576(3) 0.3472(5)
H5 H 0.3043 0.7615 0.3231
C13 C 0.4207(6) 0.8023(3) 0.3865(5)
H6 H 0.3914 0.8367 0.3901
C14 C 0.5151(6) 0.7977(3) 0.4209(5)
H7 H 0.5503 0.8288 0.4487
C15 C 0.5583(6) 0.7482(3) 0.4150(4)
H8 H 0.6232 0.7452 0.4380
C16 C 0.5062(5) 0.7021(3) 0.3750(4)
C17 C 0.5528(5) 0.6493(3) 0.3667(4)
C18 C 0.5006(5) 0.6032(2) 0.3268(4)
C19 C 0.1956(5) 0.6068(3) 0.0554(4)
H9 H 0.1885 0.5682 0.0654
C20 C 0.2126(5) 0.6217(3) -0.0171(4)
C21 C 0.2216(6) 0.6768(3) -0.0314(5)
H10 H 0.2310 0.6885 -0.0813
C22 C 0.2170(6) 0.7160(3) 0.0269(5)
H11 H 0.2246 0.7547 0.0182
C23 C 0.2015(5) 0.6983(3) 0.0967(5)
H12 H 0.1993 0.7252 0.1370
C24 C 0.2536(6) 0.3258(3) -0.2822(5)
H13 H 0.2589 0.2993 -0.3220
C25 C 0.2400(7) 0.3069(3) -0.2114(6)
H14 H 0.2349 0.2680 -0.2029
C26 C 0.2340(7) 0.3441(3) -0.1535(5)
H15 H 0.2246 0.3313 -0.1041
C27 C 0.2415(6) 0.4008(3) -0.1668(5)
C28 C 0.2557(5) 0.4172(3) -0.2388(5)
H16 H 0.2631 0.4560 -0.2474
C29 C 0.2226(5) 0.5793(3) -0.0750(5)
H17 H 0.2287 0.5904 -0.1264
C30 C 0.2345(6) 0.4424(3) -0.1057(5)
H18 H 0.2308 0.4303 -0.0538
C31 C 0.0734(8) 0.7304(4) 0.2808(8)
H19 H 0.1025 0.7495 0.2449
H20 H 0.1113 0.7355 0.3388
H21 H 0.0123 0.7464 0.2722
C32 C 0.0644(6) 0.6678(3) 0.2599(6)
C33 C 0.1040(6) 0.6272(4) 0.3199(5)
H22 H 0.1461 0.6401 0.3747
C34 C 0.1041(6) 0.5701(4) 0.3008(6)
H23 H 0.1441 0.5437 0.3425
C35 C 0.0605(5) 0.5515(3) 0.2160(5)
C36 C 0.0174(5) 0.5918(3) 0.1577(5)
H24 H -0.0019 0.5815 0.0977
C37 C 0.0198(6) 0.6491(3) 0.1791(6)
H25 H 0.0022 0.6773 0.1335
C38 C 0.0658(7) 0.4906(3) 0.1955(7)
H26 H 0.1312 0.4786 0.2213
C39 C 0.0071(7) 0.4564(3) 0.2368(7)
H27 H -0.0569 0.4691 0.2157
H28 H 0.0308 0.4618 0.2969
H29 H 0.0102 0.4167 0.2240
C40 C 0.0397(8) 0.4783(4) 0.1070(7)
H30 H -0.0261 0.4856 0.0810
H31 H 0.0524 0.4388 0.0993
H32 H 0.0751 0.5020 0.0816
C41 C 0.9301(6) 0.5384(4) 0.3930(6)
H33 H 0.9318 0.5681 0.3540
H34 H 0.8994 0.5054 0.3624
H35 H 0.9931 0.5286 0.4265
C42 C 0.8783(5) 0.5586(3) 0.4485(5)
C43 C 0.8808(6) 0.6152(3) 0.4729(5)
H36 H 0.9089 0.6433 0.4448
C44 C 0.8288(6) 0.6343(3) 0.5211(5)
H37 H 0.8216 0.6755 0.5271
C45 C 0.7734(6) 0.5977(4) 0.5477(4)
C46 C 0.7692(6) 0.5416(3) 0.5253(5)
H38 H 0.7208 0.5169 0.5345
C47 C 0.8225(5) 0.5218(3) 0.4751(5)
H39 H 0.8096 0.4837 0.4496
C48 C 0.7118(8) 0.6247(5) 0.5951(6)
H40 H 0.6867 0.6608 0.5672
C49 C 0.6320(9) 0.5869(6) 0.5918(7)
H41 H 0.6552 0.5521 0.6214
H42 H 0.5973 0.5784 0.5340
H43 H 0.5916 0.6057 0.6178
C50 C 0.7706(9) 0.6376(4) 0.6823(7)
H44 H 0.7341 0.6579 0.7107
H45 H 0.8231 0.6606 0.6814
H46 H 0.7930 0.6025 0.7118
Ru1B Ru 0.83852(4) 0.38344(2) -0.21949(4)
Ru2B Ru 0.26274(4) 0.40830(2) -0.41390(4)
O1B O 0.7407(3) 0.44234(18) -0.2219(3)
O2B O 0.7316(3) 0.33204(17) -0.2751(3)
O3B O 0.3594(4) 0.34827(17) -0.3989(3)
O4B O 0.3681(3) 0.45775(17) -0.3474(3)
N1B N 0.8112(4) 0.3566(2) -0.1110(3)
N2B N 0.7403(4) 0.6190(2) 0.2976(4)
N3B N 0.7767(5) 0.4725(3) 0.0570(4)
N4B N 0.7667(5) 0.5059(3) 0.1217(4)
C1B C 0.4549(5) 0.4480(3) -0.3191(4)
C2B C 0.5102(5) 0.4952(2) -0.2753(4)
C3B C 0.4671(5) 0.5454(3) -0.2656(5)
H1B H 0.4022 0.5487 -0.2890
C4B C 0.5168(6) 0.5893(3) -0.2233(5)
H2B H 0.4867 0.6232 -0.2180
C5B C 0.6104(6) 0.5847(3) -0.1883(5)
H3B H 0.6447 0.6153 -0.1581
C6B C 0.6556(5) 0.5359(3) -0.1965(5)
H4B H 0.7204 0.5332 -0.1719
C7B C 0.6055(5) 0.4909(3) -0.2408(4)
C8B C 0.6521(5) 0.4394(3) -0.2522(4)
C9B C 0.6007(5) 0.3927(3) -0.2918(4)
C10B C 0.6447(5) 0.3413(3) -0.3011(4)
C11B C 0.5892(5) 0.2939(3) -0.3422(4)
C12B C 0.6310(5) 0.2424(3) -0.3472(5)
H5B H 0.6957 0.2385 -0.3231
C13B C 0.5793(6) 0.1977(3) -0.3865(5)
H6B H 0.6086 0.1633 -0.3901
C14B C 0.4849(6) 0.2023(3) -0.4209(5)
H7B H 0.4497 0.1712 -0.4487
C15B C 0.4417(6) 0.2518(3) -0.4150(4)
H8B H 0.3768 0.2548 -0.4380
C16B C 0.4938(5) 0.2979(3) -0.3750(4)
C17B C 0.4472(5) 0.3507(3) -0.3667(4)
C18B C 0.4994(5) 0.3968(2) -0.3268(4)
C19B C 0.8044(5) 0.3932(3) -0.0554(4)
H9B H 0.8115 0.4318 -0.0654
C20B C 0.7874(5) 0.3783(3) 0.0171(4)
C21B C 0.7784(6) 0.3232(3) 0.0314(5)
H10B H 0.7690 0.3115 0.0813
C22B C 0.7830(6) 0.2840(3) -0.0269(5)
H11B H 0.7754 0.2453 -0.0182
C23B C 0.7985(5) 0.3017(3) -0.0967(5)
H12B H 0.8007 0.2748 -0.1370
C24B C 0.7464(6) 0.6742(3) 0.2822(5)
H13B H 0.7411 0.7007 0.3220
C25B C 0.7600(7) 0.6931(3) 0.2114(6)
H14B H 0.7651 0.7320 0.2029
C26B C 0.7660(7) 0.6559(3) 0.1535(5)
H15B H 0.7754 0.6687 0.1041
C27B C 0.7585(6) 0.5992(3) 0.1668(5)
C28B C 0.7443(5) 0.5828(3) 0.2388(5)
H16B H 0.7369 0.5440 0.2474
C29B C 0.7774(5) 0.4207(3) 0.0750(5)
H17B H 0.7713 0.4096 0.1264
C30B C 0.7655(6) 0.5576(3) 0.1057(5)
H18B H 0.7692 0.5697 0.0538
C31B C 0.9266(8) 0.2696(4) -0.2808(8)
H19B H 0.8975 0.2505 -0.2449
H20B H 0.8887 0.2645 -0.3388
H21B H 0.9877 0.2536 -0.2722
C32B C 0.9356(6) 0.3322(3) -0.2599(6)
C33B C 0.8960(6) 0.3728(4) -0.3199(5)
H22B H 0.8539 0.3599 -0.3747
C34B C 0.8959(6) 0.4299(4) -0.3008(6)
H23B H 0.8559 0.4563 -0.3425
C35B C 0.9395(5) 0.4485(3) -0.2160(5)
C36B C 0.9826(5) 0.4082(3) -0.1577(5)
H24B H 1.0019 0.4185 -0.0977
C37B C 0.9802(6) 0.3509(3) -0.1791(6)
H25B H 0.9978 0.3227 -0.1335
C38B C 0.9342(7) 0.5094(3) -0.1955(7)
H26B H 0.8688 0.5214 -0.2213
C39B C 0.9929(7) 0.5436(3) -0.2368(7)
H27B H 1.0569 0.5309 -0.2157
H28B H 0.9692 0.5382 -0.2969
H29B H 0.9898 0.5833 -0.2240
C40B C 0.9603(8) 0.5217(4) -0.1070(7)
H30B H 1.0261 0.5144 -0.0810
H31B H 0.9476 0.5612 -0.0993
H32B H 0.9249 0.4980 -0.0816
C41B C 0.0699(6) 0.4616(4) -0.3930(6)
H33B H 0.0682 0.4319 -0.3540
H34B H 0.1006 0.4946 -0.3624
H35B H 0.0069 0.4714 -0.4265
C42B C 0.1217(5) 0.4414(3) -0.4485(5)
C43B C 0.1192(6) 0.3848(3) -0.4729(5)
H36B H 0.0911 0.3567 -0.4448
C44B C 0.1712(6) 0.3657(3) -0.5211(5)
H37B H 0.1784 0.3245 -0.5271
C45B C 0.2266(6) 0.4023(4) -0.5477(4)
C46B C 0.2308(6) 0.4584(3) -0.5253(5)
H38B H 0.2792 0.4831 -0.5345
C47B C 0.1775(5) 0.4782(3) -0.4751(5)
H39B H 0.1904 0.5163 -0.4496
C48B C 0.2882(8) 0.3753(5) -0.5951(6)
H40B H 0.3133 0.3392 -0.5672
C49B C 0.3680(9) 0.4131(6) -0.5918(7)
H41B H 0.3448 0.4479 -0.6214
H42B H 0.4027 0.4216 -0.5340
H43B H 0.4084 0.3943 -0.6178
C50B C 0.2294(9) 0.3624(4) -0.6823(7)
H44B H 0.2659 0.3421 -0.7107
H45B H 0.1769 0.3394 -0.6814
H46B H 0.2070 0.3975 -0.7118
S1 S 0.82892(17) 0.69019(8) 0.94715(15)
F1 F 1.0042(5) 0.6867(4) 0.9794(5)
F2 F 0.9389(4) 0.7569(2) 0.9062(4)
F3 F 0.9320(5) 0.6749(2) 0.8546(4)
O5 O 0.7562(5) 0.7051(3) 0.8728(5)
O6 O 0.8355(5) 0.6316(2) 0.9670(4)
O7 O 0.8404(6) 0.7259(3) 1.0154(5)
C51 C 0.9299(7) 0.7027(4) 0.9210(7)
S2 S 0.78352(17) 0.13343(9) 0.81896(15)
F4 F 0.9004(5) 0.1213(3) 0.9664(4)
F5 F 0.9253(4) 0.1923(2) 0.9037(4)
F6 F 0.9587(4) 0.1132(3) 0.8691(4)
O8 O 0.7940(5) 0.1556(2) 0.7447(4)
O9 O 0.7687(5) 0.0741(2) 0.8168(5)
O10 O 0.7284(5) 0.1666(3) 0.8547(5)
C52 C 0.8954(7) 0.1404(3) 0.8936(6)
O11 O 0.4949(9) 0.1593(6) 0.3924(9)
C53 C 0.5262(11) 0.1070(9) 0.4019(9)
H47 H 0.5935 0.1103 0.4284
H48 H 0.5169 0.0931 0.3451
C54 C 0.4994(14) 0.0618(8) 0.4435(14)
H49 H 0.4338 0.0650 0.4369
H50 H 0.5353 0.0629 0.5025
H51 H 0.5107 0.0262 0.4198
C55 C 0.5221(11) 0.2067(10) 0.3632(9)
H52 H 0.5270 0.1959 0.3088
H53 H 0.5861 0.2128 0.3997
C56 C 0.4830(19) 0.2604(8) 0.3505(18)
H54 H 0.4181 0.2577 0.3165
H55 H 0.5159 0.2838 0.3221
H56 H 0.4876 0.2773 0.4040
O12 O 0.7175(10) 0.1021(5) 1.0105(8)
C57 C 0.6281(14) 0.0864(7) 1.0029(11)
loop_
_geom_bond_atom_site_label_1
_geom_bond_atom_site_label_2
_geom_bond_site_symmetry_1
_geom_bond_site_symmetry_2
Ru1 O1 1_555 1_555
Ru2 O3 1_555 1_555
O1 C8 1_555 1_555
O2 Ru1 1_555 1_555
O3 C17 1_555 1_555
O4 Ru2 1_555 1_555
N1 Ru1 1_555 1_555
N2 C24 1_555 1_555
N3 N4 1_555 1_555
N4 C30 1_555 1_555
C1 O4 1_555 1_555
C2 C1 1_555 1_555
C3 C2 1_555 1_555
H1 C3 1_555 1_555
C4 C3 1_555 1_555
H2 C4 1_555 1_555
C5 C4 1_555 1_555
H3 C5 1_555 1_555
C6 C5 1_555 1_555
H4 C6 1_555 1_555
C7 C2 1_555 1_555
C8 C7 1_555 1_555
C9 C8 1_555 1_555
C10 O2 1_555 1_555
C11 C10 1_555 1_555
C12 C11 1_555 1_555
H5 C12 1_555 1_555
C13 C12 1_555 1_555
H6 C13 1_555 1_555
C14 C13 1_555 1_555
H7 C14 1_555 1_555
C15 C14 1_555 1_555
H8 C15 1_555 1_555
C16 C11 1_555 1_555
C17 C16 1_555 1_555
C18 C1 1_555 1_555
C19 N1 1_555 1_555
H9 C19 1_555 1_555
C20 C19 1_555 1_555
C21 C20 1_555 1_555
H10 C21 1_555 1_555
C22 C21 1_555 1_555
H11 C22 1_555 1_555
C23 N1 1_555 1_555
H12 C23 1_555 1_555
C24 H13 1_555 1_555
C25 C24 1_555 1_555
H14 C25 1_555 1_555
C26 C25 1_555 1_555
H15 C26 1_555 1_555
C27 C26 1_555 1_555
C28 N2 1_555 1_555
H16 C28 1_555 1_555
C29 N3 1_555 1_555
H17 C29 1_555 1_555
C30 C27 1_555 1_555
H18 C30 1_555 1_555
C31 H19 1_555 1_555
H20 C31 1_555 1_555
H21 C31 1_555 1_555
C32 Ru1 1_555 1_555
C33 Ru1 1_555 1_555
H22 C33 1_555 1_555
C34 Ru1 1_555 1_555
H23 C34 1_555 1_555
C35 Ru1 1_555 1_555
C36 Ru1 1_555 1_555
H24 C36 1_555 1_555
C37 Ru1 1_555 1_555
H25 C37 1_555 1_555
C38 C35 1_555 1_555
H26 C38 1_555 1_555
C39 C38 1_555 1_555
H27 C39 1_555 1_555
H28 C39 1_555 1_555
H29 C39 1_555 1_555
C40 C38 1_555 1_555
H30 C40 1_555 1_555
H31 C40 1_555 1_555
H32 C40 1_555 1_555
C41 H33 1_555 1_555
H34 C41 1_555 1_555
H35 C41 1_555 1_555
C42 Ru2 1_555 1_555
C43 Ru2 1_555 1_555
H36 C43 1_555 1_555
C44 Ru2 1_555 1_555
H37 C44 1_555 1_555
C45 Ru2 1_555 1_555
C46 Ru2 1_555 1_555
H38 C46 1_555 1_555
C47 Ru2 1_555 1_555
H39 C47 1_555 1_555
C48 C45 1_555 1_555
H40 C48 1_555 1_555
C49 C48 1_555 1_555
H41 C49 1_555 1_555
H42 C49 1_555 1_555
H43 C49 1_555 1_555
C50 C48 1_555 1_555
H44 C50 1_555 1_555
H45 C50 1_555 1_555
H46 C50 1_555 1_555
S1 O5 1_555 1_555
S2 O8 1_555 1_555
F1 C51 1_555 1_555
F2 C51 1_555 1_555
F3 C51 1_555 1_555
F4 C52 1_555 1_555
F5 C52 1_555 1_555
F6 C52 1_555 1_555
O6 S1 1_555 1_555
O7 S1 1_555 1_555
O9 S2 1_555 1_555
O10 S2 1_555 1_555
C51 S1 1_555 1_555
C52 S2 1_555 1_555
O11 C53 1_555 1_555
C53 H47 1_555 1_555
H48 C53 1_555 1_555
C54 C53 1_555 1_555
H49 C54 1_555 1_555
H50 C54 1_555 1_555
H51 C54 1_555 1_555
C55 O11 1_555 1_555
H52 C55 1_555 1_555
H53 C55 1_555 1_555
C56 C55 1_555 1_555
H54 C56 1_555 1_555
H55 C56 1_555 1_555
H56 C56 1_555 1_555
O12 C57 1_555 1_555
Ru1B O1B 1_555 1_555
Ru2B N2 1_555 1_555
O1B C8B 1_555 1_555
O2B Ru1B 1_555 1_555
O3B Ru2B 1_555 1_555
O4B Ru2B 1_555 1_555
N1B Ru1B 1_555 1_555
N2B Ru2 1_555 1_555
N3B N4B 1_555 1_555
N4B C30B 1_555 1_555
C1B O4B 1_555 1_555
C2B C1B 1_555 1_555
C3B C2B 1_555 1_555
H1B C3B 1_555 1_555
C4B C3B 1_555 1_555
H2B C4B 1_555 1_555
C5B C4B 1_555 1_555
H3B C5B 1_555 1_555
C6B C5B 1_555 1_555
H4B C6B 1_555 1_555
C7B C2B 1_555 1_555
C8B C7B 1_555 1_555
C9B C8B 1_555 1_555
C10B O2B 1_555 1_555
C11B C10B 1_555 1_555
C12B C11B 1_555 1_555
H5B C12B 1_555 1_555
C13B C12B 1_555 1_555
H6B C13B 1_555 1_555
C14B C13B 1_555 1_555
H7B C14B 1_555 1_555
C15B C14B 1_555 1_555
H8B C15B 1_555 1_555
C16B C11B 1_555 1_555
C17B O3B 1_555 1_555
C18B C1B 1_555 1_555
C19B N1B 1_555 1_555
H9B C19B 1_555 1_555
C20B C19B 1_555 1_555
C21B C20B 1_555 1_555
H10B C21B 1_555 1_555
C22B C21B 1_555 1_555
H11B C22B 1_555 1_555
C23B N1B 1_555 1_555
H12B C23B 1_555 1_555
C24B N2B 1_555 1_555
H13B C24B 1_555 1_555
C25B C24B 1_555 1_555
H14B C25B 1_555 1_555
C26B C25B 1_555 1_555
H15B C26B 1_555 1_555
C27B C26B 1_555 1_555
C28B N2B 1_555 1_555
H16B C28B 1_555 1_555
C29B N3B 1_555 1_555
H17B C29B 1_555 1_555
C30B C27B 1_555 1_555
H18B C30B 1_555 1_555
C31B H19B 1_555 1_555
H20B C31B 1_555 1_555
H21B C31B 1_555 1_555
C32B Ru1B 1_555 1_555
C33B Ru1B 1_555 1_555
H22B C33B 1_555 1_555
C34B Ru1B 1_555 1_555
H23B C34B 1_555 1_555
C35B Ru1B 1_555 1_555
C36B Ru1B 1_555 1_555
H24B C36B 1_555 1_555
C37B Ru1B 1_555 1_555
H25B C37B 1_555 1_555
C38B C35B 1_555 1_555
H26B C38B 1_555 1_555
C39B C38B 1_555 1_555
H27B C39B 1_555 1_555
H28B C39B 1_555 1_555
H29B C39B 1_555 1_555
C40B C38B 1_555 1_555
H30B C40B 1_555 1_555
H31B C40B 1_555 1_555
H32B C40B 1_555 1_555
C41B H33B 1_555 1_555
H34B C41B 1_555 1_555
H35B C41B 1_555 1_555
C42B Ru2B 1_555 1_555
C43B Ru2B 1_555 1_555
H36B C43B 1_555 1_555
C44B Ru2B 1_555 1_555
H37B C44B 1_555 1_555
C45B Ru2B 1_555 1_555
C46B Ru2B 1_555 1_555
H38B C46B 1_555 1_555
C47B Ru2B 1_555 1_555
H39B C47B 1_555 1_555
C48B C45B 1_555 1_555
H40B C48B 1_555 1_555
C49B C48B 1_555 1_555
H41B C49B 1_555 1_555
H42B C49B 1_555 1_555
H43B C49B 1_555 1_555
C50B C48B 1_555 1_555
H44B C50B 1_555 1_555
H45B C50B 1_555 1_555
H46B C50B 1_555 1_555
C6 C7 1_555 1_555
C9 C10 1_555 1_555
C9 C18 1_555 1_555
C15 C16 1_555 1_555
C17 C18 1_555 1_555
C20 C29 1_555 1_555
C22 C23 1_555 1_555
C27 C28 1_555 1_555
C31 C32 1_555 1_555
C32 C33 1_555 1_555
C32 C37 1_555 1_555
C33 C34 1_555 1_555
C34 C35 1_555 1_555
C35 C36 1_555 1_555
C36 C37 1_555 1_555
C41 C42 1_555 1_555
C42 C43 1_555 1_555
C42 C47 1_555 1_555
C43 C44 1_555 1_555
C44 C45 1_555 1_555
C45 C46 1_555 1_555
C46 C47 1_555 1_555
C6B C7B 1_555 1_555
C9B C10B 1_555 1_555
C9B C18B 1_555 1_555
C15B C16B 1_555 1_555
C16B C17B 1_555 1_555
C17B C18B 1_555 1_555
C20B C29B 1_555 1_555
C22B C23B 1_555 1_555
C27B C28B 1_555 1_555
C31B C32B 1_555 1_555
C32B C33B 1_555 1_555
C32B C37B 1_555 1_555
C33B C34B 1_555 1_555
C34B C35B 1_555 1_555
C35B C36B 1_555 1_555
C36B C37B 1_555 1_555
C41B C42B 1_555 1_555
C42B C43B 1_555 1_555
C42B C47B 1_555 1_555
C43B C44B 1_555 1_555
C44B C45B 1_555 1_555
C45B C46B 1_555 1_555
C46B C47B 1_555 1_555

#END
