
#######################################################################
#
#                 Cambridge Crystallographic Data Centre
#                                CCDC 
#
#######################################################################
#
# If this CIF has been generated from an entry in the Cambridge 
# Structural Database, then it will include bibliographic, chemical, 
# crystal, experimental, refinement or atomic coordinate data resulting 
# from the CCDC's data processing and validation procedures.
#
#######################################################################

data_XEVREX
_chemical_formula_moiety         
'C120 H156 N30 Pd6 12+,C36 H45 Ag2 Au9 N18 2+,14(N1 O3 1-),x(H2 O1)'
_chemical_name_systematic        
"bis(\m~3~-2,4,6-tris(Pyridin-4-yl)-1,3,5-triazine)-tris(\m~2~-4,4'-(1,4-phenylene)dipyridine)-hexakis(N,N,N',N'-tetramethylethane-1,2-diamine)-hexa-palladium(ii) nonakis(\m~2~-1-methyl-1H-imidazol-2-yl)-nona-gold(i)-di-silver(i) clathrate tetradecanitrate hydrate"
_symmetry_cell_setting           triclinic
_symmetry_space_group_name_H-M   'P -1'
_symmetry_Int_Tables_number      2
_space_group_name_Hall           '-P 1'
loop_
_symmetry_equiv_pos_site_id
_symmetry_equiv_pos_as_xyz
1 x,y,z
2 -x,-y,-z
_cell_length_a                   19.4231(18)
_cell_length_b                   26.329(2)
_cell_length_c                   26.344(2)
_cell_angle_alpha                72.8860(10)
_cell_angle_beta                 77.3130(10)
_cell_angle_gamma                77.2690(10)
_cell_volume                     12384.7
_exptl_crystal_colour            'pale yellow'
_exptl_crystal_description       block
_cell_formula_units_Z            2
loop_
_atom_site_label
_atom_site_type_symbol
_atom_site_fract_x
_atom_site_fract_y
_atom_site_fract_z
Pd1 Pd -0.23900(4) 0.23543(3) 0.53786(3)
Pd2 Pd 0.34879(4) 0.40748(4) 0.54385(4)
Pd3 Pd -0.03674(6) 0.65533(4) 0.17466(5)
Pd4 Pd 0.15125(4) -0.04392(4) 0.09265(4)
Pd5 Pd 0.73912(4) -0.03801(3) 0.26483(3)
Pd6 Pd 0.53681(6) 0.32489(5) -0.15525(4)
N19 N -0.2023(4) 0.1902(3) 0.4836(3)
C37 C -0.2199(6) 0.2073(5) 0.4368(5)
H46 H -0.2555 0.2384 0.4293
C38 C -0.1874(6) 0.1807(5) 0.3961(5)
H47 H -0.2030 0.1932 0.3621
C39 C -0.1338(5) 0.1374(4) 0.4046(4)
C40 C -0.1131(6) 0.1196(5) 0.4554(5)
H48 H -0.0766 0.0894 0.4637
C41 C -0.1482(5) 0.1482(4) 0.4935(4)
H49 H -0.1335 0.1376 0.5277
C42 C -0.0958(6) 0.1108(5) 0.3618(5)
C43 C -0.1200(7) 0.1207(6) 0.3137(6)
H50 H -0.1622 0.1463 0.3075
C44 C -0.0857(7) 0.0953(6) 0.2748(6)
H51 H -0.1067 0.1011 0.2438
C45 C -0.0214(6) 0.0614(4) 0.2794(5)
C46 C -0.0016(11) 0.0453(6) 0.3264(6)
H52 H 0.0393 0.0182 0.3324
C47 C -0.0401(10) 0.0679(6) 0.3680(6)
H53 H -0.0273 0.0528 0.4027
C48 C 0.0199(5) 0.0378(5) 0.2335(5)
C49 C 0.0136(6) 0.0639(5) 0.1809(5)
H54 H -0.0169 0.0976 0.1716
C50 C 0.0544(6) 0.0387(5) 0.1416(5)
H55 H 0.0537 0.0573 0.1048
N20 N 0.0939(4) -0.0101(4) 0.1530(4)
C51 C 0.0973(7) -0.0352(5) 0.2024(6)
H56 H 0.1256 -0.0701 0.2101
C52 C 0.0606(7) -0.0131(5) 0.2459(5)
H57 H 0.0639 -0.0324 0.2822
N21 N 0.4057(4) 0.3472(3) 0.5103(4)
C53 C 0.4023(6) 0.2980(5) 0.5357(5)
H58 H 0.3744 0.2904 0.5707
C54 C 0.4381(7) 0.2547(5) 0.5137(5)
H59 H 0.4337 0.2186 0.5331
C55 C 0.4807(5) 0.2661(4) 0.4625(4)
C56 C 0.4853(6) 0.3187(5) 0.4366(5)
H60 H 0.5144 0.3277 0.4022
C57 C 0.4465(6) 0.3593(4) 0.4613(5)
H61 H 0.4491 0.3959 0.4432
C58 C 0.5229(6) 0.2201(5) 0.4389(4)
C59 C 0.5022(9) 0.1742(6) 0.4550(5)
H62 H 0.4611 0.1684 0.4818
C60 C 0.5416(10) 0.1326(6) 0.4320(6)
H63 H 0.5290 0.0977 0.4470
C61 C 0.5959(6) 0.1388(5) 0.3902(4)
C62 C 0.6204(7) 0.1849(6) 0.3817(7)
H64 H 0.6653 0.1890 0.3591
C63 C 0.5842(8) 0.2265(6) 0.4039(7)
H65 H 0.6022 0.2593 0.3945
C64 C 0.6337(6) 0.0950(4) 0.3632(5)
C65 C 0.6139(6) 0.0448(5) 0.3794(4)
H66 H 0.5766 0.0366 0.4091
C66 C 0.6486(5) 0.0069(4) 0.3522(4)
H67 H 0.6341 -0.0275 0.3638
N22 N 0.7023(5) 0.0156(3) 0.3097(3)
C67 C 0.7193(6) 0.0645(5) 0.2930(5)
H68 H 0.7546 0.0725 0.2618
C68 C 0.6882(6) 0.1040(5) 0.3188(5)
H69 H 0.7038 0.1379 0.3063
N23 N 0.0418(6) 0.6196(4) 0.1239(4)
C69 C 0.1072(8) 0.6215(5) 0.1200(5)
H70 H 0.1210 0.6401 0.1410
C70 C 0.1572(8) 0.5977(7) 0.0866(7)
H71 H 0.2045 0.6051 0.0806
C71 C 0.1452(8) 0.5639(6) 0.0608(6)
C72 C 0.0673(9) 0.5628(6) 0.0692(6)
H72 H 0.0521 0.5417 0.0513
C73 C 0.0197(8) 0.5877(6) 0.0985(6)
H73 H -0.0293 0.5850 0.1030
C74 C 0.1990(8) 0.5328(5) 0.0258(5)
C75 C 0.3017(8) 0.4740(5) -0.0330(5)
C76 C 0.2676(11) 0.5085(11) 0.0426(11)
H74 H 0.2768 0.5128 0.0750
C77 C 0.3193(13) 0.4798(13) 0.0132(10)
H75 H 0.3649 0.4646 0.0235
C78 C 0.2413(12) 0.4963(11) -0.0522(10)
H76 H 0.2314 0.4891 -0.0829
C79 C 0.1946(12) 0.5301(12) -0.0254(8)
H77 H 0.1566 0.5531 -0.0426
C80 C 0.3565(8) 0.4389(6) -0.0642(6)
C81 C 0.4319(9) 0.4320(6) -0.0638(6)
H78 H 0.4471 0.4518 -0.0446
C82 C 0.4792(8) 0.4015(6) -0.0871(6)
H79 H 0.5278 0.3957 -0.0828
N24 N 0.4580(6) 0.3763(4) -0.1195(4)
C83 C 0.3922(8) 0.3811(5) -0.1209(5)
H80 H 0.3782 0.3613 -0.1407
C84 C 0.3403(8) 0.4136(6) -0.0952(6)
H81 H 0.2920 0.4179 -0.0997
N25 N -0.3236(6) 0.1960(4) 0.5732(4)
C85 C -0.3683(11) 0.2264(9) 0.6075(9)
H82 H -0.4049 0.2513 0.5870
H83 H -0.3940 0.2011 0.6375
C86 C -0.3407(9) 0.2555(7) 0.6291(7)
H84 H -0.3256 0.2320 0.6631
H85 H -0.3790 0.2845 0.6385
N26 N -0.2775(6) 0.2810(4) 0.5945(5)
C87 C -0.3632(8) 0.1883(6) 0.5365(6)
H86 H -0.4021 0.1686 0.5570
H87 H -0.3311 0.1676 0.5127
H88 H -0.3832 0.2234 0.5150
C88 C -0.3008(8) 0.1402(6) 0.6035(6)
H89 H -0.3429 0.1227 0.6196
H90 H -0.2760 0.1405 0.6320
H91 H -0.2683 0.1204 0.5790
C89 C -0.3067(10) 0.3371(6) 0.5667(7)
H92 H -0.3249 0.3584 0.5932
H93 H -0.3457 0.3365 0.5489
H94 H -0.2686 0.3532 0.5398
C90 C -0.2222(8) 0.2809(7) 0.6264(6)
H95 H -0.2431 0.3029 0.6519
H96 H -0.1814 0.2957 0.6019
H97 H -0.2059 0.2438 0.6462
N27 N 0.4318(5) 0.4120(5) 0.5771(4)
C91 C 0.4204(8) 0.4617(8) 0.5947(8)
H98 H 0.4403 0.4907 0.5653
H99 H 0.4437 0.4554 0.6263
C92 C 0.3415(7) 0.4767(7) 0.6089(6)
H100 H 0.3284 0.4591 0.6476
H101 H 0.3314 0.5160 0.6053
N28 N 0.2922(6) 0.4656(4) 0.5812(4)
C93 C 0.4569(10) 0.3642(8) 0.6154(8)
H102 H 0.4963 0.3703 0.6293
H103 H 0.4738 0.3346 0.5979
H104 H 0.4177 0.3549 0.6452
C94 C 0.5018(9) 0.4204(7) 0.5343(7)
H105 H 0.5401 0.4225 0.5521
H106 H 0.4923 0.4540 0.5064
H107 H 0.5166 0.3900 0.5178
C95 C 0.2302(10) 0.4468(9) 0.6224(8)
H108 H 0.2041 0.4762 0.6385
H109 H 0.2478 0.4160 0.6505
H110 H 0.1981 0.4360 0.6050
C96 C 0.2644(12) 0.5173(7) 0.5459(8)
H111 H 0.2381 0.5419 0.5679
H112 H 0.2323 0.5113 0.5251
H113 H 0.3044 0.5331 0.5213
N29 N -0.0571(8) 0.7273(6) 0.1228(6)
C97 C -0.1155(10) 0.7623(8) 0.1499(7)
H114 H -0.0971 0.7950 0.1482
H115 H -0.1548 0.7740 0.1285
C98 C -0.1447(10) 0.7413(6) 0.2030(7)
H116 H -0.1956 0.7403 0.2035
H117 H -0.1444 0.7676 0.2231
N30 N -0.1151(8) 0.6896(6) 0.2332(6)
C99 C 0.0070(10) 0.7536(8) 0.0944(8)
H118 H 0.0470 0.7263 0.0847
H119 H 0.0205 0.7707 0.1183
H120 H -0.0047 0.7809 0.0617
C100 C -0.0820(12) 0.7250(10) 0.0752(8)
H121 H -0.1258 0.7091 0.0863
H122 H -0.0450 0.7028 0.0554
H123 H -0.0919 0.7615 0.0519
C101 C -0.1709(11) 0.6552(9) 0.2517(10)
H124 H -0.1717 0.6382 0.2234
H125 H -0.2176 0.6773 0.2595
H126 H -0.1605 0.6273 0.2844
C102 C -0.0851(14) 0.6926(11) 0.2784(10)
H127 H -0.0540 0.7201 0.2657
H128 H -0.0571 0.6575 0.2932
H129 H -0.1240 0.7022 0.3064
N31 N 0.0693(5) -0.0787(4) 0.0885(4)
C103 C 0.0796(8) -0.0923(8) 0.0382(8)
H130 H 0.0600 -0.0613 0.0105
H131 H 0.0555 -0.1231 0.0423
C104 C 0.1587(7) -0.1070(6) 0.0227(6)
H132 H 0.1715 -0.1460 0.0395
H133 H 0.1685 -0.1024 -0.0167
N32 N 0.2071(6) -0.0809(4) 0.0344(4)
C105 C 0.0425(10) -0.1149(8) 0.1351(8)
H134 H 0.0033 -0.1285 0.1282
H135 H 0.0248 -0.0967 0.1641
H136 H 0.0807 -0.1451 0.1457
C106 C -0.0040(10) -0.0343(7) 0.0797(8)
H137 H -0.0421 -0.0524 0.0778
H138 H 0.0052 -0.0065 0.0461
H139 H -0.0189 -0.0177 0.1100
C107 C 0.2654(10) -0.1257(7) 0.0552(8)
H140 H 0.2915 -0.1422 0.0261
H141 H 0.2440 -0.1530 0.0849
H142 H 0.2985 -0.1110 0.0680
C108 C 0.2316(12) -0.0453(9) -0.0172(9)
H143 H 0.2578 -0.0668 -0.0423
H144 H 0.2632 -0.0235 -0.0122
H145 H 0.1902 -0.0215 -0.0320
N33 N 0.8235(6) -0.0734(4) 0.3041(4)
C109 C 0.8717(10) -0.1054(8) 0.2723(8)
H146 H 0.9026 -0.1334 0.2956
H147 H 0.9030 -0.0823 0.2446
C110 C 0.8380(9) -0.1313(7) 0.2460(6)
H148 H 0.8201 -0.1628 0.2726
H149 H 0.8741 -0.1447 0.2179
N34 N 0.7763(6) -0.0943(5) 0.2202(5)
C111 C 0.8650(8) -0.0360(6) 0.3120(6)
H150 H 0.9041 -0.0569 0.3314
H151 H 0.8334 -0.0122 0.3329
H152 H 0.8848 -0.0144 0.2768
C112 C 0.8005(8) -0.1046(6) 0.3586(6)
H153 H 0.8424 -0.1209 0.3764
H154 H 0.7764 -0.1330 0.3571
H155 H 0.7674 -0.0808 0.3789
C113 C 0.8064(10) -0.0676(7) 0.1642(7)
H156 H 0.8580 -0.0695 0.1612
H157 H 0.7833 -0.0298 0.1550
H158 H 0.7977 -0.0859 0.1393
C114 C 0.7247(8) -0.1267(6) 0.2190(6)
H159 H 0.7474 -0.1516 0.1965
H160 H 0.6835 -0.1029 0.2040
H161 H 0.7086 -0.1473 0.2556
N35 N 0.5560(9) 0.3794(7) -0.2276(7)
C115 C 0.6086(11) 0.3494(8) -0.2627(9)
H162 H 0.5843 0.3477 -0.2913
H163 H 0.6469 0.3712 -0.2805
C116 C 0.6425(11) 0.2960(8) -0.2404(7)
H164 H 0.6927 0.2983 -0.2404
H165 H 0.6441 0.2749 -0.2662
N36 N 0.6167(8) 0.2639(7) -0.1877(6)
C117 C 0.4926(9) 0.4055(8) -0.2560(8)
H166 H 0.5070 0.4331 -0.2886
H167 H 0.4544 0.4223 -0.2319
H168 H 0.4751 0.3781 -0.2659
C118 C 0.5868(12) 0.4237(8) -0.2233(9)
H169 H 0.5948 0.4492 -0.2588
H170 H 0.6325 0.4094 -0.2102
H171 H 0.5537 0.4424 -0.1981
C119 C 0.6761(10) 0.2539(11) -0.1554(10)
H172 H 0.7144 0.2260 -0.1660
H173 H 0.6572 0.2420 -0.1170
H174 H 0.6951 0.2873 -0.1625
C120 C 0.5784(15) 0.2229(11) -0.1917(12)
H175 H 0.6124 0.1964 -0.2081
H176 H 0.5413 0.2405 -0.2140
H177 H 0.5563 0.2048 -0.1556
N37 N -0.1577(4) 0.2783(4) 0.5015(4)
C121 C -0.0966(6) 0.2673(5) 0.5222(5)
H178 H -0.0883 0.2375 0.5522
C122 C -0.0445(5) 0.3024(5) 0.4968(5)
H179 H -0.0006 0.2957 0.5099
C123 C -0.0582(5) 0.3455(5) 0.4540(4)
C124 C -0.1192(6) 0.3525(5) 0.4307(5)
H180 H -0.1265 0.3789 0.3980
C125 C -0.1673(6) 0.3192(5) 0.4578(5)
H181 H -0.2111 0.3254 0.4448
N38 N 0.2652(5) 0.4075(4) 0.5080(4)
C126 C 0.2213(6) 0.3720(4) 0.5290(5)
H182 H 0.2283 0.3468 0.5624
C127 C 0.1654(5) 0.3693(4) 0.5050(4)
H183 H 0.1361 0.3422 0.5200
C128 C 0.1553(5) 0.4090(5) 0.4576(5)
C129 C 0.2003(6) 0.4448(5) 0.4348(4)
H184 H 0.1944 0.4702 0.4012
C130 C 0.2560(6) 0.4442(5) 0.4612(4)
H185 H 0.2874 0.4698 0.4459
N39 N -0.0161(5) 0.5888(4) 0.2339(4)
C131 C 0.0358(7) 0.5843(5) 0.2589(6)
H186 H 0.0644 0.6119 0.2465
C132 C 0.0530(7) 0.5420(5) 0.3028(5)
H187 H 0.0919 0.5404 0.3200
C133 C 0.0106(5) 0.5025(5) 0.3200(4)
C134 C -0.0417(5) 0.5043(5) 0.2930(5)
H188 H -0.0691 0.4760 0.3037
C135 C -0.0555(6) 0.5484(4) 0.2488(5)
H189 H -0.0922 0.5500 0.2294
C136 C -0.0054(6) 0.3839(4) 0.4293(4)
N40 N 0.0498(4) 0.3755(4) 0.4536(3)
C137 C 0.0913(5) 0.4136(4) 0.4323(4)
N41 N 0.0830(4) 0.4530(3) 0.3906(4)
C138 C 0.0251(6) 0.4559(4) 0.3670(4)
N42 N -0.0205(4) 0.4220(4) 0.3863(3)
N43 N 0.2350(5) -0.0080(4) 0.0929(4)
C139 C 0.2435(6) 0.0392(4) 0.0559(5)
H190 H 0.2113 0.0546 0.0308
C140 C 0.2994(6) 0.0651(4) 0.0544(5)
H191 H 0.3056 0.0982 0.0284
C141 C 0.3465(5) 0.0418(5) 0.0917(5)
C142 C 0.3349(6) -0.0050(4) 0.1306(4)
H192 H 0.3639 -0.0207 0.1579
C143 C 0.2787(6) -0.0280(5) 0.1277(5)
H193 H 0.2714 -0.0612 0.1533
N44 N 0.6582(4) -0.0017(3) 0.2221(4)
C144 C 0.5981(6) -0.0232(5) 0.2328(5)
H194 H 0.5907 -0.0540 0.2619
C145 C 0.5450(5) 0.0029(5) 0.1976(6)
H195 H 0.5009 -0.0099 0.2046
C146 C 0.5580(5) 0.0452(4) 0.1551(5)
C147 C 0.6201(6) 0.0686(4) 0.1475(5)
H196 H 0.6275 0.1009 0.1205
C148 C 0.6672(6) 0.0429(4) 0.1803(4)
H197 H 0.7105 0.0566 0.1741
N45 N 0.5162(5) 0.2658(4) -0.0890(4)
C149 C 0.4640(7) 0.2397(5) -0.0847(5)
H198 H 0.4356 0.2519 -0.1125
C150 C 0.4468(6) 0.1959(4) -0.0428(5)
H199 H 0.4088 0.1779 -0.0414
C151 C 0.4903(6) 0.1799(4) -0.0024(5)
C152 C 0.5415(6) 0.2062(5) -0.0039(5)
H200 H 0.5686 0.1954 0.0246
C153 C 0.5561(7) 0.2515(5) -0.0491(4)
H201 H 0.5929 0.2708 -0.0509
C154 C 0.4078(5) 0.0677(4) 0.0872(4)
N46 N 0.4503(4) 0.0452(3) 0.1253(4)
C155 C 0.5058(6) 0.0699(4) 0.1163(4)
N47 N 0.5200(4) 0.1132(3) 0.0781(4)
C156 C 0.4751(5) 0.1321(4) 0.0439(4)
N48 N 0.4185(5) 0.1090(4) 0.0471(4)
Ag1 Ag 0.19024(4) 0.29756(3) 0.28905(3)
Ag2 Ag 0.30963(4) 0.21094(3) 0.20235(3)
Au1 Au 0.17727(3) 0.40606(2) 0.28367(2)
Au2 Au 0.04271(3) 0.32626(2) 0.31725(2)
Au3 Au 0.17881(3) 0.29330(2) 0.39616(2)
N1 N 0.0973(6) 0.4235(4) 0.2392(4)
C1 C 0.0892(7) 0.4599(5) 0.1909(5)
H1 H 0.1194 0.4854 0.1708
C2 C 0.0251(11) 0.4519(7) 0.1765(7)
H2 H 0.0021 0.4729 0.1469
N2 N 0.0051(6) 0.4080(5) 0.2145(5)
C3 C 0.0457(8) 0.3922(6) 0.2513(6)
N3 N 0.0467(6) 0.2622(5) 0.3830(5)
C4 C 0.0028(9) 0.2242(6) 0.4037(6)
H3 H -0.0389 0.2232 0.3910
C5 C 0.0320(10) 0.1865(7) 0.4480(8)
H4 H 0.0146 0.1550 0.4708
N4 N 0.0916(7) 0.2062(6) 0.4504(5)
C6 C 0.0995(7) 0.2490(6) 0.4148(6)
N5 N 0.2570(5) 0.3427(4) 0.3719(4)
C7 C 0.3173(6) 0.3345(5) 0.3925(5)
H5 H 0.3328 0.3057 0.4213
C8 C 0.3517(9) 0.3772(7) 0.3624(7)
H6 H 0.3933 0.3858 0.3690
N6 N 0.3132(7) 0.4054(4) 0.3201(4)
C9 C 0.2556(8) 0.3860(7) 0.3275(7)
C10 C -0.0557(10) 0.3880(8) 0.2134(8)
H7 H -0.0761 0.4088 0.1811
H8 H -0.0913 0.3912 0.2455
H9 H -0.0421 0.3500 0.2129
C11 C 0.1336(10) 0.1781(7) 0.4925(7)
H10 H 0.1139 0.1458 0.5144
H11 H 0.1321 0.2019 0.5154
H12 H 0.1833 0.1676 0.4763
C12 C 0.3292(10) 0.4547(7) 0.2811(8)
H13 H 0.2930 0.4681 0.2575
H14 H 0.3765 0.4476 0.2595
H15 H 0.3290 0.4818 0.2999
Au4 Au 0.32117(3) 0.10375(2) 0.20683(2)
Au5 Au 0.45715(3) 0.18274(2) 0.17374(2)
Au6 Au 0.32248(3) 0.21622(2) 0.09399(2)
C13 C 0.4000(7) 0.0870(6) 0.2493(5)
N7 N 0.4092(6) 0.0483(5) 0.2948(5)
C14 C 0.4675(8) 0.0537(7) 0.3119(6)
H16 H 0.4848 0.0319 0.3437
C15 C 0.4979(7) 0.0958(5) 0.2759(5)
H17 H 0.5409 0.1071 0.2765
N8 N 0.4529(5) 0.1174(4) 0.2395(4)
C16 C 0.4523(7) 0.2467(5) 0.1094(5)
N9 N 0.4944(6) 0.2851(5) 0.0921(5)
C17 C 0.4719(9) 0.3210(7) 0.0479(7)
H18 H 0.4946 0.3505 0.0261
C18 C 0.4109(7) 0.3083(5) 0.0394(5)
H19 H 0.3812 0.3283 0.0135
N10 N 0.4025(6) 0.2605(4) 0.0766(4)
C19 C 0.2444(6) 0.1722(5) 0.1153(5)
N11 N 0.1840(6) 0.1794(4) 0.0946(4)
C20 C 0.1470(8) 0.1384(6) 0.1228(6)
H20 H 0.1042 0.1326 0.1151
C21 C 0.1826(6) 0.1068(5) 0.1643(5)
H21 H 0.1674 0.0770 0.1919
N12 N 0.2433(5) 0.1267(4) 0.1578(4)
C22 C 0.3643(9) 0.0079(7) 0.3206(7)
H22 H 0.3824 -0.0158 0.3530
H23 H 0.3647 -0.0135 0.2957
H24 H 0.3152 0.0255 0.3308
C23 C 0.5563(10) 0.2860(8) 0.1150(8)
H25 H 0.5786 0.3173 0.0938
H26 H 0.5911 0.2529 0.1140
H27 H 0.5406 0.2882 0.1523
C24 C 0.1691(9) 0.2187(7) 0.0452(7)
H28 H 0.2048 0.2428 0.0331
H29 H 0.1213 0.2398 0.0516
H30 H 0.1713 0.2002 0.0175
Au7 Au 0.1790(2) 0.19939(10) 0.27105(11)
Au8 Au 0.23506(7) 0.31514(5) 0.17706(5)
Au9 Au 0.33190(15) 0.24422(10) 0.28392(9)
C25 C 0.1276(9) 0.2431(7) 0.2131(7)
N13 N 0.0628(8) 0.2368(6) 0.2030(7)
C26 C 0.0482(9) 0.2761(7) 0.1596(7)
H31 H 0.0082 0.2809 0.1424
C27 C 0.0992(10) 0.3086(7) 0.1435(7)
H32 H 0.0996 0.3403 0.1146
N14 N 0.1501(9) 0.2873(7) 0.1768(8)
C28 C 0.0263(12) 0.1906(8) 0.2306(9)
H33 H -0.0171 0.1946 0.2156
H34 H 0.0133 0.1888 0.2691
H35 H 0.0583 0.1573 0.2257
C29 C 0.3199(10) 0.3337(8) 0.1916(8)
N15 N 0.3578(12) 0.3739(9) 0.1557(8)
C30 C 0.4157(13) 0.3708(11) 0.1776(11)
H36 H 0.4525 0.3920 0.1621
C31 C 0.4132(13) 0.3323(11) 0.2256(10)
H37 H 0.4449 0.3245 0.2507
N16 N 0.3556(11) 0.3067(8) 0.2308(8)
C32 C 0.3300(15) 0.4146(10) 0.1113(9)
H38 H 0.2880 0.4043 0.1044
H39 H 0.3668 0.4175 0.0790
H40 H 0.3162 0.4493 0.1204
C33 C 0.2894(8) 0.1871(6) 0.3296(6)
N17 N 0.3217(10) 0.1477(8) 0.3729(8)
C34 C 0.2820(12) 0.1092(8) 0.3935(9)
H41 H 0.2908 0.0787 0.4229
C35 C 0.2261(12) 0.1203(9) 0.3657(10)
H42 H 0.1894 0.0994 0.3728
N18 N 0.2328(10) 0.1673(8) 0.3257(8)
C36 C 0.3849(11) 0.1527(10) 0.3912(10)
H43 H 0.3939 0.1230 0.4230
H44 H 0.3770 0.1871 0.4005
H45 H 0.4264 0.1511 0.3624
Au10? Au 0.07420(10) 0.37366(8) 0.27724(8)
Au11? Au 0.11317(10) 0.27113(7) 0.39186(7)
Au12? Au 0.22447(11) 0.36862(7) 0.33308(8)
C157? C 0.0155(12) 0.3134(8) 0.3165(9)
N49? N -0.0442(13) 0.3109(10) 0.2985(10)
C158? C -0.0696(13) 0.2666(11) 0.3320(11)
H202? H -0.1109 0.2544 0.3293
C159? C -0.0265(13) 0.2422(11) 0.3704(11)
H203? H -0.0330 0.2106 0.3986
N50? N 0.0273(11) 0.2712(10) 0.3611(9)
C160? C -0.0735(18) 0.3482(13) 0.2524(12)
H204? H -0.1163 0.3367 0.2483
H205? H -0.0376 0.3485 0.2197
H206? H -0.0864 0.3845 0.2580
C161? C 0.2041(10) 0.2718(11) 0.4193(10)
N51? N 0.2264(16) 0.2374(13) 0.4652(12)
C162? C 0.2868(18) 0.2515(14) 0.4715(13)
H207? H 0.3139 0.2339 0.4996
C163? C 0.3017(18) 0.2960(14) 0.4297(13)
H208? H 0.3408 0.3143 0.4241
N52? N 0.2503(15) 0.3088(9) 0.3980(8)
C164? C 0.194(2) 0.1904(14) 0.4984(16)
H209? H 0.2218 0.1710 0.5275
H210? H 0.1947 0.1664 0.4761
H211? H 0.1448 0.2024 0.5140
C165? C 0.1978(15) 0.4265(8) 0.2685(8)
N53? N 0.2324(15) 0.4692(12) 0.2433(13)
C166? C 0.1951(18) 0.5005(11) 0.2041(14)
H212? H 0.2051 0.5341 0.1810
C167? C 0.1400(17) 0.4754(13) 0.2034(13)
H213? H 0.1080 0.4876 0.1781
N54? N 0.1395(13) 0.4299(9) 0.2451(10)
C168? C 0.2967(18) 0.479(2) 0.256(2)
H214? H 0.3165 0.5074 0.2270
H215? H 0.3321 0.4458 0.2605
H216? H 0.2846 0.4903 0.2898
Au13? Au 0.38629(11) 0.10790(8) 0.22902(8)
Au14? Au 0.42573(11) 0.22239(8) 0.12681(9)
Au15? Au 0.27535(11) 0.16718(9) 0.13150(8)
C169? C 0.4853(13) 0.1834(10) 0.1863(8)
N55? N 0.5450(15) 0.2005(8) 0.1903(9)
C170? C 0.5703(10) 0.1660(11) 0.2344(11)
H217? H 0.6115 0.1678 0.2472
C171? C 0.5260(14) 0.1279(9) 0.2576(8)
H218? H 0.5319 0.0991 0.2889
N56? N 0.4724(8) 0.1387(10) 0.2281(11)
C172? C 0.5733(19) 0.2475(11) 0.1514(12)
H219? H 0.6136 0.2544 0.1638
H220? H 0.5355 0.2793 0.1487
H221? H 0.5896 0.2400 0.1160
C173? C 0.2958(8) 0.0820(9) 0.2273(10)
N57? N 0.2787(15) 0.0350(11) 0.2622(12)
C174? C 0.2175(17) 0.0277(11) 0.2501(13)
H222? H 0.1918 -0.0011 0.2684
C175? C 0.1990(16) 0.0696(13) 0.2067(14)
H223? H 0.1582 0.0744 0.1905
N58? N 0.2488(13) 0.1028(7) 0.1910(8)
C176? C 0.3133(19) 0.0031(14) 0.3086(12)
H224? H 0.2863 -0.0257 0.3297
H225? H 0.3143 0.0265 0.3312
H226? H 0.3623 -0.0126 0.2958
C177? C 0.3050(16) 0.2334(7) 0.0748(8)
N59? N 0.2704(15) 0.2580(14) 0.0317(13)
C178? C 0.3021(18) 0.3015(13) 0.0034(12)
H227? H 0.2861 0.3287 -0.0264
C179? C 0.3612(17) 0.2995(13) 0.0254(13)
H228? H 0.3946 0.3238 0.0119
N60? N 0.3639(12) 0.2569(10) 0.0699(8)
C180? C 0.205(2) 0.245(2) 0.022(2)
H229? H 0.1906 0.2147 0.0515
H230? H 0.2150 0.2360 -0.0121
H231? H 0.1673 0.2767 0.0216
C181? C 0.2601(12) 0.5516(10) 0.0042(11)
H232? H 0.2712 0.5813 0.0126
C182? C 0.3057(12) 0.5253(8) -0.0309(12)
H233? H 0.3422 0.5431 -0.0552
C183? C 0.2340(12) 0.4560(11) -0.0060(11)
H234? H 0.2254 0.4230 -0.0093
C184? C 0.1820(13) 0.4850(10) 0.0241(12)
H235? H 0.1381 0.4732 0.0421
Au16? Au 0.16881(18) 0.21591(10) 0.25579(12)
Au17? Au 0.26499(7) 0.32301(5) 0.18483(5)
Au18? Au 0.32008(16) 0.22866(10) 0.30081(9)
N61? N 0.1458(10) 0.2684(7) 0.1935(7)
C185? C 0.0855(9) 0.2748(8) 0.1699(9)
H236? H 0.0490 0.2531 0.1818
C186? C 0.0893(10) 0.3186(8) 0.1263(8)
H237? H 0.0561 0.3315 0.1019
N62? N 0.1467(11) 0.3406(7) 0.1231(7)
C187? C 0.1807(10) 0.3077(7) 0.1669(7)
C188? C 0.1715(16) 0.3877(9) 0.0854(10)
H238? H 0.2114 0.3957 0.0974
H239? H 0.1324 0.4185 0.0835
H240? H 0.1878 0.3809 0.0497
N63? N 0.3475(10) 0.3227(8) 0.2129(8)
C189? C 0.3958(13) 0.3578(10) 0.1925(10)
H241? H 0.3919 0.3890 0.1631
C190? C 0.4504(11) 0.3399(10) 0.2221(10)
H242? H 0.4921 0.3558 0.2152
N64? N 0.4360(10) 0.2966(8) 0.2620(8)
C191? C 0.3703(10) 0.2870(8) 0.2570(8)
C192? C 0.4732(13) 0.2687(10) 0.3074(9)
H243? H 0.5163 0.2841 0.3033
H244? H 0.4868 0.2303 0.3085
H245? H 0.4416 0.2729 0.3410
N65? N 0.2664(10) 0.1725(8) 0.3341(8)
C193? C 0.2742(12) 0.1335(10) 0.3808(9)
H246? H 0.3109 0.1273 0.4016
C194? C 0.2190(12) 0.1048(9) 0.3921(8)
H247? H 0.2120 0.0748 0.4222
N66? N 0.1768(10) 0.1252(8) 0.3547(8)
C195? C 0.2082(9) 0.1681(7) 0.3162(7)
C196? C 0.1145(11) 0.1067(10) 0.3488(10)
H248? H 0.1066 0.0738 0.3773
H249? H 0.1225 0.0990 0.3135
H250? H 0.0723 0.1347 0.3516
loop_
_geom_bond_atom_site_label_1
_geom_bond_atom_site_label_2
_geom_bond_site_symmetry_1
_geom_bond_site_symmetry_2
Ag1 Au1 1_555 1_555
Ag2 Au4 1_555 1_555
Au1 N1 1_555 1_555
Au2 Ag1 1_555 1_555
Au3 Ag1 1_555 1_555
N1 C1 1_555 1_555
C1 H1 1_555 1_555
C2 C1 1_555 1_555
H2 C2 1_555 1_555
N2 C2 1_555 1_555
C3 Au2 1_555 1_555
N3 Au2 1_555 1_555
C4 N3 1_555 1_555
H3 C4 1_555 1_555
C5 C4 1_555 1_555
H4 C5 1_555 1_555
N4 C5 1_555 1_555
C6 Au3 1_555 1_555
N5 Au3 1_555 1_555
C7 N5 1_555 1_555
H5 C7 1_555 1_555
C8 C7 1_555 1_555
H6 C8 1_555 1_555
N6 C8 1_555 1_555
C9 Au1 1_555 1_555
C10 N2 1_555 1_555
H7 C10 1_555 1_555
H8 C10 1_555 1_555
H9 C10 1_555 1_555
C11 N4 1_555 1_555
H10 C11 1_555 1_555
H11 C11 1_555 1_555
H12 C11 1_555 1_555
C12 N6 1_555 1_555
H13 C12 1_555 1_555
H14 C12 1_555 1_555
H15 C12 1_555 1_555
Au4 C13 1_555 1_555
Au5 Ag2 1_555 1_555
Au6 Ag2 1_555 1_555
C13 N7 1_555 1_555
N7 C14 1_555 1_555
C14 H16 1_555 1_555
C15 C14 1_555 1_555
H17 C15 1_555 1_555
N8 Au5 1_555 1_555
C16 Au5 1_555 1_555
N9 C16 1_555 1_555
C17 N9 1_555 1_555
H18 C17 1_555 1_555
C18 C17 1_555 1_555
H19 C18 1_555 1_555
N10 Au6 1_555 1_555
C19 Au6 1_555 1_555
N11 C19 1_555 1_555
C20 N11 1_555 1_555
H20 C20 1_555 1_555
C21 C20 1_555 1_555
H21 C21 1_555 1_555
N12 Au4 1_555 1_555
C22 N7 1_555 1_555
H22 C22 1_555 1_555
H23 C22 1_555 1_555
H24 C22 1_555 1_555
C23 N9 1_555 1_555
H25 C23 1_555 1_555
H26 C23 1_555 1_555
H27 C23 1_555 1_555
C24 N11 1_555 1_555
H28 C24 1_555 1_555
H29 C24 1_555 1_555
H30 C24 1_555 1_555
Au7 Ag1 1_555 1_555
Au8 Ag1 1_555 1_555
Au9 Ag1 1_555 1_555
C25 Au7 1_555 1_555
N13 C25 1_555 1_555
C26 N13 1_555 1_555
H31 C26 1_555 1_555
C27 C26 1_555 1_555
H32 C27 1_555 1_555
N14 Au8 1_555 1_555
C28 N13 1_555 1_555
H33 C28 1_555 1_555
H34 C28 1_555 1_555
H35 C28 1_555 1_555
C29 Au8 1_555 1_555
N15 C29 1_555 1_555
C30 N15 1_555 1_555
H36 C30 1_555 1_555
C31 C30 1_555 1_555
H37 C31 1_555 1_555
N16 Au9 1_555 1_555
C32 N15 1_555 1_555
H38 C32 1_555 1_555
H39 C32 1_555 1_555
H40 C32 1_555 1_555
C33 Au9 1_555 1_555
N17 C33 1_555 1_555
C34 N17 1_555 1_555
H41 C34 1_555 1_555
C35 C34 1_555 1_555
H42 C35 1_555 1_555
N18 Au7 1_555 1_555
C36 N17 1_555 1_555
H43 C36 1_555 1_555
H44 C36 1_555 1_555
H45 C36 1_555 1_555
Pd1 N19 1_555 1_555
Pd2 N21 1_555 1_555
Pd3 N23 1_555 1_555
Pd4 N20 1_555 1_555
Pd5 N22 1_555 1_555
Pd6 N24 1_555 1_555
N19 C37 1_555 1_555
C37 H46 1_555 1_555
C38 C37 1_555 1_555
H47 C38 1_555 1_555
C39 C38 1_555 1_555
C40 C39 1_555 1_555
H48 C40 1_555 1_555
C41 N19 1_555 1_555
H49 C41 1_555 1_555
C42 C39 1_555 1_555
C43 C42 1_555 1_555
H50 C43 1_555 1_555
C44 C43 1_555 1_555
H51 C44 1_555 1_555
C45 C44 1_555 1_555
C46 C45 1_555 1_555
H52 C46 1_555 1_555
C47 C42 1_555 1_555
H53 C47 1_555 1_555
C48 C45 1_555 1_555
C49 C48 1_555 1_555
H54 C49 1_555 1_555
C50 C49 1_555 1_555
H55 C50 1_555 1_555
N20 C50 1_555 1_555
C51 N20 1_555 1_555
H56 C51 1_555 1_555
C52 C48 1_555 1_555
H57 C52 1_555 1_555
N21 C53 1_555 1_555
C53 H58 1_555 1_555
C54 C53 1_555 1_555
H59 C54 1_555 1_555
C55 C54 1_555 1_555
C56 C55 1_555 1_555
H60 C56 1_555 1_555
C57 N21 1_555 1_555
H61 C57 1_555 1_555
C58 C55 1_555 1_555
C59 C58 1_555 1_555
H62 C59 1_555 1_555
C60 C59 1_555 1_555
H63 C60 1_555 1_555
C61 C60 1_555 1_555
C62 C61 1_555 1_555
H64 C62 1_555 1_555
C63 C58 1_555 1_555
H65 C63 1_555 1_555
C64 C61 1_555 1_555
C65 C64 1_555 1_555
H66 C65 1_555 1_555
C66 C65 1_555 1_555
H67 C66 1_555 1_555
N22 C66 1_555 1_555
C67 N22 1_555 1_555
H68 C67 1_555 1_555
C68 C64 1_555 1_555
H69 C68 1_555 1_555
N23 C69 1_555 1_555
C69 H70 1_555 1_555
C70 C69 1_555 1_555
H71 C70 1_555 1_555
C71 C70 1_555 1_555
C72 C71 1_555 1_555
H72 C72 1_555 1_555
C73 N23 1_555 1_555
H73 C73 1_555 1_555
C74 C71 1_555 1_555
C75 C77 1_555 1_555
C76 C74 1_555 1_555
H74 C76 1_555 1_555
C77 C76 1_555 1_555
H75 C77 1_555 1_555
C78 C75 1_555 1_555
H76 C78 1_555 1_555
C79 C74 1_555 1_555
H77 C79 1_555 1_555
C80 C75 1_555 1_555
C81 C80 1_555 1_555
H78 C81 1_555 1_555
C82 C81 1_555 1_555
H79 C82 1_555 1_555
N24 C82 1_555 1_555
C83 N24 1_555 1_555
H80 C83 1_555 1_555
C84 C80 1_555 1_555
H81 C84 1_555 1_555
N25 Pd1 1_555 1_555
C85 N25 1_555 1_555
H82 C85 1_555 1_555
H83 C85 1_555 1_555
C86 C85 1_555 1_555
H84 C86 1_555 1_555
H85 C86 1_555 1_555
N26 Pd1 1_555 1_555
C87 N25 1_555 1_555
H86 C87 1_555 1_555
H87 C87 1_555 1_555
H88 C87 1_555 1_555
C88 N25 1_555 1_555
H89 C88 1_555 1_555
H90 C88 1_555 1_555
H91 C88 1_555 1_555
C89 N26 1_555 1_555
H92 C89 1_555 1_555
H93 C89 1_555 1_555
H94 C89 1_555 1_555
C90 N26 1_555 1_555
H95 C90 1_555 1_555
H96 C90 1_555 1_555
H97 C90 1_555 1_555
N27 Pd2 1_555 1_555
C91 N27 1_555 1_555
H98 C91 1_555 1_555
H99 C91 1_555 1_555
C92 C91 1_555 1_555
H100 C92 1_555 1_555
H101 C92 1_555 1_555
N28 Pd2 1_555 1_555
C93 N27 1_555 1_555
H102 C93 1_555 1_555
H103 C93 1_555 1_555
H104 C93 1_555 1_555
C94 N27 1_555 1_555
H105 C94 1_555 1_555
H106 C94 1_555 1_555
H107 C94 1_555 1_555
C95 N28 1_555 1_555
H108 C95 1_555 1_555
H109 C95 1_555 1_555
H110 C95 1_555 1_555
C96 N28 1_555 1_555
H111 C96 1_555 1_555
H112 C96 1_555 1_555
H113 C96 1_555 1_555
N29 Pd3 1_555 1_555
C97 N29 1_555 1_555
H114 C97 1_555 1_555
H115 C97 1_555 1_555
C98 C97 1_555 1_555
H116 C98 1_555 1_555
H117 C98 1_555 1_555
N30 Pd3 1_555 1_555
C99 N29 1_555 1_555
H118 C99 1_555 1_555
H119 C99 1_555 1_555
H120 C99 1_555 1_555
C100 N29 1_555 1_555
H121 C100 1_555 1_555
H122 C100 1_555 1_555
H123 C100 1_555 1_555
C101 N30 1_555 1_555
H124 C101 1_555 1_555
H125 C101 1_555 1_555
H126 C101 1_555 1_555
C102 N30 1_555 1_555
H127 C102 1_555 1_555
H128 C102 1_555 1_555
H129 C102 1_555 1_555
N31 Pd4 1_555 1_555
C103 N31 1_555 1_555
H130 C103 1_555 1_555
H131 C103 1_555 1_555
C104 C103 1_555 1_555
H132 C104 1_555 1_555
H133 C104 1_555 1_555
N32 Pd4 1_555 1_555
C105 N31 1_555 1_555
H134 C105 1_555 1_555
H135 C105 1_555 1_555
H136 C105 1_555 1_555
C106 N31 1_555 1_555
H137 C106 1_555 1_555
H138 C106 1_555 1_555
H139 C106 1_555 1_555
C107 N32 1_555 1_555
H140 C107 1_555 1_555
H141 C107 1_555 1_555
H142 C107 1_555 1_555
C108 N32 1_555 1_555
H143 C108 1_555 1_555
H144 C108 1_555 1_555
H145 C108 1_555 1_555
N33 Pd5 1_555 1_555
C109 N33 1_555 1_555
H146 C109 1_555 1_555
H147 C109 1_555 1_555
C110 C109 1_555 1_555
H148 C110 1_555 1_555
H149 C110 1_555 1_555
N34 Pd5 1_555 1_555
C111 N33 1_555 1_555
H150 C111 1_555 1_555
H151 C111 1_555 1_555
H152 C111 1_555 1_555
C112 N33 1_555 1_555
H153 C112 1_555 1_555
H154 C112 1_555 1_555
H155 C112 1_555 1_555
C113 N34 1_555 1_555
H156 C113 1_555 1_555
H157 C113 1_555 1_555
H158 C113 1_555 1_555
C114 N34 1_555 1_555
H159 C114 1_555 1_555
H160 C114 1_555 1_555
H161 C114 1_555 1_555
N35 Pd6 1_555 1_555
C115 N35 1_555 1_555
H162 C115 1_555 1_555
H163 C115 1_555 1_555
C116 C115 1_555 1_555
H164 C116 1_555 1_555
H165 C116 1_555 1_555
N36 Pd6 1_555 1_555
C117 N35 1_555 1_555
H166 C117 1_555 1_555
H167 C117 1_555 1_555
H168 C117 1_555 1_555
C118 N35 1_555 1_555
H169 C118 1_555 1_555
H170 C118 1_555 1_555
H171 C118 1_555 1_555
C119 N36 1_555 1_555
H172 C119 1_555 1_555
H173 C119 1_555 1_555
H174 C119 1_555 1_555
C120 N36 1_555 1_555
H175 C120 1_555 1_555
H176 C120 1_555 1_555
H177 C120 1_555 1_555
N37 Pd1 1_555 1_555
C121 N37 1_555 1_555
H178 C121 1_555 1_555
C122 C121 1_555 1_555
H179 C122 1_555 1_555
C123 C122 1_555 1_555
C124 C123 1_555 1_555
H180 C124 1_555 1_555
C125 N37 1_555 1_555
H181 C125 1_555 1_555
N38 Pd2 1_555 1_555
C126 N38 1_555 1_555
H182 C126 1_555 1_555
C127 C126 1_555 1_555
H183 C127 1_555 1_555
C128 C127 1_555 1_555
C129 C128 1_555 1_555
H184 C129 1_555 1_555
C130 N38 1_555 1_555
H185 C130 1_555 1_555
N39 Pd3 1_555 1_555
C131 N39 1_555 1_555
H186 C131 1_555 1_555
C132 C131 1_555 1_555
H187 C132 1_555 1_555
C133 C132 1_555 1_555
C134 C133 1_555 1_555
H188 C134 1_555 1_555
C135 N39 1_555 1_555
H189 C135 1_555 1_555
C136 C123 1_555 1_555
N40 C136 1_555 1_555
C137 C128 1_555 1_555
N41 C137 1_555 1_555
C138 C133 1_555 1_555
N42 C136 1_555 1_555
N43 Pd4 1_555 1_555
C139 N43 1_555 1_555
H190 C139 1_555 1_555
C140 C139 1_555 1_555
H191 C140 1_555 1_555
C141 C140 1_555 1_555
C142 C141 1_555 1_555
H192 C142 1_555 1_555
C143 N43 1_555 1_555
H193 C143 1_555 1_555
N44 Pd5 1_555 1_555
C144 N44 1_555 1_555
H194 C144 1_555 1_555
C145 C144 1_555 1_555
H195 C145 1_555 1_555
C146 C145 1_555 1_555
C147 C146 1_555 1_555
H196 C147 1_555 1_555
C148 N44 1_555 1_555
H197 C148 1_555 1_555
N45 Pd6 1_555 1_555
C149 N45 1_555 1_555
H198 C149 1_555 1_555
C150 C149 1_555 1_555
H199 C150 1_555 1_555
C151 C150 1_555 1_555
C152 C151 1_555 1_555
H200 C152 1_555 1_555
C153 N45 1_555 1_555
H201 C153 1_555 1_555
C154 C141 1_555 1_555
N46 C154 1_555 1_555
C155 C146 1_555 1_555
N47 C155 1_555 1_555
C156 C151 1_555 1_555
N48 C154 1_555 1_555
Ag2 Au7 1_555 1_555
Ag2 Au8 1_555 1_555
Ag2 Au9 1_555 1_555
N1 C3 1_555 1_555
N2 C3 1_555 1_555
N3 C6 1_555 1_555
N4 C6 1_555 1_555
N5 C9 1_555 1_555
N6 C9 1_555 1_555
C13 N8 1_555 1_555
C15 N8 1_555 1_555
C16 N10 1_555 1_555
C18 N10 1_555 1_555
C19 N12 1_555 1_555
C21 N12 1_555 1_555
C25 N14 1_555 1_555
C27 N14 1_555 1_555
C29 N16 1_555 1_555
C31 N16 1_555 1_555
C33 N18 1_555 1_555
C35 N18 1_555 1_555
C40 C41 1_555 1_555
C46 C47 1_555 1_555
C51 C52 1_555 1_555
C56 C57 1_555 1_555
C62 C63 1_555 1_555
C67 C68 1_555 1_555
C72 C73 1_555 1_555
C78 C79 1_555 1_555
C83 C84 1_555 1_555
C86 N26 1_555 1_555
C92 N28 1_555 1_555
C98 N30 1_555 1_555
C104 N32 1_555 1_555
C110 N34 1_555 1_555
C116 N36 1_555 1_555
C124 C125 1_555 1_555
C129 C130 1_555 1_555
C134 C135 1_555 1_555
N40 C137 1_555 1_555
N41 C138 1_555 1_555
C138 N42 1_555 1_555
C142 C143 1_555 1_555
C147 C148 1_555 1_555
C152 C153 1_555 1_555
N46 C155 1_555 1_555
N47 C156 1_555 1_555
C156 N48 1_555 1_555

#END
