# generated using pymatgen
data_AgH125Pd3Au9C98N33
_symmetry_space_group_name_H-M   'P 1'
_cell_length_a   19.42310000
_cell_length_b   26.32900000
_cell_length_c   26.34400000
_cell_angle_alpha   72.88600000
_cell_angle_beta   77.31300000
_cell_angle_gamma   77.26900000
_symmetry_Int_Tables_number   1
_chemical_formula_structural   AgH125Pd3Au9C98N33
_chemical_formula_sum   'Ag4 H500 Pd12 Au36 C392 N132'
_cell_volume   12384.70738943
_cell_formula_units_Z   4
loop_
 _symmetry_equiv_pos_site_id
 _symmetry_equiv_pos_as_xyz
  1  'x, y, z'
loop_
 _atom_site_type_symbol
 _atom_site_label
 _atom_site_symmetry_multiplicity
 _atom_site_fract_x
 _atom_site_fract_y
 _atom_site_fract_z
 _atom_site_occupancy
  Ag  Ag1  1  0.190240  0.297560  0.289050  1
  Ag  Ag2  1  0.809760  0.702440  0.710950  1
  Ag  Ag3  1  0.309630  0.210940  0.202350  1
  Ag  Ag4  1  0.690370  0.789060  0.797650  1
  H  H5  1  0.744500  0.238400  0.429300  1
  H  H6  1  0.255500  0.761600  0.570700  1
  H  H7  1  0.797000  0.193200  0.362100  1
  H  H8  1  0.203000  0.806800  0.637900  1
  H  H9  1  0.923400  0.089400  0.463700  1
  H  H10  1  0.076600  0.910600  0.536300  1
  H  H11  1  0.866500  0.137600  0.527700  1
  H  H12  1  0.133500  0.862400  0.472300  1
  H  H13  1  0.837800  0.146300  0.307500  1
  H  H14  1  0.162200  0.853700  0.692500  1
  H  H15  1  0.893300  0.101100  0.243800  1
  H  H16  1  0.106700  0.898900  0.756200  1
  H  H17  1  0.039300  0.018200  0.332400  1
  H  H18  1  0.960700  0.981800  0.667600  1
  H  H19  1  0.972700  0.052800  0.402700  1
  H  H20  1  0.027300  0.947200  0.597300  1
  H  H21  1  0.983100  0.097600  0.171600  1
  H  H22  1  0.016900  0.902400  0.828400  1
  H  H23  1  0.053700  0.057300  0.104800  1
  H  H24  1  0.946300  0.942700  0.895200  1
  H  H25  1  0.125600  0.929900  0.210100  1
  H  H26  1  0.874400  0.070100  0.789900  1
  H  H27  1  0.063900  0.967600  0.282200  1
  H  H28  1  0.936100  0.032400  0.717800  1
  H  H29  1  0.374400  0.290400  0.570700  1
  H  H30  1  0.625600  0.709600  0.429300  1
  H  H31  1  0.433700  0.218600  0.533100  1
  H  H32  1  0.566300  0.781400  0.466900  1
  H  H33  1  0.514400  0.327700  0.402200  1
  H  H34  1  0.485600  0.672300  0.597800  1
  H  H35  1  0.449100  0.395900  0.443200  1
  H  H36  1  0.550900  0.604100  0.556800  1
  H  H37  1  0.461100  0.168400  0.481800  1
  H  H38  1  0.538900  0.831600  0.518200  1
  H  H39  1  0.529000  0.097700  0.447000  1
  H  H40  1  0.471000  0.902300  0.553000  1
  H  H41  1  0.665300  0.189000  0.359100  1
  H  H42  1  0.334700  0.811000  0.640900  1
  H  H43  1  0.602200  0.259300  0.394500  1
  H  H44  1  0.397800  0.740700  0.605500  1
  H  H45  1  0.576600  0.036600  0.409100  1
  H  H46  1  0.423400  0.963400  0.590900  1
  H  H47  1  0.634100  0.972500  0.363800  1
  H  H48  1  0.365900  0.027500  0.636200  1
  H  H49  1  0.754600  0.072500  0.261800  1
  H  H50  1  0.245400  0.927500  0.738200  1
  H  H51  1  0.703800  0.137900  0.306300  1
  H  H52  1  0.296200  0.862100  0.693700  1
  H  H53  1  0.121000  0.640100  0.141000  1
  H  H54  1  0.879000  0.359900  0.859000  1
  H  H55  1  0.204500  0.605100  0.080600  1
  H  H56  1  0.795500  0.394900  0.919400  1
  H  H57  1  0.052100  0.541700  0.051300  1
  H  H58  1  0.947900  0.458300  0.948700  1
  H  H59  1  0.970700  0.585000  0.103000  1
  H  H60  1  0.029300  0.415000  0.897000  1
  H  H61  1  0.276800  0.512800  0.075000  1
  H  H62  1  0.723200  0.487200  0.925000  1
  H  H63  1  0.364900  0.464600  0.023500  1
  H  H64  1  0.635100  0.535400  0.976500  1
  H  H65  1  0.231400  0.489100  0.917100  1
  H  H66  1  0.768600  0.510900  0.082900  1
  H  H67  1  0.156600  0.553100  0.957400  1
  H  H68  1  0.843400  0.446900  0.042600  1
  H  H69  1  0.447100  0.451800  0.955400  1
  H  H70  1  0.552900  0.548200  0.044600  1
  H  H71  1  0.527800  0.395700  0.917200  1
  H  H72  1  0.472200  0.604300  0.082800  1
  H  H73  1  0.378200  0.361300  0.859300  1
  H  H74  1  0.621800  0.638700  0.140700  1
  H  H75  1  0.292000  0.417900  0.900300  1
  H  H76  1  0.708000  0.582100  0.099700  1
  H  H77  1  0.595100  0.251300  0.587000  1
  H  H78  1  0.404900  0.748700  0.413000  1
  H  H79  1  0.606000  0.201100  0.637500  1
  H  H80  1  0.394000  0.798900  0.362500  1
  H  H81  1  0.674400  0.232000  0.663100  1
  H  H82  1  0.325600  0.768000  0.336900  1
  H  H83  1  0.621000  0.284500  0.638500  1
  H  H84  1  0.379000  0.715500  0.361500  1
  H  H85  1  0.597900  0.168600  0.557000  1
  H  H86  1  0.402100  0.831400  0.443000  1
  H  H87  1  0.668900  0.167600  0.512700  1
  H  H88  1  0.331100  0.832400  0.487300  1
  H  H89  1  0.616800  0.223400  0.515000  1
  H  H90  1  0.383200  0.776600  0.485000  1
  H  H91  1  0.657100  0.122700  0.619600  1
  H  H92  1  0.342900  0.877300  0.380400  1
  H  H93  1  0.724000  0.140500  0.632000  1
  H  H94  1  0.276000  0.859500  0.368000  1
  H  H95  1  0.731700  0.120400  0.579000  1
  H  H96  1  0.268300  0.879600  0.421000  1
  H  H97  1  0.675100  0.358400  0.593200  1
  H  H98  1  0.324900  0.641600  0.406800  1
  H  H99  1  0.654300  0.336500  0.548900  1
  H  H100  1  0.345700  0.663500  0.451100  1
  H  H101  1  0.731400  0.353200  0.539800  1
  H  H102  1  0.268600  0.646800  0.460200  1
  H  H103  1  0.756900  0.302900  0.651900  1
  H  H104  1  0.243100  0.697100  0.348100  1
  H  H105  1  0.818600  0.295700  0.601900  1
  H  H106  1  0.181400  0.704300  0.398100  1
  H  H107  1  0.794100  0.243800  0.646200  1
  H  H108  1  0.205900  0.756200  0.353800  1
  H  H109  1  0.440300  0.490700  0.565300  1
  H  H110  1  0.559700  0.509300  0.434700  1
  H  H111  1  0.443700  0.455400  0.626300  1
  H  H112  1  0.556300  0.544600  0.373700  1
  H  H113  1  0.328400  0.459100  0.647600  1
  H  H114  1  0.671600  0.540900  0.352400  1
  H  H115  1  0.331400  0.516000  0.605300  1
  H  H116  1  0.668600  0.484000  0.394700  1
  H  H117  1  0.496300  0.370300  0.629300  1
  H  H118  1  0.503700  0.629700  0.370700  1
  H  H119  1  0.473800  0.334600  0.597900  1
  H  H120  1  0.526200  0.665400  0.402100  1
  H  H121  1  0.417700  0.354900  0.645200  1
  H  H122  1  0.582300  0.645100  0.354800  1
  H  H123  1  0.540100  0.422500  0.552100  1
  H  H124  1  0.459900  0.577500  0.447900  1
  H  H125  1  0.492300  0.454000  0.506400  1
  H  H126  1  0.507700  0.546000  0.493600  1
  H  H127  1  0.516600  0.390000  0.517800  1
  H  H128  1  0.483400  0.610000  0.482200  1
  H  H129  1  0.204100  0.476200  0.638500  1
  H  H130  1  0.795900  0.523800  0.361500  1
  H  H131  1  0.247800  0.416000  0.650500  1
  H  H132  1  0.752200  0.584000  0.349500  1
  H  H133  1  0.198100  0.436000  0.605000  1
  H  H134  1  0.801900  0.564000  0.395000  1
  H  H135  1  0.238100  0.541900  0.567900  1
  H  H136  1  0.761900  0.458100  0.432100  1
  H  H137  1  0.232300  0.511300  0.525100  1
  H  H138  1  0.767700  0.488700  0.474900  1
  H  H139  1  0.304400  0.533100  0.521300  1
  H  H140  1  0.695600  0.466900  0.478700  1
  H  H141  1  0.902900  0.795000  0.148200  1
  H  H142  1  0.097100  0.205000  0.851800  1
  H  H143  1  0.845200  0.774000  0.128500  1
  H  H144  1  0.154800  0.226000  0.871500  1
  H  H145  1  0.804400  0.740300  0.203500  1
  H  H146  1  0.195600  0.259700  0.796500  1
  H  H147  1  0.855600  0.767600  0.223100  1
  H  H148  1  0.144400  0.232400  0.776900  1
  H  H149  1  0.047000  0.726300  0.084700  1
  H  H150  1  0.953000  0.273700  0.915300  1
  H  H151  1  0.020500  0.770700  0.118300  1
  H  H152  1  0.979500  0.229300  0.881700  1
  H  H153  1  0.995300  0.780900  0.061700  1
  H  H154  1  0.004700  0.219100  0.938300  1
  H  H155  1  0.874200  0.709100  0.086300  1
  H  H156  1  0.125800  0.290900  0.913700  1
  H  H157  1  0.955000  0.702800  0.055400  1
  H  H158  1  0.045000  0.297200  0.944600  1
  H  H159  1  0.908100  0.761500  0.051900  1
  H  H160  1  0.091900  0.238500  0.948100  1
  H  H161  1  0.828300  0.638200  0.223400  1
  H  H162  1  0.171700  0.361800  0.776600  1
  H  H163  1  0.782400  0.677300  0.259500  1
  H  H164  1  0.217600  0.322700  0.740500  1
  H  H165  1  0.839500  0.627300  0.284400  1
  H  H166  1  0.160500  0.372700  0.715600  1
  H  H167  1  0.946000  0.720100  0.265700  1
  H  H168  1  0.054000  0.279900  0.734300  1
  H  H169  1  0.942900  0.657500  0.293200  1
  H  H170  1  0.057100  0.342500  0.706800  1
  H  H171  1  0.876000  0.702200  0.306400  1
  H  H172  1  0.124000  0.297800  0.693600  1
  H  H173  1  0.060000  0.938700  0.010500  1
  H  H174  1  0.940000  0.061300  0.989500  1
  H  H175  1  0.055500  0.876900  0.042300  1
  H  H176  1  0.944500  0.123100  0.957700  1
  H  H177  1  0.171500  0.854000  0.039500  1
  H  H178  1  0.828500  0.146000  0.960500  1
  H  H179  1  0.168500  0.897600  0.983300  1
  H  H180  1  0.831500  0.102400  0.016700  1
  H  H181  1  0.003300  0.871500  0.128200  1
  H  H182  1  0.996700  0.128500  0.871800  1
  H  H183  1  0.024800  0.903300  0.164100  1
  H  H184  1  0.975200  0.096700  0.835900  1
  H  H185  1  0.080700  0.854900  0.145700  1
  H  H186  1  0.919300  0.145100  0.854300  1
  H  H187  1  0.957900  0.947600  0.077800  1
  H  H188  1  0.042100  0.052400  0.922200  1
  H  H189  1  0.005200  0.993500  0.046100  1
  H  H190  1  0.994800  0.006500  0.953900  1
  H  H191  1  0.981100  0.982300  0.110000  1
  H  H192  1  0.018900  0.017700  0.890000  1
  H  H193  1  0.291500  0.857800  0.026100  1
  H  H194  1  0.708500  0.142200  0.973900  1
  H  H195  1  0.244000  0.847000  0.084900  1
  H  H196  1  0.756000  0.153000  0.915100  1
  H  H197  1  0.298500  0.889000  0.068000  1
  H  H198  1  0.701500  0.111000  0.932000  1
  H  H199  1  0.257800  0.933200  0.957700  1
  H  H200  1  0.742200  0.066800  0.042300  1
  H  H201  1  0.263200  0.976500  0.987800  1
  H  H202  1  0.736800  0.023500  0.012200  1
  H  H203  1  0.190200  0.978500  0.968000  1
  H  H204  1  0.809800  0.021500  0.032000  1
  H  H205  1  0.902600  0.866600  0.295600  1
  H  H206  1  0.097400  0.133400  0.704400  1
  H  H207  1  0.903000  0.917700  0.244600  1
  H  H208  1  0.097000  0.082300  0.755400  1
  H  H209  1  0.820100  0.837200  0.272600  1
  H  H210  1  0.179900  0.162800  0.727400  1
  H  H211  1  0.874100  0.855300  0.217900  1
  H  H212  1  0.125900  0.144700  0.782100  1
  H  H213  1  0.904100  0.943100  0.331400  1
  H  H214  1  0.095900  0.056900  0.668600  1
  H  H215  1  0.833400  0.987800  0.332900  1
  H  H216  1  0.166600  0.012200  0.667100  1
  H  H217  1  0.884800  0.985600  0.276800  1
  H  H218  1  0.115200  0.014400  0.723200  1
  H  H219  1  0.842400  0.879100  0.376400  1
  H  H220  1  0.157600  0.120900  0.623600  1
  H  H221  1  0.776400  0.867000  0.357100  1
  H  H222  1  0.223600  0.133000  0.642900  1
  H  H223  1  0.767400  0.919200  0.378900  1
  H  H224  1  0.232600  0.080800  0.621100  1
  H  H225  1  0.858000  0.930500  0.161200  1
  H  H226  1  0.142000  0.069500  0.838800  1
  H  H227  1  0.783300  0.970200  0.155000  1
  H  H228  1  0.216700  0.029800  0.845000  1
  H  H229  1  0.797700  0.914100  0.139300  1
  H  H230  1  0.202300  0.085900  0.860700  1
  H  H231  1  0.747400  0.848400  0.196500  1
  H  H232  1  0.252600  0.151600  0.803500  1
  H  H233  1  0.683500  0.897100  0.204000  1
  H  H234  1  0.316500  0.102900  0.796000  1
  H  H235  1  0.708600  0.852700  0.255600  1
  H  H236  1  0.291400  0.147300  0.744400  1
  H  H237  1  0.584300  0.347700  0.708700  1
  H  H238  1  0.415700  0.652300  0.291300  1
  H  H239  1  0.646900  0.371200  0.719500  1
  H  H240  1  0.353100  0.628800  0.280500  1
  H  H241  1  0.692700  0.298300  0.759600  1
  H  H242  1  0.307300  0.701700  0.240400  1
  H  H243  1  0.644100  0.274900  0.733800  1
  H  H244  1  0.355900  0.725100  0.266200  1
  H  H245  1  0.507000  0.433100  0.711400  1
  H  H246  1  0.493000  0.566900  0.288600  1
  H  H247  1  0.454400  0.422300  0.768100  1
  H  H248  1  0.545600  0.577700  0.231900  1
  H  H249  1  0.475100  0.378100  0.734100  1
  H  H250  1  0.524900  0.621900  0.265900  1
  H  H251  1  0.594800  0.449200  0.741200  1
  H  H252  1  0.405200  0.550800  0.258800  1
  H  H253  1  0.632500  0.409400  0.789800  1
  H  H254  1  0.367500  0.590600  0.210200  1
  H  H255  1  0.553700  0.442400  0.801900  1
  H  H256  1  0.446300  0.557600  0.198100  1
  H  H257  1  0.714400  0.226000  0.834000  1
  H  H258  1  0.285600  0.774000  0.166000  1
  H  H259  1  0.657200  0.242000  0.883000  1
  H  H260  1  0.342800  0.758000  0.117000  1
  H  H261  1  0.695100  0.287300  0.837500  1
  H  H262  1  0.304900  0.712700  0.162500  1
  H  H263  1  0.612400  0.196400  0.791900  1
  H  H264  1  0.387600  0.803600  0.208100  1
  H  H265  1  0.541300  0.240500  0.786000  1
  H  H266  1  0.458700  0.759500  0.214000  1
  H  H267  1  0.556300  0.204800  0.844400  1
  H  H268  1  0.443700  0.795200  0.155600  1
  H  H269  1  0.911700  0.237500  0.552200  1
  H  H270  1  0.088300  0.762500  0.447800  1
  H  H271  1  0.999400  0.295700  0.509900  1
  H  H272  1  0.000600  0.704300  0.490100  1
  H  H273  1  0.873500  0.378900  0.398000  1
  H  H274  1  0.126500  0.621100  0.602000  1
  H  H275  1  0.788900  0.325400  0.444800  1
  H  H276  1  0.211100  0.674600  0.555200  1
  H  H277  1  0.228300  0.346800  0.562400  1
  H  H278  1  0.771700  0.653200  0.437600  1
  H  H279  1  0.136100  0.342200  0.520000  1
  H  H280  1  0.863900  0.657800  0.480000  1
  H  H281  1  0.194400  0.470200  0.401200  1
  H  H282  1  0.805600  0.529800  0.598800  1
  H  H283  1  0.287400  0.469800  0.445900  1
  H  H284  1  0.712600  0.530200  0.554100  1
  H  H285  1  0.064400  0.611900  0.246500  1
  H  H286  1  0.935600  0.388100  0.753500  1
  H  H287  1  0.091900  0.540400  0.320000  1
  H  H288  1  0.908100  0.459600  0.680000  1
  H  H289  1  0.930900  0.476000  0.303700  1
  H  H290  1  0.069100  0.524000  0.696300  1
  H  H291  1  0.907800  0.550000  0.229400  1
  H  H292  1  0.092200  0.450000  0.770600  1
  H  H293  1  0.211300  0.054600  0.030800  1
  H  H294  1  0.788700  0.945400  0.969200  1
  H  H295  1  0.305600  0.098200  0.028400  1
  H  H296  1  0.694400  0.901800  0.971600  1
  H  H297  1  0.363900  0.979300  0.157900  1
  H  H298  1  0.636100  0.020700  0.842100  1
  H  H299  1  0.271400  0.938800  0.153300  1
  H  H300  1  0.728600  0.061200  0.846700  1
  H  H301  1  0.590700  0.946000  0.261900  1
  H  H302  1  0.409300  0.054000  0.738100  1
  H  H303  1  0.500900  0.990100  0.204600  1
  H  H304  1  0.499100  0.009900  0.795400  1
  H  H305  1  0.627500  0.100900  0.120500  1
  H  H306  1  0.372500  0.899100  0.879500  1
  H  H307  1  0.710500  0.056600  0.174100  1
  H  H308  1  0.289500  0.943400  0.825900  1
  H  H309  1  0.435600  0.251900  0.887500  1
  H  H310  1  0.564400  0.748100  0.112500  1
  H  H311  1  0.408800  0.177900  0.958600  1
  H  H312  1  0.591200  0.822100  0.041400  1
  H  H313  1  0.568600  0.195400  0.024600  1
  H  H314  1  0.431400  0.804600  0.975400  1
  H  H315  1  0.592900  0.270800  0.949100  1
  H  H316  1  0.407100  0.729200  0.050900  1
  H  H317  1  0.119400  0.485400  0.170800  1
  H  H318  1  0.880600  0.514600  0.829200  1
  H  H319  1  0.002100  0.472900  0.146900  1
  H  H320  1  0.997900  0.527100  0.853100  1
  H  H321  1  0.961100  0.223200  0.391000  1
  H  H322  1  0.038900  0.776800  0.609000  1
  H  H323  1  0.014600  0.155000  0.470800  1
  H  H324  1  0.985400  0.845000  0.529200  1
  H  H325  1  0.332800  0.305700  0.421300  1
  H  H326  1  0.667200  0.694300  0.578700  1
  H  H327  1  0.393300  0.385800  0.369000  1
  H  H328  1  0.606700  0.614200  0.631000  1
  H  H329  1  0.923900  0.408800  0.181100  1
  H  H330  1  0.076100  0.591200  0.818900  1
  H  H331  1  0.908700  0.391200  0.245500  1
  H  H332  1  0.091300  0.608800  0.754500  1
  H  H333  1  0.957900  0.350000  0.212900  1
  H  H334  1  0.042100  0.650000  0.787100  1
  H  H335  1  0.113900  0.145800  0.514400  1
  H  H336  1  0.886100  0.854200  0.485600  1
  H  H337  1  0.132100  0.201900  0.515400  1
  H  H338  1  0.867900  0.798100  0.484600  1
  H  H339  1  0.183300  0.167600  0.476300  1
  H  H340  1  0.816700  0.832400  0.523700  1
  H  H341  1  0.293000  0.468100  0.257500  1
  H  H342  1  0.707000  0.531900  0.742500  1
  H  H343  1  0.376500  0.447600  0.259500  1
  H  H344  1  0.623500  0.552400  0.740500  1
  H  H345  1  0.329000  0.481800  0.299900  1
  H  H346  1  0.671000  0.518200  0.700100  1
  H  H347  1  0.484800  0.031900  0.343700  1
  H  H348  1  0.515200  0.968100  0.656300  1
  H  H349  1  0.540900  0.107100  0.276500  1
  H  H350  1  0.459100  0.892900  0.723500  1
  H  H351  1  0.494600  0.350500  0.026100  1
  H  H352  1  0.505400  0.649500  0.973900  1
  H  H353  1  0.381200  0.328300  0.013500  1
  H  H354  1  0.618800  0.671700  0.986500  1
  H  H355  1  0.104200  0.132600  0.115100  1
  H  H356  1  0.895800  0.867400  0.884900  1
  H  H357  1  0.167400  0.077000  0.191900  1
  H  H358  1  0.832600  0.923000  0.808100  1
  H  H359  1  0.382400  0.984200  0.353000  1
  H  H360  1  0.617600  0.015800  0.647000  1
  H  H361  1  0.364700  0.986500  0.295700  1
  H  H362  1  0.635300  0.013500  0.704300  1
  H  H363  1  0.315200  0.025500  0.330800  1
  H  H364  1  0.684800  0.974500  0.669200  1
  H  H365  1  0.578600  0.317300  0.093800  1
  H  H366  1  0.421400  0.682700  0.906200  1
  H  H367  1  0.591100  0.252900  0.114000  1
  H  H368  1  0.408900  0.747100  0.886000  1
  H  H369  1  0.540600  0.288200  0.152300  1
  H  H370  1  0.459400  0.711800  0.847700  1
  H  H371  1  0.204800  0.242800  0.033100  1
  H  H372  1  0.795200  0.757200  0.966900  1
  H  H373  1  0.121300  0.239800  0.051600  1
  H  H374  1  0.878700  0.760200  0.948400  1
  H  H375  1  0.171300  0.200200  0.017500  1
  H  H376  1  0.828700  0.799800  0.982500  1
  H  H377  1  0.008200  0.280900  0.142400  1
  H  H378  1  0.991800  0.719100  0.857600  1
  H  H379  1  0.099600  0.340300  0.114600  1
  H  H380  1  0.900400  0.659700  0.885400  1
  H  H381  1  0.982900  0.194600  0.215600  1
  H  H382  1  0.017100  0.805400  0.784400  1
  H  H383  1  0.013300  0.188800  0.269100  1
  H  H384  1  0.986700  0.811200  0.730900  1
  H  H385  1  0.058300  0.157300  0.225700  1
  H  H386  1  0.941700  0.842700  0.774300  1
  H  H387  1  0.452500  0.392000  0.162100  1
  H  H388  1  0.547500  0.608000  0.837900  1
  H  H389  1  0.444900  0.324500  0.250700  1
  H  H390  1  0.555100  0.675500  0.749300  1
  H  H391  1  0.288000  0.404300  0.104400  1
  H  H392  1  0.712000  0.595700  0.895600  1
  H  H393  1  0.366800  0.417500  0.079000  1
  H  H394  1  0.633200  0.582500  0.921000  1
  H  H395  1  0.316200  0.449300  0.120400  1
  H  H396  1  0.683800  0.550700  0.879600  1
  H  H397  1  0.290800  0.078700  0.422900  1
  H  H398  1  0.709200  0.921300  0.577100  1
  H  H399  1  0.189400  0.099400  0.372800  1
  H  H400  1  0.810600  0.900600  0.627200  1
  H  H401  1  0.393900  0.123000  0.423000  1
  H  H402  1  0.606100  0.877000  0.577000  1
  H  H403  1  0.377000  0.187100  0.400500  1
  H  H404  1  0.623000  0.812900  0.599500  1
  H  H405  1  0.426400  0.151100  0.362400  1
  H  H406  1  0.573600  0.848900  0.637600  1
  H  H407  1  0.889100  0.254400  0.329300  1
  H  H408  1  0.110900  0.745600  0.670700  1
  H  H409  1  0.967000  0.210600  0.398600  1
  H  H410  1  0.033000  0.789400  0.601400  1
  H  H411  1  0.883700  0.336700  0.248300  1
  H  H412  1  0.116300  0.663300  0.751700  1
  H  H413  1  0.962400  0.348500  0.219700  1
  H  H414  1  0.037600  0.651500  0.780300  1
  H  H415  1  0.913600  0.384500  0.258000  1
  H  H416  1  0.086400  0.615500  0.742000  1
  H  H417  1  0.313900  0.233900  0.499600  1
  H  H418  1  0.686100  0.766100  0.500400  1
  H  H419  1  0.340800  0.314300  0.424100  1
  H  H420  1  0.659200  0.685700  0.575900  1
  H  H421  1  0.221800  0.171000  0.527500  1
  H  H422  1  0.778200  0.829000  0.472500  1
  H  H423  1  0.194700  0.166400  0.476100  1
  H  H424  1  0.805300  0.833600  0.523900  1
  H  H425  1  0.144800  0.202400  0.514000  1
  H  H426  1  0.855200  0.797600  0.486000  1
  H  H427  1  0.205100  0.534100  0.181000  1
  H  H428  1  0.794900  0.465900  0.819000  1
  H  H429  1  0.108000  0.487600  0.178100  1
  H  H430  1  0.892000  0.512400  0.821900  1
  H  H431  1  0.316500  0.507400  0.227000  1
  H  H432  1  0.683500  0.492600  0.773000  1
  H  H433  1  0.332100  0.445800  0.260500  1
  H  H434  1  0.667900  0.554200  0.739500  1
  H  H435  1  0.284600  0.490300  0.289800  1
  H  H436  1  0.715400  0.509700  0.710200  1
  H  H437  1  0.611500  0.167800  0.247200  1
  H  H438  1  0.388500  0.832200  0.752800  1
  H  H439  1  0.531900  0.099100  0.288900  1
  H  H440  1  0.468100  0.900900  0.711100  1
  H  H441  1  0.613600  0.254400  0.163800  1
  H  H442  1  0.386400  0.745600  0.836200  1
  H  H443  1  0.535500  0.279300  0.148700  1
  H  H444  1  0.464500  0.720700  0.851300  1
  H  H445  1  0.589600  0.240000  0.116000  1
  H  H446  1  0.410400  0.760000  0.884000  1
  H  H447  1  0.191800  0.998900  0.268400  1
  H  H448  1  0.808200  0.001100  0.731600  1
  H  H449  1  0.158200  0.074400  0.190500  1
  H  H450  1  0.841800  0.925600  0.809500  1
  H  H451  1  0.286300  0.974300  0.329700  1
  H  H452  1  0.713700  0.025700  0.670300  1
  H  H453  1  0.314300  0.026500  0.331200  1
  H  H454  1  0.685700  0.973500  0.668800  1
  H  H455  1  0.362300  0.987400  0.295800  1
  H  H456  1  0.637700  0.012600  0.704200  1
  H  H457  1  0.286100  0.328700  0.973600  1
  H  H458  1  0.713900  0.671300  0.026400  1
  H  H459  1  0.394600  0.323800  0.011900  1
  H  H460  1  0.605400  0.676200  0.988100  1
  H  H461  1  0.190600  0.214700  0.051500  1
  H  H462  1  0.809400  0.785300  0.948500  1
  H  H463  1  0.215000  0.236000  0.987900  1
  H  H464  1  0.785000  0.764000  0.012100  1
  H  H465  1  0.167300  0.276700  0.021600  1
  H  H466  1  0.832700  0.723300  0.978400  1
  H  H467  1  0.271200  0.581300  0.012600  1
  H  H468  1  0.728800  0.418700  0.987400  1
  H  H469  1  0.342200  0.543100  0.944800  1
  H  H470  1  0.657800  0.456900  0.055200  1
  H  H471  1  0.225400  0.423000  0.990700  1
  H  H472  1  0.774600  0.577000  0.009300  1
  H  H473  1  0.138100  0.473200  0.042100  1
  H  H474  1  0.861900  0.526800  0.957900  1
  H  H475  1  0.049000  0.253100  0.181800  1
  H  H476  1  0.951000  0.746900  0.818200  1
  H  H477  1  0.056100  0.331500  0.101900  1
  H  H478  1  0.943900  0.668500  0.898100  1
  H  H479  1  0.211400  0.395700  0.097400  1
  H  H480  1  0.788600  0.604300  0.902600  1
  H  H481  1  0.132400  0.418500  0.083500  1
  H  H482  1  0.867600  0.581500  0.916500  1
  H  H483  1  0.187800  0.380900  0.049700  1
  H  H484  1  0.812200  0.619100  0.950300  1
  H  H485  1  0.391900  0.389000  0.163100  1
  H  H486  1  0.608100  0.611000  0.836900  1
  H  H487  1  0.492100  0.355800  0.215200  1
  H  H488  1  0.507900  0.644200  0.784800  1
  H  H489  1  0.516300  0.284100  0.303300  1
  H  H490  1  0.483700  0.715900  0.696700  1
  H  H491  1  0.486800  0.230300  0.308500  1
  H  H492  1  0.513200  0.769700  0.691500  1
  H  H493  1  0.441600  0.272900  0.341000  1
  H  H494  1  0.558400  0.727100  0.659000  1
  H  H495  1  0.310900  0.127300  0.401600  1
  H  H496  1  0.689100  0.872700  0.598400  1
  H  H497  1  0.212000  0.074800  0.422200  1
  H  H498  1  0.788000  0.925200  0.577800  1
  H  H499  1  0.106600  0.073800  0.377300  1
  H  H500  1  0.893400  0.926200  0.622700  1
  H  H501  1  0.122500  0.099000  0.313500  1
  H  H502  1  0.877500  0.901000  0.686500  1
  H  H503  1  0.072300  0.134700  0.351600  1
  H  H504  1  0.927700  0.865300  0.648400  1
  Pd  Pd505  1  0.761000  0.235430  0.537860  1
  Pd  Pd506  1  0.239000  0.764570  0.462140  1
  Pd  Pd507  1  0.348790  0.407480  0.543850  1
  Pd  Pd508  1  0.651210  0.592520  0.456150  1
  Pd  Pd509  1  0.963260  0.655330  0.174660  1
  Pd  Pd510  1  0.036740  0.344670  0.825340  1
  Pd  Pd511  1  0.151250  0.956080  0.092650  1
  Pd  Pd512  1  0.848750  0.043920  0.907350  1
  Pd  Pd513  1  0.739120  0.961990  0.264830  1
  Pd  Pd514  1  0.260880  0.038010  0.735170  1
  Pd  Pd515  1  0.536810  0.324890  0.844750  1
  Pd  Pd516  1  0.463190  0.675110  0.155250  1
  Au  Au517  1  0.177270  0.406060  0.283670  1
  Au  Au518  1  0.822730  0.593940  0.716330  1
  Au  Au519  1  0.042710  0.326260  0.317250  1
  Au  Au520  1  0.957290  0.673740  0.682750  1
  Au  Au521  1  0.178810  0.293300  0.396160  1
  Au  Au522  1  0.821190  0.706700  0.603840  1
  Au  Au523  1  0.321170  0.103750  0.206830  1
  Au  Au524  1  0.678830  0.896250  0.793170  1
  Au  Au525  1  0.457150  0.182740  0.173740  1
  Au  Au526  1  0.542850  0.817260  0.826260  1
  Au  Au527  1  0.322480  0.216220  0.093990  1
  Au  Au528  1  0.677520  0.783780  0.906010  1
  Au  Au529  1  0.179000  0.199390  0.271050  1
  Au  Au530  1  0.821000  0.800610  0.728950  1
  Au  Au531  1  0.235060  0.315140  0.177060  1
  Au  Au532  1  0.764940  0.684860  0.822940  1
  Au  Au533  1  0.331900  0.244220  0.283920  1
  Au  Au534  1  0.668100  0.755780  0.716080  1
  Au  Au535  1  0.074200  0.373660  0.277240  1
  Au  Au536  1  0.925800  0.626340  0.722760  1
  Au  Au537  1  0.113170  0.271130  0.391860  1
  Au  Au538  1  0.886830  0.728870  0.608140  1
  Au  Au539  1  0.224470  0.368620  0.333080  1
  Au  Au540  1  0.775530  0.631380  0.666920  1
  Au  Au541  1  0.386290  0.107900  0.229020  1
  Au  Au542  1  0.613710  0.892100  0.770980  1
  Au  Au543  1  0.425730  0.222390  0.126810  1
  Au  Au544  1  0.574270  0.777610  0.873190  1
  Au  Au545  1  0.275350  0.167180  0.131500  1
  Au  Au546  1  0.724650  0.832820  0.868500  1
  Au  Au547  1  0.168810  0.215910  0.255790  1
  Au  Au548  1  0.831190  0.784090  0.744210  1
  Au  Au549  1  0.264990  0.323010  0.184830  1
  Au  Au550  1  0.735010  0.676990  0.815170  1
  Au  Au551  1  0.320080  0.228660  0.300810  1
  Au  Au552  1  0.679920  0.771340  0.699190  1
  C  C553  1  0.780100  0.207300  0.436800  1
  C  C554  1  0.219900  0.792700  0.563200  1
  C  C555  1  0.812600  0.180700  0.396100  1
  C  C556  1  0.187400  0.819300  0.603900  1
  C  C557  1  0.866200  0.137400  0.404600  1
  C  C558  1  0.133800  0.862600  0.595400  1
  C  C559  1  0.886900  0.119600  0.455400  1
  C  C560  1  0.113100  0.880400  0.544600  1
  C  C561  1  0.851800  0.148200  0.493500  1
  C  C562  1  0.148200  0.851800  0.506500  1
  C  C563  1  0.904200  0.110800  0.361800  1
  C  C564  1  0.095800  0.889200  0.638200  1
  C  C565  1  0.880000  0.120700  0.313700  1
  C  C566  1  0.120000  0.879300  0.686300  1
  C  C567  1  0.914300  0.095300  0.274800  1
  C  C568  1  0.085700  0.904700  0.725200  1
  C  C569  1  0.978600  0.061400  0.279400  1
  C  C570  1  0.021400  0.938600  0.720600  1
  C  C571  1  0.998400  0.045300  0.326400  1
  C  C572  1  0.001600  0.954700  0.673600  1
  C  C573  1  0.959900  0.067900  0.368000  1
  C  C574  1  0.040100  0.932100  0.632000  1
  C  C575  1  0.019900  0.037800  0.233500  1
  C  C576  1  0.980100  0.962200  0.766500  1
  C  C577  1  0.013600  0.063900  0.180900  1
  C  C578  1  0.986400  0.936100  0.819100  1
  C  C579  1  0.054400  0.038700  0.141600  1
  C  C580  1  0.945600  0.961300  0.858400  1
  C  C581  1  0.097300  0.964800  0.202400  1
  C  C582  1  0.902700  0.035200  0.797600  1
  C  C583  1  0.060600  0.986900  0.245900  1
  C  C584  1  0.939400  0.013100  0.754100  1
  C  C585  1  0.402300  0.298000  0.535700  1
  C  C586  1  0.597700  0.702000  0.464300  1
  C  C587  1  0.438100  0.254700  0.513700  1
  C  C588  1  0.561900  0.745300  0.486300  1
  C  C589  1  0.480700  0.266100  0.462500  1
  C  C590  1  0.519300  0.733900  0.537500  1
  C  C591  1  0.485300  0.318700  0.436600  1
  C  C592  1  0.514700  0.681300  0.563400  1
  C  C593  1  0.446500  0.359300  0.461300  1
  C  C594  1  0.553500  0.640700  0.538700  1
  C  C595  1  0.522900  0.220100  0.438900  1
  C  C596  1  0.477100  0.779900  0.561100  1
  C  C597  1  0.502200  0.174200  0.455000  1
  C  C598  1  0.497800  0.825800  0.545000  1
  C  C599  1  0.541600  0.132600  0.432000  1
  C  C600  1  0.458400  0.867400  0.568000  1
  C  C601  1  0.595900  0.138800  0.390200  1
  C  C602  1  0.404100  0.861200  0.609800  1
  C  C603  1  0.620400  0.184900  0.381700  1
  C  C604  1  0.379600  0.815100  0.618300  1
  C  C605  1  0.584200  0.226500  0.403900  1
  C  C606  1  0.415800  0.773500  0.596100  1
  C  C607  1  0.633700  0.095000  0.363200  1
  C  C608  1  0.366300  0.905000  0.636800  1
  C  C609  1  0.613900  0.044800  0.379400  1
  C  C610  1  0.386100  0.955200  0.620600  1
  C  C611  1  0.648600  0.006900  0.352200  1
  C  C612  1  0.351400  0.993100  0.647800  1
  C  C613  1  0.719300  0.064500  0.293000  1
  C  C614  1  0.280700  0.935500  0.707000  1
  C  C615  1  0.688200  0.104000  0.318800  1
  C  C616  1  0.311800  0.896000  0.681200  1
  C  C617  1  0.107200  0.621500  0.120000  1
  C  C618  1  0.892800  0.378500  0.880000  1
  C  C619  1  0.157200  0.597700  0.086600  1
  C  C620  1  0.842800  0.402300  0.913400  1
  C  C621  1  0.145200  0.563900  0.060800  1
  C  C622  1  0.854800  0.436100  0.939200  1
  C  C623  1  0.067300  0.562800  0.069200  1
  C  C624  1  0.932700  0.437200  0.930800  1
  C  C625  1  0.019700  0.587700  0.098500  1
  C  C626  1  0.980300  0.412300  0.901500  1
  C  C627  1  0.199000  0.532800  0.025800  1
  C  C628  1  0.801000  0.467200  0.974200  1
  C  C629  1  0.301700  0.474000  0.967000  1
  C  C630  1  0.698300  0.526000  0.033000  1
  C  C631  1  0.267600  0.508500  0.042600  1
  C  C632  1  0.732400  0.491500  0.957400  1
  C  C633  1  0.319300  0.479800  0.013200  1
  C  C634  1  0.680700  0.520200  0.986800  1
  C  C635  1  0.241300  0.496300  0.947800  1
  C  C636  1  0.758700  0.503700  0.052200  1
  C  C637  1  0.194600  0.530100  0.974600  1
  C  C638  1  0.805400  0.469900  0.025400  1
  C  C639  1  0.356500  0.438900  0.935800  1
  C  C640  1  0.643500  0.561100  0.064200  1
  C  C641  1  0.431900  0.432000  0.936200  1
  C  C642  1  0.568100  0.568000  0.063800  1
  C  C643  1  0.479200  0.401500  0.912900  1
  C  C644  1  0.520800  0.598500  0.087100  1
  C  C645  1  0.392200  0.381100  0.879100  1
  C  C646  1  0.607800  0.618900  0.120900  1
  C  C647  1  0.340300  0.413600  0.904800  1
  C  C648  1  0.659700  0.586400  0.095200  1
  C  C649  1  0.631700  0.226400  0.607500  1
  C  C650  1  0.368300  0.773600  0.392500  1
  C  C651  1  0.659300  0.255500  0.629100  1
  C  C652  1  0.340700  0.744500  0.370900  1
  C  C653  1  0.636800  0.188300  0.536500  1
  C  C654  1  0.363200  0.811700  0.463500  1
  C  C655  1  0.699200  0.140200  0.603500  1
  C  C656  1  0.300800  0.859800  0.396500  1
  C  C657  1  0.693300  0.337100  0.566700  1
  C  C658  1  0.306700  0.662900  0.433300  1
  C  C659  1  0.777800  0.280900  0.626400  1
  C  C660  1  0.222200  0.719100  0.373600  1
  C  C661  1  0.420400  0.461700  0.594700  1
  C  C662  1  0.579600  0.538300  0.405300  1
  C  C663  1  0.341500  0.476700  0.608900  1
  C  C664  1  0.658500  0.523300  0.391100  1
  C  C665  1  0.456900  0.364200  0.615400  1
  C  C666  1  0.543100  0.635800  0.384600  1
  C  C667  1  0.501800  0.420400  0.534300  1
  C  C668  1  0.498200  0.579600  0.465700  1
  C  C669  1  0.230200  0.446800  0.622400  1
  C  C670  1  0.769800  0.553200  0.377600  1
  C  C671  1  0.264400  0.517300  0.545900  1
  C  C672  1  0.735600  0.482700  0.454100  1
  C  C673  1  0.884500  0.762300  0.149900  1
  C  C674  1  0.115500  0.237700  0.850100  1
  C  C675  1  0.855300  0.741300  0.203000  1
  C  C676  1  0.144700  0.258700  0.797000  1
  C  C677  1  0.007000  0.753600  0.094400  1
  C  C678  1  0.993000  0.246400  0.905600  1
  C  C679  1  0.918000  0.725000  0.075200  1
  C  C680  1  0.082000  0.275000  0.924800  1
  C  C681  1  0.829100  0.655200  0.251700  1
  C  C682  1  0.170900  0.344800  0.748300  1
  C  C683  1  0.914900  0.692600  0.278400  1
  C  C684  1  0.085100  0.307400  0.721600  1
  C  C685  1  0.079600  0.907700  0.038200  1
  C  C686  1  0.920400  0.092300  0.961800  1
  C  C687  1  0.158700  0.893000  0.022700  1
  C  C688  1  0.841300  0.107000  0.977300  1
  C  C689  1  0.042500  0.885100  0.135100  1
  C  C690  1  0.957500  0.114900  0.864900  1
  C  C691  1  0.996000  0.965700  0.079700  1
  C  C692  1  0.004000  0.034300  0.920300  1
  C  C693  1  0.265400  0.874300  0.055200  1
  C  C694  1  0.734600  0.125700  0.944800  1
  C  C695  1  0.231600  0.954700  0.982800  1
  C  C696  1  0.768400  0.045300  0.017200  1
  C  C697  1  0.871700  0.894600  0.272300  1
  C  C698  1  0.128300  0.105400  0.727700  1
  C  C699  1  0.838000  0.868700  0.246000  1
  C  C700  1  0.162000  0.131300  0.754000  1
  C  C701  1  0.865000  0.964000  0.312000  1
  C  C702  1  0.135000  0.036000  0.688000  1
  C  C703  1  0.800500  0.895400  0.358600  1
  C  C704  1  0.199500  0.104600  0.641400  1
  C  C705  1  0.806400  0.932400  0.164200  1
  C  C706  1  0.193600  0.067600  0.835800  1
  C  C707  1  0.724700  0.873300  0.219000  1
  C  C708  1  0.275300  0.126700  0.781000  1
  C  C709  1  0.608600  0.349400  0.737300  1
  C  C710  1  0.391400  0.650600  0.262700  1
  C  C711  1  0.642500  0.296000  0.759600  1
  C  C712  1  0.357500  0.704000  0.240400  1
  C  C713  1  0.492600  0.405500  0.744000  1
  C  C714  1  0.507400  0.594500  0.256000  1
  C  C715  1  0.586800  0.423700  0.776700  1
  C  C716  1  0.413200  0.576300  0.223300  1
  C  C717  1  0.676100  0.253900  0.844600  1
  C  C718  1  0.323900  0.746100  0.155400  1
  C  C719  1  0.578400  0.222900  0.808300  1
  C  C720  1  0.421600  0.777100  0.191700  1
  C  C721  1  0.903400  0.267300  0.522200  1
  C  C722  1  0.096600  0.732700  0.477800  1
  C  C723  1  0.955500  0.302400  0.496800  1
  C  C724  1  0.044500  0.697600  0.503200  1
  C  C725  1  0.941800  0.345500  0.454000  1
  C  C726  1  0.058200  0.654500  0.546000  1
  C  C727  1  0.880800  0.352500  0.430700  1
  C  C728  1  0.119200  0.647500  0.569300  1
  C  C729  1  0.832700  0.319200  0.457800  1
  C  C730  1  0.167300  0.680800  0.542200  1
  C  C731  1  0.221300  0.372000  0.529000  1
  C  C732  1  0.778700  0.628000  0.471000  1
  C  C733  1  0.165400  0.369300  0.505000  1
  C  C734  1  0.834600  0.630700  0.495000  1
  C  C735  1  0.155300  0.409000  0.457600  1
  C  C736  1  0.844700  0.591000  0.542400  1
  C  C737  1  0.200300  0.444800  0.434800  1
  C  C738  1  0.799700  0.555200  0.565200  1
  C  C739  1  0.256000  0.444200  0.461200  1
  C  C740  1  0.744000  0.555800  0.538800  1
  C  C741  1  0.035800  0.584300  0.258900  1
  C  C742  1  0.964200  0.415700  0.741100  1
  C  C743  1  0.053000  0.542000  0.302800  1
  C  C744  1  0.947000  0.458000  0.697200  1
  C  C745  1  0.010600  0.502500  0.320000  1
  C  C746  1  0.989400  0.497500  0.680000  1
  C  C747  1  0.958300  0.504300  0.293000  1
  C  C748  1  0.041700  0.495700  0.707000  1
  C  C749  1  0.944500  0.548400  0.248800  1
  C  C750  1  0.055500  0.451600  0.751200  1
  C  C751  1  0.994600  0.383900  0.429300  1
  C  C752  1  0.005400  0.616100  0.570700  1
  C  C753  1  0.091300  0.413600  0.432300  1
  C  C754  1  0.908700  0.586400  0.567700  1
  C  C755  1  0.025100  0.455900  0.367000  1
  C  C756  1  0.974900  0.544100  0.633000  1
  C  C757  1  0.243500  0.039200  0.055900  1
  C  C758  1  0.756500  0.960800  0.944100  1
  C  C759  1  0.299400  0.065100  0.054400  1
  C  C760  1  0.700600  0.934900  0.945600  1
  C  C761  1  0.346500  0.041800  0.091700  1
  C  C762  1  0.653500  0.958200  0.908300  1
  C  C763  1  0.334900  0.995000  0.130600  1
  C  C764  1  0.665100  0.005000  0.869400  1
  C  C765  1  0.278700  0.972000  0.127700  1
  C  C766  1  0.721300  0.028000  0.872300  1
  C  C767  1  0.598100  0.976800  0.232800  1
  C  C768  1  0.401900  0.023200  0.767200  1
  C  C769  1  0.545000  0.002900  0.197600  1
  C  C770  1  0.455000  0.997100  0.802400  1
  C  C771  1  0.558000  0.045200  0.155100  1
  C  C772  1  0.442000  0.954800  0.844900  1
  C  C773  1  0.620100  0.068600  0.147500  1
  C  C774  1  0.379900  0.931400  0.852500  1
  C  C775  1  0.667200  0.042900  0.180300  1
  C  C776  1  0.332800  0.957100  0.819700  1
  C  C777  1  0.464000  0.239700  0.915300  1
  C  C778  1  0.536000  0.760300  0.084700  1
  C  C779  1  0.446800  0.195900  0.957200  1
  C  C780  1  0.553200  0.804100  0.042800  1
  C  C781  1  0.490300  0.179900  0.997600  1
  C  C782  1  0.509700  0.820100  0.002400  1
  C  C783  1  0.541500  0.206200  0.996100  1
  C  C784  1  0.458500  0.793800  0.003900  1
  C  C785  1  0.556100  0.251500  0.950900  1
  C  C786  1  0.443900  0.748500  0.049100  1
  C  C787  1  0.407800  0.067700  0.087200  1
  C  C788  1  0.592200  0.932300  0.912800  1
  C  C789  1  0.505800  0.069900  0.116300  1
  C  C790  1  0.494200  0.930100  0.883700  1
  C  C791  1  0.475100  0.132100  0.043900  1
  C  C792  1  0.524900  0.867900  0.956100  1
  C  C793  1  0.089200  0.459900  0.190900  1
  C  C794  1  0.910800  0.540100  0.809100  1
  C  C795  1  0.025100  0.451900  0.176500  1
  C  C796  1  0.974900  0.548100  0.823500  1
  C  C797  1  0.045700  0.392200  0.251300  1
  C  C798  1  0.954300  0.607800  0.748700  1
  C  C799  1  0.002800  0.224200  0.403700  1
  C  C800  1  0.997200  0.775800  0.596300  1
  C  C801  1  0.032000  0.186500  0.448000  1
  C  C802  1  0.968000  0.813500  0.552000  1
  C  C803  1  0.099500  0.249000  0.414800  1
  C  C804  1  0.900500  0.751000  0.585200  1
  C  C805  1  0.317300  0.334500  0.392500  1
  C  C806  1  0.682700  0.665500  0.607500  1
  C  C807  1  0.351700  0.377200  0.362400  1
  C  C808  1  0.648300  0.622800  0.637600  1
  C  C809  1  0.255600  0.386000  0.327500  1
  C  C810  1  0.744400  0.614000  0.672500  1
  C  C811  1  0.944300  0.388000  0.213400  1
  C  C812  1  0.055700  0.612000  0.786600  1
  C  C813  1  0.133600  0.178100  0.492500  1
  C  C814  1  0.866400  0.821900  0.507500  1
  C  C815  1  0.329200  0.454700  0.281100  1
  C  C816  1  0.670800  0.545300  0.718900  1
  C  C817  1  0.400000  0.087000  0.249300  1
  C  C818  1  0.600000  0.913000  0.750700  1
  C  C819  1  0.467500  0.053700  0.311900  1
  C  C820  1  0.532500  0.946300  0.688100  1
  C  C821  1  0.497900  0.095800  0.275900  1
  C  C822  1  0.502100  0.904200  0.724100  1
  C  C823  1  0.452300  0.246700  0.109400  1
  C  C824  1  0.547700  0.753300  0.890600  1
  C  C825  1  0.471900  0.321000  0.047900  1
  C  C826  1  0.528100  0.679000  0.952100  1
  C  C827  1  0.410900  0.308300  0.039400  1
  C  C828  1  0.589100  0.691700  0.960600  1
  C  C829  1  0.244400  0.172200  0.115300  1
  C  C830  1  0.755600  0.827800  0.884700  1
  C  C831  1  0.147000  0.138400  0.122800  1
  C  C832  1  0.853000  0.861600  0.877200  1
  C  C833  1  0.182600  0.106800  0.164300  1
  C  C834  1  0.817400  0.893200  0.835700  1
  C  C835  1  0.364300  0.007900  0.320600  1
  C  C836  1  0.635700  0.992100  0.679400  1
  C  C837  1  0.556300  0.286000  0.115000  1
  C  C838  1  0.443700  0.714000  0.885000  1
  C  C839  1  0.169100  0.218700  0.045200  1
  C  C840  1  0.830900  0.781300  0.954800  1
  C  C841  1  0.127600  0.243100  0.213100  1
  C  C842  1  0.872400  0.756900  0.786900  1
  C  C843  1  0.048200  0.276100  0.159600  1
  C  C844  1  0.951800  0.723900  0.840400  1
  C  C845  1  0.099200  0.308600  0.143500  1
  C  C846  1  0.900800  0.691400  0.856500  1
  C  C847  1  0.026300  0.190600  0.230600  1
  C  C848  1  0.973700  0.809400  0.769400  1
  C  C849  1  0.319900  0.333700  0.191600  1
  C  C850  1  0.680100  0.666300  0.808400  1
  C  C851  1  0.415700  0.370800  0.177600  1
  C  C852  1  0.584300  0.629200  0.822400  1
  C  C853  1  0.413200  0.332300  0.225600  1
  C  C854  1  0.586800  0.667700  0.774400  1
  C  C855  1  0.330000  0.414600  0.111300  1
  C  C856  1  0.670000  0.585400  0.888700  1
  C  C857  1  0.289400  0.187100  0.329600  1
  C  C858  1  0.710600  0.812900  0.670400  1
  C  C859  1  0.282000  0.109200  0.393500  1
  C  C860  1  0.718000  0.890800  0.606500  1
  C  C861  1  0.226100  0.120300  0.365700  1
  C  C862  1  0.773900  0.879700  0.634300  1
  C  C863  1  0.384900  0.152700  0.391200  1
  C  C864  1  0.615100  0.847300  0.608800  1
  C  C865  1  0.015500  0.313400  0.316500  1
  C  C866  1  0.984500  0.686600  0.683500  1
  C  C867  1  0.930400  0.266600  0.332000  1
  C  C868  1  0.069600  0.733400  0.668000  1
  C  C869  1  0.973500  0.242200  0.370400  1
  C  C870  1  0.026500  0.757800  0.629600  1
  C  C871  1  0.926500  0.348200  0.252400  1
  C  C872  1  0.073500  0.651800  0.747600  1
  C  C873  1  0.204100  0.271800  0.419300  1
  C  C874  1  0.795900  0.728200  0.580700  1
  C  C875  1  0.286800  0.251500  0.471500  1
  C  C876  1  0.713200  0.748500  0.528500  1
  C  C877  1  0.301700  0.296000  0.429700  1
  C  C878  1  0.698300  0.704000  0.570300  1
  C  C879  1  0.194000  0.190400  0.498400  1
  C  C880  1  0.806000  0.809600  0.501600  1
  C  C881  1  0.197800  0.426500  0.268500  1
  C  C882  1  0.802200  0.573500  0.731500  1
  C  C883  1  0.195100  0.500500  0.204100  1
  C  C884  1  0.804900  0.499500  0.795900  1
  C  C885  1  0.140000  0.475400  0.203400  1
  C  C886  1  0.860000  0.524600  0.796600  1
  C  C887  1  0.296700  0.479000  0.256000  1
  C  C888  1  0.703300  0.521000  0.744000  1
  C  C889  1  0.485300  0.183400  0.186300  1
  C  C890  1  0.514700  0.816600  0.813700  1
  C  C891  1  0.570300  0.166000  0.234400  1
  C  C892  1  0.429700  0.834000  0.765600  1
  C  C893  1  0.526000  0.127900  0.257600  1
  C  C894  1  0.474000  0.872100  0.742400  1
  C  C895  1  0.573300  0.247500  0.151400  1
  C  C896  1  0.426700  0.752500  0.848600  1
  C  C897  1  0.295800  0.082000  0.227300  1
  C  C898  1  0.704200  0.918000  0.772700  1
  C  C899  1  0.217500  0.027700  0.250100  1
  C  C900  1  0.782500  0.972300  0.749900  1
  C  C901  1  0.199000  0.069600  0.206700  1
  C  C902  1  0.801000  0.930400  0.793300  1
  C  C903  1  0.313300  0.003100  0.308600  1
  C  C904  1  0.686700  0.996900  0.691400  1
  C  C905  1  0.305000  0.233400  0.074800  1
  C  C906  1  0.695000  0.766600  0.925200  1
  C  C907  1  0.302100  0.301500  0.003400  1
  C  C908  1  0.697900  0.698500  0.996600  1
  C  C909  1  0.361200  0.299500  0.025400  1
  C  C910  1  0.638800  0.700500  0.974600  1
  C  C911  1  0.205000  0.245000  0.022000  1
  C  C912  1  0.795000  0.755000  0.978000  1
  C  C913  1  0.260100  0.551600  0.004200  1
  C  C914  1  0.739900  0.448400  0.995800  1
  C  C915  1  0.305700  0.525300  0.969100  1
  C  C916  1  0.694300  0.474700  0.030900  1
  C  C917  1  0.234000  0.456000  0.994000  1
  C  C918  1  0.766000  0.544000  0.006000  1
  C  C919  1  0.182000  0.485000  0.024100  1
  C  C920  1  0.818000  0.515000  0.975900  1
  C  C921  1  0.085500  0.274800  0.169900  1
  C  C922  1  0.914500  0.725200  0.830100  1
  C  C923  1  0.089300  0.318600  0.126300  1
  C  C924  1  0.910700  0.681400  0.873700  1
  C  C925  1  0.180700  0.307700  0.166900  1
  C  C926  1  0.819300  0.692300  0.833100  1
  C  C927  1  0.171500  0.387700  0.085400  1
  C  C928  1  0.828500  0.612300  0.914600  1
  C  C929  1  0.395800  0.357800  0.192500  1
  C  C930  1  0.604200  0.642200  0.807500  1
  C  C931  1  0.450400  0.339900  0.222100  1
  C  C932  1  0.549600  0.660100  0.777900  1
  C  C933  1  0.370300  0.287000  0.257000  1
  C  C934  1  0.629700  0.713000  0.743000  1
  C  C935  1  0.473200  0.268700  0.307400  1
  C  C936  1  0.526800  0.731300  0.692600  1
  C  C937  1  0.274200  0.133500  0.380800  1
  C  C938  1  0.725800  0.866500  0.619200  1
  C  C939  1  0.219000  0.104800  0.392100  1
  C  C940  1  0.781000  0.895200  0.607900  1
  C  C941  1  0.208200  0.168100  0.316200  1
  C  C942  1  0.791800  0.831900  0.683800  1
  C  C943  1  0.114500  0.106700  0.348800  1
  C  C944  1  0.885500  0.893300  0.651200  1
  N  N945  1  0.797700  0.190200  0.483600  1
  N  N946  1  0.202300  0.809800  0.516400  1
  N  N947  1  0.093900  0.989900  0.153000  1
  N  N948  1  0.906100  0.010100  0.847000  1
  N  N949  1  0.405700  0.347200  0.510300  1
  N  N950  1  0.594300  0.652800  0.489700  1
  N  N951  1  0.702300  0.015600  0.309700  1
  N  N952  1  0.297700  0.984400  0.690300  1
  N  N953  1  0.041800  0.619600  0.123900  1
  N  N954  1  0.958200  0.380400  0.876100  1
  N  N955  1  0.458000  0.376300  0.880500  1
  N  N956  1  0.542000  0.623700  0.119500  1
  N  N957  1  0.676400  0.196000  0.573200  1
  N  N958  1  0.323600  0.804000  0.426800  1
  N  N959  1  0.722500  0.281000  0.594500  1
  N  N960  1  0.277500  0.719000  0.405500  1
  N  N961  1  0.431800  0.412000  0.577100  1
  N  N962  1  0.568200  0.588000  0.422900  1
  N  N963  1  0.292200  0.465600  0.581200  1
  N  N964  1  0.707800  0.534400  0.418800  1
  N  N965  1  0.942900  0.727300  0.122800  1
  N  N966  1  0.057100  0.272700  0.877200  1
  N  N967  1  0.884900  0.689600  0.233200  1
  N  N968  1  0.115100  0.310400  0.766800  1
  N  N969  1  0.069300  0.921300  0.088500  1
  N  N970  1  0.930700  0.078700  0.911500  1
  N  N971  1  0.207100  0.919100  0.034400  1
  N  N972  1  0.792900  0.080900  0.965600  1
  N  N973  1  0.823500  0.926600  0.304100  1
  N  N974  1  0.176500  0.073400  0.695900  1
  N  N975  1  0.776300  0.905700  0.220200  1
  N  N976  1  0.223700  0.094300  0.779800  1
  N  N977  1  0.556000  0.379400  0.772400  1
  N  N978  1  0.444000  0.620600  0.227600  1
  N  N979  1  0.616700  0.263900  0.812300  1
  N  N980  1  0.383300  0.736100  0.187700  1
  N  N981  1  0.842300  0.278300  0.501500  1
  N  N982  1  0.157700  0.721700  0.498500  1
  N  N983  1  0.265200  0.407500  0.508000  1
  N  N984  1  0.734800  0.592500  0.492000  1
  N  N985  1  0.983900  0.588800  0.233900  1
  N  N986  1  0.016100  0.411200  0.766100  1
  N  N987  1  0.049800  0.375500  0.453600  1
  N  N988  1  0.950200  0.624500  0.546400  1
  N  N989  1  0.083000  0.453000  0.390600  1
  N  N990  1  0.917000  0.547000  0.609400  1
  N  N991  1  0.979500  0.422000  0.386300  1
  N  N992  1  0.020500  0.578000  0.613700  1
  N  N993  1  0.235000  0.992000  0.092900  1
  N  N994  1  0.765000  0.008000  0.907100  1
  N  N995  1  0.658200  0.998300  0.222100  1
  N  N996  1  0.341800  0.001700  0.777900  1
  N  N997  1  0.516200  0.265800  0.911000  1
  N  N998  1  0.483800  0.734200  0.089000  1
  N  N999  1  0.450300  0.045200  0.125300  1
  N  N1000  1  0.549700  0.954800  0.874700  1
  N  N1001  1  0.520000  0.113200  0.078100  1
  N  N1002  1  0.480000  0.886800  0.921900  1
  N  N1003  1  0.418500  0.109000  0.047100  1
  N  N1004  1  0.581500  0.891000  0.952900  1
  N  N1005  1  0.097300  0.423500  0.239200  1
  N  N1006  1  0.902700  0.576500  0.760800  1
  N  N1007  1  0.005100  0.408000  0.214500  1
  N  N1008  1  0.994900  0.592000  0.785500  1
  N  N1009  1  0.046700  0.262200  0.383000  1
  N  N1010  1  0.953300  0.737800  0.617000  1
  N  N1011  1  0.091600  0.206200  0.450400  1
  N  N1012  1  0.908400  0.793800  0.549600  1
  N  N1013  1  0.257000  0.342700  0.371900  1
  N  N1014  1  0.743000  0.657300  0.628100  1
  N  N1015  1  0.313200  0.405400  0.320100  1
  N  N1016  1  0.686800  0.594600  0.679900  1
  N  N1017  1  0.409200  0.048300  0.294800  1
  N  N1018  1  0.590800  0.951700  0.705200  1
  N  N1019  1  0.452900  0.117400  0.239500  1
  N  N1020  1  0.547100  0.882600  0.760500  1
  N  N1021  1  0.494400  0.285100  0.092100  1
  N  N1022  1  0.505600  0.714900  0.907900  1
  N  N1023  1  0.402500  0.260500  0.076600  1
  N  N1024  1  0.597500  0.739500  0.923400  1
  N  N1025  1  0.184000  0.179400  0.094600  1
  N  N1026  1  0.816000  0.820600  0.905400  1
  N  N1027  1  0.243300  0.126700  0.157800  1
  N  N1028  1  0.756700  0.873300  0.842200  1
  N  N1029  1  0.062800  0.236800  0.203000  1
  N  N1030  1  0.937200  0.763200  0.797000  1
  N  N1031  1  0.150100  0.287300  0.176800  1
  N  N1032  1  0.849900  0.712700  0.823200  1
  N  N1033  1  0.357800  0.373900  0.155700  1
  N  N1034  1  0.642200  0.626100  0.844300  1
  N  N1035  1  0.355600  0.306700  0.230800  1
  N  N1036  1  0.644400  0.693300  0.769200  1
  N  N1037  1  0.321700  0.147700  0.372900  1
  N  N1038  1  0.678300  0.852300  0.627100  1
  N  N1039  1  0.232800  0.167300  0.325700  1
  N  N1040  1  0.767200  0.832700  0.674300  1
  N  N1041  1  0.955800  0.310900  0.298500  1
  N  N1042  1  0.044200  0.689100  0.701500  1
  N  N1043  1  0.027300  0.271200  0.361100  1
  N  N1044  1  0.972700  0.728800  0.638900  1
  N  N1045  1  0.226400  0.237400  0.465200  1
  N  N1046  1  0.773600  0.762600  0.534800  1
  N  N1047  1  0.250300  0.308800  0.398000  1
  N  N1048  1  0.749700  0.691200  0.602000  1
  N  N1049  1  0.232400  0.469200  0.243300  1
  N  N1050  1  0.767600  0.530800  0.756700  1
  N  N1051  1  0.139500  0.429900  0.245100  1
  N  N1052  1  0.860500  0.570100  0.754900  1
  N  N1053  1  0.545000  0.200500  0.190300  1
  N  N1054  1  0.455000  0.799500  0.809700  1
  N  N1055  1  0.472400  0.138700  0.228100  1
  N  N1056  1  0.527600  0.861300  0.771900  1
  N  N1057  1  0.278700  0.035000  0.262200  1
  N  N1058  1  0.721300  0.965000  0.737800  1
  N  N1059  1  0.248800  0.102800  0.191000  1
  N  N1060  1  0.751200  0.897200  0.809000  1
  N  N1061  1  0.270400  0.258000  0.031700  1
  N  N1062  1  0.729600  0.742000  0.968300  1
  N  N1063  1  0.363900  0.256900  0.069900  1
  N  N1064  1  0.636100  0.743100  0.930100  1
  N  N1065  1  0.145800  0.268400  0.193500  1
  N  N1066  1  0.854200  0.731600  0.806500  1
  N  N1067  1  0.146700  0.340600  0.123100  1
  N  N1068  1  0.853300  0.659400  0.876900  1
  N  N1069  1  0.347500  0.322700  0.212900  1
  N  N1070  1  0.652500  0.677300  0.787100  1
  N  N1071  1  0.436000  0.296600  0.262000  1
  N  N1072  1  0.564000  0.703400  0.738000  1
  N  N1073  1  0.266400  0.172500  0.334100  1
  N  N1074  1  0.733600  0.827500  0.665900  1
  N  N1075  1  0.176800  0.125200  0.354700  1
  N  N1076  1  0.823200  0.874800  0.645300  1
