
#######################################################################
#
#                 Cambridge Crystallographic Data Centre
#                                CCDC 
#
#######################################################################
#
# If this CIF has been generated from an entry in the Cambridge 
# Structural Database, then it will include bibliographic, chemical, 
# crystal, experimental, refinement or atomic coordinate data resulting 
# from the CCDC's data processing and validation procedures.
#
#######################################################################

data_XEVTOJ
_chemical_formula_moiety         
'C200 H160 N8 O16 Pd2 4+,0.5(C12 H18 O1),4(C1 H4 O1),4(N1 O3 1-),7(H2 O1)'
_chemical_name_systematic        
"tetrakis(\m~2~-3,3'-((4,6-bis(2-methoxyethoxy)-1,3-phenylene)dianthracene-10,9-diyl)dipyridine)-di-palladium(ii) tetranitrate hemikis(1-(adamantan-1-yl)ethanone) methanol solvate heptahydrate"
_symmetry_cell_setting           monoclinic
_symmetry_space_group_name_H-M   'P 21/n'
_symmetry_Int_Tables_number      14
_space_group_name_Hall           '-P 2yn'
loop_
_symmetry_equiv_pos_site_id
_symmetry_equiv_pos_as_xyz
1 x,y,z
2 1/2-x,1/2+y,1/2-z
3 -x,-y,-z
4 1/2+x,1/2-y,1/2+z
_cell_length_a                   21.262(3)
_cell_length_b                   31.604(5)
_cell_length_c                   28.371(4)
_cell_angle_alpha                90
_cell_angle_beta                 95.151(2)
_cell_angle_gamma                90
_cell_volume                     18987.3
_exptl_crystal_colour            'pale yellow'
_exptl_crystal_description       plate
_cell_formula_units_Z            4
loop_
_atom_site_label
_atom_site_type_symbol
_atom_site_fract_x
_atom_site_fract_y
_atom_site_fract_z
C1 C 0.6346(4) 0.3892(2) 0.7514(3)
C2 C 0.2583(3) 0.1314(2) 0.6929(2)
C3 C 0.6885(3) 0.3780(2) 0.7279(3)
C4 C 0.7643(3) 0.2889(2) 0.5121(3)
H1 H 0.7314 0.2973 0.5306
C5 C 0.2776(3) 0.3795(2) 0.4416(2)
C6 C 0.7010(4) 0.3703(2) 0.4688(3)
C7 C 0.2244(4) 0.2233(2) 0.4790(3)
H2 H 0.2530 0.2136 0.5044
C8 C 0.4216(4) 0.4709(2) 0.5529(3)
H3 H 0.4537 0.4890 0.5670
C9 C 0.2351(4) 0.2121(2) 0.4326(3)
C10 C 0.2662(4) 0.1235(2) 0.6451(3)
C11 C 0.7418(3) 0.3652(2) 0.6541(3)
C12 C 0.7604(4) 0.2216(2) 0.6867(3)
H4 H 0.7305 0.2092 0.6639
C13 C 0.6671(4) 0.3178(2) 0.4086(3)
C14 C 0.1961(4) 0.2872(2) 0.6525(3)
H5 H 0.2306 0.2982 0.6374
C15 C 0.2006(4) 0.1472(2) 0.7079(3)
H6 H 0.1660 0.1526 0.6851
C16 C 0.2134(3) 0.1363(2) 0.6092(3)
C17 C 0.6907(4) 0.1516(2) 0.7400(3)
C18 C 0.1351(4) 0.2619(3) 0.4526(3)
H7 H 0.1008 0.2796 0.4591
C19 C 0.2892(4) 0.3032(2) 0.7600(3)
C20 C 0.6431(4) 0.2171(2) 0.7653(3)
C21 C 0.2153(3) 0.3367(2) 0.5264(3)
H8 H 0.2486 0.3181 0.5200
C22 C 0.2206(3) 0.3791(2) 0.5147(3)
C23 C 0.5752(4) 0.3971(2) 0.7247(3)
C24 C 0.7495(4) 0.2193(2) 0.7345(3)
C25 C 0.6641(4) 0.1157(2) 0.4340(3)
C26 C 0.6419(4) 0.2617(2) 0.7693(3)
H9 H 0.6763 0.2778 0.7598
C27 C 0.3853(4) 0.3109(2) 0.8138(3)
H10 H 0.4202 0.3275 0.8262
C28 C 0.3319(3) 0.3894(2) 0.4177(2)
C29 C 0.5132(4) 0.3984(2) 0.6470(3)
H11 H 0.4769 0.4071 0.6616
C30 C 0.3352(4) 0.3741(2) 0.3703(3)
H12 H 0.3723 0.3786 0.3547
C31 C 0.3097(3) 0.1233(2) 0.7276(3)
C32 C 0.8111(4) 0.2882(3) 0.4391(3)
H13 H 0.8113 0.2964 0.4069
C33 C 0.2755(3) 0.3930(2) 0.4889(3)
C34 C 0.2897(4) 0.1847(2) 0.4250(3)
C35 C 0.7500(3) 0.3246(2) 0.6384(3)
H14 H 0.7185 0.3040 0.6428
C36 C 0.6829(3) 0.3755(2) 0.6789(3)
C37 C 0.7093(3) 0.3305(2) 0.4469(3)
C38 C 0.2344(4) 0.1222(2) 0.4556(3)
H15 H 0.1987 0.1390 0.4610
C39 C 0.4230(4) 0.1025(2) 0.7495(3)
C40 C 0.3428(4) 0.3283(2) 0.7784(3)
C41 C 0.7629(4) 0.3024(2) 0.4659(3)
C42 C 0.7937(4) 0.2370(3) 0.7664(3)
H16 H 0.7881 0.2357 0.7993
C43 C 0.5189(4) 0.4088(2) 0.7514(3)
C44 C 0.5862(4) 0.1501(2) 0.7707(3)
C45 C 0.4759(4) 0.1277(2) 0.7480(3)
H17 H 0.4758 0.1481 0.7234
C46 C 0.7651(4) 0.1517(2) 0.4481(3)
H18 H 0.8015 0.1587 0.4684
C47 C 0.2457(3) 0.3205(2) 0.7244(3)
C48 C 0.2869(4) 0.1414(2) 0.4363(2)
C49 C 0.5706(3) 0.3923(2) 0.6757(2)
C50 C 0.2711(4) 0.4436(2) 0.6732(3)
H19 H 0.2774 0.4709 0.6605
C51 C 0.7460(4) 0.3684(2) 0.7563(3)
H20 H 0.7824 0.3608 0.7412
C52 C 0.6150(4) 0.0897(2) 0.4494(3)
C53 C 0.5083(4) 0.3923(3) 0.5996(3)
H21 H 0.4684 0.3943 0.5819
C54 C 0.2843(4) 0.2615(2) 0.7768(3)
H22 H 0.2507 0.2438 0.7643
C55 C 0.4878(3) 0.4584(2) 0.3515(2)
H23 H 0.4860 0.4778 0.3258
C56 C 0.7494(4) 0.3700(3) 0.8039(3)
H24 H 0.7882 0.3637 0.8218
C57 C 0.3770(4) 0.4294(2) 0.4857(3)
C58 C 0.7728(3) 0.1705(2) 0.5589(3)
H25 H 0.7387 0.1876 0.5461
C59 C 0.2270(4) 0.3571(2) 0.4167(3)
H26 H 0.1905 0.3505 0.4322
C60 C 0.3145(4) 0.4278(2) 0.7052(3)
H27 H 0.3505 0.4443 0.7154
C61 C 0.3076(4) 0.3856(2) 0.7249(3)
C62 C 0.3528(4) 0.3686(2) 0.7587(3)
C63 C 0.6356(4) 0.1284(2) 0.7517(3)
C64 C 0.6187(4) 0.3779(2) 0.6022(3)
H28 H 0.6548 0.3716 0.5861
C65 C 0.6163(3) 0.3447(2) 0.3915(2)
C66 C 0.3008(4) 0.1322(2) 0.7759(3)
H29 H 0.3343 0.1269 0.7997
C67 C 0.1235(4) 0.1240(3) 0.5528(3)
H30 H 0.0938 0.1055 0.5365
C68 C 0.3239(3) 0.4183(2) 0.5108(2)
C69 C 0.5757(4) 0.3311(2) 0.3516(3)
H31 H 0.5425 0.3491 0.3393
C70 C 0.3811(3) 0.4138(2) 0.4397(2)
C71 C 0.7737(4) 0.1278(2) 0.5463(3)
C72 C 0.6599(4) 0.1322(3) 0.3871(3)
H32 H 0.6234 0.1261 0.3663
C73 C 0.6388(4) 0.4341(2) 0.4784(3)
H33 H 0.6017 0.4503 0.4705
C74 C 0.3701(4) 0.4590(2) 0.5781(3)
H34 H 0.3685 0.4688 0.6096
C75 C 0.8543(4) 0.2573(3) 0.7033(3)
H35 H 0.8910 0.2698 0.6926
C76 C 0.6933(4) 0.1957(2) 0.7476(3)
C77 C 0.5370(4) 0.2162(3) 0.7952(3)
H36 H 0.5015 0.2010 0.8043
C78 C 0.3744(4) 0.1006(3) 0.6654(3)
C79 C 0.6218(4) 0.0734(2) 0.4953(3)
C80 C 0.2454(4) 0.1480(2) 0.7884(3)
H37 H 0.2410 0.1546 0.8207
C81 C 0.5383(4) 0.2580(3) 0.7994(3)
H38 H 0.5035 0.2723 0.8109
C82 C 0.6252(3) 0.3818(2) 0.6523(2)
C83 C 0.4755(4) 0.0699(2) 0.8193(3)
H39 H 0.4753 0.0500 0.8444
C84 C 0.7169(4) 0.1266(2) 0.4656(3)
C85 C 0.1947(4) 0.2942(2) 0.7008(3)
C86 C 0.5788(4) 0.0300(2) 0.5561(3)
H40 H 0.5482 0.0106 0.5656
C87 C 0.2533(4) 0.3616(2) 0.7078(3)
C88 C 0.2343(4) 0.0803(3) 0.4665(3)
H41 H 0.1987 0.0681 0.4793
C89 C 0.4130(4) 0.3929(2) 0.7715(3)
C90 C 0.1199(4) 0.3474(3) 0.5570(3)
H42 H 0.0849 0.3365 0.5717
C91 C 0.4245(4) 0.4562(2) 0.5084(3)
H43 H 0.4594 0.4640 0.4916
C92 C 0.5564(4) 0.0826(2) 0.4181(3)
C93 C 0.3924(4) 0.1320(3) 0.4081(3)
C94 C 0.2067(4) 0.1782(2) 0.5991(3)
H44 H 0.2359 0.1974 0.6147
C95 C 0.1706(4) 0.1078(2) 0.5851(3)
H45 H 0.1739 0.0782 0.5909
C96 C 0.5755(4) 0.0446(2) 0.5111(3)
H46 H 0.5416 0.0356 0.4893
C97 C 0.7870(3) 0.3955(2) 0.6464(3)
H47 H 0.7829 0.4238 0.6568
C98 C 0.8389(4) 0.3830(3) 0.6227(3)
H48 H 0.8701 0.4033 0.6165
C99 C 0.1202(4) 0.1669(3) 0.5444(3)
H49 H 0.0888 0.1775 0.5215
C100 C 0.3373(4) 0.0711(2) 0.4402(3)
H50 H 0.3719 0.0531 0.4351
C101 C 0.2843(4) 0.3528(2) 0.3475(3)
H51 H 0.2860 0.3435 0.3158
C102 C 0.3231(4) 0.1084(3) 0.6307(3)
C103 C 0.5478(4) 0.4078(2) 0.4021(2)
C104 C 0.5028(4) 0.1057(2) 0.4264(3)
H52 H 0.5055 0.1238 0.4533
C105 C 0.2301(4) 0.3449(2) 0.3712(3)
H53 H 0.1950 0.3308 0.3550
C106 C 0.5886(3) 0.1933(2) 0.7771(3)
C107 C 0.4684(4) 0.4537(2) 0.8044(3)
H54 H 0.4700 0.4773 0.8252
C108 C 0.4379(4) 0.4234(2) 0.4148(2)
C109 C 0.4665(4) 0.3828(2) 0.7478(3)
H55 H 0.4665 0.3579 0.7291
C110 C 0.6328(4) 0.2650(3) 0.3497(3)
H56 H 0.6371 0.2378 0.3361
C111 C 0.1948(4) 0.1547(2) 0.7546(3)
H57 H 0.1558 0.1646 0.7642
C112 C 0.4945(4) 0.4023(2) 0.4261(3)
H58 H 0.4968 0.3829 0.4517
C113 C 0.3788(4) 0.2711(2) 0.8313(3)
H59 H 0.4073 0.2604 0.8562
C114 C 0.6347(4) 0.0835(2) 0.7425(3)
H60 H 0.5992 0.0673 0.7499
C115 C 0.8450(3) 0.3429(2) 0.6087(3)
H61 H 0.8807 0.3352 0.5926
C116 C 0.3935(4) 0.1751(3) 0.3954(3)
C117 C 0.7419(4) 0.1289(2) 0.7214(3)
H62 H 0.7789 0.1438 0.7151
C118 C 0.7215(4) 0.1123(2) 0.5124(3)
C119 C 0.3674(3) 0.1081(2) 0.7138(3)
C120 C 0.8469(5) 0.2569(3) 0.7516(3)
H63 H 0.8772 0.2699 0.7737
C121 C 0.5837(4) 0.2926(3) 0.3306(3)
H64 H 0.5568 0.2843 0.3037
C122 C 0.1222(4) 0.3899(3) 0.5476(3)
H65 H 0.0891 0.4079 0.5556
C123 C 0.3400(4) 0.1146(2) 0.4280(3)
C124 C 0.2865(4) 0.0550(3) 0.4589(3)
H66 H 0.2860 0.0259 0.4670
C125 C 0.3415(4) 0.2017(3) 0.4055(3)
C126 C 0.7599(5) 0.1661(3) 0.4023(3)
H67 H 0.7927 0.1829 0.3914
C127 C 0.5625(4) 0.3830(3) 0.5769(3)
H68 H 0.5595 0.3802 0.5434
C128 C 0.5918(4) 0.2822(3) 0.7867(3)
H69 H 0.5924 0.3121 0.7903
C129 C 0.6054(3) 0.3829(2) 0.4154(2)
C130 C 0.8214(4) 0.1035(3) 0.5671(3)
H70 H 0.8230 0.0741 0.5603
C131 C 0.6475(4) 0.3954(2) 0.4540(3)
C132 C 0.1729(4) 0.4065(2) 0.5262(3)
H71 H 0.1751 0.4359 0.5197
C133 C 0.4468(4) 0.1044(3) 0.3991(3)
C134 C 0.6728(4) 0.2768(2) 0.3864(3)
H72 H 0.7055 0.2580 0.3981
C135 C 0.6393(4) 0.3900(2) 0.8016(3)
H73 H 0.6033 0.3968 0.8177
C136 C 0.6296(4) 0.0442(2) 0.5897(3)
H74 H 0.6315 0.0350 0.6217
C137 C 0.8559(4) 0.2507(2) 0.5057(3)
H75 H 0.8877 0.2323 0.5196
C138 C 0.4476(5) 0.2357(3) 0.3627(4)
H76 H 0.4821 0.2470 0.3478
C139 C 0.0980(4) 0.2537(3) 0.6957(3)
H77 H 0.0638 0.2417 0.7103
C140 C 0.3227(4) 0.4336(2) 0.5585(3)
H78 H 0.2887 0.4261 0.5765
C141 C 0.3978(5) 0.2616(3) 0.3738(4)
H79 H 0.3997 0.2909 0.3665
C142 C 0.6963(4) 0.3809(3) 0.8274(3)
H80 H 0.6994 0.3820 0.8610
C143 C 0.3321(4) 0.1024(3) 0.5826(3)
H81 H 0.2982 0.1080 0.5593
C144 C 0.6745(4) 0.0707(2) 0.5757(3)
H82 H 0.7073 0.0799 0.5983
C145 C 0.7059(5) 0.1561(3) 0.3711(3)
H83 H 0.7023 0.1661 0.3394
C146 C 0.3873(5) 0.0890(4) 0.5690(4)
H84 H 0.3927 0.0858 0.5363
C147 C 0.4953(5) 0.0521(3) 0.3507(3)
H85 H 0.4923 0.0332 0.3246
C148 C 0.2167(4) 0.4209(2) 0.6579(3)
H86 H 0.1857 0.4334 0.6360
C149 C 0.1445(4) 0.2771(3) 0.7214(3)
H87 H 0.1415 0.2814 0.7543
C150 C 0.1925(4) 0.2264(3) 0.3961(3)
H88 H 0.1972 0.2187 0.3643
C151 C 0.6740(4) 0.0854(2) 0.5273(3)
C152 C 0.5286(4) 0.1254(2) 0.7796(3)
C153 C 0.3280(4) 0.2462(2) 0.8112(3)
H89 H 0.3240 0.2179 0.8218
C154 C 0.7365(4) 0.4246(2) 0.5254(3)
H90 H 0.7670 0.4352 0.5489
C155 C 0.6822(4) 0.4484(2) 0.5127(3)
H91 H 0.6758 0.4745 0.5280
C156 C 0.2080(4) 0.3813(2) 0.6741(3)
H92 H 0.1711 0.3661 0.6630
C157 C 0.7467(4) 0.3867(2) 0.5050(3)
H93 H 0.7837 0.3709 0.5145
C158 C 0.8635(4) 0.1635(3) 0.6093(3)
H94 H 0.8937 0.1752 0.6324
C159 C 0.1427(4) 0.2522(3) 0.4070(3)
H95 H 0.1140 0.2630 0.3823
C160 C 0.7383(4) 0.0866(3) 0.7129(3)
H96 H 0.7719 0.0722 0.6998
C161 C 0.3452(4) 0.2468(3) 0.3950(3)
H97 H 0.3127 0.2656 0.4024
C162 C 0.6832(5) 0.0641(3) 0.7237(3)
H98 H 0.6805 0.0346 0.7175
C163 C 0.1037(4) 0.2488(3) 0.6480(3)
H99 H 0.0724 0.2327 0.6299
C164 C 0.8580(4) 0.2624(3) 0.4595(3)
H100 H 0.8912 0.2529 0.4419
C165 C 0.8673(4) 0.1216(3) 0.5981(4)
H101 H 0.9015 0.1050 0.6117
C166 C 0.4314(4) 0.0845(3) 0.6491(3)
H102 H 0.4655 0.0771 0.6716
C167 C 0.4453(4) 0.1933(3) 0.3742(3)
H103 H 0.4796 0.1756 0.3676
C168 C 0.4380(5) 0.0796(4) 0.6038(3)
H104 H 0.4770 0.0697 0.5941
C169 C 0.5436(3) 0.4360(2) 0.3646(2)
O1 O 0.5963(2) 0.44123(16) 0.34147(16)
C170 C 0.5913(3) 0.4582(3) 0.2954(2)
H105 H 0.5789 0.4884 0.2961
H106 H 0.5589 0.4427 0.2749
C171 C 0.6539(3) 0.4538(3) 0.2770(2)
H107 H 0.6861 0.4686 0.2984
H108 H 0.6656 0.4235 0.2762
O2 O 0.6534(3) 0.4706(2) 0.23213(19)
C172 C 0.7152(4) 0.4760(3) 0.2167(3)
H109 H 0.7117 0.4882 0.1848
H110 H 0.7364 0.4485 0.2162
H111 H 0.7399 0.4950 0.2385
C173 C 0.4345(3) 0.4522(2) 0.3765(2)
O3 O 0.3772(2) 0.47021(15) 0.36602(17)
C174 C 0.3650(3) 0.4998(2) 0.3294(3)
H112 H 0.3941 0.4947 0.3047
H113 H 0.3730 0.5286 0.3421
C175 C 0.2994(3) 0.4969(3) 0.3083(2)
H114 H 0.2946 0.5144 0.2793
H115 H 0.2901 0.4671 0.2991
O4 O 0.2563(3) 0.51021(18) 0.3390(2)
C176 C 0.2342(5) 0.4788(3) 0.3687(3)
H116 H 0.2042 0.4914 0.3890
H117 H 0.2699 0.4668 0.3885
H118 H 0.2131 0.4564 0.3494
C177 C 0.5514(4) 0.0552(3) 0.3792(3)
O5 O 0.6048(3) 0.0336(2) 0.3710(2)
C178 C 0.6130(6) 0.0189(3) 0.3247(3)
H119 H 0.5713 0.0126 0.3078
H120 H 0.6381 -0.0075 0.3266
C179 C 0.6459(6) 0.0515(4) 0.2985(4)
H121 H 0.6854 0.0602 0.3172
H122 H 0.6571 0.0397 0.2680
O6 O 0.6068(7) 0.0865(3) 0.2901(4)
C180 C 0.5866(11) 0.0958(8) 0.2430(6)
H123 H 0.5544 0.1180 0.2420
H124 H 0.5686 0.0703 0.2274
H125 H 0.6225 0.1055 0.2266
C181 C 0.4427(4) 0.0767(3) 0.3597(3)
O7 O 0.3876(3) 0.0794(2) 0.3309(2)
C182 C 0.3633(4) 0.0442(3) 0.3060(3)
H126 H 0.3176 0.0417 0.3100
H127 H 0.3845 0.0184 0.3193
C183 C 0.3720(4) 0.0470(3) 0.2554(2)
H128 H 0.3387 0.0304 0.2371
H129 H 0.3680 0.0769 0.2450
O8 O 0.4308(3) 0.0317(2) 0.2465(2)
C184 C 0.4409(6) 0.0290(5) 0.1981(3)
H130 H 0.4833 0.0178 0.1949
H131 H 0.4370 0.0572 0.1837
H132 H 0.4094 0.0100 0.1820
C185 C 0.5264(3) 0.0968(3) 0.8173(2)
O9 O 0.5787(3) 0.09745(19) 0.84915(18)
C186 C 0.5773(4) 0.0781(3) 0.8935(2)
H133 H 0.6201 0.0788 0.9104
H134 H 0.5647 0.0481 0.8891
C187 C 0.5324(6) 0.0997(3) 0.9226(4)
H135 H 0.4886 0.0942 0.9092
H136 H 0.5374 0.0885 0.9553
O10 O 0.5439(5) 0.1430(3) 0.9231(5)
C188 C 0.4919(8) 0.1695(5) 0.9290(9)
H137 H 0.5051 0.1992 0.9278
H138 H 0.4758 0.1637 0.9596
H139 H 0.4585 0.1641 0.9035
C189 C 0.4248(3) 0.0716(2) 0.7851(3)
O11 O 0.3738(2) 0.04464(15) 0.78394(16)
C190 C 0.3708(3) 0.01510(18) 0.8208(2)
H140 H 0.4134 0.0031 0.8291
H141 H 0.3424 -0.0084 0.8097
C191 C 0.3476(3) 0.0344(3) 0.8633(2)
H142 H 0.3522 0.0141 0.8900
H143 H 0.3727 0.0600 0.8725
O12 O 0.2845(3) 0.0452(2) 0.8538(2)
C192 C 0.2576(4) 0.0667(4) 0.8907(3)
H144 H 0.2132 0.0731 0.8809
H145 H 0.2806 0.0932 0.8977
H146 H 0.2603 0.0489 0.9190
C193 C 0.5179(3) 0.4456(2) 0.7775(3)
O13 O 0.5687(3) 0.47242(16) 0.7764(2)
C194 C 0.5744(4) 0.5057(3) 0.8101(4)
H147 H 0.5691 0.4942 0.8420
H148 H 0.5404 0.5267 0.8024
C195 C 0.6358(4) 0.5266(3) 0.8107(4)
H149 H 0.6386 0.5413 0.7801
H150 H 0.6393 0.5482 0.8360
O14 O 0.6851(4) 0.4985(3) 0.8180(4)
C196 C 0.7057(6) 0.4878(4) 0.8644(4)
H151 H 0.7411 0.4680 0.8645
H152 H 0.6711 0.4746 0.8796
H153 H 0.7195 0.5134 0.8819
C197 C 0.4160(3) 0.4271(2) 0.8008(3)
O15 O 0.3648(3) 0.43392(19) 0.8257(2)
C198 C 0.3706(5) 0.4589(4) 0.8657(4)
H154 H 0.3730 0.4891 0.8565
H155 H 0.4099 0.4516 0.8854
C199 C 0.3151(5) 0.4523(3) 0.8937(4)
H156 H 0.2792 0.4401 0.8735
H157 H 0.3261 0.4329 0.9205
O16 O 0.2994(4) 0.4920(2) 0.9101(3)
C200 C 0.2441(4) 0.4937(3) 0.9333(4)
H158 H 0.2379 0.5225 0.9447
H159 H 0.2478 0.4741 0.9602
H160 H 0.2080 0.4855 0.9113
N1 N 0.1513(3) 0.26555(19) 0.6259(2)
N2 N 0.1658(3) 0.32077(19) 0.5462(2)
N3 N 0.1741(3) 0.24761(19) 0.4888(2)
N4 N 0.1605(3) 0.1941(2) 0.5678(2)
N5 N 0.8109(3) 0.26410(19) 0.5320(2)
N6 N 0.8182(3) 0.1885(2) 0.5885(2)
N7 N 0.8111(3) 0.24040(19) 0.6718(2)
N8 N 0.8020(3) 0.31297(19) 0.6167(2)
Pd1 Pd 0.81287(3) 0.250926(17) 0.60199(2)
Pd2 Pd 0.16042(3) 0.257280(19) 0.55700(2)
O17 O 0.0647(4) 0.0669(2) 0.6646(3)
O18 O -0.0185(6) 0.6513(5) 0.3520(5)
O19 O 0.4812(6) 0.1816(4) 0.2326(6)
C201 C 0.4364(9) 0.1489(5) 0.2461(8)
O20 O 0.4563(8) 0.4244(6) 0.0047(6)
O21 O 0.4140(8) 0.3373(4) 0.2690(7)
H161 H 0.3808 0.3257 0.2570
C202 C 0.4130(11) 0.3828(5) 0.2566(9)
H162 H 0.4486 0.3892 0.2380
H163 H 0.4166 0.3998 0.2856
H164 H 0.3733 0.3895 0.2378
O22 O 0.0101(8) 0.0357(5) 0.5845(5)
O23 O 0.0468(8) 0.0435(6) 0.4456(6)
O24 O 0.1215(9) -0.0095(7) 0.4913(8)
C203 C 0.1041(11) 0.0224(7) 0.5262(9)
O25 O 0.0973(8) 0.5005(6) 0.5072(6)
C204 C 0.1212(13) 0.5120(9) 0.4615(8)
N9 N 0.5131(5) 0.3362(3) 0.1925(4)
O26 O 0.5386(6) 0.3559(4) 0.2296(4)
O27 O 0.4729(4) 0.3061(3) 0.1982(4)
O28 O 0.5266(5) 0.3476(3) 0.1506(4)
N10 N -0.0076(6) 0.5520(4) 0.3983(5)
O29 O 0.0366(8) 0.5764(5) 0.4176(6)
O30 O -0.0120(6) 0.5129(4) 0.4118(5)
O31 O -0.0498(8) 0.5683(5) 0.3675(6)
N12 N 0.5569(10) 0.3675(6) 0.9059(7)
O35 O 0.5733(12) 0.4054(7) 0.8940(9)
O36 O 0.5337(12) 0.3410(7) 0.8740(8)
O37 O 0.5638(12) 0.3561(8) 0.9500(7)
N13 N 0.4829(8) 0.2223(5) 0.0720(6)
O38 O 0.5144(11) 0.2416(6) 0.0406(8)
O39 O 0.4562(11) 0.2430(6) 0.1043(7)
O40 O 0.4794(10) 0.1811(5) 0.0709(8)
C205 C 0.0387(9) 0.2352(6) -0.0130(7)
H165 H 0.0452 0.2042 -0.0122
H166 H 0.0277 0.2435 -0.0464
C206 C 0.1030(10) 0.2577(7) 0.0055(8)
H167 H 0.1379 0.2495 -0.0141
C207 C 0.0900(10) 0.3072(6) 0.0024(11)
H168 H 0.1294 0.3228 0.0121
H169 H 0.0760 0.3151 -0.0306
C208 C 0.0371(11) 0.3194(8) 0.0360(6)
H170 H 0.0303 0.3507 0.0345
C209 C -0.0258(10) 0.2965(6) 0.0157(6)
H171 H -0.0370 0.3059 -0.0172
H172 H -0.0606 0.3049 0.0348
C210 C -0.0192(11) 0.2464(6) 0.0166(7)
H173 H -0.0590 0.2319 0.0039
C211 C 0.0012(8) 0.2336(6) 0.0698(6)
H174 H 0.0075 0.2026 0.0716
H175 H -0.0334 0.2409 0.0895
C212 C 0.0640(8) 0.2565(6) 0.0907(8)
C213 C 0.1182(9) 0.2432(9) 0.0589(6)
H176 H 0.1233 0.2121 0.0600
H177 H 0.1585 0.2561 0.0719
C214 C 0.0503(13) 0.3057(5) 0.0898(8)
H178 H 0.0871 0.3213 0.1050
H179 H 0.0131 0.3120 0.1073
C215 C 0.0800(9) 0.2419(6) 0.1408(9)
C216 C 0.0249(15) 0.2296(11) 0.1677(13)
H180 H 0.0403 0.2209 0.1998
H181 H 0.0022 0.2059 0.1515
H182 H -0.0037 0.2538 0.1692
O41 O 0.1373(10) 0.2397(7) 0.1536(9)
O42 O 0.3662(5) 0.2168(3) 0.6473(5)
O43 O -0.1297(6) 0.1900(4) 0.1307(5)
loop_
_geom_bond_atom_site_label_1
_geom_bond_atom_site_label_2
_geom_bond_site_symmetry_1
_geom_bond_site_symmetry_2
C1 C3 1_555 1_555
C2 C10 1_555 1_555
C3 C36 1_555 1_555
C4 H1 1_555 1_555
C5 C28 1_555 1_555
C6 C37 1_555 1_555
C7 H2 1_555 1_555
C8 H3 1_555 1_555
C9 C7 1_555 1_555
C10 C16 1_555 1_555
C11 C35 1_555 1_555
C12 H4 1_555 1_555
C13 C37 1_555 1_555
C14 H5 1_555 1_555
C15 C2 1_555 1_555
H6 C15 1_555 1_555
C16 C94 1_555 1_555
C17 C63 1_555 1_555
C18 H7 1_555 1_555
C19 C40 1_555 1_555
C20 C26 1_555 1_555
C21 H8 1_555 1_555
C22 C21 1_555 1_555
C23 C1 1_555 1_555
C24 C12 1_555 1_555
C25 C52 1_555 1_555
C26 H9 1_555 1_555
C27 H10 1_555 1_555
C28 C30 1_555 1_555
C29 H11 1_555 1_555
C30 H12 1_555 1_555
C31 C2 1_555 1_555
C32 H13 1_555 1_555
C33 C5 1_555 1_555
C34 C9 1_555 1_555
C35 H14 1_555 1_555
C36 C11 1_555 1_555
C37 C41 1_555 1_555
C38 H15 1_555 1_555
C39 C45 1_555 1_555
C40 C27 1_555 1_555
C41 C4 1_555 1_555
C42 C24 1_555 1_555
H16 C42 1_555 1_555
C43 C23 1_555 1_555
C44 C63 1_555 1_555
C45 H17 1_555 1_555
C46 H18 1_555 1_555
C47 C19 1_555 1_555
C48 C34 1_555 1_555
C49 C23 1_555 1_555
C50 H19 1_555 1_555
C51 C3 1_555 1_555
H20 C51 1_555 1_555
C52 C79 1_555 1_555
C53 C29 1_555 1_555
H21 C53 1_555 1_555
C54 C19 1_555 1_555
H22 C54 1_555 1_555
C55 H23 1_555 1_555
C56 C51 1_555 1_555
H24 C56 1_555 1_555
C57 C68 1_555 1_555
C58 H25 1_555 1_555
C59 C5 1_555 1_555
H26 C59 1_555 1_555
C60 C50 1_555 1_555
H27 C60 1_555 1_555
C61 C60 1_555 1_555
C62 C40 1_555 1_555
C63 C114 1_555 1_555
C64 H28 1_555 1_555
C65 C13 1_555 1_555
C66 C31 1_555 1_555
H29 C66 1_555 1_555
C67 H30 1_555 1_555
C68 C33 1_555 1_555
C69 C65 1_555 1_555
H31 C69 1_555 1_555
C70 C28 1_555 1_555
C71 C58 1_555 1_555
C72 C25 1_555 1_555
H32 C72 1_555 1_555
C73 H33 1_555 1_555
C74 C8 1_555 1_555
H34 C74 1_555 1_555
C75 H35 1_555 1_555
C76 C17 1_555 1_555
C77 H36 1_555 1_555
C78 C102 1_555 1_555
C79 C96 1_555 1_555
C80 C66 1_555 1_555
H37 C80 1_555 1_555
C81 C77 1_555 1_555
H38 C81 1_555 1_555
C82 C36 1_555 1_555
C83 H39 1_555 1_555
C84 C25 1_555 1_555
C85 C14 1_555 1_555
C86 H40 1_555 1_555
C87 C47 1_555 1_555
C88 C38 1_555 1_555
H41 C88 1_555 1_555
C89 C62 1_555 1_555
C90 H42 1_555 1_555
C91 C8 1_555 1_555
H43 C91 1_555 1_555
C92 C52 1_555 1_555
C93 C116 1_555 1_555
C94 H44 1_555 1_555
C95 C16 1_555 1_555
H45 C95 1_555 1_555
C96 C86 1_555 1_555
H46 C96 1_555 1_555
C97 C11 1_555 1_555
H47 C97 1_555 1_555
C98 C97 1_555 1_555
H48 C98 1_555 1_555
C99 C67 1_555 1_555
H49 C99 1_555 1_555
C100 H50 1_555 1_555
C101 C30 1_555 1_555
H51 C101 1_555 1_555
C102 C10 1_555 1_555
C103 C112 1_555 1_555
C104 C92 1_555 1_555
H52 C104 1_555 1_555
C105 C59 1_555 1_555
H53 C105 1_555 1_555
C106 C20 1_555 1_555
C107 H54 1_555 1_555
C108 C70 1_555 1_555
C109 C43 1_555 1_555
H55 C109 1_555 1_555
C110 H56 1_555 1_555
C111 C15 1_555 1_555
H57 C111 1_555 1_555
C112 C108 1_555 1_555
H58 C112 1_555 1_555
C113 C27 1_555 1_555
H59 C113 1_555 1_555
C114 H60 1_555 1_555
C115 C98 1_555 1_555
H61 C115 1_555 1_555
C116 C125 1_555 1_555
C117 C17 1_555 1_555
H62 C117 1_555 1_555
C118 C71 1_555 1_555
C119 C31 1_555 1_555
C120 C42 1_555 1_555
H63 C120 1_555 1_555
C121 C69 1_555 1_555
H64 C121 1_555 1_555
C122 C90 1_555 1_555
H65 C122 1_555 1_555
C123 C48 1_555 1_555
C124 C88 1_555 1_555
H66 C124 1_555 1_555
C125 C34 1_555 1_555
C126 C46 1_555 1_555
H67 C126 1_555 1_555
C127 C53 1_555 1_555
H68 C127 1_555 1_555
C128 C26 1_555 1_555
H69 C128 1_555 1_555
C129 C65 1_555 1_555
C130 C71 1_555 1_555
H70 C130 1_555 1_555
C131 C6 1_555 1_555
C132 C22 1_555 1_555
H71 C132 1_555 1_555
C133 C93 1_555 1_555
C134 C13 1_555 1_555
H72 C134 1_555 1_555
C135 C1 1_555 1_555
H73 C135 1_555 1_555
C136 C86 1_555 1_555
H74 C136 1_555 1_555
C137 H75 1_555 1_555
C138 H76 1_555 1_555
C139 H77 1_555 1_555
C140 C68 1_555 1_555
H78 C140 1_555 1_555
C141 C138 1_555 1_555
H79 C141 1_555 1_555
C142 C56 1_555 1_555
H80 C142 1_555 1_555
C143 C102 1_555 1_555
H81 C143 1_555 1_555
C144 C136 1_555 1_555
H82 C144 1_555 1_555
C145 C72 1_555 1_555
H83 C145 1_555 1_555
C146 C143 1_555 1_555
H84 C146 1_555 1_555
C147 H85 1_555 1_555
C148 C50 1_555 1_555
H86 C148 1_555 1_555
C149 C85 1_555 1_555
H87 C149 1_555 1_555
C150 C9 1_555 1_555
H88 C150 1_555 1_555
C151 C79 1_555 1_555
C152 C44 1_555 1_555
C153 C54 1_555 1_555
H89 C153 1_555 1_555
C154 H90 1_555 1_555
C155 C73 1_555 1_555
H91 C155 1_555 1_555
C156 C87 1_555 1_555
H92 C156 1_555 1_555
C157 C6 1_555 1_555
H93 C157 1_555 1_555
C158 H94 1_555 1_555
C159 C18 1_555 1_555
H95 C159 1_555 1_555
C160 C117 1_555 1_555
H96 C160 1_555 1_555
C161 C125 1_555 1_555
H97 C161 1_555 1_555
C162 C114 1_555 1_555
H98 C162 1_555 1_555
C163 C139 1_555 1_555
H99 C163 1_555 1_555
C164 C32 1_555 1_555
H100 C164 1_555 1_555
C165 C130 1_555 1_555
H101 C165 1_555 1_555
C166 C78 1_555 1_555
H102 C166 1_555 1_555
C167 C116 1_555 1_555
H103 C167 1_555 1_555
C168 C146 1_555 1_555
H104 C168 1_555 1_555
C169 C55 1_555 1_555
O1 C169 1_555 1_555
C170 O1 1_555 1_555
H105 C170 1_555 1_555
H106 C170 1_555 1_555
C171 C170 1_555 1_555
H107 C171 1_555 1_555
H108 C171 1_555 1_555
O2 C171 1_555 1_555
C172 O2 1_555 1_555
H109 C172 1_555 1_555
H110 C172 1_555 1_555
H111 C172 1_555 1_555
C173 C55 1_555 1_555
O3 C173 1_555 1_555
C174 O3 1_555 1_555
H112 C174 1_555 1_555
H113 C174 1_555 1_555
C175 C174 1_555 1_555
H114 C175 1_555 1_555
H115 C175 1_555 1_555
O4 C175 1_555 1_555
C176 O4 1_555 1_555
H116 C176 1_555 1_555
H117 C176 1_555 1_555
H118 C176 1_555 1_555
C177 C92 1_555 1_555
O5 C177 1_555 1_555
C178 O5 1_555 1_555
H119 C178 1_555 1_555
H120 C178 1_555 1_555
C179 C178 1_555 1_555
H121 C179 1_555 1_555
H122 C179 1_555 1_555
O6 C179 1_555 1_555
C180 O6 1_555 1_555
H123 C180 1_555 1_555
H124 C180 1_555 1_555
H125 C180 1_555 1_555
C181 C133 1_555 1_555
O7 C181 1_555 1_555
C182 O7 1_555 1_555
H126 C182 1_555 1_555
H127 C182 1_555 1_555
C183 C182 1_555 1_555
H128 C183 1_555 1_555
H129 C183 1_555 1_555
O8 C183 1_555 1_555
C184 O8 1_555 1_555
H130 C184 1_555 1_555
H131 C184 1_555 1_555
H132 C184 1_555 1_555
C185 C83 1_555 1_555
O9 C185 1_555 1_555
C186 O9 1_555 1_555
H133 C186 1_555 1_555
H134 C186 1_555 1_555
C187 C186 1_555 1_555
H135 C187 1_555 1_555
H136 C187 1_555 1_555
O10 C187 1_555 1_555
C188 O10 1_555 1_555
H137 C188 1_555 1_555
H138 C188 1_555 1_555
H139 C188 1_555 1_555
C189 C39 1_555 1_555
O11 C189 1_555 1_555
C190 O11 1_555 1_555
H140 C190 1_555 1_555
H141 C190 1_555 1_555
C191 C190 1_555 1_555
H142 C191 1_555 1_555
H143 C191 1_555 1_555
O12 C191 1_555 1_555
C192 O12 1_555 1_555
H144 C192 1_555 1_555
H145 C192 1_555 1_555
H146 C192 1_555 1_555
C193 C43 1_555 1_555
O13 C193 1_555 1_555
C194 O13 1_555 1_555
H147 C194 1_555 1_555
H148 C194 1_555 1_555
C195 C194 1_555 1_555
H149 C195 1_555 1_555
H150 C195 1_555 1_555
O14 C195 1_555 1_555
C196 O14 1_555 1_555
H151 C196 1_555 1_555
H152 C196 1_555 1_555
H153 C196 1_555 1_555
C197 C89 1_555 1_555
O15 C197 1_555 1_555
C198 O15 1_555 1_555
H154 C198 1_555 1_555
H155 C198 1_555 1_555
C199 C198 1_555 1_555
H156 C199 1_555 1_555
H157 C199 1_555 1_555
O16 C199 1_555 1_555
C200 O16 1_555 1_555
H158 C200 1_555 1_555
H159 C200 1_555 1_555
H160 C200 1_555 1_555
N1 C14 1_555 1_555
N2 C21 1_555 1_555
N3 C7 1_555 1_555
N4 C94 1_555 1_555
N5 C4 1_555 1_555
N6 C58 1_555 1_555
N7 C12 1_555 1_555
N8 C35 1_555 1_555
Pd1 N5 1_555 1_555
Pd2 N1 1_555 1_555
O19 C201 1_555 1_555
O21 H161 1_555 1_555
C202 O21 1_555 1_555
H162 C202 1_555 1_555
H163 C202 1_555 1_555
H164 C202 1_555 1_555
O24 C203 1_555 1_555
O25 C204 1_555 1_555
N9 O26 1_555 1_555
O27 N9 1_555 1_555
O28 N9 1_555 1_555
N10 O29 1_555 1_555
O30 N10 1_555 1_555
O31 N10 1_555 1_555
N12 O35 1_555 1_555
O36 N12 1_555 1_555
O37 N12 1_555 1_555
N13 O38 1_555 1_555
O39 N13 1_555 1_555
O40 N13 1_555 1_555
C205 H165 1_555 1_555
H166 C205 1_555 1_555
C206 C205 1_555 1_555
H167 C206 1_555 1_555
C207 C206 1_555 1_555
H168 C207 1_555 1_555
H169 C207 1_555 1_555
C208 C207 1_555 1_555
H170 C208 1_555 1_555
C209 C208 1_555 1_555
H171 C209 1_555 1_555
H172 C209 1_555 1_555
C210 C205 1_555 1_555
H173 C210 1_555 1_555
C211 C210 1_555 1_555
H174 C211 1_555 1_555
H175 C211 1_555 1_555
C212 C211 1_555 1_555
C213 C206 1_555 1_555
H176 C213 1_555 1_555
H177 C213 1_555 1_555
C214 C208 1_555 1_555
H178 C214 1_555 1_555
H179 C214 1_555 1_555
C215 C212 1_555 1_555
C216 C215 1_555 1_555
H180 C216 1_555 1_555
H181 C216 1_555 1_555
H182 C216 1_555 1_555
O41 C215 1_555 1_555
C18 N3 1_555 1_555
C20 C76 1_555 1_555
C22 C33 1_555 1_555
C24 C76 1_555 1_555
C29 C49 1_555 1_555
C32 C41 1_555 1_555
C38 C48 1_555 1_555
C39 C119 1_555 1_555
C44 C106 1_555 1_555
C45 C152 1_555 1_555
C46 C84 1_555 1_555
C47 C85 1_555 1_555
C49 C82 1_555 1_555
C57 C70 1_555 1_555
C57 C91 1_555 1_555
C61 C62 1_555 1_555
C61 C87 1_555 1_555
C64 C82 1_555 1_555
C64 C127 1_555 1_555
C67 C95 1_555 1_555
C73 C131 1_555 1_555
C74 C140 1_555 1_555
C75 C120 1_555 1_555
C75 N7 1_555 1_555
C77 C106 1_555 1_555
C78 C119 1_555 1_555
C80 C111 1_555 1_555
C81 C128 1_555 1_555
C83 C189 1_555 1_555
C84 C118 1_555 1_555
C89 C109 1_555 1_555
C90 N2 1_555 1_555
C93 C123 1_555 1_555
C99 N4 1_555 1_555
C100 C123 1_555 1_555
C100 C124 1_555 1_555
C101 C105 1_555 1_555
C103 C129 1_555 1_555
C103 C169 1_555 1_555
C104 C133 1_555 1_555
C107 C193 1_555 1_555
C107 C197 1_555 1_555
C108 C173 1_555 1_555
C110 C121 1_555 1_555
C110 C134 1_555 1_555
C113 C153 1_555 1_555
C115 N8 1_555 1_555
C118 C151 1_555 1_555
C122 C132 1_555 1_555
C126 C145 1_555 1_555
C129 C131 1_555 1_555
C135 C142 1_555 1_555
C137 C164 1_555 1_555
C137 N5 1_555 1_555
C138 C167 1_555 1_555
C139 C149 1_555 1_555
C141 C161 1_555 1_555
C144 C151 1_555 1_555
C147 C177 1_555 1_555
C147 C181 1_555 1_555
C148 C156 1_555 1_555
C150 C159 1_555 1_555
C152 C185 1_555 1_555
C154 C155 1_555 1_555
C154 C157 1_555 1_555
C158 C165 1_555 1_555
C158 N6 1_555 1_555
C160 C162 1_555 1_555
C163 N1 1_555 1_555
C166 C168 1_555 1_555
N2 Pd2 1_555 1_555
N3 Pd2 1_555 1_555
N4 Pd2 1_555 1_555
N6 Pd1 1_555 1_555
N7 Pd1 1_555 1_555
N8 Pd1 1_555 1_555
C209 C210 1_555 1_555
C212 C213 1_555 1_555
C212 C214 1_555 1_555

#END
