# generated using pymatgen
data_H182Pd2C216N13O43
_symmetry_space_group_name_H-M   'P 1'
_cell_length_a   21.26200000
_cell_length_b   28.37100000
_cell_length_c   31.60400000
_cell_angle_alpha   90.00000000
_cell_angle_beta   90.00000000
_cell_angle_gamma   95.15100000
_symmetry_Int_Tables_number   1
_chemical_formula_structural   H182Pd2C216N13O43
_chemical_formula_sum   'H728 Pd8 C864 N52 O172'
_cell_volume   18987.30736082
_cell_formula_units_Z   4
loop_
 _symmetry_equiv_pos_site_id
 _symmetry_equiv_pos_as_xyz
  1  'x, y, z'
loop_
 _atom_site_type_symbol
 _atom_site_label
 _atom_site_symmetry_multiplicity
 _atom_site_fract_x
 _atom_site_fract_y
 _atom_site_fract_z
 _atom_site_occupancy
  H  H1  1  0.268600  0.469400  0.702700  1
  H  H2  1  0.231400  0.030600  0.202700  1
  H  H3  1  0.731400  0.530600  0.297300  1
  H  H4  1  0.768600  0.969400  0.797300  1
  H  H5  1  0.747000  0.495600  0.786400  1
  H  H6  1  0.753000  0.004400  0.286400  1
  H  H7  1  0.253000  0.504400  0.213600  1
  H  H8  1  0.247000  0.995600  0.713600  1
  H  H9  1  0.546300  0.433000  0.511000  1
  H  H10  1  0.953700  0.067000  0.011000  1
  H  H11  1  0.453700  0.567000  0.489000  1
  H  H12  1  0.046300  0.933000  0.989000  1
  H  H13  1  0.269500  0.336100  0.790800  1
  H  H14  1  0.230500  0.163900  0.290800  1
  H  H15  1  0.730500  0.663900  0.209200  1
  H  H16  1  0.769500  0.836100  0.709200  1
  H  H17  1  0.769400  0.362600  0.701800  1
  H  H18  1  0.730600  0.137400  0.201800  1
  H  H19  1  0.230600  0.637400  0.298200  1
  H  H20  1  0.269400  0.862600  0.798200  1
  H  H21  1  0.834000  0.314900  0.847400  1
  H  H22  1  0.666000  0.185100  0.347400  1
  H  H23  1  0.166000  0.685100  0.152600  1
  H  H24  1  0.334000  0.814900  0.652600  1
  H  H25  1  0.899200  0.540900  0.720400  1
  H  H26  1  0.600800  0.959100  0.220400  1
  H  H27  1  0.100800  0.459100  0.279600  1
  H  H28  1  0.399200  0.040900  0.779600  1
  H  H29  1  0.751400  0.480000  0.681900  1
  H  H30  1  0.748600  0.020000  0.181900  1
  H  H31  1  0.248600  0.520000  0.318100  1
  H  H32  1  0.251400  0.980000  0.818100  1
  H  H33  1  0.323700  0.240200  0.722200  1
  H  H34  1  0.176300  0.259800  0.222200  1
  H  H35  1  0.676300  0.759800  0.277800  1
  H  H36  1  0.823700  0.740200  0.777800  1
  H  H37  1  0.579800  0.173800  0.672500  1
  H  H38  1  0.920200  0.326200  0.172500  1
  H  H39  1  0.420200  0.826200  0.327500  1
  H  H40  1  0.079800  0.673800  0.827500  1
  H  H41  1  0.523100  0.338400  0.592900  1
  H  H42  1  0.976900  0.161600  0.092900  1
  H  H43  1  0.476900  0.661600  0.407100  1
  H  H44  1  0.023100  0.838400  0.907100  1
  H  H45  1  0.627700  0.645300  0.621400  1
  H  H46  1  0.872300  0.854700  0.121400  1
  H  H47  1  0.372300  0.354700  0.378600  1
  H  H48  1  0.127700  0.145300  0.878600  1
  H  H49  1  0.188700  0.593100  0.703600  1
  H  H50  1  0.311300  0.906900  0.203600  1
  H  H51  1  0.811300  0.406900  0.296400  1
  H  H52  1  0.688700  0.093100  0.796400  1
  H  H53  1  0.281500  0.357200  0.696000  1
  H  H54  1  0.218500  0.142800  0.196000  1
  H  H55  1  0.718500  0.642800  0.304000  1
  H  H56  1  0.781500  0.857200  0.804000  1
  H  H57  1  0.801300  0.539000  0.861000  1
  H  H58  1  0.698700  0.961000  0.361000  1
  H  H59  1  0.198700  0.461000  0.139000  1
  H  H60  1  0.301300  0.039000  0.639000  1
  H  H61  1  0.211900  0.200700  0.764300  1
  H  H62  1  0.288100  0.299300  0.264300  1
  H  H63  1  0.788100  0.799300  0.235700  1
  H  H64  1  0.711900  0.700700  0.735700  1
  H  H65  1  0.524200  0.276600  0.851900  1
  H  H66  1  0.975800  0.223400  0.351900  1
  H  H67  1  0.475800  0.723400  0.148100  1
  H  H68  1  0.024200  0.776600  0.648100  1
  H  H69  1  0.198500  0.531600  0.841300  1
  H  H70  1  0.301500  0.968400  0.341300  1
  H  H71  1  0.801500  0.468400  0.158700  1
  H  H72  1  0.698500  0.031600  0.658700  1
  H  H73  1  0.722600  0.339500  0.529100  1
  H  H74  1  0.777400  0.160500  0.029100  1
  H  H75  1  0.277400  0.660500  0.470900  1
  H  H76  1  0.222600  0.839500  0.970900  1
  H  H77  1  0.217600  0.258800  0.639200  1
  H  H78  1  0.282400  0.241200  0.139200  1
  H  H79  1  0.782400  0.741200  0.360800  1
  H  H80  1  0.717600  0.758800  0.860800  1
  H  H81  1  0.531600  0.418100  0.605700  1
  H  H82  1  0.968400  0.081900  0.105700  1
  H  H83  1  0.468400  0.581900  0.394300  1
  H  H84  1  0.031600  0.918100  0.894300  1
  H  H85  1  0.749300  0.235700  0.756200  1
  H  H86  1  0.750700  0.264300  0.256200  1
  H  H87  1  0.250700  0.764300  0.243800  1
  H  H88  1  0.249300  0.735700  0.743800  1
  H  H89  1  0.514000  0.674200  0.522200  1
  H  H90  1  0.986000  0.825800  0.022200  1
  H  H91  1  0.486000  0.325800  0.477800  1
  H  H92  1  0.014000  0.174200  0.977800  1
  H  H93  1  0.211800  0.178200  0.636300  1
  H  H94  1  0.288200  0.321800  0.136300  1
  H  H95  1  0.788200  0.821800  0.363700  1
  H  H96  1  0.711800  0.678200  0.863700  1
  H  H97  1  0.261300  0.453900  0.812400  1
  H  H98  1  0.238700  0.046100  0.312400  1
  H  H99  1  0.738700  0.546100  0.187600  1
  H  H100  1  0.761300  0.953900  0.687600  1
  H  H101  1  0.809500  0.567800  0.649500  1
  H  H102  1  0.690500  0.932200  0.149500  1
  H  H103  1  0.190500  0.432200  0.350500  1
  H  H104  1  0.309500  0.067800  0.850500  1
  H  H105  1  0.649500  0.284600  0.555700  1
  H  H106  1  0.850500  0.215400  0.055700  1
  H  H107  1  0.350500  0.715400  0.444300  1
  H  H108  1  0.149500  0.784600  0.944300  1
  H  H109  1  0.345200  0.413900  0.628400  1
  H  H110  1  0.154800  0.086100  0.128400  1
  H  H111  1  0.654800  0.586100  0.371600  1
  H  H112  1  0.845200  0.913900  0.871600  1
  H  H113  1  0.665700  0.200300  0.873100  1
  H  H114  1  0.834300  0.299700  0.373100  1
  H  H115  1  0.334300  0.799700  0.126900  1
  H  H116  1  0.165700  0.700300  0.626900  1
  H  H117  1  0.906200  0.463500  0.894500  1
  H  H118  1  0.593800  0.036500  0.394500  1
  H  H119  1  0.093800  0.536500  0.105500  1
  H  H120  1  0.406200  0.963500  0.605500  1
  H  H121  1  0.457500  0.660700  0.650900  1
  H  H122  1  0.042500  0.839300  0.150900  1
  H  H123  1  0.542500  0.339300  0.349100  1
  H  H124  1  0.957500  0.160700  0.849100  1
  H  H125  1  0.376600  0.633700  0.873900  1
  H  H126  1  0.123400  0.866300  0.373900  1
  H  H127  1  0.623400  0.366300  0.126100  1
  H  H128  1  0.876600  0.133700  0.626100  1
  H  H129  1  0.398300  0.529500  0.549700  1
  H  H130  1  0.101700  0.970500  0.049700  1
  H  H131  1  0.601700  0.470500  0.450300  1
  H  H132  1  0.898300  0.029500  0.950300  1
  H  H133  1  0.631500  0.390400  0.531200  1
  H  H134  1  0.868500  0.109600  0.031200  1
  H  H135  1  0.368500  0.609600  0.468800  1
  H  H136  1  0.131500  0.890400  0.968800  1
  H  H137  1  0.109000  0.307400  0.730200  1
  H  H138  1  0.391000  0.192600  0.230200  1
  H  H139  1  0.891000  0.692600  0.269800  1
  H  H140  1  0.609000  0.807400  0.769800  1
  H  H141  1  0.498500  0.195700  0.799000  1
  H  H142  1  0.001500  0.304300  0.299000  1
  H  H143  1  0.501500  0.804300  0.201000  1
  H  H144  1  0.998500  0.695700  0.701000  1
  H  H145  1  0.759000  0.179300  0.845400  1
  H  H146  1  0.741000  0.320700  0.345400  1
  H  H147  1  0.241000  0.820700  0.154600  1
  H  H148  1  0.259000  0.679300  0.654600  1
  H  H149  1  0.496500  0.189100  0.727700  1
  H  H150  1  0.003500  0.310900  0.227700  1
  H  H151  1  0.503500  0.810900  0.272300  1
  H  H152  1  0.996500  0.689100  0.772300  1
  H  H153  1  0.524700  0.155600  0.950000  1
  H  H154  1  0.975300  0.344400  0.450000  1
  H  H155  1  0.475300  0.844400  0.050000  1
  H  H156  1  0.024700  0.655600  0.550000  1
  H  H157  1  0.451800  0.434400  0.989400  1
  H  H158  1  0.048200  0.065600  0.489400  1
  H  H159  1  0.548200  0.565600  0.010600  1
  H  H160  1  0.951800  0.934400  0.510600  1
  H  H161  1  0.801300  0.520700  0.931900  1
  H  H162  1  0.698700  0.979300  0.431900  1
  H  H163  1  0.198700  0.479300  0.068100  1
  H  H164  1  0.301300  0.020700  0.568100  1
  H  H165  1  0.915100  0.428300  0.663500  1
  H  H166  1  0.584900  0.071700  0.163500  1
  H  H167  1  0.084900  0.571700  0.336500  1
  H  H168  1  0.415100  0.928300  0.836500  1
  H  H169  1  0.540600  0.508400  0.536000  1
  H  H170  1  0.959400  0.991600  0.036000  1
  H  H171  1  0.459400  0.491600  0.464000  1
  H  H172  1  0.040600  0.008400  0.964000  1
  H  H173  1  0.764100  0.385300  0.802600  1
  H  H174  1  0.735900  0.114700  0.302600  1
  H  H175  1  0.235900  0.614700  0.197400  1
  H  H176  1  0.264100  0.885300  0.697400  1
  H  H177  1  0.826100  0.409100  0.921800  1
  H  H178  1  0.673900  0.090900  0.421800  1
  H  H179  1  0.173900  0.590900  0.078200  1
  H  H180  1  0.326100  0.909100  0.578200  1
  H  H181  1  0.458400  0.510700  0.964400  1
  H  H182  1  0.041600  0.989300  0.464400  1
  H  H183  1  0.541600  0.489300  0.035600  1
  H  H184  1  0.958400  0.010700  0.535600  1
  H  H185  1  0.217100  0.343200  0.576200  1
  H  H186  1  0.282900  0.156800  0.076200  1
  H  H187  1  0.782900  0.656800  0.423800  1
  H  H188  1  0.717100  0.843200  0.923800  1
  H  H189  1  0.129900  0.383500  0.596700  1
  H  H190  1  0.370100  0.116500  0.096700  1
  H  H191  1  0.870100  0.616500  0.403300  1
  H  H192  1  0.629900  0.883500  0.903300  1
  H  H193  1  0.911200  0.478500  0.822500  1
  H  H194  1  0.588800  0.021500  0.322500  1
  H  H195  1  0.088800  0.521500  0.177500  1
  H  H196  1  0.411200  0.978500  0.677500  1
  H  H197  1  0.628100  0.564900  0.946900  1
  H  H198  1  0.871900  0.935100  0.446900  1
  H  H199  1  0.371900  0.435100  0.053100  1
  H  H200  1  0.128100  0.064900  0.553100  1
  H  H201  1  0.714000  0.684200  0.656500  1
  H  H202  1  0.786000  0.815800  0.156500  1
  H  H203  1  0.286000  0.315800  0.343500  1
  H  H204  1  0.214000  0.184200  0.843500  1
  H  H205  1  0.494500  0.546700  0.876200  1
  H  H206  1  0.005500  0.953300  0.376200  1
  H  H207  1  0.505500  0.453300  0.123800  1
  H  H208  1  0.994500  0.046700  0.623800  1
  H  H209  1  0.805000  0.645000  0.669200  1
  H  H210  1  0.695000  0.855000  0.169200  1
  H  H211  1  0.195000  0.355000  0.330800  1
  H  H212  1  0.305000  0.145000  0.830800  1
  H  H213  1  0.530000  0.174800  0.522700  1
  H  H214  1  0.970000  0.325200  0.022700  1
  H  H215  1  0.470000  0.825200  0.477300  1
  H  H216  1  0.030000  0.674800  0.977300  1
  H  H217  1  0.533500  0.270900  0.642100  1
  H  H218  1  0.966500  0.229100  0.142100  1
  H  H219  1  0.466500  0.729100  0.357900  1
  H  H220  1  0.033500  0.770900  0.857900  1
  H  H221  1  0.362900  0.663900  0.762200  1
  H  H222  1  0.137100  0.836100  0.262200  1
  H  H223  1  0.637100  0.336100  0.237800  1
  H  H224  1  0.862900  0.163900  0.737800  1
  H  H225  1  0.844200  0.235800  0.835400  1
  H  H226  1  0.655800  0.264200  0.335400  1
  H  H227  1  0.155800  0.764200  0.164600  1
  H  H228  1  0.344200  0.735800  0.664600  1
  H  H229  1  0.503200  0.548300  0.617100  1
  H  H230  1  0.996800  0.951700  0.117100  1
  H  H231  1  0.496800  0.451700  0.382900  1
  H  H232  1  0.003200  0.048300  0.882900  1
  H  H233  1  0.592700  0.143800  0.739600  1
  H  H234  1  0.907300  0.356200  0.239600  1
  H  H235  1  0.407300  0.856200  0.260400  1
  H  H236  1  0.092700  0.643800  0.760400  1
  H  H237  1  0.400800  0.250100  0.932700  1
  H  H238  1  0.099200  0.249900  0.432700  1
  H  H239  1  0.599200  0.749900  0.067300  1
  H  H240  1  0.900800  0.750100  0.567300  1
  H  H241  1  0.119300  0.407400  0.664800  1
  H  H242  1  0.380700  0.092600  0.164800  1
  H  H243  1  0.880700  0.592600  0.335200  1
  H  H244  1  0.619300  0.907400  0.835200  1
  H  H245  1  0.221100  0.284900  0.856200  1
  H  H246  1  0.278900  0.215100  0.356200  1
  H  H247  1  0.778900  0.715100  0.143800  1
  H  H248  1  0.721100  0.784900  0.643800  1
  H  H249  1  0.122800  0.226300  0.730100  1
  H  H250  1  0.377200  0.273700  0.230100  1
  H  H251  1  0.877200  0.773700  0.269900  1
  H  H252  1  0.622800  0.726300  0.769900  1
  H  H253  1  0.443200  0.696300  0.715700  1
  H  H254  1  0.056800  0.803700  0.215700  1
  H  H255  1  0.556800  0.303700  0.284300  1
  H  H256  1  0.943200  0.196300  0.784300  1
  H  H257  1  0.910900  0.444400  0.592100  1
  H  H258  1  0.589100  0.055600  0.092100  1
  H  H259  1  0.089100  0.555600  0.407900  1
  H  H260  1  0.410900  0.944400  0.907900  1
  H  H261  1  0.714000  0.533000  0.974100  1
  H  H262  1  0.786000  0.967000  0.474100  1
  H  H263  1  0.286000  0.467000  0.025900  1
  H  H264  1  0.214000  0.033000  0.525900  1
  H  H265  1  0.207300  0.608600  0.817100  1
  H  H266  1  0.292700  0.891400  0.317100  1
  H  H267  1  0.792700  0.391400  0.182900  1
  H  H268  1  0.707300  0.108600  0.682900  1
  H  H269  1  0.440500  0.456600  0.619800  1
  H  H270  1  0.059500  0.043400  0.119800  1
  H  H271  1  0.559500  0.543400  0.380200  1
  H  H272  1  0.940500  0.956600  0.880200  1
  H  H273  1  0.407600  0.209700  0.687900  1
  H  H274  1  0.092400  0.290300  0.187900  1
  H  H275  1  0.592400  0.790300  0.312100  1
  H  H276  1  0.907600  0.709700  0.812100  1
  H  H277  1  0.177000  0.439700  0.925900  1
  H  H278  1  0.323000  0.060300  0.425900  1
  H  H279  1  0.823000  0.560300  0.074100  1
  H  H280  1  0.677000  0.939700  0.574100  1
  H  H281  1  0.824900  0.480300  0.564100  1
  H  H282  1  0.675100  0.019700  0.064100  1
  H  H283  1  0.175100  0.519700  0.435900  1
  H  H284  1  0.324900  0.980300  0.935900  1
  H  H285  1  0.294500  0.601900  0.742000  1
  H  H286  1  0.205500  0.898100  0.242000  1
  H  H287  1  0.705500  0.398100  0.258000  1
  H  H288  1  0.794500  0.101900  0.758000  1
  H  H289  1  0.396700  0.182300  0.603200  1
  H  H290  1  0.103300  0.317700  0.103200  1
  H  H291  1  0.603300  0.817700  0.396800  1
  H  H292  1  0.896700  0.682300  0.896800  1
  H  H293  1  0.368500  0.378300  0.965000  1
  H  H294  1  0.131500  0.121700  0.465000  1
  H  H295  1  0.631500  0.621700  0.035000  1
  H  H296  1  0.868500  0.878300  0.535000  1
  H  H297  1  0.112300  0.480400  0.767700  1
  H  H298  1  0.387700  0.019600  0.267700  1
  H  H299  1  0.887700  0.519600  0.232300  1
  H  H300  1  0.612300  0.980400  0.732300  1
  H  H301  1  0.517900  0.652200  0.753000  1
  H  H302  1  0.982100  0.847800  0.253000  1
  H  H303  1  0.482100  0.347800  0.247000  1
  H  H304  1  0.017900  0.152200  0.747000  1
  H  H305  1  0.936200  0.289700  0.758300  1
  H  H306  1  0.563800  0.210300  0.258300  1
  H  H307  1  0.063800  0.710300  0.241700  1
  H  H308  1  0.436200  0.789700  0.741700  1
  H  H309  1  0.711300  0.423500  0.573900  1
  H  H310  1  0.788700  0.076500  0.073900  1
  H  H311  1  0.288700  0.576500  0.426100  1
  H  H312  1  0.211300  0.923500  0.926100  1
  H  H313  1  0.600300  0.633500  0.709100  1
  H  H314  1  0.899700  0.866500  0.209100  1
  H  H315  1  0.399700  0.366500  0.290900  1
  H  H316  1  0.100300  0.133500  0.790900  1
  H  H317  1  0.300600  0.139000  0.618000  1
  H  H318  1  0.199400  0.361000  0.118000  1
  H  H319  1  0.699400  0.861000  0.382000  1
  H  H320  1  0.800600  0.639000  0.882000  1
  H  H321  1  0.701800  0.440700  0.892000  1
  H  H322  1  0.798200  0.059300  0.392000  1
  H  H323  1  0.298200  0.559300  0.108000  1
  H  H324  1  0.201800  0.940700  0.608000  1
  H  H325  1  0.292700  0.401700  0.920100  1
  H  H326  1  0.207300  0.098300  0.420100  1
  H  H327  1  0.707300  0.598300  0.079900  1
  H  H328  1  0.792700  0.901700  0.579900  1
  H  H329  1  0.297700  0.660600  0.833900  1
  H  H330  1  0.202300  0.839400  0.333900  1
  H  H331  1  0.702300  0.339400  0.166100  1
  H  H332  1  0.797700  0.160600  0.666100  1
  H  H333  1  0.607300  0.463700  0.914200  1
  H  H334  1  0.892700  0.036300  0.414200  1
  H  H335  1  0.392700  0.536300  0.085800  1
  H  H336  1  0.107300  0.963700  0.585800  1
  H  H337  1  0.507700  0.675400  0.966800  1
  H  H338  1  0.992300  0.824600  0.466800  1
  H  H339  1  0.492300  0.324600  0.033200  1
  H  H340  1  0.007700  0.175400  0.533200  1
  H  H341  1  0.814300  0.364000  0.566600  1
  H  H342  1  0.685700  0.136000  0.066600  1
  H  H343  1  0.185700  0.636000  0.433400  1
  H  H344  1  0.314300  0.864000  0.933400  1
  H  H345  1  0.858500  0.245700  0.718600  1
  H  H346  1  0.641500  0.254300  0.218600  1
  H  H347  1  0.141500  0.754300  0.281400  1
  H  H348  1  0.358500  0.745700  0.781400  1
  H  H349  1  0.802800  0.635700  0.781300  1
  H  H350  1  0.697200  0.864300  0.281300  1
  H  H351  1  0.197200  0.364300  0.218700  1
  H  H352  1  0.302800  0.135700  0.718700  1
  H  H353  1  0.676000  0.178200  0.782100  1
  H  H354  1  0.824000  0.321800  0.282100  1
  H  H355  1  0.324000  0.821800  0.217900  1
  H  H356  1  0.176000  0.678200  0.717900  1
  H  H357  1  0.233000  0.451100  0.564800  1
  H  H358  1  0.267000  0.048900  0.064800  1
  H  H359  1  0.767000  0.548900  0.435200  1
  H  H360  1  0.733000  0.951100  0.935200  1
  H  H361  1  0.324200  0.472000  0.525500  1
  H  H362  1  0.175800  0.028000  0.025500  1
  H  H363  1  0.675800  0.528000  0.474500  1
  H  H364  1  0.824200  0.972000  0.974500  1
  H  H365  1  0.828900  0.337000  0.633900  1
  H  H366  1  0.671100  0.163000  0.133900  1
  H  H367  1  0.171100  0.663000  0.366100  1
  H  H368  1  0.328900  0.837000  0.866100  1
  H  H369  1  0.216300  0.485500  0.629100  1
  H  H370  1  0.283700  0.014500  0.129100  1
  H  H371  1  0.783700  0.514500  0.370900  1
  H  H372  1  0.716300  0.985500  0.870900  1
  H  H373  1  0.106300  0.367600  0.824800  1
  H  H374  1  0.393700  0.132400  0.324800  1
  H  H375  1  0.893700  0.632400  0.175200  1
  H  H376  1  0.606300  0.867600  0.675200  1
  H  H377  1  0.886000  0.617700  0.737000  1
  H  H378  1  0.614000  0.882300  0.237000  1
  H  H379  1  0.114000  0.382300  0.263000  1
  H  H380  1  0.386000  0.117700  0.763000  1
  H  H381  1  0.228100  0.300200  0.927800  1
  H  H382  1  0.271900  0.199800  0.427800  1
  H  H383  1  0.771900  0.699800  0.072200  1
  H  H384  1  0.728100  0.800200  0.572200  1
  H  H385  1  0.687300  0.597600  0.734400  1
  H  H386  1  0.812700  0.902400  0.234400  1
  H  H387  1  0.312700  0.402400  0.265600  1
  H  H388  1  0.187300  0.097600  0.765600  1
  H  H389  1  0.319500  0.282500  0.965400  1
  H  H390  1  0.180500  0.217500  0.465400  1
  H  H391  1  0.680500  0.717500  0.034600  1
  H  H392  1  0.819500  0.782500  0.534600  1
  H  H393  1  0.927600  0.370100  0.767300  1
  H  H394  1  0.572400  0.129900  0.267300  1
  H  H395  1  0.072400  0.629900  0.232700  1
  H  H396  1  0.427600  0.870100  0.732700  1
  H  H397  1  0.108800  0.558100  0.747100  1
  H  H398  1  0.391200  0.941900  0.247100  1
  H  H399  1  0.891200  0.441900  0.252900  1
  H  H400  1  0.608800  0.058100  0.752900  1
  H  H401  1  0.098500  0.388300  0.895000  1
  H  H402  1  0.401500  0.111700  0.395000  1
  H  H403  1  0.901500  0.611700  0.105000  1
  H  H404  1  0.598500  0.888300  0.605000  1
  H  H405  1  0.534500  0.328400  0.922900  1
  H  H406  1  0.965500  0.171600  0.422900  1
  H  H407  1  0.465500  0.671600  0.077100  1
  H  H408  1  0.034500  0.828400  0.577100  1
  H  H409  1  0.520400  0.632400  0.824400  1
  H  H410  1  0.979600  0.867600  0.324400  1
  H  H411  1  0.479600  0.367600  0.175600  1
  H  H412  1  0.020400  0.132400  0.675600  1
  H  H413  1  0.523000  0.405900  0.930300  1
  H  H414  1  0.977000  0.094100  0.430300  1
  H  H415  1  0.477000  0.594100  0.069700  1
  H  H416  1  0.023000  0.905900  0.569700  1
  H  H417  1  0.421100  0.703900  0.511600  1
  H  H418  1  0.078900  0.796100  0.011600  1
  H  H419  1  0.578900  0.296100  0.488400  1
  H  H420  1  0.921100  0.203900  0.988400  1
  H  H421  1  0.441100  0.725100  0.557300  1
  H  H422  1  0.058900  0.774900  0.057300  1
  H  H423  1  0.558900  0.274900  0.442700  1
  H  H424  1  0.941100  0.225100  0.942700  1
  H  H425  1  0.313900  0.701600  0.531400  1
  H  H426  1  0.186100  0.798400  0.031400  1
  H  H427  1  0.686100  0.298400  0.468600  1
  H  H428  1  0.813900  0.201600  0.968600  1
  H  H429  1  0.334400  0.723800  0.576500  1
  H  H430  1  0.165600  0.776200  0.076500  1
  H  H431  1  0.665600  0.276200  0.423500  1
  H  H432  1  0.834400  0.223800  0.923500  1
  H  H433  1  0.288300  0.815200  0.511800  1
  H  H434  1  0.211700  0.684800  0.011800  1
  H  H435  1  0.711700  0.184800  0.488200  1
  H  H436  1  0.788300  0.315200  0.988200  1
  H  H437  1  0.263600  0.783800  0.551500  1
  H  H438  1  0.236400  0.716200  0.051500  1
  H  H439  1  0.736400  0.216200  0.448500  1
  H  H440  1  0.763600  0.283800  0.948500  1
  H  H441  1  0.260100  0.761500  0.505000  1
  H  H442  1  0.239900  0.738500  0.005000  1
  H  H443  1  0.739900  0.238500  0.495000  1
  H  H444  1  0.760100  0.261500  0.995000  1
  H  H445  1  0.605900  0.695300  0.505300  1
  H  H446  1  0.894100  0.804700  0.005300  1
  H  H447  1  0.394100  0.304700  0.494700  1
  H  H448  1  0.105900  0.195300  0.994700  1
  H  H449  1  0.627000  0.657900  0.471400  1
  H  H450  1  0.873000  0.842100  0.971400  1
  H  H451  1  0.373000  0.342100  0.528600  1
  H  H452  1  0.127000  0.157900  0.028600  1
  H  H453  1  0.705400  0.720700  0.485600  1
  H  H454  1  0.794600  0.779300  0.985600  1
  H  H455  1  0.294600  0.279300  0.514400  1
  H  H456  1  0.205400  0.220700  0.014400  1
  H  H457  1  0.709900  0.700900  0.532900  1
  H  H458  1  0.790100  0.799100  0.032900  1
  H  H459  1  0.290100  0.299100  0.467100  1
  H  H460  1  0.209900  0.200900  0.967100  1
  H  H461  1  0.795800  0.611000  0.508600  1
  H  H462  1  0.704200  0.889000  0.008600  1
  H  H463  1  0.204200  0.389000  0.491400  1
  H  H464  1  0.295800  0.111000  0.991400  1
  H  H465  1  0.730100  0.611500  0.533200  1
  H  H466  1  0.769900  0.888500  0.033200  1
  H  H467  1  0.269900  0.388500  0.466800  1
  H  H468  1  0.230100  0.111500  0.966800  1
  H  H469  1  0.786900  0.650600  0.543600  1
  H  H470  1  0.713100  0.849400  0.043600  1
  H  H471  1  0.213100  0.349400  0.456400  1
  H  H472  1  0.286900  0.150600  0.956400  1
  H  H473  1  0.428700  0.692200  0.987400  1
  H  H474  1  0.071300  0.807800  0.487400  1
  H  H475  1  0.571300  0.307800  0.012600  1
  H  H476  1  0.928700  0.192200  0.512600  1
  H  H477  1  0.361900  0.673400  0.007500  1
  H  H478  1  0.138100  0.826600  0.507500  1
  H  H479  1  0.638100  0.326600  0.992500  1
  H  H480  1  0.861900  0.173400  0.492500  1
  H  H481  1  0.314600  0.682800  0.939800  1
  H  H482  1  0.185400  0.817200  0.439800  1
  H  H483  1  0.685400  0.317200  0.060200  1
  H  H484  1  0.814600  0.182800  0.560200  1
  H  H485  1  0.342900  0.732000  0.960300  1
  H  H486  1  0.157100  0.768000  0.460300  1
  H  H487  1  0.657100  0.268000  0.039700  1
  H  H488  1  0.842900  0.232000  0.539700  1
  H  H489  1  0.445600  0.758000  0.882000  1
  H  H490  1  0.054400  0.742000  0.382000  1
  H  H491  1  0.554400  0.242000  0.118000  1
  H  H492  1  0.945600  0.258000  0.618000  1
  H  H493  1  0.431400  0.772600  0.929700  1
  H  H494  1  0.068600  0.727400  0.429700  1
  H  H495  1  0.568600  0.227400  0.070300  1
  H  H496  1  0.931400  0.272600  0.570300  1
  H  H497  1  0.377500  0.773400  0.894500  1
  H  H498  1  0.122500  0.726600  0.394500  1
  H  H499  1  0.622500  0.226600  0.105500  1
  H  H500  1  0.877500  0.273400  0.605500  1
  H  H501  1  0.682400  0.690000  0.958300  1
  H  H502  1  0.817600  0.810000  0.458300  1
  H  H503  1  0.317600  0.310000  0.041700  1
  H  H504  1  0.182400  0.190000  0.541700  1
  H  H505  1  0.615500  0.680700  0.981600  1
  H  H506  1  0.884500  0.819300  0.481600  1
  H  H507  1  0.384500  0.319300  0.018400  1
  H  H508  1  0.115500  0.180700  0.518400  1
  H  H509  1  0.661300  0.762900  0.969600  1
  H  H510  1  0.838700  0.737100  0.469600  1
  H  H511  1  0.338700  0.237100  0.030400  1
  H  H512  1  0.161300  0.262900  0.530400  1
  H  H513  1  0.632000  0.755000  0.923100  1
  H  H514  1  0.868000  0.745000  0.423100  1
  H  H515  1  0.368000  0.245000  0.076900  1
  H  H516  1  0.132000  0.255000  0.576900  1
  H  H517  1  0.516700  0.805100  0.982200  1
  H  H518  1  0.983300  0.694900  0.482200  1
  H  H519  1  0.483300  0.194900  0.017800  1
  H  H520  1  0.016700  0.305100  0.517800  1
  H  H521  1  0.563000  0.816300  0.942800  1
  H  H522  1  0.937000  0.683700  0.442800  1
  H  H523  1  0.437000  0.183700  0.057200  1
  H  H524  1  0.063000  0.316300  0.557200  1
  H  H525  1  0.590600  0.818000  0.990000  1
  H  H526  1  0.909400  0.682000  0.490000  1
  H  H527  1  0.409400  0.182000  0.010000  1
  H  H528  1  0.090600  0.318000  0.510000  1
  H  H529  1  0.379900  0.089600  0.921200  1
  H  H530  1  0.120100  0.410400  0.421200  1
  H  H531  1  0.620100  0.910400  0.078800  1
  H  H532  1  0.879900  0.589600  0.578800  1
  H  H533  1  0.435300  0.110900  0.951900  1
  H  H534  1  0.064700  0.389100  0.451900  1
  H  H535  1  0.564700  0.889100  0.048100  1
  H  H536  1  0.935300  0.610900  0.548100  1
  H  H537  1  0.511400  0.090800  0.905800  1
  H  H538  1  0.988600  0.409200  0.405800  1
  H  H539  1  0.488600  0.909200  0.094200  1
  H  H540  1  0.011400  0.590800  0.594200  1
  H  H541  1  0.462600  0.044700  0.911500  1
  H  H542  1  0.037400  0.455300  0.411500  1
  H  H543  1  0.537400  0.955300  0.088500  1
  H  H544  1  0.962600  0.544700  0.588500  1
  H  H545  1  0.494900  0.072200  0.800800  1
  H  H546  1  0.005100  0.427800  0.300800  1
  H  H547  1  0.505100  0.927800  0.199200  1
  H  H548  1  0.994900  0.572200  0.699200  1
  H  H549  1  0.524200  0.040400  0.836300  1
  H  H550  1  0.975800  0.459600  0.336300  1
  H  H551  1  0.475800  0.959600  0.163700  1
  H  H552  1  0.024200  0.540400  0.663700  1
  H  H553  1  0.541500  0.096500  0.835900  1
  H  H554  1  0.958500  0.403500  0.335900  1
  H  H555  1  0.458500  0.903500  0.164100  1
  H  H556  1  0.041500  0.596500  0.664100  1
  H  H557  1  0.586600  0.170900  0.996900  1
  H  H558  1  0.913400  0.329100  0.496900  1
  H  H559  1  0.413400  0.829100  0.003100  1
  H  H560  1  0.086600  0.670900  0.503100  1
  H  H561  1  0.657600  0.190300  0.008400  1
  H  H562  1  0.842400  0.309700  0.508400  1
  H  H563  1  0.342400  0.809700  0.991600  1
  H  H564  1  0.157600  0.690300  0.491600  1
  H  H565  1  0.647800  0.110000  0.985900  1
  H  H566  1  0.852200  0.390000  0.485900  1
  H  H567  1  0.352200  0.890000  0.014100  1
  H  H568  1  0.147800  0.610000  0.514100  1
  H  H569  1  0.627300  0.127500  0.940000  1
  H  H570  1  0.872700  0.372500  0.440000  1
  H  H571  1  0.372700  0.872500  0.060000  1
  H  H572  1  0.127300  0.627500  0.560000  1
  H  H573  1  0.786800  0.119100  0.926900  1
  H  H574  1  0.713200  0.380900  0.426900  1
  H  H575  1  0.213200  0.880900  0.073100  1
  H  H576  1  0.286800  0.619100  0.573100  1
  H  H577  1  0.719400  0.102300  0.906800  1
  H  H578  1  0.780600  0.397700  0.406800  1
  H  H579  1  0.280600  0.897700  0.093200  1
  H  H580  1  0.219400  0.602300  0.593200  1
  H  H581  1  0.739700  0.081000  0.951100  1
  H  H582  1  0.760300  0.419000  0.451100  1
  H  H583  1  0.260300  0.919000  0.048900  1
  H  H584  1  0.239700  0.581000  0.548900  1
  H  H585  1  0.430900  0.158000  0.505800  1
  H  H586  1  0.069100  0.342000  0.005800  1
  H  H587  1  0.569100  0.842000  0.494200  1
  H  H588  1  0.930900  0.658000  0.994200  1
  H  H589  1  0.459600  0.197600  0.473300  1
  H  H590  1  0.040400  0.302400  0.973300  1
  H  H591  1  0.540400  0.802400  0.526700  1
  H  H592  1  0.959600  0.697600  0.026700  1
  H  H593  1  0.361400  0.219900  0.458700  1
  H  H594  1  0.138600  0.280100  0.958700  1
  H  H595  1  0.638600  0.780100  0.541300  1
  H  H596  1  0.861400  0.719900  0.041300  1
  H  H597  1  0.360700  0.164000  0.451800  1
  H  H598  1  0.139300  0.336000  0.951800  1
  H  H599  1  0.639300  0.836000  0.548200  1
  H  H600  1  0.860700  0.664000  0.048200  1
  H  H601  1  0.258900  0.135500  0.532000  1
  H  H602  1  0.241100  0.364500  0.032000  1
  H  H603  1  0.741100  0.864500  0.468000  1
  H  H604  1  0.758900  0.635500  0.968000  1
  H  H605  1  0.328900  0.120400  0.525400  1
  H  H606  1  0.171100  0.379600  0.025400  1
  H  H607  1  0.671100  0.879600  0.474600  1
  H  H608  1  0.828900  0.620400  0.974600  1
  H  H609  1  0.280500  0.118100  0.486600  1
  H  H610  1  0.219500  0.381900  0.986600  1
  H  H611  1  0.719500  0.881900  0.513400  1
  H  H612  1  0.780500  0.618100  0.013400  1
  H  H613  1  0.627000  0.143500  0.510900  1
  H  H614  1  0.873000  0.356500  0.010900  1
  H  H615  1  0.373000  0.856500  0.489100  1
  H  H616  1  0.127000  0.643500  0.989100  1
  H  H617  1  0.590100  0.114600  0.548400  1
  H  H618  1  0.909900  0.385400  0.048400  1
  H  H619  1  0.409900  0.885400  0.451600  1
  H  H620  1  0.090100  0.614600  0.951600  1
  H  H621  1  0.720800  0.126500  0.559900  1
  H  H622  1  0.779200  0.373500  0.059900  1
  H  H623  1  0.279200  0.873500  0.440100  1
  H  H624  1  0.220800  0.626500  0.940100  1
  H  H625  1  0.673900  0.079500  0.567100  1
  H  H626  1  0.826100  0.420500  0.067100  1
  H  H627  1  0.326100  0.920500  0.432900  1
  H  H628  1  0.173900  0.579500  0.932900  1
  H  H629  1  0.762100  0.055300  0.477500  1
  H  H630  1  0.737900  0.444700  0.977500  1
  H  H631  1  0.237900  0.944700  0.522500  1
  H  H632  1  0.262100  0.555300  0.022500  1
  H  H633  1  0.752200  0.039800  0.525900  1
  H  H634  1  0.747800  0.460200  0.025900  1
  H  H635  1  0.247800  0.960200  0.474100  1
  H  H636  1  0.252200  0.539800  0.974100  1
  H  H637  1  0.792000  0.088700  0.514500  1
  H  H638  1  0.708000  0.411300  0.014500  1
  H  H639  1  0.208000  0.911300  0.485500  1
  H  H640  1  0.292000  0.588700  0.985500  1
  H  H641  1  0.619200  0.743000  0.674300  1
  H  H642  1  0.880800  0.757000  0.174300  1
  H  H643  1  0.380800  0.257000  0.325700  1
  H  H644  1  0.119200  0.243000  0.825700  1
  H  H645  1  0.551400  0.762000  0.610800  1
  H  H646  1  0.948600  0.738000  0.110800  1
  H  H647  1  0.448600  0.238000  0.389200  1
  H  H648  1  0.051400  0.262000  0.889200  1
  H  H649  1  0.583400  0.714400  0.600200  1
  H  H650  1  0.916600  0.785600  0.100200  1
  H  H651  1  0.416600  0.285600  0.399800  1
  H  H652  1  0.083400  0.214400  0.899800  1
  H  H653  1  0.626700  0.762200  0.610500  1
  H  H654  1  0.873300  0.737800  0.110500  1
  H  H655  1  0.373300  0.237800  0.389500  1
  H  H656  1  0.126700  0.262200  0.889500  1
  H  H657  1  0.954800  0.012200  0.795800  1
  H  H658  1  0.545200  0.487800  0.295800  1
  H  H659  1  0.045200  0.987800  0.204200  1
  H  H660  1  0.454800  0.512200  0.704200  1
  H  H661  1  0.972300  0.046400  0.756500  1
  H  H662  1  0.527700  0.453600  0.256500  1
  H  H663  1  0.027700  0.953600  0.243500  1
  H  H664  1  0.472300  0.546400  0.743500  1
  H  H665  1  0.862100  0.014100  0.750500  1
  H  H666  1  0.637900  0.485900  0.250500  1
  H  H667  1  0.137900  0.985900  0.249500  1
  H  H668  1  0.362100  0.514100  0.749500  1
  H  H669  1  0.870600  0.987900  0.677200  1
  H  H670  1  0.629400  0.512100  0.177200  1
  H  H671  1  0.129400  0.012100  0.322800  1
  H  H672  1  0.370600  0.487900  0.822800  1
  H  H673  1  0.924000  0.030600  0.684900  1
  H  H674  1  0.576000  0.469400  0.184900  1
  H  H675  1  0.076000  0.969400  0.315100  1
  H  H676  1  0.424000  0.530600  0.815100  1
  H  H677  1  0.969700  0.965500  0.649300  1
  H  H678  1  0.530300  0.534500  0.149300  1
  H  H679  1  0.030300  0.034500  0.350700  1
  H  H680  1  0.469700  0.465500  0.850700  1
  H  H681  1  0.037000  0.017200  0.694100  1
  H  H682  1  0.463000  0.482800  0.194100  1
  H  H683  1  0.963000  0.982800  0.305900  1
  H  H684  1  0.537000  0.517200  0.805900  1
  H  H685  1  0.060600  0.965200  0.695100  1
  H  H686  1  0.439400  0.534800  0.195100  1
  H  H687  1  0.939400  0.034800  0.304900  1
  H  H688  1  0.560600  0.465200  0.804900  1
  H  H689  1  0.059000  0.996100  0.768100  1
  H  H690  1  0.441000  0.503900  0.268100  1
  H  H691  1  0.941000  0.003900  0.231900  1
  H  H692  1  0.559000  0.496100  0.731900  1
  H  H693  1  0.992500  0.928400  0.797400  1
  H  H694  1  0.507500  0.571600  0.297400  1
  H  H695  1  0.007500  0.071600  0.202600  1
  H  H696  1  0.492500  0.428400  0.702600  1
  H  H697  1  0.033400  0.910500  0.759100  1
  H  H698  1  0.466600  0.589500  0.259100  1
  H  H699  1  0.966600  0.089500  0.240900  1
  H  H700  1  0.533400  0.410500  0.740900  1
  H  H701  1  0.876700  0.940000  0.787900  1
  H  H702  1  0.623300  0.560000  0.287900  1
  H  H703  1  0.123300  0.060000  0.212100  1
  H  H704  1  0.376700  0.440000  0.712100  1
  H  H705  1  0.841500  0.928100  0.743900  1
  H  H706  1  0.658500  0.571900  0.243900  1
  H  H707  1  0.158500  0.071900  0.256100  1
  H  H708  1  0.341500  0.428100  0.756100  1
  H  H709  1  0.912900  0.895000  0.678700  1
  H  H710  1  0.587100  0.605000  0.178700  1
  H  H711  1  0.087100  0.105000  0.321300  1
  H  H712  1  0.412900  0.395000  0.821300  1
  H  H713  1  0.986900  0.892700  0.688000  1
  H  H714  1  0.513100  0.607300  0.188000  1
  H  H715  1  0.013100  0.107300  0.312000  1
  H  H716  1  0.486900  0.392700  0.812000  1
  H  H717  1  0.959700  0.800200  0.779100  1
  H  H718  1  0.540300  0.699800  0.279100  1
  H  H719  1  0.040300  0.199800  0.220900  1
  H  H720  1  0.459700  0.300200  0.720900  1
  H  H721  1  0.997800  0.848500  0.794100  1
  H  H722  1  0.502200  0.651500  0.294100  1
  H  H723  1  0.002200  0.151500  0.205900  1
  H  H724  1  0.497800  0.348500  0.705900  1
  H  H725  1  0.003700  0.830800  0.746200  1
  H  H726  1  0.496300  0.669200  0.246200  1
  H  H727  1  0.996300  0.169200  0.253800  1
  H  H728  1  0.503700  0.330800  0.753800  1
  Pd  Pd729  1  0.187130  0.398010  0.749074  1
  Pd  Pd730  1  0.312870  0.101990  0.249074  1
  Pd  Pd731  1  0.812870  0.601990  0.250926  1
  Pd  Pd732  1  0.687130  0.898010  0.750926  1
  Pd  Pd733  1  0.839580  0.443000  0.742720  1
  Pd  Pd734  1  0.660420  0.057000  0.242720  1
  Pd  Pd735  1  0.160420  0.557000  0.257280  1
  Pd  Pd736  1  0.339580  0.943000  0.757280  1
  C  C737  1  0.365400  0.248600  0.610800  1
  C  C738  1  0.134600  0.251400  0.110800  1
  C  C739  1  0.634600  0.751400  0.389200  1
  C  C740  1  0.865400  0.748600  0.889200  1
  C  C741  1  0.741700  0.307100  0.868600  1
  C  C742  1  0.758300  0.192900  0.368600  1
  C  C743  1  0.258300  0.692900  0.131400  1
  C  C744  1  0.241700  0.807100  0.631400  1
  C  C745  1  0.311500  0.272100  0.622000  1
  C  C746  1  0.188500  0.227900  0.122000  1
  C  C747  1  0.688500  0.727900  0.378000  1
  C  C748  1  0.811500  0.772100  0.878000  1
  C  C749  1  0.235700  0.487900  0.711100  1
  C  C750  1  0.264300  0.012100  0.211100  1
  C  C751  1  0.764300  0.512100  0.288900  1
  C  C752  1  0.735700  0.987900  0.788900  1
  C  C753  1  0.722400  0.558400  0.620500  1
  C  C754  1  0.777600  0.941600  0.120500  1
  C  C755  1  0.277600  0.441600  0.379500  1
  C  C756  1  0.222400  0.058400  0.879500  1
  C  C757  1  0.299000  0.531200  0.629700  1
  C  C758  1  0.201000  0.968800  0.129700  1
  C  C759  1  0.701000  0.468800  0.370300  1
  C  C760  1  0.799000  0.031200  0.870300  1
  C  C761  1  0.775600  0.521000  0.776700  1
  C  C762  1  0.724400  0.979000  0.276700  1
  C  C763  1  0.224400  0.479000  0.223300  1
  C  C764  1  0.275600  0.021000  0.723300  1
  C  C765  1  0.578400  0.447100  0.529100  1
  C  C766  1  0.921600  0.052900  0.029100  1
  C  C767  1  0.421600  0.552900  0.470900  1
  C  C768  1  0.078400  0.947100  0.970900  1
  C  C769  1  0.764900  0.567400  0.787900  1
  C  C770  1  0.735100  0.932600  0.287900  1
  C  C771  1  0.235100  0.432600  0.212100  1
  C  C772  1  0.264900  0.067400  0.712100  1
  C  C773  1  0.733800  0.354900  0.876500  1
  C  C774  1  0.766200  0.145100  0.376500  1
  C  C775  1  0.266200  0.645100  0.123500  1
  C  C776  1  0.233800  0.854900  0.623500  1
  C  C777  1  0.258200  0.345900  0.634800  1
  C  C778  1  0.241800  0.154100  0.134800  1
  C  C779  1  0.741800  0.654100  0.365200  1
  C  C780  1  0.758200  0.845900  0.865200  1
  C  C781  1  0.239600  0.313300  0.778400  1
  C  C782  1  0.260400  0.186700  0.278400  1
  C  C783  1  0.760400  0.686700  0.221600  1
  C  C784  1  0.739600  0.813300  0.721600  1
  C  C785  1  0.332900  0.591400  0.682200  1
  C  C786  1  0.167100  0.908600  0.182200  1
  C  C787  1  0.667100  0.408600  0.317800  1
  C  C788  1  0.832900  0.091400  0.817800  1
  C  C789  1  0.803900  0.347500  0.712800  1
  C  C790  1  0.696100  0.152500  0.212800  1
  C  C791  1  0.196100  0.652500  0.287200  1
  C  C792  1  0.303900  0.847500  0.787200  1
  C  C793  1  0.799400  0.292100  0.852800  1
  C  C794  1  0.700600  0.207900  0.352800  1
  C  C795  1  0.200600  0.707900  0.147200  1
  C  C796  1  0.299400  0.792100  0.647200  1
  C  C797  1  0.786600  0.390800  0.863700  1
  C  C798  1  0.713400  0.109200  0.363700  1
  C  C799  1  0.213400  0.609200  0.136300  1
  C  C800  1  0.286600  0.890800  0.636300  1
  C  C801  1  0.309300  0.260000  0.848400  1
  C  C802  1  0.190700  0.240000  0.348400  1
  C  C803  1  0.690700  0.740000  0.151600  1
  C  C804  1  0.809300  0.760000  0.651600  1
  C  C805  1  0.864900  0.547400  0.738100  1
  C  C806  1  0.635100  0.952600  0.238100  1
  C  C807  1  0.135100  0.452600  0.261900  1
  C  C808  1  0.364900  0.047400  0.761900  1
  C  C809  1  0.710800  0.240000  0.696800  1
  C  C810  1  0.789200  0.260000  0.196800  1
  C  C811  1  0.289200  0.760000  0.303200  1
  C  C812  1  0.210800  0.740000  0.803200  1
  C  C813  1  0.356900  0.234700  0.782900  1
  C  C814  1  0.143100  0.265300  0.282900  1
  C  C815  1  0.643100  0.765300  0.217100  1
  C  C816  1  0.856900  0.734700  0.717100  1
  C  C817  1  0.784700  0.473600  0.663300  1
  C  C818  1  0.715300  0.026400  0.163300  1
  C  C819  1  0.215300  0.526400  0.336700  1
  C  C820  1  0.284700  0.973600  0.836700  1
  C  C821  1  0.779400  0.485300  0.620900  1
  C  C822  1  0.720600  0.014700  0.120900  1
  C  C823  1  0.220600  0.514700  0.379100  1
  C  C824  1  0.279400  0.985300  0.879100  1
  C  C825  1  0.424800  0.275300  0.602900  1
  C  C826  1  0.075200  0.224700  0.102900  1
  C  C827  1  0.575200  0.724700  0.397100  1
  C  C828  1  0.924800  0.775300  0.897100  1
  C  C829  1  0.250500  0.265500  0.780700  1
  C  C830  1  0.249500  0.234500  0.280700  1
  C  C831  1  0.749500  0.734500  0.219300  1
  C  C832  1  0.750500  0.765500  0.719300  1
  C  C833  1  0.335900  0.566000  0.884300  1
  C  C834  1  0.164100  0.934000  0.384300  1
  C  C835  1  0.664100  0.434000  0.115700  1
  C  C836  1  0.835900  0.066000  0.615700  1
  C  C837  1  0.358100  0.230700  0.738300  1
  C  C838  1  0.141900  0.269300  0.238300  1
  C  C839  1  0.641900  0.769300  0.261700  1
  C  C840  1  0.858100  0.730700  0.761700  1
  C  C841  1  0.614700  0.186200  0.689100  1
  C  C842  1  0.885300  0.313800  0.189100  1
  C  C843  1  0.385300  0.813800  0.310900  1
  C  C844  1  0.114700  0.686200  0.810900  1
  C  C845  1  0.668100  0.582300  0.610600  1
  C  C846  1  0.831900  0.917700  0.110600  1
  C  C847  1  0.331900  0.417700  0.389400  1
  C  C848  1  0.168100  0.082300  0.889400  1
  C  C849  1  0.486800  0.353000  0.601600  1
  C  C850  1  0.013200  0.147000  0.101600  1
  C  C851  1  0.513200  0.647000  0.398400  1
  C  C852  1  0.986800  0.853000  0.898400  1
  C  C853  1  0.664800  0.629700  0.625900  1
  C  C854  1  0.835200  0.870300  0.125900  1
  C  C855  1  0.335200  0.370300  0.374100  1
  C  C856  1  0.164800  0.129700  0.874100  1
  C  C857  1  0.690300  0.272400  0.876700  1
  C  C858  1  0.809700  0.227600  0.376700  1
  C  C859  1  0.309700  0.727600  0.123300  1
  C  C860  1  0.190300  0.772400  0.623300  1
  C  C861  1  0.188900  0.560900  0.711800  1
  C  C862  1  0.311100  0.939100  0.211800  1
  C  C863  1  0.811100  0.439100  0.288200  1
  C  C864  1  0.688900  0.060900  0.788200  1
  C  C865  1  0.724500  0.511100  0.607000  1
  C  C866  1  0.775500  0.988900  0.107000  1
  C  C867  1  0.275500  0.488900  0.393000  1
  C  C868  1  0.224500  0.011100  0.893000  1
  C  C869  1  0.710300  0.575000  0.815300  1
  C  C870  1  0.789700  0.925000  0.315300  1
  C  C871  1  0.289700  0.425000  0.184700  1
  C  C872  1  0.210300  0.075000  0.684700  1
  C  C873  1  0.250000  0.361600  0.675400  1
  C  C874  1  0.250000  0.138400  0.175400  1
  C  C875  1  0.750000  0.638400  0.324600  1
  C  C876  1  0.750000  0.861600  0.824600  1
  C  C877  1  0.317100  0.321100  0.624500  1
  C  C878  1  0.182900  0.178900  0.124500  1
  C  C879  1  0.682900  0.678900  0.375500  1
  C  C880  1  0.817100  0.821100  0.875500  1
  C  C881  1  0.290700  0.553100  0.669500  1
  C  C882  1  0.209300  0.946900  0.169500  1
  C  C883  1  0.709300  0.446900  0.330500  1
  C  C884  1  0.790700  0.053100  0.830500  1
  C  C885  1  0.765600  0.544400  0.877800  1
  C  C886  1  0.734400  0.955600  0.377800  1
  C  C887  1  0.234400  0.455600  0.122200  1
  C  C888  1  0.265600  0.044400  0.622200  1
  C  C889  1  0.577000  0.250500  0.897500  1
  C  C890  1  0.923000  0.249500  0.397500  1
  C  C891  1  0.423000  0.749500  0.102500  1
  C  C892  1  0.077000  0.750500  0.602500  1
  C  C893  1  0.657200  0.221600  0.671700  1
  C  C894  1  0.842800  0.278400  0.171700  1
  C  C895  1  0.342800  0.778400  0.328300  1
  C  C896  1  0.157200  0.721600  0.828300  1
  C  C897  1  0.237100  0.534100  0.697600  1
  C  C898  1  0.262900  0.965900  0.197600  1
  C  C899  1  0.762900  0.465900  0.302400  1
  C  C900  1  0.737100  0.034100  0.802400  1
  C  C901  1  0.206300  0.233600  0.763000  1
  C  C902  1  0.293700  0.266400  0.263000  1
  C  C903  1  0.793700  0.766400  0.237000  1
  C  C904  1  0.706300  0.733600  0.737000  1
  C  C905  1  0.481100  0.248600  0.591200  1
  C  C906  1  0.018900  0.251400  0.091200  1
  C  C907  1  0.518900  0.751400  0.408800  1
  C  C908  1  0.981100  0.748600  0.908800  1
  C  C909  1  0.413800  0.229300  0.849900  1
  C  C910  1  0.086200  0.270700  0.349900  1
  C  C911  1  0.586200  0.770700  0.150100  1
  C  C912  1  0.913800  0.729300  0.650100  1
  C  C913  1  0.524100  0.252000  0.872300  1
  C  C914  1  0.975900  0.248000  0.372300  1
  C  C915  1  0.475900  0.748000  0.127700  1
  C  C916  1  0.024100  0.752000  0.627700  1
  C  C917  1  0.234900  0.551900  0.848300  1
  C  C918  1  0.265100  0.948100  0.348300  1
  C  C919  1  0.765100  0.448100  0.151700  1
  C  C920  1  0.734900  0.051900  0.651700  1
  C  C921  1  0.754300  0.275600  0.679500  1
  C  C922  1  0.745700  0.224400  0.179500  1
  C  C923  1  0.245700  0.724400  0.320500  1
  C  C924  1  0.254300  0.775600  0.820500  1
  C  C925  1  0.713100  0.563700  0.858600  1
  C  C926  1  0.786900  0.936300  0.358600  1
  C  C927  1  0.286900  0.436300  0.141400  1
  C  C928  1  0.213100  0.063700  0.641400  1
  C  C929  1  0.429400  0.324300  0.607700  1
  C  C930  1  0.070600  0.175700  0.107700  1
  C  C931  1  0.570600  0.675700  0.392300  1
  C  C932  1  0.929400  0.824300  0.892300  1
  C  C933  1  0.728900  0.326800  0.556400  1
  C  C934  1  0.771100  0.173200  0.056400  1
  C  C935  1  0.271100  0.673200  0.443600  1
  C  C936  1  0.228900  0.826800  0.943600  1
  C  C937  1  0.254000  0.243700  0.631600  1
  C  C938  1  0.246000  0.256300  0.131600  1
  C  C939  1  0.746000  0.756300  0.368400  1
  C  C940  1  0.754000  0.743700  0.868400  1
  C  C941  1  0.385000  0.550600  0.910300  1
  C  C942  1  0.115000  0.949400  0.410300  1
  C  C943  1  0.615000  0.449400  0.089700  1
  C  C944  1  0.885000  0.050600  0.589700  1
  C  C945  1  0.491700  0.400400  0.607700  1
  C  C946  1  0.008300  0.099600  0.107700  1
  C  C947  1  0.508300  0.599600  0.392300  1
  C  C948  1  0.991700  0.900400  0.892300  1
  C  C949  1  0.715700  0.223200  0.738500  1
  C  C950  1  0.784300  0.276800  0.238500  1
  C  C951  1  0.284300  0.776800  0.261500  1
  C  C952  1  0.215700  0.723200  0.761500  1
  C  C953  1  0.512200  0.648500  0.541600  1
  C  C954  1  0.987800  0.851500  0.041600  1
  C  C955  1  0.487800  0.351500  0.458400  1
  C  C956  1  0.012200  0.148500  0.958400  1
  C  C957  1  0.250600  0.196100  0.630000  1
  C  C958  1  0.249400  0.303900  0.130000  1
  C  C959  1  0.749400  0.803900  0.370000  1
  C  C960  1  0.750600  0.696100  0.870000  1
  C  C961  1  0.623000  0.514300  0.570600  1
  C  C962  1  0.877000  0.985700  0.070600  1
  C  C963  1  0.377000  0.485700  0.429400  1
  C  C964  1  0.123000  0.014300  0.929400  1
  C  C965  1  0.227200  0.441100  0.829500  1
  C  C966  1  0.272800  0.058900  0.329500  1
  C  C967  1  0.772800  0.558900  0.170500  1
  C  C968  1  0.727200  0.941100  0.670500  1
  C  C969  1  0.773000  0.583300  0.642900  1
  C  C970  1  0.727000  0.916700  0.142900  1
  C  C971  1  0.227000  0.416700  0.357100  1
  C  C972  1  0.273000  0.083300  0.857100  1
  C  C973  1  0.685500  0.294800  0.572200  1
  C  C974  1  0.814500  0.205200  0.072200  1
  C  C975  1  0.314500  0.705200  0.427800  1
  C  C976  1  0.185500  0.794800  0.927800  1
  C  C977  1  0.692400  0.275100  0.614400  1
  C  C978  1  0.807600  0.224900  0.114400  1
  C  C979  1  0.307600  0.724900  0.385600  1
  C  C980  1  0.192400  0.775100  0.885600  1
  C  C981  1  0.647200  0.241300  0.631400  1
  C  C982  1  0.852800  0.258700  0.131400  1
  C  C983  1  0.352800  0.758700  0.368600  1
  C  C984  1  0.147200  0.741300  0.868600  1
  C  C985  1  0.364400  0.248300  0.871600  1
  C  C986  1  0.135600  0.251700  0.371600  1
  C  C987  1  0.635600  0.751700  0.128400  1
  C  C988  1  0.864400  0.748300  0.628400  1
  C  C989  1  0.381300  0.397800  0.622100  1
  C  C990  1  0.118700  0.102200  0.122100  1
  C  C991  1  0.618700  0.602200  0.377900  1
  C  C992  1  0.881300  0.897800  0.877900  1
  C  C993  1  0.383700  0.608500  0.655300  1
  C  C994  1  0.116300  0.891500  0.155300  1
  C  C995  1  0.616300  0.391500  0.344700  1
  C  C996  1  0.883700  0.108500  0.844700  1
  C  C997  1  0.699200  0.224100  0.867800  1
  C  C998  1  0.800800  0.275900  0.367800  1
  C  C999  1  0.300800  0.775900  0.132200  1
  C  C1000  1  0.199200  0.724100  0.632200  1
  C  C1001  1  0.876500  0.447200  0.876000  1
  C  C1002  1  0.623500  0.052800  0.376000  1
  C  C1003  1  0.123500  0.552800  0.124000  1
  C  C1004  1  0.376500  0.947200  0.624000  1
  C  C1005  1  0.676100  0.489200  0.581700  1
  C  C1006  1  0.823900  0.010800  0.081700  1
  C  C1007  1  0.323900  0.510800  0.418300  1
  C  C1008  1  0.176100  0.989200  0.918300  1
  C  C1009  1  0.424300  0.648400  0.668900  1
  C  C1010  1  0.075700  0.851600  0.168900  1
  C  C1011  1  0.575700  0.351600  0.331100  1
  C  C1012  1  0.924300  0.148400  0.831100  1
  C  C1013  1  0.618900  0.560300  0.586200  1
  C  C1014  1  0.881100  0.939700  0.086200  1
  C  C1015  1  0.381100  0.439700  0.413800  1
  C  C1016  1  0.118900  0.060300  0.913800  1
  C  C1017  1  0.226300  0.453700  0.872200  1
  C  C1018  1  0.273700  0.046300  0.372200  1
  C  C1019  1  0.773700  0.546300  0.127800  1
  C  C1020  1  0.726300  0.953700  0.627800  1
  C  C1021  1  0.340100  0.612900  0.867800  1
  C  C1022  1  0.159900  0.887100  0.367800  1
  C  C1023  1  0.659900  0.387100  0.132200  1
  C  C1024  1  0.840100  0.112900  0.632200  1
  C  C1025  1  0.361200  0.521600  0.565900  1
  C  C1026  1  0.138800  0.978400  0.065900  1
  C  C1027  1  0.638800  0.478400  0.434100  1
  C  C1028  1  0.861200  0.021600  0.934100  1
  C  C1029  1  0.629900  0.421900  0.541000  1
  C  C1030  1  0.870100  0.078100  0.041000  1
  C  C1031  1  0.370100  0.578100  0.459000  1
  C  C1032  1  0.129900  0.921900  0.959000  1
  C  C1033  1  0.145700  0.296700  0.742700  1
  C  C1034  1  0.354300  0.203300  0.242700  1
  C  C1035  1  0.854300  0.703300  0.257300  1
  C  C1036  1  0.645700  0.796700  0.757300  1
  C  C1037  1  0.306700  0.252400  0.804300  1
  C  C1038  1  0.193300  0.247600  0.304300  1
  C  C1039  1  0.693300  0.747600  0.195700  1
  C  C1040  1  0.806700  0.752400  0.695700  1
  C  C1041  1  0.463000  0.204800  0.783800  1
  C  C1042  1  0.037000  0.295200  0.283800  1
  C  C1043  1  0.537000  0.795200  0.216200  1
  C  C1044  1  0.963000  0.704800  0.716200  1
  C  C1045  1  0.625600  0.334600  0.899400  1
  C  C1046  1  0.874400  0.165400  0.399400  1
  C  C1047  1  0.374400  0.665400  0.100600  1
  C  C1048  1  0.125600  0.834600  0.600600  1
  C  C1049  1  0.378200  0.504700  0.926600  1
  C  C1050  1  0.121800  0.995300  0.426600  1
  C  C1051  1  0.621800  0.495300  0.073400  1
  C  C1052  1  0.878200  0.004700  0.573400  1
  C  C1053  1  0.754600  0.211600  0.852000  1
  C  C1054  1  0.745400  0.288400  0.352000  1
  C  C1055  1  0.245400  0.788400  0.148000  1
  C  C1056  1  0.254600  0.711600  0.648000  1
  C  C1057  1  0.461700  0.200600  0.742000  1
  C  C1058  1  0.038300  0.299400  0.242000  1
  C  C1059  1  0.538300  0.799400  0.258000  1
  C  C1060  1  0.961700  0.700600  0.758000  1
  C  C1061  1  0.374800  0.347700  0.618200  1
  C  C1062  1  0.125200  0.152300  0.118200  1
  C  C1063  1  0.625200  0.652300  0.381800  1
  C  C1064  1  0.874800  0.847700  0.881800  1
  C  C1065  1  0.524500  0.180700  0.930100  1
  C  C1066  1  0.975500  0.319300  0.430100  1
  C  C1067  1  0.475500  0.819300  0.069900  1
  C  C1068  1  0.024500  0.680700  0.569900  1
  C  C1069  1  0.283100  0.534400  0.873400  1
  C  C1070  1  0.216900  0.965600  0.373400  1
  C  C1071  1  0.716900  0.465600  0.126600  1
  C  C1072  1  0.783100  0.034400  0.626600  1
  C  C1073  1  0.805300  0.299200  0.705800  1
  C  C1074  1  0.694700  0.200800  0.205800  1
  C  C1075  1  0.194700  0.700800  0.294200  1
  C  C1076  1  0.305300  0.799200  0.794200  1
  C  C1077  1  0.421200  0.443900  0.970000  1
  C  C1078  1  0.078800  0.056100  0.470000  1
  C  C1079  1  0.578800  0.556100  0.030000  1
  C  C1080  1  0.921200  0.943900  0.530000  1
  C  C1081  1  0.746700  0.292200  0.638400  1
  C  C1082  1  0.753300  0.207800  0.138400  1
  C  C1083  1  0.253300  0.707800  0.361600  1
  C  C1084  1  0.246700  0.792200  0.861600  1
  C  C1085  1  0.765700  0.533500  0.919700  1
  C  C1086  1  0.734300  0.966500  0.419700  1
  C  C1087  1  0.234300  0.466500  0.080300  1
  C  C1088  1  0.265700  0.033500  0.580300  1
  C  C1089  1  0.587000  0.228500  0.607100  1
  C  C1090  1  0.913000  0.271500  0.107100  1
  C  C1091  1  0.413000  0.771500  0.392900  1
  C  C1092  1  0.087000  0.728500  0.892900  1
  C  C1093  1  0.880100  0.443000  0.652600  1
  C  C1094  1  0.619900  0.057000  0.152600  1
  C  C1095  1  0.119900  0.557000  0.347400  1
  C  C1096  1  0.380100  0.943000  0.847400  1
  C  C1097  1  0.575500  0.491600  0.543800  1
  C  C1098  1  0.924500  0.008400  0.043800  1
  C  C1099  1  0.424500  0.508400  0.456200  1
  C  C1100  1  0.075500  0.991600  0.956200  1
  C  C1101  1  0.443600  0.581900  0.917400  1
  C  C1102  1  0.056400  0.918100  0.417400  1
  C  C1103  1  0.556400  0.418100  0.082600  1
  C  C1104  1  0.943600  0.081900  0.582600  1
  C  C1105  1  0.607600  0.591900  0.868000  1
  C  C1106  1  0.892400  0.908100  0.368000  1
  C  C1107  1  0.392400  0.408100  0.132000  1
  C  C1108  1  0.107600  0.091900  0.632000  1
  C  C1109  1  0.793300  0.400900  0.821800  1
  C  C1110  1  0.706700  0.099100  0.321800  1
  C  C1111  1  0.206700  0.599100  0.178200  1
  C  C1112  1  0.293300  0.900900  0.678200  1
  C  C1113  1  0.829400  0.414900  0.892200  1
  C  C1114  1  0.670600  0.085100  0.392200  1
  C  C1115  1  0.170600  0.585100  0.107800  1
  C  C1116  1  0.329400  0.914900  0.607800  1
  C  C1117  1  0.424500  0.488900  0.955400  1
  C  C1118  1  0.075500  0.011100  0.455400  1
  C  C1119  1  0.575500  0.511100  0.044600  1
  C  C1120  1  0.924500  0.988900  0.544600  1
  C  C1121  1  0.213000  0.353600  0.604500  1
  C  C1122  1  0.287000  0.146400  0.104500  1
  C  C1123  1  0.787000  0.646400  0.395500  1
  C  C1124  1  0.713000  0.853600  0.895500  1
  C  C1125  1  0.161100  0.377300  0.617000  1
  C  C1126  1  0.338900  0.122700  0.117000  1
  C  C1127  1  0.838900  0.622700  0.383000  1
  C  C1128  1  0.661100  0.877300  0.883000  1
  C  C1129  1  0.879800  0.455600  0.833100  1
  C  C1130  1  0.620200  0.044400  0.333100  1
  C  C1131  1  0.120200  0.544400  0.166900  1
  C  C1132  1  0.379800  0.955600  0.666900  1
  C  C1133  1  0.662700  0.559800  0.928900  1
  C  C1134  1  0.837300  0.940200  0.428900  1
  C  C1135  1  0.337300  0.440200  0.071100  1
  C  C1136  1  0.162700  0.059800  0.571100  1
  C  C1137  1  0.715700  0.652500  0.647200  1
  C  C1138  1  0.784300  0.847500  0.147200  1
  C  C1139  1  0.284300  0.347500  0.352800  1
  C  C1140  1  0.215700  0.152500  0.852800  1
  C  C1141  1  0.676900  0.369300  0.891600  1
  C  C1142  1  0.823100  0.130700  0.391600  1
  C  C1143  1  0.323100  0.630700  0.108400  1
  C  C1144  1  0.176900  0.869300  0.608400  1
  C  C1145  1  0.452200  0.597900  0.592200  1
  C  C1146  1  0.047800  0.902100  0.092200  1
  C  C1147  1  0.547800  0.402100  0.407800  1
  C  C1148  1  0.952200  0.097900  0.907800  1
  C  C1149  1  0.497200  0.573600  0.894300  1
  C  C1150  1  0.002800  0.926400  0.394300  1
  C  C1151  1  0.502800  0.426400  0.105700  1
  C  C1152  1  0.997200  0.073600  0.605700  1
  C  C1153  1  0.769900  0.628800  0.655100  1
  C  C1154  1  0.730100  0.871200  0.155100  1
  C  C1155  1  0.230100  0.371200  0.344900  1
  C  C1156  1  0.269900  0.128800  0.844900  1
  C  C1157  1  0.411400  0.222900  0.806700  1
  C  C1158  1  0.088600  0.277100  0.306700  1
  C  C1159  1  0.588600  0.777100  0.193300  1
  C  C1160  1  0.911400  0.722900  0.693300  1
  C  C1161  1  0.531600  0.195600  0.546300  1
  C  C1162  1  0.968400  0.304400  0.046300  1
  C  C1163  1  0.468400  0.804400  0.453700  1
  C  C1164  1  0.031600  0.695600  0.953700  1
  C  C1165  1  0.562100  0.585200  0.576600  1
  C  C1166  1  0.937900  0.914800  0.076600  1
  C  C1167  1  0.437900  0.414800  0.423400  1
  C  C1168  1  0.062100  0.085200  0.923400  1
  C  C1169  1  0.533500  0.252200  0.617200  1
  C  C1170  1  0.966500  0.247800  0.117200  1
  C  C1171  1  0.466500  0.747800  0.382800  1
  C  C1172  1  0.033500  0.752200  0.882800  1
  C  C1173  1  0.367200  0.650300  0.735000  1
  C  C1174  1  0.132800  0.849700  0.235000  1
  C  C1175  1  0.632800  0.349700  0.265000  1
  C  C1176  1  0.867200  0.150300  0.765000  1
  C  C1177  1  0.805200  0.245400  0.845300  1
  C  C1178  1  0.694800  0.254600  0.345300  1
  C  C1179  1  0.194800  0.754600  0.154700  1
  C  C1180  1  0.305200  0.745400  0.654700  1
  C  C1181  1  0.505500  0.573900  0.597700  1
  C  C1182  1  0.994500  0.926100  0.097700  1
  C  C1183  1  0.494500  0.426100  0.402300  1
  C  C1184  1  0.005500  0.073900  0.902300  1
  C  C1185  1  0.621200  0.168700  0.728900  1
  C  C1186  1  0.878800  0.331300  0.228900  1
  C  C1187  1  0.378800  0.831300  0.271100  1
  C  C1188  1  0.121200  0.668700  0.771100  1
  C  C1189  1  0.365300  0.257500  0.916500  1
  C  C1190  1  0.134700  0.242500  0.416500  1
  C  C1191  1  0.634700  0.742500  0.083500  1
  C  C1192  1  0.865300  0.757500  0.583500  1
  C  C1193  1  0.155000  0.391300  0.657100  1
  C  C1194  1  0.345000  0.108700  0.157100  1
  C  C1195  1  0.845000  0.608700  0.342900  1
  C  C1196  1  0.655000  0.891300  0.842900  1
  C  C1197  1  0.606500  0.604600  0.824900  1
  C  C1198  1  0.893500  0.895400  0.324900  1
  C  C1199  1  0.393500  0.395400  0.175100  1
  C  C1200  1  0.106500  0.104600  0.675100  1
  C  C1201  1  0.258100  0.278600  0.871100  1
  C  C1202  1  0.241900  0.221400  0.371100  1
  C  C1203  1  0.741900  0.721400  0.128900  1
  C  C1204  1  0.758100  0.778600  0.628900  1
  C  C1205  1  0.278500  0.487600  0.887700  1
  C  C1206  1  0.221500  0.012400  0.387700  1
  C  C1207  1  0.721500  0.512400  0.112300  1
  C  C1208  1  0.778500  0.987600  0.612300  1
  C  C1209  1  0.632600  0.286200  0.891900  1
  C  C1210  1  0.867400  0.213800  0.391900  1
  C  C1211  1  0.367400  0.713800  0.108100  1
  C  C1212  1  0.132600  0.786200  0.608100  1
  C  C1213  1  0.153100  0.248400  0.743100  1
  C  C1214  1  0.346900  0.251600  0.243100  1
  C  C1215  1  0.846900  0.751600  0.256900  1
  C  C1216  1  0.653100  0.748400  0.756900  1
  C  C1217  1  0.416300  0.669400  0.707400  1
  C  C1218  1  0.083700  0.830600  0.207400  1
  C  C1219  1  0.583700  0.330600  0.292600  1
  C  C1220  1  0.916300  0.169400  0.792600  1
  C  C1221  1  0.877800  0.452400  0.610100  1
  C  C1222  1  0.622200  0.047600  0.110100  1
  C  C1223  1  0.122200  0.547600  0.389900  1
  C  C1224  1  0.377800  0.952400  0.889900  1
  C  C1225  1  0.660000  0.572000  0.885400  1
  C  C1226  1  0.840000  0.928000  0.385400  1
  C  C1227  1  0.340000  0.428000  0.114600  1
  C  C1228  1  0.160000  0.072000  0.614600  1
  C  C1229  1  0.713500  0.541100  0.945000  1
  C  C1230  1  0.786500  0.958900  0.445000  1
  C  C1231  1  0.286500  0.458900  0.055000  1
  C  C1232  1  0.213500  0.041100  0.555000  1
  C  C1233  1  0.658500  0.594500  0.798300  1
  C  C1234  1  0.841500  0.905500  0.298300  1
  C  C1235  1  0.341500  0.405500  0.201700  1
  C  C1236  1  0.158500  0.094500  0.701700  1
  C  C1237  1  0.240100  0.597700  0.833900  1
  C  C1238  1  0.259900  0.902300  0.333900  1
  C  C1239  1  0.759900  0.402300  0.166100  1
  C  C1240  1  0.740100  0.097700  0.666100  1
  C  C1241  1  0.437500  0.423100  0.617000  1
  C  C1242  1  0.062500  0.076900  0.117000  1
  C  C1243  1  0.562500  0.576900  0.383000  1
  C  C1244  1  0.937500  0.923100  0.883000  1
  C  C1245  1  0.408200  0.213300  0.717800  1
  C  C1246  1  0.091800  0.286700  0.217800  1
  C  C1247  1  0.591800  0.786700  0.282200  1
  C  C1248  1  0.908200  0.713300  0.782200  1
  C  C1249  1  0.394600  0.584600  0.617100  1
  C  C1250  1  0.105400  0.915400  0.117100  1
  C  C1251  1  0.605400  0.415400  0.382900  1
  C  C1252  1  0.894600  0.084600  0.882900  1
  C  C1253  1  0.178600  0.432900  0.896500  1
  C  C1254  1  0.321400  0.067100  0.396500  1
  C  C1255  1  0.821400  0.567100  0.103500  1
  C  C1256  1  0.678600  0.932900  0.603500  1
  C  C1257  1  0.352500  0.546000  0.604600  1
  C  C1258  1  0.147500  0.954000  0.104600  1
  C  C1259  1  0.647500  0.454000  0.395400  1
  C  C1260  1  0.852500  0.046000  0.895400  1
  C  C1261  1  0.827100  0.473800  0.593500  1
  C  C1262  1  0.672900  0.026200  0.093500  1
  C  C1263  1  0.172900  0.526200  0.406500  1
  C  C1264  1  0.327100  0.973800  0.906500  1
  C  C1265  1  0.553200  0.600900  0.895600  1
  C  C1266  1  0.946800  0.899100  0.395600  1
  C  C1267  1  0.446800  0.399100  0.104400  1
  C  C1268  1  0.053200  0.100900  0.604400  1
  C  C1269  1  0.327200  0.613600  0.723200  1
  C  C1270  1  0.172800  0.886400  0.223200  1
  C  C1271  1  0.672800  0.386400  0.276800  1
  C  C1272  1  0.827200  0.113600  0.776800  1
  C  C1273  1  0.360700  0.198400  0.610000  1
  C  C1274  1  0.139300  0.301600  0.110000  1
  C  C1275  1  0.639300  0.801600  0.390000  1
  C  C1276  1  0.860700  0.698400  0.890000  1
  C  C1277  1  0.370400  0.410300  0.955800  1
  C  C1278  1  0.129600  0.089700  0.455800  1
  C  C1279  1  0.629600  0.589700  0.044200  1
  C  C1280  1  0.870400  0.910300  0.544200  1
  C  C1281  1  0.144100  0.494300  0.749300  1
  C  C1282  1  0.355900  0.005700  0.249300  1
  C  C1283  1  0.855900  0.505700  0.250700  1
  C  C1284  1  0.644100  0.994300  0.750700  1
  C  C1285  1  0.552400  0.637300  0.764300  1
  C  C1286  1  0.947600  0.862700  0.264300  1
  C  C1287  1  0.447600  0.362700  0.235700  1
  C  C1288  1  0.052400  0.137300  0.735700  1
  C  C1289  1  0.902000  0.304300  0.746300  1
  C  C1290  1  0.598000  0.195700  0.246300  1
  C  C1291  1  0.098000  0.695700  0.253700  1
  C  C1292  1  0.402000  0.804300  0.753700  1
  C  C1293  1  0.677300  0.441500  0.566400  1
  C  C1294  1  0.822700  0.058500  0.066400  1
  C  C1295  1  0.322700  0.558500  0.433600  1
  C  C1296  1  0.177300  0.941500  0.933600  1
  C  C1297  1  0.602200  0.626200  0.738400  1
  C  C1298  1  0.897800  0.873800  0.238400  1
  C  C1299  1  0.397800  0.373800  0.261600  1
  C  C1300  1  0.102200  0.126200  0.761600  1
  C  C1301  1  0.303700  0.172600  0.619100  1
  C  C1302  1  0.196300  0.327400  0.119100  1
  C  C1303  1  0.696300  0.827400  0.380900  1
  C  C1304  1  0.803700  0.672600  0.880900  1
  C  C1305  1  0.667900  0.417400  0.897600  1
  C  C1306  1  0.832100  0.082600  0.397600  1
  C  C1307  1  0.332100  0.582600  0.102400  1
  C  C1308  1  0.167900  0.917400  0.602400  1
  C  C1309  1  0.325500  0.424300  0.929300  1
  C  C1310  1  0.174500  0.075700  0.429300  1
  C  C1311  1  0.674500  0.575700  0.070700  1
  C  C1312  1  0.825500  0.924300  0.570700  1
  C  C1313  1  0.294100  0.628900  0.843900  1
  C  C1314  1  0.205900  0.871100  0.343900  1
  C  C1315  1  0.705900  0.371100  0.156100  1
  C  C1316  1  0.794100  0.128900  0.656100  1
  C  C1317  1  0.612700  0.431000  0.911000  1
  C  C1318  1  0.887300  0.069000  0.411000  1
  C  C1319  1  0.387300  0.569000  0.089000  1
  C  C1320  1  0.112700  0.931000  0.589000  1
  C  C1321  1  0.504700  0.649300  0.947900  1
  C  C1322  1  0.995300  0.850700  0.447900  1
  C  C1323  1  0.495300  0.350700  0.052100  1
  C  C1324  1  0.004700  0.149300  0.552100  1
  C  C1325  1  0.783300  0.342100  0.579100  1
  C  C1326  1  0.716700  0.157900  0.079100  1
  C  C1327  1  0.216700  0.657900  0.420900  1
  C  C1328  1  0.283300  0.842100  0.920900  1
  C  C1329  1  0.855500  0.278600  0.722900  1
  C  C1330  1  0.644500  0.221400  0.222900  1
  C  C1331  1  0.144500  0.721400  0.277100  1
  C  C1332  1  0.355500  0.778600  0.777100  1
  C  C1333  1  0.807500  0.603900  0.773600  1
  C  C1334  1  0.692500  0.896100  0.273600  1
  C  C1335  1  0.192500  0.396100  0.226400  1
  C  C1336  1  0.307500  0.103900  0.726400  1
  C  C1337  1  0.326000  0.472700  0.914600  1
  C  C1338  1  0.174000  0.027300  0.414600  1
  C  C1339  1  0.674000  0.527300  0.085400  1
  C  C1340  1  0.826000  0.972700  0.585400  1
  C  C1341  1  0.471400  0.220400  0.874600  1
  C  C1342  1  0.028600  0.279600  0.374600  1
  C  C1343  1  0.528600  0.779600  0.125400  1
  C  C1344  1  0.971400  0.720400  0.625400  1
  C  C1345  1  0.672000  0.188800  0.753800  1
  C  C1346  1  0.828000  0.311200  0.253800  1
  C  C1347  1  0.328000  0.811200  0.246200  1
  C  C1348  1  0.172000  0.688800  0.746200  1
  C  C1349  1  0.263500  0.474600  0.575400  1
  C  C1350  1  0.236500  0.025400  0.075400  1
  C  C1351  1  0.736500  0.525400  0.424600  1
  C  C1352  1  0.763500  0.974600  0.924600  1
  C  C1353  1  0.317800  0.487300  0.551600  1
  C  C1354  1  0.182200  0.012700  0.051600  1
  C  C1355  1  0.682200  0.512700  0.448400  1
  C  C1356  1  0.817800  0.987300  0.948400  1
  C  C1357  1  0.792000  0.325900  0.618700  1
  C  C1358  1  0.708000  0.174100  0.118700  1
  C  C1359  1  0.208000  0.674100  0.381300  1
  C  C1360  1  0.292000  0.825900  0.881300  1
  C  C1361  1  0.253300  0.495000  0.613300  1
  C  C1362  1  0.246700  0.005000  0.113300  1
  C  C1363  1  0.746700  0.505000  0.386700  1
  C  C1364  1  0.753300  0.995000  0.886700  1
  C  C1365  1  0.136500  0.390700  0.836500  1
  C  C1366  1  0.363500  0.109300  0.336500  1
  C  C1367  1  0.863500  0.609300  0.163500  1
  C  C1368  1  0.636500  0.890700  0.663500  1
  C  C1369  1  0.857300  0.593000  0.747800  1
  C  C1370  1  0.642700  0.907000  0.247800  1
  C  C1371  1  0.142700  0.407000  0.252200  1
  C  C1372  1  0.357300  0.093000  0.752200  1
  C  C1373  1  0.261700  0.287100  0.913400  1
  C  C1374  1  0.238300  0.212900  0.413400  1
  C  C1375  1  0.738300  0.712900  0.086600  1
  C  C1376  1  0.761700  0.787100  0.586600  1
  C  C1377  1  0.654800  0.605000  0.753200  1
  C  C1378  1  0.845200  0.895000  0.253200  1
  C  C1379  1  0.345200  0.395000  0.246800  1
  C  C1380  1  0.154800  0.105000  0.746800  1
  C  C1381  1  0.316800  0.276300  0.935900  1
  C  C1382  1  0.183200  0.223700  0.435900  1
  C  C1383  1  0.683200  0.723700  0.064100  1
  C  C1384  1  0.816800  0.776300  0.564100  1
  C  C1385  1  0.896300  0.352000  0.751200  1
  C  C1386  1  0.603700  0.148000  0.251200  1
  C  C1387  1  0.103700  0.648000  0.248800  1
  C  C1388  1  0.396300  0.852000  0.748800  1
  C  C1389  1  0.142000  0.540500  0.737600  1
  C  C1390  1  0.358000  0.959500  0.237600  1
  C  C1391  1  0.858000  0.459500  0.262400  1
  C  C1392  1  0.642000  0.040500  0.762400  1
  C  C1393  1  0.132700  0.401900  0.878400  1
  C  C1394  1  0.367300  0.098100  0.378400  1
  C  C1395  1  0.867300  0.598100  0.121600  1
  C  C1396  1  0.632700  0.901900  0.621600  1
  C  C1397  1  0.568600  0.350900  0.915500  1
  C  C1398  1  0.931400  0.149100  0.415500  1
  C  C1399  1  0.431400  0.649100  0.084500  1
  C  C1400  1  0.068600  0.850900  0.584500  1
  C  C1401  1  0.554700  0.625800  0.806700  1
  C  C1402  1  0.945300  0.874200  0.306700  1
  C  C1403  1  0.445300  0.374200  0.193300  1
  C  C1404  1  0.054700  0.125800  0.693300  1
  C  C1405  1  0.562000  0.396200  0.920400  1
  C  C1406  1  0.938000  0.103800  0.420400  1
  C  C1407  1  0.438000  0.603800  0.079600  1
  C  C1408  1  0.062000  0.896200  0.579600  1
  C  C1409  1  0.456400  0.635400  0.564000  1
  C  C1410  1  0.043600  0.864600  0.064000  1
  C  C1411  1  0.543600  0.364600  0.436000  1
  C  C1412  1  0.956400  0.135400  0.936000  1
  C  C1413  1  0.408700  0.704600  0.541800  1
  C  C1414  1  0.091300  0.795400  0.041800  1
  C  C1415  1  0.591300  0.295400  0.458200  1
  C  C1416  1  0.908700  0.204600  0.958200  1
  C  C1417  1  0.346100  0.723000  0.546200  1
  C  C1418  1  0.153900  0.777000  0.046200  1
  C  C1419  1  0.653900  0.277000  0.453800  1
  C  C1420  1  0.846100  0.223000  0.953800  1
  C  C1421  1  0.284800  0.783300  0.524000  1
  C  C1422  1  0.215200  0.716700  0.024000  1
  C  C1423  1  0.715200  0.216700  0.476000  1
  C  C1424  1  0.784800  0.283300  0.976000  1
  C  C1425  1  0.565500  0.623500  0.547800  1
  C  C1426  1  0.934500  0.876500  0.047800  1
  C  C1427  1  0.434500  0.376500  0.452200  1
  C  C1428  1  0.065500  0.123500  0.952200  1
  C  C1429  1  0.635000  0.670600  0.500200  1
  C  C1430  1  0.865000  0.829400  0.000200  1
  C  C1431  1  0.365000  0.329400  0.499800  1
  C  C1432  1  0.135000  0.170600  0.999800  1
  C  C1433  1  0.700600  0.691700  0.503100  1
  C  C1434  1  0.799400  0.808300  0.003100  1
  C  C1435  1  0.299400  0.308300  0.496900  1
  C  C1436  1  0.200600  0.191700  0.996900  1
  C  C1437  1  0.765800  0.631300  0.521200  1
  C  C1438  1  0.734200  0.868700  0.021200  1
  C  C1439  1  0.234200  0.368700  0.478800  1
  C  C1440  1  0.265800  0.131300  0.978800  1
  C  C1441  1  0.448600  0.620800  0.944800  1
  C  C1442  1  0.051400  0.879200  0.444800  1
  C  C1443  1  0.551400  0.379200  0.055200  1
  C  C1444  1  0.948600  0.120800  0.555200  1
  C  C1445  1  0.387000  0.675300  0.981100  1
  C  C1446  1  0.113000  0.824700  0.481100  1
  C  C1447  1  0.613000  0.324700  0.018900  1
  C  C1448  1  0.887000  0.175300  0.518900  1
  C  C1449  1  0.354100  0.701500  0.948500  1
  C  C1450  1  0.145900  0.798500  0.448500  1
  C  C1451  1  0.645900  0.298500  0.051500  1
  C  C1452  1  0.854100  0.201500  0.551500  1
  C  C1453  1  0.413400  0.757000  0.904200  1
  C  C1454  1  0.086600  0.743000  0.404200  1
  C  C1455  1  0.586600  0.243000  0.095800  1
  C  C1456  1  0.913400  0.257000  0.595800  1
  C  C1457  1  0.557300  0.640300  0.923300  1
  C  C1458  1  0.942700  0.859700  0.423300  1
  C  C1459  1  0.442700  0.359700  0.076700  1
  C  C1460  1  0.057300  0.140300  0.576700  1
  C  C1461  1  0.636700  0.694000  0.955800  1
  C  C1462  1  0.863300  0.806000  0.455800  1
  C  C1463  1  0.363300  0.306000  0.044200  1
  C  C1464  1  0.136700  0.194000  0.544200  1
  C  C1465  1  0.628000  0.744600  0.953000  1
  C  C1466  1  0.872000  0.755400  0.453000  1
  C  C1467  1  0.372000  0.255400  0.047000  1
  C  C1468  1  0.128000  0.244600  0.547000  1
  C  C1469  1  0.559100  0.801900  0.971000  1
  C  C1470  1  0.940900  0.698100  0.471000  1
  C  C1471  1  0.440900  0.198100  0.029000  1
  C  C1472  1  0.059100  0.301900  0.529000  1
  C  C1473  1  0.473600  0.182700  0.903200  1
  C  C1474  1  0.026400  0.317300  0.403200  1
  C  C1475  1  0.526400  0.817300  0.096800  1
  C  C1476  1  0.973600  0.682700  0.596800  1
  C  C1477  1  0.422700  0.106500  0.921900  1
  C  C1478  1  0.077300  0.393500  0.421900  1
  C  C1479  1  0.577300  0.893500  0.078100  1
  C  C1480  1  0.922700  0.606500  0.578100  1
  C  C1481  1  0.467600  0.077400  0.900300  1
  C  C1482  1  0.032400  0.422600  0.400300  1
  C  C1483  1  0.532400  0.922600  0.099700  1
  C  C1484  1  0.967600  0.577400  0.599700  1
  C  C1485  1  0.508100  0.071000  0.830500  1
  C  C1486  1  0.991900  0.429000  0.330500  1
  C  C1487  1  0.491900  0.929000  0.169500  1
  C  C1488  1  0.008100  0.571000  0.669500  1
  C  C1489  1  0.575200  0.214900  0.928400  1
  C  C1490  1  0.924800  0.285100  0.428400  1
  C  C1491  1  0.424800  0.785100  0.071600  1
  C  C1492  1  0.075200  0.714900  0.571600  1
  C  C1493  1  0.629200  0.179200  0.984900  1
  C  C1494  1  0.870800  0.320800  0.484900  1
  C  C1495  1  0.370800  0.820800  0.015100  1
  C  C1496  1  0.129200  0.679200  0.515100  1
  C  C1497  1  0.652400  0.136700  0.965600  1
  C  C1498  1  0.847600  0.363300  0.465600  1
  C  C1499  1  0.347600  0.863300  0.034400  1
  C  C1500  1  0.152400  0.636700  0.534400  1
  C  C1501  1  0.742400  0.109300  0.933300  1
  C  C1502  1  0.757600  0.390700  0.433300  1
  C  C1503  1  0.257600  0.890700  0.066700  1
  C  C1504  1  0.242400  0.609300  0.566700  1
  C  C1505  1  0.482100  0.222500  0.554400  1
  C  C1506  1  0.017900  0.277500  0.054400  1
  C  C1507  1  0.517900  0.777500  0.445600  1
  C  C1508  1  0.982100  0.722500  0.945600  1
  C  C1509  1  0.425600  0.189900  0.494300  1
  C  C1510  1  0.074400  0.310100  0.994300  1
  C  C1511  1  0.574400  0.810100  0.505700  1
  C  C1512  1  0.925600  0.689900  0.005700  1
  C  C1513  1  0.364200  0.189300  0.473400  1
  C  C1514  1  0.135800  0.310700  0.973400  1
  C  C1515  1  0.635800  0.810700  0.526600  1
  C  C1516  1  0.864200  0.689300  0.026600  1
  C  C1517  1  0.294300  0.135600  0.512200  1
  C  C1518  1  0.205700  0.364400  0.012200  1
  C  C1519  1  0.705700  0.864400  0.487800  1
  C  C1520  1  0.794300  0.635600  0.987800  1
  C  C1521  1  0.584000  0.199200  0.572900  1
  C  C1522  1  0.916000  0.300800  0.072900  1
  C  C1523  1  0.416000  0.800800  0.427100  1
  C  C1524  1  0.084000  0.699200  0.927100  1
  C  C1525  1  0.629400  0.134300  0.541100  1
  C  C1526  1  0.870600  0.365700  0.041100  1
  C  C1527  1  0.370600  0.865700  0.458900  1
  C  C1528  1  0.129400  0.634300  0.958900  1
  C  C1529  1  0.684900  0.106300  0.547700  1
  C  C1530  1  0.815100  0.393700  0.047700  1
  C  C1531  1  0.315100  0.893700  0.452300  1
  C  C1532  1  0.184900  0.606300  0.952300  1
  C  C1533  1  0.755900  0.066700  0.506300  1
  C  C1534  1  0.744100  0.433300  0.006300  1
  C  C1535  1  0.244100  0.933300  0.493700  1
  C  C1536  1  0.255900  0.566700  0.993700  1
  C  C1537  1  0.563600  0.753900  0.851100  1
  C  C1538  1  0.936400  0.746100  0.351100  1
  C  C1539  1  0.436400  0.246100  0.148900  1
  C  C1540  1  0.063600  0.253900  0.648900  1
  C  C1541  1  0.587000  0.743400  0.617200  1
  C  C1542  1  0.913000  0.756600  0.117200  1
  C  C1543  1  0.413000  0.256600  0.382800  1
  C  C1544  1  0.087000  0.243400  0.882800  1
  C  C1545  1  0.895900  0.473800  0.977600  1
  C  C1546  1  0.604100  0.026200  0.477600  1
  C  C1547  1  0.104100  0.526200  0.022400  1
  C  C1548  1  0.395900  0.973800  0.522400  1
  C  C1549  1  0.878800  0.538500  0.488000  1
  C  C1550  1  0.621200  0.961500  0.988000  1
  C  C1551  1  0.121200  0.461500  0.512000  1
  C  C1552  1  0.378800  0.038500  0.012000  1
  C  C1553  1  0.961300  0.013000  0.764800  1
  C  C1554  1  0.538700  0.487000  0.264800  1
  C  C1555  1  0.038700  0.987000  0.235200  1
  C  C1556  1  0.461300  0.513000  0.735200  1
  C  C1557  1  0.897000  0.994500  0.742300  1
  C  C1558  1  0.603000  0.505500  0.242300  1
  C  C1559  1  0.103000  0.005500  0.257700  1
  C  C1560  1  0.397000  0.494500  0.757700  1
  C  C1561  1  0.910000  0.997600  0.692800  1
  C  C1562  1  0.590000  0.502400  0.192800  1
  C  C1563  1  0.090000  0.002400  0.307200  1
  C  C1564  1  0.410000  0.497600  0.807200  1
  C  C1565  1  0.962900  0.964000  0.680600  1
  C  C1566  1  0.537100  0.536000  0.180600  1
  C  C1567  1  0.037100  0.036000  0.319400  1
  C  C1568  1  0.462900  0.464000  0.819400  1
  C  C1569  1  0.025800  0.984300  0.703500  1
  C  C1570  1  0.474200  0.515700  0.203500  1
  C  C1571  1  0.974200  0.015700  0.296500  1
  C  C1572  1  0.525800  0.484300  0.796500  1
  C  C1573  1  0.019200  0.983400  0.753600  1
  C  C1574  1  0.480800  0.516600  0.253600  1
  C  C1575  1  0.980800  0.016600  0.246400  1
  C  C1576  1  0.519200  0.483400  0.746400  1
  C  C1577  1  0.998800  0.930200  0.766400  1
  C  C1578  1  0.501200  0.569800  0.266400  1
  C  C1579  1  0.001200  0.069800  0.233600  1
  C  C1580  1  0.498800  0.430200  0.733600  1
  C  C1581  1  0.936000  0.909300  0.743500  1
  C  C1582  1  0.564000  0.590700  0.243500  1
  C  C1583  1  0.064000  0.090700  0.256500  1
  C  C1584  1  0.436000  0.409300  0.756500  1
  C  C1585  1  0.881800  0.941100  0.756800  1
  C  C1586  1  0.618200  0.558900  0.256800  1
  C  C1587  1  0.118200  0.058900  0.243200  1
  C  C1588  1  0.381800  0.441100  0.743200  1
  C  C1589  1  0.949700  0.910200  0.694300  1
  C  C1590  1  0.550300  0.589800  0.194300  1
  C  C1591  1  0.050300  0.089800  0.305700  1
  C  C1592  1  0.449700  0.410200  0.805700  1
  C  C1593  1  0.920000  0.859200  0.758100  1
  C  C1594  1  0.580000  0.640800  0.258100  1
  C  C1595  1  0.080000  0.140800  0.241900  1
  C  C1596  1  0.420000  0.359200  0.741900  1
  C  C1597  1  0.975100  0.832300  0.770400  1
  C  C1598  1  0.524900  0.667700  0.270400  1
  C  C1599  1  0.024900  0.167700  0.229600  1
  C  C1600  1  0.475100  0.332300  0.729600  1
  N  N1601  1  0.848700  0.374100  0.734450  1
  N  N1602  1  0.651300  0.125900  0.234450  1
  N  N1603  1  0.151300  0.625900  0.265550  1
  N  N1604  1  0.348700  0.874100  0.765550  1
  N  N1605  1  0.834200  0.453800  0.679230  1
  N  N1606  1  0.665800  0.046200  0.179230  1
  N  N1607  1  0.165800  0.546200  0.320770  1
  N  N1608  1  0.334200  0.953800  0.820770  1
  N  N1609  1  0.825900  0.511200  0.752390  1
  N  N1610  1  0.674100  0.988800  0.252390  1
  N  N1611  1  0.174100  0.488800  0.247610  1
  N  N1612  1  0.325900  0.011200  0.747610  1
  N  N1613  1  0.839500  0.432200  0.805900  1
  N  N1614  1  0.660500  0.067800  0.305900  1
  N  N1615  1  0.160500  0.567800  0.194100  1
  N  N1616  1  0.339500  0.932200  0.694100  1
  N  N1617  1  0.189100  0.468000  0.735900  1
  N  N1618  1  0.310900  0.032000  0.235900  1
  N  N1619  1  0.810900  0.532000  0.264100  1
  N  N1620  1  0.689100  0.968000  0.764100  1
  N  N1621  1  0.181800  0.411500  0.811500  1
  N  N1622  1  0.318200  0.088500  0.311500  1
  N  N1623  1  0.818200  0.588500  0.188500  1
  N  N1624  1  0.681800  0.911500  0.688500  1
  N  N1625  1  0.188900  0.328200  0.759600  1
  N  N1626  1  0.311100  0.171800  0.259600  1
  N  N1627  1  0.811100  0.671800  0.240400  1
  N  N1628  1  0.688900  0.828200  0.740400  1
  N  N1629  1  0.198000  0.383300  0.687030  1
  N  N1630  1  0.302000  0.116700  0.187030  1
  N  N1631  1  0.802000  0.616700  0.312970  1
  N  N1632  1  0.698000  0.883300  0.812970  1
  N  N1633  1  0.486900  0.807500  0.663800  1
  N  N1634  1  0.013100  0.692500  0.163800  1
  N  N1635  1  0.513100  0.192500  0.336200  1
  N  N1636  1  0.986900  0.307500  0.836200  1
  N  N1637  1  0.007600  0.601700  0.448000  1
  N  N1638  1  0.492400  0.898300  0.948000  1
  N  N1639  1  0.992400  0.398300  0.552000  1
  N  N1640  1  0.507600  0.101700  0.052000  1
  N  N1641  1  0.443100  0.094100  0.632500  1
  N  N1642  1  0.056900  0.405900  0.132500  1
  N  N1643  1  0.556900  0.905900  0.367500  1
  N  N1644  1  0.943100  0.594100  0.867500  1
  N  N1645  1  0.517100  0.928000  0.777700  1
  N  N1646  1  0.982900  0.572000  0.277700  1
  N  N1647  1  0.482900  0.072000  0.222300  1
  N  N1648  1  0.017100  0.428000  0.722300  1
  N  N1649  1  0.506500  0.064400  0.698900  1
  N  N1650  1  0.993500  0.435600  0.198900  1
  N  N1651  1  0.493500  0.935600  0.301100  1
  N  N1652  1  0.006500  0.564400  0.801100  1
  O  O1653  1  0.403700  0.658530  0.558770  1
  O  O1654  1  0.096300  0.841470  0.058770  1
  O  O1655  1  0.596300  0.341470  0.441230  1
  O  O1656  1  0.903700  0.158530  0.941230  1
  O  O1657  1  0.346600  0.767870  0.529400  1
  O  O1658  1  0.153400  0.732130  0.029400  1
  O  O1659  1  0.653400  0.232130  0.470600  1
  O  O1660  1  0.846600  0.267870  0.970600  1
  O  O1661  1  0.622800  0.633980  0.529790  1
  O  O1662  1  0.877200  0.866020  0.029790  1
  O  O1663  1  0.377200  0.366020  0.470210  1
  O  O1664  1  0.122800  0.133980  0.970210  1
  O  O1665  1  0.743700  0.661000  0.489790  1
  O  O1666  1  0.756300  0.839000  0.989790  1
  O  O1667  1  0.256300  0.339000  0.510210  1
  O  O1668  1  0.243700  0.161000  0.010210  1
  O  O1669  1  0.395200  0.629000  0.966400  1
  O  O1670  1  0.104800  0.871000  0.466400  1
  O  O1671  1  0.604800  0.371000  0.033600  1
  O  O1672  1  0.895200  0.129000  0.533600  1
  O  O1673  1  0.393200  0.709900  0.913500  1
  O  O1674  1  0.106800  0.790100  0.413500  1
  O  O1675  1  0.606800  0.290100  0.086500  1
  O  O1676  1  0.893200  0.209900  0.586500  1
  O  O1677  1  0.612400  0.669100  0.920600  1
  O  O1678  1  0.887600  0.830900  0.420600  1
  O  O1679  1  0.387600  0.330900  0.079400  1
  O  O1680  1  0.112400  0.169100  0.579400  1
  O  O1681  1  0.569200  0.753500  0.968300  1
  O  O1682  1  0.930800  0.746500  0.468300  1
  O  O1683  1  0.430800  0.246500  0.031700  1
  O  O1684  1  0.069200  0.253500  0.531700  1
  O  O1685  1  0.421300  0.150850  0.902550  1
  O  O1686  1  0.078700  0.349150  0.402550  1
  O  O1687  1  0.578700  0.849150  0.097450  1
  O  O1688  1  0.921300  0.650850  0.597450  1
  O  O1689  1  0.456100  0.076900  0.857000  1
  O  O1690  1  0.043900  0.423100  0.357000  1
  O  O1691  1  0.543900  0.923100  0.143000  1
  O  O1692  1  0.956100  0.576900  0.643000  1
  O  O1693  1  0.626200  0.216060  0.955360  1
  O  O1694  1  0.873800  0.283940  0.455360  1
  O  O1695  1  0.373800  0.783940  0.044640  1
  O  O1696  1  0.126200  0.716060  0.544640  1
  O  O1697  1  0.715500  0.146200  0.954800  1
  O  O1698  1  0.784500  0.353800  0.454800  1
  O  O1699  1  0.284500  0.853800  0.045200  1
  O  O1700  1  0.215500  0.646200  0.545200  1
  O  O1701  1  0.431300  0.223600  0.527580  1
  O  O1702  1  0.068700  0.276400  0.027580  1
  O  O1703  1  0.568700  0.776400  0.472420  1
  O  O1704  1  0.931300  0.723600  0.972420  1
  O  O1705  1  0.314900  0.182000  0.501500  1
  O  O1706  1  0.185100  0.318000  0.001500  1
  O  O1707  1  0.685100  0.818000  0.498500  1
  O  O1708  1  0.814900  0.682000  0.998500  1
  O  O1709  1  0.635200  0.174300  0.566080  1
  O  O1710  1  0.864800  0.325700  0.066080  1
  O  O1711  1  0.364800  0.825700  0.433920  1
  O  O1712  1  0.135200  0.674300  0.933920  1
  O  O1713  1  0.700600  0.089900  0.508000  1
  O  O1714  1  0.799400  0.410100  0.008000  1
  O  O1715  1  0.299400  0.910100  0.492000  1
  O  O1716  1  0.200600  0.589900  0.992000  1
  O  O1717  1  0.935300  0.335400  0.933100  1
  O  O1718  1  0.564700  0.164600  0.433100  1
  O  O1719  1  0.064700  0.664600  0.066900  1
  O  O1720  1  0.435300  0.835400  0.566900  1
  O  O1721  1  0.018500  0.648000  0.348700  1
  O  O1722  1  0.481500  0.852000  0.848700  1
  O  O1723  1  0.981500  0.352000  0.651300  1
  O  O1724  1  0.518500  0.148000  0.151300  1
  O  O1725  1  0.518800  0.767400  0.818400  1
  O  O1726  1  0.981200  0.732600  0.318400  1
  O  O1727  1  0.481200  0.232600  0.181600  1
  O  O1728  1  0.018800  0.267400  0.681600  1
  O  O1729  1  0.543700  0.995300  0.575600  1
  O  O1730  1  0.956300  0.504700  0.075600  1
  O  O1731  1  0.456300  0.004700  0.424400  1
  O  O1732  1  0.043700  0.495300  0.924400  1
  O  O1733  1  0.586000  0.731000  0.662700  1
  O  O1734  1  0.914000  0.769000  0.162700  1
  O  O1735  1  0.414000  0.269000  0.337300  1
  O  O1736  1  0.086000  0.231000  0.837300  1
  O  O1737  1  0.989900  0.415500  0.964300  1
  O  O1738  1  0.510100  0.084500  0.464300  1
  O  O1739  1  0.010100  0.584500  0.035700  1
  O  O1740  1  0.489900  0.915500  0.535700  1
  O  O1741  1  0.953200  0.554400  0.956500  1
  O  O1742  1  0.546800  0.945600  0.456500  1
  O  O1743  1  0.046800  0.445600  0.043500  1
  O  O1744  1  0.453200  0.054400  0.543500  1
  O  O1745  1  0.878500  0.508700  0.009500  1
  O  O1746  1  0.621500  0.991300  0.509500  1
  O  O1747  1  0.121500  0.491300  0.990500  1
  O  O1748  1  0.378500  0.008700  0.490500  1
  O  O1749  1  0.902700  0.492800  0.499500  1
  O  O1750  1  0.597300  0.007200  0.999500  1
  O  O1751  1  0.097300  0.507200  0.500500  1
  O  O1752  1  0.402700  0.992800  0.000500  1
  O  O1753  1  0.461400  0.770400  0.644100  1
  O  O1754  1  0.038600  0.729600  0.144100  1
  O  O1755  1  0.538600  0.229600  0.355900  1
  O  O1756  1  0.961400  0.270400  0.855900  1
  O  O1757  1  0.527100  0.801800  0.693900  1
  O  O1758  1  0.972900  0.698200  0.193900  1
  O  O1759  1  0.472900  0.198200  0.306100  1
  O  O1760  1  0.027100  0.301800  0.806100  1
  O  O1761  1  0.473400  0.849400  0.652400  1
  O  O1762  1  0.026600  0.650600  0.152400  1
  O  O1763  1  0.526600  0.150600  0.347600  1
  O  O1764  1  0.973400  0.349400  0.847600  1
  O  O1765  1  0.963400  0.582400  0.423600  1
  O  O1766  1  0.536600  0.917600  0.923600  1
  O  O1767  1  0.036600  0.417600  0.576400  1
  O  O1768  1  0.463400  0.082400  0.076400  1
  O  O1769  1  0.012000  0.588200  0.487100  1
  O  O1770  1  0.488000  0.911800  0.987100  1
  O  O1771  1  0.988000  0.411800  0.512900  1
  O  O1772  1  0.512000  0.088200  0.012900  1
  O  O1773  1  0.049800  0.632500  0.431700  1
  O  O1774  1  0.450200  0.867500  0.931700  1
  O  O1775  1  0.950200  0.367500  0.568300  1
  O  O1776  1  0.549800  0.132500  0.068300  1
  O  O1777  1  0.426700  0.106000  0.594600  1
  O  O1778  1  0.073300  0.394000  0.094600  1
  O  O1779  1  0.573300  0.894000  0.405400  1
  O  O1780  1  0.926700  0.606000  0.905400  1
  O  O1781  1  0.466300  0.126000  0.659000  1
  O  O1782  1  0.033700  0.374000  0.159000  1
  O  O1783  1  0.533700  0.874000  0.341000  1
  O  O1784  1  0.966300  0.626000  0.841000  1
  O  O1785  1  0.436200  0.050000  0.643900  1
  O  O1786  1  0.063800  0.450000  0.143900  1
  O  O1787  1  0.563800  0.950000  0.356100  1
  O  O1788  1  0.936200  0.550000  0.856100  1
  O  O1789  1  0.485600  0.959400  0.758400  1
  O  O1790  1  0.014400  0.540600  0.258400  1
  O  O1791  1  0.514400  0.040600  0.241600  1
  O  O1792  1  0.985600  0.459400  0.741600  1
  O  O1793  1  0.543800  0.895700  0.757000  1
  O  O1794  1  0.956200  0.604300  0.257000  1
  O  O1795  1  0.456200  0.104300  0.243000  1
  O  O1796  1  0.043800  0.395700  0.743000  1
  O  O1797  1  0.520600  0.929100  0.818900  1
  O  O1798  1  0.979400  0.570900  0.318900  1
  O  O1799  1  0.479400  0.070900  0.181100  1
  O  O1800  1  0.020600  0.429100  0.681100  1
  O  O1801  1  0.862700  0.846400  0.760300  1
  O  O1802  1  0.637300  0.653600  0.260300  1
  O  O1803  1  0.137300  0.153600  0.239700  1
  O  O1804  1  0.362700  0.346400  0.739700  1
  O  O1805  1  0.633800  0.352700  0.783200  1
  O  O1806  1  0.866200  0.147300  0.283200  1
  O  O1807  1  0.366200  0.647300  0.216800  1
  O  O1808  1  0.133800  0.852700  0.716800  1
  O  O1809  1  0.129700  0.869300  0.810000  1
  O  O1810  1  0.370300  0.630700  0.310000  1
  O  O1811  1  0.870300  0.130700  0.190000  1
  O  O1812  1  0.629700  0.369300  0.690000  1
  O  O1813  1  0.480900  0.093400  0.673500  1
  O  O1814  1  0.019100  0.406600  0.173500  1
  O  O1815  1  0.519100  0.906600  0.326500  1
  O  O1816  1  0.980900  0.593400  0.826500  1
  O  O1817  1  0.507900  0.072300  0.739200  1
  O  O1818  1  0.992100  0.427700  0.239200  1
  O  O1819  1  0.492100  0.927700  0.260800  1
  O  O1820  1  0.007900  0.572300  0.760800  1
  O  O1821  1  0.532500  0.028200  0.683300  1
  O  O1822  1  0.967500  0.471800  0.183300  1
  O  O1823  1  0.467500  0.971800  0.316700  1
  O  O1824  1  0.032500  0.528200  0.816700  1
