
#######################################################################
#
#                 Cambridge Crystallographic Data Centre
#                                CCDC 
#
#######################################################################
#
# If this CIF has been generated from an entry in the Cambridge 
# Structural Database, then it will include bibliographic, chemical, 
# crystal, experimental, refinement or atomic coordinate data resulting 
# from the CCDC's data processing and validation procedures.
#
#######################################################################

data_XEXGUE
_chemical_formula_moiety         
'C312 H264 N48 Ni8 16+,16(N1 O3 1-),2(C4 H10 O1),4(C1 H4 O1),4(C2 H3 N1)'
_chemical_name_systematic        
"dodecakis(\m~2~-N,N'-(3,3'-Bipyridine-6,6'-diyldimethylylidene)bis(4-methylaniline))-octa-nickel hexadecanitrate acetonitrile diethyl ether methanol solvate"
_symmetry_cell_setting           tetragonal
_symmetry_space_group_name_H-M   'P -4 2 c'
_symmetry_Int_Tables_number      112
_space_group_name_Hall           'P -4 2c'
loop_
_symmetry_equiv_pos_site_id
_symmetry_equiv_pos_as_xyz
1 x,y,z
2 -x,-y,z
3 y,-x,-z
4 -y,x,-z
5 -x,y,1/2-z
6 x,-y,1/2-z
7 -y,-x,1/2+z
8 y,x,1/2+z
_cell_length_a                   20.554(8)
_cell_length_b                   20.554(8)
_cell_length_c                   40.27(2)
_cell_angle_alpha                90
_cell_angle_beta                 90
_cell_angle_gamma                90
_cell_volume                     17012.7
_exptl_crystal_colour            orange
_exptl_crystal_description       plate
_cell_formula_units_Z            2
loop_
_atom_site_label
_atom_site_type_symbol
_atom_site_fract_x
_atom_site_fract_y
_atom_site_fract_z
N13 N 0.6775(5) 0.4351(5) 0.0526(4)
O1 O 0.7325(5) 0.4475(5) 0.0561(3)
O2 O 0.6396(5) 0.4771(5) 0.0512(4)
O3 O 0.6636(5) 0.3838(6) 0.0437(4)
C1 C 0.1081(7) 0.0032(6) 0.0234(4)
H1 H 0.0878 -0.0170 0.0429
H2 H 0.1457 -0.0228 0.0165
H3 H 0.0765 0.0052 0.0052
C2 C 0.1289(4) 0.0672(3) 0.0316(2)
C3 C 0.1600(5) 0.1054(4) 0.00795(19)
H4 H 0.1640 0.0903 -0.0143
C4 C 0.1855(5) 0.1656(4) 0.0168(2)
H5 H 0.2068 0.1916 0.0006
C5 C 0.1797(4) 0.1877(3) 0.0493(2)
C6 C 0.1486(5) 0.1495(4) 0.0729(2)
H6 H 0.1446 0.1646 0.0951
C7 C 0.1231(4) 0.0893(4) 0.0641(2)
H7 H 0.1018 0.0632 0.0803
C8 C 0.1772(4) 0.2850(4) 0.0736(3)
H8 H 0.1315 0.2796 0.0756
C9 C 0.2063(4) 0.3338(5) 0.0894(2)
C10 C 0.3049(5) 0.3846(5) 0.1016(2)
H9 H 0.3511 0.3842 0.1017
C11 C 0.2743(5) 0.4358(5) 0.1154(2)
C12 C 0.2060(5) 0.4329(6) 0.1166(3)
H10 H 0.1815 0.4658 0.1274
C13 C 0.1759(5) 0.3819(6) 0.1017(3)
H11 H 0.1298 0.3821 0.1005
C14 C 0.3077(5) 0.4846(4) 0.1316(3)
C15 C 0.2876(5) 0.5499(5) 0.1284(3)
H12 H 0.2522 0.5599 0.1141
C16 C 0.3655(5) 0.5835(5) 0.1624(4)
C17 C 0.3888(6) 0.5239(5) 0.1672(4)
H13 H 0.4270 0.5161 0.1798
C18 C 0.3538(7) 0.4740(5) 0.1525(3)
H14 H 0.3642 0.4304 0.1581
C19 C 0.3932(6) 0.6403(6) 0.1775(4)
H15 H 0.4339 0.6378 0.1886
C20 C 0.3984(6) 0.7500(5) 0.1819(4)
C21 C 0.3673(5) 0.7980(6) 0.2003(4)
H16 H 0.3243 0.7910 0.2082
C22 C 0.3989(6) 0.8563(5) 0.2071(3)
H17 H 0.3776 0.8891 0.2196
C23 C 0.4618(6) 0.8666(5) 0.1954(3)
C24 C 0.4930(5) 0.8186(6) 0.1770(3)
H18 H 0.5359 0.8256 0.1691
C25 C 0.4613(6) 0.7603(5) 0.1703(3)
H19 H 0.4826 0.7275 0.1577
C26 C 0.4913(10) 0.9297(9) 0.2013(6)
H20 H 0.5356 0.9299 0.1922
H21 H 0.4929 0.9382 0.2252
H22 H 0.4654 0.9634 0.1903
C27 C 0.0675(5) 0.4466(5) -0.0206(4)
H23 H 0.0606 0.4915 -0.0132
H24 H 0.0331 0.4187 -0.0114
H25 H 0.0662 0.4447 -0.0449
C28 C 0.1282(3) 0.4247(3) -0.0093(2)
C29 C 0.1445(3) 0.3611(3) -0.0176(2)
H26 H 0.1154 0.3355 -0.0305
C30 C 0.2034(3) 0.3351(3) -0.0072(2)
H27 H 0.2146 0.2916 -0.0128
C31 C 0.2460(3) 0.3726(3) 0.0116(2)
C32 C 0.2297(3) 0.4361(3) 0.0199(2)
H28 H 0.2589 0.4618 0.0327
C33 C 0.1708(3) 0.4622(3) 0.0094(2)
H29 H 0.1597 0.5057 0.0151
C34 C 0.3529(5) 0.3755(5) 0.0223(3)
H30 H 0.3546 0.4164 0.0113
C35 C 0.4079(4) 0.3528(6) 0.0360(3)
C36 C 0.4463(3) 0.2695(5) 0.0687(3)
H31 H 0.4394 0.2318 0.0818
C37 C 0.5100(5) 0.2975(7) 0.0646(3)
C38 C 0.5190(4) 0.3474(8) 0.0494(3)
H32 H 0.5621 0.3639 0.0475
C39 C 0.4642(5) 0.3840(7) 0.0333(4)
H33 H 0.4692 0.4247 0.0224
C40 C 0.5636(5) 0.2630(7) 0.0818(3)
C41 C 0.6110(4) 0.2978(5) 0.0969(3)
H34 H 0.6087 0.3440 0.0961
C42 C 0.6617(5) 0.2077(6) 0.1123(3)
C43 C 0.6142(6) 0.1663(6) 0.0976(5)
H35 H 0.6168 0.1203 0.0992
C44 C 0.5646(5) 0.1964(6) 0.0811(4)
H36 H 0.5322 0.1722 0.0696
C45 C 0.7107(5) 0.1792(6) 0.1288(3)
H37 H 0.7191 0.1339 0.1271
C46 C 0.7949(4) 0.1860(8) 0.1638(4)
C47 C 0.8583(5) 0.1998(7) 0.1541(3)
H38 H 0.8660 0.2277 0.1357
C48 C 0.9104(4) 0.1730(8) 0.1713(4)
H39 H 0.9537 0.1825 0.1647
C49 C 0.8991(4) 0.1323(8) 0.1983(4)
C50 C 0.8357(5) 0.1184(7) 0.2080(3)
H40 H 0.8280 0.0906 0.2264
C51 C 0.7836(4) 0.1453(8) 0.1908(4)
H41 H 0.7403 0.1358 0.1975
C52 C 0.9532(8) 0.0936(12) 0.2155(6)
H42 H 0.9344 0.0665 0.2330
H43 H 0.9848 0.1238 0.2252
H44 H 0.9751 0.0658 0.1991
C53 C 0.7962(10) 0.3346(15) 0.3205(4)
H45 H 0.8401 0.3255 0.3289
H46 H 0.7657 0.3026 0.3296
H47 H 0.7829 0.3784 0.3274
C54 C 0.7961(7) 0.3303(11) 0.2827(2)
C55 C 0.7374(6) 0.3472(11) 0.2678(3)
H48 H 0.7006 0.3571 0.2812
C56 C 0.7326(6) 0.3496(11) 0.2334(3)
H49 H 0.6925 0.3612 0.2233
C57 C 0.7864(7) 0.3351(11) 0.2139(2)
C58 C 0.8451(6) 0.3183(10) 0.2287(3)
H50 H 0.8818 0.3084 0.2153
C59 C 0.8499(6) 0.3158(10) 0.2631(3)
H51 H 0.8900 0.3043 0.2733
C60 C 0.8362(6) 0.3653(7) 0.1639(4)
H52 H 0.8728 0.3808 0.1759
C61 C 0.8376(6) 0.3651(6) 0.1303(2)
C62 C 0.7944(3) 0.3298(4) 0.0829(3)
H53 H 0.7603 0.3089 0.0712
C63 C 0.8449(4) 0.3554(5) 0.0663(2)
C64 C 0.8904(7) 0.3922(6) 0.0825(4)
H54 H 0.9234 0.4147 0.0706
C65 C 0.8869(5) 0.3954(7) 0.1138(5)
H55 H 0.9189 0.4190 0.1258
C66 C 0.8477(4) 0.3506(4) 0.0314(3)
C67 C 0.7981(5) 0.3381(4) 0.0127(3)
H56 H 0.7572 0.3325 0.0233
C68 C 0.8612(6) 0.3373(5) -0.0348(4)
C69 C 0.9139(4) 0.3483(5) -0.0182(4)
H57 H 0.9547 0.3513 -0.0292
C70 C 0.9097(5) 0.3551(7) 0.0144(3)
H58 H 0.9481 0.3631 0.0269
C71 C 0.8611(4) 0.3301(5) -0.0672(4)
H59 H 0.9017 0.3314 -0.0785
C72 C 0.8106(6) 0.3114(7) -0.11774(19)
C73 C 0.7632(5) 0.3399(7) -0.1376(3)
H60 H 0.7282 0.3630 -0.1277
C74 C 0.7670(5) 0.3346(7) -0.1720(3)
H61 H 0.7346 0.3541 -0.1855
C75 C 0.8183(6) 0.3008(8) -0.18646(19)
C76 C 0.8657(5) 0.2723(7) -0.1666(3)
H62 H 0.9007 0.2493 -0.1765
C77 C 0.8618(5) 0.2776(7) -0.1322(2)
H63 H 0.8942 0.2582 -0.1187
C78 C 0.8174(8) 0.2906(12) -0.2263(4)
H64 H 0.7813 0.3154 -0.2360
H65 H 0.8117 0.2443 -0.2314
H66 H 0.8586 0.3058 -0.2358
N1 N 0.2085(4) 0.2469(4) 0.0564(2)
N2 N 0.2748(3) 0.3357(3) 0.0882(2)
N3 N 0.3156(4) 0.5957(4) 0.1441(2)
N4 N 0.3636(5) 0.6924(5) 0.1760(3)
N5 N 0.2996(3) 0.3462(3) 0.0230(3)
N6 N 0.3990(4) 0.2985(4) 0.0535(3)
N7 N 0.6594(4) 0.2709(5) 0.1125(2)
N8 N 0.7457(4) 0.2167(5) 0.1471(3)
N9 N 0.7855(4) 0.3448(5) 0.1797(3)
N10 N 0.7923(3) 0.3338(3) 0.1152(2)
N11 N 0.7998(3) 0.3327(4) -0.0191(3)
N12 N 0.8082(4) 0.3211(3) -0.0850(2)
Ni1 Ni 0.30679(5) 0.26867(5) 0.05432(4)
Ni2 Ni 0.71881(6) 0.31006(7) 0.14596(4)
C1A C 0.8919(7) 0.9968(6) 0.0234(4)
H1A H 0.9122 1.0170 0.0429
H2A H 0.8543 1.0228 0.0165
H3A H 0.9235 0.9948 0.0052
C2A C 0.8711(4) 0.9328(3) 0.0316(2)
C3A C 0.8400(5) 0.8946(4) 0.00795(19)
H4A H 0.8360 0.9097 -0.0143
C4A C 0.8145(5) 0.8344(4) 0.0168(2)
H5A H 0.7932 0.8084 0.0006
C5A C 0.8203(4) 0.8123(3) 0.0493(2)
C6A C 0.8514(5) 0.8505(4) 0.0729(2)
H6A H 0.8554 0.8354 0.0951
C7A C 0.8769(4) 0.9107(4) 0.0641(2)
H7A H 0.8982 0.9368 0.0803
C8A C 0.8228(4) 0.7150(4) 0.0736(3)
H8A H 0.8685 0.7204 0.0756
C9A C 0.7937(4) 0.6662(5) 0.0894(2)
C10A C 0.6951(5) 0.6154(5) 0.1016(2)
H9A H 0.6489 0.6158 0.1017
C11A C 0.7257(5) 0.5642(5) 0.1154(2)
C12A C 0.7940(5) 0.5671(6) 0.1166(3)
H10A H 0.8185 0.5342 0.1274
C13A C 0.8241(5) 0.6181(6) 0.1017(3)
H11A H 0.8702 0.6179 0.1005
C14A C 0.6923(5) 0.5154(4) 0.1316(3)
C15A C 0.7124(5) 0.4501(5) 0.1284(3)
H12A H 0.7478 0.4401 0.1141
C16A C 0.6345(5) 0.4165(5) 0.1624(4)
C17A C 0.6112(6) 0.4761(5) 0.1672(4)
H13A H 0.5730 0.4839 0.1798
C18A C 0.6462(7) 0.5260(5) 0.1525(3)
H14A H 0.6358 0.5696 0.1581
C19A C 0.6068(6) 0.3597(6) 0.1775(4)
H15A H 0.5661 0.3622 0.1886
C20A C 0.6016(6) 0.2500(5) 0.1819(4)
C21A C 0.6327(5) 0.2020(6) 0.2003(4)
H16A H 0.6757 0.2090 0.2082
C22A C 0.6011(6) 0.1437(5) 0.2071(3)
H17A H 0.6224 0.1109 0.2196
C23A C 0.5382(6) 0.1334(5) 0.1954(3)
C24A C 0.5070(5) 0.1814(6) 0.1770(3)
H18A H 0.4641 0.1744 0.1691
C25A C 0.5387(6) 0.2397(5) 0.1703(3)
H19A H 0.5174 0.2725 0.1577
C26A C 0.5087(10) 0.0703(9) 0.2013(6)
H20A H 0.4644 0.0701 0.1922
H21A H 0.5071 0.0618 0.2252
H22A H 0.5346 0.0366 0.1903
C27A C 0.9325(5) 0.5534(5) -0.0206(4)
H23A H 0.9394 0.5085 -0.0132
H24A H 0.9669 0.5813 -0.0114
H25A H 0.9338 0.5553 -0.0449
C28A C 0.8718(3) 0.5753(3) -0.0093(2)
C29A C 0.8555(3) 0.6389(3) -0.0176(2)
H26A H 0.8846 0.6645 -0.0305
C30A C 0.7966(3) 0.6649(3) -0.0072(2)
H27A H 0.7854 0.7084 -0.0128
C31A C 0.7540(3) 0.6274(3) 0.0116(2)
C32A C 0.7703(3) 0.5639(3) 0.0199(2)
H28A H 0.7411 0.5382 0.0327
C33A C 0.8292(3) 0.5378(3) 0.0094(2)
H29A H 0.8403 0.4943 0.0151
C34A C 0.6471(5) 0.6245(5) 0.0223(3)
H30A H 0.6454 0.5836 0.0113
C35A C 0.5921(4) 0.6472(6) 0.0360(3)
C36A C 0.5537(3) 0.7305(5) 0.0687(3)
H31A H 0.5606 0.7682 0.0818
C37A C 0.4900(5) 0.7025(7) 0.0646(3)
C38A C 0.4810(4) 0.6526(8) 0.0494(3)
H32A H 0.4379 0.6361 0.0475
C39A C 0.5358(5) 0.6160(7) 0.0333(4)
H33A H 0.5308 0.5753 0.0224
C40A C 0.4364(5) 0.7370(7) 0.0818(3)
C41A C 0.3890(4) 0.7022(5) 0.0969(3)
H34A H 0.3913 0.6560 0.0961
C42A C 0.3383(5) 0.7923(6) 0.1123(3)
C43A C 0.3858(6) 0.8337(6) 0.0976(5)
H35A H 0.3832 0.8797 0.0992
C44A C 0.4354(5) 0.8036(6) 0.0811(4)
H36A H 0.4678 0.8278 0.0696
C45A C 0.2893(5) 0.8208(6) 0.1288(3)
H37A H 0.2809 0.8661 0.1271
C46A C 0.2051(4) 0.8140(8) 0.1638(4)
C47A C 0.1417(5) 0.8002(7) 0.1541(3)
H38A H 0.1340 0.7723 0.1357
C48A C 0.0896(4) 0.8270(8) 0.1713(4)
H39A H 0.0463 0.8175 0.1647
C49A C 0.1009(4) 0.8677(8) 0.1983(4)
C50A C 0.1643(5) 0.8816(7) 0.2080(3)
H40A H 0.1720 0.9094 0.2264
C51A C 0.2164(4) 0.8547(8) 0.1908(4)
H41A H 0.2597 0.8642 0.1975
C52A C 0.0468(8) 0.9064(12) 0.2155(6)
H42A H 0.0656 0.9335 0.2330
H43A H 0.0152 0.8762 0.2252
H44A H 0.0249 0.9342 0.1991
C53A C 0.2038(10) 0.6654(15) 0.3205(4)
H45A H 0.1599 0.6745 0.3289
H46A H 0.2343 0.6974 0.3296
H47A H 0.2171 0.6216 0.3274
C54A C 0.2039(7) 0.6697(11) 0.2827(2)
C55A C 0.2626(6) 0.6528(11) 0.2678(3)
H48A H 0.2994 0.6429 0.2812
C56A C 0.2674(6) 0.6504(11) 0.2334(3)
H49A H 0.3075 0.6388 0.2233
C57A C 0.2136(7) 0.6649(11) 0.2139(2)
C58A C 0.1549(6) 0.6817(10) 0.2287(3)
H50A H 0.1182 0.6916 0.2153
C59A C 0.1501(6) 0.6842(10) 0.2631(3)
H51A H 0.1100 0.6957 0.2733
C60A C 0.1638(6) 0.6347(7) 0.1639(4)
H52A H 0.1272 0.6192 0.1759
C61A C 0.1624(6) 0.6349(6) 0.1303(2)
C62A C 0.2056(3) 0.6702(4) 0.0829(3)
H53A H 0.2397 0.6911 0.0712
C63A C 0.1551(4) 0.6446(5) 0.0663(2)
C64A C 0.1096(7) 0.6078(6) 0.0825(4)
H54A H 0.0766 0.5853 0.0706
C65A C 0.1131(5) 0.6046(7) 0.1138(5)
H55A H 0.0811 0.5810 0.1258
C66A C 0.1523(4) 0.6494(4) 0.0314(3)
C67A C 0.2019(5) 0.6619(4) 0.0127(3)
H56A H 0.2428 0.6675 0.0233
C68A C 0.1388(6) 0.6627(5) -0.0348(4)
C69A C 0.0861(4) 0.6517(5) -0.0182(4)
H57A H 0.0453 0.6487 -0.0292
C70A C 0.0903(5) 0.6449(7) 0.0144(3)
H58A H 0.0519 0.6369 0.0269
C71A C 0.1389(4) 0.6699(5) -0.0672(4)
H59A H 0.0983 0.6686 -0.0785
C72A C 0.1894(6) 0.6886(7) -0.11774(19)
C73A C 0.2368(5) 0.6601(7) -0.1376(3)
H60A H 0.2718 0.6370 -0.1277
C74A C 0.2330(5) 0.6654(7) -0.1720(3)
H61A H 0.2654 0.6459 -0.1855
C75A C 0.1817(6) 0.6992(8) -0.18646(19)
C76A C 0.1343(5) 0.7277(7) -0.1666(3)
H62A H 0.0993 0.7507 -0.1765
C77A C 0.1382(5) 0.7224(7) -0.1322(2)
H63A H 0.1058 0.7418 -0.1187
C78A C 0.1826(8) 0.7094(12) -0.2263(4)
H64A H 0.2187 0.6846 -0.2360
H65A H 0.1883 0.7557 -0.2314
H66A H 0.1414 0.6942 -0.2358
N1A N 0.7915(4) 0.7531(4) 0.0564(2)
N2A N 0.7252(3) 0.6643(3) 0.0882(2)
N3A N 0.6844(4) 0.4043(4) 0.1441(2)
N4A N 0.6364(5) 0.3076(5) 0.1760(3)
N5A N 0.7004(3) 0.6538(3) 0.0230(3)
N6A N 0.6010(4) 0.7015(4) 0.0535(3)
N7A N 0.3406(4) 0.7291(5) 0.1125(2)
N8A N 0.2543(4) 0.7833(5) 0.1471(3)
N9A N 0.2145(4) 0.6552(5) 0.1797(3)
N10A N 0.2077(3) 0.6662(3) 0.1152(2)
N11A N 0.2002(3) 0.6673(4) -0.0191(3)
N12A N 0.1918(4) 0.6789(3) -0.0850(2)
Ni1A Ni 0.69321(5) 0.73133(5) 0.05432(4)
Ni2A Ni 0.28119(6) 0.68994(7) 0.14596(4)
C1B C 0.0032(6) 0.8919(7) -0.0234(4)
H1B H -0.0170 0.9122 -0.0429
H2B H -0.0228 0.8543 -0.0165
H3B H 0.0052 0.9235 -0.0052
C2B C 0.0672(3) 0.8711(4) -0.0316(2)
C3B C 0.1054(4) 0.8400(5) -0.00795(19)
H4B H 0.0903 0.8360 0.0143
C4B C 0.1656(4) 0.8145(5) -0.0168(2)
H5B H 0.1916 0.7932 -0.0006
C5B C 0.1877(3) 0.8203(4) -0.0493(2)
C6B C 0.1495(4) 0.8514(5) -0.0729(2)
H6B H 0.1646 0.8554 -0.0951
C7B C 0.0893(4) 0.8769(4) -0.0641(2)
H7B H 0.0632 0.8982 -0.0803
C8B C 0.2850(4) 0.8228(4) -0.0736(3)
H8B H 0.2796 0.8685 -0.0756
C9B C 0.3338(5) 0.7937(4) -0.0894(2)
C10B C 0.3846(5) 0.6951(5) -0.1016(2)
H9B H 0.3842 0.6489 -0.1017
C11B C 0.4358(5) 0.7257(5) -0.1154(2)
C12B C 0.4329(6) 0.7940(5) -0.1166(3)
H10B H 0.4658 0.8185 -0.1274
C13B C 0.3819(6) 0.8241(5) -0.1017(3)
H11B H 0.3821 0.8702 -0.1005
C14B C 0.4846(4) 0.6923(5) -0.1316(3)
C15B C 0.5499(5) 0.7124(5) -0.1284(3)
H12B H 0.5599 0.7478 -0.1141
C16B C 0.5835(5) 0.6345(5) -0.1624(4)
C17B C 0.5239(5) 0.6112(6) -0.1672(4)
H13B H 0.5161 0.5730 -0.1798
C18B C 0.4740(5) 0.6462(7) -0.1525(3)
H14B H 0.4304 0.6358 -0.1581
C19B C 0.6403(6) 0.6068(6) -0.1775(4)
H15B H 0.6378 0.5661 -0.1886
C20B C 0.7500(5) 0.6016(6) -0.1819(4)
C21B C 0.7980(6) 0.6327(5) -0.2003(4)
H16B H 0.7910 0.6757 -0.2082
C22B C 0.8563(5) 0.6011(6) -0.2071(3)
H17B H 0.8891 0.6224 -0.2196
C23B C 0.8666(5) 0.5382(6) -0.1954(3)
C24B C 0.8186(6) 0.5070(5) -0.1770(3)
H18B H 0.8256 0.4641 -0.1691
C25B C 0.7603(5) 0.5387(6) -0.1703(3)
H19B H 0.7275 0.5174 -0.1577
C26B C 0.9297(9) 0.5087(10) -0.2013(6)
H20B H 0.9299 0.4644 -0.1922
H21B H 0.9382 0.5071 -0.2252
H22B H 0.9634 0.5346 -0.1903
C27B C 0.4466(5) 0.9325(5) 0.0206(4)
H23B H 0.4915 0.9394 0.0132
H24B H 0.4187 0.9669 0.0114
H25B H 0.4447 0.9338 0.0449
C28B C 0.4247(3) 0.8718(3) 0.0093(2)
C29B C 0.3611(3) 0.8555(3) 0.0176(2)
H26B H 0.3355 0.8846 0.0305
C30B C 0.3351(3) 0.7966(3) 0.0072(2)
H27B H 0.2916 0.7854 0.0128
C31B C 0.3726(3) 0.7540(3) -0.0116(2)
C32B C 0.4361(3) 0.7703(3) -0.0199(2)
H28B H 0.4618 0.7411 -0.0327
C33B C 0.4622(3) 0.8292(3) -0.0094(2)
H29B H 0.5057 0.8403 -0.0151
C34B C 0.3755(5) 0.6471(5) -0.0223(3)
H30B H 0.4164 0.6454 -0.0113
C35B C 0.3528(6) 0.5921(4) -0.0360(3)
C36B C 0.2695(5) 0.5537(3) -0.0687(3)
H31B H 0.2318 0.5606 -0.0818
C37B C 0.2975(7) 0.4900(5) -0.0646(3)
C38B C 0.3474(8) 0.4810(4) -0.0494(3)
H32B H 0.3639 0.4379 -0.0475
C39B C 0.3840(7) 0.5358(5) -0.0333(4)
H33B H 0.4247 0.5308 -0.0224
C40B C 0.2630(7) 0.4364(5) -0.0818(3)
C41B C 0.2978(5) 0.3890(4) -0.0969(3)
H34B H 0.3440 0.3913 -0.0961
C42B C 0.2077(6) 0.3383(5) -0.1123(3)
C43B C 0.1663(6) 0.3858(6) -0.0976(5)
H35B H 0.1203 0.3832 -0.0992
C44B C 0.1964(6) 0.4354(5) -0.0811(4)
H36B H 0.1722 0.4678 -0.0696
C45B C 0.1792(6) 0.2893(5) -0.1288(3)
H37B H 0.1339 0.2809 -0.1271
C46B C 0.1860(8) 0.2051(4) -0.1638(4)
C47B C 0.1998(7) 0.1417(5) -0.1541(3)
H38B H 0.2277 0.1340 -0.1357
C48B C 0.1730(8) 0.0896(4) -0.1713(4)
H39B H 0.1825 0.0463 -0.1647
C49B C 0.1323(8) 0.1009(4) -0.1983(4)
C50B C 0.1184(7) 0.1643(5) -0.2080(3)
H40B H 0.0906 0.1720 -0.2264
C51B C 0.1453(8) 0.2164(4) -0.1908(4)
H41B H 0.1358 0.2597 -0.1975
C52B C 0.0936(12) 0.0468(8) -0.2155(6)
H42B H 0.0665 0.0656 -0.2330
H43B H 0.1238 0.0152 -0.2252
H44B H 0.0658 0.0249 -0.1991
C53B C 0.3346(15) 0.2038(10) -0.3205(4)
H45B H 0.3255 0.1599 -0.3289
H46B H 0.3026 0.2343 -0.3296
H47B H 0.3784 0.2171 -0.3274
C54B C 0.3303(11) 0.2039(7) -0.2827(2)
C55B C 0.3472(11) 0.2626(6) -0.2678(3)
H48B H 0.3571 0.2994 -0.2812
C56B C 0.3496(11) 0.2674(6) -0.2334(3)
H49B H 0.3612 0.3075 -0.2233
C57B C 0.3351(11) 0.2136(7) -0.2139(2)
C58B C 0.3183(10) 0.1549(6) -0.2287(3)
H50B H 0.3084 0.1182 -0.2153
C59B C 0.3158(10) 0.1501(6) -0.2631(3)
H51B H 0.3043 0.1100 -0.2733
C60B C 0.3653(7) 0.1638(6) -0.1639(4)
H52B H 0.3808 0.1272 -0.1759
C61B C 0.3651(6) 0.1624(6) -0.1303(2)
C62B C 0.3298(4) 0.2056(3) -0.0829(3)
H53B H 0.3089 0.2397 -0.0712
C63B C 0.3554(5) 0.1551(4) -0.0663(2)
C64B C 0.3922(6) 0.1096(7) -0.0825(4)
H54B H 0.4147 0.0766 -0.0706
C65B C 0.3954(7) 0.1131(5) -0.1138(5)
H55B H 0.4190 0.0811 -0.1258
C66B C 0.3506(4) 0.1523(4) -0.0314(3)
C67B C 0.3381(4) 0.2019(5) -0.0127(3)
H56B H 0.3325 0.2428 -0.0233
C68B C 0.3373(5) 0.1388(6) 0.0348(4)
C69B C 0.3483(5) 0.0861(4) 0.0182(4)
H57B H 0.3513 0.0453 0.0292
C70B C 0.3551(7) 0.0903(5) -0.0144(3)
H58B H 0.3631 0.0519 -0.0269
C71B C 0.3301(5) 0.1389(4) 0.0672(4)
H59B H 0.3314 0.0983 0.0785
C72B C 0.3114(7) 0.1894(6) 0.11774(19)
C73B C 0.3399(7) 0.2368(5) 0.1376(3)
H60B H 0.3630 0.2718 0.1277
C74B C 0.3346(7) 0.2330(5) 0.1720(3)
H61B H 0.3541 0.2654 0.1855
C75B C 0.3008(8) 0.1817(6) 0.18646(19)
C76B C 0.2723(7) 0.1343(5) 0.1666(3)
H62B H 0.2493 0.0993 0.1765
C77B C 0.2776(7) 0.1382(5) 0.1322(2)
H63B H 0.2582 0.1058 0.1187
C78B C 0.2906(12) 0.1826(8) 0.2263(4)
H64B H 0.3154 0.2187 0.2360
H65B H 0.2443 0.1883 0.2314
H66B H 0.3058 0.1414 0.2358
N1B N 0.2469(4) 0.7915(4) -0.0564(2)
N2B N 0.3357(3) 0.7252(3) -0.0882(2)
N3B N 0.5957(4) 0.6844(4) -0.1441(2)
N4B N 0.6924(5) 0.6364(5) -0.1760(3)
N5B N 0.3462(3) 0.7004(3) -0.0230(3)
N6B N 0.2985(4) 0.6010(4) -0.0535(3)
N7B N 0.2709(5) 0.3406(4) -0.1125(2)
N8B N 0.2167(5) 0.2543(4) -0.1471(3)
N9B N 0.3448(5) 0.2145(4) -0.1797(3)
N10B N 0.3338(3) 0.2077(3) -0.1152(2)
N11B N 0.3327(4) 0.2002(3) 0.0191(3)
N12B N 0.3211(3) 0.1918(4) 0.0850(2)
Ni1B Ni 0.26867(5) 0.69321(5) -0.05432(4)
Ni2B Ni 0.31006(7) 0.28119(6) -0.14596(4)
C1C C 0.9968(6) 0.1081(7) -0.0234(4)
H1C H 1.0170 0.0878 -0.0429
H2C H 1.0228 0.1457 -0.0165
H3C H 0.9948 0.0765 -0.0052
C2C C 0.9328(3) 0.1289(4) -0.0316(2)
C3C C 0.8946(4) 0.1600(5) -0.00795(19)
H4C H 0.9097 0.1640 0.0143
C4C C 0.8344(4) 0.1855(5) -0.0168(2)
H5C H 0.8084 0.2068 -0.0006
C5C C 0.8123(3) 0.1797(4) -0.0493(2)
C6C C 0.8505(4) 0.1486(5) -0.0729(2)
H6C H 0.8354 0.1446 -0.0951
C7C C 0.9107(4) 0.1231(4) -0.0641(2)
H7C H 0.9368 0.1018 -0.0803
C8C C 0.7150(4) 0.1772(4) -0.0736(3)
H8C H 0.7204 0.1315 -0.0756
C9C C 0.6662(5) 0.2063(4) -0.0894(2)
C10C C 0.6154(5) 0.3049(5) -0.1016(2)
H9C H 0.6158 0.3511 -0.1017
C11C C 0.5642(5) 0.2743(5) -0.1154(2)
C12C C 0.5671(6) 0.2060(5) -0.1166(3)
H10C H 0.5342 0.1815 -0.1274
C13C C 0.6181(6) 0.1759(5) -0.1017(3)
H11C H 0.6179 0.1298 -0.1005
C14C C 0.5154(4) 0.3077(5) -0.1316(3)
C15C C 0.4501(5) 0.2876(5) -0.1284(3)
H12C H 0.4401 0.2522 -0.1141
C16C C 0.4165(5) 0.3655(5) -0.1624(4)
C17C C 0.4761(5) 0.3888(6) -0.1672(4)
H13C H 0.4839 0.4270 -0.1798
C18C C 0.5260(5) 0.3538(7) -0.1525(3)
H14C H 0.5696 0.3642 -0.1581
C19C C 0.3597(6) 0.3932(6) -0.1775(4)
H15C H 0.3622 0.4339 -0.1886
C20C C 0.2500(5) 0.3984(6) -0.1819(4)
C21C C 0.2020(6) 0.3673(5) -0.2003(4)
H16C H 0.2090 0.3243 -0.2082
C22C C 0.1437(5) 0.3989(6) -0.2071(3)
H17C H 0.1109 0.3776 -0.2196
C23C C 0.1334(5) 0.4618(6) -0.1954(3)
C24C C 0.1814(6) 0.4930(5) -0.1770(3)
H18C H 0.1744 0.5359 -0.1691
C25C C 0.2397(5) 0.4613(6) -0.1703(3)
H19C H 0.2725 0.4826 -0.1577
C26C C 0.0703(9) 0.4913(10) -0.2013(6)
H20C H 0.0701 0.5356 -0.1922
H21C H 0.0618 0.4929 -0.2252
H22C H 0.0366 0.4654 -0.1903
C27C C 0.5534(5) 0.0675(5) 0.0206(4)
H23C H 0.5085 0.0606 0.0132
H24C H 0.5813 0.0331 0.0114
H25C H 0.5553 0.0662 0.0449
C28C C 0.5753(3) 0.1282(3) 0.0093(2)
C29C C 0.6389(3) 0.1445(3) 0.0176(2)
H26C H 0.6645 0.1154 0.0305
C30C C 0.6649(3) 0.2034(3) 0.0072(2)
H27C H 0.7084 0.2146 0.0128
C31C C 0.6274(3) 0.2460(3) -0.0116(2)
C32C C 0.5639(3) 0.2297(3) -0.0199(2)
H28C H 0.5382 0.2589 -0.0327
C33C C 0.5378(3) 0.1708(3) -0.0094(2)
H29C H 0.4943 0.1597 -0.0151
C34C C 0.6245(5) 0.3529(5) -0.0223(3)
H30C H 0.5836 0.3546 -0.0113
C35C C 0.6472(6) 0.4079(4) -0.0360(3)
C36C C 0.7305(5) 0.4463(3) -0.0687(3)
H31C H 0.7682 0.4394 -0.0818
C37C C 0.7025(7) 0.5100(5) -0.0646(3)
C38C C 0.6526(8) 0.5190(4) -0.0494(3)
H32C H 0.6361 0.5621 -0.0475
C39C C 0.6160(7) 0.4642(5) -0.0333(4)
H33C H 0.5753 0.4692 -0.0224
C40C C 0.7370(7) 0.5636(5) -0.0818(3)
C41C C 0.7022(5) 0.6110(4) -0.0969(3)
H34C H 0.6560 0.6087 -0.0961
C42C C 0.7923(6) 0.6617(5) -0.1123(3)
C43C C 0.8337(6) 0.6142(6) -0.0976(5)
H35C H 0.8797 0.6168 -0.0992
C44C C 0.8036(6) 0.5646(5) -0.0811(4)
H36C H 0.8278 0.5322 -0.0696
C45C C 0.8208(6) 0.7107(5) -0.1288(3)
H37C H 0.8661 0.7191 -0.1271
C46C C 0.8140(8) 0.7949(4) -0.1638(4)
C47C C 0.8002(7) 0.8583(5) -0.1541(3)
H38C H 0.7723 0.8660 -0.1357
C48C C 0.8270(8) 0.9104(4) -0.1713(4)
H39C H 0.8175 0.9537 -0.1647
C49C C 0.8677(8) 0.8991(4) -0.1983(4)
C50C C 0.8816(7) 0.8357(5) -0.2080(3)
H40C H 0.9094 0.8280 -0.2264
C51C C 0.8547(8) 0.7836(4) -0.1908(4)
H41C H 0.8642 0.7403 -0.1975
C52C C 0.9064(12) 0.9532(8) -0.2155(6)
H42C H 0.9335 0.9344 -0.2330
H43C H 0.8762 0.9848 -0.2252
H44C H 0.9342 0.9751 -0.1991
C53C C 0.6654(15) 0.7962(10) -0.3205(4)
H45C H 0.6745 0.8401 -0.3289
H46C H 0.6974 0.7657 -0.3296
H47C H 0.6216 0.7829 -0.3274
C54C C 0.6697(11) 0.7961(7) -0.2827(2)
C55C C 0.6528(11) 0.7374(6) -0.2678(3)
H48C H 0.6429 0.7006 -0.2812
C56C C 0.6504(11) 0.7326(6) -0.2334(3)
H49C H 0.6388 0.6925 -0.2233
C57C C 0.6649(11) 0.7864(7) -0.2139(2)
C58C C 0.6817(10) 0.8451(6) -0.2287(3)
H50C H 0.6916 0.8818 -0.2153
C59C C 0.6842(10) 0.8499(6) -0.2631(3)
H51C H 0.6957 0.8900 -0.2733
C60C C 0.6347(7) 0.8362(6) -0.1639(4)
H52C H 0.6192 0.8728 -0.1759
C61C C 0.6349(6) 0.8376(6) -0.1303(2)
C62C C 0.6702(4) 0.7944(3) -0.0829(3)
H53C H 0.6911 0.7603 -0.0712
C63C C 0.6446(5) 0.8449(4) -0.0663(2)
C64C C 0.6078(6) 0.8904(7) -0.0825(4)
H54C H 0.5853 0.9234 -0.0706
C65C C 0.6046(7) 0.8869(5) -0.1138(5)
H55C H 0.5810 0.9189 -0.1258
C66C C 0.6494(4) 0.8477(4) -0.0314(3)
C67C C 0.6619(4) 0.7981(5) -0.0127(3)
H56C H 0.6675 0.7572 -0.0233
C68C C 0.6627(5) 0.8612(6) 0.0348(4)
C69C C 0.6517(5) 0.9139(4) 0.0182(4)
H57C H 0.6487 0.9547 0.0292
C70C C 0.6449(7) 0.9097(5) -0.0144(3)
H58C H 0.6369 0.9481 -0.0269
C71C C 0.6699(5) 0.8611(4) 0.0672(4)
H59C H 0.6686 0.9017 0.0785
C72C C 0.6886(7) 0.8106(6) 0.11774(19)
C73C C 0.6601(7) 0.7632(5) 0.1376(3)
H60C H 0.6370 0.7282 0.1277
C74C C 0.6654(7) 0.7670(5) 0.1720(3)
H61C H 0.6459 0.7346 0.1855
C75C C 0.6992(8) 0.8183(6) 0.18646(19)
C76C C 0.7277(7) 0.8657(5) 0.1666(3)
H62C H 0.7507 0.9007 0.1765
C77C C 0.7224(7) 0.8618(5) 0.1322(2)
H63C H 0.7418 0.8942 0.1187
C78C C 0.7094(12) 0.8174(8) 0.2263(4)
H64C H 0.6846 0.7813 0.2360
H65C H 0.7557 0.8117 0.2314
H66C H 0.6942 0.8586 0.2358
N1C N 0.7531(4) 0.2085(4) -0.0564(2)
N2C N 0.6643(3) 0.2748(3) -0.0882(2)
N3C N 0.4043(4) 0.3156(4) -0.1441(2)
N4C N 0.3076(5) 0.3636(5) -0.1760(3)
N5C N 0.6538(3) 0.2996(3) -0.0230(3)
N6C N 0.7015(4) 0.3990(4) -0.0535(3)
N7C N 0.7291(5) 0.6594(4) -0.1125(2)
N8C N 0.7833(5) 0.7457(4) -0.1471(3)
N9C N 0.6552(5) 0.7855(4) -0.1797(3)
N10C N 0.6662(3) 0.7923(3) -0.1152(2)
N11C N 0.6673(4) 0.7998(3) 0.0191(3)
N12C N 0.6789(3) 0.8082(4) 0.0850(2)
Ni1C Ni 0.73133(5) 0.30679(5) -0.05432(4)
Ni2C Ni 0.68994(7) 0.71881(6) -0.14596(4)
loop_
_geom_bond_atom_site_label_1
_geom_bond_atom_site_label_2
_geom_bond_site_symmetry_1
_geom_bond_site_symmetry_2
C1 H1 1_555 1_555
H2 C1 1_555 1_555
H3 C1 1_555 1_555
C2 C1 1_555 1_555
C3 C2 1_555 1_555
H4 C3 1_555 1_555
C4 C3 1_555 1_555
H5 C4 1_555 1_555
C5 C4 1_555 1_555
C6 C5 1_555 1_555
H6 C6 1_555 1_555
C7 C2 1_555 1_555
H7 C7 1_555 1_555
C8 H8 1_555 1_555
C9 C8 1_555 1_555
C10 H9 1_555 1_555
C11 C10 1_555 1_555
C12 C11 1_555 1_555
H10 C12 1_555 1_555
C13 C9 1_555 1_555
H11 C13 1_555 1_555
C14 C11 1_555 1_555
C15 C14 1_555 1_555
H12 C15 1_555 1_555
C16 C17 1_555 1_555
C17 H13 1_555 1_555
C18 C14 1_555 1_555
H14 C18 1_555 1_555
C19 C16 1_555 1_555
H15 C19 1_555 1_555
C20 C21 1_555 1_555
C21 H16 1_555 1_555
C22 C21 1_555 1_555
H17 C22 1_555 1_555
C23 C22 1_555 1_555
C24 C23 1_555 1_555
H18 C24 1_555 1_555
C25 C20 1_555 1_555
H19 C25 1_555 1_555
C26 C23 1_555 1_555
H20 C26 1_555 1_555
H21 C26 1_555 1_555
H22 C26 1_555 1_555
C27 H23 1_555 1_555
H24 C27 1_555 1_555
H25 C27 1_555 1_555
C28 C27 1_555 1_555
C29 C28 1_555 1_555
H26 C29 1_555 1_555
C30 C29 1_555 1_555
H27 C30 1_555 1_555
C31 C30 1_555 1_555
C32 C31 1_555 1_555
H28 C32 1_555 1_555
C33 C28 1_555 1_555
H29 C33 1_555 1_555
C34 H30 1_555 1_555
C35 C34 1_555 1_555
C36 H31 1_555 1_555
C37 C36 1_555 1_555
C38 C37 1_555 1_555
H32 C38 1_555 1_555
C39 C35 1_555 1_555
H33 C39 1_555 1_555
C40 C37 1_555 1_555
C41 C40 1_555 1_555
H34 C41 1_555 1_555
C42 C43 1_555 1_555
C43 H35 1_555 1_555
C44 C40 1_555 1_555
H36 C44 1_555 1_555
C45 C42 1_555 1_555
H37 C45 1_555 1_555
C46 C47 1_555 1_555
C47 H38 1_555 1_555
C48 C47 1_555 1_555
H39 C48 1_555 1_555
C49 C48 1_555 1_555
C50 C49 1_555 1_555
H40 C50 1_555 1_555
C51 C46 1_555 1_555
H41 C51 1_555 1_555
C52 C49 1_555 1_555
H42 C52 1_555 1_555
H43 C52 1_555 1_555
H44 C52 1_555 1_555
C53 H45 1_555 1_555
H46 C53 1_555 1_555
H47 C53 1_555 1_555
C54 C53 1_555 1_555
C55 C54 1_555 1_555
H48 C55 1_555 1_555
C56 C55 1_555 1_555
H49 C56 1_555 1_555
C57 C56 1_555 1_555
C58 C57 1_555 1_555
H50 C58 1_555 1_555
C59 C54 1_555 1_555
H51 C59 1_555 1_555
C60 H52 1_555 1_555
C61 C60 1_555 1_555
C62 H53 1_555 1_555
C63 C62 1_555 1_555
C64 C63 1_555 1_555
H54 C64 1_555 1_555
C65 C61 1_555 1_555
H55 C65 1_555 1_555
C66 C63 1_555 1_555
C67 C66 1_555 1_555
H56 C67 1_555 1_555
C68 C69 1_555 1_555
C69 H57 1_555 1_555
C70 C66 1_555 1_555
H58 C70 1_555 1_555
C71 C68 1_555 1_555
H59 C71 1_555 1_555
C72 C73 1_555 1_555
C73 H60 1_555 1_555
C74 C73 1_555 1_555
H61 C74 1_555 1_555
C75 C74 1_555 1_555
C76 C75 1_555 1_555
H62 C76 1_555 1_555
C77 C72 1_555 1_555
H63 C77 1_555 1_555
C78 C75 1_555 1_555
H64 C78 1_555 1_555
H65 C78 1_555 1_555
H66 C78 1_555 1_555
N1 C5 1_555 1_555
N2 C9 1_555 1_555
N3 C15 1_555 1_555
N4 C19 1_555 1_555
N5 C31 1_555 1_555
N6 C35 1_555 1_555
N7 C41 1_555 1_555
N8 C45 1_555 1_555
N9 C57 1_555 1_555
N10 C61 1_555 1_555
N11 C67 1_555 1_555
N12 C71 1_555 1_555
Ni1 N1 1_555 1_555
Ni2 N7 1_555 1_555
N13 O1 1_555 1_555
O2 N13 1_555 1_555
O3 N13 1_555 1_555
C1A H1A 1_555 1_555
H2A C1A 1_555 1_555
H3A C1A 1_555 1_555
C2A C1A 1_555 1_555
C3A C2A 1_555 1_555
H4A C3A 1_555 1_555
C4A C3A 1_555 1_555
H5A C4A 1_555 1_555
C5A C4A 1_555 1_555
C6A C5A 1_555 1_555
H6A C6A 1_555 1_555
C7A C2A 1_555 1_555
H7A C7A 1_555 1_555
C8A H8A 1_555 1_555
C9A C8A 1_555 1_555
C10A H9A 1_555 1_555
C11A C10A 1_555 1_555
C12A C11A 1_555 1_555
H10A C12A 1_555 1_555
C13A C9A 1_555 1_555
H11A C13A 1_555 1_555
C14A C11A 1_555 1_555
C15A C14A 1_555 1_555
H12A C15A 1_555 1_555
C16A C17A 1_555 1_555
C17A H13A 1_555 1_555
C18A C14A 1_555 1_555
H14A C18A 1_555 1_555
C19A C16A 1_555 1_555
H15A C19A 1_555 1_555
C20A C21A 1_555 1_555
C21A H16A 1_555 1_555
C22A C21A 1_555 1_555
H17A C22A 1_555 1_555
C23A C22A 1_555 1_555
C24A C23A 1_555 1_555
H18A C24A 1_555 1_555
C25A C20A 1_555 1_555
H19A C25A 1_555 1_555
C26A C23A 1_555 1_555
H20A C26A 1_555 1_555
H21A C26A 1_555 1_555
H22A C26A 1_555 1_555
C27A H23A 1_555 1_555
H24A C27A 1_555 1_555
H25A C27A 1_555 1_555
C28A C27A 1_555 1_555
C29A C28A 1_555 1_555
H26A C29A 1_555 1_555
C30A C29A 1_555 1_555
H27A C30A 1_555 1_555
C31A C30A 1_555 1_555
C32A C31A 1_555 1_555
H28A C32A 1_555 1_555
C33A C28A 1_555 1_555
H29A C33A 1_555 1_555
C34A H30A 1_555 1_555
C35A C34A 1_555 1_555
C36A H31A 1_555 1_555
C37A C36A 1_555 1_555
C38A C37A 1_555 1_555
H32A C38A 1_555 1_555
C39A C35A 1_555 1_555
H33A C39A 1_555 1_555
C40A C37A 1_555 1_555
C41A C40A 1_555 1_555
H34A C41A 1_555 1_555
C42A C43A 1_555 1_555
C43A H35A 1_555 1_555
C44A C40A 1_555 1_555
H36A C44A 1_555 1_555
C45A C42A 1_555 1_555
H37A C45A 1_555 1_555
C46A C47A 1_555 1_555
C47A H38A 1_555 1_555
C48A C47A 1_555 1_555
H39A C48A 1_555 1_555
C49A C48A 1_555 1_555
C50A C49A 1_555 1_555
H40A C50A 1_555 1_555
C51A C46A 1_555 1_555
H41A C51A 1_555 1_555
C52A C49A 1_555 1_555
H42A C52A 1_555 1_555
H43A C52A 1_555 1_555
H44A C52A 1_555 1_555
C53A H45A 1_555 1_555
H46A C53A 1_555 1_555
H47A C53A 1_555 1_555
C54A C53A 1_555 1_555
C55A C54A 1_555 1_555
H48A C55A 1_555 1_555
C56A C55A 1_555 1_555
H49A C56A 1_555 1_555
C57A C56A 1_555 1_555
C58A C57A 1_555 1_555
H50A C58A 1_555 1_555
C59A C54A 1_555 1_555
H51A C59A 1_555 1_555
C60A H52A 1_555 1_555
C61A C60A 1_555 1_555
C62A H53A 1_555 1_555
C63A C62A 1_555 1_555
C64A C63A 1_555 1_555
H54A C64A 1_555 1_555
C65A C61A 1_555 1_555
H55A C65A 1_555 1_555
C66A C63A 1_555 1_555
C67A C66A 1_555 1_555
H56A C67A 1_555 1_555
C68A C69A 1_555 1_555
C69A H57A 1_555 1_555
C70A C66A 1_555 1_555
H58A C70A 1_555 1_555
C71A C68A 1_555 1_555
H59A C71A 1_555 1_555
C72A C73A 1_555 1_555
C73A H60A 1_555 1_555
C74A C73A 1_555 1_555
H61A C74A 1_555 1_555
C75A C74A 1_555 1_555
C76A C75A 1_555 1_555
H62A C76A 1_555 1_555
C77A C72A 1_555 1_555
H63A C77A 1_555 1_555
C78A C75A 1_555 1_555
H64A C78A 1_555 1_555
H65A C78A 1_555 1_555
H66A C78A 1_555 1_555
N1A C5A 1_555 1_555
N2A C9A 1_555 1_555
N3A Ni2 1_555 1_555
N4A Ni2 1_555 1_555
N5A C31A 1_555 1_555
N6A C35A 1_555 1_555
N7A C41A 1_555 1_555
N8A C45A 1_555 1_555
N9A C57A 1_555 1_555
N10A C61A 1_555 1_555
N11A C67A 1_555 1_555
N12A C71A 1_555 1_555
Ni1A N1A 1_555 1_555
Ni2A N3 1_555 1_555
C1B H1B 1_555 1_555
H2B C1B 1_555 1_555
H3B C1B 1_555 1_555
C2B C1B 1_555 1_555
C3B C2B 1_555 1_555
H4B C3B 1_555 1_555
C4B C3B 1_555 1_555
H5B C4B 1_555 1_555
C5B C4B 1_555 1_555
C6B C5B 1_555 1_555
H6B C6B 1_555 1_555
C7B C2B 1_555 1_555
H7B C7B 1_555 1_555
C8B H8B 1_555 1_555
C9B C8B 1_555 1_555
C10B H9B 1_555 1_555
C11B C10B 1_555 1_555
C12B C11B 1_555 1_555
H10B C12B 1_555 1_555
C13B C9B 1_555 1_555
H11B C13B 1_555 1_555
C14B C11B 1_555 1_555
C15B C14B 1_555 1_555
H12B C15B 1_555 1_555
C16B C17B 1_555 1_555
C17B H13B 1_555 1_555
C18B C14B 1_555 1_555
H14B C18B 1_555 1_555
C19B C16B 1_555 1_555
H15B C19B 1_555 1_555
C20B C21B 1_555 1_555
C21B H16B 1_555 1_555
C22B C21B 1_555 1_555
H17B C22B 1_555 1_555
C23B C22B 1_555 1_555
C24B C23B 1_555 1_555
H18B C24B 1_555 1_555
C25B C20B 1_555 1_555
H19B C25B 1_555 1_555
C26B C23B 1_555 1_555
H20B C26B 1_555 1_555
H21B C26B 1_555 1_555
H22B C26B 1_555 1_555
C27B H23B 1_555 1_555
H24B C27B 1_555 1_555
H25B C27B 1_555 1_555
C28B C27B 1_555 1_555
C29B C28B 1_555 1_555
H26B C29B 1_555 1_555
C30B C29B 1_555 1_555
H27B C30B 1_555 1_555
C31B C30B 1_555 1_555
C32B C31B 1_555 1_555
H28B C32B 1_555 1_555
C33B C28B 1_555 1_555
H29B C33B 1_555 1_555
C34B H30B 1_555 1_555
C35B C34B 1_555 1_555
C36B H31B 1_555 1_555
C37B C36B 1_555 1_555
C38B C37B 1_555 1_555
H32B C38B 1_555 1_555
C39B C35B 1_555 1_555
H33B C39B 1_555 1_555
C40B C37B 1_555 1_555
C41B C40B 1_555 1_555
H34B C41B 1_555 1_555
C42B C43B 1_555 1_555
C43B H35B 1_555 1_555
C44B C40B 1_555 1_555
H36B C44B 1_555 1_555
C45B C42B 1_555 1_555
H37B C45B 1_555 1_555
C46B C47B 1_555 1_555
C47B H38B 1_555 1_555
C48B C47B 1_555 1_555
H39B C48B 1_555 1_555
C49B C48B 1_555 1_555
C50B C49B 1_555 1_555
H40B C50B 1_555 1_555
C51B C46B 1_555 1_555
H41B C51B 1_555 1_555
C52B C49B 1_555 1_555
H42B C52B 1_555 1_555
H43B C52B 1_555 1_555
H44B C52B 1_555 1_555
C53B H45B 1_555 1_555
H46B C53B 1_555 1_555
H47B C53B 1_555 1_555
C54B C53B 1_555 1_555
C55B C54B 1_555 1_555
H48B C55B 1_555 1_555
C56B C55B 1_555 1_555
H49B C56B 1_555 1_555
C57B C56B 1_555 1_555
C58B C57B 1_555 1_555
H50B C58B 1_555 1_555
C59B C54B 1_555 1_555
H51B C59B 1_555 1_555
C60B H52B 1_555 1_555
C61B C60B 1_555 1_555
C62B H53B 1_555 1_555
C63B C62B 1_555 1_555
C64B C63B 1_555 1_555
H54B C64B 1_555 1_555
C65B C61B 1_555 1_555
H55B C65B 1_555 1_555
C66B C63B 1_555 1_555
C67B C66B 1_555 1_555
H56B C67B 1_555 1_555
C68B C69B 1_555 1_555
C69B H57B 1_555 1_555
C70B C66B 1_555 1_555
H58B C70B 1_555 1_555
C71B C68B 1_555 1_555
H59B C71B 1_555 1_555
C72B C73B 1_555 1_555
C73B H60B 1_555 1_555
C74B C73B 1_555 1_555
H61B C74B 1_555 1_555
C75B C74B 1_555 1_555
C76B C75B 1_555 1_555
H62B C76B 1_555 1_555
C77B C72B 1_555 1_555
H63B C77B 1_555 1_555
C78B C75B 1_555 1_555
H64B C78B 1_555 1_555
H65B C78B 1_555 1_555
H66B C78B 1_555 1_555
N1B C5B 1_555 1_555
N2B C9B 1_555 1_555
N3B C15B 1_555 1_555
N4B C19B 1_555 1_555
N5B C31B 1_555 1_555
N6B C35B 1_555 1_555
N7B C41B 1_555 1_555
N8B C45B 1_555 1_555
N9B C57B 1_555 1_555
N10B C61B 1_555 1_555
N11B Ni1 1_555 1_555
N12B Ni1 1_555 1_555
Ni1B N11A 1_555 1_555
Ni2B N7B 1_555 1_555
C1C H1C 1_555 1_555
H2C C1C 1_555 1_555
H3C C1C 1_555 1_555
C2C C1C 1_555 1_555
C3C C2C 1_555 1_555
H4C C3C 1_555 1_555
C4C C3C 1_555 1_555
H5C C4C 1_555 1_555
C5C C4C 1_555 1_555
C6C C5C 1_555 1_555
H6C C6C 1_555 1_555
C7C C2C 1_555 1_555
H7C C7C 1_555 1_555
C8C H8C 1_555 1_555
C9C C8C 1_555 1_555
C10C H9C 1_555 1_555
C11C C10C 1_555 1_555
C12C C11C 1_555 1_555
H10C C12C 1_555 1_555
C13C C9C 1_555 1_555
H11C C13C 1_555 1_555
C14C C11C 1_555 1_555
C15C C14C 1_555 1_555
H12C C15C 1_555 1_555
C16C C17C 1_555 1_555
C17C H13C 1_555 1_555
C18C C14C 1_555 1_555
H14C C18C 1_555 1_555
C19C C16C 1_555 1_555
H15C C19C 1_555 1_555
C20C C21C 1_555 1_555
C21C H16C 1_555 1_555
C22C C21C 1_555 1_555
H17C C22C 1_555 1_555
C23C C22C 1_555 1_555
C24C C23C 1_555 1_555
H18C C24C 1_555 1_555
C25C C20C 1_555 1_555
H19C C25C 1_555 1_555
C26C C23C 1_555 1_555
H20C C26C 1_555 1_555
H21C C26C 1_555 1_555
H22C C26C 1_555 1_555
C27C H23C 1_555 1_555
H24C C27C 1_555 1_555
H25C C27C 1_555 1_555
C28C C27C 1_555 1_555
C29C C28C 1_555 1_555
H26C C29C 1_555 1_555
C30C C29C 1_555 1_555
H27C C30C 1_555 1_555
C31C C30C 1_555 1_555
C32C C31C 1_555 1_555
H28C C32C 1_555 1_555
C33C C28C 1_555 1_555
H29C C33C 1_555 1_555
C34C H30C 1_555 1_555
C35C C34C 1_555 1_555
C36C H31C 1_555 1_555
C37C C36C 1_555 1_555
C38C C37C 1_555 1_555
H32C C38C 1_555 1_555
C39C C35C 1_555 1_555
H33C C39C 1_555 1_555
C40C C37C 1_555 1_555
C41C C40C 1_555 1_555
H34C C41C 1_555 1_555
C42C C43C 1_555 1_555
C43C H35C 1_555 1_555
C44C C40C 1_555 1_555
H36C C44C 1_555 1_555
C45C C42C 1_555 1_555
H37C C45C 1_555 1_555
C46C C47C 1_555 1_555
C47C H38C 1_555 1_555
C48C C47C 1_555 1_555
H39C C48C 1_555 1_555
C49C C48C 1_555 1_555
C50C C49C 1_555 1_555
H40C C50C 1_555 1_555
C51C C46C 1_555 1_555
H41C C51C 1_555 1_555
C52C C49C 1_555 1_555
H42C C52C 1_555 1_555
H43C C52C 1_555 1_555
H44C C52C 1_555 1_555
C53C H45C 1_555 1_555
H46C C53C 1_555 1_555
H47C C53C 1_555 1_555
C54C C53C 1_555 1_555
C55C C54C 1_555 1_555
H48C C55C 1_555 1_555
C56C C55C 1_555 1_555
H49C C56C 1_555 1_555
C57C C56C 1_555 1_555
C58C C57C 1_555 1_555
H50C C58C 1_555 1_555
C59C C54C 1_555 1_555
H51C C59C 1_555 1_555
C60C H52C 1_555 1_555
C61C C60C 1_555 1_555
C62C H53C 1_555 1_555
C63C C62C 1_555 1_555
C64C C63C 1_555 1_555
H54C C64C 1_555 1_555
C65C C61C 1_555 1_555
H55C C65C 1_555 1_555
C66C C63C 1_555 1_555
C67C C66C 1_555 1_555
H56C C67C 1_555 1_555
C68C C69C 1_555 1_555
C69C H57C 1_555 1_555
C70C C66C 1_555 1_555
H58C C70C 1_555 1_555
C71C C68C 1_555 1_555
H59C C71C 1_555 1_555
C72C C73C 1_555 1_555
C73C H60C 1_555 1_555
C74C C73C 1_555 1_555
H61C C74C 1_555 1_555
C75C C74C 1_555 1_555
C76C C75C 1_555 1_555
H62C C76C 1_555 1_555
C77C C72C 1_555 1_555
H63C C77C 1_555 1_555
C78C C75C 1_555 1_555
H64C C78C 1_555 1_555
H65C C78C 1_555 1_555
H66C C78C 1_555 1_555
N1C C5C 1_555 1_555
N2C C9C 1_555 1_555
N3C Ni2B 1_555 1_555
N4C Ni2B 1_555 1_555
N5C C31C 1_555 1_555
N6C C35C 1_555 1_555
N7C C41C 1_555 1_555
N8C C45C 1_555 1_555
N9C C57C 1_555 1_555
N10C C61C 1_555 1_555
N11C Ni1A 1_555 1_555
N12C Ni1A 1_555 1_555
Ni1C N11 1_555 1_555
Ni2C N3B 1_555 1_555
C6 C7 1_555 1_555
C8 N1 1_555 1_555
C10 N2 1_555 1_555
C12 C13 1_555 1_555
C16 N3 1_555 1_555
C17 C18 1_555 1_555
C20 N4 1_555 1_555
C24 C25 1_555 1_555
C32 C33 1_555 1_555
C34 N5 1_555 1_555
C36 N6 1_555 1_555
C38 C39 1_555 1_555
C42 N7 1_555 1_555
C43 C44 1_555 1_555
C46 N8 1_555 1_555
C50 C51 1_555 1_555
C58 C59 1_555 1_555
C60 N9 1_555 1_555
C62 N10 1_555 1_555
C64 C65 1_555 1_555
C68 N11 1_555 1_555
C69 C70 1_555 1_555
C72 N12 1_555 1_555
C76 C77 1_555 1_555
N2 Ni1 1_555 1_555
N4 Ni2A 1_555 1_555
N5 Ni1 1_555 1_555
N6 Ni1 1_555 1_555
N8 Ni2 1_555 1_555
N9 Ni2 1_555 1_555
N10 Ni2 1_555 1_555
N12 Ni1C 1_555 1_555
C6A C7A 1_555 1_555
C8A N1A 1_555 1_555
C10A N2A 1_555 1_555
C12A C13A 1_555 1_555
C15A N3A 1_555 1_555
C16A N3A 1_555 1_555
C17A C18A 1_555 1_555
C19A N4A 1_555 1_555
C20A N4A 1_555 1_555
C24A C25A 1_555 1_555
C32A C33A 1_555 1_555
C34A N5A 1_555 1_555
C36A N6A 1_555 1_555
C38A C39A 1_555 1_555
C42A N7A 1_555 1_555
C43A C44A 1_555 1_555
C46A N8A 1_555 1_555
C50A C51A 1_555 1_555
C58A C59A 1_555 1_555
C60A N9A 1_555 1_555
C62A N10A 1_555 1_555
C64A C65A 1_555 1_555
C68A N11A 1_555 1_555
C69A C70A 1_555 1_555
C72A N12A 1_555 1_555
C76A C77A 1_555 1_555
N2A Ni1A 1_555 1_555
N5A Ni1A 1_555 1_555
N6A Ni1A 1_555 1_555
N7A Ni2A 1_555 1_555
N8A Ni2A 1_555 1_555
N9A Ni2A 1_555 1_555
N10A Ni2A 1_555 1_555
N12A Ni1B 1_555 1_555
C6B C7B 1_555 1_555
C8B N1B 1_555 1_555
C10B N2B 1_555 1_555
C12B C13B 1_555 1_555
C16B N3B 1_555 1_555
C17B C18B 1_555 1_555
C20B N4B 1_555 1_555
C24B C25B 1_555 1_555
C32B C33B 1_555 1_555
C34B N5B 1_555 1_555
C36B N6B 1_555 1_555
C38B C39B 1_555 1_555
C42B N7B 1_555 1_555
C43B C44B 1_555 1_555
C46B N8B 1_555 1_555
C50B C51B 1_555 1_555
C58B C59B 1_555 1_555
C60B N9B 1_555 1_555
C62B N10B 1_555 1_555
C64B C65B 1_555 1_555
C67B N11B 1_555 1_555
C68B N11B 1_555 1_555
C69B C70B 1_555 1_555
C71B N12B 1_555 1_555
C72B N12B 1_555 1_555
C76B C77B 1_555 1_555
N1B Ni1B 1_555 1_555
N2B Ni1B 1_555 1_555
N4B Ni2C 1_555 1_555
N5B Ni1B 1_555 1_555
N6B Ni1B 1_555 1_555
N8B Ni2B 1_555 1_555
N9B Ni2B 1_555 1_555
N10B Ni2B 1_555 1_555
C6C C7C 1_555 1_555
C8C N1C 1_555 1_555
C10C N2C 1_555 1_555
C12C C13C 1_555 1_555
C15C N3C 1_555 1_555
C16C N3C 1_555 1_555
C17C C18C 1_555 1_555
C19C N4C 1_555 1_555
C20C N4C 1_555 1_555
C24C C25C 1_555 1_555
C32C C33C 1_555 1_555
C34C N5C 1_555 1_555
C36C N6C 1_555 1_555
C38C C39C 1_555 1_555
C42C N7C 1_555 1_555
C43C C44C 1_555 1_555
C46C N8C 1_555 1_555
C50C C51C 1_555 1_555
C58C C59C 1_555 1_555
C60C N9C 1_555 1_555
C62C N10C 1_555 1_555
C64C C65C 1_555 1_555
C67C N11C 1_555 1_555
C68C N11C 1_555 1_555
C69C C70C 1_555 1_555
C71C N12C 1_555 1_555
C72C N12C 1_555 1_555
C76C C77C 1_555 1_555
N1C Ni1C 1_555 1_555
N2C Ni1C 1_555 1_555
N5C Ni1C 1_555 1_555
N6C Ni1C 1_555 1_555
N7C Ni2C 1_555 1_555
N8C Ni2C 1_555 1_555
N9C Ni2C 1_555 1_555
N10C Ni2C 1_555 1_555

#END
