# generated using pymatgen
data_Ni2H84C78N13O3
_symmetry_space_group_name_H-M   'P 1'
_cell_length_a   20.55400000
_cell_length_b   20.55400000
_cell_length_c   40.27000000
_cell_angle_alpha   90.00000000
_cell_angle_beta   90.00000000
_cell_angle_gamma   90.00000000
_symmetry_Int_Tables_number   1
_chemical_formula_structural   Ni2H84C78N13O3
_chemical_formula_sum   'Ni16 H672 C624 N104 O24'
_cell_volume   17012.74270732
_cell_formula_units_Z   8
loop_
 _symmetry_equiv_pos_site_id
 _symmetry_equiv_pos_as_xyz
  1  'x, y, z'
loop_
 _atom_site_type_symbol
 _atom_site_label
 _atom_site_symmetry_multiplicity
 _atom_site_fract_x
 _atom_site_fract_y
 _atom_site_fract_z
 _atom_site_occupancy
  Ni  Ni1  1  0.306790  0.268670  0.054320  1.0
  Ni  Ni2  1  0.693210  0.731330  0.054320  1.0
  Ni  Ni3  1  0.268670  0.693210  0.945680  1.0
  Ni  Ni4  1  0.731330  0.306790  0.945680  1.0
  Ni  Ni5  1  0.693210  0.268670  0.445680  1.0
  Ni  Ni6  1  0.306790  0.731330  0.445680  1.0
  Ni  Ni7  1  0.731330  0.693210  0.554320  1.0
  Ni  Ni8  1  0.268670  0.306790  0.554320  1.0
  Ni  Ni9  1  0.718810  0.310060  0.145960  1.0
  Ni  Ni10  1  0.281190  0.689940  0.145960  1.0
  Ni  Ni11  1  0.310060  0.281190  0.854040  1.0
  Ni  Ni12  1  0.689940  0.718810  0.854040  1.0
  Ni  Ni13  1  0.281190  0.310060  0.354040  1.0
  Ni  Ni14  1  0.718810  0.689940  0.354040  1.0
  Ni  Ni15  1  0.689940  0.281190  0.645960  1.0
  Ni  Ni16  1  0.310060  0.718810  0.645960  1.0
  H  H17  1  0.118900  0.993900  0.000200  1
  H  H18  1  0.881100  0.006100  0.000200  1
  H  H19  1  0.993900  0.881100  0.999800  1
  H  H20  1  0.006100  0.118900  0.999800  1
  H  H21  1  0.881100  0.993900  0.499800  1
  H  H22  1  0.118900  0.006100  0.499800  1
  H  H23  1  0.006100  0.881100  0.500200  1
  H  H24  1  0.993900  0.118900  0.500200  1
  H  H25  1  0.061000  0.999700  0.026500  1
  H  H26  1  0.939000  0.000300  0.026500  1
  H  H27  1  0.999700  0.939000  0.973500  1
  H  H28  1  0.000300  0.061000  0.973500  1
  H  H29  1  0.939000  0.999700  0.473500  1
  H  H30  1  0.061000  0.000300  0.473500  1
  H  H31  1  0.000300  0.939000  0.526500  1
  H  H32  1  0.999700  0.061000  0.526500  1
  H  H33  1  0.130200  0.971700  0.037800  1
  H  H34  1  0.869800  0.028300  0.037800  1
  H  H35  1  0.971700  0.869800  0.962200  1
  H  H36  1  0.028300  0.130200  0.962200  1
  H  H37  1  0.869800  0.971700  0.462200  1
  H  H38  1  0.130200  0.028300  0.462200  1
  H  H39  1  0.028300  0.869800  0.537800  1
  H  H40  1  0.971700  0.130200  0.537800  1
  H  H41  1  0.460400  0.957800  0.212900  1
  H  H42  1  0.539600  0.042200  0.212900  1
  H  H43  1  0.957800  0.539600  0.787100  1
  H  H44  1  0.042200  0.460400  0.787100  1
  H  H45  1  0.539600  0.957800  0.287100  1
  H  H46  1  0.460400  0.042200  0.287100  1
  H  H47  1  0.042200  0.539600  0.712900  1
  H  H48  1  0.957800  0.460400  0.712900  1
  H  H49  1  0.503100  0.949500  0.179900  1
  H  H50  1  0.496900  0.050500  0.179900  1
  H  H51  1  0.949500  0.496900  0.820100  1
  H  H52  1  0.050500  0.503100  0.820100  1
  H  H53  1  0.496900  0.949500  0.320100  1
  H  H54  1  0.503100  0.050500  0.320100  1
  H  H55  1  0.050500  0.496900  0.679900  1
  H  H56  1  0.949500  0.503100  0.679900  1
  H  H57  1  0.530600  0.924300  0.214800  1
  H  H58  1  0.469400  0.075700  0.214800  1
  H  H59  1  0.924300  0.469400  0.785200  1
  H  H60  1  0.075700  0.530600  0.785200  1
  H  H61  1  0.469400  0.924300  0.285200  1
  H  H62  1  0.530600  0.075700  0.285200  1
  H  H63  1  0.075700  0.469400  0.714800  1
  H  H64  1  0.924300  0.530600  0.714800  1
  H  H65  1  0.046000  0.411800  0.966900  1
  H  H66  1  0.954000  0.588200  0.966900  1
  H  H67  1  0.411800  0.954000  0.033100  1
  H  H68  1  0.588200  0.046000  0.033100  1
  H  H69  1  0.954000  0.411800  0.533100  1
  H  H70  1  0.046000  0.588200  0.533100  1
  H  H71  1  0.588200  0.954000  0.466900  1
  H  H72  1  0.411800  0.046000  0.466900  1
  H  H73  1  0.073500  0.484600  0.965100  1
  H  H74  1  0.926500  0.515400  0.965100  1
  H  H75  1  0.484600  0.926500  0.034900  1
  H  H76  1  0.515400  0.073500  0.034900  1
  H  H77  1  0.926500  0.484600  0.534900  1
  H  H78  1  0.073500  0.515400  0.534900  1
  H  H79  1  0.515400  0.926500  0.465100  1
  H  H80  1  0.484600  0.073500  0.465100  1
  H  H81  1  0.040400  0.458500  0.998500  1
  H  H82  1  0.959600  0.541500  0.998500  1
  H  H83  1  0.458500  0.959600  0.001500  1
  H  H84  1  0.541500  0.040400  0.001500  1
  H  H85  1  0.959600  0.458500  0.501500  1
  H  H86  1  0.040400  0.541500  0.501500  1
  H  H87  1  0.541500  0.959600  0.498500  1
  H  H88  1  0.458500  0.040400  0.498500  1
  H  H89  1  0.995200  0.104200  0.205200  1
  H  H90  1  0.004800  0.895800  0.205200  1
  H  H91  1  0.104200  0.004800  0.794800  1
  H  H92  1  0.895800  0.995200  0.794800  1
  H  H93  1  0.004800  0.104200  0.294800  1
  H  H94  1  0.995200  0.895800  0.294800  1
  H  H95  1  0.895800  0.004800  0.705200  1
  H  H96  1  0.104200  0.995200  0.705200  1
  H  H97  1  0.944700  0.046900  0.213000  1
  H  H98  1  0.055300  0.953100  0.213000  1
  H  H99  1  0.046900  0.055300  0.787000  1
  H  H100  1  0.953100  0.944700  0.787000  1
  H  H101  1  0.055300  0.046900  0.287000  1
  H  H102  1  0.944700  0.953100  0.287000  1
  H  H103  1  0.953100  0.055300  0.713000  1
  H  H104  1  0.046900  0.944700  0.713000  1
  H  H105  1  0.954400  0.104900  0.239100  1
  H  H106  1  0.045600  0.895100  0.239100  1
  H  H107  1  0.104900  0.045600  0.760900  1
  H  H108  1  0.895100  0.954400  0.760900  1
  H  H109  1  0.045600  0.104900  0.260900  1
  H  H110  1  0.954400  0.895100  0.260900  1
  H  H111  1  0.895100  0.045600  0.739100  1
  H  H112  1  0.104900  0.954400  0.739100  1
  H  H113  1  0.752400  0.345400  0.328400  1
  H  H114  1  0.247600  0.654600  0.328400  1
  H  H115  1  0.345400  0.247600  0.671600  1
  H  H116  1  0.654600  0.752400  0.671600  1
  H  H117  1  0.247600  0.345400  0.171600  1
  H  H118  1  0.752400  0.654600  0.171600  1
  H  H119  1  0.654600  0.247600  0.828400  1
  H  H120  1  0.345400  0.752400  0.828400  1
  H  H121  1  0.826800  0.368400  0.327600  1
  H  H122  1  0.173200  0.631600  0.327600  1
  H  H123  1  0.368400  0.173200  0.672400  1
  H  H124  1  0.631600  0.826800  0.672400  1
  H  H125  1  0.173200  0.368400  0.172400  1
  H  H126  1  0.826800  0.631600  0.172400  1
  H  H127  1  0.631600  0.173200  0.827600  1
  H  H128  1  0.368400  0.826800  0.827600  1
  H  H129  1  0.809500  0.292600  0.329900  1
  H  H130  1  0.190500  0.707400  0.329900  1
  H  H131  1  0.292600  0.190500  0.670100  1
  H  H132  1  0.707400  0.809500  0.670100  1
  H  H133  1  0.190500  0.292600  0.170100  1
  H  H134  1  0.809500  0.707400  0.170100  1
  H  H135  1  0.707400  0.190500  0.829900  1
  H  H136  1  0.292600  0.809500  0.829900  1
  H  H137  1  0.853100  0.261600  0.767200  1
  H  H138  1  0.146900  0.738400  0.767200  1
  H  H139  1  0.261600  0.146900  0.232800  1
  H  H140  1  0.738400  0.853100  0.232800  1
  H  H141  1  0.146900  0.261600  0.732800  1
  H  H142  1  0.853100  0.738400  0.732800  1
  H  H143  1  0.738400  0.146900  0.267200  1
  H  H144  1  0.261600  0.853100  0.267200  1
  H  H145  1  0.822700  0.332700  0.762600  1
  H  H146  1  0.177300  0.667300  0.762600  1
  H  H147  1  0.332700  0.177300  0.237400  1
  H  H148  1  0.667300  0.822700  0.237400  1
  H  H149  1  0.177300  0.332700  0.737400  1
  H  H150  1  0.822700  0.667300  0.737400  1
  H  H151  1  0.667300  0.177300  0.262600  1
  H  H152  1  0.332700  0.822700  0.262600  1
  H  H153  1  0.775800  0.271100  0.767000  1
  H  H154  1  0.224200  0.728900  0.767000  1
  H  H155  1  0.271100  0.224200  0.233000  1
  H  H156  1  0.728900  0.775800  0.233000  1
  H  H157  1  0.224200  0.271100  0.733000  1
  H  H158  1  0.775800  0.728900  0.733000  1
  H  H159  1  0.728900  0.224200  0.267000  1
  H  H160  1  0.271100  0.775800  0.267000  1
  H  H161  1  0.087800  0.983000  0.042900  1.0
  H  H162  1  0.912200  0.017000  0.042900  1.0
  H  H163  1  0.983000  0.912200  0.957100  1.0
  H  H164  1  0.017000  0.087800  0.957100  1.0
  H  H165  1  0.912200  0.983000  0.457100  1.0
  H  H166  1  0.087800  0.017000  0.457100  1.0
  H  H167  1  0.017000  0.912200  0.542900  1.0
  H  H168  1  0.983000  0.087800  0.542900  1.0
  H  H169  1  0.145700  0.977200  0.016500  1.0
  H  H170  1  0.854300  0.022800  0.016500  1.0
  H  H171  1  0.977200  0.854300  0.983500  1.0
  H  H172  1  0.022800  0.145700  0.983500  1.0
  H  H173  1  0.854300  0.977200  0.483500  1.0
  H  H174  1  0.145700  0.022800  0.483500  1.0
  H  H175  1  0.022800  0.854300  0.516500  1.0
  H  H176  1  0.977200  0.145700  0.516500  1.0
  H  H177  1  0.076500  0.005200  0.005200  1.0
  H  H178  1  0.923500  0.994800  0.005200  1.0
  H  H179  1  0.005200  0.923500  0.994800  1.0
  H  H180  1  0.994800  0.076500  0.994800  1.0
  H  H181  1  0.923500  0.005200  0.494800  1.0
  H  H182  1  0.076500  0.994800  0.494800  1.0
  H  H183  1  0.994800  0.923500  0.505200  1.0
  H  H184  1  0.005200  0.076500  0.505200  1.0
  H  H185  1  0.164000  0.090300  0.985700  1.0
  H  H186  1  0.836000  0.909700  0.985700  1.0
  H  H187  1  0.090300  0.836000  0.014300  1.0
  H  H188  1  0.909700  0.164000  0.014300  1.0
  H  H189  1  0.836000  0.090300  0.514300  1.0
  H  H190  1  0.164000  0.909700  0.514300  1.0
  H  H191  1  0.909700  0.836000  0.485700  1.0
  H  H192  1  0.090300  0.164000  0.485700  1.0
  H  H193  1  0.206800  0.191600  0.000600  1.0
  H  H194  1  0.793200  0.808400  0.000600  1.0
  H  H195  1  0.191600  0.793200  0.999400  1.0
  H  H196  1  0.808400  0.206800  0.999400  1.0
  H  H197  1  0.793200  0.191600  0.499400  1.0
  H  H198  1  0.206800  0.808400  0.499400  1.0
  H  H199  1  0.808400  0.793200  0.500600  1.0
  H  H200  1  0.191600  0.206800  0.500600  1.0
  H  H201  1  0.144600  0.164600  0.095100  1.0
  H  H202  1  0.855400  0.835400  0.095100  1.0
  H  H203  1  0.164600  0.855400  0.904900  1.0
  H  H204  1  0.835400  0.144600  0.904900  1.0
  H  H205  1  0.855400  0.164600  0.404900  1.0
  H  H206  1  0.144600  0.835400  0.404900  1.0
  H  H207  1  0.835400  0.855400  0.595100  1.0
  H  H208  1  0.164600  0.144600  0.595100  1.0
  H  H209  1  0.101800  0.063200  0.080300  1.0
  H  H210  1  0.898200  0.936800  0.080300  1.0
  H  H211  1  0.063200  0.898200  0.919700  1.0
  H  H212  1  0.936800  0.101800  0.919700  1.0
  H  H213  1  0.898200  0.063200  0.419700  1.0
  H  H214  1  0.101800  0.936800  0.419700  1.0
  H  H215  1  0.936800  0.898200  0.580300  1.0
  H  H216  1  0.063200  0.101800  0.580300  1.0
  H  H217  1  0.131500  0.279600  0.075600  1.0
  H  H218  1  0.868500  0.720400  0.075600  1.0
  H  H219  1  0.279600  0.868500  0.924400  1.0
  H  H220  1  0.720400  0.131500  0.924400  1.0
  H  H221  1  0.868500  0.279600  0.424400  1.0
  H  H222  1  0.131500  0.720400  0.424400  1.0
  H  H223  1  0.720400  0.868500  0.575600  1.0
  H  H224  1  0.279600  0.131500  0.575600  1.0
  H  H225  1  0.351100  0.384200  0.101700  1.0
  H  H226  1  0.648900  0.615800  0.101700  1.0
  H  H227  1  0.384200  0.648900  0.898300  1.0
  H  H228  1  0.615800  0.351100  0.898300  1.0
  H  H229  1  0.648900  0.384200  0.398300  1.0
  H  H230  1  0.351100  0.615800  0.398300  1.0
  H  H231  1  0.615800  0.648900  0.601700  1.0
  H  H232  1  0.384200  0.351100  0.601700  1.0
  H  H233  1  0.181500  0.465800  0.127400  1.0
  H  H234  1  0.818500  0.534200  0.127400  1.0
  H  H235  1  0.465800  0.818500  0.872600  1.0
  H  H236  1  0.534200  0.181500  0.872600  1.0
  H  H237  1  0.818500  0.465800  0.372600  1.0
  H  H238  1  0.181500  0.534200  0.372600  1.0
  H  H239  1  0.534200  0.818500  0.627400  1.0
  H  H240  1  0.465800  0.181500  0.627400  1.0
  H  H241  1  0.129800  0.382100  0.100500  1.0
  H  H242  1  0.870200  0.617900  0.100500  1.0
  H  H243  1  0.382100  0.870200  0.899500  1.0
  H  H244  1  0.617900  0.129800  0.899500  1.0
  H  H245  1  0.870200  0.382100  0.399500  1.0
  H  H246  1  0.129800  0.617900  0.399500  1.0
  H  H247  1  0.617900  0.870200  0.600500  1.0
  H  H248  1  0.382100  0.129800  0.600500  1.0
  H  H249  1  0.252200  0.559900  0.114100  1.0
  H  H250  1  0.747800  0.440100  0.114100  1.0
  H  H251  1  0.559900  0.747800  0.885900  1.0
  H  H252  1  0.440100  0.252200  0.885900  1.0
  H  H253  1  0.747800  0.559900  0.385900  1.0
  H  H254  1  0.252200  0.440100  0.385900  1.0
  H  H255  1  0.440100  0.747800  0.614100  1.0
  H  H256  1  0.559900  0.252200  0.614100  1.0
  H  H257  1  0.427000  0.516100  0.179800  1.0
  H  H258  1  0.573000  0.483900  0.179800  1.0
  H  H259  1  0.516100  0.573000  0.820200  1.0
  H  H260  1  0.483900  0.427000  0.820200  1.0
  H  H261  1  0.573000  0.516100  0.320200  1.0
  H  H262  1  0.427000  0.483900  0.320200  1.0
  H  H263  1  0.483900  0.573000  0.679800  1.0
  H  H264  1  0.516100  0.427000  0.679800  1.0
  H  H265  1  0.364200  0.430400  0.158100  1.0
  H  H266  1  0.635800  0.569600  0.158100  1.0
  H  H267  1  0.430400  0.635800  0.841900  1.0
  H  H268  1  0.569600  0.364200  0.841900  1.0
  H  H269  1  0.635800  0.430400  0.341900  1.0
  H  H270  1  0.364200  0.569600  0.341900  1.0
  H  H271  1  0.569600  0.635800  0.658100  1.0
  H  H272  1  0.430400  0.364200  0.658100  1.0
  H  H273  1  0.433900  0.637800  0.188600  1.0
  H  H274  1  0.566100  0.362200  0.188600  1.0
  H  H275  1  0.637800  0.566100  0.811400  1.0
  H  H276  1  0.362200  0.433900  0.811400  1.0
  H  H277  1  0.566100  0.637800  0.311400  1.0
  H  H278  1  0.433900  0.362200  0.311400  1.0
  H  H279  1  0.362200  0.566100  0.688600  1.0
  H  H280  1  0.637800  0.433900  0.688600  1.0
  H  H281  1  0.324300  0.791000  0.208200  1.0
  H  H282  1  0.675700  0.209000  0.208200  1.0
  H  H283  1  0.791000  0.675700  0.791800  1.0
  H  H284  1  0.209000  0.324300  0.791800  1.0
  H  H285  1  0.675700  0.791000  0.291800  1.0
  H  H286  1  0.324300  0.209000  0.291800  1.0
  H  H287  1  0.209000  0.675700  0.708200  1.0
  H  H288  1  0.791000  0.324300  0.708200  1.0
  H  H289  1  0.377600  0.889100  0.219600  1.0
  H  H290  1  0.622400  0.110900  0.219600  1.0
  H  H291  1  0.889100  0.622400  0.780400  1.0
  H  H292  1  0.110900  0.377600  0.780400  1.0
  H  H293  1  0.622400  0.889100  0.280400  1.0
  H  H294  1  0.377600  0.110900  0.280400  1.0
  H  H295  1  0.110900  0.622400  0.719600  1.0
  H  H296  1  0.889100  0.377600  0.719600  1.0
  H  H297  1  0.535900  0.825600  0.169100  1.0
  H  H298  1  0.464100  0.174400  0.169100  1.0
  H  H299  1  0.825600  0.464100  0.830900  1.0
  H  H300  1  0.174400  0.535900  0.830900  1.0
  H  H301  1  0.464100  0.825600  0.330900  1.0
  H  H302  1  0.535900  0.174400  0.330900  1.0
  H  H303  1  0.174400  0.464100  0.669100  1.0
  H  H304  1  0.825600  0.535900  0.669100  1.0
  H  H305  1  0.482600  0.727500  0.157700  1.0
  H  H306  1  0.517400  0.272500  0.157700  1.0
  H  H307  1  0.727500  0.517400  0.842300  1.0
  H  H308  1  0.272500  0.482600  0.842300  1.0
  H  H309  1  0.517400  0.727500  0.342300  1.0
  H  H310  1  0.482600  0.272500  0.342300  1.0
  H  H311  1  0.272500  0.517400  0.657700  1.0
  H  H312  1  0.727500  0.482600  0.657700  1.0
  H  H313  1  0.535600  0.929900  0.192200  1.0
  H  H314  1  0.464400  0.070100  0.192200  1.0
  H  H315  1  0.929900  0.464400  0.807800  1.0
  H  H316  1  0.070100  0.535600  0.807800  1.0
  H  H317  1  0.464400  0.929900  0.307800  1.0
  H  H318  1  0.535600  0.070100  0.307800  1.0
  H  H319  1  0.070100  0.464400  0.692200  1.0
  H  H320  1  0.929900  0.535600  0.692200  1.0
  H  H321  1  0.492900  0.938200  0.225200  1.0
  H  H322  1  0.507100  0.061800  0.225200  1.0
  H  H323  1  0.938200  0.507100  0.774800  1.0
  H  H324  1  0.061800  0.492900  0.774800  1.0
  H  H325  1  0.507100  0.938200  0.274800  1.0
  H  H326  1  0.492900  0.061800  0.274800  1.0
  H  H327  1  0.061800  0.507100  0.725200  1.0
  H  H328  1  0.938200  0.492900  0.725200  1.0
  H  H329  1  0.465400  0.963400  0.190300  1.0
  H  H330  1  0.534600  0.036600  0.190300  1.0
  H  H331  1  0.963400  0.534600  0.809700  1.0
  H  H332  1  0.036600  0.465400  0.809700  1.0
  H  H333  1  0.534600  0.963400  0.309700  1.0
  H  H334  1  0.465400  0.036600  0.309700  1.0
  H  H335  1  0.036600  0.534600  0.690300  1.0
  H  H336  1  0.963400  0.465400  0.690300  1.0
  H  H337  1  0.060600  0.491500  0.986800  1.0
  H  H338  1  0.939400  0.508500  0.986800  1.0
  H  H339  1  0.491500  0.939400  0.013200  1.0
  H  H340  1  0.508500  0.060600  0.013200  1.0
  H  H341  1  0.939400  0.491500  0.513200  1.0
  H  H342  1  0.060600  0.508500  0.513200  1.0
  H  H343  1  0.508500  0.939400  0.486800  1.0
  H  H344  1  0.491500  0.060600  0.486800  1.0
  H  H345  1  0.033100  0.418700  0.988600  1.0
  H  H346  1  0.966900  0.581300  0.988600  1.0
  H  H347  1  0.418700  0.966900  0.011400  1.0
  H  H348  1  0.581300  0.033100  0.011400  1.0
  H  H349  1  0.966900  0.418700  0.511400  1.0
  H  H350  1  0.033100  0.581300  0.511400  1.0
  H  H351  1  0.581300  0.966900  0.488600  1.0
  H  H352  1  0.418700  0.033100  0.488600  1.0
  H  H353  1  0.066200  0.444700  0.955100  1.0
  H  H354  1  0.933800  0.555300  0.955100  1.0
  H  H355  1  0.444700  0.933800  0.044900  1.0
  H  H356  1  0.555300  0.066200  0.044900  1.0
  H  H357  1  0.933800  0.444700  0.544900  1.0
  H  H358  1  0.066200  0.555300  0.544900  1.0
  H  H359  1  0.555300  0.933800  0.455100  1.0
  H  H360  1  0.444700  0.066200  0.455100  1.0
  H  H361  1  0.115400  0.335500  0.969500  1.0
  H  H362  1  0.884600  0.664500  0.969500  1.0
  H  H363  1  0.335500  0.884600  0.030500  1.0
  H  H364  1  0.664500  0.115400  0.030500  1.0
  H  H365  1  0.884600  0.335500  0.530500  1.0
  H  H366  1  0.115400  0.664500  0.530500  1.0
  H  H367  1  0.664500  0.884600  0.469500  1.0
  H  H368  1  0.335500  0.115400  0.469500  1.0
  H  H369  1  0.214600  0.291600  0.987200  1.0
  H  H370  1  0.785400  0.708400  0.987200  1.0
  H  H371  1  0.291600  0.785400  0.012800  1.0
  H  H372  1  0.708400  0.214600  0.012800  1.0
  H  H373  1  0.785400  0.291600  0.512800  1.0
  H  H374  1  0.214600  0.708400  0.512800  1.0
  H  H375  1  0.708400  0.785400  0.487200  1.0
  H  H376  1  0.291600  0.214600  0.487200  1.0
  H  H377  1  0.258900  0.461800  0.032700  1.0
  H  H378  1  0.741100  0.538200  0.032700  1.0
  H  H379  1  0.461800  0.741100  0.967300  1.0
  H  H380  1  0.538200  0.258900  0.967300  1.0
  H  H381  1  0.741100  0.461800  0.467300  1.0
  H  H382  1  0.258900  0.538200  0.467300  1.0
  H  H383  1  0.538200  0.741100  0.532700  1.0
  H  H384  1  0.461800  0.258900  0.532700  1.0
  H  H385  1  0.159700  0.505700  0.015100  1.0
  H  H386  1  0.840300  0.494300  0.015100  1.0
  H  H387  1  0.505700  0.840300  0.984900  1.0
  H  H388  1  0.494300  0.159700  0.984900  1.0
  H  H389  1  0.840300  0.505700  0.484900  1.0
  H  H390  1  0.159700  0.494300  0.484900  1.0
  H  H391  1  0.494300  0.840300  0.515100  1.0
  H  H392  1  0.505700  0.159700  0.515100  1.0
  H  H393  1  0.354600  0.416400  0.011300  1.0
  H  H394  1  0.645400  0.583600  0.011300  1.0
  H  H395  1  0.416400  0.645400  0.988700  1.0
  H  H396  1  0.583600  0.354600  0.988700  1.0
  H  H397  1  0.645400  0.416400  0.488700  1.0
  H  H398  1  0.354600  0.583600  0.488700  1.0
  H  H399  1  0.583600  0.645400  0.511300  1.0
  H  H400  1  0.416400  0.354600  0.511300  1.0
  H  H401  1  0.439400  0.231800  0.081800  1.0
  H  H402  1  0.560600  0.768200  0.081800  1.0
  H  H403  1  0.231800  0.560600  0.918200  1.0
  H  H404  1  0.768200  0.439400  0.918200  1.0
  H  H405  1  0.560600  0.231800  0.418200  1.0
  H  H406  1  0.439400  0.768200  0.418200  1.0
  H  H407  1  0.768200  0.560600  0.581800  1.0
  H  H408  1  0.231800  0.439400  0.581800  1.0
  H  H409  1  0.562100  0.363900  0.047500  1.0
  H  H410  1  0.437900  0.636100  0.047500  1.0
  H  H411  1  0.363900  0.437900  0.952500  1.0
  H  H412  1  0.636100  0.562100  0.952500  1.0
  H  H413  1  0.437900  0.363900  0.452500  1.0
  H  H414  1  0.562100  0.636100  0.452500  1.0
  H  H415  1  0.636100  0.437900  0.547500  1.0
  H  H416  1  0.363900  0.562100  0.547500  1.0
  H  H417  1  0.469200  0.424700  0.022400  1.0
  H  H418  1  0.530800  0.575300  0.022400  1.0
  H  H419  1  0.424700  0.530800  0.977600  1.0
  H  H420  1  0.575300  0.469200  0.977600  1.0
  H  H421  1  0.530800  0.424700  0.477600  1.0
  H  H422  1  0.469200  0.575300  0.477600  1.0
  H  H423  1  0.575300  0.530800  0.522400  1.0
  H  H424  1  0.424700  0.469200  0.522400  1.0
  H  H425  1  0.608700  0.344000  0.096100  1.0
  H  H426  1  0.391300  0.656000  0.096100  1.0
  H  H427  1  0.344000  0.391300  0.903900  1.0
  H  H428  1  0.656000  0.608700  0.903900  1.0
  H  H429  1  0.391300  0.344000  0.403900  1.0
  H  H430  1  0.608700  0.656000  0.403900  1.0
  H  H431  1  0.656000  0.391300  0.596100  1.0
  H  H432  1  0.344000  0.608700  0.596100  1.0
  H  H433  1  0.616800  0.120300  0.099200  1.0
  H  H434  1  0.383200  0.879700  0.099200  1.0
  H  H435  1  0.120300  0.383200  0.900800  1.0
  H  H436  1  0.879700  0.616800  0.900800  1.0
  H  H437  1  0.383200  0.120300  0.400800  1.0
  H  H438  1  0.616800  0.879700  0.400800  1.0
  H  H439  1  0.879700  0.383200  0.599200  1.0
  H  H440  1  0.120300  0.616800  0.599200  1.0
  H  H441  1  0.532200  0.172200  0.069600  1.0
  H  H442  1  0.467800  0.827800  0.069600  1.0
  H  H443  1  0.172200  0.467800  0.930400  1.0
  H  H444  1  0.827800  0.532200  0.930400  1.0
  H  H445  1  0.467800  0.172200  0.430400  1.0
  H  H446  1  0.532200  0.827800  0.430400  1.0
  H  H447  1  0.827800  0.467800  0.569600  1.0
  H  H448  1  0.172200  0.532200  0.569600  1.0
  H  H449  1  0.719100  0.133900  0.127100  1.0
  H  H450  1  0.280900  0.866100  0.127100  1.0
  H  H451  1  0.133900  0.280900  0.872900  1.0
  H  H452  1  0.866100  0.719100  0.872900  1.0
  H  H453  1  0.280900  0.133900  0.372900  1.0
  H  H454  1  0.719100  0.866100  0.372900  1.0
  H  H455  1  0.866100  0.280900  0.627100  1.0
  H  H456  1  0.133900  0.719100  0.627100  1.0
  H  H457  1  0.866000  0.227700  0.135700  1.0
  H  H458  1  0.134000  0.772300  0.135700  1.0
  H  H459  1  0.227700  0.134000  0.864300  1.0
  H  H460  1  0.772300  0.866000  0.864300  1.0
  H  H461  1  0.134000  0.227700  0.364300  1.0
  H  H462  1  0.866000  0.772300  0.364300  1.0
  H  H463  1  0.772300  0.134000  0.635700  1.0
  H  H464  1  0.227700  0.866000  0.635700  1.0
  H  H465  1  0.953700  0.182500  0.164700  1.0
  H  H466  1  0.046300  0.817500  0.164700  1.0
  H  H467  1  0.182500  0.046300  0.835300  1.0
  H  H468  1  0.817500  0.953700  0.835300  1.0
  H  H469  1  0.046300  0.182500  0.335300  1.0
  H  H470  1  0.953700  0.817500  0.335300  1.0
  H  H471  1  0.817500  0.046300  0.664700  1.0
  H  H472  1  0.182500  0.953700  0.664700  1.0
  H  H473  1  0.828000  0.090600  0.226400  1.0
  H  H474  1  0.172000  0.909400  0.226400  1.0
  H  H475  1  0.090600  0.172000  0.773600  1.0
  H  H476  1  0.909400  0.828000  0.773600  1.0
  H  H477  1  0.172000  0.090600  0.273600  1.0
  H  H478  1  0.828000  0.909400  0.273600  1.0
  H  H479  1  0.909400  0.172000  0.726400  1.0
  H  H480  1  0.090600  0.828000  0.726400  1.0
  H  H481  1  0.740300  0.135800  0.197500  1.0
  H  H482  1  0.259700  0.864200  0.197500  1.0
  H  H483  1  0.135800  0.259700  0.802500  1.0
  H  H484  1  0.864200  0.740300  0.802500  1.0
  H  H485  1  0.259700  0.135800  0.302500  1.0
  H  H486  1  0.740300  0.864200  0.302500  1.0
  H  H487  1  0.864200  0.259700  0.697500  1.0
  H  H488  1  0.135800  0.740300  0.697500  1.0
  H  H489  1  0.934400  0.066500  0.233000  1.0
  H  H490  1  0.065600  0.933500  0.233000  1.0
  H  H491  1  0.066500  0.065600  0.767000  1.0
  H  H492  1  0.933500  0.934400  0.767000  1.0
  H  H493  1  0.065600  0.066500  0.267000  1.0
  H  H494  1  0.934400  0.933500  0.267000  1.0
  H  H495  1  0.933500  0.065600  0.733000  1.0
  H  H496  1  0.066500  0.934400  0.733000  1.0
  H  H497  1  0.984800  0.123800  0.225200  1.0
  H  H498  1  0.015200  0.876200  0.225200  1.0
  H  H499  1  0.123800  0.015200  0.774800  1.0
  H  H500  1  0.876200  0.984800  0.774800  1.0
  H  H501  1  0.015200  0.123800  0.274800  1.0
  H  H502  1  0.984800  0.876200  0.274800  1.0
  H  H503  1  0.876200  0.015200  0.725200  1.0
  H  H504  1  0.123800  0.984800  0.725200  1.0
  H  H505  1  0.975100  0.065800  0.199100  1.0
  H  H506  1  0.024900  0.934200  0.199100  1.0
  H  H507  1  0.065800  0.024900  0.800900  1.0
  H  H508  1  0.934200  0.975100  0.800900  1.0
  H  H509  1  0.024900  0.065800  0.300900  1.0
  H  H510  1  0.975100  0.934200  0.300900  1.0
  H  H511  1  0.934200  0.024900  0.699100  1.0
  H  H512  1  0.065800  0.975100  0.699100  1.0
  H  H513  1  0.840100  0.325500  0.328900  1.0
  H  H514  1  0.159900  0.674500  0.328900  1.0
  H  H515  1  0.325500  0.159900  0.671100  1.0
  H  H516  1  0.674500  0.840100  0.671100  1.0
  H  H517  1  0.159900  0.325500  0.171100  1.0
  H  H518  1  0.840100  0.674500  0.171100  1.0
  H  H519  1  0.674500  0.159900  0.828900  1.0
  H  H520  1  0.325500  0.840100  0.828900  1.0
  H  H521  1  0.765700  0.302600  0.329600  1.0
  H  H522  1  0.234300  0.697400  0.329600  1.0
  H  H523  1  0.302600  0.234300  0.670400  1.0
  H  H524  1  0.697400  0.765700  0.670400  1.0
  H  H525  1  0.234300  0.302600  0.170400  1.0
  H  H526  1  0.765700  0.697400  0.170400  1.0
  H  H527  1  0.697400  0.234300  0.829600  1.0
  H  H528  1  0.302600  0.765700  0.829600  1.0
  H  H529  1  0.782900  0.378400  0.327400  1.0
  H  H530  1  0.217100  0.621600  0.327400  1.0
  H  H531  1  0.378400  0.217100  0.672600  1.0
  H  H532  1  0.621600  0.782900  0.672600  1.0
  H  H533  1  0.217100  0.378400  0.172600  1.0
  H  H534  1  0.782900  0.621600  0.172600  1.0
  H  H535  1  0.621600  0.217100  0.827400  1.0
  H  H536  1  0.378400  0.782900  0.827400  1.0
  H  H537  1  0.700600  0.357100  0.281200  1.0
  H  H538  1  0.299400  0.642900  0.281200  1.0
  H  H539  1  0.357100  0.299400  0.718800  1.0
  H  H540  1  0.642900  0.700600  0.718800  1.0
  H  H541  1  0.299400  0.357100  0.218800  1.0
  H  H542  1  0.700600  0.642900  0.218800  1.0
  H  H543  1  0.642900  0.299400  0.781200  1.0
  H  H544  1  0.357100  0.700600  0.781200  1.0
  H  H545  1  0.692500  0.361200  0.223300  1.0
  H  H546  1  0.307500  0.638800  0.223300  1.0
  H  H547  1  0.361200  0.307500  0.776700  1.0
  H  H548  1  0.638800  0.692500  0.776700  1.0
  H  H549  1  0.307500  0.361200  0.276700  1.0
  H  H550  1  0.692500  0.638800  0.276700  1.0
  H  H551  1  0.638800  0.307500  0.723300  1.0
  H  H552  1  0.361200  0.692500  0.723300  1.0
  H  H553  1  0.881800  0.308400  0.215300  1.0
  H  H554  1  0.118200  0.691600  0.215300  1.0
  H  H555  1  0.308400  0.118200  0.784700  1.0
  H  H556  1  0.691600  0.881800  0.784700  1.0
  H  H557  1  0.118200  0.308400  0.284700  1.0
  H  H558  1  0.881800  0.691600  0.284700  1.0
  H  H559  1  0.691600  0.118200  0.715300  1.0
  H  H560  1  0.308400  0.881800  0.715300  1.0
  H  H561  1  0.890000  0.304300  0.273300  1.0
  H  H562  1  0.110000  0.695700  0.273300  1.0
  H  H563  1  0.304300  0.110000  0.726700  1.0
  H  H564  1  0.695700  0.890000  0.726700  1.0
  H  H565  1  0.110000  0.304300  0.226700  1.0
  H  H566  1  0.890000  0.695700  0.226700  1.0
  H  H567  1  0.695700  0.110000  0.773300  1.0
  H  H568  1  0.304300  0.890000  0.773300  1.0
  H  H569  1  0.872800  0.380800  0.175900  1.0
  H  H570  1  0.127200  0.619200  0.175900  1.0
  H  H571  1  0.380800  0.127200  0.824100  1.0
  H  H572  1  0.619200  0.872800  0.824100  1.0
  H  H573  1  0.127200  0.380800  0.324100  1.0
  H  H574  1  0.872800  0.619200  0.324100  1.0
  H  H575  1  0.619200  0.127200  0.675900  1.0
  H  H576  1  0.380800  0.872800  0.675900  1.0
  H  H577  1  0.760300  0.308900  0.071200  1.0
  H  H578  1  0.239700  0.691100  0.071200  1.0
  H  H579  1  0.308900  0.239700  0.928800  1.0
  H  H580  1  0.691100  0.760300  0.928800  1.0
  H  H581  1  0.239700  0.308900  0.428800  1.0
  H  H582  1  0.760300  0.691100  0.428800  1.0
  H  H583  1  0.691100  0.239700  0.571200  1.0
  H  H584  1  0.308900  0.760300  0.571200  1.0
  H  H585  1  0.923400  0.414700  0.070600  1.0
  H  H586  1  0.076600  0.585300  0.070600  1.0
  H  H587  1  0.414700  0.076600  0.929400  1.0
  H  H588  1  0.585300  0.923400  0.929400  1.0
  H  H589  1  0.076600  0.414700  0.429400  1.0
  H  H590  1  0.923400  0.585300  0.429400  1.0
  H  H591  1  0.585300  0.076600  0.570600  1.0
  H  H592  1  0.414700  0.923400  0.570600  1.0
  H  H593  1  0.918900  0.419000  0.125800  1.0
  H  H594  1  0.081100  0.581000  0.125800  1.0
  H  H595  1  0.419000  0.081100  0.874200  1.0
  H  H596  1  0.581000  0.918900  0.874200  1.0
  H  H597  1  0.081100  0.419000  0.374200  1.0
  H  H598  1  0.918900  0.581000  0.374200  1.0
  H  H599  1  0.581000  0.081100  0.625800  1.0
  H  H600  1  0.419000  0.918900  0.625800  1.0
  H  H601  1  0.757200  0.332500  0.023300  1.0
  H  H602  1  0.242800  0.667500  0.023300  1.0
  H  H603  1  0.332500  0.242800  0.976700  1.0
  H  H604  1  0.667500  0.757200  0.976700  1.0
  H  H605  1  0.242800  0.332500  0.476700  1.0
  H  H606  1  0.757200  0.667500  0.476700  1.0
  H  H607  1  0.667500  0.242800  0.523300  1.0
  H  H608  1  0.332500  0.757200  0.523300  1.0
  H  H609  1  0.954700  0.351300  0.970800  1.0
  H  H610  1  0.045300  0.648700  0.970800  1.0
  H  H611  1  0.351300  0.045300  0.029200  1.0
  H  H612  1  0.648700  0.954700  0.029200  1.0
  H  H613  1  0.045300  0.351300  0.529200  1.0
  H  H614  1  0.954700  0.648700  0.529200  1.0
  H  H615  1  0.648700  0.045300  0.470800  1.0
  H  H616  1  0.351300  0.954700  0.470800  1.0
  H  H617  1  0.948100  0.363100  0.026900  1.0
  H  H618  1  0.051900  0.636900  0.026900  1.0
  H  H619  1  0.363100  0.051900  0.973100  1.0
  H  H620  1  0.636900  0.948100  0.973100  1.0
  H  H621  1  0.051900  0.363100  0.473100  1.0
  H  H622  1  0.948100  0.636900  0.473100  1.0
  H  H623  1  0.636900  0.051900  0.526900  1.0
  H  H624  1  0.363100  0.948100  0.526900  1.0
  H  H625  1  0.901700  0.331400  0.921500  1.0
  H  H626  1  0.098300  0.668600  0.921500  1.0
  H  H627  1  0.331400  0.098300  0.078500  1.0
  H  H628  1  0.668600  0.901700  0.078500  1.0
  H  H629  1  0.098300  0.331400  0.578500  1.0
  H  H630  1  0.901700  0.668600  0.578500  1.0
  H  H631  1  0.668600  0.098300  0.421500  1.0
  H  H632  1  0.331400  0.901700  0.421500  1.0
  H  H633  1  0.728200  0.363000  0.872300  1.0
  H  H634  1  0.271800  0.637000  0.872300  1.0
  H  H635  1  0.363000  0.271800  0.127700  1.0
  H  H636  1  0.637000  0.728200  0.127700  1.0
  H  H637  1  0.271800  0.363000  0.627700  1.0
  H  H638  1  0.728200  0.637000  0.627700  1.0
  H  H639  1  0.637000  0.271800  0.372300  1.0
  H  H640  1  0.363000  0.728200  0.372300  1.0
  H  H641  1  0.734600  0.354100  0.814500  1.0
  H  H642  1  0.265400  0.645900  0.814500  1.0
  H  H643  1  0.354100  0.265400  0.185500  1.0
  H  H644  1  0.645900  0.734600  0.185500  1.0
  H  H645  1  0.265400  0.354100  0.685500  1.0
  H  H646  1  0.734600  0.645900  0.685500  1.0
  H  H647  1  0.645900  0.265400  0.314500  1.0
  H  H648  1  0.354100  0.734600  0.314500  1.0
  H  H649  1  0.900700  0.249300  0.823500  1.0
  H  H650  1  0.099300  0.750700  0.823500  1.0
  H  H651  1  0.249300  0.099300  0.176500  1.0
  H  H652  1  0.750700  0.900700  0.176500  1.0
  H  H653  1  0.099300  0.249300  0.676500  1.0
  H  H654  1  0.900700  0.750700  0.676500  1.0
  H  H655  1  0.750700  0.099300  0.323500  1.0
  H  H656  1  0.249300  0.900700  0.323500  1.0
  H  H657  1  0.894200  0.258200  0.881300  1.0
  H  H658  1  0.105800  0.741800  0.881300  1.0
  H  H659  1  0.258200  0.105800  0.118700  1.0
  H  H660  1  0.741800  0.894200  0.118700  1.0
  H  H661  1  0.105800  0.258200  0.618700  1.0
  H  H662  1  0.894200  0.741800  0.618700  1.0
  H  H663  1  0.741800  0.105800  0.381300  1.0
  H  H664  1  0.258200  0.894200  0.381300  1.0
  H  H665  1  0.781300  0.315400  0.764000  1.0
  H  H666  1  0.218700  0.684600  0.764000  1.0
  H  H667  1  0.315400  0.218700  0.236000  1.0
  H  H668  1  0.684600  0.781300  0.236000  1.0
  H  H669  1  0.218700  0.315400  0.736000  1.0
  H  H670  1  0.781300  0.684600  0.736000  1.0
  H  H671  1  0.684600  0.218700  0.264000  1.0
  H  H672  1  0.315400  0.781300  0.264000  1.0
  H  H673  1  0.811700  0.244300  0.768600  1.0
  H  H674  1  0.188300  0.755700  0.768600  1.0
  H  H675  1  0.244300  0.188300  0.231400  1.0
  H  H676  1  0.755700  0.811700  0.231400  1.0
  H  H677  1  0.188300  0.244300  0.731400  1.0
  H  H678  1  0.811700  0.755700  0.731400  1.0
  H  H679  1  0.755700  0.188300  0.268600  1.0
  H  H680  1  0.244300  0.811700  0.268600  1.0
  H  H681  1  0.858600  0.305800  0.764200  1.0
  H  H682  1  0.141400  0.694200  0.764200  1.0
  H  H683  1  0.305800  0.141400  0.235800  1.0
  H  H684  1  0.694200  0.858600  0.235800  1.0
  H  H685  1  0.141400  0.305800  0.735800  1.0
  H  H686  1  0.858600  0.694200  0.735800  1.0
  H  H687  1  0.694200  0.141400  0.264200  1.0
  H  H688  1  0.305800  0.858600  0.264200  1.0
  C  C689  1  0.108100  0.003200  0.023400  1.0
  C  C690  1  0.891900  0.996800  0.023400  1.0
  C  C691  1  0.003200  0.891900  0.976600  1.0
  C  C692  1  0.996800  0.108100  0.976600  1.0
  C  C693  1  0.891900  0.003200  0.476600  1.0
  C  C694  1  0.108100  0.996800  0.476600  1.0
  C  C695  1  0.996800  0.891900  0.523400  1.0
  C  C696  1  0.003200  0.108100  0.523400  1.0
  C  C697  1  0.128900  0.067200  0.031600  1.0
  C  C698  1  0.871100  0.932800  0.031600  1.0
  C  C699  1  0.067200  0.871100  0.968400  1.0
  C  C700  1  0.932800  0.128900  0.968400  1.0
  C  C701  1  0.871100  0.067200  0.468400  1.0
  C  C702  1  0.128900  0.932800  0.468400  1.0
  C  C703  1  0.932800  0.871100  0.531600  1.0
  C  C704  1  0.067200  0.128900  0.531600  1.0
  C  C705  1  0.160000  0.105400  0.007950  1.0
  C  C706  1  0.840000  0.894600  0.007950  1.0
  C  C707  1  0.105400  0.840000  0.992050  1.0
  C  C708  1  0.894600  0.160000  0.992050  1.0
  C  C709  1  0.840000  0.105400  0.492050  1.0
  C  C710  1  0.160000  0.894600  0.492050  1.0
  C  C711  1  0.894600  0.840000  0.507950  1.0
  C  C712  1  0.105400  0.160000  0.507950  1.0
  C  C713  1  0.185500  0.165600  0.016800  1.0
  C  C714  1  0.814500  0.834400  0.016800  1.0
  C  C715  1  0.165600  0.814500  0.983200  1.0
  C  C716  1  0.834400  0.185500  0.983200  1.0
  C  C717  1  0.814500  0.165600  0.483200  1.0
  C  C718  1  0.185500  0.834400  0.483200  1.0
  C  C719  1  0.834400  0.814500  0.516800  1.0
  C  C720  1  0.165600  0.185500  0.516800  1.0
  C  C721  1  0.179700  0.187700  0.049300  1.0
  C  C722  1  0.820300  0.812300  0.049300  1.0
  C  C723  1  0.187700  0.820300  0.950700  1.0
  C  C724  1  0.812300  0.179700  0.950700  1.0
  C  C725  1  0.820300  0.187700  0.450700  1.0
  C  C726  1  0.179700  0.812300  0.450700  1.0
  C  C727  1  0.812300  0.820300  0.549300  1.0
  C  C728  1  0.187700  0.179700  0.549300  1.0
  C  C729  1  0.148600  0.149500  0.072900  1.0
  C  C730  1  0.851400  0.850500  0.072900  1.0
  C  C731  1  0.149500  0.851400  0.927100  1.0
  C  C732  1  0.850500  0.148600  0.927100  1.0
  C  C733  1  0.851400  0.149500  0.427100  1.0
  C  C734  1  0.148600  0.850500  0.427100  1.0
  C  C735  1  0.850500  0.851400  0.572900  1.0
  C  C736  1  0.149500  0.148600  0.572900  1.0
  C  C737  1  0.123100  0.089300  0.064100  1.0
  C  C738  1  0.876900  0.910700  0.064100  1.0
  C  C739  1  0.089300  0.876900  0.935900  1.0
  C  C740  1  0.910700  0.123100  0.935900  1.0
  C  C741  1  0.876900  0.089300  0.435900  1.0
  C  C742  1  0.123100  0.910700  0.435900  1.0
  C  C743  1  0.910700  0.876900  0.564100  1.0
  C  C744  1  0.089300  0.123100  0.564100  1.0
  C  C745  1  0.177200  0.285000  0.073600  1.0
  C  C746  1  0.822800  0.715000  0.073600  1.0
  C  C747  1  0.285000  0.822800  0.926400  1.0
  C  C748  1  0.715000  0.177200  0.926400  1.0
  C  C749  1  0.822800  0.285000  0.426400  1.0
  C  C750  1  0.177200  0.715000  0.426400  1.0
  C  C751  1  0.715000  0.822800  0.573600  1.0
  C  C752  1  0.285000  0.177200  0.573600  1.0
  C  C753  1  0.206300  0.333800  0.089400  1.0
  C  C754  1  0.793700  0.666200  0.089400  1.0
  C  C755  1  0.333800  0.793700  0.910600  1.0
  C  C756  1  0.666200  0.206300  0.910600  1.0
  C  C757  1  0.793700  0.333800  0.410600  1.0
  C  C758  1  0.206300  0.666200  0.410600  1.0
  C  C759  1  0.666200  0.793700  0.589400  1.0
  C  C760  1  0.333800  0.206300  0.589400  1.0
  C  C761  1  0.304900  0.384600  0.101600  1.0
  C  C762  1  0.695100  0.615400  0.101600  1.0
  C  C763  1  0.384600  0.695100  0.898400  1.0
  C  C764  1  0.615400  0.304900  0.898400  1.0
  C  C765  1  0.695100  0.384600  0.398400  1.0
  C  C766  1  0.304900  0.615400  0.398400  1.0
  C  C767  1  0.615400  0.695100  0.601600  1.0
  C  C768  1  0.384600  0.304900  0.601600  1.0
  C  C769  1  0.274300  0.435800  0.115400  1.0
  C  C770  1  0.725700  0.564200  0.115400  1.0
  C  C771  1  0.435800  0.725700  0.884600  1.0
  C  C772  1  0.564200  0.274300  0.884600  1.0
  C  C773  1  0.725700  0.435800  0.384600  1.0
  C  C774  1  0.274300  0.564200  0.384600  1.0
  C  C775  1  0.564200  0.725700  0.615400  1.0
  C  C776  1  0.435800  0.274300  0.615400  1.0
  C  C777  1  0.206000  0.432900  0.116600  1.0
  C  C778  1  0.794000  0.567100  0.116600  1.0
  C  C779  1  0.432900  0.794000  0.883400  1.0
  C  C780  1  0.567100  0.206000  0.883400  1.0
  C  C781  1  0.794000  0.432900  0.383400  1.0
  C  C782  1  0.206000  0.567100  0.383400  1.0
  C  C783  1  0.567100  0.794000  0.616600  1.0
  C  C784  1  0.432900  0.206000  0.616600  1.0
  C  C785  1  0.175900  0.381900  0.101700  1.0
  C  C786  1  0.824100  0.618100  0.101700  1.0
  C  C787  1  0.381900  0.824100  0.898300  1.0
  C  C788  1  0.618100  0.175900  0.898300  1.0
  C  C789  1  0.824100  0.381900  0.398300  1.0
  C  C790  1  0.175900  0.618100  0.398300  1.0
  C  C791  1  0.618100  0.824100  0.601700  1.0
  C  C792  1  0.381900  0.175900  0.601700  1.0
  C  C793  1  0.307700  0.484600  0.131600  1.0
  C  C794  1  0.692300  0.515400  0.131600  1.0
  C  C795  1  0.484600  0.692300  0.868400  1.0
  C  C796  1  0.515400  0.307700  0.868400  1.0
  C  C797  1  0.692300  0.484600  0.368400  1.0
  C  C798  1  0.307700  0.515400  0.368400  1.0
  C  C799  1  0.515400  0.692300  0.631600  1.0
  C  C800  1  0.484600  0.307700  0.631600  1.0
  C  C801  1  0.287600  0.549900  0.128400  1.0
  C  C802  1  0.712400  0.450100  0.128400  1.0
  C  C803  1  0.549900  0.712400  0.871600  1.0
  C  C804  1  0.450100  0.287600  0.871600  1.0
  C  C805  1  0.712400  0.549900  0.371600  1.0
  C  C806  1  0.287600  0.450100  0.371600  1.0
  C  C807  1  0.450100  0.712400  0.628400  1.0
  C  C808  1  0.549900  0.287600  0.628400  1.0
  C  C809  1  0.365500  0.583500  0.162400  1.0
  C  C810  1  0.634500  0.416500  0.162400  1.0
  C  C811  1  0.583500  0.634500  0.837600  1.0
  C  C812  1  0.416500  0.365500  0.837600  1.0
  C  C813  1  0.634500  0.583500  0.337600  1.0
  C  C814  1  0.365500  0.416500  0.337600  1.0
  C  C815  1  0.416500  0.634500  0.662400  1.0
  C  C816  1  0.583500  0.365500  0.662400  1.0
  C  C817  1  0.388800  0.523900  0.167200  1.0
  C  C818  1  0.611200  0.476100  0.167200  1.0
  C  C819  1  0.523900  0.611200  0.832800  1.0
  C  C820  1  0.476100  0.388800  0.832800  1.0
  C  C821  1  0.611200  0.523900  0.332800  1.0
  C  C822  1  0.388800  0.476100  0.332800  1.0
  C  C823  1  0.476100  0.611200  0.667200  1.0
  C  C824  1  0.523900  0.388800  0.667200  1.0
  C  C825  1  0.353800  0.474000  0.152500  1.0
  C  C826  1  0.646200  0.526000  0.152500  1.0
  C  C827  1  0.474000  0.646200  0.847500  1.0
  C  C828  1  0.526000  0.353800  0.847500  1.0
  C  C829  1  0.646200  0.474000  0.347500  1.0
  C  C830  1  0.353800  0.526000  0.347500  1.0
  C  C831  1  0.526000  0.646200  0.652500  1.0
  C  C832  1  0.474000  0.353800  0.652500  1.0
  C  C833  1  0.393200  0.640300  0.177500  1.0
  C  C834  1  0.606800  0.359700  0.177500  1.0
  C  C835  1  0.640300  0.606800  0.822500  1.0
  C  C836  1  0.359700  0.393200  0.822500  1.0
  C  C837  1  0.606800  0.640300  0.322500  1.0
  C  C838  1  0.393200  0.359700  0.322500  1.0
  C  C839  1  0.359700  0.606800  0.677500  1.0
  C  C840  1  0.640300  0.393200  0.677500  1.0
  C  C841  1  0.398400  0.750000  0.181900  1.0
  C  C842  1  0.601600  0.250000  0.181900  1.0
  C  C843  1  0.750000  0.601600  0.818100  1.0
  C  C844  1  0.250000  0.398400  0.818100  1.0
  C  C845  1  0.601600  0.750000  0.318100  1.0
  C  C846  1  0.398400  0.250000  0.318100  1.0
  C  C847  1  0.250000  0.601600  0.681900  1.0
  C  C848  1  0.750000  0.398400  0.681900  1.0
  C  C849  1  0.367300  0.798000  0.200300  1.0
  C  C850  1  0.632700  0.202000  0.200300  1.0
  C  C851  1  0.798000  0.632700  0.799700  1.0
  C  C852  1  0.202000  0.367300  0.799700  1.0
  C  C853  1  0.632700  0.798000  0.299700  1.0
  C  C854  1  0.367300  0.202000  0.299700  1.0
  C  C855  1  0.202000  0.632700  0.700300  1.0
  C  C856  1  0.798000  0.367300  0.700300  1.0
  C  C857  1  0.398900  0.856300  0.207100  1.0
  C  C858  1  0.601100  0.143700  0.207100  1.0
  C  C859  1  0.856300  0.601100  0.792900  1.0
  C  C860  1  0.143700  0.398900  0.792900  1.0
  C  C861  1  0.601100  0.856300  0.292900  1.0
  C  C862  1  0.398900  0.143700  0.292900  1.0
  C  C863  1  0.143700  0.601100  0.707100  1.0
  C  C864  1  0.856300  0.398900  0.707100  1.0
  C  C865  1  0.461800  0.866600  0.195400  1.0
  C  C866  1  0.538200  0.133400  0.195400  1.0
  C  C867  1  0.866600  0.538200  0.804600  1.0
  C  C868  1  0.133400  0.461800  0.804600  1.0
  C  C869  1  0.538200  0.866600  0.304600  1.0
  C  C870  1  0.461800  0.133400  0.304600  1.0
  C  C871  1  0.133400  0.538200  0.695400  1.0
  C  C872  1  0.866600  0.461800  0.695400  1.0
  C  C873  1  0.493000  0.818600  0.177000  1.0
  C  C874  1  0.507000  0.181400  0.177000  1.0
  C  C875  1  0.818600  0.507000  0.823000  1.0
  C  C876  1  0.181400  0.493000  0.823000  1.0
  C  C877  1  0.507000  0.818600  0.323000  1.0
  C  C878  1  0.493000  0.181400  0.323000  1.0
  C  C879  1  0.181400  0.507000  0.677000  1.0
  C  C880  1  0.818600  0.493000  0.677000  1.0
  C  C881  1  0.461300  0.760300  0.170300  1.0
  C  C882  1  0.538700  0.239700  0.170300  1.0
  C  C883  1  0.760300  0.538700  0.829700  1.0
  C  C884  1  0.239700  0.461300  0.829700  1.0
  C  C885  1  0.538700  0.760300  0.329700  1.0
  C  C886  1  0.461300  0.239700  0.329700  1.0
  C  C887  1  0.239700  0.538700  0.670300  1.0
  C  C888  1  0.760300  0.461300  0.670300  1.0
  C  C889  1  0.491300  0.929700  0.201300  1.0
  C  C890  1  0.508700  0.070300  0.201300  1.0
  C  C891  1  0.929700  0.508700  0.798700  1.0
  C  C892  1  0.070300  0.491300  0.798700  1.0
  C  C893  1  0.508700  0.929700  0.298700  1.0
  C  C894  1  0.491300  0.070300  0.298700  1.0
  C  C895  1  0.070300  0.508700  0.701300  1.0
  C  C896  1  0.929700  0.491300  0.701300  1.0
  C  C897  1  0.067500  0.446600  0.979400  1.0
  C  C898  1  0.932500  0.553400  0.979400  1.0
  C  C899  1  0.446600  0.932500  0.020600  1.0
  C  C900  1  0.553400  0.067500  0.020600  1.0
  C  C901  1  0.932500  0.446600  0.520600  1.0
  C  C902  1  0.067500  0.553400  0.520600  1.0
  C  C903  1  0.553400  0.932500  0.479400  1.0
  C  C904  1  0.446600  0.067500  0.479400  1.0
  C  C905  1  0.128200  0.424700  0.990700  1.0
  C  C906  1  0.871800  0.575300  0.990700  1.0
  C  C907  1  0.424700  0.871800  0.009300  1.0
  C  C908  1  0.575300  0.128200  0.009300  1.0
  C  C909  1  0.871800  0.424700  0.509300  1.0
  C  C910  1  0.128200  0.575300  0.509300  1.0
  C  C911  1  0.575300  0.871800  0.490700  1.0
  C  C912  1  0.424700  0.128200  0.490700  1.0
  C  C913  1  0.144500  0.361100  0.982400  1.0
  C  C914  1  0.855500  0.638900  0.982400  1.0
  C  C915  1  0.361100  0.855500  0.017600  1.0
  C  C916  1  0.638900  0.144500  0.017600  1.0
  C  C917  1  0.855500  0.361100  0.517600  1.0
  C  C918  1  0.144500  0.638900  0.517600  1.0
  C  C919  1  0.638900  0.855500  0.482400  1.0
  C  C920  1  0.361100  0.144500  0.482400  1.0
  C  C921  1  0.203400  0.335100  0.992800  1.0
  C  C922  1  0.796600  0.664900  0.992800  1.0
  C  C923  1  0.335100  0.796600  0.007200  1.0
  C  C924  1  0.664900  0.203400  0.007200  1.0
  C  C925  1  0.796600  0.335100  0.507200  1.0
  C  C926  1  0.203400  0.664900  0.507200  1.0
  C  C927  1  0.664900  0.796600  0.492800  1.0
  C  C928  1  0.335100  0.203400  0.492800  1.0
  C  C929  1  0.246000  0.372600  0.011600  1.0
  C  C930  1  0.754000  0.627400  0.011600  1.0
  C  C931  1  0.372600  0.754000  0.988400  1.0
  C  C932  1  0.627400  0.246000  0.988400  1.0
  C  C933  1  0.754000  0.372600  0.488400  1.0
  C  C934  1  0.246000  0.627400  0.488400  1.0
  C  C935  1  0.627400  0.754000  0.511600  1.0
  C  C936  1  0.372600  0.246000  0.511600  1.0
  C  C937  1  0.229700  0.436100  0.019900  1.0
  C  C938  1  0.770300  0.563900  0.019900  1.0
  C  C939  1  0.436100  0.770300  0.980100  1.0
  C  C940  1  0.563900  0.229700  0.980100  1.0
  C  C941  1  0.770300  0.436100  0.480100  1.0
  C  C942  1  0.229700  0.563900  0.480100  1.0
  C  C943  1  0.563900  0.770300  0.519900  1.0
  C  C944  1  0.436100  0.229700  0.519900  1.0
  C  C945  1  0.170800  0.462200  0.009400  1.0
  C  C946  1  0.829200  0.537800  0.009400  1.0
  C  C947  1  0.462200  0.829200  0.990600  1.0
  C  C948  1  0.537800  0.170800  0.990600  1.0
  C  C949  1  0.829200  0.462200  0.490600  1.0
  C  C950  1  0.170800  0.537800  0.490600  1.0
  C  C951  1  0.537800  0.829200  0.509400  1.0
  C  C952  1  0.462200  0.170800  0.509400  1.0
  C  C953  1  0.352900  0.375500  0.022300  1.0
  C  C954  1  0.647100  0.624500  0.022300  1.0
  C  C955  1  0.375500  0.647100  0.977700  1.0
  C  C956  1  0.624500  0.352900  0.977700  1.0
  C  C957  1  0.647100  0.375500  0.477700  1.0
  C  C958  1  0.352900  0.624500  0.477700  1.0
  C  C959  1  0.624500  0.647100  0.522300  1.0
  C  C960  1  0.375500  0.352900  0.522300  1.0
  C  C961  1  0.407900  0.352800  0.036000  1.0
  C  C962  1  0.592100  0.647200  0.036000  1.0
  C  C963  1  0.352800  0.592100  0.964000  1.0
  C  C964  1  0.647200  0.407900  0.964000  1.0
  C  C965  1  0.592100  0.352800  0.464000  1.0
  C  C966  1  0.407900  0.647200  0.464000  1.0
  C  C967  1  0.647200  0.592100  0.536000  1.0
  C  C968  1  0.352800  0.407900  0.536000  1.0
  C  C969  1  0.446300  0.269500  0.068700  1.0
  C  C970  1  0.553700  0.730500  0.068700  1.0
  C  C971  1  0.269500  0.553700  0.931300  1.0
  C  C972  1  0.730500  0.446300  0.931300  1.0
  C  C973  1  0.553700  0.269500  0.431300  1.0
  C  C974  1  0.446300  0.730500  0.431300  1.0
  C  C975  1  0.730500  0.553700  0.568700  1.0
  C  C976  1  0.269500  0.446300  0.568700  1.0
  C  C977  1  0.510000  0.297500  0.064600  1.0
  C  C978  1  0.490000  0.702500  0.064600  1.0
  C  C979  1  0.297500  0.490000  0.935400  1.0
  C  C980  1  0.702500  0.510000  0.935400  1.0
  C  C981  1  0.490000  0.297500  0.435400  1.0
  C  C982  1  0.510000  0.702500  0.435400  1.0
  C  C983  1  0.702500  0.490000  0.564600  1.0
  C  C984  1  0.297500  0.510000  0.564600  1.0
  C  C985  1  0.519000  0.347400  0.049400  1.0
  C  C986  1  0.481000  0.652600  0.049400  1.0
  C  C987  1  0.347400  0.481000  0.950600  1.0
  C  C988  1  0.652600  0.519000  0.950600  1.0
  C  C989  1  0.481000  0.347400  0.450600  1.0
  C  C990  1  0.519000  0.652600  0.450600  1.0
  C  C991  1  0.652600  0.481000  0.549400  1.0
  C  C992  1  0.347400  0.519000  0.549400  1.0
  C  C993  1  0.464200  0.384000  0.033300  1.0
  C  C994  1  0.535800  0.616000  0.033300  1.0
  C  C995  1  0.384000  0.535800  0.966700  1.0
  C  C996  1  0.616000  0.464200  0.966700  1.0
  C  C997  1  0.535800  0.384000  0.466700  1.0
  C  C998  1  0.464200  0.616000  0.466700  1.0
  C  C999  1  0.616000  0.535800  0.533300  1.0
  C  C1000  1  0.384000  0.464200  0.533300  1.0
  C  C1001  1  0.563600  0.263000  0.081800  1.0
  C  C1002  1  0.436400  0.737000  0.081800  1.0
  C  C1003  1  0.263000  0.436400  0.918200  1.0
  C  C1004  1  0.737000  0.563600  0.918200  1.0
  C  C1005  1  0.436400  0.263000  0.418200  1.0
  C  C1006  1  0.563600  0.737000  0.418200  1.0
  C  C1007  1  0.737000  0.436400  0.581800  1.0
  C  C1008  1  0.263000  0.563600  0.581800  1.0
  C  C1009  1  0.611000  0.297800  0.096900  1.0
  C  C1010  1  0.389000  0.702200  0.096900  1.0
  C  C1011  1  0.297800  0.389000  0.903100  1.0
  C  C1012  1  0.702200  0.611000  0.903100  1.0
  C  C1013  1  0.389000  0.297800  0.403100  1.0
  C  C1014  1  0.611000  0.702200  0.403100  1.0
  C  C1015  1  0.702200  0.389000  0.596900  1.0
  C  C1016  1  0.297800  0.611000  0.596900  1.0
  C  C1017  1  0.661700  0.207700  0.112300  1.0
  C  C1018  1  0.338300  0.792300  0.112300  1.0
  C  C1019  1  0.207700  0.338300  0.887700  1.0
  C  C1020  1  0.792300  0.661700  0.887700  1.0
  C  C1021  1  0.338300  0.207700  0.387700  1.0
  C  C1022  1  0.661700  0.792300  0.387700  1.0
  C  C1023  1  0.792300  0.338300  0.612300  1.0
  C  C1024  1  0.207700  0.661700  0.612300  1.0
  C  C1025  1  0.614200  0.166300  0.097600  1.0
  C  C1026  1  0.385800  0.833700  0.097600  1.0
  C  C1027  1  0.166300  0.385800  0.902400  1.0
  C  C1028  1  0.833700  0.614200  0.902400  1.0
  C  C1029  1  0.385800  0.166300  0.402400  1.0
  C  C1030  1  0.614200  0.833700  0.402400  1.0
  C  C1031  1  0.833700  0.385800  0.597600  1.0
  C  C1032  1  0.166300  0.614200  0.597600  1.0
  C  C1033  1  0.564600  0.196400  0.081100  1.0
  C  C1034  1  0.435400  0.803600  0.081100  1.0
  C  C1035  1  0.196400  0.435400  0.918900  1.0
  C  C1036  1  0.803600  0.564600  0.918900  1.0
  C  C1037  1  0.435400  0.196400  0.418900  1.0
  C  C1038  1  0.564600  0.803600  0.418900  1.0
  C  C1039  1  0.803600  0.435400  0.581100  1.0
  C  C1040  1  0.196400  0.564600  0.581100  1.0
  C  C1041  1  0.710700  0.179200  0.128800  1.0
  C  C1042  1  0.289300  0.820800  0.128800  1.0
  C  C1043  1  0.179200  0.289300  0.871200  1.0
  C  C1044  1  0.820800  0.710700  0.871200  1.0
  C  C1045  1  0.289300  0.179200  0.371200  1.0
  C  C1046  1  0.710700  0.820800  0.371200  1.0
  C  C1047  1  0.820800  0.289300  0.628800  1.0
  C  C1048  1  0.179200  0.710700  0.628800  1.0
  C  C1049  1  0.794900  0.186000  0.163800  1.0
  C  C1050  1  0.205100  0.814000  0.163800  1.0
  C  C1051  1  0.186000  0.205100  0.836200  1.0
  C  C1052  1  0.814000  0.794900  0.836200  1.0
  C  C1053  1  0.205100  0.186000  0.336200  1.0
  C  C1054  1  0.794900  0.814000  0.336200  1.0
  C  C1055  1  0.814000  0.205100  0.663800  1.0
  C  C1056  1  0.186000  0.794900  0.663800  1.0
  C  C1057  1  0.858300  0.199800  0.154100  1.0
  C  C1058  1  0.141700  0.800200  0.154100  1.0
  C  C1059  1  0.199800  0.141700  0.845900  1.0
  C  C1060  1  0.800200  0.858300  0.845900  1.0
  C  C1061  1  0.141700  0.199800  0.345900  1.0
  C  C1062  1  0.858300  0.800200  0.345900  1.0
  C  C1063  1  0.800200  0.141700  0.654100  1.0
  C  C1064  1  0.199800  0.858300  0.654100  1.0
  C  C1065  1  0.910400  0.173000  0.171300  1.0
  C  C1066  1  0.089600  0.827000  0.171300  1.0
  C  C1067  1  0.173000  0.089600  0.828700  1.0
  C  C1068  1  0.827000  0.910400  0.828700  1.0
  C  C1069  1  0.089600  0.173000  0.328700  1.0
  C  C1070  1  0.910400  0.827000  0.328700  1.0
  C  C1071  1  0.827000  0.089600  0.671300  1.0
  C  C1072  1  0.173000  0.910400  0.671300  1.0
  C  C1073  1  0.899100  0.132300  0.198300  1.0
  C  C1074  1  0.100900  0.867700  0.198300  1.0
  C  C1075  1  0.132300  0.100900  0.801700  1.0
  C  C1076  1  0.867700  0.899100  0.801700  1.0
  C  C1077  1  0.100900  0.132300  0.301700  1.0
  C  C1078  1  0.899100  0.867700  0.301700  1.0
  C  C1079  1  0.867700  0.100900  0.698300  1.0
  C  C1080  1  0.132300  0.899100  0.698300  1.0
  C  C1081  1  0.835700  0.118400  0.208000  1.0
  C  C1082  1  0.164300  0.881600  0.208000  1.0
  C  C1083  1  0.118400  0.164300  0.792000  1.0
  C  C1084  1  0.881600  0.835700  0.792000  1.0
  C  C1085  1  0.164300  0.118400  0.292000  1.0
  C  C1086  1  0.835700  0.881600  0.292000  1.0
  C  C1087  1  0.881600  0.164300  0.708000  1.0
  C  C1088  1  0.118400  0.835700  0.708000  1.0
  C  C1089  1  0.783600  0.145300  0.190800  1.0
  C  C1090  1  0.216400  0.854700  0.190800  1.0
  C  C1091  1  0.145300  0.216400  0.809200  1.0
  C  C1092  1  0.854700  0.783600  0.809200  1.0
  C  C1093  1  0.216400  0.145300  0.309200  1.0
  C  C1094  1  0.783600  0.854700  0.309200  1.0
  C  C1095  1  0.854700  0.216400  0.690800  1.0
  C  C1096  1  0.145300  0.783600  0.690800  1.0
  C  C1097  1  0.953200  0.093600  0.215500  1.0
  C  C1098  1  0.046800  0.906400  0.215500  1.0
  C  C1099  1  0.093600  0.046800  0.784500  1.0
  C  C1100  1  0.906400  0.953200  0.784500  1.0
  C  C1101  1  0.046800  0.093600  0.284500  1.0
  C  C1102  1  0.953200  0.906400  0.284500  1.0
  C  C1103  1  0.906400  0.046800  0.715500  1.0
  C  C1104  1  0.093600  0.953200  0.715500  1.0
  C  C1105  1  0.796200  0.334600  0.320500  1.0
  C  C1106  1  0.203800  0.665400  0.320500  1.0
  C  C1107  1  0.334600  0.203800  0.679500  1.0
  C  C1108  1  0.665400  0.796200  0.679500  1.0
  C  C1109  1  0.203800  0.334600  0.179500  1.0
  C  C1110  1  0.796200  0.665400  0.179500  1.0
  C  C1111  1  0.665400  0.203800  0.820500  1.0
  C  C1112  1  0.334600  0.796200  0.820500  1.0
  C  C1113  1  0.796100  0.330300  0.282700  1.0
  C  C1114  1  0.203900  0.669700  0.282700  1.0
  C  C1115  1  0.330300  0.203900  0.717300  1.0
  C  C1116  1  0.669700  0.796100  0.717300  1.0
  C  C1117  1  0.203900  0.330300  0.217300  1.0
  C  C1118  1  0.796100  0.669700  0.217300  1.0
  C  C1119  1  0.669700  0.203900  0.782700  1.0
  C  C1120  1  0.330300  0.796100  0.782700  1.0
  C  C1121  1  0.737400  0.347200  0.267800  1.0
  C  C1122  1  0.262600  0.652800  0.267800  1.0
  C  C1123  1  0.347200  0.262600  0.732200  1.0
  C  C1124  1  0.652800  0.737400  0.732200  1.0
  C  C1125  1  0.262600  0.347200  0.232200  1.0
  C  C1126  1  0.737400  0.652800  0.232200  1.0
  C  C1127  1  0.652800  0.262600  0.767800  1.0
  C  C1128  1  0.347200  0.737400  0.767800  1.0
  C  C1129  1  0.732600  0.349600  0.233400  1.0
  C  C1130  1  0.267400  0.650400  0.233400  1.0
  C  C1131  1  0.349600  0.267400  0.766600  1.0
  C  C1132  1  0.650400  0.732600  0.766600  1.0
  C  C1133  1  0.267400  0.349600  0.266600  1.0
  C  C1134  1  0.732600  0.650400  0.266600  1.0
  C  C1135  1  0.650400  0.267400  0.733400  1.0
  C  C1136  1  0.349600  0.732600  0.733400  1.0
  C  C1137  1  0.786400  0.335100  0.213900  1.0
  C  C1138  1  0.213600  0.664900  0.213900  1.0
  C  C1139  1  0.335100  0.213600  0.786100  1.0
  C  C1140  1  0.664900  0.786400  0.786100  1.0
  C  C1141  1  0.213600  0.335100  0.286100  1.0
  C  C1142  1  0.786400  0.664900  0.286100  1.0
  C  C1143  1  0.664900  0.213600  0.713900  1.0
  C  C1144  1  0.335100  0.786400  0.713900  1.0
  C  C1145  1  0.845100  0.318300  0.228700  1.0
  C  C1146  1  0.154900  0.681700  0.228700  1.0
  C  C1147  1  0.318300  0.154900  0.771300  1.0
  C  C1148  1  0.681700  0.845100  0.771300  1.0
  C  C1149  1  0.154900  0.318300  0.271300  1.0
  C  C1150  1  0.845100  0.681700  0.271300  1.0
  C  C1151  1  0.681700  0.154900  0.728700  1.0
  C  C1152  1  0.318300  0.845100  0.728700  1.0
  C  C1153  1  0.849900  0.315800  0.263100  1.0
  C  C1154  1  0.150100  0.684200  0.263100  1.0
  C  C1155  1  0.315800  0.150100  0.736900  1.0
  C  C1156  1  0.684200  0.849900  0.736900  1.0
  C  C1157  1  0.150100  0.315800  0.236900  1.0
  C  C1158  1  0.849900  0.684200  0.236900  1.0
  C  C1159  1  0.684200  0.150100  0.763100  1.0
  C  C1160  1  0.315800  0.849900  0.763100  1.0
  C  C1161  1  0.836200  0.365300  0.163900  1.0
  C  C1162  1  0.163800  0.634700  0.163900  1.0
  C  C1163  1  0.365300  0.163800  0.836100  1.0
  C  C1164  1  0.634700  0.836200  0.836100  1.0
  C  C1165  1  0.163800  0.365300  0.336100  1.0
  C  C1166  1  0.836200  0.634700  0.336100  1.0
  C  C1167  1  0.634700  0.163800  0.663900  1.0
  C  C1168  1  0.365300  0.836200  0.663900  1.0
  C  C1169  1  0.837600  0.365100  0.130300  1.0
  C  C1170  1  0.162400  0.634900  0.130300  1.0
  C  C1171  1  0.365100  0.162400  0.869700  1.0
  C  C1172  1  0.634900  0.837600  0.869700  1.0
  C  C1173  1  0.162400  0.365100  0.369700  1.0
  C  C1174  1  0.837600  0.634900  0.369700  1.0
  C  C1175  1  0.634900  0.162400  0.630300  1.0
  C  C1176  1  0.365100  0.837600  0.630300  1.0
  C  C1177  1  0.794400  0.329800  0.082900  1.0
  C  C1178  1  0.205600  0.670200  0.082900  1.0
  C  C1179  1  0.329800  0.205600  0.917100  1.0
  C  C1180  1  0.670200  0.794400  0.917100  1.0
  C  C1181  1  0.205600  0.329800  0.417100  1.0
  C  C1182  1  0.794400  0.670200  0.417100  1.0
  C  C1183  1  0.670200  0.205600  0.582900  1.0
  C  C1184  1  0.329800  0.794400  0.582900  1.0
  C  C1185  1  0.844900  0.355400  0.066300  1.0
  C  C1186  1  0.155100  0.644600  0.066300  1.0
  C  C1187  1  0.355400  0.155100  0.933700  1.0
  C  C1188  1  0.644600  0.844900  0.933700  1.0
  C  C1189  1  0.155100  0.355400  0.433700  1.0
  C  C1190  1  0.844900  0.644600  0.433700  1.0
  C  C1191  1  0.644600  0.155100  0.566300  1.0
  C  C1192  1  0.355400  0.844900  0.566300  1.0
  C  C1193  1  0.890400  0.392200  0.082500  1.0
  C  C1194  1  0.109600  0.607800  0.082500  1.0
  C  C1195  1  0.392200  0.109600  0.917500  1.0
  C  C1196  1  0.607800  0.890400  0.917500  1.0
  C  C1197  1  0.109600  0.392200  0.417500  1.0
  C  C1198  1  0.890400  0.607800  0.417500  1.0
  C  C1199  1  0.607800  0.109600  0.582500  1.0
  C  C1200  1  0.392200  0.890400  0.582500  1.0
  C  C1201  1  0.886900  0.395400  0.113800  1.0
  C  C1202  1  0.113100  0.604600  0.113800  1.0
  C  C1203  1  0.395400  0.113100  0.886200  1.0
  C  C1204  1  0.604600  0.886900  0.886200  1.0
  C  C1205  1  0.113100  0.395400  0.386200  1.0
  C  C1206  1  0.886900  0.604600  0.386200  1.0
  C  C1207  1  0.604600  0.113100  0.613800  1.0
  C  C1208  1  0.395400  0.886900  0.613800  1.0
  C  C1209  1  0.847700  0.350600  0.031400  1.0
  C  C1210  1  0.152300  0.649400  0.031400  1.0
  C  C1211  1  0.350600  0.152300  0.968600  1.0
  C  C1212  1  0.649400  0.847700  0.968600  1.0
  C  C1213  1  0.152300  0.350600  0.468600  1.0
  C  C1214  1  0.847700  0.649400  0.468600  1.0
  C  C1215  1  0.649400  0.152300  0.531400  1.0
  C  C1216  1  0.350600  0.847700  0.531400  1.0
  C  C1217  1  0.798100  0.338100  0.012700  1.0
  C  C1218  1  0.201900  0.661900  0.012700  1.0
  C  C1219  1  0.338100  0.201900  0.987300  1.0
  C  C1220  1  0.661900  0.798100  0.987300  1.0
  C  C1221  1  0.201900  0.338100  0.487300  1.0
  C  C1222  1  0.798100  0.661900  0.487300  1.0
  C  C1223  1  0.661900  0.201900  0.512700  1.0
  C  C1224  1  0.338100  0.798100  0.512700  1.0
  C  C1225  1  0.861200  0.337300  0.965200  1.0
  C  C1226  1  0.138800  0.662700  0.965200  1.0
  C  C1227  1  0.337300  0.138800  0.034800  1.0
  C  C1228  1  0.662700  0.861200  0.034800  1.0
  C  C1229  1  0.138800  0.337300  0.534800  1.0
  C  C1230  1  0.861200  0.662700  0.534800  1.0
  C  C1231  1  0.662700  0.138800  0.465200  1.0
  C  C1232  1  0.337300  0.861200  0.465200  1.0
  C  C1233  1  0.913900  0.348300  0.981800  1.0
  C  C1234  1  0.086100  0.651700  0.981800  1.0
  C  C1235  1  0.348300  0.086100  0.018200  1.0
  C  C1236  1  0.651700  0.913900  0.018200  1.0
  C  C1237  1  0.086100  0.348300  0.518200  1.0
  C  C1238  1  0.913900  0.651700  0.518200  1.0
  C  C1239  1  0.651700  0.086100  0.481800  1.0
  C  C1240  1  0.348300  0.913900  0.481800  1.0
  C  C1241  1  0.909700  0.355100  0.014400  1.0
  C  C1242  1  0.090300  0.644900  0.014400  1.0
  C  C1243  1  0.355100  0.090300  0.985600  1.0
  C  C1244  1  0.644900  0.909700  0.985600  1.0
  C  C1245  1  0.090300  0.355100  0.485600  1.0
  C  C1246  1  0.909700  0.644900  0.485600  1.0
  C  C1247  1  0.644900  0.090300  0.514400  1.0
  C  C1248  1  0.355100  0.909700  0.514400  1.0
  C  C1249  1  0.861100  0.330100  0.932800  1.0
  C  C1250  1  0.138900  0.669900  0.932800  1.0
  C  C1251  1  0.330100  0.138900  0.067200  1.0
  C  C1252  1  0.669900  0.861100  0.067200  1.0
  C  C1253  1  0.138900  0.330100  0.567200  1.0
  C  C1254  1  0.861100  0.669900  0.567200  1.0
  C  C1255  1  0.669900  0.138900  0.432800  1.0
  C  C1256  1  0.330100  0.861100  0.432800  1.0
  C  C1257  1  0.810600  0.311400  0.882260  1.0
  C  C1258  1  0.189400  0.688600  0.882260  1.0
  C  C1259  1  0.311400  0.189400  0.117740  1.0
  C  C1260  1  0.688600  0.810600  0.117740  1.0
  C  C1261  1  0.189400  0.311400  0.617740  1.0
  C  C1262  1  0.810600  0.688600  0.617740  1.0
  C  C1263  1  0.688600  0.189400  0.382260  1.0
  C  C1264  1  0.311400  0.810600  0.382260  1.0
  C  C1265  1  0.763200  0.339900  0.862400  1.0
  C  C1266  1  0.236800  0.660100  0.862400  1.0
  C  C1267  1  0.339900  0.236800  0.137600  1.0
  C  C1268  1  0.660100  0.763200  0.137600  1.0
  C  C1269  1  0.236800  0.339900  0.637600  1.0
  C  C1270  1  0.763200  0.660100  0.637600  1.0
  C  C1271  1  0.660100  0.236800  0.362400  1.0
  C  C1272  1  0.339900  0.763200  0.362400  1.0
  C  C1273  1  0.767000  0.334600  0.828000  1.0
  C  C1274  1  0.233000  0.665400  0.828000  1.0
  C  C1275  1  0.334600  0.233000  0.172000  1.0
  C  C1276  1  0.665400  0.767000  0.172000  1.0
  C  C1277  1  0.233000  0.334600  0.672000  1.0
  C  C1278  1  0.767000  0.665400  0.672000  1.0
  C  C1279  1  0.665400  0.233000  0.328000  1.0
  C  C1280  1  0.334600  0.767000  0.328000  1.0
  C  C1281  1  0.818300  0.300800  0.813540  1.0
  C  C1282  1  0.181700  0.699200  0.813540  1.0
  C  C1283  1  0.300800  0.181700  0.186460  1.0
  C  C1284  1  0.699200  0.818300  0.186460  1.0
  C  C1285  1  0.181700  0.300800  0.686460  1.0
  C  C1286  1  0.818300  0.699200  0.686460  1.0
  C  C1287  1  0.699200  0.181700  0.313540  1.0
  C  C1288  1  0.300800  0.818300  0.313540  1.0
  C  C1289  1  0.865700  0.272300  0.833400  1.0
  C  C1290  1  0.134300  0.727700  0.833400  1.0
  C  C1291  1  0.272300  0.134300  0.166600  1.0
  C  C1292  1  0.727700  0.865700  0.166600  1.0
  C  C1293  1  0.134300  0.272300  0.666600  1.0
  C  C1294  1  0.865700  0.727700  0.666600  1.0
  C  C1295  1  0.727700  0.134300  0.333400  1.0
  C  C1296  1  0.272300  0.865700  0.333400  1.0
  C  C1297  1  0.861800  0.277600  0.867800  1.0
  C  C1298  1  0.138200  0.722400  0.867800  1.0
  C  C1299  1  0.277600  0.138200  0.132200  1.0
  C  C1300  1  0.722400  0.861800  0.132200  1.0
  C  C1301  1  0.138200  0.277600  0.632200  1.0
  C  C1302  1  0.861800  0.722400  0.632200  1.0
  C  C1303  1  0.722400  0.138200  0.367800  1.0
  C  C1304  1  0.277600  0.861800  0.367800  1.0
  C  C1305  1  0.817400  0.290600  0.773700  1.0
  C  C1306  1  0.182600  0.709400  0.773700  1.0
  C  C1307  1  0.290600  0.182600  0.226300  1.0
  C  C1308  1  0.709400  0.817400  0.226300  1.0
  C  C1309  1  0.182600  0.290600  0.726300  1.0
  C  C1310  1  0.817400  0.709400  0.726300  1.0
  C  C1311  1  0.709400  0.182600  0.273700  1.0
  C  C1312  1  0.290600  0.817400  0.273700  1.0
  N  N1313  1  0.677500  0.435100  0.052600  1
  N  N1314  1  0.322500  0.564900  0.052600  1
  N  N1315  1  0.435100  0.322500  0.947400  1
  N  N1316  1  0.564900  0.677500  0.947400  1
  N  N1317  1  0.322500  0.435100  0.447400  1
  N  N1318  1  0.677500  0.564900  0.447400  1
  N  N1319  1  0.564900  0.322500  0.552600  1
  N  N1320  1  0.435100  0.677500  0.552600  1
  N  N1321  1  0.208500  0.246900  0.056400  1.0
  N  N1322  1  0.791500  0.753100  0.056400  1.0
  N  N1323  1  0.246900  0.791500  0.943600  1.0
  N  N1324  1  0.753100  0.208500  0.943600  1.0
  N  N1325  1  0.791500  0.246900  0.443600  1.0
  N  N1326  1  0.208500  0.753100  0.443600  1.0
  N  N1327  1  0.753100  0.791500  0.556400  1.0
  N  N1328  1  0.246900  0.208500  0.556400  1.0
  N  N1329  1  0.274800  0.335700  0.088200  1.0
  N  N1330  1  0.725200  0.664300  0.088200  1.0
  N  N1331  1  0.335700  0.725200  0.911800  1.0
  N  N1332  1  0.664300  0.274800  0.911800  1.0
  N  N1333  1  0.725200  0.335700  0.411800  1.0
  N  N1334  1  0.274800  0.664300  0.411800  1.0
  N  N1335  1  0.664300  0.725200  0.588200  1.0
  N  N1336  1  0.335700  0.274800  0.588200  1.0
  N  N1337  1  0.315600  0.595700  0.144100  1.0
  N  N1338  1  0.684400  0.404300  0.144100  1.0
  N  N1339  1  0.595700  0.684400  0.855900  1.0
  N  N1340  1  0.404300  0.315600  0.855900  1.0
  N  N1341  1  0.684400  0.595700  0.355900  1.0
  N  N1342  1  0.315600  0.404300  0.355900  1.0
  N  N1343  1  0.404300  0.684400  0.644100  1.0
  N  N1344  1  0.595700  0.315600  0.644100  1.0
  N  N1345  1  0.363600  0.692400  0.176000  1.0
  N  N1346  1  0.636400  0.307600  0.176000  1.0
  N  N1347  1  0.692400  0.636400  0.824000  1.0
  N  N1348  1  0.307600  0.363600  0.824000  1.0
  N  N1349  1  0.636400  0.692400  0.324000  1.0
  N  N1350  1  0.363600  0.307600  0.324000  1.0
  N  N1351  1  0.307600  0.636400  0.676000  1.0
  N  N1352  1  0.692400  0.363600  0.676000  1.0
  N  N1353  1  0.299600  0.346200  0.023000  1.0
  N  N1354  1  0.700400  0.653800  0.023000  1.0
  N  N1355  1  0.346200  0.700400  0.977000  1.0
  N  N1356  1  0.653800  0.299600  0.977000  1.0
  N  N1357  1  0.700400  0.346200  0.477000  1.0
  N  N1358  1  0.299600  0.653800  0.477000  1.0
  N  N1359  1  0.653800  0.700400  0.523000  1.0
  N  N1360  1  0.346200  0.299600  0.523000  1.0
  N  N1361  1  0.399000  0.298500  0.053500  1.0
  N  N1362  1  0.601000  0.701500  0.053500  1.0
  N  N1363  1  0.298500  0.601000  0.946500  1.0
  N  N1364  1  0.701500  0.399000  0.946500  1.0
  N  N1365  1  0.601000  0.298500  0.446500  1.0
  N  N1366  1  0.399000  0.701500  0.446500  1.0
  N  N1367  1  0.701500  0.601000  0.553500  1.0
  N  N1368  1  0.298500  0.399000  0.553500  1.0
  N  N1369  1  0.659400  0.270900  0.112500  1.0
  N  N1370  1  0.340600  0.729100  0.112500  1.0
  N  N1371  1  0.270900  0.340600  0.887500  1.0
  N  N1372  1  0.729100  0.659400  0.887500  1.0
  N  N1373  1  0.340600  0.270900  0.387500  1.0
  N  N1374  1  0.659400  0.729100  0.387500  1.0
  N  N1375  1  0.729100  0.340600  0.612500  1.0
  N  N1376  1  0.270900  0.659400  0.612500  1.0
  N  N1377  1  0.745700  0.216700  0.147100  1.0
  N  N1378  1  0.254300  0.783300  0.147100  1.0
  N  N1379  1  0.216700  0.254300  0.852900  1.0
  N  N1380  1  0.783300  0.745700  0.852900  1.0
  N  N1381  1  0.254300  0.216700  0.352900  1.0
  N  N1382  1  0.745700  0.783300  0.352900  1.0
  N  N1383  1  0.783300  0.254300  0.647100  1.0
  N  N1384  1  0.216700  0.745700  0.647100  1.0
  N  N1385  1  0.785500  0.344800  0.179700  1.0
  N  N1386  1  0.214500  0.655200  0.179700  1.0
  N  N1387  1  0.344800  0.214500  0.820300  1.0
  N  N1388  1  0.655200  0.785500  0.820300  1.0
  N  N1389  1  0.214500  0.344800  0.320300  1.0
  N  N1390  1  0.785500  0.655200  0.320300  1.0
  N  N1391  1  0.655200  0.214500  0.679700  1.0
  N  N1392  1  0.344800  0.785500  0.679700  1.0
  N  N1393  1  0.792300  0.333800  0.115200  1.0
  N  N1394  1  0.207700  0.666200  0.115200  1.0
  N  N1395  1  0.333800  0.207700  0.884800  1.0
  N  N1396  1  0.666200  0.792300  0.884800  1.0
  N  N1397  1  0.207700  0.333800  0.384800  1.0
  N  N1398  1  0.792300  0.666200  0.384800  1.0
  N  N1399  1  0.666200  0.207700  0.615200  1.0
  N  N1400  1  0.333800  0.792300  0.615200  1.0
  N  N1401  1  0.799800  0.332700  0.980900  1.0
  N  N1402  1  0.200200  0.667300  0.980900  1.0
  N  N1403  1  0.332700  0.200200  0.019100  1.0
  N  N1404  1  0.667300  0.799800  0.019100  1.0
  N  N1405  1  0.200200  0.332700  0.519100  1.0
  N  N1406  1  0.799800  0.667300  0.519100  1.0
  N  N1407  1  0.667300  0.200200  0.480900  1.0
  N  N1408  1  0.332700  0.799800  0.480900  1.0
  N  N1409  1  0.808200  0.321100  0.915000  1.0
  N  N1410  1  0.191800  0.678900  0.915000  1.0
  N  N1411  1  0.321100  0.191800  0.085000  1.0
  N  N1412  1  0.678900  0.808200  0.085000  1.0
  N  N1413  1  0.191800  0.321100  0.585000  1.0
  N  N1414  1  0.808200  0.678900  0.585000  1.0
  N  N1415  1  0.678900  0.191800  0.415000  1.0
  N  N1416  1  0.321100  0.808200  0.415000  1.0
  O  O1417  1  0.732500  0.447500  0.056100  1
  O  O1418  1  0.267500  0.552500  0.056100  1
  O  O1419  1  0.447500  0.267500  0.943900  1
  O  O1420  1  0.552500  0.732500  0.943900  1
  O  O1421  1  0.267500  0.447500  0.443900  1
  O  O1422  1  0.732500  0.552500  0.443900  1
  O  O1423  1  0.552500  0.267500  0.556100  1
  O  O1424  1  0.447500  0.732500  0.556100  1
  O  O1425  1  0.639600  0.477100  0.051200  1
  O  O1426  1  0.360400  0.522900  0.051200  1
  O  O1427  1  0.477100  0.360400  0.948800  1
  O  O1428  1  0.522900  0.639600  0.948800  1
  O  O1429  1  0.360400  0.477100  0.448800  1
  O  O1430  1  0.639600  0.522900  0.448800  1
  O  O1431  1  0.522900  0.360400  0.551200  1
  O  O1432  1  0.477100  0.639600  0.551200  1
  O  O1433  1  0.663600  0.383800  0.043700  1
  O  O1434  1  0.336400  0.616200  0.043700  1
  O  O1435  1  0.383800  0.336400  0.956300  1
  O  O1436  1  0.616200  0.663600  0.956300  1
  O  O1437  1  0.336400  0.383800  0.456300  1
  O  O1438  1  0.663600  0.616200  0.456300  1
  O  O1439  1  0.616200  0.336400  0.543700  1
  O  O1440  1  0.383800  0.663600  0.543700  1
