# generated using pymatgen
data_Co10B7H420C390N60ClF28
_symmetry_space_group_name_H-M   'P 1'
_cell_length_a   20.45600000
_cell_length_b   27.50800000
_cell_length_c   40.76300000
_cell_angle_alpha   88.66300000
_cell_angle_beta   86.59200000
_cell_angle_gamma   87.67200000
_symmetry_Int_Tables_number   1
_chemical_formula_structural   Co10B7H420C390N60ClF28
_chemical_formula_sum   'Co20 B14 H840 C780 N120 Cl2 F56'
_cell_volume   22872.99504264
_cell_formula_units_Z   2
loop_
 _symmetry_equiv_pos_site_id
 _symmetry_equiv_pos_as_xyz
  1  'x, y, z'
loop_
 _atom_site_type_symbol
 _atom_site_label
 _atom_site_symmetry_multiplicity
 _atom_site_fract_x
 _atom_site_fract_y
 _atom_site_fract_z
 _atom_site_occupancy
  Co  Co1  1  0.467900  0.715190  0.404700  1
  Co  Co2  1  0.532100  0.284810  0.595300  1
  Co  Co3  1  0.534100  0.995210  0.316050  1
  Co  Co4  1  0.465900  0.004790  0.683950  1
  Co  Co5  1  0.622600  0.954680  0.111540  1
  Co  Co6  1  0.377400  0.045320  0.888460  1
  Co  Co7  1  0.621400  0.653920  0.070760  1
  Co  Co8  1  0.378600  0.346080  0.929240  1
  Co  Co9  1  0.529400  0.510820  0.254110  1
  Co  Co10  1  0.470600  0.489180  0.745890  1
  Co  Co11  1  0.853400  0.639920  0.427640  1
  Co  Co12  1  0.146600  0.360080  0.572360  1
  Co  Co13  1  0.892100  0.937980  0.381540  1
  Co  Co14  1  0.107900  0.062020  0.618460  1
  Co  Co15  1  0.994300  0.952900  0.171720  1
  Co  Co16  1  0.005700  0.047100  0.828280  1
  Co  Co17  1  0.999200  0.672280  0.097530  1
  Co  Co18  1  0.000800  0.327720  0.902470  1
  Co  Co19  1  0.917800  0.463970  0.251850  1
  Co  Co20  1  0.082200  0.536030  0.748150  1
  B  B21  1  0.762200  0.981100  0.244800  1
  B  B22  1  0.237800  0.018900  0.755200  1
  B  B23  1  0.797400  0.813900  0.101700  1
  B  B24  1  0.202600  0.186100  0.898300  1
  B  B25  1  0.769800  0.560700  0.163700  1
  B  B26  1  0.230200  0.439300  0.836300  1
  B  B27  1  0.697500  0.565200  0.343400  1
  B  B28  1  0.302500  0.434800  0.656600  1
  B  B29  1  0.697500  0.822100  0.394300  1
  B  B30  1  0.302500  0.177900  0.605700  1
  B  B31  1  0.484800  0.774400  0.223800  1
  B  B32  1  0.515200  0.225600  0.776200  1
  B  B33  1  0.002200  0.726900  0.276600  1
  B  B34  1  0.997800  0.273100  0.723400  1
  H  H35  1  0.507100  0.655900  0.508000  1
  H  H36  1  0.492900  0.344100  0.492000  1
  H  H37  1  0.527900  0.575300  0.525300  1
  H  H38  1  0.472100  0.424700  0.474700  1
  H  H39  1  0.608700  0.544000  0.434700  1
  H  H40  1  0.391300  0.456000  0.565300  1
  H  H41  1  0.587900  0.624600  0.417400  1
  H  H42  1  0.412100  0.375400  0.582600  1
  H  H43  1  0.573200  0.498800  0.516300  1
  H  H44  1  0.426800  0.501200  0.483700  1
  H  H45  1  0.638600  0.500500  0.492800  1
  H  H46  1  0.361400  0.499500  0.507200  1
  H  H47  1  0.573800  0.478900  0.479700  1
  H  H48  1  0.426200  0.521100  0.520300  1
  H  H49  1  0.557700  0.729300  0.482300  1
  H  H50  1  0.442300  0.270700  0.517700  1
  H  H51  1  0.463400  0.830900  0.386900  1
  H  H52  1  0.536600  0.169100  0.613100  1
  H  H53  1  0.525900  0.894900  0.467200  1
  H  H54  1  0.474100  0.105100  0.532800  1
  H  H55  1  0.546400  0.818200  0.491400  1
  H  H56  1  0.453600  0.181800  0.508600  1
  H  H57  1  0.522500  0.897800  0.364700  1
  H  H58  1  0.477500  0.102200  0.635300  1
  H  H59  1  0.413200  0.027000  0.420300  1
  H  H60  1  0.586800  0.973000  0.579700  1
  H  H61  1  0.432900  0.952800  0.447900  1
  H  H62  1  0.567100  0.047200  0.552100  1
  H  H63  1  0.427500  0.078500  0.374900  1
  H  H64  1  0.572500  0.921500  0.625100  1
  H  H65  1  0.497000  0.144000  0.350000  1
  H  H66  1  0.503000  0.856000  0.650000  1
  H  H67  1  0.496200  0.218400  0.320900  1
  H  H68  1  0.503800  0.781600  0.679100  1
  H  H69  1  0.443400  0.150500  0.239900  1
  H  H70  1  0.556600  0.849500  0.760100  1
  H  H71  1  0.444200  0.076100  0.269000  1
  H  H72  1  0.555800  0.923900  0.731000  1
  H  H73  1  0.467100  0.232100  0.235200  1
  H  H74  1  0.532900  0.767900  0.764800  1
  H  H75  1  0.525800  0.245200  0.257300  1
  H  H76  1  0.474200  0.754800  0.742700  1
  H  H77  1  0.452400  0.263600  0.267600  1
  H  H78  1  0.547600  0.736400  0.732400  1
  H  H79  1  0.350400  0.796000  0.434200  1
  H  H80  1  0.649600  0.204000  0.565800  1
  H  H81  1  0.315200  0.853900  0.473300  1
  H  H82  1  0.684800  0.146100  0.526700  1
  H  H83  1  0.339500  0.753100  0.546200  1
  H  H84  1  0.660500  0.246900  0.453800  1
  H  H85  1  0.374700  0.695300  0.507100  1
  H  H86  1  0.625300  0.304700  0.492900  1
  H  H87  1  0.299300  0.832700  0.559400  1
  H  H88  1  0.700700  0.167300  0.440600  1
  H  H89  1  0.256700  0.858700  0.531800  1
  H  H90  1  0.743300  0.141300  0.468200  1
  H  H91  1  0.330700  0.873700  0.535500  1
  H  H92  1  0.669300  0.126300  0.464500  1
  H  H93  1  0.350300  0.649800  0.463000  1
  H  H94  1  0.649700  0.350200  0.537000  1
  H  H95  1  0.510700  0.620100  0.361000  1
  H  H96  1  0.489300  0.379900  0.639000  1
  H  H97  1  0.421200  0.509500  0.410700  1
  H  H98  1  0.578800  0.490500  0.589300  1
  H  H99  1  0.364100  0.565500  0.445100  1
  H  H100  1  0.635900  0.434500  0.554900  1
  H  H101  1  0.490100  0.567700  0.319300  1
  H  H102  1  0.509900  0.432300  0.680700  1
  H  H103  1  0.599200  0.426500  0.359400  1
  H  H104  1  0.400800  0.573500  0.640600  1
  H  H105  1  0.547300  0.478800  0.395200  1
  H  H106  1  0.452700  0.521200  0.604800  1
  H  H107  1  0.636400  0.408900  0.294700  1
  H  H108  1  0.363600  0.591100  0.705300  1
  H  H109  1  0.585700  0.353900  0.255100  1
  H  H110  1  0.414300  0.646100  0.744900  1
  H  H111  1  0.617400  0.306000  0.209700  1
  H  H112  1  0.382600  0.694000  0.790300  1
  H  H113  1  0.706900  0.420900  0.165300  1
  H  H114  1  0.293100  0.579100  0.834700  1
  H  H115  1  0.675200  0.468800  0.210700  1
  H  H116  1  0.324800  0.531200  0.789300  1
  H  H117  1  0.675300  0.297600  0.151400  1
  H  H118  1  0.324700  0.702400  0.848600  1
  H  H119  1  0.737500  0.331100  0.147400  1
  H  H120  1  0.262500  0.668900  0.852600  1
  H  H121  1  0.670800  0.348000  0.131100  1
  H  H122  1  0.329200  0.652000  0.868900  1
  H  H123  1  0.212500  0.797900  0.377600  1
  H  H124  1  0.787500  0.202100  0.622400  1
  H  H125  1  0.324400  0.791700  0.386800  1
  H  H126  1  0.675600  0.208300  0.613200  1
  H  H127  1  0.348500  0.682700  0.321400  1
  H  H128  1  0.651500  0.317300  0.678600  1
  H  H129  1  0.236600  0.689000  0.312300  1
  H  H130  1  0.763400  0.311000  0.687700  1
  H  H131  1  0.134600  0.732100  0.318300  1
  H  H132  1  0.865400  0.267900  0.681700  1
  H  H133  1  0.144700  0.788600  0.324300  1
  H  H134  1  0.855300  0.211400  0.675700  1
  H  H135  1  0.116200  0.754600  0.353700  1
  H  H136  1  0.883800  0.245400  0.646300  1
  H  H137  1  0.430600  0.727100  0.313700  1
  H  H138  1  0.569400  0.272900  0.686300  1
  H  H139  1  0.625200  0.712000  0.394600  1
  H  H140  1  0.374800  0.288000  0.605400  1
  H  H141  1  0.664800  0.711800  0.296000  1
  H  H142  1  0.335200  0.288200  0.704000  1
  H  H143  1  0.552500  0.719500  0.287800  1
  H  H144  1  0.447500  0.280500  0.712200  1
  H  H145  1  0.716300  0.665300  0.396600  1
  H  H146  1  0.283700  0.334700  0.603400  1
  H  H147  1  0.872200  0.727100  0.319800  1
  H  H148  1  0.127800  0.272900  0.680200  1
  H  H149  1  0.760500  0.737800  0.311000  1
  H  H150  1  0.239500  0.262200  0.689000  1
  H  H151  1  0.960100  0.694200  0.354200  1
  H  H152  1  0.039900  0.305800  0.645800  1
  H  H153  1  0.004800  0.673200  0.447100  1
  H  H154  1  0.995200  0.326800  0.552900  1
  H  H155  1  0.117500  0.665600  0.454300  1
  H  H156  1  0.882500  0.334400  0.545700  1
  H  H157  1  0.148600  0.617300  0.361300  1
  H  H158  1  0.851400  0.382700  0.638700  1
  H  H159  1  0.035900  0.624800  0.354100  1
  H  H160  1  0.964100  0.375200  0.645900  1
  H  H161  1  0.213900  0.648000  0.443000  1
  H  H162  1  0.786100  0.352000  0.557000  1
  H  H163  1  0.242200  0.658500  0.406200  1
  H  H164  1  0.757800  0.341500  0.593800  1
  H  H165  1  0.231500  0.603700  0.418900  1
  H  H166  1  0.768500  0.396300  0.581100  1
  H  H167  1  0.584300  0.106900  0.381200  1
  H  H168  1  0.415700  0.893100  0.618800  1
  H  H169  1  0.569600  0.105700  0.438500  1
  H  H170  1  0.430400  0.894300  0.561500  1
  H  H171  1  0.612500  0.960500  0.440400  1
  H  H172  1  0.387500  0.039500  0.559600  1
  H  H173  1  0.627100  0.961800  0.383000  1
  H  H174  1  0.372900  0.038200  0.617000  1
  H  H175  1  0.589400  0.001000  0.489900  1
  H  H176  1  0.410600  0.999000  0.510100  1
  H  H177  1  0.538400  0.046400  0.487700  1
  H  H178  1  0.461600  0.953600  0.512300  1
  H  H179  1  0.615000  0.055200  0.489000  1
  H  H180  1  0.385000  0.944800  0.511000  1
  H  H181  1  0.647100  0.094700  0.336900  1
  H  H182  1  0.352900  0.905300  0.663100  1
  H  H183  1  0.548900  0.008200  0.237300  1
  H  H184  1  0.451100  0.991800  0.762700  1
  H  H185  1  0.666100  0.122600  0.221200  1
  H  H186  1  0.333900  0.877400  0.778800  1
  H  H187  1  0.679300  0.126500  0.277600  1
  H  H188  1  0.320700  0.873500  0.722400  1
  H  H189  1  0.613200  0.992100  0.187700  1
  H  H190  1  0.386800  0.007900  0.812300  1
  H  H191  1  0.559400  0.131800  0.125700  1
  H  H192  1  0.440600  0.868200  0.874300  1
  H  H193  1  0.576800  0.137900  0.181600  1
  H  H194  1  0.423200  0.862100  0.818400  1
  H  H195  1  0.554500  0.067400  0.074900  1
  H  H196  1  0.445500  0.932600  0.925100  1
  H  H197  1  0.630400  0.058000  0.030000  1
  H  H198  1  0.369600  0.942000  0.970000  1
  H  H199  1  0.642500  0.039200  0.974300  1
  H  H200  1  0.357500  0.960800  0.025700  1
  H  H201  1  0.538000  0.918400  0.992300  1
  H  H202  1  0.462000  0.081600  0.007700  1
  H  H203  1  0.526000  0.937200  0.048100  1
  H  H204  1  0.474000  0.062800  0.951900  1
  H  H205  1  0.621200  0.983400  0.927500  1
  H  H206  1  0.378800  0.016600  0.072500  1
  H  H207  1  0.551500  0.959300  0.933300  1
  H  H208  1  0.448500  0.040700  0.066700  1
  H  H209  1  0.617200  0.927800  0.939800  1
  H  H210  1  0.382800  0.072200  0.060200  1
  H  H211  1  0.422700  0.953800  0.226800  1
  H  H212  1  0.577300  0.046200  0.773200  1
  H  H213  1  0.312500  0.966600  0.215400  1
  H  H214  1  0.687500  0.033400  0.784600  1
  H  H215  1  0.266000  0.990900  0.311900  1
  H  H216  1  0.734000  0.009100  0.688100  1
  H  H217  1  0.376200  0.978000  0.323300  1
  H  H218  1  0.623800  0.022000  0.676700  1
  H  H219  1  0.180200  0.994600  0.276600  1
  H  H220  1  0.819800  0.005400  0.723400  1
  H  H221  1  0.189700  0.956800  0.247300  1
  H  H222  1  0.810300  0.043200  0.752700  1
  H  H223  1  0.199300  0.013600  0.240000  1
  H  H224  1  0.800700  0.986400  0.760000  1
  H  H225  1  0.476900  0.887400  0.268400  1
  H  H226  1  0.523100  0.112600  0.731600  1
  H  H227  1  0.685100  0.954900  0.319400  1
  H  H228  1  0.314900  0.045100  0.680600  1
  H  H229  1  0.683900  0.816900  0.289500  1
  H  H230  1  0.316100  0.183100  0.710500  1
  H  H231  1  0.577700  0.829600  0.265800  1
  H  H232  1  0.422300  0.170400  0.734200  1
  H  H233  1  0.754500  0.927900  0.348900  1
  H  H234  1  0.245500  0.072100  0.651100  1
  H  H235  1  0.898500  0.817100  0.293400  1
  H  H236  1  0.101500  0.182900  0.706600  1
  H  H237  1  0.790200  0.827400  0.278300  1
  H  H238  1  0.209800  0.172600  0.721700  1
  H  H239  1  0.987900  0.830800  0.335600  1
  H  H240  1  0.012100  0.169200  0.664400  1
  H  H241  1  0.054300  0.925700  0.388200  1
  H  H242  1  0.945700  0.074300  0.611800  1
  H  H243  1  0.146600  0.899300  0.415900  1
  H  H244  1  0.853400  0.100700  0.584100  1
  H  H245  1  0.079600  0.762600  0.421900  1
  H  H246  1  0.920400  0.237400  0.578100  1
  H  H247  1  0.987200  0.789000  0.394200  1
  H  H248  1  0.012800  0.211000  0.605800  1
  H  H249  1  0.179700  0.776300  0.448100  1
  H  H250  1  0.820300  0.223700  0.551900  1
  H  H251  1  0.176800  0.828700  0.464500  1
  H  H252  1  0.823200  0.171300  0.535500  1
  H  H253  1  0.222800  0.819000  0.432000  1
  H  H254  1  0.777200  0.181000  0.568000  1
  H  H255  1  0.738800  0.072200  0.064500  1
  H  H256  1  0.261200  0.927800  0.935500  1
  H  H257  1  0.766100  0.145800  0.086800  1
  H  H258  1  0.233900  0.854200  0.913200  1
  H  H259  1  0.766800  0.081300  0.177200  1
  H  H260  1  0.233200  0.918700  0.822800  1
  H  H261  1  0.739500  0.007700  0.154900  1
  H  H262  1  0.260500  0.992300  0.845100  1
  H  H263  1  0.786200  0.172400  0.172000  1
  H  H264  1  0.213800  0.827600  0.828000  1
  H  H265  1  0.744300  0.196900  0.143600  1
  H  H266  1  0.255700  0.803100  0.856400  1
  H  H267  1  0.821700  0.187300  0.137400  1
  H  H268  1  0.178300  0.812700  0.862600  1
  H  H269  1  0.768200  0.995000  0.055700  1
  H  H270  1  0.231800  0.005000  0.944300  1
  H  H271  1  0.605600  0.850700  0.079600  1
  H  H272  1  0.394400  0.149300  0.920400  1
  H  H273  1  0.718900  0.855400  0.994700  1
  H  H274  1  0.281100  0.144600  0.005300  1
  H  H275  1  0.761800  0.928300  0.010500  1
  H  H276  1  0.238200  0.071700  0.989500  1
  H  H277  1  0.633900  0.771300  0.069900  1
  H  H278  1  0.366100  0.228700  0.930100  1
  H  H279  1  0.579600  0.739800  0.964700  1
  H  H280  1  0.420400  0.260200  0.035300  1
  H  H281  1  0.618400  0.814700  0.979100  1
  H  H282  1  0.381600  0.185300  0.020900  1
  H  H283  1  0.567000  0.656900  0.981200  1
  H  H284  1  0.433000  0.343100  0.018800  1
  H  H285  1  0.640900  0.583200  0.977600  1
  H  H286  1  0.359100  0.416800  0.022400  1
  H  H287  1  0.650400  0.499500  0.968500  1
  H  H288  1  0.349600  0.500500  0.031500  1
  H  H289  1  0.527200  0.475200  0.048200  1
  H  H290  1  0.472800  0.524800  0.951800  1
  H  H291  1  0.517700  0.558900  0.057300  1
  H  H292  1  0.482300  0.441100  0.942700  1
  H  H293  1  0.568300  0.407600  0.018600  1
  H  H294  1  0.431700  0.592400  0.981400  1
  H  H295  1  0.641100  0.413100  0.002700  1
  H  H296  1  0.358900  0.586900  0.997300  1
  H  H297  1  0.579900  0.417900  0.980000  1
  H  H298  1  0.420100  0.582100  0.020000  1
  H  H299  1  0.454000  0.981800  0.158900  1
  H  H300  1  0.546000  0.018200  0.841100  1
  H  H301  1  0.345100  0.997900  0.146100  1
  H  H302  1  0.654900  0.002100  0.853900  1
  H  H303  1  0.361000  0.890400  0.079500  1
  H  H304  1  0.639000  0.109600  0.920500  1
  H  H305  1  0.469900  0.874200  0.092200  1
  H  H306  1  0.530100  0.125800  0.907800  1
  H  H307  1  0.252000  0.985900  0.118500  1
  H  H308  1  0.748000  0.014100  0.881500  1
  H  H309  1  0.241900  0.930600  0.109100  1
  H  H310  1  0.758100  0.069400  0.890900  1
  H  H311  1  0.265800  0.969200  0.081300  1
  H  H312  1  0.734200  0.030800  0.918700  1
  H  H313  1  0.515300  0.874700  0.171400  1
  H  H314  1  0.484700  0.125300  0.828600  1
  H  H315  1  0.757300  0.918900  0.143400  1
  H  H316  1  0.242700  0.081100  0.856600  1
  H  H317  1  0.709600  0.823400  0.217400  1
  H  H318  1  0.290400  0.176600  0.782600  1
  H  H319  1  0.599300  0.841800  0.208100  1
  H  H320  1  0.400700  0.158200  0.791900  1
  H  H321  1  0.852300  0.936300  0.168000  1
  H  H322  1  0.147700  0.063700  0.832000  1
  H  H323  1  0.917900  0.793400  0.219100  1
  H  H324  1  0.082100  0.206600  0.780900  1
  H  H325  1  0.811200  0.800400  0.205600  1
  H  H326  1  0.188800  0.199600  0.794400  1
  H  H327  1  0.036200  0.824200  0.215600  1
  H  H328  1  0.963800  0.175800  0.784400  1
  H  H329  1  0.150300  0.930600  0.164700  1
  H  H330  1  0.849700  0.069400  0.835300  1
  H  H331  1  0.262300  0.910400  0.166400  1
  H  H332  1  0.737700  0.089600  0.833600  1
  H  H333  1  0.223900  0.815600  0.242000  1
  H  H334  1  0.776100  0.184400  0.758000  1
  H  H335  1  0.111900  0.835800  0.240400  1
  H  H336  1  0.888100  0.164200  0.759600  1
  H  H337  1  0.353000  0.872700  0.188300  1
  H  H338  1  0.647000  0.127300  0.811700  1
  H  H339  1  0.342400  0.817800  0.200700  1
  H  H340  1  0.657600  0.182200  0.799300  1
  H  H341  1  0.345100  0.860100  0.226900  1
  H  H342  1  0.654900  0.139900  0.773100  1
  H  H343  1  0.753100  0.605600  0.984700  1
  H  H344  1  0.246900  0.394400  0.015300  1
  H  H345  1  0.794600  0.655900  0.942000  1
  H  H346  1  0.205400  0.344100  0.058000  1
  H  H347  1  0.797500  0.767400  0.005100  1
  H  H348  1  0.202500  0.232600  0.994900  1
  H  H349  1  0.756000  0.717100  0.047900  1
  H  H350  1  0.244000  0.282900  0.952100  1
  H  H351  1  0.831400  0.732000  0.921600  1
  H  H352  1  0.168600  0.268000  0.078400  1
  H  H353  1  0.870800  0.759700  0.947800  1
  H  H354  1  0.129200  0.240300  0.052200  1
  H  H355  1  0.798000  0.778300  0.940100  1
  H  H356  1  0.202000  0.221700  0.059900  1
  H  H357  1  0.753600  0.569100  0.032900  1
  H  H358  1  0.246400  0.430900  0.967100  1
  H  H359  1  0.580300  0.579400  0.129800  1
  H  H360  1  0.419700  0.420600  0.870200  1
  H  H361  1  0.651700  0.449600  0.108500  1
  H  H362  1  0.348300  0.550400  0.891500  1
  H  H363  1  0.732000  0.490700  0.070200  1
  H  H364  1  0.268000  0.509300  0.929800  1
  H  H365  1  0.582500  0.545700  0.181900  1
  H  H366  1  0.417500  0.454300  0.818100  1
  H  H367  1  0.484400  0.398200  0.165200  1
  H  H368  1  0.515600  0.601800  0.834800  1
  H  H369  1  0.545700  0.435600  0.122100  1
  H  H370  1  0.454300  0.564400  0.877900  1
  H  H371  1  0.431800  0.409600  0.222300  1
  H  H372  1  0.568200  0.590400  0.777700  1
  H  H373  1  0.402400  0.494100  0.306800  1
  H  H374  1  0.597600  0.505900  0.693200  1
  H  H375  1  0.356300  0.461700  0.356000  1
  H  H376  1  0.643700  0.538300  0.644000  1
  H  H377  1  0.404700  0.325400  0.324900  1
  H  H378  1  0.595300  0.674600  0.675100  1
  H  H379  1  0.450900  0.357800  0.275600  1
  H  H380  1  0.549100  0.642200  0.724400  1
  H  H381  1  0.360200  0.337100  0.379200  1
  H  H382  1  0.639800  0.662900  0.620800  1
  H  H383  1  0.312700  0.384200  0.384800  1
  H  H384  1  0.687300  0.615800  0.615200  1
  H  H385  1  0.387600  0.385100  0.394000  1
  H  H386  1  0.612400  0.614900  0.606000  1
  H  H387  1  0.469700  0.765600  0.086600  1
  H  H388  1  0.530300  0.234400  0.913400  1
  H  H389  1  0.370600  0.775600  0.060900  1
  H  H390  1  0.629400  0.224400  0.939100  1
  H  H391  1  0.354900  0.629200  0.060700  1
  H  H392  1  0.645100  0.370800  0.939300  1
  H  H393  1  0.454000  0.619200  0.086400  1
  H  H394  1  0.546000  0.380800  0.913600  1
  H  H395  1  0.262000  0.683600  0.035500  1
  H  H396  1  0.738000  0.316400  0.964500  1
  H  H397  1  0.290800  0.732100  0.018800  1
  H  H398  1  0.709200  0.267900  0.981200  1
  H  H399  1  0.251800  0.734300  0.054000  1
  H  H400  1  0.748200  0.265700  0.946000  1
  H  H401  1  0.513800  0.732200  0.133100  1
  H  H402  1  0.486200  0.267800  0.866900  1
  H  H403  1  0.754000  0.657300  0.107200  1
  H  H404  1  0.246000  0.342700  0.892800  1
  H  H405  1  0.708500  0.739200  0.186700  1
  H  H406  1  0.291500  0.260800  0.813300  1
  H  H407  1  0.604800  0.742800  0.173200  1
  H  H408  1  0.395200  0.257200  0.826800  1
  H  H409  1  0.852100  0.686300  0.107300  1
  H  H410  1  0.147900  0.313700  0.892700  1
  H  H411  1  0.917300  0.683900  0.213300  1
  H  H412  1  0.082700  0.316100  0.786700  1
  H  H413  1  0.806200  0.700600  0.202800  1
  H  H414  1  0.193800  0.299400  0.797200  1
  H  H415  1  0.037600  0.680500  0.188100  1
  H  H416  1  0.962400  0.319500  0.811900  1
  H  H417  1  0.154400  0.651100  0.106400  1
  H  H418  1  0.845600  0.348900  0.893600  1
  H  H419  1  0.266100  0.660900  0.112400  1
  H  H420  1  0.733900  0.339100  0.887600  1
  H  H421  1  0.221900  0.741600  0.193200  1
  H  H422  1  0.778100  0.258400  0.806800  1
  H  H423  1  0.110200  0.731800  0.187200  1
  H  H424  1  0.889800  0.268200  0.812800  1
  H  H425  1  0.357600  0.687600  0.141900  1
  H  H426  1  0.642400  0.312400  0.858100  1
  H  H427  1  0.340900  0.689400  0.180700  1
  H  H428  1  0.659100  0.310600  0.819300  1
  H  H429  1  0.344100  0.738900  0.159300  1
  H  H430  1  0.655900  0.261100  0.840700  1
  H  H431  1  0.396900  0.661500  0.251900  1
  H  H432  1  0.603100  0.338500  0.748100  1
  H  H433  1  0.282700  0.671600  0.257000  1
  H  H434  1  0.717300  0.328400  0.743000  1
  H  H435  1  0.266100  0.527000  0.244200  1
  H  H436  1  0.733900  0.473000  0.755800  1
  H  H437  1  0.380400  0.516900  0.239200  1
  H  H438  1  0.619600  0.483100  0.760800  1
  H  H439  1  0.178100  0.645400  0.257100  1
  H  H440  1  0.821900  0.354600  0.742900  1
  H  H441  1  0.167500  0.591400  0.271400  1
  H  H442  1  0.832500  0.408600  0.728600  1
  H  H443  1  0.169400  0.601900  0.232600  1
  H  H444  1  0.830600  0.398100  0.767400  1
  H  H445  1  0.495100  0.642700  0.222900  1
  H  H446  1  0.504900  0.357300  0.777100  1
  H  H447  1  0.681300  0.528500  0.259200  1
  H  H448  1  0.318700  0.471500  0.740800  1
  H  H449  1  0.705700  0.666667  0.235200  1
  H  H450  1  0.294300  0.333333  0.764800  1
  H  H451  1  0.593300  0.677500  0.229000  1
  H  H452  1  0.406700  0.322500  0.771000  1
  H  H453  1  0.778100  0.514600  0.245300  1
  H  H454  1  0.221900  0.485400  0.754700  1
  H  H455  1  0.905800  0.643500  0.272600  1
  H  H456  1  0.094200  0.356500  0.727400  1
  H  H457  1  0.792900  0.656300  0.267800  1
  H  H458  1  0.207100  0.343700  0.732200  1
  H  H459  1  0.006700  0.579800  0.275400  1
  H  H460  1  0.993300  0.420200  0.724600  1
  H  H461  1  0.084600  0.478300  0.216600  1
  H  H462  1  0.915400  0.521700  0.783400  1
  H  H463  1  0.186500  0.441100  0.226800  1
  H  H464  1  0.813500  0.558900  0.773200  1
  H  H465  1  0.154000  0.467300  0.324000  1
  H  H466  1  0.846000  0.532700  0.676000  1
  H  H467  1  0.052200  0.504500  0.313800  1
  H  H468  1  0.947800  0.495500  0.686200  1
  H  H469  1  0.266600  0.412800  0.258100  1
  H  H470  1  0.733400  0.587200  0.741900  1
  H  H471  1  0.243400  0.394300  0.294300  1
  H  H472  1  0.756600  0.605700  0.705700  1
  H  H473  1  0.279100  0.444800  0.289200  1
  H  H474  1  0.720900  0.555200  0.710800  1
  H  H475  1  0.970600  0.550100  0.437200  1
  H  H476  1  0.029400  0.449900  0.562800  1
  H  H477  1  0.983000  0.465400  0.442600  1
  H  H478  1  0.017000  0.534600  0.557400  1
  H  H479  1  0.861800  0.468300  0.525000  1
  H  H480  1  0.138200  0.531700  0.475000  1
  H  H481  1  0.849400  0.553000  0.519500  1
  H  H482  1  0.150600  0.447000  0.480500  1
  H  H483  1  0.957100  0.393000  0.469700  1
  H  H484  1  0.042900  0.607000  0.530300  1
  H  H485  1  0.883300  0.393600  0.485100  1
  H  H486  1  0.116700  0.606400  0.514900  1
  H  H487  1  0.942900  0.396300  0.508600  1
  H  H488  1  0.057100  0.603700  0.491400  1
  H  H489  1  0.895600  0.628200  0.514200  1
  H  H490  1  0.104400  0.371800  0.485800  1
  H  H491  1  0.844400  0.757200  0.423600  1
  H  H492  1  0.155600  0.242800  0.576400  1
  H  H493  1  0.841300  0.802300  0.517600  1
  H  H494  1  0.158700  0.197700  0.482400  1
  H  H495  1  0.869900  0.723100  0.535200  1
  H  H496  1  0.130100  0.276900  0.464800  1
  H  H497  1  0.888200  0.834100  0.420800  1
  H  H498  1  0.111800  0.165900  0.579200  1
  H  H499  1  0.723700  0.930800  0.474700  1
  H  H500  1  0.276300  0.069200  0.525300  1
  H  H501  1  0.751100  0.853300  0.495800  1
  H  H502  1  0.248900  0.146700  0.504200  1
  H  H503  1  0.744800  0.997500  0.426100  1
  H  H504  1  0.255200  0.002500  0.573900  1
  H  H505  1  0.801500  0.006600  0.333400  1
  H  H506  1  0.198500  0.993400  0.666600  1
  H  H507  1  0.790000  0.082200  0.306400  1
  H  H508  1  0.210000  0.917800  0.693600  1
  H  H509  1  0.779500  0.149200  0.394200  1
  H  H510  1  0.220500  0.850800  0.605800  1
  H  H511  1  0.791000  0.073600  0.421200  1
  H  H512  1  0.209000  0.926400  0.578800  1
  H  H513  1  0.777000  0.173800  0.310600  1
  H  H514  1  0.223000  0.826200  0.689400  1
  H  H515  1  0.814400  0.192500  0.341000  1
  H  H516  1  0.185600  0.807500  0.659000  1
  H  H517  1  0.736300  0.189500  0.343700  1
  H  H518  1  0.263700  0.810500  0.656300  1
  H  H519  1  0.717000  0.710500  0.450000  1
  H  H520  1  0.283000  0.289500  0.550000  1
  H  H521  1  0.674200  0.764100  0.490300  1
  H  H522  1  0.325800  0.235900  0.509700  1
  H  H523  1  0.685500  0.655800  0.559200  1
  H  H524  1  0.314500  0.344200  0.440800  1
  H  H525  1  0.728300  0.602200  0.518900  1
  H  H526  1  0.271700  0.397800  0.481100  1
  H  H527  1  0.635000  0.776600  0.552200  1
  H  H528  1  0.365000  0.223400  0.447800  1
  H  H529  1  0.681100  0.744100  0.575200  1
  H  H530  1  0.318900  0.255900  0.424800  1
  H  H531  1  0.609200  0.727000  0.568700  1
  H  H532  1  0.390800  0.273000  0.431300  1
  H  H533  1  0.712400  0.575500  0.466200  1
  H  H534  1  0.287600  0.424500  0.533800  1
  H  H535  1  0.893100  0.551500  0.373300  1
  H  H536  1  0.106900  0.448500  0.626700  1
  H  H537  1  0.787700  0.436600  0.405900  1
  H  H538  1  0.212300  0.563400  0.594100  1
  H  H539  1  0.732800  0.485400  0.445900  1
  H  H540  1  0.267200  0.514600  0.554100  1
  H  H541  1  0.868000  0.509300  0.322400  1
  H  H542  1  0.132000  0.490700  0.677600  1
  H  H543  1  0.958100  0.354500  0.346800  1
  H  H544  1  0.041900  0.645500  0.653200  1
  H  H545  1  0.904200  0.400600  0.388500  1
  H  H546  1  0.095800  0.599400  0.611500  1
  H  H547  1  0.984300  0.340200  0.290400  1
  H  H548  1  0.015700  0.659800  0.709600  1
  H  H549  1  0.034300  0.415800  0.197600  1
  H  H550  1  0.965700  0.584200  0.802400  1
  H  H551  1  0.063900  0.363800  0.154100  1
  H  H552  1  0.936100  0.636200  0.845900  1
  H  H553  1  0.984100  0.251300  0.206200  1
  H  H554  1  0.015900  0.748700  0.793800  1
  H  H555  1  0.954500  0.303300  0.249700  1
  H  H556  1  0.045500  0.696700  0.750300  1
  H  H557  1  0.045500  0.235600  0.149600  1
  H  H558  1  0.954500  0.764400  0.850400  1
  H  H559  1  0.106400  0.270400  0.145500  1
  H  H560  1  0.893600  0.729600  0.854500  1
  H  H561  1  0.042800  0.282000  0.125200  1
  H  H562  1  0.957200  0.718000  0.874800  1
  H  H563  1  0.896700  0.062000  0.451000  1
  H  H564  1  0.103300  0.938000  0.549000  1
  H  H565  1  0.874500  0.061400  0.508000  1
  H  H566  1  0.125500  0.938600  0.492000  1
  H  H567  1  0.937800  0.920100  0.513300  1
  H  H568  1  0.062200  0.079900  0.486700  1
  H  H569  1  0.960000  0.920600  0.456300  1
  H  H570  1  0.040000  0.079400  0.543700  1
  H  H571  1  0.906000  0.956700  0.562200  1
  H  H572  1  0.094000  0.043300  0.437800  1
  H  H573  1  0.850100  0.998900  0.560600  1
  H  H574  1  0.149900  0.001100  0.439400  1
  H  H575  1  0.925000  0.012500  0.562700  1
  H  H576  1  0.075000  0.987500  0.437300  1
  H  H577  1  0.986100  0.046000  0.411400  1
  H  H578  1  0.013900  0.954000  0.588600  1
  H  H579  1  0.911700  0.966400  0.303600  1
  H  H580  1  0.088300  0.033600  0.696400  1
  H  H581  1  0.001700  0.095100  0.301200  1
  H  H582  1  0.998300  0.904900  0.698800  1
  H  H583  1  0.012100  0.088500  0.358000  1
  H  H584  1  0.987900  0.911500  0.642000  1
  H  H585  1  0.981300  0.965300  0.248400  1
  H  H586  1  0.018700  0.034700  0.751600  1
  H  H587  1  0.899300  0.115100  0.208500  1
  H  H588  1  0.100700  0.884900  0.791500  1
  H  H589  1  0.912500  0.103300  0.264800  1
  H  H590  1  0.087500  0.896700  0.735200  1
  H  H591  1  0.901200  0.071100  0.149600  1
  H  H592  1  0.098800  0.928900  0.850400  1
  H  H593  1  0.885400  0.939100  0.110500  1
  H  H594  1  0.114600  0.060900  0.889500  1
  H  H595  1  0.876400  0.937000  0.053600  1
  H  H596  1  0.123600  0.063000  0.946400  1
  H  H597  1  0.950400  0.071400  0.043800  1
  H  H598  1  0.049600  0.928600  0.956200  1
  H  H599  1  0.959400  0.073500  0.100700  1
  H  H600  1  0.040600  0.926500  0.899300  1
  H  H601  1  0.888200  0.973400  0.998100  1
  H  H602  1  0.111800  0.026600  0.001900  1
  H  H603  1  0.950500  0.006700  0.993400  1
  H  H604  1  0.049500  0.993300  0.006600  1
  H  H605  1  0.878400  0.031400  0.997700  1
  H  H606  1  0.121600  0.968600  0.002300  1
  H  H607  1  0.074600  0.092900  0.130400  1
  H  H608  1  0.925400  0.907100  0.869600  1
  H  H609  1  0.091400  0.163900  0.158700  1
  H  H610  1  0.908600  0.836100  0.841300  1
  H  H611  1  0.111000  0.084000  0.242700  1
  H  H612  1  0.889000  0.916000  0.757300  1
  H  H613  1  0.094200  0.013000  0.214300  1
  H  H614  1  0.905800  0.987000  0.785700  1
  H  H615  1  0.130800  0.168800  0.242000  1
  H  H616  1  0.869200  0.831200  0.758000  1
  H  H617  1  0.092900  0.201900  0.215900  1
  H  H618  1  0.907100  0.798100  0.784100  1
  H  H619  1  0.167400  0.184100  0.207800  1
  H  H620  1  0.832600  0.815900  0.792200  1
  H  H621  1  0.110900  0.018100  0.110700  1
  H  H622  1  0.889100  0.981900  0.889300  1
  H  H623  1  0.980800  0.861600  0.128600  1
  H  H624  1  0.019200  0.138400  0.871400  1
  H  H625  1  0.069900  0.900800  0.040300  1
  H  H626  1  0.930100  0.099200  0.959700  1
  H  H627  1  0.117000  0.963000  0.064500  1
  H  H628  1  0.883000  0.037000  0.935500  1
  H  H629  1  0.011100  0.785300  0.109100  1
  H  H630  1  0.988900  0.214700  0.890900  1
  H  H631  1  0.938300  0.783100  0.006200  1
  H  H632  1  0.061700  0.216900  0.993800  1
  H  H633  1  0.968800  0.853600  0.025300  1
  H  H634  1  0.031200  0.146400  0.974700  1
  H  H635  1  0.921000  0.690300  0.017900  1
  H  H636  1  0.079000  0.309700  0.982100  1
  H  H637  1  0.869300  0.589900  0.091700  1
  H  H638  1  0.130700  0.410100  0.908300  1
  H  H639  1  0.846200  0.511400  0.076000  1
  H  H640  1  0.153800  0.488600  0.924000  1
  H  H641  1  0.935400  0.537000  0.986100  1
  H  H642  1  0.064600  0.463000  0.013900  1
  H  H643  1  0.958500  0.615500  0.001900  1
  H  H644  1  0.041500  0.384500  0.998100  1
  H  H645  1  0.890700  0.454500  0.001700  1
  H  H646  1  0.109300  0.545500  0.998300  1
  H  H647  1  0.830400  0.456800  0.028500  1
  H  H648  1  0.169600  0.543200  0.971500  1
  H  H649  1  0.902700  0.442800  0.039500  1
  H  H650  1  0.097300  0.557200  0.960500  1
  H  H651  1  0.072300  0.649300  0.995200  1
  H  H652  1  0.927700  0.350700  0.004800  1
  H  H653  1  0.100200  0.707400  0.954500  1
  H  H654  1  0.899800  0.292600  0.045500  1
  H  H655  1  0.156400  0.797000  0.024200  1
  H  H656  1  0.843600  0.203000  0.975800  1
  H  H657  1  0.128500  0.738900  0.065000  1
  H  H658  1  0.871500  0.261100  0.935000  1
  H  H659  1  0.154500  0.783400  0.939000  1
  H  H660  1  0.845500  0.216600  0.061000  1
  H  H661  1  0.210500  0.791200  0.963900  1
  H  H662  1  0.789500  0.208800  0.036100  1
  H  H663  1  0.145500  0.825500  0.965500  1
  H  H664  1  0.854500  0.174500  0.034500  1
  H  H665  1  0.110000  0.596900  0.040600  1
  H  H666  1  0.890000  0.403100  0.959400  1
  H  H667  1  0.956500  0.582300  0.143600  1
  H  H668  1  0.043500  0.417700  0.856400  1
  H  H669  1  0.026600  0.460700  0.097000  1
  H  H670  1  0.973400  0.539300  0.903000  1
  H  H671  1  0.085200  0.508700  0.058300  1
  H  H672  1  0.914800  0.491300  0.941700  1
  H  H673  1  0.974900  0.517300  0.185500  1
  H  H674  1  0.025100  0.482700  0.814500  1
  H  H675  1  0.840200  0.398300  0.149400  1
  H  H676  1  0.159800  0.601700  0.850600  1
  H  H677  1  0.902000  0.444900  0.111100  1
  H  H678  1  0.098000  0.555100  0.888900  1
  H  H679  1  0.810000  0.386600  0.208300  1
  H  H680  1  0.190000  0.613400  0.791700  1
  H  H681  1  0.771200  0.452500  0.295500  1
  H  H682  1  0.228800  0.547500  0.704500  1
  H  H683  1  0.725700  0.413400  0.342600  1
  H  H684  1  0.274300  0.586600  0.657400  1
  H  H685  1  0.782900  0.282500  0.304600  1
  H  H686  1  0.217100  0.717500  0.695400  1
  H  H687  1  0.828300  0.321600  0.257500  1
  H  H688  1  0.171700  0.678400  0.742500  1
  H  H689  1  0.735100  0.277800  0.357500  1
  H  H690  1  0.264900  0.722200  0.642500  1
  H  H691  1  0.678700  0.318400  0.365800  1
  H  H692  1  0.321300  0.681600  0.634200  1
  H  H693  1  0.749500  0.322600  0.379900  1
  H  H694  1  0.250500  0.677400  0.620100  1
  H  H695  1  0.617200  0.486700  0.476200  1
  H  H696  1  0.382800  0.513300  0.523800  1
  H  H697  1  0.551800  0.484900  0.499700  1
  H  H698  1  0.448200  0.515100  0.500300  1
  H  H699  1  0.616700  0.506600  0.512800  1
  H  H700  1  0.383300  0.493400  0.487200  1
  H  H701  1  0.496400  0.261800  0.271500  1
  H  H702  1  0.503600  0.738200  0.728500  1
  H  H703  1  0.437700  0.248700  0.249400  1
  H  H704  1  0.562300  0.751300  0.750600  1
  H  H705  1  0.511100  0.230300  0.239200  1
  H  H706  1  0.488900  0.769700  0.760800  1
  H  H707  1  0.291800  0.877400  0.525100  1
  H  H708  1  0.708200  0.122600  0.474900  1
  H  H709  1  0.334400  0.851300  0.552600  1
  H  H710  1  0.665600  0.148700  0.447400  1
  H  H711  1  0.260500  0.836400  0.549000  1
  H  H712  1  0.739500  0.163600  0.451000  1
  H  H713  1  0.713800  0.353500  0.135200  1
  H  H714  1  0.286200  0.646500  0.864800  1
  H  H715  1  0.651600  0.320100  0.139200  1
  H  H716  1  0.348400  0.679900  0.860800  1
  H  H717  1  0.718300  0.303100  0.155500  1
  H  H718  1  0.281700  0.696900  0.844500  1
  H  H719  1  0.129100  0.784700  0.345900  1
  H  H720  1  0.870900  0.215300  0.654100  1
  H  H721  1  0.119000  0.728300  0.339900  1
  H  H722  1  0.881000  0.271700  0.660100  1
  H  H723  1  0.147500  0.762200  0.310500  1
  H  H724  1  0.852500  0.237800  0.689500  1
  H  H725  1  0.244500  0.625500  0.402400  1
  H  H726  1  0.755500  0.374500  0.597600  1
  H  H727  1  0.216200  0.615000  0.439200  1
  H  H728  1  0.783800  0.385000  0.560800  1
  H  H729  1  0.226900  0.669800  0.426500  1
  H  H730  1  0.773100  0.330200  0.573500  1
  H  H731  1  0.572500  0.067400  0.487900  1
  H  H732  1  0.427500  0.932600  0.512100  1
  H  H733  1  0.623500  0.022000  0.490000  1
  H  H734  1  0.376500  0.978000  0.510000  1
  H  H735  1  0.546900  0.013200  0.488800  1
  H  H736  1  0.453100  0.986800  0.511200  1
  H  H737  1  0.572000  0.930300  0.939500  1
  H  H738  1  0.428000  0.069700  0.060500  1
  H  H739  1  0.641800  0.954400  0.933800  1
  H  H740  1  0.358200  0.045600  0.066200  1
  H  H741  1  0.576100  0.985800  0.927300  1
  H  H742  1  0.423900  0.014200  0.072700  1
  H  H743  1  0.199200  0.982000  0.232600  1
  H  H744  1  0.800800  0.018000  0.767400  1
  H  H745  1  0.189700  0.019900  0.261900  1
  H  H746  1  0.810300  0.980100  0.738100  1
  H  H747  1  0.180200  0.963100  0.269200  1
  H  H748  1  0.819800  0.036900  0.730800  1
  H  H749  1  0.206500  0.839700  0.448300  1
  H  H750  1  0.793500  0.160300  0.551700  1
  H  H751  1  0.209400  0.787300  0.431800  1
  H  H752  1  0.790600  0.212700  0.568200  1
  H  H753  1  0.163400  0.797000  0.464400  1
  H  H754  1  0.836600  0.203000  0.535600  1
  H  H755  1  0.782000  0.198600  0.130000  1
  H  H756  1  0.218000  0.801400  0.870000  1
  H  H757  1  0.823800  0.174200  0.158400  1
  H  H758  1  0.176200  0.825800  0.841600  1
  H  H759  1  0.746400  0.183700  0.164600  1
  H  H760  1  0.253600  0.816300  0.835400  1
  H  H761  1  0.624500  0.418200  0.982200  1
  H  H762  1  0.375500  0.581800  0.017800  1
  H  H763  1  0.551700  0.412700  0.998200  1
  H  H764  1  0.448300  0.587300  0.001800  1
  H  H765  1  0.612900  0.407900  0.020900  1
  H  H766  1  0.387100  0.592100  0.979100  1
  H  H767  1  0.254500  0.937900  0.087400  1
  H  H768  1  0.745500  0.062100  0.912600  1
  H  H769  1  0.264500  0.993100  0.096900  1
  H  H770  1  0.735500  0.006900  0.903100  1
  H  H771  1  0.240700  0.954600  0.124600  1
  H  H772  1  0.759300  0.045400  0.875400  1
  H  H773  1  0.340700  0.827700  0.222300  1
  H  H774  1  0.659300  0.172300  0.777700  1
  H  H775  1  0.351200  0.882600  0.209900  1
  H  H776  1  0.648800  0.117400  0.790100  1
  H  H777  1  0.348600  0.840200  0.183800  1
  H  H778  1  0.651400  0.159800  0.816200  1
  H  H779  1  0.835400  0.781300  0.951400  1
  H  H780  1  0.164600  0.218700  0.048600  1
  H  H781  1  0.796000  0.753600  0.925200  1
  H  H782  1  0.204000  0.246400  0.074800  1
  H  H783  1  0.868800  0.735100  0.932900  1
  H  H784  1  0.131200  0.264900  0.067100  1
  H  H785  1  0.346800  0.400500  0.392800  1
  H  H786  1  0.653200  0.599500  0.607200  1
  H  H787  1  0.394300  0.353400  0.387200  1
  H  H788  1  0.605700  0.646600  0.612800  1
  H  H789  1  0.319400  0.352500  0.378000  1
  H  H790  1  0.680600  0.647500  0.622000  1
  H  H791  1  0.274400  0.749700  0.036700  1
  H  H792  1  0.725600  0.250300  0.963300  1
  H  H793  1  0.245600  0.701200  0.053400  1
  H  H794  1  0.754400  0.298800  0.946600  1
  H  H795  1  0.284600  0.699100  0.018200  1
  H  H796  1  0.715400  0.300900  0.981800  1
  H  H797  1  0.337400  0.723000  0.179400  1
  H  H798  1  0.662600  0.277000  0.820600  1
  H  H799  1  0.354200  0.721100  0.140600  1
  H  H800  1  0.645800  0.278900  0.859400  1
  H  H801  1  0.350900  0.671700  0.162000  1
  H  H802  1  0.649100  0.328300  0.838000  1
  H  H803  1  0.165200  0.580400  0.250200  1
  H  H804  1  0.834800  0.419600  0.749800  1
  H  H805  1  0.175800  0.634400  0.236000  1
  H  H806  1  0.824200  0.365600  0.764000  1
  H  H807  1  0.173900  0.623900  0.274800  1
  H  H808  1  0.826100  0.376100  0.725200  1
  H  H809  1  0.259500  0.421800  0.302900  1
  H  H810  1  0.740500  0.578200  0.697100  1
  H  H811  1  0.282700  0.440300  0.266700  1
  H  H812  1  0.717300  0.559700  0.733300  1
  H  H813  1  0.246900  0.389800  0.271800  1
  H  H814  1  0.753100  0.610200  0.728200  1
  H  H815  1  0.898400  0.395600  0.505900  1
  H  H816  1  0.101600  0.604400  0.494100  1
  H  H817  1  0.972200  0.394900  0.490500  1
  H  H818  1  0.027800  0.605100  0.509500  1
  H  H819  1  0.912600  0.392300  0.467000  1
  H  H820  1  0.087400  0.607700  0.533000  1
  H  H821  1  0.774800  0.196700  0.352900  1
  H  H822  1  0.225200  0.803300  0.647100  1
  H  H823  1  0.737400  0.178100  0.322500  1
  H  H824  1  0.262600  0.821900  0.677500  1
  H  H825  1  0.815500  0.181000  0.319900  1
  H  H826  1  0.184500  0.819000  0.680100  1
  H  H827  1  0.648600  0.721900  0.578500  1
  H  H828  1  0.351400  0.278100  0.421500  1
  H  H829  1  0.602400  0.754400  0.555500  1
  H  H830  1  0.397600  0.245600  0.444500  1
  H  H831  1  0.674300  0.771500  0.562000  1
  H  H832  1  0.325700  0.228500  0.438000  1
  H  H833  1  0.084300  0.289700  0.130600  1
  H  H834  1  0.915700  0.710300  0.869400  1
  H  H835  1  0.023400  0.254900  0.134700  1
  H  H836  1  0.976600  0.745100  0.865300  1
  H  H837  1  0.087000  0.243400  0.155000  1
  H  H838  1  0.913000  0.756600  0.845000  1
  H  H839  1  0.881400  0.022000  0.561500  1
  H  H840  1  0.118600  0.978000  0.438500  1
  H  H841  1  0.937400  0.979800  0.563000  1
  H  H842  1  0.062600  0.020200  0.437000  1
  H  H843  1  0.862400  0.966200  0.561000  1
  H  H844  1  0.137600  0.033800  0.439000  1
  H  H845  1  0.923200  0.034300  0.994600  1
  H  H846  1  0.076800  0.965700  0.005400  1
  H  H847  1  0.860900  0.000900  0.999400  1
  H  H848  1  0.139100  0.999100  0.000600  1
  H  H849  1  0.933000  0.976300  0.995100  1
  H  H850  1  0.067000  0.023700  0.004900  1
  H  H851  1  0.129900  0.201100  0.201800  1
  H  H852  1  0.870100  0.798900  0.798200  1
  H  H853  1  0.167900  0.168000  0.227900  1
  H  H854  1  0.832100  0.832000  0.772100  1
  H  H855  1  0.093300  0.185700  0.236000  1
  H  H856  1  0.906700  0.814300  0.764000  1
  H  H857  1  0.858500  0.448200  0.044800  1
  H  H858  1  0.141500  0.551800  0.955200  1
  H  H859  1  0.918800  0.446000  0.017900  1
  H  H860  1  0.081200  0.554000  0.982100  1
  H  H861  1  0.846500  0.459900  0.006900  1
  H  H862  1  0.153500  0.540100  0.993100  1
  H  H863  1  0.185800  0.816700  0.973300  1
  H  H864  1  0.814200  0.183300  0.026700  1
  H  H865  1  0.129800  0.808900  0.948300  1
  H  H866  1  0.870200  0.191100  0.051700  1
  H  H867  1  0.194900  0.774500  0.946800  1
  H  H868  1  0.805100  0.225500  0.053200  1
  H  H869  1  0.707100  0.334800  0.378000  1
  H  H870  1  0.292900  0.665200  0.622000  1
  H  H871  1  0.763500  0.294200  0.369700  1
  H  H872  1  0.236500  0.705800  0.630300  1
  H  H873  1  0.692600  0.290000  0.355500  1
  H  H874  1  0.307400  0.710000  0.644500  1
  C  C875  1  0.545500  0.647800  0.461100  1
  C  C876  1  0.454500  0.352200  0.538900  1
  C  C877  1  0.527700  0.633200  0.493200  1
  C  C878  1  0.472300  0.366800  0.506800  1
  C  C879  1  0.540100  0.585300  0.503400  1
  C  C880  1  0.459900  0.414700  0.496600  1
  C  C881  1  0.570200  0.552100  0.481600  1
  C  C882  1  0.429800  0.447900  0.518400  1
  C  C883  1  0.588000  0.566700  0.449600  1
  C  C884  1  0.412000  0.433300  0.550400  1
  C  C885  1  0.575700  0.614600  0.439300  1
  C  C886  1  0.424300  0.385400  0.560700  1
  C  C887  1  0.591000  0.503500  0.493600  1
  C  C888  1  0.409000  0.496500  0.506400  1
  C  C889  1  0.536500  0.733100  0.462200  1
  C  C890  1  0.463500  0.266900  0.537800  1
  C  C891  1  0.517100  0.779000  0.453500  1
  C  C892  1  0.482900  0.221000  0.546500  1
  C  C893  1  0.480300  0.828300  0.408100  1
  C  C894  1  0.519700  0.171700  0.591900  1
  C  C895  1  0.492700  0.870100  0.424800  1
  C  C896  1  0.507300  0.129900  0.575200  1
  C  C897  1  0.517400  0.866400  0.455800  1
  C  C898  1  0.482600  0.133600  0.544200  1
  C  C899  1  0.529600  0.820800  0.470200  1
  C  C900  1  0.470400  0.179200  0.529800  1
  C  C901  1  0.479600  0.918300  0.408900  1
  C  C902  1  0.520400  0.081700  0.591100  1
  C  C903  1  0.500300  0.924000  0.376000  1
  C  C904  1  0.499700  0.076000  0.624000  1
  C  C905  1  0.456100  0.006500  0.376100  1
  C  C906  1  0.543900  0.993500  0.623900  1
  C  C907  1  0.435400  0.000800  0.409000  1
  C  C908  1  0.564600  0.999200  0.591000  1
  C  C909  1  0.447100  0.956700  0.425400  1
  C  C910  1  0.552900  0.043300  0.574600  1
  C  C911  1  0.446700  0.052200  0.362600  1
  C  C912  1  0.553300  0.947800  0.637400  1
  C  C913  1  0.470700  0.103100  0.312200  1
  C  C914  1  0.529300  0.896900  0.687800  1
  C  C915  1  0.486100  0.145300  0.327600  1
  C  C916  1  0.513900  0.854700  0.672400  1
  C  C917  1  0.485600  0.189500  0.310300  1
  C  C918  1  0.514400  0.810500  0.689700  1
  C  C919  1  0.469700  0.191400  0.277600  1
  C  C920  1  0.530300  0.808600  0.722400  1
  C  C921  1  0.454300  0.149200  0.262200  1
  C  C922  1  0.545700  0.850800  0.737800  1
  C  C923  1  0.454800  0.105000  0.279500  1
  C  C924  1  0.545200  0.895000  0.720500  1
  C  C925  1  0.480000  0.237000  0.257700  1
  C  C926  1  0.520000  0.763000  0.742300  1
  C  C927  1  0.365800  0.740200  0.467000  1
  C  C928  1  0.634200  0.259800  0.533000  1
  C  C929  1  0.348200  0.787300  0.457000  1
  C  C930  1  0.651800  0.212700  0.543000  1
  C  C931  1  0.327300  0.821700  0.480100  1
  C  C932  1  0.672700  0.178300  0.519900  1
  C  C933  1  0.324000  0.808900  0.513400  1
  C  C934  1  0.676000  0.191100  0.486600  1
  C  C935  1  0.341700  0.761800  0.523400  1
  C  C936  1  0.658300  0.238200  0.476600  1
  C  C937  1  0.362600  0.727500  0.500200  1
  C  C938  1  0.637400  0.272500  0.499800  1
  C  C939  1  0.300700  0.846700  0.537000  1
  C  C940  1  0.699300  0.153300  0.463000  1
  C  C941  1  0.377800  0.660800  0.444900  1
  C  C942  1  0.622200  0.339200  0.555100  1
  C  C943  1  0.403500  0.626100  0.423500  1
  C  C944  1  0.596500  0.373900  0.576500  1
  C  C945  1  0.480900  0.609000  0.378100  1
  C  C946  1  0.519100  0.391000  0.621900  1
  C  C947  1  0.471300  0.559500  0.382600  1
  C  C948  1  0.528700  0.440500  0.617400  1
  C  C949  1  0.427800  0.543300  0.407600  1
  C  C950  1  0.572200  0.456700  0.592400  1
  C  C951  1  0.393900  0.576600  0.428100  1
  C  C952  1  0.606100  0.423400  0.571900  1
  C  C953  1  0.512800  0.525700  0.361300  1
  C  C954  1  0.487200  0.474300  0.638700  1
  C  C955  1  0.511500  0.538400  0.326500  1
  C  C956  1  0.488500  0.461600  0.673500  1
  C  C957  1  0.568900  0.464300  0.314100  1
  C  C958  1  0.431100  0.535700  0.685900  1
  C  C959  1  0.574900  0.454200  0.351700  1
  C  C960  1  0.425100  0.545800  0.648300  1
  C  C961  1  0.545600  0.485000  0.372200  1
  C  C962  1  0.454400  0.515000  0.627800  1
  C  C963  1  0.607700  0.435500  0.289100  1
  C  C964  1  0.392300  0.564500  0.710900  1
  C  C965  1  0.627500  0.415900  0.237100  1
  C  C966  1  0.372500  0.584100  0.762900  1
  C  C967  1  0.610300  0.367500  0.236800  1
  C  C968  1  0.389700  0.632500  0.763200  1
  C  C969  1  0.629200  0.339100  0.209900  1
  C  C970  1  0.370800  0.660900  0.790100  1
  C  C971  1  0.665200  0.359000  0.183300  1
  C  C972  1  0.334800  0.641000  0.816700  1
  C  C973  1  0.682300  0.407300  0.183600  1
  C  C974  1  0.317700  0.592700  0.816400  1
  C  C975  1  0.663500  0.435800  0.210500  1
  C  C976  1  0.336500  0.564200  0.789500  1
  C  C977  1  0.690000  0.331200  0.150000  1
  C  C978  1  0.310000  0.668800  0.850000  1
  C  C979  1  0.214100  0.744100  0.344100  1
  C  C980  1  0.785900  0.255900  0.655900  1
  C  C981  1  0.240100  0.774600  0.366200  1
  C  C982  1  0.759900  0.225400  0.633800  1
  C  C983  1  0.306600  0.770800  0.371700  1
  C  C984  1  0.693400  0.229200  0.628300  1
  C  C985  1  0.347000  0.736600  0.355000  1
  C  C986  1  0.653000  0.263400  0.645000  1
  C  C987  1  0.320900  0.706100  0.332800  1
  C  C988  1  0.679100  0.293900  0.667200  1
  C  C989  1  0.254500  0.709800  0.327400  1
  C  C990  1  0.745500  0.290200  0.672600  1
  C  C991  1  0.146700  0.755800  0.334300  1
  C  C992  1  0.853300  0.244200  0.665700  1
  C  C993  1  0.450000  0.725700  0.334300  1
  C  C994  1  0.550000  0.274300  0.665700  1
  C  C995  1  0.522200  0.720300  0.336300  1
  C  C996  1  0.477800  0.279700  0.663700  1
  C  C997  1  0.610500  0.713500  0.372900  1
  C  C998  1  0.389500  0.286500  0.627100  1
  C  C999  1  0.655500  0.711200  0.346000  1
  C  C1000  1  0.344500  0.288800  0.654000  1
  C  C1001  1  0.634000  0.713400  0.314300  1
  C  C1002  1  0.366000  0.286600  0.685700  1
  C  C1003  1  0.567300  0.718000  0.309500  1
  C  C1004  1  0.432700  0.282000  0.690500  1
  C  C1005  1  0.727900  0.702500  0.353000  1
  C  C1006  1  0.272100  0.297500  0.647000  1
  C  C1007  1  0.747900  0.677800  0.381000  1
  C  C1008  1  0.252100  0.322200  0.619000  1
  C  C1009  1  0.860600  0.689800  0.363400  1
  C  C1010  1  0.139400  0.310200  0.636600  1
  C  C1011  1  0.840600  0.714500  0.335400  1
  C  C1012  1  0.159400  0.285500  0.664600  1
  C  C1013  1  0.774200  0.720900  0.330200  1
  C  C1014  1  0.225800  0.279100  0.669800  1
  C  C1015  1  0.926800  0.682100  0.369000  1
  C  C1016  1  0.073200  0.317900  0.631000  1
  C  C1017  1  0.009800  0.649700  0.399900  1
  C  C1018  1  0.990200  0.350300  0.600100  1
  C  C1019  1  0.034000  0.661800  0.429700  1
  C  C1020  1  0.966000  0.338200  0.570300  1
  C  C1021  1  0.100900  0.657300  0.434000  1
  C  C1022  1  0.899100  0.342700  0.566000  1
  C  C1023  1  0.143600  0.640800  0.408500  1
  C  C1024  1  0.856400  0.359200  0.591500  1
  C  C1025  1  0.119400  0.628600  0.378700  1
  C  C1026  1  0.880600  0.371400  0.621300  1
  C  C1027  1  0.052500  0.633100  0.374400  1
  C  C1028  1  0.947500  0.366900  0.625600  1
  C  C1029  1  0.214000  0.637400  0.420200  1
  C  C1030  1  0.786000  0.362600  0.579800  1
  C  C1031  1  0.607100  0.034500  0.376700  1
  C  C1032  1  0.392900  0.965500  0.623300  1
  C  C1033  1  0.590000  0.077200  0.393200  1
  C  C1034  1  0.410000  0.922800  0.606800  1
  C  C1035  1  0.581300  0.076500  0.427300  1
  C  C1036  1  0.418700  0.923500  0.572700  1
  C  C1037  1  0.589700  0.033000  0.444900  1
  C  C1038  1  0.410300  0.967000  0.555100  1
  C  C1039  1  0.606700  0.990200  0.428400  1
  C  C1040  1  0.393300  0.009800  0.571600  1
  C  C1041  1  0.615500  0.991000  0.394300  1
  C  C1042  1  0.384500  0.009000  0.605700  1
  C  C1043  1  0.582500  0.034000  0.480900  1
  C  C1044  1  0.417500  0.966000  0.519100  1
  C  C1045  1  0.626300  0.069700  0.326300  1
  C  C1046  1  0.373700  0.930300  0.673700  1
  C  C1047  1  0.622000  0.069600  0.291000  1
  C  C1048  1  0.378000  0.930400  0.709000  1
  C  C1049  1  0.575400  0.032200  0.245500  1
  C  C1050  1  0.424600  0.967800  0.754500  1
  C  C1051  1  0.606300  0.065000  0.223900  1
  C  C1052  1  0.393700  0.935000  0.776100  1
  C  C1053  1  0.645000  0.100200  0.235900  1
  C  C1054  1  0.355000  0.899800  0.764100  1
  C  C1055  1  0.652900  0.102500  0.269400  1
  C  C1056  1  0.347100  0.897500  0.730600  1
  C  C1057  1  0.596600  0.065600  0.189900  1
  C  C1058  1  0.403400  0.934400  0.810100  1
  C  C1059  1  0.602200  0.020400  0.175100  1
  C  C1060  1  0.397800  0.979600  0.824900  1
  C  C1061  1  0.575900  0.058300  0.123400  1
  C  C1062  1  0.424100  0.941700  0.876600  1
  C  C1063  1  0.570300  0.103400  0.138300  1
  C  C1064  1  0.429700  0.896600  0.861700  1
  C  C1065  1  0.580600  0.107000  0.171500  1
  C  C1066  1  0.419400  0.893000  0.828500  1
  C  C1067  1  0.568100  0.042200  0.089600  1
  C  C1068  1  0.431900  0.957800  0.910400  1
  C  C1069  1  0.577100  0.999400  0.044300  1
  C  C1070  1  0.422900  0.000600  0.955700  1
  C  C1071  1  0.611700  0.029700  0.022400  1
  C  C1072  1  0.388300  0.970300  0.977600  1
  C  C1073  1  0.618800  0.018500  0.989300  1
  C  C1074  1  0.381200  0.981500  0.010700  1
  C  C1075  1  0.591400  0.977100  0.978000  1
  C  C1076  1  0.408600  0.022900  0.022000  1
  C  C1077  1  0.556800  0.946800  0.000000  1
  C  C1078  1  0.443200  0.053200  0.000000  1
  C  C1079  1  0.549600  0.957900  0.033100  1
  C  C1080  1  0.450400  0.042100  0.966900  1
  C  C1081  1  0.595700  0.960300  0.941100  1
  C  C1082  1  0.404300  0.039700  0.058900  1
  C  C1083  1  0.409800  0.964700  0.276100  1
  C  C1084  1  0.590200  0.035300  0.723900  1
  C  C1085  1  0.390900  0.961300  0.244100  1
  C  C1086  1  0.609100  0.038700  0.755900  1
  C  C1087  1  0.325400  0.968900  0.237300  1
  C  C1088  1  0.674600  0.031100  0.762700  1
  C  C1089  1  0.278900  0.980000  0.262600  1
  C  C1090  1  0.721100  0.020000  0.737400  1
  C  C1091  1  0.297800  0.983400  0.294600  1
  C  C1092  1  0.702200  0.016600  0.705400  1
  C  C1093  1  0.363300  0.975700  0.301400  1
  C  C1094  1  0.636700  0.024300  0.698600  1
  C  C1095  1  0.205000  0.986900  0.256000  1
  C  C1096  1  0.795000  0.013100  0.744000  1
  C  C1097  1  0.499800  0.910800  0.279400  1
  C  C1098  1  0.500200  0.089200  0.720600  1
  C  C1099  1  0.566100  0.900300  0.290100  1
  C  C1100  1  0.433900  0.099700  0.709900  1
  C  C1101  1  0.661800  0.929100  0.311200  1
  C  C1102  1  0.338200  0.070900  0.688800  1
  C  C1103  1  0.692600  0.884200  0.304500  1
  C  C1104  1  0.307400  0.115800  0.695500  1
  C  C1105  1  0.661600  0.847700  0.291000  1
  C  C1106  1  0.338400  0.152300  0.709000  1
  C  C1107  1  0.597300  0.852600  0.278800  1
  C  C1108  1  0.402700  0.147400  0.721200  1
  C  C1109  1  0.762200  0.878600  0.312200  1
  C  C1110  1  0.237800  0.121400  0.687800  1
  C  C1111  1  0.783800  0.905400  0.337700  1
  C  C1112  1  0.216200  0.094600  0.662300  1
  C  C1113  1  0.890900  0.866400  0.330100  1
  C  C1114  1  0.109100  0.133600  0.669900  1
  C  C1115  1  0.869300  0.839600  0.304700  1
  C  C1116  1  0.130700  0.160400  0.695300  1
  C  C1117  1  0.804900  0.845700  0.295700  1
  C  C1118  1  0.195100  0.154300  0.704300  1
  C  C1119  1  0.956700  0.854400  0.344200  1
  C  C1120  1  0.043300  0.145600  0.655800  1
  C  C1121  1  0.012100  0.859800  0.388600  1
  C  C1122  1  0.987900  0.140200  0.611400  1
  C  C1123  1  0.059400  0.892600  0.395000  1
  C  C1124  1  0.940600  0.107400  0.605000  1
  C  C1125  1  0.114200  0.876900  0.411500  1
  C  C1126  1  0.885800  0.123100  0.588500  1
  C  C1127  1  0.121800  0.828400  0.421500  1
  C  C1128  1  0.878200  0.171600  0.578500  1
  C  C1129  1  0.074400  0.795700  0.415000  1
  C  C1130  1  0.925600  0.204300  0.585000  1
  C  C1131  1  0.019600  0.811400  0.398600  1
  C  C1132  1  0.980400  0.188600  0.601400  1
  C  C1133  1  0.181000  0.811500  0.443600  1
  C  C1134  1  0.819000  0.188500  0.556400  1
  C  C1135  1  0.736600  0.033000  0.107600  1
  C  C1136  1  0.263400  0.967000  0.892400  1
  C  C1137  1  0.744500  0.074000  0.087400  1
  C  C1138  1  0.255500  0.926000  0.912600  1
  C  C1139  1  0.760700  0.117700  0.100600  1
  C  C1140  1  0.239300  0.882300  0.899400  1
  C  C1141  1  0.769000  0.120400  0.134100  1
  C  C1142  1  0.231000  0.879600  0.865900  1
  C  C1143  1  0.761100  0.079400  0.154300  1
  C  C1144  1  0.238900  0.920600  0.845700  1
  C  C1145  1  0.744900  0.035800  0.141100  1
  C  C1146  1  0.255100  0.964200  0.858900  1
  C  C1147  1  0.781600  0.174700  0.148200  1
  C  C1148  1  0.218400  0.825300  0.851800  1
  C  C1149  1  0.736100  0.976900  0.067800  1
  C  C1150  1  0.263900  0.023100  0.932200  1
  C  C1151  1  0.709100  0.932800  0.054400  1
  C  C1152  1  0.290900  0.067200  0.945600  1
  C  C1153  1  0.637300  0.866500  0.065600  1
  C  C1154  1  0.362700  0.133500  0.934400  1
  C  C1155  1  0.658200  0.846200  0.035600  1
  C  C1156  1  0.341800  0.153800  0.964400  1
  C  C1157  1  0.704600  0.869300  0.015100  1
  C  C1158  1  0.295400  0.130700  0.984900  1
  C  C1159  1  0.730100  0.912600  0.024500  1
  C  C1160  1  0.269900  0.087400  0.975500  1
  C  C1161  1  0.637300  0.803100  0.024000  1
  C  C1162  1  0.362700  0.196900  0.976000  1
  C  C1163  1  0.627900  0.763600  0.047700  1
  C  C1164  1  0.372100  0.236400  0.952300  1
  C  C1165  1  0.594000  0.710000  0.012100  1
  C  C1166  1  0.406000  0.290000  0.987900  1
  C  C1167  1  0.593800  0.745500  0.986000  1
  C  C1168  1  0.406200  0.254500  0.014000  1
  C  C1169  1  0.617100  0.790000  0.995800  1
  C  C1170  1  0.382900  0.210000  0.004200  1
  C  C1171  1  0.578600  0.664000  0.002800  1
  C  C1172  1  0.421400  0.336000  0.997200  1
  C  C1173  1  0.578400  0.578900  0.018300  1
  C  C1174  1  0.421600  0.421100  0.981700  1
  C  C1175  1  0.617800  0.561300  0.991900  1
  C  C1176  1  0.382200  0.438700  0.008100  1
  C  C1177  1  0.623500  0.511500  0.986500  1
  C  C1178  1  0.376500  0.488500  0.013500  1
  C  C1179  1  0.589700  0.479500  0.007500  1
  C  C1180  1  0.410300  0.520500  0.992500  1
  C  C1181  1  0.550300  0.497100  0.033900  1
  C  C1182  1  0.449700  0.502900  0.966100  1
  C  C1183  1  0.544600  0.546900  0.039300  1
  C  C1184  1  0.455400  0.453100  0.960700  1
  C  C1185  1  0.595200  0.424600  0.001700  1
  C  C1186  1  0.404800  0.575400  0.998300  1
  C  C1187  1  0.472200  0.926500  0.126700  1
  C  C1188  1  0.527800  0.073500  0.873300  1
  C  C1189  1  0.435100  0.963200  0.142800  1
  C  C1190  1  0.564900  0.036800  0.857200  1
  C  C1191  1  0.370400  0.972800  0.135200  1
  C  C1192  1  0.629600  0.027200  0.864800  1
  C  C1193  1  0.342800  0.945700  0.111600  1
  C  C1194  1  0.657200  0.054300  0.888400  1
  C  C1195  1  0.379800  0.908900  0.095600  1
  C  C1196  1  0.620200  0.091100  0.904400  1
  C  C1197  1  0.444500  0.899300  0.103200  1
  C  C1198  1  0.555500  0.100700  0.896800  1
  C  C1199  1  0.268000  0.959100  0.104500  1
  C  C1200  1  0.732000  0.040900  0.895500  1
  C  C1201  1  0.549400  0.890200  0.158900  1
  C  C1202  1  0.450600  0.109800  0.841100  1
  C  C1203  1  0.619900  0.884600  0.167300  1
  C  C1204  1  0.380100  0.115400  0.832700  1
  C  C1205  1  0.724400  0.901600  0.155600  1
  C  C1206  1  0.275600  0.098400  0.844400  1
  C  C1207  1  0.742700  0.871500  0.180400  1
  C  C1208  1  0.257300  0.128500  0.819600  1
  C  C1209  1  0.696700  0.845800  0.200600  1
  C  C1210  1  0.303300  0.154200  0.799400  1
  C  C1211  1  0.633600  0.855000  0.194400  1
  C  C1212  1  0.366400  0.145000  0.805600  1
  C  C1213  1  0.813200  0.869500  0.187200  1
  C  C1214  1  0.186800  0.130500  0.812800  1
  C  C1215  1  0.865000  0.907100  0.179200  1
  C  C1216  1  0.135000  0.092900  0.820800  1
  C  C1217  1  0.944300  0.858200  0.200100  1
  C  C1218  1  0.055700  0.141800  0.799900  1
  C  C1219  1  0.902400  0.822200  0.208200  1
  C  C1220  1  0.097600  0.177800  0.791800  1
  C  C1221  1  0.839000  0.826900  0.201100  1
  C  C1222  1  0.161000  0.173100  0.798900  1
  C  C1223  1  0.016100  0.853000  0.206800  1
  C  C1224  1  0.983900  0.147000  0.793200  1
  C  C1225  1  0.120600  0.885100  0.202400  1
  C  C1226  1  0.879400  0.114900  0.797600  1
  C  C1227  1  0.165300  0.907200  0.180400  1
  C  C1228  1  0.834700  0.092800  0.819600  1
  C  C1229  1  0.231800  0.895200  0.181400  1
  C  C1230  1  0.768200  0.104800  0.818600  1
  C  C1231  1  0.253600  0.861100  0.204300  1
  C  C1232  1  0.746400  0.138900  0.795700  1
  C  C1233  1  0.209000  0.838900  0.226300  1
  C  C1234  1  0.791000  0.161100  0.773700  1
  C  C1235  1  0.142400  0.850900  0.225300  1
  C  C1236  1  0.857600  0.149100  0.774700  1
  C  C1237  1  0.331000  0.852000  0.205100  1
  C  C1238  1  0.669000  0.148000  0.794900  1
  C  C1239  1  0.750600  0.656600  0.020300  1
  C  C1240  1  0.249400  0.343400  0.979700  1
  C  C1241  1  0.762100  0.638500  0.988900  1
  C  C1242  1  0.237900  0.361500  0.011100  1
  C  C1243  1  0.786800  0.668300  0.963500  1
  C  C1244  1  0.213200  0.331700  0.036500  1
  C  C1245  1  0.800000  0.716300  0.969600  1
  C  C1246  1  0.200000  0.283700  0.030400  1
  C  C1247  1  0.788500  0.734500  0.001000  1
  C  C1248  1  0.211500  0.265500  0.999000  1
  C  C1249  1  0.763800  0.704700  0.026400  1
  C  C1250  1  0.236200  0.295300  0.973600  1
  C  C1251  1  0.827000  0.749500  0.942400  1
  C  C1252  1  0.173000  0.250500  0.057600  1
  C  C1253  1  0.722900  0.584600  0.048000  1
  C  C1254  1  0.277100  0.415400  0.952000  1
  C  C1255  1  0.688600  0.555900  0.073300  1
  C  C1256  1  0.311400  0.444100  0.926700  1
  C  C1257  1  0.607700  0.560900  0.114800  1
  C  C1258  1  0.392300  0.439100  0.885200  1
  C  C1259  1  0.612500  0.512200  0.120200  1
  C  C1260  1  0.387500  0.487800  0.879800  1
  C  C1261  1  0.651000  0.483900  0.105000  1
  C  C1262  1  0.349000  0.516100  0.895000  1
  C  C1263  1  0.697000  0.508900  0.080600  1
  C  C1264  1  0.303000  0.491100  0.919400  1
  C  C1265  1  0.569800  0.494200  0.147900  1
  C  C1266  1  0.430200  0.505800  0.852100  1
  C  C1267  1  0.562600  0.515800  0.178500  1
  C  C1268  1  0.437400  0.484200  0.821500  1
  C  C1269  1  0.497000  0.449800  0.199200  1
  C  C1270  1  0.503000  0.550200  0.800800  1
  C  C1271  1  0.504300  0.428200  0.168600  1
  C  C1272  1  0.495700  0.571800  0.831400  1
  C  C1273  1  0.540700  0.450400  0.143000  1
  C  C1274  1  0.459300  0.549600  0.857000  1
  C  C1275  1  0.461700  0.434500  0.225000  1
  C  C1276  1  0.538300  0.565500  0.775000  1
  C  C1277  1  0.431000  0.429000  0.286600  1
  C  C1278  1  0.569000  0.571000  0.713400  1
  C  C1279  1  0.402900  0.459900  0.310400  1
  C  C1280  1  0.597100  0.540100  0.689600  1
  C  C1281  1  0.375500  0.440600  0.339700  1
  C  C1282  1  0.624500  0.559400  0.660300  1
  C  C1283  1  0.376200  0.390500  0.345100  1
  C  C1284  1  0.623800  0.609500  0.654900  1
  C  C1285  1  0.404300  0.359700  0.321200  1
  C  C1286  1  0.595700  0.640300  0.678800  1
  C  C1287  1  0.431700  0.378900  0.291900  1
  C  C1288  1  0.568300  0.621100  0.708100  1
  C  C1289  1  0.358000  0.373000  0.378600  1
  C  C1290  1  0.642000  0.627000  0.621400  1
  C  C1291  1  0.471200  0.691500  0.088900  1
  C  C1292  1  0.528800  0.308500  0.911100  1
  C  C1293  1  0.446400  0.737900  0.081300  1
  C  C1294  1  0.553600  0.262100  0.918700  1
  C  C1295  1  0.387500  0.743800  0.066100  1
  C  C1296  1  0.612500  0.256200  0.933900  1
  C  C1297  1  0.353400  0.703300  0.058400  1
  C  C1298  1  0.646600  0.296700  0.941600  1
  C  C1299  1  0.378200  0.656900  0.066000  1
  C  C1300  1  0.621800  0.343100  0.934000  1
  C  C1301  1  0.437100  0.650900  0.081200  1
  C  C1302  1  0.562900  0.349100  0.918800  1
  C  C1303  1  0.282000  0.714500  0.039700  1
  C  C1304  1  0.718000  0.285500  0.960300  1
  C  C1305  1  0.545200  0.709300  0.123800  1
  C  C1306  1  0.454800  0.290700  0.876200  1
  C  C1307  1  0.612300  0.699800  0.133100  1
  C  C1308  1  0.387700  0.300200  0.866900  1
  C  C1309  1  0.723400  0.676200  0.120500  1
  C  C1310  1  0.276600  0.323800  0.879500  1
  C  C1311  1  0.743700  0.695700  0.147800  1
  C  C1312  1  0.256300  0.304300  0.852200  1
  C  C1313  1  0.696100  0.722700  0.168000  1
  C  C1314  1  0.303900  0.277300  0.832000  1
  C  C1315  1  0.635800  0.724100  0.160000  1
  C  C1316  1  0.364200  0.275900  0.840000  1
  C  C1317  1  0.811800  0.692600  0.154200  1
  C  C1318  1  0.188200  0.307400  0.845800  1
  C  C1319  1  0.864100  0.687500  0.129400  1
  C  C1320  1  0.135900  0.312500  0.870600  1
  C  C1321  1  0.950300  0.688500  0.163100  1
  C  C1322  1  0.049700  0.311500  0.836900  1
  C  C1323  1  0.903700  0.688100  0.191500  1
  C  C1324  1  0.096300  0.311900  0.808500  1
  C  C1325  1  0.836600  0.694500  0.184700  1
  C  C1326  1  0.163400  0.305500  0.815300  1
  C  C1327  1  0.019500  0.685700  0.167300  1
  C  C1328  1  0.980500  0.314300  0.832700  1
  C  C1329  1  0.121800  0.690500  0.146200  1
  C  C1330  1  0.878200  0.309500  0.853800  1
  C  C1331  1  0.168100  0.669500  0.124000  1
  C  C1332  1  0.831900  0.330500  0.876000  1
  C  C1333  1  0.234500  0.675300  0.127600  1
  C  C1334  1  0.765500  0.324700  0.872400  1
  C  C1335  1  0.254500  0.702200  0.153400  1
  C  C1336  1  0.745500  0.297800  0.846600  1
  C  C1337  1  0.208200  0.723200  0.175600  1
  C  C1338  1  0.791800  0.276800  0.824400  1
  C  C1339  1  0.141800  0.717400  0.172000  1
  C  C1340  1  0.858200  0.282600  0.828000  1
  C  C1341  1  0.331900  0.704800  0.159400  1
  C  C1342  1  0.668100  0.295200  0.840600  1
  C  C1343  1  0.399400  0.588300  0.245100  1
  C  C1344  1  0.600600  0.411700  0.754900  1
  C  C1345  1  0.370400  0.634200  0.250400  1
  C  C1346  1  0.629600  0.365800  0.749600  1
  C  C1347  1  0.302500  0.640200  0.253400  1
  C  C1348  1  0.697500  0.359800  0.746600  1
  C  C1349  1  0.263700  0.600300  0.251100  1
  C  C1350  1  0.736300  0.399700  0.748900  1
  C  C1351  1  0.292700  0.554300  0.245800  1
  C  C1352  1  0.707300  0.445700  0.754200  1
  C  C1353  1  0.360600  0.548300  0.242800  1
  C  C1354  1  0.639400  0.451700  0.757200  1
  C  C1355  1  0.187500  0.610700  0.253200  1
  C  C1356  1  0.812500  0.389300  0.746800  1
  C  C1357  1  0.511500  0.614500  0.234000  1
  C  C1358  1  0.488500  0.385500  0.766000  1
  C  C1359  1  0.580000  0.605700  0.239800  1
  C  C1360  1  0.420000  0.394300  0.760200  1
  C  C1361  1  0.662800  0.559900  0.254400  1
  C  C1362  1  0.337200  0.440100  0.745600  1
  C  C1363  1  0.705400  0.597000  0.251000  1
  C  C1364  1  0.294600  0.403000  0.749000  1
  C  C1365  1  0.677800  0.640200  0.239800  1
  C  C1366  1  0.322200  0.359800  0.760200  1
  C  C1367  1  0.613200  0.647100  0.235000  1
  C  C1368  1  0.386800  0.352900  0.765000  1
  C  C1369  1  0.774900  0.586700  0.256100  1
  C  C1370  1  0.225100  0.413300  0.743900  1
  C  C1371  1  0.804000  0.540800  0.250900  1
  C  C1372  1  0.196000  0.459200  0.749100  1
  C  C1373  1  0.909000  0.571400  0.261800  1
  C  C1374  1  0.091000  0.428600  0.738200  1
  C  C1375  1  0.879900  0.617300  0.267000  1
  C  C1376  1  0.120100  0.382700  0.733000  1
  C  C1377  1  0.812800  0.625000  0.264200  1
  C  C1378  1  0.187200  0.375000  0.735800  1
  C  C1379  1  0.977000  0.558300  0.266900  1
  C  C1380  1  0.023000  0.441700  0.733100  1
  C  C1381  1  0.058800  0.494900  0.264300  1
  C  C1382  1  0.941200  0.505100  0.735700  1
  C  C1383  1  0.098700  0.476100  0.238400  1
  C  C1384  1  0.901300  0.523900  0.761600  1
  C  C1385  1  0.159200  0.453900  0.244500  1
  C  C1386  1  0.840800  0.546100  0.755500  1
  C  C1387  1  0.179800  0.450700  0.276400  1
  C  C1388  1  0.820200  0.549300  0.723600  1
  C  C1389  1  0.139900  0.469500  0.302200  1
  C  C1390  1  0.860100  0.530500  0.697800  1
  C  C1391  1  0.079400  0.491600  0.296200  1
  C  C1392  1  0.920600  0.508400  0.703800  1
  C  C1393  1  0.249000  0.423000  0.279800  1
  C  C1394  1  0.751000  0.577000  0.720200  1
  C  C1395  1  0.908800  0.559500  0.477800  1
  C  C1396  1  0.091200  0.440500  0.522200  1
  C  C1397  1  0.948500  0.533500  0.455000  1
  C  C1398  1  0.051500  0.466500  0.545000  1
  C  C1399  1  0.955900  0.483200  0.458200  1
  C  C1400  1  0.044100  0.516800  0.541800  1
  C  C1401  1  0.923500  0.458900  0.484300  1
  C  C1402  1  0.076500  0.541100  0.515700  1
  C  C1403  1  0.883900  0.484900  0.507100  1
  C  C1404  1  0.116100  0.515100  0.492900  1
  C  C1405  1  0.876500  0.535200  0.503900  1
  C  C1406  1  0.123500  0.464800  0.496100  1
  C  C1407  1  0.927000  0.406200  0.487200  1
  C  C1408  1  0.073000  0.593800  0.512800  1
  C  C1409  1  0.889600  0.641000  0.492700  1
  C  C1410  1  0.110400  0.359000  0.507300  1
  C  C1411  1  0.874100  0.693100  0.489800  1
  C  C1412  1  0.125900  0.306900  0.510200  1
  C  C1413  1  0.849500  0.750300  0.446200  1
  C  C1414  1  0.150500  0.249700  0.553800  1
  C  C1415  1  0.840100  0.787200  0.468900  1
  C  C1416  1  0.159900  0.212800  0.531100  1
  C  C1417  1  0.847700  0.777100  0.502100  1
  C  C1418  1  0.152300  0.222900  0.497900  1
  C  C1419  1  0.864700  0.730000  0.512500  1
  C  C1420  1  0.135300  0.270000  0.487500  1
  C  C1421  1  0.822300  0.836400  0.460300  1
  C  C1422  1  0.177700  0.163600  0.539700  1
  C  C1423  1  0.854800  0.853700  0.431700  1
  C  C1424  1  0.145200  0.146300  0.568300  1
  C  C1425  1  0.789700  0.928500  0.435200  1
  C  C1426  1  0.210300  0.071500  0.564800  1
  C  C1427  1  0.757100  0.911200  0.463700  1
  C  C1428  1  0.242900  0.088800  0.536300  1
  C  C1429  1  0.773400  0.865100  0.476300  1
  C  C1430  1  0.226600  0.134900  0.523700  1
  C  C1431  1  0.778700  0.975900  0.417700  1
  C  C1432  1  0.221300  0.024100  0.582300  1
  C  C1433  1  0.797300  0.033000  0.379900  1
  C  C1434  1  0.202700  0.967000  0.620100  1
  C  C1435  1  0.797000  0.035500  0.345800  1
  C  C1436  1  0.203000  0.964500  0.654200  1
  C  C1437  1  0.790200  0.080400  0.329700  1
  C  C1438  1  0.209800  0.919600  0.670300  1
  C  C1439  1  0.783700  0.122800  0.347800  1
  C  C1440  1  0.216300  0.877200  0.652200  1
  C  C1441  1  0.784000  0.120300  0.381900  1
  C  C1442  1  0.216000  0.879700  0.618100  1
  C  C1443  1  0.790800  0.075400  0.397900  1
  C  C1444  1  0.209200  0.924600  0.602100  1
  C  C1445  1  0.777300  0.174100  0.334600  1
  C  C1446  1  0.222700  0.825900  0.665400  1
  C  C1447  1  0.726700  0.651300  0.480700  1
  C  C1448  1  0.273300  0.348700  0.519300  1
  C  C1449  1  0.710600  0.699400  0.472200  1
  C  C1450  1  0.289400  0.300600  0.527800  1
  C  C1451  1  0.685200  0.731200  0.496100  1
  C  C1452  1  0.314800  0.268800  0.503900  1
  C  C1453  1  0.675800  0.715000  0.528600  1
  C  C1454  1  0.324200  0.285000  0.471400  1
  C  C1455  1  0.691900  0.666900  0.537000  1
  C  C1456  1  0.308100  0.333100  0.463000  1
  C  C1457  1  0.717300  0.635100  0.513100  1
  C  C1458  1  0.282700  0.364900  0.486900  1
  C  C1459  1  0.648000  0.743300  0.558900  1
  C  C1460  1  0.352000  0.256700  0.441100  1
  C  C1461  1  0.749400  0.584600  0.452700  1
  C  C1462  1  0.250600  0.415400  0.547300  1
  C  C1463  1  0.780300  0.547400  0.433300  1
  C  C1464  1  0.219700  0.452600  0.566700  1
  C  C1465  1  0.860500  0.538100  0.388000  1
  C  C1466  1  0.139500  0.461900  0.612000  1
  C  C1467  1  0.845500  0.489500  0.385800  1
  C  C1468  1  0.154500  0.510500  0.614200  1
  C  C1469  1  0.797900  0.469800  0.407400  1
  C  C1470  1  0.202100  0.530200  0.592600  1
  C  C1471  1  0.765300  0.498800  0.431100  1
  C  C1472  1  0.234700  0.501200  0.568900  1
  C  C1473  1  0.881000  0.459300  0.359300  1
  C  C1474  1  0.119000  0.540700  0.640700  1
  C  C1475  1  0.886300  0.477900  0.327300  1
  C  C1476  1  0.113700  0.522100  0.672700  1
  C  C1477  1  0.945000  0.404500  0.309800  1
  C  C1478  1  0.055000  0.595500  0.690200  1
  C  C1479  1  0.939800  0.385900  0.341800  1
  C  C1480  1  0.060200  0.614100  0.658200  1
  C  C1481  1  0.907800  0.413300  0.366600  1
  C  C1482  1  0.092200  0.586700  0.633400  1
  C  C1483  1  0.969000  0.372700  0.286100  1
  C  C1484  1  0.031000  0.627300  0.713900  1
  C  C1485  1  0.991600  0.364400  0.227700  1
  C  C1486  1  0.008400  0.635600  0.772300  1
  C  C1487  1  0.024100  0.382400  0.199300  1
  C  C1488  1  0.975900  0.617600  0.800700  1
  C  C1489  1  0.041700  0.351500  0.173500  1
  C  C1490  1  0.958300  0.648500  0.826500  1
  C  C1491  1  0.026800  0.302600  0.176000  1
  C  C1492  1  0.973200  0.697400  0.824000  1
  C  C1493  1  0.994300  0.284700  0.204400  1
  C  C1494  1  0.005700  0.715300  0.795600  1
  C  C1495  1  0.976700  0.315600  0.230300  1
  C  C1496  1  0.023300  0.684400  0.769700  1
  C  C1497  1  0.059000  0.269300  0.146100  1
  C  C1498  1  0.941000  0.730700  0.853900  1
  C  C1499  1  0.930500  0.991300  0.448300  1
  C  C1500  1  0.069500  0.008700  0.551700  1
  C  C1501  1  0.905100  0.033200  0.463700  1
  C  C1502  1  0.094900  0.966800  0.536300  1
  C  C1503  1  0.891900  0.032900  0.497500  1
  C  C1504  1  0.108100  0.967100  0.502500  1
  C  C1505  1  0.904100  0.990700  0.516000  1
  C  C1506  1  0.095900  0.009300  0.484000  1
  C  C1507  1  0.929400  0.948900  0.500600  1
  C  C1508  1  0.070600  0.051100  0.499400  1
  C  C1509  1  0.942700  0.949200  0.466800  1
  C  C1510  1  0.057300  0.050800  0.533200  1
  C  C1511  1  0.896000  0.989600  0.553800  1
  C  C1512  1  0.104000  0.010400  0.446200  1
  C  C1513  1  0.966000  0.022000  0.399300  1
  C  C1514  1  0.034000  0.978000  0.600700  1
  C  C1515  1  0.968100  0.023600  0.364600  1
  C  C1516  1  0.031900  0.976400  0.635400  1
  C  C1517  1  0.932000  0.991200  0.314600  1
  C  C1518  1  0.068000  0.008800  0.685400  1
  C  C1519  1  0.955700  0.031300  0.297100  1
  C  C1520  1  0.044300  0.968700  0.702900  1
  C  C1521  1  0.985600  0.067600  0.313200  1
  C  C1522  1  0.014400  0.932400  0.686800  1
  C  C1523  1  0.991700  0.063700  0.347000  1
  C  C1524  1  0.008300  0.936300  0.653000  1
  C  C1525  1  0.948200  0.033200  0.261900  1
  C  C1526  1  0.051800  0.966800  0.738100  1
  C  C1527  1  0.964700  0.995700  0.240300  1
  C  C1528  1  0.035300  0.004300  0.759700  1
  C  C1529  1  0.932500  0.047200  0.195000  1
  C  C1530  1  0.067500  0.952800  0.805000  1
  C  C1531  1  0.916000  0.084700  0.216600  1
  C  C1532  1  0.084000  0.915300  0.783400  1
  C  C1533  1  0.923800  0.077700  0.250000  1
  C  C1534  1  0.076200  0.922300  0.750000  1
  C  C1535  1  0.919100  0.043500  0.160800  1
  C  C1536  1  0.080900  0.956500  0.839200  1
  C  C1537  1  0.923200  0.006500  0.111000  1
  C  C1538  1  0.076800  0.993500  0.889000  1
  C  C1539  1  0.898600  0.965900  0.097000  1
  C  C1540  1  0.101400  0.034100  0.903000  1
  C  C1541  1  0.893300  0.964700  0.063200  1
  C  C1542  1  0.106700  0.035300  0.936800  1
  C  C1543  1  0.912500  0.004000  0.043400  1
  C  C1544  1  0.087500  0.996000  0.956600  1
  C  C1545  1  0.937200  0.044500  0.057400  1
  C  C1546  1  0.062800  0.955500  0.942600  1
  C  C1547  1  0.942500  0.045800  0.091200  1
  C  C1548  1  0.057500  0.954200  0.908800  1
  C  C1549  1  0.906900  0.003800  0.004300  1
  C  C1550  1  0.093100  0.996200  0.995700  1
  C  C1551  1  0.082800  0.046300  0.169700  1
  C  C1552  1  0.917200  0.953700  0.830300  1
  C  C1553  1  0.082000  0.091100  0.153200  1
  C  C1554  1  0.918000  0.908900  0.846800  1
  C  C1555  1  0.092000  0.133200  0.170000  1
  C  C1556  1  0.908000  0.866800  0.830000  1
  C  C1557  1  0.102800  0.130600  0.203400  1
  C  C1558  1  0.897200  0.869400  0.796600  1
  C  C1559  1  0.103600  0.085800  0.219900  1
  C  C1560  1  0.896400  0.914200  0.780100  1
  C  C1561  1  0.093600  0.043600  0.203000  1
  C  C1562  1  0.906400  0.956400  0.797000  1
  C  C1563  1  0.125000  0.175100  0.218600  1
  C  C1564  1  0.875000  0.824900  0.781400  1
  C  C1565  1  0.086400  0.994400  0.122800  1
  C  C1566  1  0.913600  0.005600  0.877200  1
  C  C1567  1  0.069500  0.955300  0.107400  1
  C  C1568  1  0.930500  0.044700  0.892600  1
  C  C1569  1  0.008000  0.881900  0.115100  1
  C  C1570  1  0.992000  0.118100  0.884900  1
  C  C1571  1  0.025000  0.868400  0.083200  1
  C  C1572  1  0.975000  0.131600  0.916800  1
  C  C1573  1  0.062700  0.905000  0.063400  1
  C  C1574  1  0.937300  0.095000  0.936600  1
  C  C1575  1  0.086800  0.943600  0.077000  1
  C  C1576  1  0.913200  0.056400  0.923000  1
  C  C1577  1  0.997800  0.829500  0.068500  1
  C  C1578  1  0.002200  0.170500  0.931500  1
  C  C1579  1  0.998500  0.784200  0.087100  1
  C  C1580  1  0.001500  0.215800  0.912900  1
  C  C1581  1  0.953300  0.742100  0.045100  1
  C  C1582  1  0.046700  0.257900  0.954900  1
  C  C1583  1  0.953200  0.783300  0.027800  1
  C  C1584  1  0.046800  0.216700  0.972200  1
  C  C1585  1  0.972700  0.825300  0.038900  1
  C  C1586  1  0.027300  0.174700  0.961100  1
  C  C1587  1  0.935000  0.694700  0.039400  1
  C  C1588  1  0.065000  0.305300  0.960600  1
  C  C1589  1  0.916100  0.610100  0.048300  1
  C  C1590  1  0.083900  0.389900  0.951700  1
  C  C1591  1  0.882700  0.579200  0.070300  1
  C  C1592  1  0.117300  0.420800  0.929700  1
  C  C1593  1  0.869000  0.532600  0.060900  1
  C  C1594  1  0.131000  0.467400  0.939100  1
  C  C1595  1  0.888600  0.516900  0.029600  1
  C  C1596  1  0.111400  0.483100  0.970400  1
  C  C1597  1  0.922000  0.547800  0.007600  1
  C  C1598  1  0.078000  0.452200  0.992400  1
  C  C1599  1  0.935700  0.594400  0.016900  1
  C  C1600  1  0.064300  0.405600  0.983100  1
  C  C1601  1  0.877100  0.462800  0.024300  1
  C  C1602  1  0.122900  0.537200  0.975700  1
  C  C1603  1  0.097800  0.688600  0.033900  1
  C  C1604  1  0.902200  0.311400  0.966100  1
  C  C1605  1  0.089400  0.679300  0.001100  1
  C  C1606  1  0.910600  0.320700  0.998900  1
  C  C1607  1  0.106000  0.713800  0.976900  1
  C  C1608  1  0.894000  0.286200  0.023100  1
  C  C1609  1  0.131000  0.757600  0.985500  1
  C  C1610  1  0.869000  0.242400  0.014500  1
  C  C1611  1  0.139300  0.767000  0.018300  1
  C  C1612  1  0.860700  0.233000  0.981700  1
  C  C1613  1  0.122700  0.732500  0.042600  1
  C  C1614  1  0.877300  0.267500  0.957400  1
  C  C1615  1  0.163000  0.792400  0.961400  1
  C  C1616  1  0.837000  0.207600  0.038600  1
  C  C1617  1  0.082000  0.608300  0.058400  1
  C  C1618  1  0.918000  0.391700  0.941600  1
  C  C1619  1  0.055700  0.574100  0.078000  1
  C  C1620  1  0.944300  0.425900  0.922000  1
  C  C1621  1  0.982600  0.567400  0.126300  1
  C  C1622  1  0.017400  0.432600  0.873700  1
  C  C1623  1  0.986000  0.517000  0.123900  1
  C  C1624  1  0.014000  0.483000  0.876100  1
  C  C1625  1  0.024300  0.495100  0.098600  1
  C  C1626  1  0.975700  0.504900  0.901400  1
  C  C1627  1  0.059100  0.523700  0.075600  1
  C  C1628  1  0.940900  0.476300  0.924400  1
  C  C1629  1  0.944300  0.485500  0.144700  1
  C  C1630  1  0.055700  0.514500  0.855300  1
  C  C1631  1  0.947600  0.493100  0.178100  1
  C  C1632  1  0.052400  0.506900  0.821900  1
  C  C1633  1  0.870900  0.430100  0.190100  1
  C  C1634  1  0.129100  0.569900  0.809900  1
  C  C1635  1  0.867600  0.422400  0.156700  1
  C  C1636  1  0.132400  0.577600  0.843300  1
  C  C1637  1  0.904300  0.450100  0.134000  1
  C  C1638  1  0.095700  0.549900  0.866000  1
  C  C1639  1  0.837800  0.411100  0.214800  1
  C  C1640  1  0.162200  0.588900  0.785200  1
  C  C1641  1  0.804000  0.390800  0.272100  1
  C  C1642  1  0.196000  0.609200  0.727900  1
  C  C1643  1  0.773500  0.418000  0.297400  1
  C  C1644  1  0.226500  0.582000  0.702600  1
  C  C1645  1  0.746600  0.394700  0.325300  1
  C  C1646  1  0.253400  0.605300  0.674700  1
  C  C1647  1  0.750000  0.344200  0.328000  1
  C  C1648  1  0.250000  0.655800  0.672000  1
  C  C1649  1  0.780500  0.317000  0.302700  1
  C  C1650  1  0.219500  0.683000  0.697300  1
  C  C1651  1  0.807500  0.340300  0.274800  1
  C  C1652  1  0.192500  0.659700  0.725200  1
  C  C1653  1  0.726000  0.312600  0.361200  1
  C  C1654  1  0.274000  0.687400  0.638800  1
  N  N1655  1  0.492500  0.782800  0.422400  1
  N  N1656  1  0.507500  0.217200  0.577600  1
  N  N1657  1  0.488600  0.968100  0.359600  1
  N  N1658  1  0.511400  0.031900  0.640400  1
  N  N1659  1  0.447000  0.642300  0.398500  1
  N  N1660  1  0.553000  0.357700  0.601500  1
  N  N1661  1  0.543800  0.718100  0.368100  1
  N  N1662  1  0.456200  0.281900  0.631900  1
  N  N1663  1  0.814300  0.671500  0.386200  1
  N  N1664  1  0.185700  0.328500  0.613800  1
  N  N1665  1  0.583200  0.034500  0.279000  1
  N  N1666  1  0.416800  0.965500  0.721000  1
  N  N1667  1  0.591900  0.016800  0.141900  1
  N  N1668  1  0.408100  0.983200  0.858100  1
  N  N1669  1  0.848100  0.899300  0.346600  1
  N  N1670  1  0.151900  0.100700  0.653400  1
  N  N1671  1  0.662700  0.909800  0.075000  1
  N  N1672  1  0.337300  0.090200  0.925000  1
  N  N1673  1  0.526200  0.493600  0.204100  1
  N  N1674  1  0.473800  0.506400  0.795900  1
  N  N1675  1  0.871100  0.533200  0.253700  1
  N  N1676  1  0.128900  0.466800  0.746300  1
  N  N1677  1  0.866500  0.703300  0.456600  1
  N  N1678  1  0.133500  0.296700  0.543400  1
  N  N1679  1  0.838600  0.899800  0.419200  1
  N  N1680  1  0.161400  0.100200  0.580800  1
  N  N1681  1  0.827900  0.567100  0.411700  1
  N  N1682  1  0.172100  0.432900  0.588300  1
  N  N1683  1  0.918300  0.450500  0.302600  1
  N  N1684  1  0.081700  0.549500  0.697400  1
  N  N1685  1  0.938200  0.987300  0.348400  1
  N  N1686  1  0.061800  0.012700  0.651600  1
  N  N1687  1  0.956800  0.002700  0.206800  1
  N  N1688  1  0.043200  0.997300  0.793200  1
  N  N1689  1  0.017500  0.595900  0.103300  1
  N  N1690  1  0.982500  0.404100  0.896700  1
  N  N1691  1  0.910900  0.465400  0.200900  1
  N  N1692  1  0.089100  0.534600  0.799100  1
  N  N1693  1  0.529500  0.694700  0.446600  1
  N  N1694  1  0.470500  0.305300  0.553400  1
  N  N1695  1  0.467000  0.057400  0.329700  1
  N  N1696  1  0.533000  0.942600  0.670300  1
  N  N1697  1  0.387900  0.707900  0.442800  1
  N  N1698  1  0.612100  0.292100  0.557200  1
  N  N1699  1  0.542800  0.506100  0.303700  1
  N  N1700  1  0.457200  0.493900  0.696300  1
  N  N1701  1  0.599900  0.448700  0.260800  1
  N  N1702  1  0.400100  0.551300  0.739200  1
  N  N1703  1  0.416600  0.728200  0.360100  1
  N  N1704  1  0.583400  0.271800  0.639900  1
  N  N1705  1  0.941300  0.656800  0.396100  1
  N  N1706  1  0.058700  0.343200  0.603900  1
  N  N1707  1  0.601200  0.035100  0.342100  1
  N  N1708  1  0.398800  0.964900  0.657900  1
  N  N1709  1  0.576000  0.003000  0.077500  1
  N  N1710  1  0.424000  0.997000  0.922500  1
  N  N1711  1  0.474800  0.952100  0.285600  1
  N  N1712  1  0.525200  0.047900  0.714400  1
  N  N1713  1  0.595100  0.935100  0.305300  1
  N  N1714  1  0.404900  0.064900  0.694700  1
  N  N1715  1  0.964500  0.878900  0.368100  1
  N  N1716  1  0.035500  0.121100  0.631900  1
  N  N1717  1  0.713500  0.989400  0.096900  1
  N  N1718  1  0.286500  0.010600  0.903100  1
  N  N1719  1  0.611400  0.716200  0.042800  1
  N  N1720  1  0.388600  0.283800  0.957200  1
  N  N1721  1  0.581800  0.628600  0.028300  1
  N  N1722  1  0.418200  0.371400  0.971700  1
  N  N1723  1  0.538500  0.916700  0.134000  1
  N  N1724  1  0.461500  0.083300  0.866000  1
  N  N1725  1  0.661500  0.908300  0.147200  1
  N  N1726  1  0.338500  0.091700  0.852800  1
  N  N1727  1  0.924500  0.901500  0.186800  1
  N  N1728  1  0.075500  0.098500  0.813200  1
  N  N1729  1  0.048100  0.892900  0.199000  1
  N  N1730  1  0.951900  0.107100  0.801000  1
  N  N1731  1  0.712600  0.628200  0.046000  1
  N  N1732  1  0.287400  0.371800  0.954000  1
  N  N1733  1  0.640200  0.586500  0.088300  1
  N  N1734  1  0.359800  0.413500  0.911700  1
  N  N1735  1  0.465500  0.451800  0.254000  1
  N  N1736  1  0.534500  0.548200  0.746000  1
  N  N1737  1  0.538000  0.681400  0.101400  1
  N  N1738  1  0.462000  0.318600  0.898600  1
  N  N1739  1  0.661000  0.682400  0.111200  1
  N  N1740  1  0.339000  0.317600  0.888800  1
  N  N1741  1  0.927100  0.684400  0.134100  1
  N  N1742  1  0.072900  0.315600  0.865900  1
  N  N1743  1  0.054200  0.690700  0.140900  1
  N  N1744  1  0.945800  0.309300  0.859100  1
  N  N1745  1  0.472600  0.578000  0.246100  1
  N  N1746  1  0.527400  0.422000  0.753900  1
  N  N1747  1  0.599900  0.563200  0.251700  1
  N  N1748  1  0.400100  0.436800  0.748300  1
  N  N1749  1  0.993400  0.513300  0.258500  1
  N  N1750  1  0.006600  0.486700  0.741500  1
  N  N1751  1  0.895400  0.612900  0.470800  1
  N  N1752  1  0.104600  0.387100  0.529200  1
  N  N1753  1  0.812200  0.988800  0.392100  1
  N  N1754  1  0.187800  0.011200  0.607900  1
  N  N1755  1  0.764200  0.627000  0.454200  1
  N  N1756  1  0.235800  0.373000  0.545800  1
  N  N1757  1  0.968500  0.393100  0.256700  1
  N  N1758  1  0.031500  0.606900  0.743300  1
  N  N1759  1  0.938600  0.989300  0.412500  1
  N  N1760  1  0.061400  0.010700  0.587500  1
  N  N1761  1  0.929900  0.006600  0.146300  1
  N  N1762  1  0.070100  0.993400  0.853700  1
  N  N1763  1  0.070900  0.001800  0.154000  1
  N  N1764  1  0.929100  0.998200  0.846000  1
  N  N1765  1  0.028700  0.923000  0.127400  1
  N  N1766  1  0.971300  0.077000  0.872600  1
  N  N1767  1  0.982600  0.739900  0.076100  1
  N  N1768  1  0.017400  0.260100  0.923900  1
  N  N1769  1  0.933500  0.655800  0.057700  1
  N  N1770  1  0.066500  0.344200  0.942300  1
  N  N1771  1  0.074700  0.653700  0.060400  1
  N  N1772  1  0.925300  0.346300  0.939600  1
  N  N1773  1  0.833500  0.417100  0.245800  1
  N  N1774  1  0.166500  0.582900  0.754200  1
  Cl  Cl1775  1  0.745800  0.749500  0.250400  1
  Cl  Cl1776  1  0.254200  0.250500  0.749600  1
  F  F1777  1  0.711700  0.961000  0.231400  1
  F  F1778  1  0.288300  0.039000  0.768600  1
  F  F1779  1  0.809300  0.947000  0.250200  1
  F  F1780  1  0.190700  0.053000  0.749800  1
  F  F1781  1  0.786400  0.015600  0.224200  1
  F  F1782  1  0.213600  0.984400  0.775800  1
  F  F1783  1  0.741100  0.001000  0.273500  1
  F  F1784  1  0.258900  0.999000  0.726500  1
  F  F1785  1  0.731900  0.809000  0.110600  1
  F  F1786  1  0.268100  0.191000  0.889400  1
  F  F1787  1  0.836800  0.802700  0.127300  1
  F  F1788  1  0.163200  0.197300  0.872700  1
  F  F1789  1  0.805500  0.861200  0.090500  1
  F  F1790  1  0.194500  0.138800  0.909500  1
  F  F1791  1  0.814000  0.778800  0.078700  1
  F  F1792  1  0.186000  0.221200  0.921300  1
  F  F1793  1  0.711600  0.584400  0.170600  1
  F  F1794  1  0.288400  0.415600  0.829400  1
  F  F1795  1  0.757300  0.515100  0.174700  1
  F  F1796  1  0.242700  0.484900  0.825300  1
  F  F1797  1  0.775600  0.562500  0.130400  1
  F  F1798  1  0.224400  0.437500  0.869600  1
  F  F1799  1  0.820800  0.581200  0.177000  1
  F  F1800  1  0.179200  0.418800  0.823000  1
  F  F1801  1  0.755800  0.585600  0.335800  1
  F  F1802  1  0.244200  0.414400  0.664200  1
  F  F1803  1  0.657300  0.596400  0.327000  1
  F  F1804  1  0.342700  0.403600  0.673000  1
  F  F1805  1  0.706000  0.522500  0.327400  1
  F  F1806  1  0.294000  0.477500  0.672600  1
  F  F1807  1  0.687300  0.566700  0.376500  1
  F  F1808  1  0.312700  0.433300  0.623500  1
  F  F1809  1  0.659900  0.813700  0.367100  1
  F  F1810  1  0.340100  0.186300  0.632900  1
  F  F1811  1  0.764300  0.809000  0.386900  1
  F  F1812  1  0.235700  0.191000  0.613100  1
  F  F1813  1  0.692100  0.872100  0.401700  1
  F  F1814  1  0.307900  0.127900  0.598300  1
  F  F1815  1  0.668300  0.793500  0.420000  1
  F  F1816  1  0.331700  0.206500  0.580000  1
  F  F1817  1  0.477100  0.763600  0.191800  1
  F  F1818  1  0.522900  0.236400  0.808200  1
  F  F1819  1  0.474700  0.822800  0.229700  1
  F  F1820  1  0.525300  0.177200  0.770300  1
  F  F1821  1  0.546300  0.762400  0.233100  1
  F  F1822  1  0.453700  0.237600  0.766900  1
  F  F1823  1  0.440800  0.751500  0.244600  1
  F  F1824  1  0.559200  0.248500  0.755400  1
  F  F1825  1  0.941800  0.728900  0.262800  1
  F  F1826  1  0.058200  0.271100  0.737200  1
  F  F1827  1  0.018500  0.679400  0.286000  1
  F  F1828  1  0.981500  0.320600  0.714000  1
  F  F1829  1  0.000200  0.752900  0.305300  1
  F  F1830  1  0.999800  0.247100  0.694700  1
  F  F1831  1  0.047100  0.746700  0.253700  1
  F  F1832  1  0.952900  0.253300  0.746300  1
