
#######################################################################
#
#                 Cambridge Crystallographic Data Centre
#                                CCDC 
#
#######################################################################
#
# If this CIF has been generated from an entry in the Cambridge 
# Structural Database, then it will include bibliographic, chemical, 
# crystal, experimental, refinement or atomic coordinate data resulting 
# from the CCDC's data processing and validation procedures.
#
#######################################################################

data_XEXHAL
_chemical_formula_moiety         
'C360 H270 N60 Ni10 20+,19(Cl1 O4 1-),Cl1 1-,10(C2 H3 N1),10(C4 H10 O1)'
_chemical_name_systematic        
"pentadecakis(\m~2~-N,N'-(3,3'-Bipyridine-6,6'-diyldimethylylidene)dianiline)-deca-nickel chloride nonadecaperchlorate acetonitrile diethyl ether solvate"
_symmetry_cell_setting           monoclinic
_symmetry_space_group_name_H-M   'C 2/c'
_symmetry_Int_Tables_number      15
_space_group_name_Hall           '-C 2yn'
loop_
_symmetry_equiv_pos_site_id
_symmetry_equiv_pos_as_xyz
1 x,y,z
2 -x,y,1/2-z
3 1/2+x,1/2+y,z
4 1/2-x,1/2+y,1/2-z
5 -x,-y,-z
6 x,-y,1/2+z
7 1/2-x,1/2-y,-z
8 1/2+x,1/2-y,1/2+z
_cell_length_a                   35.7300(17)
_cell_length_b                   29.1212(15)
_cell_length_c                   41.6634(19)
_cell_angle_alpha                90
_cell_angle_beta                 93.174(2)
_cell_angle_gamma                90
_cell_volume                     43284.3
_exptl_crystal_colour            orange
_exptl_crystal_description       slab
_cell_formula_units_Z            4
loop_
_atom_site_label
_atom_site_type_symbol
_atom_site_fract_x
_atom_site_fract_y
_atom_site_fract_z
C1 C 0.8372(6) -0.0683(6) 0.1491(5)
C2 C 0.8228(5) -0.0723(6) 0.1795(5)
H1 H 0.8163 -0.0455 0.1909
C3 C 0.8180(5) -0.1156(8) 0.1930(4)
H2 H 0.8082 -0.1183 0.2136
C4 C 0.8277(5) -0.1549(5) 0.1762(5)
H3 H 0.8245 -0.1843 0.1854
C5 C 0.8421(5) -0.1509(6) 0.1458(5)
H4 H 0.8487 -0.1777 0.1344
C6 C 0.8469(5) -0.1076(8) 0.1323(4)
H5 H 0.8567 -0.1049 0.1117
C7 C 0.8360(6) -0.0149(8) 0.1096(6)
H6 H 0.8239 -0.0379 0.0965
C8 C 0.8432(6) 0.0288(8) 0.0948(6)
C9 C 0.8719(6) 0.0994(8) 0.1029(5)
H7 H 0.8867 0.1180 0.1174
C10 C 0.8640(6) 0.1190(7) 0.0712(5)
C11 C 0.8421(6) 0.0825(8) 0.0529(6)
H8 H 0.8344 0.0907 0.0315
C12 C 0.8319(6) 0.0413(8) 0.0615(5)
H9 H 0.8182 0.0212 0.0473
C13 C 0.8765(5) 0.1589(7) 0.0598(5)
N1 N 0.8829(4) 0.5016(6) 0.2983(3)
C14 C 0.8680(4) 0.5449(6) 0.3032(4)
C15 C 0.8681(5) 0.5631(5) 0.3341(5)
H10 H 0.8579 0.5928 0.3374
C16 C 0.8831(5) 0.5379(6) 0.3600(3)
H11 H 0.8832 0.5504 0.3811
C17 C 0.8980(4) 0.4946(6) 0.3552(3)
C18 C 0.8979(4) 0.4764(4) 0.3243(4)
H12 H 0.9081 0.4467 0.3210
C19 C 0.9015(6) 0.2427(7) 0.0393(5)
C20 C 0.9047(6) 0.2037(8) 0.0218(6)
H13 H 0.9145 0.2058 0.0011
C21 C 0.8946(7) 0.1628(9) 0.0323(6)
H14 H 0.9003 0.1361 0.0205
C22 C 0.9162(6) 0.2848(8) 0.0322(5)
H15 H 0.9311 0.2880 0.0142
C23 C 0.9217(2) 0.3654(3) 0.0433(3)
C24 C 0.9367(3) 0.3944(2) 0.0674(3)
H16 H 0.9378 0.3846 0.0892
C25 C 0.9503(3) 0.4376(2) 0.0595(3)
H17 H 0.9605 0.4573 0.0759
C26 C 0.9487(3) 0.4520(3) 0.0275(3)
H18 H 0.9579 0.4814 0.0221
C27 C 0.9337(3) 0.4230(3) 0.0034(3)
H19 H 0.9327 0.4327 -0.0184
C28 C 0.9202(3) 0.3797(3) 0.0113(3)
H20 H 0.9099 0.3601 -0.0051
C29 C 0.9336(3) -0.0090(3) 0.1037(2)
C30 C 0.9433(3) 0.0345(3) 0.0929(2)
H21 H 0.9449 0.0596 0.1075
C31 C 0.9508(2) 0.0412(2) 0.0607(2)
H22 H 0.9574 0.0708 0.0534
C32 C 0.9484(3) 0.0044(2) 0.0393(2)
H23 H 0.9535 0.0089 0.0174
C33 C 0.9387(3) -0.0392(2) 0.0501(3)
H24 H 0.9372 -0.0643 0.0355
C34 C 0.9313(3) -0.0458(3) 0.0823(3)
H25 H 0.9247 -0.0755 0.0896
C35 C 0.9308(6) -0.0460(8) 0.1519(5)
H26 H 0.9451 -0.0698 0.1430
C36 C 0.9178(6) -0.0497(8) 0.1854(5)
C37 C 0.8868(6) -0.0144(7) 0.2252(5)
H27 H 0.8730 0.0113 0.2322
C38 C 0.8949(5) -0.0508(7) 0.2469(5)
C39 C 0.9137(6) -0.0884(7) 0.2352(5)
H28 H 0.9171 -0.1145 0.2487
C40 C 0.9275(6) -0.0901(7) 0.2054(5)
H29 H 0.9420 -0.1151 0.1982
C41 C 0.8850(6) -0.0468(7) 0.2810(5)
C42 C 0.8912(6) -0.0077(7) 0.3002(6)
H30 H 0.9024 0.0182 0.2907
C43 C 0.8663(8) -0.0427(10) 0.3416(7)
C44 C 0.8594(7) -0.0839(9) 0.3260(6)
H31 H 0.8505 -0.1108 0.3360
C45 C 0.8672(7) -0.0811(9) 0.2936(7)
H32 H 0.8591 -0.1056 0.2798
C46 C 0.8603(7) -0.0330(9) 0.3783(7)
H33 H 0.8496 -0.0566 0.3906
N2 N 0.9147(4) 0.0767(4) 0.1762(2)
C47 C 0.9534(4) 0.0804(5) 0.1751(3)
H34 H 0.9669 0.0584 0.1635
C48 C 0.9723(4) 0.1162(6) 0.1909(4)
C49 C 0.9525(6) 0.1483(5) 0.2079(4)
H35 H 0.9655 0.1728 0.2188
C50 C 0.9138(6) 0.1447(5) 0.2090(4)
H36 H 0.9003 0.1667 0.2206
C51 C 0.8949(4) 0.1089(5) 0.1932(4)
C52 C 1.1280(4) 0.1217(8) 0.1712(6)
H37 H 1.1445 0.1443 0.1805
C53 C 1.0361(4) 0.1564(5) 0.2023(4)
H38 H 1.0256 0.1805 0.2143
C54 C 1.0131(3) 0.1219(6) 0.1892(4)
C55 C 1.0283(4) 0.0867(5) 0.1715(3)
H39 H 1.0126 0.0631 0.1626
N3 N 1.0666(4) 0.0861(4) 0.1670(3)
C56 C 1.0895(3) 0.1206(5) 0.1800(3)
C57 C 1.0743(4) 0.1557(4) 0.1977(4)
H40 H 1.0900 0.1793 0.2066
C58 C 0.8163(5) 0.2865(6) 0.0244(4)
C59 C 0.8223(4) 0.2949(5) -0.0079(5)
H41 H 0.8341 0.3225 -0.0140
C60 C 0.8108(5) 0.2628(6) -0.0312(3)
H42 H 0.8149 0.2685 -0.0532
C61 C 0.7934(5) 0.2222(5) -0.0223(4)
H43 H 0.7856 0.2003 -0.0382
C62 C 0.7875(4) 0.2138(5) 0.0100(4)
H44 H 0.7757 0.1861 0.0161
C63 C 0.7989(5) 0.2459(6) 0.0333(3)
H45 H 0.7949 0.2402 0.0553
C64 C 0.8248(7) 0.3591(9) 0.0454(6)
H46 H 0.8103 0.3696 0.0271
C65 C 0.8385(7) 0.3957(9) 0.0693(6)
C66 C 0.8730(6) 0.4019(8) 0.1179(6)
H47 H 0.8846 0.3879 0.1366
C67 C 0.8884(7) 0.4759(9) 0.1437(6)
C68 C 0.8528(7) 0.4671(9) 0.0899(6)
H48 H 0.8534 0.4996 0.0878
C69 C 0.8343(7) 0.4416(8) 0.0660(6)
H49 H 0.8199 0.4552 0.0487
C70 C 0.9253(7) 0.5412(8) 0.1603(6)
H50 H 0.9396 0.5676 0.1555
C71 C 0.9096(7) 0.5169(9) 0.1377(7)
H51 H 0.9121 0.5262 0.1160
C72 C 0.9395(6) 0.5532(8) 0.2199(6)
H52 H 0.9546 0.5794 0.2164
C73 C 1.1735(7) 0.3241(15) 0.1093(10)
C74 C 1.1894(12) 0.2977(10) 0.0857(9)
H53 H 1.1746 0.2759 0.0737
C75 C 1.2272(13) 0.3032(11) 0.0797(6)
H54 H 1.2381 0.2853 0.0636
C76 C 1.2490(7) 0.3351(14) 0.0974(10)
H55 H 1.2747 0.3389 0.0933
C77 C 1.2330(13) 0.3615(10) 0.1210(8)
H56 H 1.2479 0.3833 0.1329
C78 C 1.1953(13) 0.3560(11) 0.1270(7)
H57 H 1.1844 0.3739 0.1431
C79 C 1.090(2) 0.2924(19) 0.1436(16)
C80 C 1.0276(8) 0.3002(7) 0.1201(6)
H58 H 1.0125 0.3065 0.1011
C81 C 1.0086(7) 0.2874(7) 0.1494(6)
C82 C 1.0333(8) 0.2767(8) 0.1748(7)
H59 H 1.0240 0.2693 0.1951
C83 C 1.0740(10) 0.2768(10) 0.1708(9)
H60 H 1.0901 0.2654 0.1879
C84 C 0.9685(8) 0.2850(8) 0.1515(6)
C85 C 0.9433(7) 0.2972(6) 0.1249(5)
H61 H 0.9542 0.3081 0.1060
C86 C 0.8919(8) 0.2768(8) 0.1501(7)
C87 C 0.9128(8) 0.2651(7) 0.1792(6)
H62 H 0.9007 0.2557 0.1978
C88 C 0.9506(7) 0.2681(7) 0.1790(6)
H63 H 0.9655 0.2588 0.1975
C89 C 0.8519(8) 0.2719(8) 0.1485(7)
H64 H 0.8393 0.2606 0.1663
C90 C 0.7949(4) 0.2761(8) 0.1192(5)
C91 C 0.7777(6) 0.2351(6) 0.1276(4)
H65 H 0.7925 0.2094 0.1341
C92 C 0.7386(7) 0.2320(6) 0.1263(4)
H66 H 0.7269 0.2041 0.1321
C93 C 0.7168(4) 0.2698(8) 0.1167(4)
H67 H 0.6903 0.2676 0.1158
C94 C 0.7340(6) 0.3108(6) 0.1084(4)
H68 H 0.7192 0.3365 0.1018
C95 C 0.7730(7) 0.3139(6) 0.1096(4)
H69 H 0.7848 0.3418 0.1039
C96 C 0.8592(8) 0.4019(10) 0.2494(6)
H70 H 0.8419 0.3772 0.2505
C97 C 0.9034(8) 0.3914(10) 0.2497(5)
C98 C 0.9191(8) 0.3508(9) 0.2501(6)
H71 H 0.9041 0.3240 0.2517
C99 C 0.9591(7) 0.3466(9) 0.2480(6)
H72 H 0.9708 0.3177 0.2450
C100 C 0.9804(6) 0.3884(8) 0.2507(6)
C101 C 0.9753(4) 0.3082(4) 0.4755(3)
C102 C 0.9862(4) 0.2646(5) 0.4657(3)
H73 H 0.9840 0.2565 0.4436
C103 C 1.0004(4) 0.2329(4) 0.4884(4)
H74 H 1.0078 0.2033 0.4817
C104 C 1.0036(4) 0.2448(5) 0.5208(3)
H75 H 1.0132 0.2233 0.5363
C105 C 0.9926(4) 0.2884(5) 0.5306(3)
H76 H 0.9949 0.2965 0.5527
C106 C 0.9785(4) 0.3201(4) 0.5079(4)
H77 H 0.9710 0.3497 0.5146
C107 C 0.9655(6) 0.3830(8) 0.4529(5)
H78 H 0.9825 0.3955 0.4689
C108 C 0.9530(7) 0.4594(9) 0.4278(6)
H79 H 0.9689 0.4737 0.4439
C109 C 0.9376(7) 0.4856(9) 0.4059(6)
H80 H 0.9425 0.5176 0.4064
C110 C 1.1253(5) 0.3939(4) 0.0287(5)
C111 C 1.1449(5) 0.4224(7) 0.0507(3)
H81 H 1.1545 0.4103 0.0707
C112 C 1.1503(4) 0.4686(6) 0.0434(4)
H82 H 1.1636 0.4880 0.0584
C113 C 1.1361(5) 0.4863(4) 0.0141(5)
H83 H 1.1397 0.5178 0.0091
C114 C 1.1165(4) 0.4578(6) -0.0079(3)
H84 H 1.1069 0.4699 -0.0279
C115 C 1.1111(4) 0.4116(6) -0.0006(4)
H85 H 1.0978 0.3922 -0.0156
C116 C 1.1222(7) 0.3116(11) 0.0196(7)
H86 H 1.1314 0.3163 -0.0011
C117 C 1.1139(7) 0.2680(9) 0.0270(6)
C118 C 1.0908(6) 0.2245(8) 0.0653(5)
H87 H 1.0827 0.2218 0.0865
C119 C 1.0909(6) 0.1832(7) 0.0475(5)
C120 C 1.1053(6) 0.1905(8) 0.0160(5)
H88 H 1.1086 0.1652 0.0020
C121 C 1.1138(6) 0.2323(8) 0.0071(6)
H89 H 1.1202 0.2373 -0.0145
C122 C 1.0772(6) 0.1405(7) 0.0560(5)
C123 C 1.0877(6) 0.1235(8) 0.0866(6)
H90 H 1.1029 0.1420 0.1008
C124 C 1.0514(6) 0.0523(7) 0.0786(5)
C125 C 1.0430(6) 0.0714(7) 0.0460(5)
H91 H 1.0283 0.0534 0.0310
C126 C 1.0544(6) 0.1114(7) 0.0368(5)
H92 H 1.0468 0.1214 0.0158
C127 C 1.0401(6) 0.0129(7) 0.0915(5)
H93 H 1.0230 -0.0068 0.0799
C128 C 1.0411(4) -0.0405(4) 0.1347(4)
C129 C 1.0325(4) -0.0427(4) 0.1669(4)
H94 H 1.0335 -0.0157 0.1797
C130 C 1.0223(4) -0.0845(5) 0.1803(3)
H95 H 1.0164 -0.0859 0.2022
C131 C 1.0209(4) -0.1241(4) 0.1615(3)
H96 H 1.0140 -0.1526 0.1706
C132 C 1.0295(4) -0.1219(4) 0.1292(3)
H97 H 1.0284 -0.1489 0.1164
C133 C 1.0396(4) -0.0801(5) 0.1159(3)
H98 H 1.0455 -0.0786 0.0939
C134 C 0.9127(6) 0.4663(8) 0.3802(5)
C135 C 0.9087(7) 0.4193(8) 0.3844(6)
H99 H 0.8938 0.4040 0.3681
C136 C 0.9488(7) 0.4151(8) 0.4300(6)
C137 C 0.8440(6) 0.5761(9) 0.2206(5)
C138 C 0.8261(6) 0.5529(6) 0.1947(6)
H100 H 0.8212 0.5209 0.1963
C139 C 0.8152(5) 0.5767(8) 0.1667(5)
H101 H 0.8030 0.5610 0.1491
C140 C 0.8224(6) 0.6237(8) 0.1644(5)
H102 H 0.8150 0.6399 0.1453
C141 C 0.8403(6) 0.6469(6) 0.1903(6)
H103 H 0.8452 0.6788 0.1888
C142 C 0.8512(5) 0.6230(9) 0.2183(5)
H104 H 0.8634 0.6388 0.2359
C143 C 0.8713(6) 0.1993(8) 0.0763(5)
H105 H 0.8578 0.1972 0.0953
C144 C 0.8715(6) 0.4461(8) 0.1183(5)
C145 C 0.8815(8) 0.4657(9) 0.1755(7)
H106 H 0.8651 0.4413 0.1805
C146 C 0.9209(8) 0.5281(9) 0.1914(6)
C147 C 0.9508(5) 0.5635(8) 0.2749(4)
C148 C 0.9642(5) 0.5392(5) 0.3020(6)
H107 H 0.9649 0.5066 0.3016
C149 C 0.9765(5) 0.5628(7) 0.3298(4)
H108 H 0.9856 0.5463 0.3482
C150 C 0.9753(5) 0.6107(7) 0.3304(4)
H109 H 0.9837 0.6267 0.3493
C151 C 0.9620(5) 0.6350(5) 0.3033(6)
H110 H 0.9612 0.6676 0.3037
C152 C 0.9497(5) 0.6114(8) 0.2755(4)
H111 H 0.9406 0.6279 0.2570
C153 C 0.8523(8) 0.5691(10) 0.2765(7)
H112 H 0.8410 0.5983 0.2791
C154 C 0.9583(8) 0.4277(8) 0.2519(5)
H113 H 0.9723 0.4554 0.2519
C155 C 0.8668(4) 0.0076(6) 0.4247(3)
C156 C 0.8807(4) -0.0262(4) 0.4459(4)
H114 H 0.8914 -0.0534 0.4379
C157 C 0.8788(4) -0.0200(5) 0.4790(4)
H115 H 0.8883 -0.0429 0.4935
C158 C 0.8631(4) 0.0200(5) 0.4909(3)
H116 H 0.8618 0.0242 0.5134
C159 C 0.8492(4) 0.0538(4) 0.4696(4)
H117 H 0.8385 0.0810 0.4777
C160 C 0.8511(4) 0.0476(5) 0.4366(4)
H118 H 0.8416 0.0706 0.4221
C161 C 1.1258(9) 0.2967(9) 0.1396(7)
H119 H 1.1434 0.2873 0.1562
C162 C 0.8076(6) 0.4434(5) 0.2509(5)
C163 C 0.7833(6) 0.4398(6) 0.2236(6)
H120 H 0.7922 0.4286 0.2040
C164 C 0.7458(6) 0.4526(6) 0.2251(6)
H121 H 0.7292 0.4502 0.2066
C165 C 0.7327(6) 0.4691(5) 0.2539(6)
H122 H 0.7072 0.4779 0.2549
C166 C 0.7570(6) 0.4727(6) 0.2811(6)
H123 H 0.7481 0.4838 0.3007
C167 C 0.7945(6) 0.4598(6) 0.2796(6)
H124 H 0.8111 0.4623 0.2981
C168 C 1.1769(5) 0.0906(12) 0.1385(7)
C169 C 1.1971(6) 0.0498(12) 0.1420(8)
H125 H 1.1863 0.0239 0.1517
C170 C 1.2333(6) 0.0471(13) 0.1311(8)
H126 H 1.2471 0.0192 0.1334
C171 C 1.2492(6) 0.0851(14) 0.1168(8)
H127 H 1.2738 0.0833 0.1094
C172 C 1.2289(6) 0.1260(13) 0.1134(8)
H128 H 1.2398 0.1519 0.1036
C173 C 1.1928(5) 0.1287(12) 0.1242(7)
H129 H 1.1790 0.1565 0.1219
C174 C 0.8544(5) 0.1037(15) 0.1966(14)
H130 H 0.8406 0.1231 0.2100
N4 N 0.8400(5) 0.0721(6) 0.1807(3)
C175 C 0.7460(10) 0.0364(16) 0.2017(16)
H131 H 0.7341 0.0226 0.2191
C176 C 0.7258(7) 0.0440(17) 0.1727(18)
H132 H 0.7001 0.0353 0.1703
C177 C 0.7431(9) 0.0642(19) 0.1472(14)
H133 H 0.7293 0.0693 0.1274
C178 C 0.7806(8) 0.0768(17) 0.1507(9)
H134 H 0.7924 0.0906 0.1332
C179 C 0.8008(6) 0.0692(14) 0.1797(7)
C180 C 0.7835(9) 0.0490(16) 0.2052(10)
H135 H 0.7973 0.0439 0.2250
N5 N 0.8441(5) -0.0246(7) 0.1376(4)
N6 N 0.8621(4) 0.0611(6) 0.1140(4)
N7 N 0.8834(4) 0.2413(7) 0.0684(3)
N8 N 0.9097(4) 0.3208(6) 0.0504(4)
N9 N 0.9226(5) -0.0121(6) 0.1368(4)
N10 N 0.8984(4) -0.0150(7) 0.1946(4)
N11 N 0.8827(5) -0.0044(7) 0.3299(4)
N12 N 1.1402(5) 0.0927(7) 0.1511(4)
N13 N 0.8303(5) 0.3169(6) 0.0471(4)
N14 N 0.8611(5) 0.3743(7) 0.0957(4)
N15 N 0.8982(5) 0.4907(6) 0.1990(5)
N16 N 0.9352(6) 0.5398(7) 0.2481(5)
N17 N 0.8536(5) 0.5515(7) 0.2499(6)
N18 N 0.8473(6) 0.4425(7) 0.2476(4)
N19 N 0.9228(5) 0.4338(6) 0.2530(4)
N20 N 0.8329(5) 0.2839(6) 0.1211(4)
N21 N 0.9081(5) 0.2949(6) 0.1241(4)
N22 N 1.0643(5) 0.3034(6) 0.1187(5)
N23 N 1.1376(5) 0.3136(6) 0.1134(5)
N24 N 1.0538(5) 0.0018(6) 0.1214(4)
N25 N 1.0774(4) 0.0836(7) 0.0961(4)
N26 N 1.1003(5) 0.2652(7) 0.0569(4)
N27 N 1.1192(4) 0.3482(7) 0.0371(5)
N28 N 0.8685(5) 0.0025(7) 0.3914(3)
N29 N 0.9600(5) 0.3400(7) 0.4542(4)
N30 N 0.9221(5) 0.3940(7) 0.4066(5)
Ni1 Ni 0.87971(8) 0.02683(10) 0.15714(6)
Ni2 Ni 0.86994(8) 0.30436(11) 0.08587(6)
Ni3 Ni 0.89025(8) 0.49104(10) 0.24908(8)
Ni4 Ni 1.09007(8) 0.32708(11) 0.07898(7)
Ni5 Ni 1.09763(8) 0.04426(11) 0.13716(6)
C96A C 1.1408(8) 0.4019(10) 0.2506(6)
H70A H 1.1581 0.3772 0.2495
C97A C 1.0966(8) 0.3914(10) 0.2503(5)
C98A C 1.0809(8) 0.3508(9) 0.2499(6)
H71A H 1.0959 0.3240 0.2483
C99A C 1.0409(7) 0.3466(9) 0.2520(6)
H72A H 1.0292 0.3177 0.2550
C100A C 1.0196(6) 0.3884(8) 0.2493(6)
C154A C 1.0417(8) 0.4277(8) 0.2481(5)
H113A H 1.0277 0.4554 0.2481
C162A C 1.1924(6) 0.4434(5) 0.2491(5)
C163A C 1.2167(6) 0.4398(6) 0.2764(6)
H120A H 1.2078 0.4286 0.2960
C164A C 1.2542(6) 0.4526(6) 0.2749(6)
H121A H 1.2708 0.4502 0.2934
C165A C 1.2673(6) 0.4691(5) 0.2461(6)
H122A H 1.2928 0.4779 0.2451
C166A C 1.2430(6) 0.4727(6) 0.2189(6)
H123A H 1.2519 0.4838 0.1993
C167A C 1.2055(6) 0.4598(6) 0.2204(6)
H124A H 1.1889 0.4623 0.2019
N18A N 1.1527(6) 0.4425(7) 0.2524(4)
N19A N 1.0772(5) 0.4338(6) 0.2470(4)
C1A C 1.1628(6) -0.0683(6) 0.3509(5)
C2A C 1.1772(5) -0.0723(6) 0.3205(5)
H1A H 1.1837 -0.0455 0.3091
C3A C 1.1820(5) -0.1156(8) 0.3070(4)
H2A H 1.1918 -0.1183 0.2864
C4A C 1.1723(5) -0.1549(5) 0.3238(5)
H3A H 1.1755 -0.1843 0.3146
C5A C 1.1579(5) -0.1509(6) 0.3542(5)
H4A H 1.1513 -0.1777 0.3656
C6A C 1.1531(5) -0.1076(8) 0.3677(4)
H5A H 1.1433 -0.1049 0.3883
C7A C 1.1640(6) -0.0149(8) 0.3904(6)
H6A H 1.1761 -0.0379 0.4035
C8A C 1.1568(6) 0.0288(8) 0.4052(6)
C9A C 1.1281(6) 0.0994(8) 0.3971(5)
H7A H 1.1133 0.1180 0.3826
C10A C 1.1360(6) 0.1190(7) 0.4288(5)
C11A C 1.1579(6) 0.0825(8) 0.4471(6)
H8A H 1.1656 0.0907 0.4685
C12A C 1.1681(6) 0.0413(8) 0.4385(5)
H9A H 1.1818 0.0212 0.4527
C13A C 1.1235(5) 0.1589(7) 0.4402(5)
N1A N 1.1171(4) 0.5016(6) 0.2017(3)
C14A C 1.1320(4) 0.5449(6) 0.1968(4)
C15A C 1.1319(5) 0.5631(5) 0.1659(5)
H10A H 1.1421 0.5928 0.1626
C16A C 1.1169(5) 0.5379(6) 0.1400(3)
H11A H 1.1168 0.5504 0.1189
C17A C 1.1020(4) 0.4946(6) 0.1448(3)
C18A C 1.1021(4) 0.4764(4) 0.1757(4)
H12A H 1.0919 0.4467 0.1790
C19A C 1.0985(6) 0.2427(7) 0.4607(5)
C20A C 1.0953(6) 0.2037(8) 0.4782(6)
H13A H 1.0855 0.2058 0.4989
C21A C 1.1054(7) 0.1628(9) 0.4677(6)
H14A H 1.0997 0.1361 0.4795
C22A C 1.0838(6) 0.2848(8) 0.4678(5)
H15A H 1.0689 0.2880 0.4858
C23A C 1.0783(2) 0.3654(3) 0.4567(3)
C24A C 1.0633(3) 0.3944(2) 0.4326(3)
H16A H 1.0622 0.3846 0.4108
C25A C 1.0497(3) 0.4376(2) 0.4405(3)
H17A H 1.0395 0.4573 0.4241
C26A C 1.0513(3) 0.4520(3) 0.4725(3)
H18A H 1.0421 0.4814 0.4779
C27A C 1.0663(3) 0.4230(3) 0.4966(3)
H19A H 1.0673 0.4327 0.5184
C28A C 1.0798(3) 0.3797(3) 0.4887(3)
H20A H 1.0901 0.3601 0.5051
C29A C 1.0664(3) -0.0090(3) 0.3963(2)
C30A C 1.0567(3) 0.0345(3) 0.4071(2)
H21A H 1.0551 0.0596 0.3925
C31A C 1.0492(2) 0.0412(2) 0.4393(2)
H22A H 1.0426 0.0708 0.4466
C32A C 1.0516(3) 0.0044(2) 0.4607(2)
H23A H 1.0465 0.0089 0.4826
C33A C 1.0613(3) -0.0392(2) 0.4499(3)
H24A H 1.0628 -0.0643 0.4645
C34A C 1.0687(3) -0.0458(3) 0.4177(3)
H25A H 1.0753 -0.0755 0.4104
C35A C 1.0692(6) -0.0460(8) 0.3481(5)
H26A H 1.0549 -0.0698 0.3570
C36A C 1.0822(6) -0.0497(8) 0.3146(5)
C37A C 1.1132(6) -0.0144(7) 0.2748(5)
H27A H 1.1270 0.0113 0.2678
C38A C 1.1051(5) -0.0508(7) 0.2531(5)
C39A C 1.0863(6) -0.0884(7) 0.2648(5)
H28A H 1.0829 -0.1145 0.2513
C40A C 1.0725(6) -0.0901(7) 0.2946(5)
H29A H 1.0580 -0.1151 0.3018
C41A C 1.1150(6) -0.0468(7) 0.2190(5)
C42A C 1.1088(6) -0.0077(7) 0.1998(6)
H30A H 1.0976 0.0182 0.2093
C43A C 1.1337(8) -0.0427(10) 0.1584(7)
C44A C 1.1406(7) -0.0839(9) 0.1740(6)
H31A H 1.1495 -0.1108 0.1640
C45A C 1.1328(7) -0.0811(9) 0.2064(7)
H32A H 1.1409 -0.1056 0.2202
C46A C 1.1397(7) -0.0330(9) 0.1217(7)
H33A H 1.1504 -0.0566 0.1094
N2A N 1.0853(4) 0.0767(4) 0.3238(2)
C47A C 1.0466(4) 0.0804(5) 0.3249(3)
H34A H 1.0331 0.0584 0.3365
C48A C 1.0277(4) 0.1162(6) 0.3091(4)
C49A C 1.0475(6) 0.1483(5) 0.2921(4)
H35A H 1.0345 0.1728 0.2812
C50A C 1.0862(6) 0.1447(5) 0.2910(4)
H36A H 1.0997 0.1667 0.2794
C51A C 1.1051(4) 0.1089(5) 0.3068(4)
C52A C 0.8720(4) 0.1217(8) 0.3288(6)
H37A H 0.8555 0.1443 0.3195
C53A C 0.9639(4) 0.1564(5) 0.2977(4)
H38A H 0.9744 0.1805 0.2857
C54A C 0.9869(3) 0.1219(6) 0.3108(4)
C55A C 0.9717(4) 0.0867(5) 0.3285(3)
H39A H 0.9874 0.0631 0.3374
N3A N 0.9334(4) 0.0861(4) 0.3330(3)
C56A C 0.9105(3) 0.1206(5) 0.3200(3)
C57A C 0.9257(4) 0.1557(4) 0.3023(4)
H40A H 0.9100 0.1793 0.2934
C58A C 1.1837(5) 0.2865(6) 0.4756(4)
C59A C 1.1777(4) 0.2949(5) 0.5079(5)
H41A H 1.1659 0.3225 0.5140
C60A C 1.1892(5) 0.2628(6) 0.5312(3)
H42A H 1.1851 0.2685 0.5532
C61A C 1.2066(5) 0.2222(5) 0.5223(4)
H43A H 1.2144 0.2003 0.5382
C62A C 1.2125(4) 0.2138(5) 0.4900(4)
H44A H 1.2243 0.1861 0.4839
C63A C 1.2011(5) 0.2459(6) 0.4667(3)
H45A H 1.2051 0.2402 0.4447
C64A C 1.1752(7) 0.3591(9) 0.4546(6)
H46A H 1.1897 0.3696 0.4729
C65A C 1.1615(7) 0.3957(9) 0.4307(6)
C66A C 1.1270(6) 0.4019(8) 0.3821(6)
H47A H 1.1154 0.3879 0.3634
C67A C 1.1116(7) 0.4759(9) 0.3563(6)
C68A C 1.1472(7) 0.4671(9) 0.4101(6)
H48A H 1.1466 0.4996 0.4122
C69A C 1.1657(7) 0.4416(8) 0.4340(6)
H49A H 1.1801 0.4552 0.4513
C70A C 1.0747(7) 0.5412(8) 0.3397(6)
H50A H 1.0604 0.5676 0.3445
C71A C 1.0904(7) 0.5169(9) 0.3623(7)
H51A H 1.0879 0.5262 0.3840
C72A C 1.0605(6) 0.5532(8) 0.2801(6)
H52A H 1.0454 0.5794 0.2836
C73A C 0.8265(7) 0.3241(15) 0.3907(10)
C74A C 0.8106(12) 0.2977(10) 0.4143(9)
H53A H 0.8254 0.2759 0.4263
C75A C 0.7728(13) 0.3032(11) 0.4203(6)
H54A H 0.7619 0.2853 0.4364
C76A C 0.7510(7) 0.3351(14) 0.4026(10)
H55A H 0.7253 0.3389 0.4067
C77A C 0.7670(13) 0.3615(10) 0.3790(8)
H56A H 0.7521 0.3833 0.3671
C78A C 0.8047(13) 0.3560(11) 0.3730(7)
H57A H 0.8156 0.3739 0.3569
C79A C 0.910(2) 0.2924(19) 0.3564(16)
C80A C 0.9724(8) 0.3002(7) 0.3799(6)
H58A H 0.9875 0.3065 0.3989
C81A C 0.9914(7) 0.2874(7) 0.3506(6)
C82A C 0.9667(8) 0.2767(8) 0.3252(7)
H59A H 0.9760 0.2693 0.3049
C83A C 0.9260(10) 0.2768(10) 0.3292(9)
H60A H 0.9099 0.2654 0.3121
C84A C 1.0315(8) 0.2850(8) 0.3485(6)
C85A C 1.0567(7) 0.2972(6) 0.3751(5)
H61A H 1.0458 0.3081 0.3940
C86A C 1.1081(8) 0.2768(8) 0.3499(7)
C87A C 1.0872(8) 0.2651(7) 0.3208(6)
H62A H 1.0993 0.2557 0.3022
C88A C 1.0494(7) 0.2681(7) 0.3210(6)
H63A H 1.0345 0.2588 0.3025
C89A C 1.1481(8) 0.2719(8) 0.3515(7)
H64A H 1.1607 0.2606 0.3337
C90A C 1.2051(4) 0.2761(8) 0.3808(5)
C91A C 1.2223(6) 0.2351(6) 0.3724(4)
H65A H 1.2075 0.2094 0.3659
C92A C 1.2614(7) 0.2320(6) 0.3737(4)
H66A H 1.2731 0.2041 0.3679
C93A C 1.2832(4) 0.2698(8) 0.3833(4)
H67A H 1.3097 0.2676 0.3842
C94A C 1.2660(6) 0.3108(6) 0.3916(4)
H68A H 1.2808 0.3365 0.3982
C95A C 1.2270(7) 0.3139(6) 0.3904(4)
H69A H 1.2152 0.3418 0.3961
C101A C 1.0247(4) 0.3082(4) 0.0245(3)
C102A C 1.0138(4) 0.2646(5) 0.0343(3)
H73A H 1.0160 0.2565 0.0564
C103A C 0.9996(4) 0.2329(4) 0.0116(4)
H74A H 0.9922 0.2033 0.0183
C104A C 0.9964(4) 0.2448(5) -0.0208(3)
H75A H 0.9868 0.2233 -0.0363
C105A C 1.0074(4) 0.2884(5) -0.0306(3)
H76A H 1.0051 0.2965 -0.0527
C106A C 1.0215(4) 0.3201(4) -0.0079(4)
H77A H 1.0290 0.3497 -0.0146
C107A C 1.0345(6) 0.3830(8) 0.0471(5)
H78A H 1.0175 0.3955 0.0311
C108A C 1.0470(7) 0.4594(9) 0.0722(6)
H79A H 1.0311 0.4737 0.0561
C109A C 1.0624(7) 0.4856(9) 0.0941(6)
H80A H 1.0575 0.5176 0.0936
C110A C 0.8747(5) 0.3939(4) 0.4713(5)
C111A C 0.8551(5) 0.4224(7) 0.4493(3)
H81A H 0.8455 0.4103 0.4293
C112A C 0.8497(4) 0.4686(6) 0.4566(4)
H82A H 0.8364 0.4880 0.4416
C113A C 0.8639(5) 0.4863(4) 0.4859(5)
H83A H 0.8603 0.5178 0.4909
C114A C 0.8835(4) 0.4578(6) 0.5079(3)
H84A H 0.8931 0.4699 0.5279
C115A C 0.8889(4) 0.4116(6) 0.5006(4)
H85A H 0.9022 0.3922 0.5156
C116A C 0.8778(7) 0.3116(11) 0.4804(7)
H86A H 0.8686 0.3163 0.5011
C117A C 0.8861(7) 0.2680(9) 0.4730(6)
C118A C 0.9092(6) 0.2245(8) 0.4347(5)
H87A H 0.9173 0.2218 0.4135
C119A C 0.9091(6) 0.1832(7) 0.4525(5)
C120A C 0.8947(6) 0.1905(8) 0.4840(5)
H88A H 0.8914 0.1652 0.4980
C121A C 0.8862(6) 0.2323(8) 0.4929(6)
H89A H 0.8798 0.2373 0.5145
C122A C 0.9228(6) 0.1405(7) 0.4440(5)
C123A C 0.9123(6) 0.1235(8) 0.4134(6)
H90A H 0.8971 0.1420 0.3992
C124A C 0.9486(6) 0.0523(7) 0.4214(5)
C125A C 0.9570(6) 0.0714(7) 0.4540(5)
H91A H 0.9717 0.0534 0.4690
C126A C 0.9456(6) 0.1114(7) 0.4632(5)
H92A H 0.9532 0.1214 0.4842
C127A C 0.9599(6) 0.0129(7) 0.4085(5)
H93A H 0.9770 -0.0068 0.4201
C128A C 0.9589(4) -0.0405(4) 0.3653(4)
C129A C 0.9675(4) -0.0427(4) 0.3331(4)
H94A H 0.9665 -0.0157 0.3203
C130A C 0.9777(4) -0.0845(5) 0.3197(3)
H95A H 0.9836 -0.0859 0.2978
C131A C 0.9791(4) -0.1241(4) 0.3385(3)
H96A H 0.9860 -0.1526 0.3294
C132A C 0.9705(4) -0.1219(4) 0.3708(3)
H97A H 0.9716 -0.1489 0.3836
C133A C 0.9604(4) -0.0801(5) 0.3841(3)
H98A H 0.9545 -0.0786 0.4061
C134A C 1.0873(6) 0.4663(8) 0.1198(5)
C135A C 1.0913(7) 0.4193(8) 0.1156(6)
H99A H 1.1062 0.4040 0.1319
C136A C 1.0512(7) 0.4151(8) 0.0700(6)
C137A C 1.1560(6) 0.5761(9) 0.2794(5)
C138A C 1.1739(6) 0.5529(6) 0.3053(6)
H100A H 1.1788 0.5209 0.3037
C139A C 1.1848(5) 0.5767(8) 0.3333(5)
H101A H 1.1970 0.5610 0.3509
C140A C 1.1776(6) 0.6237(8) 0.3356(5)
H102A H 1.1850 0.6399 0.3547
C141A C 1.1597(6) 0.6469(6) 0.3097(6)
H103A H 1.1548 0.6788 0.3112
C142A C 1.1488(5) 0.6230(9) 0.2817(5)
H104A H 1.1366 0.6388 0.2641
C143A C 1.1287(6) 0.1993(8) 0.4237(5)
H105A H 1.1422 0.1972 0.4047
C144A C 1.1285(6) 0.4461(8) 0.3817(5)
C145A C 1.1185(8) 0.4657(9) 0.3245(7)
H106A H 1.1349 0.4413 0.3195
C146A C 1.0791(8) 0.5281(9) 0.3086(6)
C147A C 1.0492(5) 0.5635(8) 0.2251(4)
C148A C 1.0358(5) 0.5392(5) 0.1980(6)
H107A H 1.0351 0.5066 0.1984
C149A C 1.0235(5) 0.5628(7) 0.1702(4)
H108A H 1.0144 0.5463 0.1518
C150A C 1.0247(5) 0.6107(7) 0.1696(4)
H109A H 1.0163 0.6267 0.1507
C151A C 1.0380(5) 0.6350(5) 0.1967(6)
H110A H 1.0388 0.6676 0.1963
C152A C 1.0503(5) 0.6114(8) 0.2245(4)
H111A H 1.0594 0.6279 0.2430
C153A C 1.1477(8) 0.5691(10) 0.2235(7)
H112A H 1.1590 0.5983 0.2209
C155A C 1.1332(4) 0.0076(6) 0.0753(3)
C156A C 1.1193(4) -0.0262(4) 0.0541(4)
H114A H 1.1086 -0.0534 0.0621
C157A C 1.1212(4) -0.0200(5) 0.0210(4)
H115A H 1.1117 -0.0429 0.0065
C158A C 1.1369(4) 0.0200(5) 0.0091(3)
H116A H 1.1382 0.0242 -0.0134
C159A C 1.1508(4) 0.0538(4) 0.0304(4)
H117A H 1.1615 0.0810 0.0223
C160A C 1.1489(4) 0.0476(5) 0.0634(4)
H118A H 1.1584 0.0706 0.0779
C161A C 0.8742(9) 0.2967(9) 0.3604(7)
H119A H 0.8566 0.2873 0.3438
C168A C 0.8231(5) 0.0906(12) 0.3615(7)
C169A C 0.8029(6) 0.0498(12) 0.3580(8)
H125A H 0.8137 0.0239 0.3483
C170A C 0.7667(6) 0.0471(13) 0.3689(8)
H126A H 0.7529 0.0192 0.3666
C171A C 0.7508(6) 0.0851(14) 0.3832(8)
H127A H 0.7262 0.0833 0.3906
C172A C 0.7711(6) 0.1260(13) 0.3866(8)
H128A H 0.7602 0.1519 0.3964
C173A C 0.8072(5) 0.1287(12) 0.3758(7)
H129A H 0.8210 0.1565 0.3781
C174A C 1.1456(5) 0.1037(15) 0.3034(14)
H130A H 1.1594 0.1231 0.2900
N4A N 1.1600(5) 0.0721(6) 0.3193(3)
C175A C 1.2540(10) 0.0364(16) 0.2983(16)
H131A H 1.2659 0.0226 0.2809
C176A C 1.2742(7) 0.0440(17) 0.3273(18)
H132A H 1.2999 0.0353 0.3297
C177A C 1.2569(9) 0.0642(19) 0.3528(14)
H133A H 1.2707 0.0693 0.3726
C178A C 1.2194(8) 0.0768(17) 0.3493(9)
H134A H 1.2076 0.0906 0.3668
C179A C 1.1992(6) 0.0692(14) 0.3203(7)
C180A C 1.2165(9) 0.0490(16) 0.2948(10)
H135A H 1.2027 0.0439 0.2750
N5A N 1.1559(5) -0.0246(7) 0.3624(4)
N6A N 1.1379(4) 0.0611(6) 0.3860(4)
N7A N 1.1166(4) 0.2413(7) 0.4316(3)
N8A N 1.0903(4) 0.3208(6) 0.4496(4)
N9A N 1.0774(5) -0.0121(6) 0.3632(4)
N10A N 1.1016(4) -0.0150(7) 0.3054(4)
N11A N 1.1173(5) -0.0044(7) 0.1701(4)
N12A N 0.8598(5) 0.0927(7) 0.3489(4)
N13A N 1.1697(5) 0.3169(6) 0.4529(4)
N14A N 1.1389(5) 0.3743(7) 0.4043(4)
N15A N 1.1018(5) 0.4907(6) 0.3010(5)
N16A N 1.0648(6) 0.5398(7) 0.2519(5)
N17A N 1.1464(5) 0.5515(7) 0.2501(6)
N20A N 1.1671(5) 0.2839(6) 0.3789(4)
N21A N 1.0919(5) 0.2949(6) 0.3759(4)
N22A N 0.9357(5) 0.3034(6) 0.3813(5)
N23A N 0.8624(5) 0.3136(6) 0.3866(5)
N24A N 0.9462(5) 0.0018(6) 0.3786(4)
N25A N 0.9226(4) 0.0836(7) 0.4039(4)
N26A N 0.8997(5) 0.2652(7) 0.4431(4)
N27A N 0.8808(4) 0.3482(7) 0.4629(5)
N28A N 1.1315(5) 0.0025(7) 0.1086(3)
N29A N 1.0400(5) 0.3400(7) 0.0458(4)
N30A N 1.0779(5) 0.3940(7) 0.0934(5)
Ni1A Ni 1.12029(8) 0.02683(10) 0.34286(6)
Ni2A Ni 1.13006(8) 0.30436(11) 0.41413(6)
Ni3A Ni 1.10975(8) 0.49104(10) 0.25092(8)
Ni4A Ni 0.90993(8) 0.32708(11) 0.42102(7)
Ni5A Ni 0.90237(8) 0.04426(11) 0.36284(6)
O1 O 1.0336(13) 0.0429(15) 0.2406(10)
O2 O 0.9871(6) 0.0132(7) 0.2192(6)
Cl1 Cl 1.0000 0.0179(4) 0.2500
O1A O 0.9664(13) 0.0429(15) 0.2594(10)
O2A O 1.0129(6) 0.0132(7) 0.2808(6)
O3 O 0.9532(4) 0.1713(6) 0.1275(4)
O4 O 0.9882(5) 0.1282(5) 0.0954(4)
O5 O 1.0153(4) 0.1857(6) 0.1246(4)
O6 O 0.9751(5) 0.2021(6) 0.0825(4)
Cl2 Cl 0.9829(2) 0.1718(2) 0.10755(14)
O7 O 1.1181(7) 0.2391(10) 0.2439(7)
O8 O 1.1721(9) 0.2322(10) 0.2741(6)
O9 O 1.1672(9) 0.2846(8) 0.2342(7)
O10 O 1.1693(9) 0.2092(9) 0.2223(7)
Cl3 Cl 1.1567(5) 0.2413(4) 0.2436(3)
O11 O 0.9617(5) 0.3918(7) 0.1632(5)
O12 O 0.9837(7) 0.4525(7) 0.1813(4)
O13 O 0.9950(6) 0.4351(7) 0.1298(4)
O14 O 1.0249(5) 0.3964(6) 0.1705(5)
Cl4 Cl 0.9925(2) 0.4186(3) 0.16021(17)
Cl5 Cl 0.9698(2) 0.1086(3) -0.02655(15)
O15 O 0.9705(5) 0.1200(6) 0.0070(5)
O16 O 0.9711(5) 0.0600(7) -0.0295(4)
O17 O 1.0017(6) 0.1316(6) -0.0387(4)
O18 O 0.9363(6) 0.1207(6) -0.0385(5)
Cl6 Cl 0.9786(3) 0.5790(3) 0.0712(2)
O19 O 0.9987(7) 0.5680(9) 0.0448(6)
O20 O 0.9843(8) 0.5459(8) 0.0950(6)
O21 O 0.9891(8) 0.6218(8) 0.0832(6)
O22 O 0.9403(6) 0.5802(9) 0.0619(7)
Cl7 Cl 1.0000 0.2382(4) 0.2500
loop_
_geom_bond_atom_site_label_1
_geom_bond_atom_site_label_2
_geom_bond_site_symmetry_1
_geom_bond_site_symmetry_2
C1 C2 1_555 1_555
C2 H1 1_555 1_555
C3 C2 1_555 1_555
H2 C3 1_555 1_555
C4 C3 1_555 1_555
H3 C4 1_555 1_555
C5 C4 1_555 1_555
H4 C5 1_555 1_555
C6 C1 1_555 1_555
H5 C6 1_555 1_555
C7 H6 1_555 1_555
C8 C7 1_555 1_555
C9 H7 1_555 1_555
C10 C9 1_555 1_555
C11 C10 1_555 1_555
H8 C11 1_555 1_555
C12 C8 1_555 1_555
H9 C12 1_555 1_555
C13 C10 1_555 1_555
N1 C14 1_555 1_555
C14 C15 1_555 1_555
C15 H10 1_555 1_555
C16 C15 1_555 1_555
H11 C16 1_555 1_555
C17 C16 1_555 1_555
C18 N1 1_555 1_555
H12 C18 1_555 1_555
C19 C20 1_555 1_555
C20 H13 1_555 1_555
C21 C13 1_555 1_555
H14 C21 1_555 1_555
C22 C19 1_555 1_555
H15 C22 1_555 1_555
C23 C24 1_555 1_555
C24 H16 1_555 1_555
C25 C24 1_555 1_555
H17 C25 1_555 1_555
C26 C25 1_555 1_555
H18 C26 1_555 1_555
C27 C26 1_555 1_555
H19 C27 1_555 1_555
C28 C23 1_555 1_555
H20 C28 1_555 1_555
C29 C30 1_555 1_555
C30 H21 1_555 1_555
C31 C30 1_555 1_555
H22 C31 1_555 1_555
C32 C31 1_555 1_555
H23 C32 1_555 1_555
C33 C32 1_555 1_555
H24 C33 1_555 1_555
C34 C29 1_555 1_555
H25 C34 1_555 1_555
C35 H26 1_555 1_555
C36 C35 1_555 1_555
C37 H27 1_555 1_555
C38 C37 1_555 1_555
C39 C38 1_555 1_555
H28 C39 1_555 1_555
C40 C36 1_555 1_555
H29 C40 1_555 1_555
C41 C38 1_555 1_555
C42 C41 1_555 1_555
H30 C42 1_555 1_555
C43 C44 1_555 1_555
C44 H31 1_555 1_555
C45 C41 1_555 1_555
H32 C45 1_555 1_555
C46 C43 1_555 1_555
H33 C46 1_555 1_555
N2 C47 1_555 1_555
C47 H34 1_555 1_555
C48 C47 1_555 1_555
C49 C48 1_555 1_555
H35 C49 1_555 1_555
C50 C49 1_555 1_555
H36 C50 1_555 1_555
C51 N2 1_555 1_555
C52 H37 1_555 1_555
C53 H38 1_555 1_555
C54 C48 1_555 1_555
C55 C54 1_555 1_555
H39 C55 1_555 1_555
N3 C55 1_555 1_555
C56 C52 1_555 1_555
C57 C53 1_555 1_555
H40 C57 1_555 1_555
C58 C59 1_555 1_555
C59 H41 1_555 1_555
C60 C59 1_555 1_555
H42 C60 1_555 1_555
C61 C60 1_555 1_555
H43 C61 1_555 1_555
C62 C61 1_555 1_555
H44 C62 1_555 1_555
C63 C58 1_555 1_555
H45 C63 1_555 1_555
C64 H46 1_555 1_555
C65 C64 1_555 1_555
C66 H47 1_555 1_555
C67 C71 1_555 1_555
C68 H48 1_555 1_555
C69 C65 1_555 1_555
H49 C69 1_555 1_555
C70 H50 1_555 1_555
C71 C70 1_555 1_555
H51 C71 1_555 1_555
C72 H52 1_555 1_555
C73 C74 1_555 1_555
C74 H53 1_555 1_555
C75 C74 1_555 1_555
H54 C75 1_555 1_555
C76 C75 1_555 1_555
H55 C76 1_555 1_555
C77 C76 1_555 1_555
H56 C77 1_555 1_555
C78 C73 1_555 1_555
H57 C78 1_555 1_555
C79 C83 1_555 1_555
C80 H58 1_555 1_555
C81 C80 1_555 1_555
C82 C81 1_555 1_555
H59 C82 1_555 1_555
C83 C82 1_555 1_555
H60 C83 1_555 1_555
C84 C81 1_555 1_555
C85 C84 1_555 1_555
H61 C85 1_555 1_555
C86 C87 1_555 1_555
C87 H62 1_555 1_555
C88 C84 1_555 1_555
H63 C88 1_555 1_555
C89 C86 1_555 1_555
H64 C89 1_555 1_555
C90 C91 1_555 1_555
C91 H65 1_555 1_555
C92 C91 1_555 1_555
H66 C92 1_555 1_555
C93 C92 1_555 1_555
H67 C93 1_555 1_555
C94 C93 1_555 1_555
H68 C94 1_555 1_555
C95 C90 1_555 1_555
H69 C95 1_555 1_555
C96 H70 1_555 1_555
C97 C96 1_555 1_555
C98 C97 1_555 1_555
H71 C98 1_555 1_555
C99 C98 1_555 1_555
H72 C99 1_555 1_555
C100 C99 1_555 1_555
C101 C102 1_555 1_555
C102 H73 1_555 1_555
C103 C102 1_555 1_555
H74 C103 1_555 1_555
C104 C103 1_555 1_555
H75 C104 1_555 1_555
C105 C104 1_555 1_555
H76 C105 1_555 1_555
C106 C101 1_555 1_555
H77 C106 1_555 1_555
C107 H78 1_555 1_555
C108 H79 1_555 1_555
C109 C108 1_555 1_555
H80 C109 1_555 1_555
C110 C111 1_555 1_555
C111 H81 1_555 1_555
C112 C111 1_555 1_555
H82 C112 1_555 1_555
C113 C112 1_555 1_555
H83 C113 1_555 1_555
C114 C113 1_555 1_555
H84 C114 1_555 1_555
C115 C110 1_555 1_555
H85 C115 1_555 1_555
C116 H86 1_555 1_555
C117 C116 1_555 1_555
C118 H87 1_555 1_555
C119 C118 1_555 1_555
C120 C119 1_555 1_555
H88 C120 1_555 1_555
C121 C117 1_555 1_555
H89 C121 1_555 1_555
C122 C119 1_555 1_555
C123 C122 1_555 1_555
H90 C123 1_555 1_555
C124 C125 1_555 1_555
C125 H91 1_555 1_555
C126 C122 1_555 1_555
H92 C126 1_555 1_555
C127 C124 1_555 1_555
H93 C127 1_555 1_555
C128 C129 1_555 1_555
C129 H94 1_555 1_555
C130 C129 1_555 1_555
H95 C130 1_555 1_555
C131 C130 1_555 1_555
H96 C131 1_555 1_555
C132 C131 1_555 1_555
H97 C132 1_555 1_555
C133 C128 1_555 1_555
H98 C133 1_555 1_555
C134 C17 1_555 1_555
C135 C134 1_555 1_555
H99 C135 1_555 1_555
C136 C107 1_555 1_555
C137 C138 1_555 1_555
C138 H100 1_555 1_555
C139 C138 1_555 1_555
H101 C139 1_555 1_555
C140 C139 1_555 1_555
H102 C140 1_555 1_555
C141 C140 1_555 1_555
H103 C141 1_555 1_555
C142 C137 1_555 1_555
H104 C142 1_555 1_555
C143 C13 1_555 1_555
H105 C143 1_555 1_555
C144 C66 1_555 1_555
C145 C67 1_555 1_555
H106 C145 1_555 1_555
C146 C70 1_555 1_555
C147 C148 1_555 1_555
C148 H107 1_555 1_555
C149 C148 1_555 1_555
H108 C149 1_555 1_555
C150 C149 1_555 1_555
H109 C150 1_555 1_555
C151 C150 1_555 1_555
H110 C151 1_555 1_555
C152 C147 1_555 1_555
H111 C152 1_555 1_555
C153 C14 1_555 1_555
H112 C153 1_555 1_555
C154 C100 1_555 1_555
H113 C154 1_555 1_555
C155 C156 1_555 1_555
C156 H114 1_555 1_555
C157 C156 1_555 1_555
H115 C157 1_555 1_555
C158 C157 1_555 1_555
H116 C158 1_555 1_555
C159 C158 1_555 1_555
H117 C159 1_555 1_555
C160 C155 1_555 1_555
H118 C160 1_555 1_555
C161 C79 1_555 1_555
H119 C161 1_555 1_555
C162 C163 1_555 1_555
C163 H120 1_555 1_555
C164 C163 1_555 1_555
H121 C164 1_555 1_555
C165 C164 1_555 1_555
H122 C165 1_555 1_555
C166 C165 1_555 1_555
H123 C166 1_555 1_555
C167 C162 1_555 1_555
H124 C167 1_555 1_555
C168 C169 1_555 1_555
C169 H125 1_555 1_555
C170 C169 1_555 1_555
H126 C170 1_555 1_555
C171 C170 1_555 1_555
H127 C171 1_555 1_555
C172 C171 1_555 1_555
H128 C172 1_555 1_555
C173 C168 1_555 1_555
H129 C173 1_555 1_555
C174 C51 1_555 1_555
H130 C174 1_555 1_555
N4 C174 1_555 1_555
C175 H131 1_555 1_555
C176 C175 1_555 1_555
H132 C176 1_555 1_555
C177 C176 1_555 1_555
H133 C177 1_555 1_555
C178 C177 1_555 1_555
H134 C178 1_555 1_555
C179 N4 1_555 1_555
C180 C175 1_555 1_555
H135 C180 1_555 1_555
N5 C1 1_555 1_555
N6 C8 1_555 1_555
N7 C19 1_555 1_555
N8 C22 1_555 1_555
N9 C29 1_555 1_555
N10 C36 1_555 1_555
N11 C42 1_555 1_555
N12 C52 1_555 1_555
N13 C58 1_555 1_555
N14 C65 1_555 1_555
N15 C145 1_555 1_555
N16 C72 1_555 1_555
N17 C137 1_555 1_555
N18 C96 1_555 1_555
N19 C97 1_555 1_555
N20 C89 1_555 1_555
N21 C85 1_555 1_555
N22 C79 1_555 1_555
N23 C73 1_555 1_555
N24 C127 1_555 1_555
N25 C123 1_555 1_555
N26 C117 1_555 1_555
N27 C110 1_555 1_555
N28 C46 1_555 1_555
N29 C101 1_555 1_555
N30 C135 1_555 1_555
Ni1 N2 1_555 1_555
Ni2 N7 1_555 1_555
Ni3 N1 1_555 1_555
Ni4 N22 1_555 1_555
Ni5 N3 1_555 1_555
O1 Cl1 1_555 1_555
O2 Cl1 1_555 1_555
Cl1 O1A 1_555 1_555
O3 Cl2 1_555 1_555
O4 Cl2 1_555 1_555
O5 Cl2 1_555 1_555
O6 Cl2 1_555 1_555
O7 Cl3 1_555 1_555
O8 Cl3 1_555 1_555
O9 Cl3 1_555 1_555
O10 Cl3 1_555 1_555
O11 Cl4 1_555 1_555
O12 Cl4 1_555 1_555
O13 Cl4 1_555 1_555
O14 Cl4 1_555 1_555
Cl5 O15 1_555 1_555
O16 Cl5 1_555 1_555
O17 Cl5 1_555 1_555
O18 Cl5 1_555 1_555
Cl6 O19 1_555 1_555
O20 Cl6 1_555 1_555
O21 Cl6 1_555 1_555
O22 Cl6 1_555 1_555
C96A H70A 1_555 1_555
C97A C96A 1_555 1_555
C98A C97A 1_555 1_555
H71A C98A 1_555 1_555
C99A C98A 1_555 1_555
H72A C99A 1_555 1_555
C100A C100 1_555 1_555
C154A C100A 1_555 1_555
H113A C154A 1_555 1_555
C162A C163A 1_555 1_555
C163A H120A 1_555 1_555
C164A C163A 1_555 1_555
H121A C164A 1_555 1_555
C165A C164A 1_555 1_555
H122A C165A 1_555 1_555
C166A C165A 1_555 1_555
H123A C166A 1_555 1_555
C167A C162A 1_555 1_555
H124A C167A 1_555 1_555
N18A C96A 1_555 1_555
N19A C97A 1_555 1_555
C1A C2A 1_555 1_555
C2A H1A 1_555 1_555
C3A C2A 1_555 1_555
H2A C3A 1_555 1_555
C4A C3A 1_555 1_555
H3A C4A 1_555 1_555
C5A C4A 1_555 1_555
H4A C5A 1_555 1_555
C6A C1A 1_555 1_555
H5A C6A 1_555 1_555
C7A H6A 1_555 1_555
C8A C7A 1_555 1_555
C9A H7A 1_555 1_555
C10A C9A 1_555 1_555
C11A C10A 1_555 1_555
H8A C11A 1_555 1_555
C12A C8A 1_555 1_555
H9A C12A 1_555 1_555
C13A C10A 1_555 1_555
N1A C14A 1_555 1_555
C14A C15A 1_555 1_555
C15A H10A 1_555 1_555
C16A C15A 1_555 1_555
H11A C16A 1_555 1_555
C17A C16A 1_555 1_555
C18A N1A 1_555 1_555
H12A C18A 1_555 1_555
C19A C20A 1_555 1_555
C20A H13A 1_555 1_555
C21A C13A 1_555 1_555
H14A C21A 1_555 1_555
C22A C19A 1_555 1_555
H15A C22A 1_555 1_555
C23A C24A 1_555 1_555
C24A H16A 1_555 1_555
C25A C24A 1_555 1_555
H17A C25A 1_555 1_555
C26A C25A 1_555 1_555
H18A C26A 1_555 1_555
C27A C26A 1_555 1_555
H19A C27A 1_555 1_555
C28A C23A 1_555 1_555
H20A C28A 1_555 1_555
C29A C30A 1_555 1_555
C30A H21A 1_555 1_555
C31A C30A 1_555 1_555
H22A C31A 1_555 1_555
C32A C31A 1_555 1_555
H23A C32A 1_555 1_555
C33A C32A 1_555 1_555
H24A C33A 1_555 1_555
C34A C29A 1_555 1_555
H25A C34A 1_555 1_555
C35A H26A 1_555 1_555
C36A C35A 1_555 1_555
C37A H27A 1_555 1_555
C38A C37A 1_555 1_555
C39A C38A 1_555 1_555
H28A C39A 1_555 1_555
C40A C36A 1_555 1_555
H29A C40A 1_555 1_555
C41A C38A 1_555 1_555
C42A C41A 1_555 1_555
H30A C42A 1_555 1_555
C43A C44A 1_555 1_555
C44A H31A 1_555 1_555
C45A C41A 1_555 1_555
H32A C45A 1_555 1_555
C46A C43A 1_555 1_555
H33A C46A 1_555 1_555
N2A C47A 1_555 1_555
C47A H34A 1_555 1_555
C48A C47A 1_555 1_555
C49A C48A 1_555 1_555
H35A C49A 1_555 1_555
C50A C49A 1_555 1_555
H36A C50A 1_555 1_555
C51A N2A 1_555 1_555
C52A H37A 1_555 1_555
C53A H38A 1_555 1_555
C54A C48A 1_555 1_555
C55A C54A 1_555 1_555
H39A C55A 1_555 1_555
N3A C55A 1_555 1_555
C56A C52A 1_555 1_555
C57A C53A 1_555 1_555
H40A C57A 1_555 1_555
C58A C59A 1_555 1_555
C59A H41A 1_555 1_555
C60A C59A 1_555 1_555
H42A C60A 1_555 1_555
C61A C60A 1_555 1_555
H43A C61A 1_555 1_555
C62A C61A 1_555 1_555
H44A C62A 1_555 1_555
C63A C58A 1_555 1_555
H45A C63A 1_555 1_555
C64A H46A 1_555 1_555
C65A C64A 1_555 1_555
C66A H47A 1_555 1_555
C67A C71A 1_555 1_555
C68A H48A 1_555 1_555
C69A C65A 1_555 1_555
H49A C69A 1_555 1_555
C70A H50A 1_555 1_555
C71A C70A 1_555 1_555
H51A C71A 1_555 1_555
C72A H52A 1_555 1_555
C73A C74A 1_555 1_555
C74A H53A 1_555 1_555
C75A C74A 1_555 1_555
H54A C75A 1_555 1_555
C76A C75A 1_555 1_555
H55A C76A 1_555 1_555
C77A C76A 1_555 1_555
H56A C77A 1_555 1_555
C78A C73A 1_555 1_555
H57A C78A 1_555 1_555
C79A C83A 1_555 1_555
C80A H58A 1_555 1_555
C81A C80A 1_555 1_555
C82A C81A 1_555 1_555
H59A C82A 1_555 1_555
C83A C82A 1_555 1_555
H60A C83A 1_555 1_555
C84A C81A 1_555 1_555
C85A C84A 1_555 1_555
H61A C85A 1_555 1_555
C86A C87A 1_555 1_555
C87A H62A 1_555 1_555
C88A C84A 1_555 1_555
H63A C88A 1_555 1_555
C89A C86A 1_555 1_555
H64A C89A 1_555 1_555
C90A C91A 1_555 1_555
C91A H65A 1_555 1_555
C92A C91A 1_555 1_555
H66A C92A 1_555 1_555
C93A C92A 1_555 1_555
H67A C93A 1_555 1_555
C94A C93A 1_555 1_555
H68A C94A 1_555 1_555
C95A C90A 1_555 1_555
H69A C95A 1_555 1_555
C101A C102A 1_555 1_555
C102A H73A 1_555 1_555
C103A C102A 1_555 1_555
H74A C103A 1_555 1_555
C104A C103A 1_555 1_555
H75A C104A 1_555 1_555
C105A C104A 1_555 1_555
H76A C105A 1_555 1_555
C106A C101A 1_555 1_555
H77A C106A 1_555 1_555
C107A H78A 1_555 1_555
C108A H79A 1_555 1_555
C109A C108A 1_555 1_555
H80A C109A 1_555 1_555
C110A C111A 1_555 1_555
C111A H81A 1_555 1_555
C112A C111A 1_555 1_555
H82A C112A 1_555 1_555
C113A C112A 1_555 1_555
H83A C113A 1_555 1_555
C114A C113A 1_555 1_555
H84A C114A 1_555 1_555
C115A C110A 1_555 1_555
H85A C115A 1_555 1_555
C116A H86A 1_555 1_555
C117A C116A 1_555 1_555
C118A H87A 1_555 1_555
C119A C118A 1_555 1_555
C120A C119A 1_555 1_555
H88A C120A 1_555 1_555
C121A C117A 1_555 1_555
H89A C121A 1_555 1_555
C122A C119A 1_555 1_555
C123A C122A 1_555 1_555
H90A C123A 1_555 1_555
C124A C125A 1_555 1_555
C125A H91A 1_555 1_555
C126A C122A 1_555 1_555
H92A C126A 1_555 1_555
C127A C124A 1_555 1_555
H93A C127A 1_555 1_555
C128A C129A 1_555 1_555
C129A H94A 1_555 1_555
C130A C129A 1_555 1_555
H95A C130A 1_555 1_555
C131A C130A 1_555 1_555
H96A C131A 1_555 1_555
C132A C131A 1_555 1_555
H97A C132A 1_555 1_555
C133A C128A 1_555 1_555
H98A C133A 1_555 1_555
C134A C17A 1_555 1_555
C135A C134A 1_555 1_555
H99A C135A 1_555 1_555
C136A C107A 1_555 1_555
C137A C138A 1_555 1_555
C138A H100A 1_555 1_555
C139A C138A 1_555 1_555
H101A C139A 1_555 1_555
C140A C139A 1_555 1_555
H102A C140A 1_555 1_555
C141A C140A 1_555 1_555
H103A C141A 1_555 1_555
C142A C137A 1_555 1_555
H104A C142A 1_555 1_555
C143A C13A 1_555 1_555
H105A C143A 1_555 1_555
C144A C66A 1_555 1_555
C145A C67A 1_555 1_555
H106A C145A 1_555 1_555
C146A C70A 1_555 1_555
C147A C148A 1_555 1_555
C148A H107A 1_555 1_555
C149A C148A 1_555 1_555
H108A C149A 1_555 1_555
C150A C149A 1_555 1_555
H109A C150A 1_555 1_555
C151A C150A 1_555 1_555
H110A C151A 1_555 1_555
C152A C147A 1_555 1_555
H111A C152A 1_555 1_555
C153A C14A 1_555 1_555
H112A C153A 1_555 1_555
C155A C156A 1_555 1_555
C156A H114A 1_555 1_555
C157A C156A 1_555 1_555
H115A C157A 1_555 1_555
C158A C157A 1_555 1_555
H116A C158A 1_555 1_555
C159A C158A 1_555 1_555
H117A C159A 1_555 1_555
C160A C155A 1_555 1_555
H118A C160A 1_555 1_555
C161A C79A 1_555 1_555
H119A C161A 1_555 1_555
C168A C169A 1_555 1_555
C169A H125A 1_555 1_555
C170A C169A 1_555 1_555
H126A C170A 1_555 1_555
C171A C170A 1_555 1_555
H127A C171A 1_555 1_555
C172A C171A 1_555 1_555
H128A C172A 1_555 1_555
C173A C168A 1_555 1_555
H129A C173A 1_555 1_555
C174A C51A 1_555 1_555
H130A C174A 1_555 1_555
N4A C174A 1_555 1_555
C175A H131A 1_555 1_555
C176A C175A 1_555 1_555
H132A C176A 1_555 1_555
C177A C176A 1_555 1_555
H133A C177A 1_555 1_555
C178A C177A 1_555 1_555
H134A C178A 1_555 1_555
C179A N4A 1_555 1_555
C180A C175A 1_555 1_555
H135A C180A 1_555 1_555
N5A C1A 1_555 1_555
N6A C8A 1_555 1_555
N7A C19A 1_555 1_555
N8A C22A 1_555 1_555
N9A C29A 1_555 1_555
N10A C36A 1_555 1_555
N11A Ni5 1_555 1_555
N12A C52A 1_555 1_555
N13A C58A 1_555 1_555
N14A C65A 1_555 1_555
N15A C145A 1_555 1_555
N16A C72A 1_555 1_555
N17A C137A 1_555 1_555
N20A C89A 1_555 1_555
N21A C85A 1_555 1_555
N22A C79A 1_555 1_555
N23A C73A 1_555 1_555
N24A C127A 1_555 1_555
N25A C123A 1_555 1_555
N26A C117A 1_555 1_555
N27A C110A 1_555 1_555
N28A Ni5 1_555 1_555
N29A Ni4 1_555 1_555
N30A Ni4 1_555 1_555
Ni1A N2A 1_555 1_555
Ni2A N7A 1_555 1_555
Ni3A N18A 1_555 1_555
Ni4A N29 1_555 1_555
Ni5A N11 1_555 1_555
O2A Cl1 1_555 1_555
C5 C6 1_555 1_555
C7 N5 1_555 1_555
C9 N6 1_555 1_555
C11 C12 1_555 1_555
C17 C18 1_555 1_555
C20 C21 1_555 1_555
C23 N8 1_555 1_555
C27 C28 1_555 1_555
C33 C34 1_555 1_555
C35 N9 1_555 1_555
C37 N10 1_555 1_555
C39 C40 1_555 1_555
C43 N11 1_555 1_555
C44 C45 1_555 1_555
C50 C51 1_555 1_555
C53 C54 1_555 1_555
N3 C56 1_555 1_555
C56 C57 1_555 1_555
C62 C63 1_555 1_555
C64 N13 1_555 1_555
C66 N14 1_555 1_555
C67 C144 1_555 1_555
C68 C69 1_555 1_555
C68 C144 1_555 1_555
C72 C146 1_555 1_555
C77 C78 1_555 1_555
C80 N22 1_555 1_555
C86 N21 1_555 1_555
C87 C88 1_555 1_555
C90 N20 1_555 1_555
C94 C95 1_555 1_555
C105 C106 1_555 1_555
C107 N29 1_555 1_555
C108 C136 1_555 1_555
C109 C134 1_555 1_555
C114 C115 1_555 1_555
C116 N27 1_555 1_555
C118 N26 1_555 1_555
C120 C121 1_555 1_555
C124 N25 1_555 1_555
C125 C126 1_555 1_555
C128 N24 1_555 1_555
C132 C133 1_555 1_555
C136 N30 1_555 1_555
C141 C142 1_555 1_555
C143 N7 1_555 1_555
C146 N15 1_555 1_555
C147 N16 1_555 1_555
C151 C152 1_555 1_555
C153 N17 1_555 1_555
C154 N19 1_555 1_555
C155 N28 1_555 1_555
C159 C160 1_555 1_555
C161 N23 1_555 1_555
C162 N18 1_555 1_555
C166 C167 1_555 1_555
C168 N12 1_555 1_555
C172 C173 1_555 1_555
N4 Ni1 1_555 1_555
C178 C179 1_555 1_555
C179 C180 1_555 1_555
N5 Ni1 1_555 1_555
N6 Ni1 1_555 1_555
N8 Ni2 1_555 1_555
N9 Ni1 1_555 1_555
N10 Ni1 1_555 1_555
N12 Ni5 1_555 1_555
N13 Ni2 1_555 1_555
N14 Ni2 1_555 1_555
N15 Ni3 1_555 1_555
N16 Ni3 1_555 1_555
N17 Ni3 1_555 1_555
N18 Ni3 1_555 1_555
N19 Ni3 1_555 1_555
N20 Ni2 1_555 1_555
N21 Ni2 1_555 1_555
N23 Ni4 1_555 1_555
N24 Ni5 1_555 1_555
N25 Ni5 1_555 1_555
N26 Ni4 1_555 1_555
N27 Ni4 1_555 1_555
N28 Ni5A 1_555 1_555
N30 Ni4A 1_555 1_555
C99A C100A 1_555 1_555
C154A N19A 1_555 1_555
C162A N18A 1_555 1_555
C166A C167A 1_555 1_555
N19A Ni3A 1_555 1_555
C5A C6A 1_555 1_555
C7A N5A 1_555 1_555
C9A N6A 1_555 1_555
C11A C12A 1_555 1_555
N1A Ni3A 1_555 1_555
C17A C18A 1_555 1_555
C20A C21A 1_555 1_555
C23A N8A 1_555 1_555
C27A C28A 1_555 1_555
C33A C34A 1_555 1_555
C35A N9A 1_555 1_555
C37A N10A 1_555 1_555
C39A C40A 1_555 1_555
C42A N11A 1_555 1_555
C43A N11A 1_555 1_555
C44A C45A 1_555 1_555
C46A N28A 1_555 1_555
C50A C51A 1_555 1_555
C53A C54A 1_555 1_555
N3A C56A 1_555 1_555
N3A Ni5A 1_555 1_555
C56A C57A 1_555 1_555
C62A C63A 1_555 1_555
C64A N13A 1_555 1_555
C66A N14A 1_555 1_555
C67A C144A 1_555 1_555
C68A C69A 1_555 1_555
C68A C144A 1_555 1_555
C72A C146A 1_555 1_555
C77A C78A 1_555 1_555
C80A N22A 1_555 1_555
C86A N21A 1_555 1_555
C87A C88A 1_555 1_555
C90A N20A 1_555 1_555
C94A C95A 1_555 1_555
C101A N29A 1_555 1_555
C105A C106A 1_555 1_555
C107A N29A 1_555 1_555
C108A C136A 1_555 1_555
C109A C134A 1_555 1_555
C114A C115A 1_555 1_555
C116A N27A 1_555 1_555
C118A N26A 1_555 1_555
C120A C121A 1_555 1_555
C124A N25A 1_555 1_555
C125A C126A 1_555 1_555
C128A N24A 1_555 1_555
C132A C133A 1_555 1_555
C135A N30A 1_555 1_555
C136A N30A 1_555 1_555
C141A C142A 1_555 1_555
C143A N7A 1_555 1_555
C146A N15A 1_555 1_555
C147A N16A 1_555 1_555
C151A C152A 1_555 1_555
C153A N17A 1_555 1_555
C155A N28A 1_555 1_555
C159A C160A 1_555 1_555
C161A N23A 1_555 1_555
C168A N12A 1_555 1_555
C172A C173A 1_555 1_555
N4A Ni1A 1_555 1_555
C178A C179A 1_555 1_555
C179A C180A 1_555 1_555
N5A Ni1A 1_555 1_555
N6A Ni1A 1_555 1_555
N8A Ni2A 1_555 1_555
N9A Ni1A 1_555 1_555
N10A Ni1A 1_555 1_555
N12A Ni5A 1_555 1_555
N13A Ni2A 1_555 1_555
N14A Ni2A 1_555 1_555
N15A Ni3A 1_555 1_555
N16A Ni3A 1_555 1_555
N17A Ni3A 1_555 1_555
N20A Ni2A 1_555 1_555
N21A Ni2A 1_555 1_555
N22A Ni4A 1_555 1_555
N23A Ni4A 1_555 1_555
N24A Ni5A 1_555 1_555
N25A Ni5A 1_555 1_555
N26A Ni4A 1_555 1_555
N27A Ni4A 1_555 1_555

#END
