
#######################################################################
#
#                 Cambridge Crystallographic Data Centre
#                                CCDC 
#
#######################################################################
#
# If this CIF has been generated from an entry in the Cambridge 
# Structural Database, then it will include bibliographic, chemical, 
# crystal, experimental, refinement or atomic coordinate data resulting 
# from the CCDC's data processing and validation procedures.
#
#######################################################################

data_XEXHOZ
_chemical_formula_moiety         
'C156 H132 N24 Ni4 8+,8(C1 F3 O3 S1 1-),6.25(C2 H3 N1),6(C4 H10 O1)'
_chemical_name_systematic        
"hexakis(\m~2~-N,N'-(3,3'-Bipyridine-6,6'-diyldimethylylidene)bis(4-methylaniline))-tetra-nickel octakis(trifluoromethanesulfonate) acetonitrile diethyl ether solvate"
_symmetry_cell_setting           hexagonal
_symmetry_space_group_name_H-M   'P -6 2 c'
_symmetry_Int_Tables_number      190
_space_group_name_Hall           "P -6c -2'c"
loop_
_symmetry_equiv_pos_site_id
_symmetry_equiv_pos_as_xyz
1 x,y,z
2 -y,x-y,z
3 -x+y,-x,z
4 x-y,-y,-z
5 -x,-x+y,-z
6 y,x,-z
7 y,x,1/2+z
8 -x,-x+y,1/2+z
9 x-y,-y,1/2+z
10 x,y,1/2-z
11 -x+y,-x,1/2-z
12 -y,x-y,1/2-z
_cell_length_a                   24.581(5)
_cell_length_b                   24.581(5)
_cell_length_c                   41.330(11)
_cell_angle_alpha                90
_cell_angle_beta                 90
_cell_angle_gamma                120
_cell_volume                     21626.9
_exptl_crystal_colour            orange
_exptl_crystal_description       shard
_cell_formula_units_Z            4
loop_
_atom_site_label
_atom_site_type_symbol
_atom_site_fract_x
_atom_site_fract_y
_atom_site_fract_z
C53 C 0.5182(9) 0.1005(12) 0.2500
O1 O 0.5295(4) 0.1887(5) 0.21989(16)
O2 O 0.6148(5) 0.2016(9) 0.2500
F1 F 0.4525(8) 0.0714(8) 0.2500
F2 F 0.5326(6) 0.0795(5) 0.2771(2)
S1 S 0.5486(2) 0.1837(3) 0.2500
O1I O 0.5295(4) 0.1887(5) 0.28011(16)
F2I F 0.5326(6) 0.0795(5) 0.2229(2)
C54 C 0.3654(8) 0.4139(7) 0.1094(4)
O3 O 0.4544(4) 0.5036(3) 0.0789(3)
O4 O 0.3897(6) 0.4107(5) 0.0513(4)
O5 O 0.3517(6) 0.4786(5) 0.0665(2)
F3 F 0.4027(5) 0.3877(4) 0.1180(4)
F4 F 0.3672(6) 0.4521(5) 0.1328(3)
F5 F 0.3061(4) 0.3674(4) 0.1094(3)
S2 S 0.39620(14) 0.45315(16) 0.07343(9)
C55 C 0.6667 0.3333 0.0967(8)
C56 C 0.6667 0.3333 0.0596(7)
H45 H 0.7098 0.3511 0.0517
N9 N 0.6667 0.3333 0.1244(7)
H45A H 0.6489 0.3587 0.0517
H45B H 0.6413 0.2902 0.0517
C57 C 0.5677(5) 0.4283(5) 0.0262(3)
C58 C 0.5317(5) 0.4599(5) 0.0137(2)
H46 H 0.5316 0.4883 0.0303
H47 H 0.4884 0.4278 0.0086
H48 H 0.5522 0.4839 -0.0059
N10 N 0.5935(6) 0.4041(6) 0.0349(3)
C59 C 0.3834(15) -0.0671(14) 0.1425(7)
N11 N 0.3431(18) -0.0850(17) 0.1263(8)
C60 C 0.429(2) -0.048(2) 0.1613(9)
H49 H 0.4631 -0.0501 0.1506
H50 H 0.4160 -0.0737 0.1808
H51 H 0.4427 -0.0040 0.1671
N12 N 0.388(2) 0.260(2) 0.2500
C61 C 0.345(2) 0.214(2) 0.2500
C62 C 0.278(3) 0.156(3) 0.2500
H52 H 0.2893 0.1236 0.2500
S3 S 0.5152(11) 0.1228(11) -0.2500
C63 C 0.5611(12) 0.0874(13) -0.2500
F6 F 0.6275(10) 0.1280(17) -0.2500
F7 F 0.5542(14) 0.0490(12) -0.2775(6)
O6 O 0.5414(16) 0.1516(14) -0.2208(4)
O7 O 0.4609(19) 0.0646(16) -0.2500
F7I F 0.5542(14) 0.0490(12) -0.2225(6)
O6I O 0.5414(16) 0.1516(14) -0.2792(4)
C1 C 0.2957(6) 0.2253(7) 0.1249(3)
C2 C 0.2349(6) 0.2050(7) 0.1137(3)
H1 H 0.2258 0.1951 0.0914
C3 C 0.1882(6) 0.1990(7) 0.1338(3)
H2 H 0.1484 0.1881 0.1249
C4 C 0.1973(6) 0.2085(7) 0.1679(3)
C5 C 0.2605(6) 0.2300(7) 0.1793(4)
H3 H 0.2699 0.2404 0.2015
C6 C 0.3084(6) 0.2361(7) 0.1585(3)
H4 H 0.3487 0.2472 0.1669
C7 C 0.1494(6) 0.2011(7) 0.1912(3)
H5 H 0.1230 0.1566 0.1967
H6 H 0.1233 0.2168 0.1818
H7 H 0.1697 0.2251 0.2109
C8 C 0.3529(4) 0.2622(4) 0.07836(19)
H8 H 0.3333 0.2867 0.0751
C9 C 0.3959(4) 0.2612(4) 0.0538(2)
C10 C 0.4590(4) 0.2209(4) 0.03960(17)
H9 H 0.4772 0.1957 0.0449
C11 C 0.4716(3) 0.2482(3) 0.0097(2)
C12 C 0.4447(4) 0.2862(4) 0.00192(18)
H10 H 0.4524 0.3065 -0.0185
C13 C 0.4078(4) 0.2930(4) 0.0243(2)
H11 H 0.3903 0.3190 0.0199
C14 C 0.5050(4) 0.2342(3) -0.0154(2)
C15 C 0.5587(4) 0.2813(4) -0.03123(18)
H12 H 0.5745 0.3237 -0.0248
C16 C 0.5655(4) 0.2098(4) -0.0655(2)
C17 C 0.5111(5) 0.1613(4) -0.0512(2)
H13 H 0.4936 0.1197 -0.0593
C18 C 0.4832(5) 0.1730(4) -0.0258(2)
H14 H 0.4486 0.1391 -0.0152
C19 C 0.5940(5) 0.2005(4) -0.0921(2)
H15 H 0.5793 0.1595 -0.1006
C20 C 0.6678(5) 0.2399(10) -0.1324(2)
C21 C 0.7282(5) 0.2485(10) -0.1311(3)
H16 H 0.7510 0.2607 -0.1113
C22 C 0.7550(5) 0.2392(10) -0.1586(3)
H17 H 0.7962 0.2451 -0.1576
C23 C 0.7216(6) 0.2214(10) -0.1874(3)
C24 C 0.6613(6) 0.2128(10) -0.1888(2)
H18 H 0.6384 0.2005 -0.2085
C25 C 0.6344(5) 0.2220(10) -0.1613(2)
H19 H 0.5932 0.2162 -0.1622
C26 C 0.7436(9) 0.1936(13) -0.2146(4)
H20 H 0.7155 0.1830 -0.2332
H21 H 0.7427 0.1556 -0.2066
H22 H 0.7865 0.2245 -0.2210
C27 C 0.7945(4) 0.7246(3) 0.08276(19)
C28 C 0.8465(6) 0.7461(5) 0.0616(2)
H23 H 0.8583 0.7174 0.0534
C29 C 0.8808(6) 0.8094(4) 0.0529(3)
H24 H 0.9169 0.8238 0.0396
C30 C 0.8625(6) 0.8519(4) 0.0636(3)
C31 C 0.8134(6) 0.8316(4) 0.0845(2)
H25 H 0.8027 0.8608 0.0932
C32 C 0.7778(6) 0.7673(4) 0.0935(2)
H26 H 0.7421 0.7536 0.1070
C33 C 0.9007(7) 0.9200(5) 0.0544(3)
H27 H 0.9106 0.9229 0.0313
H28 H 0.9398 0.9407 0.0669
H29 H 0.8763 0.9408 0.0587
C34 C 0.7003(6) 0.6338(4) 0.08717(18)
H30 H 0.6819 0.6571 0.0792
C35 C 0.6604(5) 0.5658(4) 0.09574(19)
C36 C 0.6578(5) 0.4797(3) 0.11865(19)
H31 H 0.6791 0.4599 0.1277
C37 C 0.5909(6) 0.4461(4) 0.1178(2)
C38 C 0.5625(6) 0.4759(4) 0.1043(2)
H32 H 0.5179 0.4540 0.1027
C39 C 0.5954(5) 0.5359(3) 0.0930(2)
H33 H 0.5751 0.5563 0.0837
C40 C 0.3527(4) 0.1048(4) 0.17051(18)
C41 C 0.2879(5) 0.0762(4) 0.1660(2)
H34 H 0.2682 0.0969 0.1564
C42 C 0.2531(13) 0.0108(9) 0.1775(6)
H35 H 0.2086 -0.0102 0.1761
C43 C 0.2799(9) -0.0225(8) 0.1902(5)
C44 C 0.3468(10) 0.0129(9) 0.1966(5)
H36 H 0.3689 -0.0061 0.2057
C45 C 0.3763(6) 0.0759(5) 0.1888(3)
H37 H 0.4175 0.1016 0.1971
C46 C 0.2417(9) -0.0847(8) 0.2039(5)
H38 H 0.2178 -0.0824 0.2223
H39 H 0.2690 -0.1008 0.2112
H40 H 0.2126 -0.1129 0.1874
C47 C 0.4372(4) 0.2092(4) 0.1747(2)
H41 H 0.4417 0.2008 0.1966
C48 C 0.4818(4) 0.2694(4) 0.16120(18)
C49 C 0.5075(3) 0.3324(3) 0.11635(19)
H42 H 0.5012 0.3393 0.0944
C50 C 0.5548(3) 0.3826(4) 0.1339(2)
C51 C 0.5658(4) 0.3737(4) 0.1649(2)
H43 H 0.5990 0.4070 0.1766
C52 C 0.5280(4) 0.3151(4) 0.17979(19)
H44 H 0.5343 0.3076 0.2017
N1 N 0.3425(3) 0.2294(3) 0.10428(17)
N2 N 0.4227(3) 0.2270(2) 0.06214(14)
N3 N 0.5882(3) 0.2697(3) -0.05457(18)
N4 N 0.6414(4) 0.2489(4) -0.10534(18)
N5 N 0.7608(4) 0.6601(3) 0.09087(15)
N6 N 0.6910(4) 0.5371(3) 0.10737(14)
N7 N 0.3917(3) 0.1667(3) 0.15805(15)
N8 N 0.4708(3) 0.2752(3) 0.12904(16)
Ni1 Ni 0.40206(4) 0.19188(4) 0.10862(2)
Ni2 Ni 0.6667 0.3333 -0.08102(4)
C1A C 0.7747(7) 0.0704(9) 0.1249(3)
C2A C 0.7950(7) 0.0299(9) 0.1137(3)
H1A H 0.8049 0.0307 0.0914
C3A C 0.8010(7) -0.0108(9) 0.1338(3)
H2A H 0.8119 -0.0397 0.1249
C4A C 0.7915(7) -0.0112(9) 0.1679(3)
C5A C 0.7700(7) 0.0305(9) 0.1793(4)
H3A H 0.7596 0.0295 0.2015
C6A C 0.7639(7) 0.0723(9) 0.1585(3)
H4A H 0.7528 0.1015 0.1669
C7A C 0.7989(7) -0.0517(9) 0.1912(3)
H5A H 0.8434 -0.0336 0.1967
H6A H 0.7832 -0.0935 0.1818
H7A H 0.7749 -0.0554 0.2109
C8A C 0.7378(4) 0.0907(6) 0.07836(19)
H8A H 0.7133 0.0466 0.0751
C9A C 0.7388(4) 0.1347(6) 0.0538(2)
C10A C 0.7791(4) 0.2381(6) 0.03960(17)
H9A H 0.8043 0.2815 0.0449
C11A C 0.7518(3) 0.2234(4) 0.0097(2)
C12A C 0.7138(4) 0.1585(6) 0.00192(18)
H10A H 0.6935 0.1459 -0.0185
C13A C 0.7070(4) 0.1148(6) 0.0243(2)
H11A H 0.6810 0.0713 0.0199
C14A C 0.7658(3) 0.2708(5) -0.0154(2)
C15A C 0.7187(4) 0.2774(6) -0.03123(18)
H12A H 0.6763 0.2508 -0.0248
C16A C 0.7902(4) 0.3557(6) -0.0655(2)
C17A C 0.8387(4) 0.3498(6) -0.0512(2)
H13A H 0.8803 0.3739 -0.0593
C18A C 0.8270(4) 0.3102(6) -0.0258(2)
H14A H 0.8609 0.3095 -0.0152
C19A C 0.7995(4) 0.3935(6) -0.0921(2)
H15A H 0.8405 0.4198 -0.1006
C20A C 0.7601(10) 0.4279(11) -0.1324(2)
C21A C 0.7515(10) 0.4797(11) -0.1311(3)
H16A H 0.7393 0.4903 -0.1113
C22A C 0.7608(10) 0.5158(11) -0.1586(3)
H17A H 0.7549 0.5511 -0.1576
C23A C 0.7786(10) 0.5002(12) -0.1874(3)
C24A C 0.7872(10) 0.4485(12) -0.1888(2)
H18A H 0.7995 0.4379 -0.2085
C25A C 0.7780(10) 0.4124(11) -0.1613(2)
H19A H 0.7838 0.3770 -0.1622
C26A C 0.8064(13) 0.5500(16) -0.2146(4)
H20A H 0.8170 0.5325 -0.2332
H21A H 0.8444 0.5871 -0.2066
H22A H 0.7755 0.5620 -0.2210
C27A C 0.2754(3) 0.0699(5) 0.08276(19)
C28A C 0.2539(5) 0.1004(8) 0.0616(2)
H23A H 0.2826 0.1409 0.0534
C29A C 0.1906(4) 0.0714(7) 0.0529(3)
H24A H 0.1762 0.0931 0.0396
C30A C 0.1481(4) 0.0106(7) 0.0636(3)
C31A C 0.1684(4) -0.0182(7) 0.0845(2)
H25A H 0.1392 -0.0581 0.0932
C32A C 0.2327(4) 0.0105(7) 0.0935(2)
H26A H 0.2464 -0.0115 0.1070
C33A C 0.0800(5) -0.0193(9) 0.0544(3)
H27A H 0.0771 -0.0123 0.0313
H28A H 0.0593 -0.0009 0.0669
H29A H 0.0592 -0.0645 0.0587
C34A C 0.3662(4) 0.0665(7) 0.08717(18)
H30A H 0.3429 0.0248 0.0792
C35A C 0.4342(4) 0.0946(6) 0.09574(19)
C36A C 0.5203(3) 0.1781(6) 0.11865(19)
H31A H 0.5401 0.2192 0.1277
C37A C 0.5539(4) 0.1448(7) 0.1178(2)
C38A C 0.5241(4) 0.0866(7) 0.1043(2)
H32A H 0.5460 0.0639 0.1027
C39A C 0.4641(3) 0.0595(6) 0.0930(2)
H33A H 0.4437 0.0188 0.0837
C40A C 0.8952(4) 0.2479(6) 0.17051(18)
C41A C 0.9238(4) 0.2117(6) 0.1660(2)
H34A H 0.9031 0.1713 0.1564
C42A C 0.9892(9) 0.2423(16) 0.1775(6)
H35A H 1.0102 0.2188 0.1761
C43A C 1.0225(8) 0.3024(12) 0.1902(5)
C44A C 0.9871(9) 0.3339(13) 0.1966(5)
H36A H 1.0061 0.3750 0.2057
C45A C 0.9241(5) 0.3004(8) 0.1888(3)
H37A H 0.8984 0.3159 0.1971
C46A C 1.0847(8) 0.3264(12) 0.2039(5)
H38A H 1.0824 0.3002 0.2223
H39A H 1.1008 0.3698 0.2112
H40A H 1.1129 0.3255 0.1874
C47A C 0.7908(4) 0.2280(6) 0.1747(2)
H41A H 0.7992 0.2409 0.1966
C48A C 0.7306(4) 0.2124(6) 0.16120(18)
C49A C 0.6676(3) 0.1751(4) 0.11635(19)
H42A H 0.6607 0.1619 0.0944
C50A C 0.6174(4) 0.1722(5) 0.1339(2)
C51A C 0.6263(4) 0.1921(6) 0.1649(2)
H43A H 0.5930 0.1920 0.1766
C52A C 0.6849(4) 0.2129(6) 0.17979(19)
H44A H 0.6924 0.2267 0.2017
N1A N 0.7706(3) 0.1131(4) 0.10428(17)
N2A N 0.7730(2) 0.1957(4) 0.06214(14)
N3A N 0.7303(3) 0.3185(4) -0.05457(18)
N4A N 0.7511(4) 0.3925(6) -0.10534(18)
N5A N 0.3399(3) 0.1007(5) 0.09087(15)
N6A N 0.4629(3) 0.1539(5) 0.10737(14)
N7A N 0.8333(3) 0.2250(4) 0.15805(15)
N8A N 0.7248(3) 0.1956(4) 0.12904(16)
Ni1A Ni 0.80812(4) 0.21018(6) 0.10862(2)
C1B C 0.9296(9) 0.7043(6) 0.1249(3)
C2B C 0.9701(9) 0.7651(6) 0.1137(3)
H1B H 0.9693 0.7742 0.0914
C3B C 1.0108(9) 0.8118(6) 0.1338(3)
H2B H 1.0397 0.8516 0.1249
C4B C 1.0112(9) 0.8027(6) 0.1679(3)
C5B C 0.9695(9) 0.7395(6) 0.1793(4)
H3B H 0.9705 0.7301 0.2015
C6B C 0.9277(9) 0.6916(6) 0.1585(3)
H4B H 0.8985 0.6513 0.1669
C7B C 1.0517(9) 0.8506(6) 0.1912(3)
H5B H 1.0336 0.8770 0.1967
H6B H 1.0935 0.8767 0.1818
H7B H 1.0554 0.8303 0.2109
C8B C 0.9093(6) 0.6471(4) 0.07836(19)
H8B H 0.9534 0.6667 0.0751
C9B C 0.8653(6) 0.6041(4) 0.0538(2)
C10B C 0.7619(6) 0.5410(4) 0.03960(17)
H9B H 0.7185 0.5228 0.0449
C11B C 0.7766(4) 0.5284(3) 0.0097(2)
C12B C 0.8415(6) 0.5553(4) 0.00192(18)
H10B H 0.8541 0.5476 -0.0185
C13B C 0.8852(6) 0.5922(4) 0.0243(2)
H11B H 0.9287 0.6097 0.0199
C14B C 0.7292(5) 0.4950(4) -0.0154(2)
C15B C 0.7226(6) 0.4413(4) -0.03123(18)
H12B H 0.7492 0.4255 -0.0248
C16B C 0.6443(6) 0.4345(4) -0.0655(2)
C17B C 0.6502(6) 0.4889(5) -0.0512(2)
H13B H 0.6261 0.5064 -0.0593
C18B C 0.6898(6) 0.5168(5) -0.0258(2)
H14B H 0.6905 0.5514 -0.0152
C19B C 0.6065(6) 0.4060(5) -0.0921(2)
H15B H 0.5802 0.4207 -0.1006
C20B C 0.5721(11) 0.3322(5) -0.1324(2)
C21B C 0.5203(11) 0.2718(5) -0.1311(3)
H16B H 0.5097 0.2490 -0.1113
C22B C 0.4842(11) 0.2450(5) -0.1586(3)
H17B H 0.4489 0.2038 -0.1576
C23B C 0.4998(12) 0.2784(6) -0.1874(3)
C24B C 0.5515(12) 0.3387(6) -0.1888(2)
H18B H 0.5621 0.3616 -0.2085
C25B C 0.5876(11) 0.3656(5) -0.1613(2)
H19B H 0.6230 0.4068 -0.1622
C26B C 0.4500(16) 0.2564(9) -0.2146(4)
H20B H 0.4675 0.2845 -0.2332
H21B H 0.4129 0.2573 -0.2066
H22B H 0.4380 0.2135 -0.2210
C27B C 0.9301(5) 0.2055(4) 0.08276(19)
C28B C 0.8996(8) 0.1535(6) 0.0616(2)
H23B H 0.8591 0.1417 0.0534
C29B C 0.9286(7) 0.1192(6) 0.0529(3)
H24B H 0.9069 0.0831 0.0396
C30B C 0.9894(7) 0.1375(6) 0.0636(3)
C31B C 1.0182(7) 0.1866(6) 0.0845(2)
H25B H 1.0581 0.1973 0.0932
C32B C 0.9895(7) 0.2222(6) 0.0935(2)
H26B H 1.0115 0.2579 0.1070
C33B C 1.0193(9) 0.0993(7) 0.0544(3)
H27B H 1.0123 0.0894 0.0313
H28B H 1.0009 0.0602 0.0669
H29B H 1.0645 0.1237 0.0587
C34B C 0.9335(7) 0.2997(6) 0.08717(18)
H30B H 0.9752 0.3181 0.0792
C35B C 0.9054(6) 0.3396(5) 0.09574(19)
C36B C 0.8219(6) 0.3422(5) 0.11865(19)
H31B H 0.7808 0.3209 0.1277
C37B C 0.8552(7) 0.4091(6) 0.1178(2)
C38B C 0.9134(7) 0.4375(6) 0.1043(2)
H32B H 0.9361 0.4821 0.1027
C39B C 0.9405(6) 0.4046(5) 0.0930(2)
H33B H 0.9812 0.4249 0.0837
C40B C 0.7521(6) 0.6473(4) 0.17051(18)
C41B C 0.7883(6) 0.7121(5) 0.1660(2)
H34B H 0.8287 0.7318 0.1564
C42B C 0.7577(16) 0.7469(13) 0.1775(6)
H35B H 0.7812 0.7914 0.1761
C43B C 0.6976(12) 0.7201(9) 0.1902(5)
C44B C 0.6661(13) 0.6532(10) 0.1966(5)
H36B H 0.6250 0.6311 0.2057
C45B C 0.6996(8) 0.6237(6) 0.1888(3)
H37B H 0.6841 0.5825 0.1971
C46B C 0.6736(12) 0.7583(9) 0.2039(5)
H38B H 0.6998 0.7822 0.2223
H39B H 0.6302 0.7310 0.2112
H40B H 0.6745 0.7874 0.1874
C47B C 0.7720(6) 0.5628(4) 0.1747(2)
H41B H 0.7591 0.5583 0.1966
C48B C 0.7876(6) 0.5182(4) 0.16120(18)
C49B C 0.8249(4) 0.4925(3) 0.11635(19)
H42B H 0.8381 0.4988 0.0944
C50B C 0.8278(5) 0.4452(3) 0.1339(2)
C51B C 0.8079(6) 0.4342(4) 0.1649(2)
H43B H 0.8080 0.4010 0.1766
C52B C 0.7871(6) 0.4720(4) 0.17979(19)
H44B H 0.7733 0.4657 0.2017
N1B N 0.8869(4) 0.6575(3) 0.10428(17)
N2B N 0.8043(4) 0.5773(3) 0.06214(14)
N3B N 0.6815(4) 0.4118(3) -0.05457(18)
N4B N 0.6075(6) 0.3586(4) -0.10534(18)
N5B N 0.8993(5) 0.2392(4) 0.09087(15)
N6B N 0.8461(5) 0.3090(4) 0.10737(14)
N7B N 0.7750(4) 0.6083(3) 0.15805(15)
N8B N 0.8044(4) 0.5292(3) 0.12904(16)
Ni1B Ni 0.78982(6) 0.59794(4) 0.10862(2)
H53? H 0.7809 0.1924 -0.2074
H54? H 0.7537 0.2198 -0.2340
H55? H 0.7099 0.1509 -0.2196
C64? C 0.3527(4) 0.1048(4) 0.17051(18)
C65? C 0.2879(5) 0.0762(4) 0.1660(2)
H56? H 0.2735 0.0958 0.1512
C66? C 0.2488(19) 0.0292(14) 0.1789(9)
H57? H 0.2061 0.0149 0.1739
C67? C 0.2618(13) -0.0064(9) 0.2014(5)
C68? C 0.3271(15) 0.0215(13) 0.2081(8)
H58? H 0.3401 0.0054 0.2255
C69? C 0.3763(6) 0.0759(5) 0.1888(3)
H59? H 0.4197 0.0886 0.1894
C70? C 0.2142(13) -0.0686(11) 0.2178(7)
H60? H 0.2351 -0.0923 0.2236
H61? H 0.1796 -0.0934 0.2028
H62? H 0.1977 -0.0595 0.2373
H63? H 0.7098 0.3511 0.0517
H64? H 0.7098 0.3511 0.0517
H65? H 0.2552 0.1502 0.2296
H66? H 0.2508 0.1536 0.2681
S4? S 0.21585(15) 0.21585(15) 0.0000
O8? O 0.1596(4) 0.1596(4) 0.0000
O9? O 0.2251(6) 0.2612(5) -0.0231(3)
F8? F 0.3180(6) 0.2421(9) -0.0354(4)
C71? C 0.2595(10) 0.1915(10) -0.0261(4)
F9? F 0.2716(8) 0.1490(8) -0.0138(4)
F10? F 0.2315(7) 0.1649(7) -0.0555(4)
C72? C 0.3099(2) 0.0286(2) -0.00136(14)
F11? F 0.2632(4) 0.0031(3) -0.0173(2)
F12? F 0.2887(4) 0.0374(3) -0.02939(19)
F13? F 0.2605(4) -0.0846(2) -0.01179(19)
O10? O 0.3082(3) -0.0705(2) -0.02060(18)
O11? O 0.4041(3) 0.0287(3) -0.0274(2)
S5? S 0.3538(2) -0.0119(2) -0.00663(14)
O12? O 0.3726(4) -0.0159(4) 0.02565(18)
loop_
_geom_bond_atom_site_label_1
_geom_bond_atom_site_label_2
_geom_bond_site_symmetry_1
_geom_bond_site_symmetry_2
C1 C2 1_555 1_555
C2 H1 1_555 1_555
C3 C2 1_555 1_555
H2 C3 1_555 1_555
C4 C3 1_555 1_555
C5 C4 1_555 1_555
H3 C5 1_555 1_555
C6 C1 1_555 1_555
H4 C6 1_555 1_555
C7 C4 1_555 1_555
H5 C7 1_555 1_555
H6 C7 1_555 1_555
H7 C7 1_555 1_555
C8 H8 1_555 1_555
C9 C8 1_555 1_555
C10 H9 1_555 1_555
C11 C10 1_555 1_555
C12 C11 1_555 1_555
H10 C12 1_555 1_555
C13 C9 1_555 1_555
H11 C13 1_555 1_555
C14 C11 1_555 1_555
C15 C14 1_555 1_555
H12 C15 1_555 1_555
C16 C17 1_555 1_555
C17 H13 1_555 1_555
C18 C14 1_555 1_555
H14 C18 1_555 1_555
C19 C16 1_555 1_555
H15 C19 1_555 1_555
C20 C21 1_555 1_555
C21 H16 1_555 1_555
C22 C21 1_555 1_555
H17 C22 1_555 1_555
C23 C22 1_555 1_555
C24 C23 1_555 1_555
H18 C24 1_555 1_555
C25 C20 1_555 1_555
H19 C25 1_555 1_555
C26 C23 1_555 1_555
H20 C26 1_555 1_555
H21 C26 1_555 1_555
H22 C26 1_555 1_555
C27 C28 1_555 1_555
C28 H23 1_555 1_555
C29 C28 1_555 1_555
H24 C29 1_555 1_555
C30 C29 1_555 1_555
C31 C30 1_555 1_555
H25 C31 1_555 1_555
C32 C27 1_555 1_555
H26 C32 1_555 1_555
C33 C30 1_555 1_555
H27 C33 1_555 1_555
H28 C33 1_555 1_555
H29 C33 1_555 1_555
C34 H30 1_555 1_555
C35 C34 1_555 1_555
C36 H31 1_555 1_555
C37 C36 1_555 1_555
C38 C37 1_555 1_555
H32 C38 1_555 1_555
C39 C35 1_555 1_555
H33 C39 1_555 1_555
C40 C41 1_555 1_555
C41 H34 1_555 1_555
C42 C41 1_555 1_555
H35 C42 1_555 1_555
C43 C42 1_555 1_555
C44 C43 1_555 1_555
H36 C44 1_555 1_555
C45 C40 1_555 1_555
H37 C45 1_555 1_555
C46 C43 1_555 1_555
H38 C46 1_555 1_555
H39 C46 1_555 1_555
H40 C46 1_555 1_555
C47 H41 1_555 1_555
C48 C47 1_555 1_555
C49 H42 1_555 1_555
C50 C37 1_555 1_555
C51 C50 1_555 1_555
H43 C51 1_555 1_555
C52 C48 1_555 1_555
H44 C52 1_555 1_555
N1 C1 1_555 1_555
N2 C9 1_555 1_555
N3 C15 1_555 1_555
N4 C19 1_555 1_555
N5 C27 1_555 1_555
N6 C35 1_555 1_555
N7 C40 1_555 1_555
N8 C48 1_555 1_555
Ni1 N1 1_555 1_555
Ni2 N3 1_555 1_555
C53 F1 1_555 1_555
O1 S1 1_555 1_555
O2 S1 1_555 1_555
F2 C53 1_555 1_555
S1 C53 1_555 1_555
C54 F3 1_555 1_555
O3 S2 1_555 1_555
O4 S2 1_555 1_555
O5 S2 1_555 1_555
F4 C54 1_555 1_555
F5 C54 1_555 1_555
S2 C54 1_555 1_555
C55 C56 1_555 1_555
C56 H45 1_555 1_555
N9 C55 1_555 1_555
C57 C58 1_555 1_555
C58 H46 1_555 1_555
H47 C58 1_555 1_555
H48 C58 1_555 1_555
N10 C57 1_555 1_555
C59 N11 1_555 1_555
C60 C59 1_555 1_555
H49 C60 1_555 1_555
H50 C60 1_555 1_555
H51 C60 1_555 1_555
N12 C61 1_555 1_555
C61 C62 1_555 1_555
C62 H52 1_555 1_555
S3 C63 1_555 1_555
C63 F6 1_555 1_555
F7 C63 1_555 1_555
O6 S3 1_555 1_555
O7 S3 1_555 1_555
C1A C2A 1_555 1_555
C2A H1A 1_555 1_555
C3A C2A 1_555 1_555
H2A C3A 1_555 1_555
C4A C3A 1_555 1_555
C5A C4A 1_555 1_555
H3A C5A 1_555 1_555
C6A C1A 1_555 1_555
H4A C6A 1_555 1_555
C7A C4A 1_555 1_555
H5A C7A 1_555 1_555
H6A C7A 1_555 1_555
H7A C7A 1_555 1_555
C8A H8A 1_555 1_555
C9A C8A 1_555 1_555
C10A H9A 1_555 1_555
C11A C10A 1_555 1_555
C12A C11A 1_555 1_555
H10A C12A 1_555 1_555
C13A C9A 1_555 1_555
H11A C13A 1_555 1_555
C14A C11A 1_555 1_555
C15A C14A 1_555 1_555
H12A C15A 1_555 1_555
C16A C17A 1_555 1_555
C17A H13A 1_555 1_555
C18A C14A 1_555 1_555
H14A C18A 1_555 1_555
C19A C16A 1_555 1_555
H15A C19A 1_555 1_555
C20A C21A 1_555 1_555
C21A H16A 1_555 1_555
C22A C21A 1_555 1_555
H17A C22A 1_555 1_555
C23A C22A 1_555 1_555
C24A C23A 1_555 1_555
H18A C24A 1_555 1_555
C25A C20A 1_555 1_555
H19A C25A 1_555 1_555
C26A C23A 1_555 1_555
H20A C26A 1_555 1_555
H21A C26A 1_555 1_555
H22A C26A 1_555 1_555
C27A C28A 1_555 1_555
C28A H23A 1_555 1_555
C29A C28A 1_555 1_555
H24A C29A 1_555 1_555
C30A C29A 1_555 1_555
C31A C30A 1_555 1_555
H25A C31A 1_555 1_555
C32A C27A 1_555 1_555
H26A C32A 1_555 1_555
C33A C30A 1_555 1_555
H27A C33A 1_555 1_555
H28A C33A 1_555 1_555
H29A C33A 1_555 1_555
C34A H30A 1_555 1_555
C35A C34A 1_555 1_555
C36A H31A 1_555 1_555
C37A C36A 1_555 1_555
C38A C37A 1_555 1_555
H32A C38A 1_555 1_555
C39A C35A 1_555 1_555
H33A C39A 1_555 1_555
C40A C41A 1_555 1_555
C41A H34A 1_555 1_555
C42A C41A 1_555 1_555
H35A C42A 1_555 1_555
C43A C42A 1_555 1_555
C44A C43A 1_555 1_555
H36A C44A 1_555 1_555
C45A C40A 1_555 1_555
H37A C45A 1_555 1_555
C46A C43A 1_555 1_555
H38A C46A 1_555 1_555
H39A C46A 1_555 1_555
H40A C46A 1_555 1_555
C47A H41A 1_555 1_555
C48A C47A 1_555 1_555
C49A H42A 1_555 1_555
C50A C37A 1_555 1_555
C51A C50A 1_555 1_555
H43A C51A 1_555 1_555
C52A C48A 1_555 1_555
H44A C52A 1_555 1_555
N1A C1A 1_555 1_555
N2A C9A 1_555 1_555
N3A Ni2 1_555 1_555
N4A Ni2 1_555 1_555
N5A Ni1 1_555 1_555
N6A Ni1 1_555 1_555
N7A C40A 1_555 1_555
N8A C48A 1_555 1_555
Ni1A N1A 1_555 1_555
C1B C2B 1_555 1_555
C2B H1B 1_555 1_555
C3B C2B 1_555 1_555
H2B C3B 1_555 1_555
C4B C3B 1_555 1_555
C5B C4B 1_555 1_555
H3B C5B 1_555 1_555
C6B C1B 1_555 1_555
H4B C6B 1_555 1_555
C7B C4B 1_555 1_555
H5B C7B 1_555 1_555
H6B C7B 1_555 1_555
H7B C7B 1_555 1_555
C8B H8B 1_555 1_555
C9B C8B 1_555 1_555
C10B H9B 1_555 1_555
C11B C10B 1_555 1_555
C12B C11B 1_555 1_555
H10B C12B 1_555 1_555
C13B C9B 1_555 1_555
H11B C13B 1_555 1_555
C14B C11B 1_555 1_555
C15B C14B 1_555 1_555
H12B C15B 1_555 1_555
C16B C17B 1_555 1_555
C17B H13B 1_555 1_555
C18B C14B 1_555 1_555
H14B C18B 1_555 1_555
C19B C16B 1_555 1_555
H15B C19B 1_555 1_555
C20B C21B 1_555 1_555
C21B H16B 1_555 1_555
C22B C21B 1_555 1_555
H17B C22B 1_555 1_555
C23B C22B 1_555 1_555
C24B C23B 1_555 1_555
H18B C24B 1_555 1_555
C25B C20B 1_555 1_555
H19B C25B 1_555 1_555
C26B C23B 1_555 1_555
H20B C26B 1_555 1_555
H21B C26B 1_555 1_555
H22B C26B 1_555 1_555
C27B C28B 1_555 1_555
C28B H23B 1_555 1_555
C29B C28B 1_555 1_555
H24B C29B 1_555 1_555
C30B C29B 1_555 1_555
C31B C30B 1_555 1_555
H25B C31B 1_555 1_555
C32B C27B 1_555 1_555
H26B C32B 1_555 1_555
C33B C30B 1_555 1_555
H27B C33B 1_555 1_555
H28B C33B 1_555 1_555
H29B C33B 1_555 1_555
C34B H30B 1_555 1_555
C35B C34B 1_555 1_555
C36B H31B 1_555 1_555
C37B C36B 1_555 1_555
C38B C37B 1_555 1_555
H32B C38B 1_555 1_555
C39B C35B 1_555 1_555
H33B C39B 1_555 1_555
C40B C41B 1_555 1_555
C41B H34B 1_555 1_555
C42B C41B 1_555 1_555
H35B C42B 1_555 1_555
C43B C42B 1_555 1_555
C44B C43B 1_555 1_555
H36B C44B 1_555 1_555
C45B C40B 1_555 1_555
H37B C45B 1_555 1_555
C46B C43B 1_555 1_555
H38B C46B 1_555 1_555
H39B C46B 1_555 1_555
H40B C46B 1_555 1_555
C47B H41B 1_555 1_555
C48B C47B 1_555 1_555
C49B H42B 1_555 1_555
C50B C37B 1_555 1_555
C51B C50B 1_555 1_555
H43B C51B 1_555 1_555
C52B C48B 1_555 1_555
H44B C52B 1_555 1_555
N1B C1B 1_555 1_555
N2B C9B 1_555 1_555
N3B Ni2 1_555 1_555
N4B Ni2 1_555 1_555
N5B Ni1A 1_555 1_555
N6B Ni1A 1_555 1_555
N7B C40B 1_555 1_555
N8B C48B 1_555 1_555
Ni1B N5 1_555 1_555
O1I S1 1_555 1_555
F2I C53 1_555 1_555
H45A C56 1_555 1_555
H45B C56 1_555 1_555
F7I C63 1_555 1_555
O6I S3 1_555 1_555
C5 C6 1_555 1_555
C8 N1 1_555 1_555
C10 N2 1_555 1_555
C12 C13 1_555 1_555
C16 N3 1_555 1_555
C17 C18 1_555 1_555
C20 N4 1_555 1_555
C24 C25 1_555 1_555
C31 C32 1_555 1_555
C34 N5 1_555 1_555
C36 N6 1_555 1_555
C38 C39 1_555 1_555
C44 C45 1_555 1_555
C47 N7 1_555 1_555
C49 C50 1_555 1_555
C49 N8 1_555 1_555
C51 C52 1_555 1_555
N2 Ni1 1_555 1_555
N4 Ni2 1_555 1_555
N6 Ni1B 1_555 1_555
N7 Ni1 1_555 1_555
N8 Ni1 1_555 1_555
C5A C6A 1_555 1_555
C8A N1A 1_555 1_555
C10A N2A 1_555 1_555
C12A C13A 1_555 1_555
C15A N3A 1_555 1_555
C16A N3A 1_555 1_555
C17A C18A 1_555 1_555
C19A N4A 1_555 1_555
C20A N4A 1_555 1_555
C24A C25A 1_555 1_555
C27A N5A 1_555 1_555
C31A C32A 1_555 1_555
C34A N5A 1_555 1_555
C35A N6A 1_555 1_555
C36A N6A 1_555 1_555
C38A C39A 1_555 1_555
C44A C45A 1_555 1_555
C47A N7A 1_555 1_555
C49A C50A 1_555 1_555
C49A N8A 1_555 1_555
C51A C52A 1_555 1_555
N2A Ni1A 1_555 1_555
N7A Ni1A 1_555 1_555
N8A Ni1A 1_555 1_555
C5B C6B 1_555 1_555
C8B N1B 1_555 1_555
C10B N2B 1_555 1_555
C12B C13B 1_555 1_555
C15B N3B 1_555 1_555
C16B N3B 1_555 1_555
C17B C18B 1_555 1_555
C19B N4B 1_555 1_555
C20B N4B 1_555 1_555
C24B C25B 1_555 1_555
C27B N5B 1_555 1_555
C31B C32B 1_555 1_555
C34B N5B 1_555 1_555
C35B N6B 1_555 1_555
C36B N6B 1_555 1_555
C38B C39B 1_555 1_555
C44B C45B 1_555 1_555
C47B N7B 1_555 1_555
C49B C50B 1_555 1_555
C49B N8B 1_555 1_555
C51B C52B 1_555 1_555
N1B Ni1B 1_555 1_555
N2B Ni1B 1_555 1_555
N7B Ni1B 1_555 1_555
N8B Ni1B 1_555 1_555

#END
