
#######################################################################
#
#                 Cambridge Crystallographic Data Centre
#                                CCDC 
#
#######################################################################
#
# If this CIF has been generated from an entry in the Cambridge 
# Structural Database, then it will include bibliographic, chemical, 
# crystal, experimental, refinement or atomic coordinate data resulting 
# from the CCDC's data processing and validation procedures.
#
#######################################################################

data_XEXHIT
_chemical_formula_moiety         
'C212 H176 F12 N32 Ni6 O12 S4 8+,8(C1 F3 O3 S1 1-),6(C6 H14 O1),8(C2 H3 N1)'
_chemical_name_systematic        
"octakis(\m~2~-N,N'-(3,3'-Bipyridine-6,6'-diyldimethylylidene)bis(4-methylaniline))-tetrakis(trifluoromethanesulfonato)-hexa-nickel octakis(trifluoromethanesulfonate) acetonitrile di-isopropyl ether solvate"
_symmetry_cell_setting           hexagonal
_symmetry_space_group_name_H-M   'P 64 2 2'
_symmetry_Int_Tables_number      181
_space_group_name_Hall           "P 64 2' (0,0,2)"
loop_
_symmetry_equiv_pos_site_id
_symmetry_equiv_pos_as_xyz
1 x,y,z
2 -x,-y,z
3 -y,x-y,1/3+z
4 -x+y,-x,2/3+z
5 x-y,x,2/3+z
6 y,-x+y,1/3+z
7 x-y,-y,-z
8 -x,-x+y,2/3-z
9 y,x,1/3-z
10 -y,-x,1/3-z
11 x,x-y,2/3-z
12 -x+y,y,-z
_cell_length_a                   21.9120(2)
_cell_length_b                   21.9120(2)
_cell_length_c                   54.0560(9)
_cell_angle_alpha                90
_cell_angle_beta                 90
_cell_angle_gamma                120
_cell_volume                     22477
_exptl_crystal_colour            orange
_exptl_crystal_description       rhombus
_cell_formula_units_Z            3
loop_
_atom_site_label
_atom_site_type_symbol
_atom_site_fract_x
_atom_site_fract_y
_atom_site_fract_z
S2 S 0.1934(3) -0.2450(4) 0.53769(10)
O4 O 0.1988(5) -0.1771(4) 0.53720(16)
O5 O 0.2375(3) -0.2533(6) 0.52029(15)
O6 O 0.1911(4) -0.2726(6) 0.56186(11)
F4 F 0.0907(5) -0.3696(4) 0.52494(17)
F5 F 0.0565(3) -0.3026(6) 0.54032(16)
F6 F 0.0974(4) -0.2846(5) 0.50352(12)
C54 C 0.1053(3) -0.3029(4) 0.52608(10)
C1 C 0.1440(8) -0.0877(11) 0.5870(4)
C2 C 0.1045(8) -0.1303(10) 0.5685(4)
H1 H 0.1269 -0.1405 0.5555
C3 C 0.0284(7) -0.1611(11) 0.5680(3)
H2 H -0.0005 -0.1967 0.5565
C4 C 0.0019(9) -0.1363(11) 0.5845(4)
C5 C 0.0362(6) -0.0990(9) 0.6022(3)
H3 H 0.0125 -0.0902 0.6153
C6 C 0.1103(8) -0.0693(10) 0.6032(4)
H4 H 0.1365 -0.0357 0.6157
C7 C -0.0827(6) -0.1659(9) 0.5822(3)
H5 H -0.0973 -0.1442 0.5950
H6 H -0.1019 -0.1994 0.5684
H7 H -0.0908 -0.1264 0.5791
C8 C 0.2412(6) -0.1037(7) 0.5870(2)
H8 H 0.2092 -0.1530 0.5863
C9 C 0.3188(6) -0.0769(8) 0.58699(18)
C10 C 0.4254(6) 0.0200(6) 0.59239(17)
H9 H 0.4524 0.0691 0.5958
C11 C 0.4610(6) -0.0168(6) 0.58807(18)
C12 C 0.4176(7) -0.0883(7) 0.58282(19)
H10 H 0.4385 -0.1161 0.5789
C13 C 0.3455(6) -0.1193(7) 0.5831(2)
H11 H 0.3160 -0.1686 0.5807
C14 C 0.4164(10) 0.1959(10) 0.6112(3)
C15 C 0.4355(10) 0.1694(10) 0.6320(3)
H12 H 0.4284 0.1230 0.6320
C16 C 0.4645(10) 0.2125(8) 0.6521(3)
H13 H 0.4791 0.1962 0.6659
C17 C 0.4727(10) 0.2782(9) 0.6527(3)
C18 C 0.4516(9) 0.3010(10) 0.6330(3)
H14 H 0.4570 0.3468 0.6338
C19 C 0.4212(10) 0.2597(10) 0.6107(3)
H15 H 0.4061 0.2761 0.5970
C20 C 0.5020(10) 0.3238(8) 0.6758(3)
H16 H 0.5053 0.3696 0.6729
H17 H 0.5113 0.2977 0.6885
H18 H 0.4676 0.3362 0.6820
C21 C 0.4064(7) 0.1698(7) 0.5683(2)
H19 H 0.4416 0.2177 0.5660
C22 C 0.3775(7) 0.1248(9) 0.5475(3)
C23 C 0.2983(7) 0.0107(7) 0.5338(2)
H20 H 0.2593 -0.0349 0.5368
C24 C 0.3246(6) 0.0264(7) 0.5098(2)
C25 C 0.3780(8) 0.0960(7) 0.5049(2)
H21 H 0.3969 0.1094 0.4887
C26 C 0.4022(7) 0.1433(8) 0.5234(3)
H22 H 0.4370 0.1907 0.5199
C27 C 0.2263(6) 0.1230(8) 0.5673(2)
C28 C 0.1919(6) 0.0807(6) 0.5470(2)
H23 H 0.1752 0.0315 0.5477
C29 C 0.1820(5) 0.1103(6) 0.5258(2)
H24 H 0.1585 0.0813 0.5119
C30 C 0.2065(4) 0.1822(6) 0.52476(17)
C31 C 0.2409(5) 0.2246(6) 0.5450(2)
H25 H 0.2576 0.2738 0.5444
C32 C 0.2508(6) 0.1950(8) 0.56632(18)
H26 H 0.2743 0.2239 0.5802
C33 C 0.1947(7) 0.2077(9) 0.4996(2)
H27 H 0.2131 0.2587 0.5003
H28 H 0.1441 0.1836 0.4959
H29 H 0.2193 0.1971 0.4866
C34 C 0.2251(9) 0.1097(9) 0.6101(3)
H30 H 0.2044 0.1387 0.6116
C35 C 0.2447(8) 0.0856(8) 0.6330(3)
C36 C 0.2937(6) 0.0238(7) 0.6462(2)
H31 H 0.3145 -0.0044 0.6429
C37 C 0.2826(6) 0.0346(7) 0.67166(19)
C38 C 0.2451(7) 0.0683(9) 0.6759(3)
H32 H 0.2322 0.0727 0.6923
C39 C 0.2267(9) 0.0952(10) 0.6567(3)
H33 H 0.2020 0.1200 0.6593
C40 C 0.3099(7) 0.0079(7) 0.6915(2)
C41 C 0.3775(6) 0.0172(7) 0.6896(2)
H34 H 0.4061 0.0447 0.6762
C42 C 0.3629(7) -0.0508(7) 0.7240(2)
C43 C 0.2989(8) -0.0575(8) 0.7283(3)
H35 H 0.2734 -0.0819 0.7427
C44 C 0.2700(7) -0.0295(9) 0.7124(2)
H36 H 0.2247 -0.0354 0.7154
C45 C 0.3948(9) -0.0824(10) 0.7378(3)
H37 H 0.3719 -0.1105 0.7519
C46 C 0.4901(8) -0.1045(9) 0.7445(3)
C47 C 0.5190(9) -0.1386(9) 0.7314(2)
H38 H 0.5094 -0.1478 0.7143
C48 C 0.5619(9) -0.1592(9) 0.7434(2)
H39 H 0.5817 -0.1824 0.7344
C49 C 0.5759(7) -0.1457(8) 0.7685(2)
C50 C 0.5470(8) -0.1117(8) 0.7816(2)
H40 H 0.5566 -0.1025 0.7988
C51 C 0.5041(9) -0.0911(9) 0.7696(3)
H41 H 0.4844 -0.0678 0.7786
C52 C 0.6207(10) -0.1698(11) 0.7818(3)
H42 H 0.6272 -0.1540 0.7990
H43 H 0.6667 -0.1498 0.7736
H44 H 0.5973 -0.2214 0.7813
N1 N 0.2181(5) -0.0615(7) 0.58778(16)
N2 N 0.3578(5) -0.0088(5) 0.59199(17)
N3 N 0.3852(6) 0.1460(6) 0.58986(19)
N4 N 0.3222(5) 0.0520(7) 0.5515(2)
N5 N 0.2354(5) 0.0924(6) 0.5888(2)
N6 N 0.2778(5) 0.0488(6) 0.6278(2)
N7 N 0.4042(5) -0.0087(6) 0.70471(17)
N8 N 0.4529(7) -0.0727(7) 0.7311(2)
C53 C 0.6445(7) 0.1838(8) 0.66482(17)
O1 O 0.5269(5) 0.0756(6) 0.67591(18)
O2 O 0.6061(5) 0.0611(6) 0.64707(18)
O3 O 0.5471(5) 0.1237(6) 0.63327(18)
F1 F 0.6196(4) 0.2260(5) 0.67257(13)
F2 F 0.6759(4) 0.1682(5) 0.68349(13)
F3 F 0.6877(4) 0.2110(5) 0.64488(13)
S1 S 0.5713(2) 0.0991(3) 0.65299(8)
Ni1 Ni 0.29931(8) 0.04467(9) 0.59051(3)
Ni2 Ni 0.5000 0.0000 0.70304(4)
C1A C 0.8560(8) 0.0877(11) 0.5870(4)
C2A C 0.8955(8) 0.1303(10) 0.5685(4)
H1A H 0.8731 0.1405 0.5555
C3A C 0.9716(7) 0.1611(11) 0.5680(3)
H2A H 1.0005 0.1967 0.5565
C4A C 0.9981(9) 0.1363(11) 0.5845(4)
C5A C 0.9638(6) 0.0990(9) 0.6022(3)
H3A H 0.9875 0.0902 0.6153
C6A C 0.8897(8) 0.0693(10) 0.6032(4)
H4A H 0.8635 0.0357 0.6157
C7A C 1.0827(6) 0.1659(9) 0.5822(3)
H5A H 1.0973 0.1442 0.5950
H6A H 1.1019 0.1994 0.5684
H7A H 1.0908 0.1264 0.5791
C8A C 0.7588(6) 0.1037(7) 0.5870(2)
H8A H 0.7908 0.1530 0.5863
C9A C 0.6812(6) 0.0769(8) 0.58699(18)
C10A C 0.5746(6) -0.0200(6) 0.59239(17)
H9A H 0.5476 -0.0691 0.5958
C11A C 0.5390(6) 0.0168(6) 0.58807(18)
C12A C 0.5824(7) 0.0883(7) 0.58282(19)
H10A H 0.5615 0.1161 0.5789
C13A C 0.6545(6) 0.1193(7) 0.5831(2)
H11A H 0.6840 0.1686 0.5807
N1A N 0.7819(5) 0.0615(7) 0.58778(16)
N2A N 0.6422(5) 0.0088(5) 0.59199(17)
C14F C 0.2205(14) -0.1959(10) 0.3888(3)
C15F C 0.2661(14) -0.1694(10) 0.3680(3)
H12F H 0.3054 -0.1230 0.3680
C16F C 0.2520(13) -0.2125(8) 0.3479(3)
H13F H 0.2829 -0.1962 0.3341
C17F C 0.1945(13) -0.2782(9) 0.3473(3)
C18F C 0.1506(13) -0.3010(10) 0.3670(3)
H14F H 0.1102 -0.3468 0.3662
C19F C 0.1615(14) -0.2597(10) 0.3893(3)
H15F H 0.1300 -0.2761 0.4030
C20F C 0.1782(13) -0.3238(8) 0.3242(3)
H16F H 0.1357 -0.3696 0.3271
H17F H 0.2136 -0.2977 0.3115
H18F H 0.1314 -0.3362 0.3180
C21F C 0.2366(10) -0.1698(7) 0.4317(2)
H19F H 0.2239 -0.2177 0.4340
C22F C 0.2527(11) -0.1248(9) 0.4525(3)
C23F C 0.2876(10) -0.0107(7) 0.4662(2)
H20F H 0.2942 0.0349 0.4632
C24F C 0.2982(9) -0.0264(7) 0.4902(2)
C25F C 0.2820(11) -0.0960(7) 0.4951(2)
H21F H 0.2875 -0.1094 0.5113
C26F C 0.2589(11) -0.1433(8) 0.4766(3)
H22F H 0.2463 -0.1907 0.4801
N3F N 0.2392(8) -0.1460(6) 0.41014(19)
N4F N 0.2702(9) -0.0520(7) 0.4485(2)
C14A C 0.5836(10) -0.1959(10) 0.6112(3)
C15A C 0.5645(10) -0.1694(10) 0.6320(3)
H12A H 0.5716 -0.1230 0.6320
C16A C 0.5355(10) -0.2125(8) 0.6521(3)
H13A H 0.5209 -0.1962 0.6659
C17A C 0.5273(10) -0.2782(9) 0.6527(3)
C18A C 0.5484(9) -0.3010(10) 0.6330(3)
H14A H 0.5430 -0.3468 0.6338
C19A C 0.5788(10) -0.2597(10) 0.6107(3)
H15A H 0.5939 -0.2761 0.5970
C20A C 0.4980(10) -0.3238(8) 0.6758(3)
H16A H 0.4947 -0.3696 0.6729
H17A H 0.4887 -0.2977 0.6885
H18A H 0.5324 -0.3362 0.6820
C21A C 0.5936(7) -0.1698(7) 0.5683(2)
H19A H 0.5584 -0.2177 0.5660
C22A C 0.6225(7) -0.1248(9) 0.5475(3)
C23A C 0.7017(7) -0.0107(7) 0.5338(2)
H20A H 0.7407 0.0349 0.5368
C24A C 0.6754(6) -0.0264(7) 0.5098(2)
C25A C 0.6220(8) -0.0960(7) 0.5049(2)
H21A H 0.6031 -0.1094 0.4887
C26A C 0.5978(7) -0.1433(8) 0.5234(3)
H22A H 0.5630 -0.1907 0.5199
C27A C 0.7737(6) -0.1230(8) 0.5673(2)
C28A C 0.8081(6) -0.0807(6) 0.5470(2)
H23A H 0.8248 -0.0315 0.5477
C29A C 0.8180(5) -0.1103(6) 0.5258(2)
H24A H 0.8415 -0.0813 0.5119
C30A C 0.7935(4) -0.1822(6) 0.52476(17)
C31A C 0.7591(5) -0.2246(6) 0.5450(2)
H25A H 0.7424 -0.2738 0.5444
C32A C 0.7492(6) -0.1950(8) 0.56632(18)
H26A H 0.7257 -0.2239 0.5802
C33A C 0.8053(7) -0.2077(9) 0.4996(2)
H27A H 0.7869 -0.2587 0.5003
H28A H 0.8559 -0.1836 0.4959
H29A H 0.7807 -0.1971 0.4866
C34A C 0.7749(9) -0.1097(9) 0.6101(3)
H30A H 0.7956 -0.1387 0.6116
C35A C 0.7553(8) -0.0856(8) 0.6330(3)
C36A C 0.7063(6) -0.0238(7) 0.6462(2)
H31A H 0.6855 0.0044 0.6429
C37A C 0.7174(6) -0.0346(7) 0.67166(19)
C38A C 0.7549(7) -0.0683(9) 0.6759(3)
H32A H 0.7678 -0.0727 0.6923
C39A C 0.7733(9) -0.0952(10) 0.6567(3)
H33A H 0.7980 -0.1200 0.6593
C40A C 0.6901(7) -0.0079(7) 0.6915(2)
C41A C 0.6225(6) -0.0172(7) 0.6896(2)
H34A H 0.5939 -0.0447 0.6762
C42A C 0.6371(7) 0.0508(7) 0.7240(2)
C43A C 0.7011(8) 0.0575(8) 0.7283(3)
H35A H 0.7266 0.0819 0.7427
C44A C 0.7300(7) 0.0295(9) 0.7124(2)
H36A H 0.7753 0.0354 0.7154
C45A C 0.6052(9) 0.0824(10) 0.7378(3)
H37A H 0.6281 0.1105 0.7519
C46A C 0.5099(8) 0.1045(9) 0.7445(3)
C47A C 0.4810(9) 0.1386(9) 0.7314(2)
H38A H 0.4906 0.1478 0.7143
C48A C 0.4381(9) 0.1592(9) 0.7434(2)
H39A H 0.4183 0.1824 0.7344
C49A C 0.4241(7) 0.1457(8) 0.7685(2)
C50A C 0.4530(8) 0.1117(8) 0.7816(2)
H40A H 0.4434 0.1025 0.7988
C51A C 0.4959(9) 0.0911(9) 0.7696(3)
H41A H 0.5156 0.0678 0.7786
C52A C 0.3793(10) 0.1698(11) 0.7818(3)
H42A H 0.3728 0.1540 0.7990
H43A H 0.3333 0.1498 0.7736
H44A H 0.4027 0.2214 0.7813
N3A N 0.6148(6) -0.1460(6) 0.58986(19)
N4A N 0.6778(5) -0.0520(7) 0.5515(2)
N5A N 0.7646(5) -0.0924(6) 0.5888(2)
N6A N 0.7222(5) -0.0488(6) 0.6278(2)
N7A N 0.5958(5) 0.0087(6) 0.70471(17)
N8A N 0.5471(7) 0.0727(7) 0.7311(2)
C53A C 0.3555(7) -0.1838(8) 0.66482(17)
O1A O 0.4731(5) -0.0756(6) 0.67591(18)
O2A O 0.3939(5) -0.0611(6) 0.64707(18)
O3A O 0.4529(5) -0.1237(6) 0.63327(18)
F1A F 0.3804(4) -0.2260(5) 0.67257(13)
F2A F 0.3241(4) -0.1682(5) 0.68349(13)
F3A F 0.3123(4) -0.2110(5) 0.64488(13)
S1A S 0.4287(2) -0.0991(3) 0.65299(8)
Ni1A Ni 0.70069(8) -0.04467(9) 0.59051(3)
C14K C 0.7795(14) 0.1959(10) 0.3888(3)
C15K C 0.7339(14) 0.1694(10) 0.3680(3)
H12K H 0.6946 0.1230 0.3680
C16K C 0.7480(13) 0.2125(8) 0.3479(3)
H13K H 0.7171 0.1962 0.3341
C17K C 0.8055(13) 0.2782(9) 0.3473(3)
C18K C 0.8494(13) 0.3010(10) 0.3670(3)
H14K H 0.8898 0.3468 0.3662
C19K C 0.8385(14) 0.2597(10) 0.3893(3)
H15K H 0.8700 0.2761 0.4030
C20K C 0.8218(13) 0.3238(8) 0.3242(3)
H16K H 0.8643 0.3696 0.3271
H17K H 0.7864 0.2977 0.3115
H18K H 0.8686 0.3362 0.3180
C21K C 0.7634(10) 0.1698(7) 0.4317(2)
H19K H 0.7761 0.2177 0.4340
C22K C 0.7473(11) 0.1248(9) 0.4525(3)
C23K C 0.7124(10) 0.0107(7) 0.4662(2)
H20K H 0.7058 -0.0349 0.4632
C24K C 0.7018(9) 0.0264(7) 0.4902(2)
C25K C 0.7180(11) 0.0960(7) 0.4951(2)
H21K H 0.7125 0.1094 0.5113
C26K C 0.7411(11) 0.1433(8) 0.4766(3)
H22K H 0.7537 0.1907 0.4801
N3K N 0.7608(8) 0.1460(6) 0.41014(19)
N4K N 0.7298(9) 0.0520(7) 0.4485(2)
C1F C 0.2317(14) 0.0877(11) 0.4130(4)
C2F C 0.2348(13) 0.1303(10) 0.4315(4)
H1F H 0.2674 0.1405 0.4445
C3F C 0.1895(13) 0.1611(11) 0.4320(3)
H2F H 0.1962 0.1967 0.4435
C4F C 0.1382(14) 0.1363(11) 0.4155(4)
C5F C 0.1352(11) 0.0990(9) 0.3978(3)
H3F H 0.1027 0.0902 0.3847
C6F C 0.1796(13) 0.0693(10) 0.3968(4)
H4F H 0.1722 0.0357 0.3843
C7F C 0.0832(11) 0.1659(9) 0.4178(3)
H5F H 0.0469 0.1442 0.4050
H6F H 0.0975 0.1994 0.4316
H7F H 0.0356 0.1264 0.4209
C8F C 0.3449(9) 0.1037(7) 0.4130(2)
H8F H 0.3622 0.1530 0.4137
C9F C 0.3957(10) 0.0769(8) 0.41301(18)
C10F C 0.4054(8) -0.0200(6) 0.40761(17)
H9F H 0.3833 -0.0691 0.4042
C11F C 0.4778(8) 0.0168(6) 0.41193(18)
C12F C 0.5059(10) 0.0883(7) 0.41718(19)
H10F H 0.5546 0.1161 0.4211
C13F C 0.4648(9) 0.1193(7) 0.4169(2)
H11F H 0.4846 0.1686 0.4193
C27F C 0.1033(10) -0.1230(8) 0.4327(2)
C28F C 0.1112(8) -0.0807(6) 0.4530(2)
H23F H 0.1437 -0.0315 0.4523
C29F C 0.0717(8) -0.1103(6) 0.4742(2)
H24F H 0.0772 -0.0813 0.4881
C30F C 0.0243(7) -0.1822(6) 0.47524(17)
C31F C 0.0163(8) -0.2246(6) 0.4550(2)
H25F H -0.0162 -0.2738 0.4556
C32F C 0.0558(10) -0.1950(8) 0.43368(18)
H26F H 0.0504 -0.2239 0.4198
C33F C -0.0130(11) -0.2077(9) 0.5004(2)
H27F H -0.0456 -0.2587 0.4997
H28F H -0.0395 -0.1836 0.5041
H29F H 0.0222 -0.1971 0.5134
C34F C 0.1154(13) -0.1097(9) 0.3899(3)
H30F H 0.0657 -0.1387 0.3884
C35F C 0.1591(11) -0.0856(8) 0.3670(3)
C36F C 0.2699(9) -0.0238(7) 0.3538(2)
H31F H 0.3189 0.0044 0.3571
C37F C 0.2480(9) -0.0346(7) 0.32834(19)
C38F C 0.1768(11) -0.0683(9) 0.3241(3)
H32F H 0.1595 -0.0727 0.3077
C39F C 0.1315(13) -0.0952(10) 0.3433(3)
H33F H 0.0820 -0.1200 0.3407
C40F C 0.3020(10) -0.0079(7) 0.3085(2)
C41F C 0.3603(9) -0.0172(7) 0.3104(2)
H34F H 0.3614 -0.0447 0.3238
C42F C 0.4137(10) 0.0508(7) 0.2760(2)
C43F C 0.3564(11) 0.0575(8) 0.2717(3)
H35F H 0.3553 0.0819 0.2573
C44F C 0.2995(11) 0.0295(9) 0.2876(2)
H36F H 0.2601 0.0354 0.2846
C45F C 0.4772(13) 0.0824(10) 0.2622(3)
H37F H 0.4824 0.1105 0.2481
C46F C 0.5946(12) 0.1045(9) 0.2555(3)
C47F C 0.6576(13) 0.1386(9) 0.2686(2)
H38F H 0.6572 0.1478 0.2857
C48F C 0.7211(13) 0.1592(9) 0.2566(2)
H39F H 0.7641 0.1824 0.2656
C49F C 0.7216(11) 0.1457(8) 0.2315(2)
C50F C 0.6587(11) 0.1117(8) 0.2184(2)
H40F H 0.6591 0.1025 0.2012
C51F C 0.5952(13) 0.0911(9) 0.2304(3)
H41F H 0.5522 0.0678 0.2214
C52F C 0.7905(15) 0.1698(11) 0.2182(3)
H42F H 0.7812 0.1540 0.2010
H43F H 0.8165 0.1498 0.2264
H44F H 0.8187 0.2214 0.2187
N1F N 0.2796(9) 0.0615(7) 0.41222(16)
N2F N 0.3666(7) 0.0088(5) 0.40801(17)
N5F N 0.1430(8) -0.0924(6) 0.4112(2)
N6F N 0.2290(8) -0.0488(6) 0.3722(2)
N7F N 0.4129(8) 0.0087(6) 0.29529(17)
N8F N 0.5256(10) 0.0727(7) 0.2689(2)
C53F C 0.4607(11) -0.1838(8) 0.33518(17)
O1F O 0.4513(8) -0.0756(6) 0.32409(18)
O2F O 0.5450(8) -0.0611(6) 0.35293(18)
O3F O 0.4234(8) -0.1237(6) 0.36673(18)
F1F F 0.3936(6) -0.2260(5) 0.32743(13)
F2F F 0.5077(6) -0.1682(5) 0.31651(13)
F3F F 0.4767(6) -0.2110(5) 0.35512(13)
S1F S 0.4722(4) -0.0991(3) 0.34701(8)
Ni1F Ni 0.25464(12) -0.04467(9) 0.40949(3)
Ni2F Ni 0.5000 0.0000 0.29696(4)
C1K C 0.7683(14) -0.0877(11) 0.4130(4)
C2K C 0.7652(13) -0.1303(10) 0.4315(4)
H1K H 0.7326 -0.1405 0.4445
C3K C 0.8105(13) -0.1611(11) 0.4320(3)
H2K H 0.8038 -0.1967 0.4435
C4K C 0.8618(14) -0.1363(11) 0.4155(4)
C5K C 0.8648(11) -0.0990(9) 0.3978(3)
H3K H 0.8973 -0.0902 0.3847
C6K C 0.8204(13) -0.0693(10) 0.3968(4)
H4K H 0.8278 -0.0357 0.3843
C7K C 0.9168(11) -0.1659(9) 0.4178(3)
H5K H 0.9531 -0.1442 0.4050
H6K H 0.9025 -0.1994 0.4316
H7K H 0.9644 -0.1264 0.4209
C8K C 0.6551(9) -0.1037(7) 0.4130(2)
H8K H 0.6378 -0.1530 0.4137
C9K C 0.6043(10) -0.0769(8) 0.41301(18)
C10K C 0.5946(8) 0.0200(6) 0.40761(17)
H9K H 0.6167 0.0691 0.4042
C11K C 0.5222(8) -0.0168(6) 0.41193(18)
C12K C 0.4941(10) -0.0883(7) 0.41718(19)
H10K H 0.4454 -0.1161 0.4211
C13K C 0.5352(9) -0.1193(7) 0.4169(2)
H11K H 0.5154 -0.1686 0.4193
N1K N 0.7204(9) -0.0615(7) 0.41222(16)
N2K N 0.6334(7) -0.0088(5) 0.40801(17)
C27K C 0.8967(10) 0.1230(8) 0.4327(2)
C28K C 0.8888(8) 0.0807(6) 0.4530(2)
H23K H 0.8563 0.0315 0.4523
C29K C 0.9283(8) 0.1103(6) 0.4742(2)
H24K H 0.9228 0.0813 0.4881
C30K C 0.9757(7) 0.1822(6) 0.47524(17)
C31K C 0.9837(8) 0.2246(6) 0.4550(2)
H25K H 1.0162 0.2738 0.4556
C32K C 0.9442(10) 0.1950(8) 0.43368(18)
H26K H 0.9496 0.2239 0.4198
C33K C 1.0130(11) 0.2077(9) 0.5004(2)
H27K H 1.0456 0.2587 0.4997
H28K H 1.0395 0.1836 0.5041
H29K H 0.9778 0.1971 0.5134
C34K C 0.8846(13) 0.1097(9) 0.3899(3)
H30K H 0.9343 0.1387 0.3884
C35K C 0.8409(11) 0.0856(8) 0.3670(3)
C36K C 0.7301(9) 0.0238(7) 0.3538(2)
H31K H 0.6811 -0.0044 0.3571
C37K C 0.7520(9) 0.0346(7) 0.32834(19)
C38K C 0.8232(11) 0.0683(9) 0.3241(3)
H32K H 0.8405 0.0727 0.3077
C39K C 0.8685(13) 0.0952(10) 0.3433(3)
H33K H 0.9180 0.1200 0.3407
C40K C 0.6980(10) 0.0079(7) 0.3085(2)
C41K C 0.6397(9) 0.0172(7) 0.3104(2)
H34K H 0.6386 0.0447 0.3238
C42K C 0.5863(10) -0.0508(7) 0.2760(2)
C43K C 0.6436(11) -0.0575(8) 0.2717(3)
H35K H 0.6447 -0.0819 0.2573
C44K C 0.7005(11) -0.0295(9) 0.2876(2)
H36K H 0.7399 -0.0354 0.2846
C45K C 0.5228(13) -0.0824(10) 0.2622(3)
H37K H 0.5176 -0.1105 0.2481
C46K C 0.4054(12) -0.1045(9) 0.2555(3)
C47K C 0.3424(13) -0.1386(9) 0.2686(2)
H38K H 0.3428 -0.1478 0.2857
C48K C 0.2789(13) -0.1592(9) 0.2566(2)
H39K H 0.2359 -0.1824 0.2656
C49K C 0.2784(11) -0.1457(8) 0.2315(2)
C50K C 0.3413(11) -0.1117(8) 0.2184(2)
H40K H 0.3409 -0.1025 0.2012
C51K C 0.4048(13) -0.0911(9) 0.2304(3)
H41K H 0.4478 -0.0678 0.2214
C52K C 0.2095(15) -0.1698(11) 0.2182(3)
H42K H 0.2188 -0.1540 0.2010
H43K H 0.1835 -0.1498 0.2264
H44K H 0.1813 -0.2214 0.2187
N5K N 0.8570(8) 0.0924(6) 0.4112(2)
N6K N 0.7710(8) 0.0488(6) 0.3722(2)
N7K N 0.5871(8) -0.0087(6) 0.29529(17)
N8K N 0.4744(10) -0.0727(7) 0.2689(2)
C53K C 0.5393(11) 0.1838(8) 0.33518(17)
O1K O 0.5487(8) 0.0756(6) 0.32409(18)
O2K O 0.4550(8) 0.0611(6) 0.35293(18)
O3K O 0.5766(8) 0.1237(6) 0.36673(18)
F1K F 0.6064(6) 0.2260(5) 0.32743(13)
F2K F 0.4923(6) 0.1682(5) 0.31651(13)
F3K F 0.5233(6) 0.2110(5) 0.35512(13)
S1K S 0.5278(4) 0.0991(3) 0.34701(8)
Ni1K Ni 0.74536(12) 0.04467(9) 0.40949(3)
H45? H -0.0931 -0.1540 0.5658
H46? H -0.1061 -0.1896 0.5976
H47? H -0.1084 -0.2172 0.5843
H48? H 0.2402 0.2427 0.4926
H49? H 0.1651 0.2292 0.5019
H50? H 0.1712 0.1676 0.4883
H51? H 0.5941 -0.2004 0.7956
H52? H 0.6336 -0.1961 0.7703
H53? H 0.6635 -0.1287 0.7880
C55? C 0.5007(11) 0.0027(13) 0.4853(3)
S3? S 0.5000 0.0000 0.5187(3)
O7? O 0.4866(12) -0.0722(4) 0.5228(4)
F7? F 0.558(3) 0.007(2) 0.5249(3)
O8? O 0.5727(5) 0.0518(8) 0.5254(4)
F8? F 0.4490(18) -0.0681(14) 0.5220(4)
F9? F 0.5165(22) -0.0417(14) 0.5243(4)
O9? O 0.5506(10) -0.0144(13) 0.5260(4)
C56? C 0.3073(8) 0.2877(8) 0.6772(2)
O10? O 0.2216(9) 0.1856(10) 0.7045(4)
S4? S 0.2933(9) 0.2401(8) 0.7060(2)
O11? O 0.3431(12) 0.2160(12) 0.7046(4)
O12? O 0.3085(14) 0.2932(11) 0.7242(3)
F10? F 0.2643(11) 0.3138(11) 0.6749(4)
F11? F 0.2960(14) 0.2462(11) 0.6579(2)
F12? F 0.3720(9) 0.3417(9) 0.6754(4)
H54? H 0.4706 0.3003 0.6898
H55? H 0.5459 0.3669 0.6716
H56? H 0.5489 0.3310 0.6794
loop_
_geom_bond_atom_site_label_1
_geom_bond_atom_site_label_2
_geom_bond_site_symmetry_1
_geom_bond_site_symmetry_2
C1 C2 1_555 1_555
C2 H1 1_555 1_555
C3 C2 1_555 1_555
H2 C3 1_555 1_555
C4 C3 1_555 1_555
C5 C4 1_555 1_555
H3 C5 1_555 1_555
C6 C1 1_555 1_555
H4 C6 1_555 1_555
C7 C4 1_555 1_555
H5 C7 1_555 1_555
H6 C7 1_555 1_555
H7 C7 1_555 1_555
C8 H8 1_555 1_555
C9 C8 1_555 1_555
C10 H9 1_555 1_555
C11 C10 1_555 1_555
C12 C11 1_555 1_555
H10 C12 1_555 1_555
C13 C9 1_555 1_555
H11 C13 1_555 1_555
C14 C15 1_555 1_555
C15 H12 1_555 1_555
C16 C15 1_555 1_555
H13 C16 1_555 1_555
C17 C16 1_555 1_555
C18 C17 1_555 1_555
H14 C18 1_555 1_555
C19 C14 1_555 1_555
H15 C19 1_555 1_555
C20 C17 1_555 1_555
H16 C20 1_555 1_555
H17 C20 1_555 1_555
H18 C20 1_555 1_555
C21 H19 1_555 1_555
C22 C21 1_555 1_555
C23 H20 1_555 1_555
C24 C23 1_555 1_555
C25 C24 1_555 1_555
H21 C25 1_555 1_555
C26 C22 1_555 1_555
H22 C26 1_555 1_555
C27 C28 1_555 1_555
C28 H23 1_555 1_555
C29 C28 1_555 1_555
H24 C29 1_555 1_555
C30 C29 1_555 1_555
C31 C30 1_555 1_555
H25 C31 1_555 1_555
C32 C27 1_555 1_555
H26 C32 1_555 1_555
C33 C30 1_555 1_555
H27 C33 1_555 1_555
H28 C33 1_555 1_555
H29 C33 1_555 1_555
C34 H30 1_555 1_555
C35 C34 1_555 1_555
C36 H31 1_555 1_555
C37 C36 1_555 1_555
C38 C37 1_555 1_555
H32 C38 1_555 1_555
C39 C35 1_555 1_555
H33 C39 1_555 1_555
C40 C37 1_555 1_555
C41 C40 1_555 1_555
H34 C41 1_555 1_555
C42 C43 1_555 1_555
C43 H35 1_555 1_555
C44 C40 1_555 1_555
H36 C44 1_555 1_555
C45 C42 1_555 1_555
H37 C45 1_555 1_555
C46 C47 1_555 1_555
C47 H38 1_555 1_555
C48 C47 1_555 1_555
H39 C48 1_555 1_555
C49 C48 1_555 1_555
C50 C49 1_555 1_555
H40 C50 1_555 1_555
C51 C46 1_555 1_555
H41 C51 1_555 1_555
C52 C49 1_555 1_555
H42 C52 1_555 1_555
H43 C52 1_555 1_555
H44 C52 1_555 1_555
N1 C1 1_555 1_555
N2 C9 1_555 1_555
N3 C14 1_555 1_555
N4 C22 1_555 1_555
N5 C27 1_555 1_555
N6 C35 1_555 1_555
N7 C41 1_555 1_555
N8 C45 1_555 1_555
C53 F1 1_555 1_555
O1 S1 1_555 1_555
O2 S1 1_555 1_555
O3 S1 1_555 1_555
F2 C53 1_555 1_555
F3 C53 1_555 1_555
S1 C53 1_555 1_555
Ni1 N1 1_555 1_555
Ni2 N7 1_555 1_555
S2 O4 1_555 1_555
O5 S2 1_555 1_555
O6 S2 1_555 1_555
F4 C54 1_555 1_555
F5 C54 1_555 1_555
F6 C54 1_555 1_555
C54 S2 1_555 1_555
C1A C2A 1_555 1_555
C2A H1A 1_555 1_555
C3A C2A 1_555 1_555
H2A C3A 1_555 1_555
C4A C3A 1_555 1_555
C5A C4A 1_555 1_555
H3A C5A 1_555 1_555
C6A C1A 1_555 1_555
H4A C6A 1_555 1_555
C7A C4A 1_555 1_555
H5A C7A 1_555 1_555
H6A C7A 1_555 1_555
H7A C7A 1_555 1_555
C8A H8A 1_555 1_555
C9A C8A 1_555 1_555
C10A H9A 1_555 1_555
C11A C11 1_555 1_555
C12A C11A 1_555 1_555
H10A C12A 1_555 1_555
C13A C9A 1_555 1_555
H11A C13A 1_555 1_555
N1A C1A 1_555 1_555
N2A C9A 1_555 1_555
C14F C15F 1_555 1_555
C15F H12F 1_555 1_555
C16F C15F 1_555 1_555
H13F C16F 1_555 1_555
C17F C16F 1_555 1_555
C18F C17F 1_555 1_555
H14F C18F 1_555 1_555
C19F C14F 1_555 1_555
H15F C19F 1_555 1_555
C20F C17F 1_555 1_555
H16F C20F 1_555 1_555
H17F C20F 1_555 1_555
H18F C20F 1_555 1_555
C21F H19F 1_555 1_555
C22F C21F 1_555 1_555
C23F H20F 1_555 1_555
C24F C24 1_555 1_555
C25F C24F 1_555 1_555
H21F C25F 1_555 1_555
C26F C22F 1_555 1_555
H22F C26F 1_555 1_555
N3F C14F 1_555 1_555
N4F C22F 1_555 1_555
C14A C15A 1_555 1_555
C15A H12A 1_555 1_555
C16A C15A 1_555 1_555
H13A C16A 1_555 1_555
C17A C16A 1_555 1_555
C18A C17A 1_555 1_555
H14A C18A 1_555 1_555
C19A C14A 1_555 1_555
H15A C19A 1_555 1_555
C20A C17A 1_555 1_555
H16A C20A 1_555 1_555
H17A C20A 1_555 1_555
H18A C20A 1_555 1_555
C21A H19A 1_555 1_555
C22A C21A 1_555 1_555
C23A H20A 1_555 1_555
C24A C23A 1_555 1_555
C25A C24A 1_555 1_555
H21A C25A 1_555 1_555
C26A C22A 1_555 1_555
H22A C26A 1_555 1_555
C27A C28A 1_555 1_555
C28A H23A 1_555 1_555
C29A C28A 1_555 1_555
H24A C29A 1_555 1_555
C30A C29A 1_555 1_555
C31A C30A 1_555 1_555
H25A C31A 1_555 1_555
C32A C27A 1_555 1_555
H26A C32A 1_555 1_555
C33A C30A 1_555 1_555
H27A C33A 1_555 1_555
H28A C33A 1_555 1_555
H29A C33A 1_555 1_555
C34A H30A 1_555 1_555
C35A C34A 1_555 1_555
C36A H31A 1_555 1_555
C37A C36A 1_555 1_555
C38A C37A 1_555 1_555
H32A C38A 1_555 1_555
C39A C35A 1_555 1_555
H33A C39A 1_555 1_555
C40A C37A 1_555 1_555
C41A C40A 1_555 1_555
H34A C41A 1_555 1_555
C42A C43A 1_555 1_555
C43A H35A 1_555 1_555
C44A C40A 1_555 1_555
H36A C44A 1_555 1_555
C45A C42A 1_555 1_555
H37A C45A 1_555 1_555
C46A C47A 1_555 1_555
C47A H38A 1_555 1_555
C48A C47A 1_555 1_555
H39A C48A 1_555 1_555
C49A C48A 1_555 1_555
C50A C49A 1_555 1_555
H40A C50A 1_555 1_555
C51A C46A 1_555 1_555
H41A C51A 1_555 1_555
C52A C49A 1_555 1_555
H42A C52A 1_555 1_555
H43A C52A 1_555 1_555
H44A C52A 1_555 1_555
N3A C14A 1_555 1_555
N4A C22A 1_555 1_555
N5A C27A 1_555 1_555
N6A C35A 1_555 1_555
N7A Ni2 1_555 1_555
N8A Ni2 1_555 1_555
C53A F1A 1_555 1_555
O1A Ni2 1_555 1_555
O2A S1A 1_555 1_555
O3A S1A 1_555 1_555
F2A C53A 1_555 1_555
F3A C53A 1_555 1_555
S1A C53A 1_555 1_555
Ni1A N1A 1_555 1_555
C14K C15K 1_555 1_555
C15K H12K 1_555 1_555
C16K C15K 1_555 1_555
H13K C16K 1_555 1_555
C17K C16K 1_555 1_555
C18K C17K 1_555 1_555
H14K C18K 1_555 1_555
C19K C14K 1_555 1_555
H15K C19K 1_555 1_555
C20K C17K 1_555 1_555
H16K C20K 1_555 1_555
H17K C20K 1_555 1_555
H18K C20K 1_555 1_555
C21K H19K 1_555 1_555
C22K C21K 1_555 1_555
C23K H20K 1_555 1_555
C24K C24A 1_555 1_555
C25K C24K 1_555 1_555
H21K C25K 1_555 1_555
C26K C22K 1_555 1_555
H22K C26K 1_555 1_555
N3K C14K 1_555 1_555
N4K C22K 1_555 1_555
C1F C2F 1_555 1_555
C2F H1F 1_555 1_555
C3F C2F 1_555 1_555
H2F C3F 1_555 1_555
C4F C3F 1_555 1_555
C5F C4F 1_555 1_555
H3F C5F 1_555 1_555
C6F C1F 1_555 1_555
H4F C6F 1_555 1_555
C7F C4F 1_555 1_555
H5F C7F 1_555 1_555
H6F C7F 1_555 1_555
H7F C7F 1_555 1_555
C8F H8F 1_555 1_555
C9F C8F 1_555 1_555
C10F H9F 1_555 1_555
C11F C10F 1_555 1_555
C12F C11F 1_555 1_555
H10F C12F 1_555 1_555
C13F C9F 1_555 1_555
H11F C13F 1_555 1_555
C27F C28F 1_555 1_555
C28F H23F 1_555 1_555
C29F C28F 1_555 1_555
H24F C29F 1_555 1_555
C30F C29F 1_555 1_555
C31F C30F 1_555 1_555
H25F C31F 1_555 1_555
C32F C27F 1_555 1_555
H26F C32F 1_555 1_555
C33F C30F 1_555 1_555
H27F C33F 1_555 1_555
H28F C33F 1_555 1_555
H29F C33F 1_555 1_555
C34F H30F 1_555 1_555
C35F C34F 1_555 1_555
C36F H31F 1_555 1_555
C37F C36F 1_555 1_555
C38F C37F 1_555 1_555
H32F C38F 1_555 1_555
C39F C35F 1_555 1_555
H33F C39F 1_555 1_555
C40F C37F 1_555 1_555
C41F C40F 1_555 1_555
H34F C41F 1_555 1_555
C42F C43F 1_555 1_555
C43F H35F 1_555 1_555
C44F C40F 1_555 1_555
H36F C44F 1_555 1_555
C45F C42F 1_555 1_555
H37F C45F 1_555 1_555
C46F C47F 1_555 1_555
C47F H38F 1_555 1_555
C48F C47F 1_555 1_555
H39F C48F 1_555 1_555
C49F C48F 1_555 1_555
C50F C49F 1_555 1_555
H40F C50F 1_555 1_555
C51F C46F 1_555 1_555
H41F C51F 1_555 1_555
C52F C49F 1_555 1_555
H42F C52F 1_555 1_555
H43F C52F 1_555 1_555
H44F C52F 1_555 1_555
N1F C1F 1_555 1_555
N2F C9F 1_555 1_555
N5F C27F 1_555 1_555
N6F C35F 1_555 1_555
N7F C41F 1_555 1_555
N8F C45F 1_555 1_555
C53F F1F 1_555 1_555
O1F S1F 1_555 1_555
O2F S1F 1_555 1_555
O3F S1F 1_555 1_555
F2F C53F 1_555 1_555
F3F C53F 1_555 1_555
S1F C53F 1_555 1_555
Ni1F N3F 1_555 1_555
Ni2F N7F 1_555 1_555
C1K C2K 1_555 1_555
C2K H1K 1_555 1_555
C3K C2K 1_555 1_555
H2K C3K 1_555 1_555
C4K C3K 1_555 1_555
C5K C4K 1_555 1_555
H3K C5K 1_555 1_555
C6K C1K 1_555 1_555
H4K C6K 1_555 1_555
C7K C4K 1_555 1_555
H5K C7K 1_555 1_555
H6K C7K 1_555 1_555
H7K C7K 1_555 1_555
C8K H8K 1_555 1_555
C9K C8K 1_555 1_555
C10K H9K 1_555 1_555
C11K C11F 1_555 1_555
C12K C11K 1_555 1_555
H10K C12K 1_555 1_555
C13K C9K 1_555 1_555
H11K C13K 1_555 1_555
N1K C1K 1_555 1_555
N2K C9K 1_555 1_555
C27K C28K 1_555 1_555
C28K H23K 1_555 1_555
C29K C28K 1_555 1_555
H24K C29K 1_555 1_555
C30K C29K 1_555 1_555
C31K C30K 1_555 1_555
H25K C31K 1_555 1_555
C32K C27K 1_555 1_555
H26K C32K 1_555 1_555
C33K C30K 1_555 1_555
H27K C33K 1_555 1_555
H28K C33K 1_555 1_555
H29K C33K 1_555 1_555
C34K H30K 1_555 1_555
C35K C34K 1_555 1_555
C36K H31K 1_555 1_555
C37K C36K 1_555 1_555
C38K C37K 1_555 1_555
H32K C38K 1_555 1_555
C39K C35K 1_555 1_555
H33K C39K 1_555 1_555
C40K C37K 1_555 1_555
C41K C40K 1_555 1_555
H34K C41K 1_555 1_555
C42K C43K 1_555 1_555
C43K H35K 1_555 1_555
C44K C40K 1_555 1_555
H36K C44K 1_555 1_555
C45K C42K 1_555 1_555
H37K C45K 1_555 1_555
C46K C47K 1_555 1_555
C47K H38K 1_555 1_555
C48K C47K 1_555 1_555
H39K C48K 1_555 1_555
C49K C48K 1_555 1_555
C50K C49K 1_555 1_555
H40K C50K 1_555 1_555
C51K C46K 1_555 1_555
H41K C51K 1_555 1_555
C52K C49K 1_555 1_555
H42K C52K 1_555 1_555
H43K C52K 1_555 1_555
H44K C52K 1_555 1_555
N5K C27K 1_555 1_555
N6K C35K 1_555 1_555
N7K Ni2F 1_555 1_555
N8K Ni2F 1_555 1_555
C53K F1K 1_555 1_555
O1K Ni2F 1_555 1_555
O2K S1K 1_555 1_555
O3K S1K 1_555 1_555
F2K C53K 1_555 1_555
F3K C53K 1_555 1_555
S1K C53K 1_555 1_555
Ni1K N3K 1_555 1_555
C5 C6 1_555 1_555
C8 N1 1_555 1_555
C10 N2 1_555 1_555
C12 C13 1_555 1_555
C18 C19 1_555 1_555
C21 N3 1_555 1_555
C23 N4 1_555 1_555
C25 C26 1_555 1_555
C31 C32 1_555 1_555
C34 N5 1_555 1_555
C36 N6 1_555 1_555
C38 C39 1_555 1_555
C42 N7 1_555 1_555
C43 C44 1_555 1_555
C46 N8 1_555 1_555
C50 C51 1_555 1_555
N2 Ni1 1_555 1_555
N3 Ni1 1_555 1_555
N4 Ni1 1_555 1_555
N5 Ni1 1_555 1_555
N6 Ni1 1_555 1_555
N8 Ni2 1_555 1_555
O1 Ni2 1_555 1_555
C5A C6A 1_555 1_555
C8A N1A 1_555 1_555
C10A C11A 1_555 1_555
C10A N2A 1_555 1_555
C12A C13A 1_555 1_555
N2A Ni1A 1_555 1_555
C18F C19F 1_555 1_555
C21F N3F 1_555 1_555
C23F C24F 1_555 1_555
C23F N4F 1_555 1_555
C25F C26F 1_555 1_555
N4F Ni1F 1_555 1_555
C18A C19A 1_555 1_555
C21A N3A 1_555 1_555
C23A N4A 1_555 1_555
C25A C26A 1_555 1_555
C31A C32A 1_555 1_555
C34A N5A 1_555 1_555
C36A N6A 1_555 1_555
C38A C39A 1_555 1_555
C41A N7A 1_555 1_555
C42A N7A 1_555 1_555
C43A C44A 1_555 1_555
C45A N8A 1_555 1_555
C46A N8A 1_555 1_555
C50A C51A 1_555 1_555
N3A Ni1A 1_555 1_555
N4A Ni1A 1_555 1_555
N5A Ni1A 1_555 1_555
N6A Ni1A 1_555 1_555
O1A S1A 1_555 1_555
C18K C19K 1_555 1_555
C21K N3K 1_555 1_555
C23K C24K 1_555 1_555
C23K N4K 1_555 1_555
C25K C26K 1_555 1_555
N4K Ni1K 1_555 1_555
C5F C6F 1_555 1_555
C8F N1F 1_555 1_555
C10F N2F 1_555 1_555
C12F C13F 1_555 1_555
C31F C32F 1_555 1_555
C34F N5F 1_555 1_555
C36F N6F 1_555 1_555
C38F C39F 1_555 1_555
C42F N7F 1_555 1_555
C43F C44F 1_555 1_555
C46F N8F 1_555 1_555
C50F C51F 1_555 1_555
N1F Ni1F 1_555 1_555
N2F Ni1F 1_555 1_555
N5F Ni1F 1_555 1_555
N6F Ni1F 1_555 1_555
N8F Ni2F 1_555 1_555
O1F Ni2F 1_555 1_555
C5K C6K 1_555 1_555
C8K N1K 1_555 1_555
C10K C11K 1_555 1_555
C10K N2K 1_555 1_555
C12K C13K 1_555 1_555
N1K Ni1K 1_555 1_555
N2K Ni1K 1_555 1_555
C31K C32K 1_555 1_555
C34K N5K 1_555 1_555
C36K N6K 1_555 1_555
C38K C39K 1_555 1_555
C41K N7K 1_555 1_555
C42K N7K 1_555 1_555
C43K C44K 1_555 1_555
C45K N8K 1_555 1_555
C46K N8K 1_555 1_555
C50K C51K 1_555 1_555
N5K Ni1K 1_555 1_555
N6K Ni1K 1_555 1_555
O1K S1K 1_555 1_555

#END
