# generated using pymatgen
data_Ni10H270C360N60(Cl4O15)3
_symmetry_space_group_name_H-M   'P 1'
_cell_length_a   23.04711039
_cell_length_b   23.04711039
_cell_length_c   41.66340000
_cell_angle_alpha   87.54017205
_cell_angle_beta   87.54017205
_cell_angle_gamma   78.36247703
_symmetry_Int_Tables_number   1
_chemical_formula_structural   Ni10H270C360N60(Cl4O15)3
_chemical_formula_sum   'Ni20 H540 C720 N120 Cl24 O90'
_cell_volume   21642.14354661
_cell_formula_units_Z   2
loop_
 _symmetry_equiv_pos_site_id
 _symmetry_equiv_pos_as_xyz
  1  'x, y, z'
loop_
 _atom_site_type_symbol
 _atom_site_label
 _atom_site_symmetry_multiplicity
 _atom_site_fract_x
 _atom_site_fract_y
 _atom_site_fract_z
 _atom_site_occupancy
  C  C1  1  0.768900  0.905500  0.850900  1.0
  C  C2  1  0.094500  0.231100  0.649100  1.0
  C  C3  1  0.231100  0.094500  0.149100  1.0
  C  C4  1  0.905500  0.768900  0.350900  1.0
  C  C5  1  0.750500  0.895100  0.820500  1.0
  C  C6  1  0.104900  0.249500  0.679500  1.0
  C  C7  1  0.249500  0.104900  0.179500  1.0
  C  C8  1  0.895100  0.750500  0.320500  1.0
  C  C9  1  0.702400  0.933600  0.807000  1.0
  C  C10  1  0.066400  0.297600  0.693000  1.0
  C  C11  1  0.297600  0.066400  0.193000  1.0
  C  C12  1  0.933600  0.702400  0.307000  1.0
  C  C13  1  0.672800  0.982600  0.823800  1.0
  C  C14  1  0.017400  0.327200  0.676200  1.0
  C  C15  1  0.327200  0.017400  0.176200  1.0
  C  C16  1  0.982600  0.672800  0.323800  1.0
  C  C17  1  0.691200  0.993000  0.854200  1.0
  C  C18  1  0.007000  0.308800  0.645800  1.0
  C  C19  1  0.308800  0.007000  0.145800  1.0
  C  C20  1  0.993000  0.691200  0.354200  1.0
  C  C21  1  0.739300  0.954500  0.867700  1.0
  C  C22  1  0.045500  0.260700  0.632300  1.0
  C  C23  1  0.260700  0.045500  0.132300  1.0
  C  C24  1  0.954500  0.739300  0.367700  1.0
  C  C25  1  0.821100  0.850900  0.890400  1.0
  C  C26  1  0.149100  0.178900  0.609600  1.0
  C  C27  1  0.178900  0.149100  0.109600  1.0
  C  C28  1  0.850900  0.821100  0.390400  1.0
  C  C29  1  0.872000  0.814400  0.905200  1.0
  C  C30  1  0.185600  0.128000  0.594800  1.0
  C  C31  1  0.128000  0.185600  0.094800  1.0
  C  C32  1  0.814400  0.872000  0.405200  1.0
  C  C33  1  0.971300  0.772500  0.897100  1.0
  C  C34  1  0.227500  0.028700  0.602900  1.0
  C  C35  1  0.028700  0.227500  0.102900  1.0
  C  C36  1  0.772500  0.971300  0.397100  1.0
  C  C37  1  0.983000  0.745000  0.928800  1.0
  C  C38  1  0.255000  0.017000  0.571200  1.0
  C  C39  1  0.017000  0.255000  0.071200  1.0
  C  C40  1  0.745000  0.983000  0.428800  1.0
  C  C41  1  0.924600  0.759600  0.947100  1.0
  C  C42  1  0.240400  0.075400  0.552900  1.0
  C  C43  1  0.075400  0.240400  0.052900  1.0
  C  C44  1  0.759600  0.924600  0.447100  1.0
  C  C45  1  0.873200  0.790600  0.938500  1.0
  C  C46  1  0.209400  0.126800  0.561500  1.0
  C  C47  1  0.126800  0.209400  0.061500  1.0
  C  C48  1  0.790600  0.873200  0.438500  1.0
  C  C49  1  0.035400  0.717600  0.940200  1.0
  C  C50  1  0.282400  0.964600  0.559800  1.0
  C  C51  1  0.964600  0.282400  0.059800  1.0
  C  C52  1  0.717600  0.035400  0.440200  1.0
  C  C53  1  0.412900  0.323100  0.696800  1.0
  C  C54  1  0.676900  0.587100  0.803200  1.0
  C  C55  1  0.587100  0.676900  0.303200  1.0
  C  C56  1  0.323100  0.412900  0.196800  1.0
  C  C57  1  0.431200  0.305000  0.665900  1.0
  C  C58  1  0.695000  0.568800  0.834100  1.0
  C  C59  1  0.568800  0.695000  0.334100  1.0
  C  C60  1  0.305000  0.431200  0.165900  1.0
  C  C61  1  0.421000  0.345200  0.640000  1.0
  C  C62  1  0.654800  0.579000  0.860000  1.0
  C  C63  1  0.579000  0.654800  0.360000  1.0
  C  C64  1  0.345200  0.421000  0.140000  1.0
  C  C65  1  0.392600  0.403400  0.644800  1.0
  C  C66  1  0.596600  0.607400  0.855200  1.0
  C  C67  1  0.607400  0.596600  0.355200  1.0
  C  C68  1  0.403400  0.392600  0.144800  1.0
  C  C69  1  0.374300  0.421500  0.675700  1.0
  C  C70  1  0.578500  0.625700  0.824300  1.0
  C  C71  1  0.625700  0.578500  0.324300  1.0
  C  C72  1  0.421500  0.374300  0.175700  1.0
  C  C73  1  0.144200  0.658800  0.960700  1.0
  C  C74  1  0.341200  0.855800  0.539300  1.0
  C  C75  1  0.855800  0.341200  0.039300  1.0
  C  C76  1  0.658800  0.144200  0.460700  1.0
  C  C77  1  0.108400  0.701000  0.978200  1.0
  C  C78  1  0.299000  0.891600  0.521800  1.0
  C  C79  1  0.891600  0.299000  0.021800  1.0
  C  C80  1  0.701000  0.108400  0.478200  1.0
  C  C81  1  0.057400  0.731800  0.967700  1.0
  C  C82  1  0.268200  0.942600  0.532300  1.0
  C  C83  1  0.942600  0.268200  0.032300  1.0
  C  C84  1  0.731800  0.057400  0.467700  1.0
  C  C85  1  0.201000  0.631400  0.967800  1.0
  C  C86  1  0.368600  0.799000  0.532200  1.0
  C  C87  1  0.799000  0.368600  0.032200  1.0
  C  C88  1  0.631400  0.201000  0.467800  1.0
  C  C89  1  0.287100  0.556300  0.956700  1.0
  C  C90  1  0.443700  0.712900  0.543300  1.0
  C  C91  1  0.712900  0.443700  0.043300  1.0
  C  C92  1  0.556300  0.287100  0.456700  1.0
  C  C93  1  0.331100  0.542300  0.932600  1.0
  C  C94  1  0.457700  0.668900  0.567400  1.0
  C  C95  1  0.668900  0.457700  0.067400  1.0
  C  C96  1  0.542300  0.331100  0.432600  1.0
  C  C97  1  0.387900  0.512700  0.940500  1.0
  C  C98  1  0.487300  0.612100  0.559500  1.0
  C  C99  1  0.612100  0.487300  0.059500  1.0
  C  C100  1  0.512700  0.387900  0.440500  1.0
  C  C101  1  0.400700  0.496700  0.972500  1.0
  C  C102  1  0.503300  0.599300  0.527500  1.0
  C  C103  1  0.599300  0.503300  0.027500  1.0
  C  C104  1  0.496700  0.400700  0.472500  1.0
  C  C105  1  0.356700  0.510700  0.996600  1.0
  C  C106  1  0.489300  0.643300  0.503400  1.0
  C  C107  1  0.643300  0.489300  0.003400  1.0
  C  C108  1  0.510700  0.356700  0.496600  1.0
  C  C109  1  0.299900  0.540500  0.988700  1.0
  C  C110  1  0.459500  0.700100  0.511300  1.0
  C  C111  1  0.700100  0.459500  0.011300  1.0
  C  C112  1  0.540500  0.299900  0.488700  1.0
  C  C113  1  0.924600  0.942600  0.896300  1.0
  C  C114  1  0.057400  0.075400  0.603700  1.0
  C  C115  1  0.075400  0.057400  0.103700  1.0
  C  C116  1  0.942600  0.924600  0.396300  1.0
  C  C117  1  0.977800  0.908800  0.907100  1.0
  C  C118  1  0.091200  0.022200  0.592900  1.0
  C  C119  1  0.022200  0.091200  0.092900  1.0
  C  C120  1  0.908800  0.977800  0.407100  1.0
  C  C121  1  0.992000  0.909600  0.939300  1.0
  C  C122  1  0.090400  0.008000  0.560700  1.0
  C  C123  1  0.008000  0.090400  0.060700  1.0
  C  C124  1  0.909600  0.992000  0.439300  1.0
  C  C125  1  0.952800  0.944000  0.960700  1.0
  C  C126  1  0.056000  0.047200  0.539300  1.0
  C  C127  1  0.047200  0.056000  0.039300  1.0
  C  C128  1  0.944000  0.952800  0.460700  1.0
  C  C129  1  0.899500  0.977900  0.949900  1.0
  C  C130  1  0.022100  0.100500  0.550100  1.0
  C  C131  1  0.100500  0.022100  0.050100  1.0
  C  C132  1  0.977900  0.899500  0.449900  1.0
  C  C133  1  0.885500  0.977100  0.917700  1.0
  C  C134  1  0.022900  0.114500  0.582300  1.0
  C  C135  1  0.114500  0.022900  0.082300  1.0
  C  C136  1  0.977100  0.885500  0.417700  1.0
  C  C137  1  0.884800  0.976800  0.848100  1.0
  C  C138  1  0.023200  0.115200  0.651900  1.0
  C  C139  1  0.115200  0.023200  0.151900  1.0
  C  C140  1  0.976800  0.884800  0.348100  1.0
  C  C141  1  0.868100  0.967500  0.814600  1.0
  C  C142  1  0.032500  0.131900  0.685400  1.0
  C  C143  1  0.131900  0.032500  0.185400  1.0
  C  C144  1  0.967500  0.868100  0.314600  1.0
  C  C145  1  0.872400  0.901200  0.774800  1.0
  C  C146  1  0.098800  0.127600  0.725200  1.0
  C  C147  1  0.127600  0.098800  0.225200  1.0
  C  C148  1  0.901200  0.872400  0.274800  1.0
  C  C149  1  0.844100  0.945700  0.753100  1.0
  C  C150  1  0.054300  0.155900  0.746900  1.0
  C  C151  1  0.155900  0.054300  0.246900  1.0
  C  C152  1  0.945700  0.844100  0.253100  1.0
  C  C153  1  0.825300  0.002100  0.764800  1.0
  C  C154  1  0.997900  0.174700  0.735200  1.0
  C  C155  1  0.174700  0.997900  0.235200  1.0
  C  C156  1  0.002100  0.825300  0.264800  1.0
  C  C157  1  0.837400  0.017600  0.794600  1.0
  C  C158  1  0.982400  0.162600  0.705400  1.0
  C  C159  1  0.162600  0.982400  0.205400  1.0
  C  C160  1  0.017600  0.837400  0.294600  1.0
  C  C161  1  0.838200  0.931800  0.719000  1.0
  C  C162  1  0.068200  0.161800  0.781000  1.0
  C  C163  1  0.161800  0.068200  0.281000  1.0
  C  C164  1  0.931800  0.838200  0.219000  1.0
  C  C165  1  0.883500  0.898900  0.699800  1.0
  C  C166  1  0.101100  0.116500  0.800200  1.0
  C  C167  1  0.116500  0.101100  0.300200  1.0
  C  C168  1  0.898900  0.883500  0.199800  1.0
  C  C169  1  0.823600  0.909000  0.658400  1.0
  C  C170  1  0.091000  0.176400  0.841600  1.0
  C  C171  1  0.176400  0.091000  0.341600  1.0
  C  C172  1  0.909000  0.823600  0.158400  1.0
  C  C173  1  0.775500  0.943300  0.674000  1.0
  C  C174  1  0.056700  0.224500  0.826000  1.0
  C  C175  1  0.224500  0.056700  0.326000  1.0
  C  C176  1  0.943300  0.775500  0.174000  1.0
  C  C177  1  0.786100  0.948300  0.706400  1.0
  C  C178  1  0.051700  0.213900  0.793600  1.0
  C  C179  1  0.213900  0.051700  0.293600  1.0
  C  C180  1  0.948300  0.786100  0.206400  1.0
  C  C181  1  0.827300  0.893300  0.621700  1.0
  C  C182  1  0.106700  0.172700  0.878300  1.0
  C  C183  1  0.172700  0.106700  0.378300  1.0
  C  C184  1  0.893300  0.827300  0.121700  1.0
  C  C185  1  0.033800  0.873000  0.824900  1.0
  C  C186  1  0.127000  0.966200  0.675100  1.0
  C  C187  1  0.966200  0.127000  0.175100  1.0
  C  C188  1  0.873000  0.033800  0.324900  1.0
  C  C189  1  0.088500  0.856100  0.809100  1.0
  C  C190  1  0.143900  0.911500  0.690900  1.0
  C  C191  1  0.911500  0.143900  0.190900  1.0
  C  C192  1  0.856100  0.088500  0.309100  1.0
  C  C193  1  0.100800  0.804200  0.792100  1.0
  C  C194  1  0.195800  0.899200  0.707900  1.0
  C  C195  1  0.899200  0.195800  0.207900  1.0
  C  C196  1  0.804200  0.100800  0.292100  1.0
  C  C197  1  0.058500  0.769100  0.791000  1.0
  C  C198  1  0.230900  0.941500  0.709000  1.0
  C  C199  1  0.941500  0.230900  0.209000  1.0
  C  C200  1  0.769100  0.058500  0.291000  1.0
  C  C201  1  0.003800  0.786000  0.806800  1.0
  C  C202  1  0.214000  0.996200  0.693200  1.0
  C  C203  1  0.996200  0.214000  0.193200  1.0
  C  C204  1  0.786000  0.003800  0.306800  1.0
  C  C205  1  0.249700  0.006300  0.828800  1.0
  C  C206  1  0.993700  0.750300  0.671200  1.0
  C  C207  1  0.750300  0.993700  0.171200  1.0
  C  C208  1  0.006300  0.249700  0.328800  1.0
  C  C209  1  0.192500  0.879700  0.797700  1.0
  C  C210  1  0.120300  0.807500  0.702300  1.0
  C  C211  1  0.807500  0.120300  0.202300  1.0
  C  C212  1  0.879700  0.192500  0.297700  1.0
  C  C213  1  0.135000  0.891200  0.810800  1.0
  C  C214  1  0.108800  0.865000  0.689200  1.0
  C  C215  1  0.865000  0.108800  0.189200  1.0
  C  C216  1  0.891200  0.135000  0.310800  1.0
  C  C217  1  0.115000  0.941600  0.828500  1.0
  C  C218  1  0.058400  0.885000  0.671500  1.0
  C  C219  1  0.885000  0.058400  0.171500  1.0
  C  C220  1  0.941600  0.115000  0.328500  1.0
  C  C221  1  0.210100  0.968900  0.820000  1.0
  C  C222  1  0.031100  0.789900  0.680000  1.0
  C  C223  1  0.789900  0.031100  0.180000  1.0
  C  C224  1  0.968900  0.210100  0.320000  1.0
  C  C225  1  0.230000  0.918600  0.802300  1.0
  C  C226  1  0.081400  0.770000  0.697700  1.0
  C  C227  1  0.770000  0.081400  0.197700  1.0
  C  C228  1  0.918600  0.230000  0.302300  1.0
  C  C229  1  0.102800  0.529800  0.975600  1.0
  C  C230  1  0.470200  0.897200  0.524400  1.0
  C  C231  1  0.897200  0.470200  0.024400  1.0
  C  C232  1  0.529800  0.102800  0.475600  1.0
  C  C233  1  0.117200  0.527400  0.007900  1.0
  C  C234  1  0.472600  0.882800  0.492100  1.0
  C  C235  1  0.882800  0.472600  0.992100  1.0
  C  C236  1  0.527400  0.117200  0.507900  1.0
  C  C237  1  0.073600  0.548000  0.031200  1.0
  C  C238  1  0.452000  0.926400  0.468800  1.0
  C  C239  1  0.926400  0.452000  0.968800  1.0
  C  C240  1  0.548000  0.073600  0.531200  1.0
  C  C241  1  0.015600  0.571200  0.022300  1.0
  C  C242  1  0.428800  0.984400  0.477700  1.0
  C  C243  1  0.984400  0.428800  0.977700  1.0
  C  C244  1  0.571200  0.015600  0.522300  1.0
  C  C245  1  0.001300  0.573700  0.990000  1.0
  C  C246  1  0.426300  0.998700  0.510000  1.0
  C  C247  1  0.998700  0.426300  0.010000  1.0
  C  C248  1  0.573700  0.001300  0.490000  1.0
  C  C249  1  0.044800  0.553000  0.966700  1.0
  C  C250  1  0.447000  0.955200  0.533300  1.0
  C  C251  1  0.955200  0.447000  0.033300  1.0
  C  C252  1  0.553000  0.044800  0.466700  1.0
  C  C253  1  0.183900  0.465700  0.954600  1.0
  C  C254  1  0.534300  0.816100  0.545400  1.0
  C  C255  1  0.816100  0.534300  0.045400  1.0
  C  C256  1  0.465700  0.183900  0.454600  1.0
  C  C257  1  0.234200  0.442800  0.930700  1.0
  C  C258  1  0.557200  0.765800  0.569300  1.0
  C  C259  1  0.765800  0.557200  0.069300  1.0
  C  C260  1  0.442800  0.234200  0.430700  1.0
  C  C261  1  0.274900  0.471100  0.882100  1.0
  C  C262  1  0.528900  0.725100  0.617900  1.0
  C  C263  1  0.725100  0.528900  0.117900  1.0
  C  C264  1  0.471100  0.274900  0.382100  1.0
  C  C265  1  0.364300  0.412500  0.856300  1.0
  C  C266  1  0.587500  0.635700  0.643700  1.0
  C  C267  1  0.635700  0.587500  0.143700  1.0
  C  C268  1  0.412500  0.364300  0.356300  1.0
  C  C269  1  0.319900  0.385700  0.910100  1.0
  C  C270  1  0.614300  0.680100  0.589900  1.0
  C  C271  1  0.680100  0.614300  0.089900  1.0
  C  C272  1  0.385700  0.319900  0.410100  1.0
  C  C273  1  0.275900  0.392700  0.934000  1.0
  C  C274  1  0.607300  0.724100  0.566000  1.0
  C  C275  1  0.724100  0.607300  0.066000  1.0
  C  C276  1  0.392700  0.275900  0.434000  1.0
  C  C277  1  0.466500  0.384100  0.839700  1.0
  C  C278  1  0.615900  0.533500  0.660300  1.0
  C  C279  1  0.533500  0.615900  0.160300  1.0
  C  C280  1  0.384100  0.466500  0.339700  1.0
  C  C281  1  0.426500  0.392700  0.862300  1.0
  C  C282  1  0.607300  0.573500  0.637700  1.0
  C  C283  1  0.573500  0.607300  0.137700  1.0
  C  C284  1  0.392700  0.426500  0.362300  1.0
  C  C285  1  0.492700  0.386300  0.780100  1.0
  C  C286  1  0.613700  0.507300  0.719900  1.0
  C  C287  1  0.507300  0.613700  0.219900  1.0
  C  C288  1  0.386300  0.492700  0.280100  1.0
  C  C289  1  0.497600  0.849400  0.890700  1.0
  C  C290  1  0.150600  0.502400  0.609300  1.0
  C  C291  1  0.502400  0.150600  0.109300  1.0
  C  C292  1  0.849400  0.497600  0.390700  1.0
  C  C293  1  0.487100  0.891700  0.914300  1.0
  C  C294  1  0.108300  0.512900  0.585700  1.0
  C  C295  1  0.512900  0.108300  0.085700  1.0
  C  C296  1  0.891700  0.487100  0.414300  1.0
  C  C297  1  0.530400  0.924000  0.920300  1.0
  C  C298  1  0.076000  0.469600  0.579700  1.0
  C  C299  1  0.469600  0.076000  0.079700  1.0
  C  C300  1  0.924000  0.530400  0.420300  1.0
  C  C301  1  0.584100  0.913900  0.902600  1.0
  C  C302  1  0.086100  0.415900  0.597400  1.0
  C  C303  1  0.415900  0.086100  0.097400  1.0
  C  C304  1  0.913900  0.584100  0.402600  1.0
  C  C305  1  0.594500  0.871500  0.879000  1.0
  C  C306  1  0.128500  0.405500  0.621000  1.0
  C  C307  1  0.405500  0.128500  0.121000  1.0
  C  C308  1  0.871500  0.594500  0.379000  1.0
  C  C309  1  0.551300  0.839300  0.873000  1.0
  C  C310  1  0.160700  0.448700  0.627000  1.0
  C  C311  1  0.448700  0.160700  0.127000  1.0
  C  C312  1  0.839300  0.551300  0.373000  1.0
  C  C313  1  0.382400  0.797600  0.856400  1.0
  C  C314  1  0.202400  0.617600  0.643600  1.0
  C  C315  1  0.617600  0.202400  0.143600  1.0
  C  C316  1  0.797600  0.382400  0.356400  1.0
  C  C317  1  0.327800  0.727400  0.879900  1.0
  C  C318  1  0.272600  0.672200  0.620100  1.0
  C  C319  1  0.672200  0.272600  0.120100  1.0
  C  C320  1  0.727400  0.327800  0.379900  1.0
  C  C321  1  0.296000  0.721200  0.850600  1.0
  C  C322  1  0.278800  0.704000  0.649400  1.0
  C  C323  1  0.704000  0.278800  0.149400  1.0
  C  C324  1  0.721200  0.296000  0.350600  1.0
  C  C325  1  0.310000  0.756600  0.825200  1.0
  C  C326  1  0.243400  0.690000  0.674800  1.0
  C  C327  1  0.690000  0.243400  0.174800  1.0
  C  C328  1  0.756600  0.310000  0.325200  1.0
  C  C329  1  0.350800  0.797200  0.829200  1.0
  C  C330  1  0.202800  0.649200  0.670800  1.0
  C  C331  1  0.649200  0.202800  0.170800  1.0
  C  C332  1  0.797200  0.350800  0.329200  1.0
  C  C333  1  0.253500  0.683500  0.848500  1.0
  C  C334  1  0.316500  0.746500  0.651500  1.0
  C  C335  1  0.746500  0.316500  0.151500  1.0
  C  C336  1  0.683500  0.253500  0.348500  1.0
  C  C337  1  0.240500  0.646100  0.875100  1.0
  C  C338  1  0.353900  0.759500  0.624900  1.0
  C  C339  1  0.759500  0.353900  0.124900  1.0
  C  C340  1  0.646100  0.240500  0.375100  1.0
  C  C341  1  0.168700  0.615100  0.849900  1.0
  C  C342  1  0.384900  0.831300  0.650100  1.0
  C  C343  1  0.831300  0.384900  0.150100  1.0
  C  C344  1  0.615100  0.168700  0.349900  1.0
  C  C345  1  0.177900  0.647700  0.820800  1.0
  C  C346  1  0.352300  0.822100  0.679200  1.0
  C  C347  1  0.822100  0.352300  0.179200  1.0
  C  C348  1  0.647700  0.177900  0.320800  1.0
  C  C349  1  0.218700  0.682500  0.821000  1.0
  C  C350  1  0.317500  0.781300  0.679000  1.0
  C  C351  1  0.781300  0.317500  0.179000  1.0
  C  C352  1  0.682500  0.218700  0.321000  1.0
  C  C353  1  0.123800  0.580000  0.851500  1.0
  C  C354  1  0.420000  0.876200  0.648500  1.0
  C  C355  1  0.876200  0.420000  0.148500  1.0
  C  C356  1  0.580000  0.123800  0.351500  1.0
  C  C357  1  0.071000  0.518800  0.880800  1.0
  C  C358  1  0.481200  0.929000  0.619200  1.0
  C  C359  1  0.929000  0.481200  0.119200  1.0
  C  C360  1  0.518800  0.071000  0.380800  1.0
  C  C361  1  0.012800  0.542600  0.872400  1.0
  C  C362  1  0.457400  0.987200  0.627600  1.0
  C  C363  1  0.987200  0.457400  0.127600  1.0
  C  C364  1  0.542600  0.012800  0.372400  1.0
  C  C365  1  0.970600  0.506600  0.873700  1.0
  C  C366  1  0.493400  0.029400  0.626300  1.0
  C  C367  1  0.029400  0.493400  0.126300  1.0
  C  C368  1  0.506600  0.970600  0.373700  1.0
  C  C369  1  0.986600  0.447000  0.883300  1.0
  C  C370  1  0.553000  0.013400  0.616700  1.0
  C  C371  1  0.013400  0.553000  0.116700  1.0
  C  C372  1  0.447000  0.986600  0.383300  1.0
  C  C373  1  0.044800  0.423200  0.891600  1.0
  C  C374  1  0.576800  0.955200  0.608400  1.0
  C  C375  1  0.955200  0.576800  0.108400  1.0
  C  C376  1  0.423200  0.044800  0.391600  1.0
  C  C377  1  0.086900  0.459100  0.890400  1.0
  C  C378  1  0.540900  0.913100  0.609600  1.0
  C  C379  1  0.913100  0.540900  0.109600  1.0
  C  C380  1  0.459100  0.086900  0.390400  1.0
  C  C381  1  0.261100  0.457300  0.750600  1.0
  C  C382  1  0.542700  0.738900  0.749400  1.0
  C  C383  1  0.738900  0.542700  0.249400  1.0
  C  C384  1  0.457300  0.261100  0.250600  1.0
  C  C385  1  0.294800  0.512000  0.750300  1.0
  C  C386  1  0.488000  0.705200  0.749700  1.0
  C  C387  1  0.705200  0.488000  0.249700  1.0
  C  C388  1  0.512000  0.294800  0.250300  1.0
  C  C389  1  0.269900  0.568300  0.749900  1.0
  C  C390  1  0.431700  0.730100  0.750100  1.0
  C  C391  1  0.730100  0.431700  0.250100  1.0
  C  C392  1  0.568300  0.269900  0.249900  1.0
  C  C393  1  0.305700  0.612500  0.752000  1.0
  C  C394  1  0.387500  0.694300  0.748000  1.0
  C  C395  1  0.694300  0.387500  0.248000  1.0
  C  C396  1  0.612500  0.305700  0.252000  1.0
  C  C397  1  0.368800  0.592000  0.749300  1.0
  C  C398  1  0.408000  0.631200  0.750700  1.0
  C  C399  1  0.631200  0.408000  0.250700  1.0
  C  C400  1  0.592000  0.368800  0.249300  1.0
  C  C401  1  0.283500  0.667100  0.524500  1.0
  C  C402  1  0.332900  0.716500  0.975500  1.0
  C  C403  1  0.716500  0.332900  0.475500  1.0
  C  C404  1  0.667100  0.283500  0.024500  1.0
  C  C405  1  0.250800  0.721600  0.534300  1.0
  C  C406  1  0.278400  0.749200  0.965700  1.0
  C  C407  1  0.749200  0.278400  0.465700  1.0
  C  C408  1  0.721600  0.250800  0.034300  1.0
  C  C409  1  0.233300  0.767500  0.511600  1.0
  C  C410  1  0.232500  0.766700  0.988400  1.0
  C  C411  1  0.766700  0.232500  0.488400  1.0
  C  C412  1  0.767500  0.233300  0.011600  1.0
  C  C413  1  0.248400  0.758800  0.479200  1.0
  C  C414  1  0.241200  0.751600  0.020800  1.0
  C  C415  1  0.751600  0.241200  0.520800  1.0
  C  C416  1  0.758800  0.248400  0.979200  1.0
  C  C417  1  0.281000  0.704200  0.469400  1.0
  C  C418  1  0.295800  0.719000  0.030600  1.0
  C  C419  1  0.719000  0.295800  0.530600  1.0
  C  C420  1  0.704200  0.281000  0.969400  1.0
  C  C421  1  0.298600  0.658400  0.492100  1.0
  C  C422  1  0.341600  0.701400  0.007900  1.0
  C  C423  1  0.701400  0.341600  0.507900  1.0
  C  C424  1  0.658400  0.298600  0.992100  1.0
  C  C425  1  0.348500  0.582500  0.547100  1.0
  C  C426  1  0.417500  0.651500  0.952900  1.0
  C  C427  1  0.651500  0.417500  0.452900  1.0
  C  C428  1  0.582500  0.348500  0.047100  1.0
  C  C429  1  0.412400  0.493600  0.572200  1.0
  C  C430  1  0.506400  0.587600  0.927800  1.0
  C  C431  1  0.587600  0.506400  0.427800  1.0
  C  C432  1  0.493600  0.412400  0.072200  1.0
  C  C433  1  0.423200  0.452000  0.594100  1.0
  C  C434  1  0.548000  0.576800  0.905900  1.0
  C  C435  1  0.576800  0.548000  0.405900  1.0
  C  C436  1  0.452000  0.423200  0.094100  1.0
  C  C437  1  0.519200  0.731400  0.971300  1.0
  C  C438  1  0.268600  0.480800  0.528700  1.0
  C  C439  1  0.480800  0.268600  0.028700  1.0
  C  C440  1  0.731400  0.519200  0.471300  1.0
  C  C441  1  0.567300  0.722500  0.949300  1.0
  C  C442  1  0.277500  0.432700  0.550700  1.0
  C  C443  1  0.432700  0.277500  0.050700  1.0
  C  C444  1  0.722500  0.567300  0.449300  1.0
  C  C445  1  0.618900  0.681700  0.956600  1.0
  C  C446  1  0.318300  0.381100  0.543400  1.0
  C  C447  1  0.381100  0.318300  0.043400  1.0
  C  C448  1  0.681700  0.618900  0.456600  1.0
  C  C449  1  0.622400  0.649800  0.985900  1.0
  C  C450  1  0.350200  0.377600  0.514100  1.0
  C  C451  1  0.377600  0.350200  0.014100  1.0
  C  C452  1  0.649800  0.622400  0.485900  1.0
  C  C453  1  0.574300  0.658700  0.007900  1.0
  C  C454  1  0.341300  0.425700  0.492100  1.0
  C  C455  1  0.425700  0.341300  0.992100  1.0
  C  C456  1  0.658700  0.574300  0.507900  1.0
  C  C457  1  0.522700  0.699500  0.000600  1.0
  C  C458  1  0.300500  0.477300  0.499400  1.0
  C  C459  1  0.477300  0.300500  0.999400  1.0
  C  C460  1  0.699500  0.522700  0.500600  1.0
  C  C461  1  0.433800  0.810600  0.980400  1.0
  C  C462  1  0.189400  0.566200  0.519600  1.0
  C  C463  1  0.566200  0.189400  0.019600  1.0
  C  C464  1  0.810600  0.433800  0.480400  1.0
  C  C465  1  0.381900  0.845900  0.973000  1.0
  C  C466  1  0.154100  0.618100  0.527000  1.0
  C  C467  1  0.618100  0.154100  0.027000  1.0
  C  C468  1  0.845900  0.381900  0.473000  1.0
  C  C469  1  0.315300  0.866300  0.934700  1.0
  C  C470  1  0.133700  0.684700  0.565300  1.0
  C  C471  1  0.684700  0.133700  0.065300  1.0
  C  C472  1  0.866300  0.315300  0.434700  1.0
  C  C473  1  0.274100  0.907700  0.952500  1.0
  C  C474  1  0.092300  0.725900  0.547500  1.0
  C  C475  1  0.725900  0.092300  0.047500  1.0
  C  C476  1  0.907700  0.274100  0.452500  1.0
  C  C477  1  0.295800  0.914800  0.984000  1.0
  C  C478  1  0.085200  0.704200  0.516000  1.0
  C  C479  1  0.704200  0.085200  0.016000  1.0
  C  C480  1  0.914800  0.295800  0.484000  1.0
  C  C481  1  0.346100  0.881500  0.992900  1.0
  C  C482  1  0.118500  0.653900  0.507100  1.0
  C  C483  1  0.653900  0.118500  0.007100  1.0
  C  C484  1  0.881500  0.346100  0.492900  1.0
  C  C485  1  0.217700  0.936700  0.944000  1.0
  C  C486  1  0.063300  0.782300  0.556000  1.0
  C  C487  1  0.782300  0.063300  0.056000  1.0
  C  C488  1  0.936700  0.217700  0.444000  1.0
  C  C489  1  0.211200  0.964200  0.913400  1.0
  C  C490  1  0.035800  0.788800  0.586600  1.0
  C  C491  1  0.788800  0.035800  0.086600  1.0
  C  C492  1  0.964200  0.211200  0.413400  1.0
  C  C493  1  0.103700  0.999100  0.921400  1.0
  C  C494  1  0.000900  0.896300  0.578600  1.0
  C  C495  1  0.896300  0.000900  0.078600  1.0
  C  C496  1  0.999100  0.103700  0.421400  1.0
  C  C497  1  0.114400  0.971600  0.954000  1.0
  C  C498  1  0.028400  0.885600  0.546000  1.0
  C  C499  1  0.885600  0.028400  0.046000  1.0
  C  C500  1  0.971600  0.114400  0.454000  1.0
  C  C501  1  0.165800  0.943000  0.963200  1.0
  C  C502  1  0.057000  0.834200  0.536800  1.0
  C  C503  1  0.834200  0.057000  0.036800  1.0
  C  C504  1  0.943000  0.165800  0.463200  1.0
  C  C505  1  0.053000  0.027200  0.908500  1.0
  C  C506  1  0.972800  0.947000  0.591500  1.0
  C  C507  1  0.947000  0.972800  0.091500  1.0
  C  C508  1  0.027200  0.053000  0.408500  1.0
  C  C509  1  0.000600  0.081600  0.865300  1.0
  C  C510  1  0.918400  0.999400  0.634700  1.0
  C  C511  1  0.999400  0.918400  0.134700  1.0
  C  C512  1  0.081600  0.000600  0.365300  1.0
  C  C513  1  0.989800  0.075200  0.833100  1.0
  C  C514  1  0.924800  0.010200  0.666900  1.0
  C  C515  1  0.010200  0.924800  0.166900  1.0
  C  C516  1  0.075200  0.989800  0.333100  1.0
  C  C517  1  0.937800  0.106800  0.819700  1.0
  C  C518  1  0.893200  0.062200  0.680300  1.0
  C  C519  1  0.062200  0.893200  0.180300  1.0
  C  C520  1  0.106800  0.937800  0.319700  1.0
  C  C521  1  0.896800  0.145000  0.838500  1.0
  C  C522  1  0.855000  0.103200  0.661500  1.0
  C  C523  1  0.103200  0.855000  0.161500  1.0
  C  C524  1  0.145000  0.896800  0.338500  1.0
  C  C525  1  0.907600  0.151400  0.870800  1.0
  C  C526  1  0.848600  0.092400  0.629200  1.0
  C  C527  1  0.092400  0.848600  0.129200  1.0
  C  C528  1  0.151400  0.907600  0.370800  1.0
  C  C529  1  0.959500  0.119700  0.884100  1.0
  C  C530  1  0.880300  0.040500  0.615900  1.0
  C  C531  1  0.040500  0.880300  0.115900  1.0
  C  C532  1  0.119700  0.959500  0.384100  1.0
  C  C533  1  0.379000  0.446400  0.619800  1.0
  C  C534  1  0.553600  0.621000  0.880200  1.0
  C  C535  1  0.621000  0.553600  0.380200  1.0
  C  C536  1  0.446400  0.379000  0.119800  1.0
  C  C537  1  0.328000  0.489400  0.615600  1.0
  C  C538  1  0.510600  0.672000  0.884400  1.0
  C  C539  1  0.672000  0.510600  0.384400  1.0
  C  C540  1  0.489400  0.328000  0.115600  1.0
  C  C541  1  0.363900  0.533700  0.570000  1.0
  C  C542  1  0.466300  0.636100  0.930000  1.0
  C  C543  1  0.636100  0.466300  0.430000  1.0
  C  C544  1  0.533700  0.363900  0.070000  1.0
  C  C545  1  0.420100  0.267900  0.779400  1.0
  C  C546  1  0.732100  0.579900  0.720600  1.0
  C  C547  1  0.579900  0.732100  0.220600  1.0
  C  C548  1  0.267900  0.420100  0.279400  1.0
  C  C549  1  0.379000  0.273200  0.805300  1.0
  C  C550  1  0.726800  0.621000  0.694700  1.0
  C  C551  1  0.621000  0.726800  0.194700  1.0
  C  C552  1  0.273200  0.379000  0.305300  1.0
  C  C553  1  0.391900  0.238500  0.833300  1.0
  C  C554  1  0.761500  0.608100  0.666700  1.0
  C  C555  1  0.608100  0.761500  0.166700  1.0
  C  C556  1  0.238500  0.391900  0.333300  1.0
  C  C557  1  0.446100  0.198700  0.835600  1.0
  C  C558  1  0.801300  0.553900  0.664400  1.0
  C  C559  1  0.553900  0.801300  0.164400  1.0
  C  C560  1  0.198700  0.446100  0.335600  1.0
  C  C561  1  0.487200  0.193400  0.809700  1.0
  C  C562  1  0.806600  0.512800  0.690300  1.0
  C  C563  1  0.512800  0.806600  0.190300  1.0
  C  C564  1  0.193400  0.487200  0.309700  1.0
  C  C565  1  0.474200  0.228200  0.781700  1.0
  C  C566  1  0.771800  0.525800  0.718300  1.0
  C  C567  1  0.525800  0.771800  0.218300  1.0
  C  C568  1  0.228200  0.474200  0.281700  1.0
  C  C569  1  0.070600  0.672000  0.923700  1.0
  C  C570  1  0.328000  0.929400  0.576300  1.0
  C  C571  1  0.929400  0.328000  0.076300  1.0
  C  C572  1  0.672000  0.070600  0.423700  1.0
  C  C573  1  0.317600  0.425400  0.881700  1.0
  C  C574  1  0.574600  0.682400  0.618300  1.0
  C  C575  1  0.682400  0.574600  0.118300  1.0
  C  C576  1  0.425400  0.317600  0.381700  1.0
  C  C577  1  0.347200  0.415800  0.824500  1.0
  C  C578  1  0.584200  0.652800  0.675500  1.0
  C  C579  1  0.652800  0.584200  0.175500  1.0
  C  C580  1  0.415800  0.347200  0.324500  1.0
  C  C581  1  0.449000  0.392800  0.808600  1.0
  C  C582  1  0.607200  0.551000  0.691400  1.0
  C  C583  1  0.551000  0.607200  0.191400  1.0
  C  C584  1  0.392800  0.449000  0.308600  1.0
  C  C585  1  0.514300  0.387300  0.725100  1.0
  C  C586  1  0.612700  0.485700  0.774900  1.0
  C  C587  1  0.485700  0.612700  0.274900  1.0
  C  C588  1  0.387300  0.514300  0.225100  1.0
  C  C589  1  0.503400  0.425000  0.698000  1.0
  C  C590  1  0.575000  0.496600  0.802000  1.0
  C  C591  1  0.496600  0.575000  0.302000  1.0
  C  C592  1  0.425000  0.503400  0.198000  1.0
  C  C593  1  0.539300  0.413700  0.670200  1.0
  C  C594  1  0.586300  0.460700  0.829800  1.0
  C  C595  1  0.460700  0.586300  0.329800  1.0
  C  C596  1  0.413700  0.539300  0.170200  1.0
  C  C597  1  0.586000  0.364600  0.669600  1.0
  C  C598  1  0.635400  0.414000  0.830400  1.0
  C  C599  1  0.414000  0.635400  0.330400  1.0
  C  C600  1  0.364600  0.586000  0.169600  1.0
  C  C601  1  0.597000  0.327000  0.696700  1.0
  C  C602  1  0.673000  0.403000  0.803300  1.0
  C  C603  1  0.403000  0.673000  0.303300  1.0
  C  C604  1  0.327000  0.597000  0.196700  1.0
  C  C605  1  0.561100  0.338300  0.724500  1.0
  C  C606  1  0.661700  0.438900  0.775500  1.0
  C  C607  1  0.438900  0.661700  0.275500  1.0
  C  C608  1  0.338300  0.561100  0.224500  1.0
  C  C609  1  0.421400  0.283200  0.723500  1.0
  C  C610  1  0.716800  0.578600  0.776500  1.0
  C  C611  1  0.578600  0.716800  0.276500  1.0
  C  C612  1  0.283200  0.421400  0.223500  1.0
  C  C613  1  0.386000  0.530600  0.748100  1.0
  C  C614  1  0.469400  0.614000  0.751900  1.0
  C  C615  1  0.614000  0.469400  0.251900  1.0
  C  C616  1  0.530600  0.386000  0.248100  1.0
  C  C617  1  0.874400  0.859200  0.575300  1.0
  C  C618  1  0.140800  0.125600  0.924700  1.0
  C  C619  1  0.125600  0.140800  0.424700  1.0
  C  C620  1  0.859200  0.874400  0.075300  1.0
  C  C621  1  0.854500  0.906900  0.554100  1.0
  C  C622  1  0.093100  0.145500  0.945900  1.0
  C  C623  1  0.145500  0.093100  0.445900  1.0
  C  C624  1  0.906900  0.854500  0.054100  1.0
  C  C625  1  0.858800  0.898800  0.521000  1.0
  C  C626  1  0.101200  0.141200  0.979000  1.0
  C  C627  1  0.141200  0.101200  0.479000  1.0
  C  C628  1  0.898800  0.858800  0.021000  1.0
  C  C629  1  0.883100  0.843100  0.509100  1.0
  C  C630  1  0.156900  0.116900  0.990900  1.0
  C  C631  1  0.116900  0.156900  0.490900  1.0
  C  C632  1  0.843100  0.883100  0.009100  1.0
  C  C633  1  0.903000  0.795400  0.530400  1.0
  C  C634  1  0.204600  0.097000  0.969600  1.0
  C  C635  1  0.097000  0.204600  0.469600  1.0
  C  C636  1  0.795400  0.903000  0.030400  1.0
  C  C637  1  0.898700  0.803500  0.563400  1.0
  C  C638  1  0.196500  0.101300  0.936600  1.0
  C  C639  1  0.101300  0.196500  0.436600  1.0
  C  C640  1  0.803500  0.898700  0.063400  1.0
  C  C641  1  0.422500  0.829100  0.860400  1.0
  C  C642  1  0.170900  0.577500  0.639600  1.0
  C  C643  1  0.577500  0.170900  0.139600  1.0
  C  C644  1  0.829100  0.422500  0.360400  1.0
  C  C645  1  0.251000  0.364200  0.749100  1.0
  C  C646  1  0.635800  0.749000  0.750900  1.0
  C  C647  1  0.749000  0.635800  0.250900  1.0
  C  C648  1  0.364200  0.251000  0.249100  1.0
  C  C649  1  0.223100  0.343500  0.776400  1.0
  C  C650  1  0.656500  0.776900  0.723600  1.0
  C  C651  1  0.776900  0.656500  0.223600  1.0
  C  C652  1  0.343500  0.223100  0.276400  1.0
  C  C653  1  0.198400  0.293200  0.774900  1.0
  C  C654  1  0.706800  0.801600  0.725100  1.0
  C  C655  1  0.801600  0.706800  0.225100  1.0
  C  C656  1  0.293200  0.198400  0.274900  1.0
  C  C657  1  0.201800  0.263600  0.746100  1.0
  C  C658  1  0.736400  0.798200  0.753900  1.0
  C  C659  1  0.798200  0.736400  0.253900  1.0
  C  C660  1  0.263600  0.201800  0.246100  1.0
  C  C661  1  0.229700  0.284300  0.718900  1.0
  C  C662  1  0.715700  0.770300  0.781100  1.0
  C  C663  1  0.770300  0.715700  0.281100  1.0
  C  C664  1  0.284300  0.229700  0.218900  1.0
  C  C665  1  0.254300  0.334700  0.720400  1.0
  C  C666  1  0.665300  0.745700  0.779600  1.0
  C  C667  1  0.745700  0.665300  0.279600  1.0
  C  C668  1  0.334700  0.254300  0.220400  1.0
  C  C669  1  0.267500  0.086300  0.861500  1.0
  C  C670  1  0.913700  0.732500  0.638500  1.0
  C  C671  1  0.732500  0.913700  0.138500  1.0
  C  C672  1  0.086300  0.267500  0.361500  1.0
  C  C673  1  0.246900  0.147300  0.858000  1.0
  C  C674  1  0.852700  0.753100  0.642000  1.0
  C  C675  1  0.753100  0.852700  0.142000  1.0
  C  C676  1  0.147300  0.246900  0.358000  1.0
  C  C677  1  0.280400  0.186200  0.868900  1.0
  C  C678  1  0.813800  0.719600  0.631100  1.0
  C  C679  1  0.719600  0.813800  0.131100  1.0
  C  C680  1  0.186200  0.280400  0.368900  1.0
  C  C681  1  0.334300  0.164100  0.883200  1.0
  C  C682  1  0.835900  0.665700  0.616800  1.0
  C  C683  1  0.665700  0.835900  0.116800  1.0
  C  C684  1  0.164100  0.334300  0.383200  1.0
  C  C685  1  0.354900  0.102900  0.886600  1.0
  C  C686  1  0.897100  0.645100  0.613400  1.0
  C  C687  1  0.645100  0.897100  0.113400  1.0
  C  C688  1  0.102900  0.354900  0.386600  1.0
  C  C689  1  0.321500  0.064100  0.875800  1.0
  C  C690  1  0.935900  0.678500  0.624200  1.0
  C  C691  1  0.678500  0.935900  0.124200  1.0
  C  C692  1  0.064100  0.321500  0.375800  1.0
  C  C693  1  0.958100  0.750700  0.803400  1.0
  C  C694  1  0.249300  0.041900  0.696600  1.0
  C  C695  1  0.041900  0.249300  0.196600  1.0
  C  C696  1  0.750700  0.958100  0.303400  1.0
  C  C697  1  0.782400  0.709600  0.798300  1.0
  C  C698  1  0.290400  0.217600  0.701700  1.0
  C  C699  1  0.217600  0.290400  0.201700  1.0
  C  C700  1  0.709600  0.782400  0.298300  1.0
  C  C701  1  0.769800  0.681800  0.827300  1.0
  C  C702  1  0.318200  0.230200  0.672700  1.0
  C  C703  1  0.230200  0.318200  0.172700  1.0
  C  C704  1  0.681800  0.769800  0.327300  1.0
  C  C705  1  0.807300  0.678900  0.852800  1.0
  C  C706  1  0.321100  0.192700  0.647200  1.0
  C  C707  1  0.192700  0.321100  0.147200  1.0
  C  C708  1  0.678900  0.807300  0.352800  1.0
  C  C709  1  0.857400  0.703800  0.849300  1.0
  C  C710  1  0.296200  0.142600  0.650700  1.0
  C  C711  1  0.142600  0.296200  0.150700  1.0
  C  C712  1  0.703800  0.857400  0.349300  1.0
  C  C713  1  0.870000  0.731600  0.820300  1.0
  C  C714  1  0.268400  0.130000  0.679700  1.0
  C  C715  1  0.130000  0.268400  0.179700  1.0
  C  C716  1  0.731600  0.870000  0.320300  1.0
  C  C717  1  0.832500  0.734500  0.794800  1.0
  C  C718  1  0.265500  0.167500  0.705200  1.0
  C  C719  1  0.167500  0.265500  0.205200  1.0
  C  C720  1  0.734500  0.832500  0.294800  1.0
  Cl  Cl721  1  0.017900  0.982100  0.750000  1
  Cl  Cl722  1  0.982100  0.017900  0.250000  1
  Cl  Cl723  1  0.154700  0.811100  0.892450  1
  Cl  Cl724  1  0.188900  0.845300  0.607550  1
  Cl  Cl725  1  0.845300  0.188900  0.107550  1
  Cl  Cl726  1  0.811100  0.154700  0.392450  1
  Cl  Cl727  1  0.398000  0.915400  0.756400  1
  Cl  Cl728  1  0.084600  0.602000  0.743600  1
  Cl  Cl729  1  0.602000  0.084600  0.243600  1
  Cl  Cl730  1  0.915400  0.398000  0.256400  1
  Cl  Cl731  1  0.411100  0.573900  0.839790  1
  Cl  Cl732  1  0.426100  0.588900  0.660210  1
  Cl  Cl733  1  0.588900  0.426100  0.160210  1
  Cl  Cl734  1  0.573900  0.411100  0.339790  1
  Cl  Cl735  1  0.078400  0.861200  0.026550  1
  Cl  Cl736  1  0.138800  0.921600  0.473450  1
  Cl  Cl737  1  0.921600  0.138800  0.973450  1
  Cl  Cl738  1  0.861200  0.078400  0.526550  1
  Cl  Cl739  1  0.557600  0.399600  0.928800  1
  Cl  Cl740  1  0.600400  0.442400  0.571200  1
  Cl  Cl741  1  0.442400  0.600400  0.071200  1
  Cl  Cl742  1  0.399600  0.557600  0.428800  1
  Cl  Cl743  1  0.238200  0.761800  0.750000  1
  Cl  Cl744  1  0.761800  0.238200  0.250000  1
  H  H745  1  0.770800  0.861800  0.809100  1.0
  H  H746  1  0.138200  0.229200  0.690900  1.0
  H  H747  1  0.229200  0.138200  0.190900  1.0
  H  H748  1  0.861800  0.770800  0.309100  1.0
  H  H749  1  0.689900  0.926500  0.786400  1.0
  H  H750  1  0.073500  0.310100  0.713600  1.0
  H  H751  1  0.310100  0.073500  0.213600  1.0
  H  H752  1  0.926500  0.689900  0.286400  1.0
  H  H753  1  0.640200  0.008800  0.814600  1.0
  H  H754  1  0.991200  0.359800  0.685400  1.0
  H  H755  1  0.359800  0.991200  0.185400  1.0
  H  H756  1  0.008800  0.640200  0.314600  1.0
  H  H757  1  0.671000  0.026400  0.865600  1.0
  H  H758  1  0.973600  0.329000  0.634400  1.0
  H  H759  1  0.329000  0.973600  0.134400  1.0
  H  H760  1  0.026400  0.671000  0.365600  1.0
  H  H761  1  0.751800  0.961600  0.888300  1.0
  H  H762  1  0.038400  0.248200  0.611700  1.0
  H  H763  1  0.248200  0.038400  0.111700  1.0
  H  H764  1  0.961600  0.751800  0.388300  1.0
  H  H765  1  0.786000  0.861800  0.903500  1.0
  H  H766  1  0.138200  0.214000  0.596500  1.0
  H  H767  1  0.214000  0.138200  0.096500  1.0
  H  H768  1  0.861800  0.786000  0.403500  1.0
  H  H769  1  0.004700  0.768700  0.882600  1.0
  H  H770  1  0.231300  0.995300  0.617400  1.0
  H  H771  1  0.995300  0.231300  0.117400  1.0
  H  H772  1  0.768700  0.004700  0.382600  1.0
  H  H773  1  0.925100  0.743700  0.968500  1.0
  H  H774  1  0.256300  0.074900  0.531500  1.0
  H  H775  1  0.074900  0.256300  0.031500  1.0
  H  H776  1  0.743700  0.925100  0.468500  1.0
  H  H777  1  0.839400  0.797000  0.952700  1.0
  H  H778  1  0.203000  0.160600  0.547300  1.0
  H  H779  1  0.160600  0.203000  0.047300  1.0
  H  H780  1  0.797000  0.839400  0.452700  1.0
  H  H781  1  0.450700  0.265100  0.662600  1.0
  H  H782  1  0.734900  0.549300  0.837400  1.0
  H  H783  1  0.549300  0.734900  0.337400  1.0
  H  H784  1  0.265100  0.450700  0.162600  1.0
  H  H785  1  0.433600  0.332800  0.618900  1.0
  H  H786  1  0.667200  0.566400  0.881100  1.0
  H  H787  1  0.566400  0.667200  0.381100  1.0
  H  H788  1  0.332800  0.433600  0.118900  1.0
  H  H789  1  0.354800  0.461400  0.679000  1.0
  H  H790  1  0.538600  0.645200  0.821000  1.0
  H  H791  1  0.645200  0.538600  0.321000  1.0
  H  H792  1  0.461400  0.354800  0.179000  1.0
  H  H793  1  0.120300  0.708700  0.998900  1.0
  H  H794  1  0.291300  0.879700  0.501100  1.0
  H  H795  1  0.879700  0.291300  0.001100  1.0
  H  H796  1  0.708700  0.120300  0.498900  1.0
  H  H797  1  0.036400  0.764200  0.979500  1.0
  H  H798  1  0.235800  0.963600  0.520500  1.0
  H  H799  1  0.963600  0.235800  0.020500  1.0
  H  H800  1  0.764200  0.036400  0.479500  1.0
  H  H801  1  0.219100  0.643100  0.985800  1.0
  H  H802  1  0.356900  0.780900  0.514200  1.0
  H  H803  1  0.780900  0.356900  0.014200  1.0
  H  H804  1  0.643100  0.219100  0.485800  1.0
  H  H805  1  0.322400  0.553200  0.910800  1.0
  H  H806  1  0.446800  0.677600  0.589200  1.0
  H  H807  1  0.677600  0.446800  0.089200  1.0
  H  H808  1  0.553200  0.322400  0.410800  1.0
  H  H809  1  0.417800  0.503200  0.924100  1.0
  H  H810  1  0.496800  0.582200  0.575900  1.0
  H  H811  1  0.582200  0.496800  0.075900  1.0
  H  H812  1  0.503200  0.417800  0.424100  1.0
  H  H813  1  0.439300  0.476500  0.977900  1.0
  H  H814  1  0.523500  0.560700  0.522100  1.0
  H  H815  1  0.560700  0.523500  0.022100  1.0
  H  H816  1  0.476500  0.439300  0.477900  1.0
  H  H817  1  0.365400  0.500000  0.018400  1.0
  H  H818  1  0.500000  0.634600  0.481600  1.0
  H  H819  1  0.634600  0.500000  0.981600  1.0
  H  H820  1  0.500000  0.365400  0.518400  1.0
  H  H821  1  0.270000  0.549800  0.005100  1.0
  H  H822  1  0.450200  0.730000  0.494900  1.0
  H  H823  1  0.730000  0.450200  0.994900  1.0
  H  H824  1  0.549800  0.270000  0.505100  1.0
  H  H825  1  0.004500  0.885300  0.892500  1.0
  H  H826  1  0.114700  0.995500  0.607500  1.0
  H  H827  1  0.995500  0.114700  0.107500  1.0
  H  H828  1  0.885300  0.004500  0.392500  1.0
  H  H829  1  0.028200  0.886600  0.946600  1.0
  H  H830  1  0.113400  0.971800  0.553400  1.0
  H  H831  1  0.971800  0.113400  0.053400  1.0
  H  H832  1  0.886600  0.028200  0.446600  1.0
  H  H833  1  0.962400  0.944600  0.982600  1.0
  H  H834  1  0.055400  0.037600  0.517400  1.0
  H  H835  1  0.037600  0.055400  0.017400  1.0
  H  H836  1  0.944600  0.962400  0.482600  1.0
  H  H837  1  0.872900  0.001500  0.964500  1.0
  H  H838  1  0.998500  0.127100  0.535500  1.0
  H  H839  1  0.127100  0.998500  0.035500  1.0
  H  H840  1  0.001500  0.872900  0.464500  1.0
  H  H841  1  0.849200  0.000200  0.910400  1.0
  H  H842  1  0.999800  0.150800  0.589600  1.0
  H  H843  1  0.150800  0.999800  0.089600  1.0
  H  H844  1  0.000200  0.849200  0.410400  1.0
  H  H845  1  0.875300  0.014900  0.857000  1.0
  H  H846  1  0.985100  0.124700  0.643000  1.0
  H  H847  1  0.124700  0.985100  0.143000  1.0
  H  H848  1  0.014900  0.875300  0.357000  1.0
  H  H849  1  0.884300  0.861700  0.767800  1.0
  H  H850  1  0.138300  0.115700  0.732200  1.0
  H  H851  1  0.115700  0.138300  0.232200  1.0
  H  H852  1  0.861700  0.884300  0.267800  1.0
  H  H853  1  0.802600  0.031600  0.751300  1.0
  H  H854  1  0.968400  0.197400  0.748700  1.0
  H  H855  1  0.197400  0.968400  0.248700  1.0
  H  H856  1  0.031600  0.802600  0.251300  1.0
  H  H857  1  0.826900  0.057100  0.801800  1.0
  H  H858  1  0.942900  0.173100  0.698200  1.0
  H  H859  1  0.173100  0.942900  0.198200  1.0
  H  H860  1  0.057100  0.826900  0.301800  1.0
  H  H861  1  0.920600  0.884200  0.709300  1.0
  H  H862  1  0.115800  0.079400  0.790700  1.0
  H  H863  1  0.079400  0.115800  0.290700  1.0
  H  H864  1  0.884200  0.920600  0.209300  1.0
  H  H865  1  0.739700  0.961300  0.664000  1.0
  H  H866  1  0.038700  0.260300  0.836000  1.0
  H  H867  1  0.260300  0.038700  0.336000  1.0
  H  H868  1  0.961300  0.739700  0.164000  1.0
  H  H869  1  0.753500  0.964700  0.720200  1.0
  H  H870  1  0.035300  0.246500  0.779800  1.0
  H  H871  1  0.246500  0.035300  0.279800  1.0
  H  H872  1  0.964700  0.753500  0.220200  1.0
  H  H873  1  0.793000  0.906200  0.609400  1.0
  H  H874  1  0.093800  0.207000  0.890600  1.0
  H  H875  1  0.207000  0.093800  0.390600  1.0
  H  H876  1  0.906200  0.793000  0.109400  1.0
  H  H877  1  0.025300  0.908500  0.836500  1.0
  H  H878  1  0.091500  0.974700  0.663500  1.0
  H  H879  1  0.974700  0.091500  0.163500  1.0
  H  H880  1  0.908500  0.025300  0.336500  1.0
  H  H881  1  0.138300  0.792700  0.781200  1.0
  H  H882  1  0.207300  0.861700  0.718800  1.0
  H  H883  1  0.861700  0.207300  0.218800  1.0
  H  H884  1  0.792700  0.138300  0.281200  1.0
  H  H885  1  0.067000  0.733600  0.779400  1.0
  H  H886  1  0.266400  0.933000  0.720600  1.0
  H  H887  1  0.933000  0.266400  0.220600  1.0
  H  H888  1  0.733600  0.067000  0.279400  1.0
  H  H889  1  0.288800  0.000200  0.819500  1.0
  H  H890  1  0.999800  0.711200  0.680500  1.0
  H  H891  1  0.711200  0.999800  0.180500  1.0
  H  H892  1  0.000200  0.288800  0.319500  1.0
  H  H893  1  0.206100  0.845100  0.785700  1.0
  H  H894  1  0.154900  0.793900  0.714300  1.0
  H  H895  1  0.793900  0.154900  0.214300  1.0
  H  H896  1  0.845100  0.206100  0.285700  1.0
  H  H897  1  0.075700  0.949500  0.837400  1.0
  H  H898  1  0.050500  0.924300  0.662600  1.0
  H  H899  1  0.924300  0.050500  0.162600  1.0
  H  H900  1  0.949500  0.075700  0.337400  1.0
  H  H901  1  0.269300  0.910700  0.793400  1.0
  H  H902  1  0.089300  0.730700  0.706600  1.0
  H  H903  1  0.730700  0.089300  0.206600  1.0
  H  H904  1  0.910700  0.269300  0.293400  1.0
  H  H905  1  0.156600  0.511600  0.014000  1.0
  H  H906  1  0.488400  0.843400  0.486000  1.0
  H  H907  1  0.843400  0.488400  0.986000  1.0
  H  H908  1  0.511600  0.156600  0.514000  1.0
  H  H909  1  0.083400  0.546400  0.053200  1.0
  H  H910  1  0.453600  0.916600  0.446800  1.0
  H  H911  1  0.916600  0.453600  0.946800  1.0
  H  H912  1  0.546400  0.083400  0.553200  1.0
  H  H913  1  0.985900  0.585300  0.038200  1.0
  H  H914  1  0.414700  0.014100  0.461800  1.0
  H  H915  1  0.014100  0.414700  0.961800  1.0
  H  H916  1  0.585300  0.985900  0.538200  1.0
  H  H917  1  0.961800  0.589600  0.983900  1.0
  H  H918  1  0.410400  0.038200  0.516100  1.0
  H  H919  1  0.038200  0.410400  0.016100  1.0
  H  H920  1  0.589600  0.961800  0.483900  1.0
  H  H921  1  0.035100  0.554700  0.944700  1.0
  H  H922  1  0.445300  0.964900  0.555300  1.0
  H  H923  1  0.964900  0.445300  0.055300  1.0
  H  H924  1  0.554700  0.035100  0.444700  1.0
  H  H925  1  0.179900  0.440700  0.972900  1.0
  H  H926  1  0.559300  0.820100  0.527100  1.0
  H  H927  1  0.820100  0.559300  0.027100  1.0
  H  H928  1  0.440700  0.179900  0.472900  1.0
  H  H929  1  0.272500  0.496700  0.863400  1.0
  H  H930  1  0.503300  0.727500  0.636600  1.0
  H  H931  1  0.727500  0.503300  0.136600  1.0
  H  H932  1  0.496700  0.272500  0.363400  1.0
  H  H933  1  0.353000  0.353800  0.912200  1.0
  H  H934  1  0.646200  0.647000  0.587800  1.0
  H  H935  1  0.647000  0.646200  0.087800  1.0
  H  H936  1  0.353800  0.353000  0.412200  1.0
  H  H937  1  0.275100  0.364700  0.951300  1.0
  H  H938  1  0.635300  0.724900  0.548700  1.0
  H  H939  1  0.724900  0.635300  0.048700  1.0
  H  H940  1  0.364700  0.275100  0.451300  1.0
  H  H941  1  0.507200  0.372000  0.844500  1.0
  H  H942  1  0.628000  0.492800  0.655500  1.0
  H  H943  1  0.492800  0.628000  0.155500  1.0
  H  H944  1  0.372000  0.507200  0.344500  1.0
  H  H945  1  0.438300  0.385900  0.884000  1.0
  H  H946  1  0.614100  0.561700  0.616000  1.0
  H  H947  1  0.561700  0.614100  0.116000  1.0
  H  H948  1  0.385900  0.438300  0.384000  1.0
  H  H949  1  0.534000  0.375200  0.783600  1.0
  H  H950  1  0.624800  0.466000  0.716400  1.0
  H  H951  1  0.466000  0.624800  0.216400  1.0
  H  H952  1  0.375200  0.534000  0.283600  1.0
  H  H953  1  0.450500  0.898700  0.926300  1.0
  H  H954  1  0.101300  0.549500  0.573700  1.0
  H  H955  1  0.549500  0.101300  0.073700  1.0
  H  H956  1  0.898700  0.450500  0.426300  1.0
  H  H957  1  0.523400  0.952800  0.936400  1.0
  H  H958  1  0.047200  0.476600  0.563600  1.0
  H  H959  1  0.476600  0.047200  0.063600  1.0
  H  H960  1  0.952800  0.523400  0.436400  1.0
  H  H961  1  0.613600  0.935800  0.906700  1.0
  H  H962  1  0.064200  0.386400  0.593300  1.0
  H  H963  1  0.386400  0.064200  0.093300  1.0
  H  H964  1  0.935800  0.613600  0.406700  1.0
  H  H965  1  0.631200  0.864600  0.867100  1.0
  H  H966  1  0.135400  0.368800  0.632900  1.0
  H  H967  1  0.368800  0.135400  0.132900  1.0
  H  H968  1  0.864600  0.631200  0.367100  1.0
  H  H969  1  0.558300  0.810500  0.856900  1.0
  H  H970  1  0.189500  0.441700  0.643100  1.0
  H  H971  1  0.441700  0.189500  0.143100  1.0
  H  H972  1  0.810500  0.558300  0.356900  1.0
  H  H973  1  0.319000  0.706000  0.898900  1.0
  H  H974  1  0.294000  0.681000  0.601100  1.0
  H  H975  1  0.681000  0.294000  0.101100  1.0
  H  H976  1  0.706000  0.319000  0.398900  1.0
  H  H977  1  0.293300  0.754700  0.804900  1.0
  H  H978  1  0.245300  0.706700  0.695100  1.0
  H  H979  1  0.706700  0.245300  0.195100  1.0
  H  H980  1  0.754700  0.293300  0.304900  1.0
  H  H981  1  0.355500  0.824700  0.812100  1.0
  H  H982  1  0.175300  0.644500  0.687900  1.0
  H  H983  1  0.644500  0.175300  0.187900  1.0
  H  H984  1  0.824700  0.355500  0.312100  1.0
  H  H985  1  0.262300  0.646100  0.894000  1.0
  H  H986  1  0.353900  0.737700  0.606000  1.0
  H  H987  1  0.737700  0.353900  0.106000  1.0
  H  H988  1  0.646100  0.262300  0.394000  1.0
  H  H989  1  0.156400  0.645000  0.802200  1.0
  H  H990  1  0.355000  0.843600  0.697800  1.0
  H  H991  1  0.843600  0.355000  0.197800  1.0
  H  H992  1  0.645000  0.156400  0.302200  1.0
  H  H993  1  0.224300  0.706700  0.802500  1.0
  H  H994  1  0.293300  0.775700  0.697500  1.0
  H  H995  1  0.775700  0.293300  0.197500  1.0
  H  H996  1  0.706700  0.224300  0.302500  1.0
  H  H997  1  0.099900  0.578700  0.833700  1.0
  H  H998  1  0.421300  0.900100  0.666300  1.0
  H  H999  1  0.900100  0.421300  0.166300  1.0
  H  H1000  1  0.578700  0.099900  0.333700  1.0
  H  H1001  1  0.001900  0.583100  0.865900  1.0
  H  H1002  1  0.416900  0.998100  0.634100  1.0
  H  H1003  1  0.998100  0.416900  0.134100  1.0
  H  H1004  1  0.583100  0.001900  0.365900  1.0
  H  H1005  1  0.931000  0.522800  0.867900  1.0
  H  H1006  1  0.477200  0.069000  0.632100  1.0
  H  H1007  1  0.069000  0.477200  0.132100  1.0
  H  H1008  1  0.522800  0.931000  0.367900  1.0
  H  H1009  1  0.957900  0.422700  0.884200  1.0
  H  H1010  1  0.577300  0.042100  0.615800  1.0
  H  H1011  1  0.042100  0.577300  0.115800  1.0
  H  H1012  1  0.422700  0.957900  0.384200  1.0
  H  H1013  1  0.055700  0.382700  0.898200  1.0
  H  H1014  1  0.617300  0.944300  0.601800  1.0
  H  H1015  1  0.944300  0.617300  0.101800  1.0
  H  H1016  1  0.382700  0.055700  0.398200  1.0
  H  H1017  1  0.126600  0.443000  0.896100  1.0
  H  H1018  1  0.557000  0.873400  0.603900  1.0
  H  H1019  1  0.873400  0.557000  0.103900  1.0
  H  H1020  1  0.443000  0.126600  0.396100  1.0
  H  H1021  1  0.219100  0.464700  0.749500  1.0
  H  H1022  1  0.535300  0.780900  0.750500  1.0
  H  H1023  1  0.780900  0.535300  0.250500  1.0
  H  H1024  1  0.464700  0.219100  0.249500  1.0
  H  H1025  1  0.228100  0.580100  0.748300  1.0
  H  H1026  1  0.419900  0.771900  0.751700  1.0
  H  H1027  1  0.771900  0.419900  0.251700  1.0
  H  H1028  1  0.580100  0.228100  0.248300  1.0
  H  H1029  1  0.288500  0.653100  0.755000  1.0
  H  H1030  1  0.346900  0.711500  0.745000  1.0
  H  H1031  1  0.711500  0.346900  0.245000  1.0
  H  H1032  1  0.653100  0.288500  0.255000  1.0
  H  H1033  1  0.240500  0.727500  0.556400  1.0
  H  H1034  1  0.272500  0.759500  0.943600  1.0
  H  H1035  1  0.759500  0.272500  0.443600  1.0
  H  H1036  1  0.727500  0.240500  0.056400  1.0
  H  H1037  1  0.211100  0.804500  0.518300  1.0
  H  H1038  1  0.195500  0.788900  0.981700  1.0
  H  H1039  1  0.788900  0.195500  0.481700  1.0
  H  H1040  1  0.804500  0.211100  0.018300  1.0
  H  H1041  1  0.236500  0.789900  0.463700  1.0
  H  H1042  1  0.210100  0.763500  0.036300  1.0
  H  H1043  1  0.763500  0.210100  0.536300  1.0
  H  H1044  1  0.789900  0.236500  0.963700  1.0
  H  H1045  1  0.291400  0.698400  0.447300  1.0
  H  H1046  1  0.301600  0.708600  0.052700  1.0
  H  H1047  1  0.708600  0.301600  0.552700  1.0
  H  H1048  1  0.698400  0.291400  0.947300  1.0
  H  H1049  1  0.320700  0.621300  0.485400  1.0
  H  H1050  1  0.378700  0.679300  0.014600  1.0
  H  H1051  1  0.679300  0.378700  0.514600  1.0
  H  H1052  1  0.621300  0.320700  0.985400  1.0
  H  H1053  1  0.378000  0.587000  0.531100  1.0
  H  H1054  1  0.413000  0.622000  0.968900  1.0
  H  H1055  1  0.622000  0.413000  0.468900  1.0
  H  H1056  1  0.587000  0.378000  0.031100  1.0
  H  H1057  1  0.442600  0.495200  0.556100  1.0
  H  H1058  1  0.504800  0.557400  0.943900  1.0
  H  H1059  1  0.557400  0.504800  0.443900  1.0
  H  H1060  1  0.495200  0.442600  0.056100  1.0
  H  H1061  1  0.460100  0.424900  0.593600  1.0
  H  H1062  1  0.575100  0.539900  0.906400  1.0
  H  H1063  1  0.539900  0.575100  0.406400  1.0
  H  H1064  1  0.424900  0.460100  0.093600  1.0
  H  H1065  1  0.564800  0.744200  0.929300  1.0
  H  H1066  1  0.255800  0.435200  0.570700  1.0
  H  H1067  1  0.435200  0.255800  0.070700  1.0
  H  H1068  1  0.744200  0.564800  0.429300  1.0
  H  H1069  1  0.651600  0.675600  0.941600  1.0
  H  H1070  1  0.324400  0.348400  0.558400  1.0
  H  H1071  1  0.348400  0.324400  0.058400  1.0
  H  H1072  1  0.675600  0.651600  0.441600  1.0
  H  H1073  1  0.657500  0.621900  0.990900  1.0
  H  H1074  1  0.378100  0.342500  0.509100  1.0
  H  H1075  1  0.342500  0.378100  0.009100  1.0
  H  H1076  1  0.621900  0.657500  0.490900  1.0
  H  H1077  1  0.576800  0.637000  0.027900  1.0
  H  H1078  1  0.363000  0.423200  0.472100  1.0
  H  H1079  1  0.423200  0.363000  0.972100  1.0
  H  H1080  1  0.637000  0.576800  0.527900  1.0
  H  H1081  1  0.490000  0.705600  0.015600  1.0
  H  H1082  1  0.294400  0.510000  0.484400  1.0
  H  H1083  1  0.510000  0.294400  0.984400  1.0
  H  H1084  1  0.705600  0.490000  0.515600  1.0
  H  H1085  1  0.447700  0.815100  0.001100  1.0
  H  H1086  1  0.184900  0.552300  0.498900  1.0
  H  H1087  1  0.552300  0.184900  0.998900  1.0
  H  H1088  1  0.815100  0.447700  0.501100  1.0
  H  H1089  1  0.304500  0.860900  0.913500  1.0
  H  H1090  1  0.139100  0.695500  0.586500  1.0
  H  H1091  1  0.695500  0.139100  0.086500  1.0
  H  H1092  1  0.860900  0.304500  0.413500  1.0
  H  H1093  1  0.273800  0.943400  0.998000  1.0
  H  H1094  1  0.056600  0.726200  0.502000  1.0
  H  H1095  1  0.726200  0.056600  0.002000  1.0
  H  H1096  1  0.943400  0.273800  0.498000  1.0
  H  H1097  1  0.357500  0.882900  0.014500  1.0
  H  H1098  1  0.117100  0.642500  0.485500  1.0
  H  H1099  1  0.642500  0.117100  0.985500  1.0
  H  H1100  1  0.882900  0.357500  0.514500  1.0
  H  H1101  1  0.244900  0.960900  0.899200  1.0
  H  H1102  1  0.039100  0.755100  0.600800  1.0
  H  H1103  1  0.755100  0.039100  0.100800  1.0
  H  H1104  1  0.960900  0.244900  0.399200  1.0
  H  H1105  1  0.081700  0.974900  0.969000  1.0
  H  H1106  1  0.025100  0.918300  0.531000  1.0
  H  H1107  1  0.918300  0.025100  0.031000  1.0
  H  H1108  1  0.974900  0.081700  0.469000  1.0
  H  H1109  1  0.168200  0.925400  0.984200  1.0
  H  H1110  1  0.074600  0.831800  0.515800  1.0
  H  H1111  1  0.831800  0.074600  0.015800  1.0
  H  H1112  1  0.925400  0.168200  0.484200  1.0
  H  H1113  1  0.016200  0.029800  0.920100  1.0
  H  H1114  1  0.970200  0.983800  0.579900  1.0
  H  H1115  1  0.983800  0.970200  0.079900  1.0
  H  H1116  1  0.029800  0.016200  0.420100  1.0
  H  H1117  1  0.017800  0.049200  0.820300  1.0
  H  H1118  1  0.950800  0.982200  0.679700  1.0
  H  H1119  1  0.982200  0.950800  0.179700  1.0
  H  H1120  1  0.049200  0.017800  0.320300  1.0
  H  H1121  1  0.930500  0.102300  0.797800  1.0
  H  H1122  1  0.897700  0.069500  0.702200  1.0
  H  H1123  1  0.069500  0.897700  0.202200  1.0
  H  H1124  1  0.102300  0.930500  0.297800  1.0
  H  H1125  1  0.861400  0.166600  0.829400  1.0
  H  H1126  1  0.833400  0.138600  0.670600  1.0
  H  H1127  1  0.138600  0.833400  0.170600  1.0
  H  H1128  1  0.166600  0.861400  0.329400  1.0
  H  H1129  1  0.879500  0.177300  0.883600  1.0
  H  H1130  1  0.822700  0.120500  0.616400  1.0
  H  H1131  1  0.120500  0.822700  0.116400  1.0
  H  H1132  1  0.177300  0.879500  0.383600  1.0
  H  H1133  1  0.966900  0.124100  0.906100  1.0
  H  H1134  1  0.875900  0.033100  0.593900  1.0
  H  H1135  1  0.033100  0.875900  0.093900  1.0
  H  H1136  1  0.124100  0.966900  0.406100  1.0
  H  H1137  1  0.297800  0.489800  0.631900  1.0
  H  H1138  1  0.510200  0.702200  0.868100  1.0
  H  H1139  1  0.702200  0.510200  0.368100  1.0
  H  H1140  1  0.489800  0.297800  0.131900  1.0
  H  H1141  1  0.342100  0.300300  0.803700  1.0
  H  H1142  1  0.699700  0.657900  0.696300  1.0
  H  H1143  1  0.657900  0.699700  0.196300  1.0
  H  H1144  1  0.300300  0.342100  0.303700  1.0
  H  H1145  1  0.364000  0.242000  0.850900  1.0
  H  H1146  1  0.758000  0.636000  0.649100  1.0
  H  H1147  1  0.636000  0.758000  0.149100  1.0
  H  H1148  1  0.242000  0.364000  0.350900  1.0
  H  H1149  1  0.454900  0.175100  0.854700  1.0
  H  H1150  1  0.824900  0.545100  0.645300  1.0
  H  H1151  1  0.545100  0.824900  0.145300  1.0
  H  H1152  1  0.175100  0.454900  0.354700  1.0
  H  H1153  1  0.524000  0.166400  0.811200  1.0
  H  H1154  1  0.833600  0.476000  0.688800  1.0
  H  H1155  1  0.476000  0.833600  0.188800  1.0
  H  H1156  1  0.166400  0.524000  0.311200  1.0
  H  H1157  1  0.502200  0.224600  0.764100  1.0
  H  H1158  1  0.775400  0.497800  0.735900  1.0
  H  H1159  1  0.497800  0.775400  0.235900  1.0
  H  H1160  1  0.224600  0.502200  0.264100  1.0
  H  H1161  1  0.055000  0.660600  0.904700  1.0
  H  H1162  1  0.339400  0.945000  0.595300  1.0
  H  H1163  1  0.945000  0.339400  0.095300  1.0
  H  H1164  1  0.660600  0.055000  0.404700  1.0
  H  H1165  1  0.306400  0.423800  0.819500  1.0
  H  H1166  1  0.576200  0.693600  0.680500  1.0
  H  H1167  1  0.693600  0.576200  0.180500  1.0
  H  H1168  1  0.423800  0.306400  0.319500  1.0
  H  H1169  1  0.471500  0.458300  0.698400  1.0
  H  H1170  1  0.541700  0.528500  0.801600  1.0
  H  H1171  1  0.528500  0.541700  0.301600  1.0
  H  H1172  1  0.458300  0.471500  0.198400  1.0
  H  H1173  1  0.531900  0.439300  0.651800  1.0
  H  H1174  1  0.560700  0.468100  0.848200  1.0
  H  H1175  1  0.468100  0.560700  0.348200  1.0
  H  H1176  1  0.439300  0.531900  0.151800  1.0
  H  H1177  1  0.610400  0.357000  0.650700  1.0
  H  H1178  1  0.643000  0.389600  0.849300  1.0
  H  H1179  1  0.389600  0.643000  0.349300  1.0
  H  H1180  1  0.357000  0.610400  0.150700  1.0
  H  H1181  1  0.628800  0.293600  0.696300  1.0
  H  H1182  1  0.706400  0.371200  0.803700  1.0
  H  H1183  1  0.371200  0.706400  0.303700  1.0
  H  H1184  1  0.293600  0.628800  0.196300  1.0
  H  H1185  1  0.568500  0.312700  0.743000  1.0
  H  H1186  1  0.687300  0.431500  0.757000  1.0
  H  H1187  1  0.431500  0.687300  0.257000  1.0
  H  H1188  1  0.312700  0.568500  0.243000  1.0
  H  H1189  1  0.439300  0.242700  0.720900  1.0
  H  H1190  1  0.757300  0.560700  0.779100  1.0
  H  H1191  1  0.560700  0.757300  0.279100  1.0
  H  H1192  1  0.242700  0.439300  0.220900  1.0
  H  H1193  1  0.427700  0.516900  0.748100  1.0
  H  H1194  1  0.483100  0.572300  0.751900  1.0
  H  H1195  1  0.572300  0.483100  0.251900  1.0
  H  H1196  1  0.516900  0.427700  0.248100  1.0
  H  H1197  1  0.838000  0.944800  0.562100  1.0
  H  H1198  1  0.055200  0.162000  0.937900  1.0
  H  H1199  1  0.162000  0.055200  0.437900  1.0
  H  H1200  1  0.944800  0.838000  0.062100  1.0
  H  H1201  1  0.845400  0.931200  0.506500  1.0
  H  H1202  1  0.068800  0.154600  0.993500  1.0
  H  H1203  1  0.154600  0.068800  0.493500  1.0
  H  H1204  1  0.931200  0.845400  0.006500  1.0
  H  H1205  1  0.886000  0.837600  0.486600  1.0
  H  H1206  1  0.162400  0.114000  0.013400  1.0
  H  H1207  1  0.114000  0.162400  0.513400  1.0
  H  H1208  1  0.837600  0.886000  0.986600  1.0
  H  H1209  1  0.919500  0.757500  0.522300  1.0
  H  H1210  1  0.242500  0.080500  0.977700  1.0
  H  H1211  1  0.080500  0.242500  0.477700  1.0
  H  H1212  1  0.757500  0.919500  0.022300  1.0
  H  H1213  1  0.912200  0.771000  0.577900  1.0
  H  H1214  1  0.229000  0.087800  0.922100  1.0
  H  H1215  1  0.087800  0.229000  0.422100  1.0
  H  H1216  1  0.771000  0.912200  0.077900  1.0
  H  H1217  1  0.430700  0.856100  0.843800  1.0
  H  H1218  1  0.143900  0.569300  0.656200  1.0
  H  H1219  1  0.569300  0.143900  0.156200  1.0
  H  H1220  1  0.856100  0.430700  0.343800  1.0
  H  H1221  1  0.220800  0.363600  0.796000  1.0
  H  H1222  1  0.636400  0.779200  0.704000  1.0
  H  H1223  1  0.779200  0.636400  0.204000  1.0
  H  H1224  1  0.363600  0.220800  0.296000  1.0
  H  H1225  1  0.179400  0.279000  0.793400  1.0
  H  H1226  1  0.721000  0.820600  0.706600  1.0
  H  H1227  1  0.820600  0.721000  0.206600  1.0
  H  H1228  1  0.279000  0.179400  0.293400  1.0
  H  H1229  1  0.185100  0.229300  0.745100  1.0
  H  H1230  1  0.770700  0.814900  0.754900  1.0
  H  H1231  1  0.814900  0.770700  0.254900  1.0
  H  H1232  1  0.229300  0.185100  0.245100  1.0
  H  H1233  1  0.231900  0.264300  0.699300  1.0
  H  H1234  1  0.735700  0.768100  0.800700  1.0
  H  H1235  1  0.768100  0.735700  0.300700  1.0
  H  H1236  1  0.264300  0.231900  0.199300  1.0
  H  H1237  1  0.273400  0.348800  0.701900  1.0
  H  H1238  1  0.651200  0.726600  0.798100  1.0
  H  H1239  1  0.726600  0.651200  0.298100  1.0
  H  H1240  1  0.348800  0.273400  0.201900  1.0
  H  H1241  1  0.210200  0.162400  0.848300  1.0
  H  H1242  1  0.837600  0.789800  0.651700  1.0
  H  H1243  1  0.789800  0.837600  0.151700  1.0
  H  H1244  1  0.162400  0.210200  0.348300  1.0
  H  H1245  1  0.266300  0.227900  0.866600  1.0
  H  H1246  1  0.772100  0.733700  0.633400  1.0
  H  H1247  1  0.733700  0.772100  0.133400  1.0
  H  H1248  1  0.227900  0.266300  0.366600  1.0
  H  H1249  1  0.357100  0.190500  0.890600  1.0
  H  H1250  1  0.809500  0.642900  0.609400  1.0
  H  H1251  1  0.642900  0.809500  0.109400  1.0
  H  H1252  1  0.190500  0.357100  0.390600  1.0
  H  H1253  1  0.391700  0.087900  0.896400  1.0
  H  H1254  1  0.912100  0.608300  0.603600  1.0
  H  H1255  1  0.608300  0.912100  0.103600  1.0
  H  H1256  1  0.087900  0.391700  0.396400  1.0
  H  H1257  1  0.335500  0.022500  0.878100  1.0
  H  H1258  1  0.977500  0.664500  0.621900  1.0
  H  H1259  1  0.664500  0.977500  0.121900  1.0
  H  H1260  1  0.022500  0.335500  0.378100  1.0
  H  H1261  1  0.963700  0.717500  0.790000  1.0
  H  H1262  1  0.282500  0.036300  0.710000  1.0
  H  H1263  1  0.036300  0.282500  0.210000  1.0
  H  H1264  1  0.717500  0.963700  0.290000  1.0
  H  H1265  1  0.756700  0.711500  0.780900  1.0
  H  H1266  1  0.288500  0.243300  0.719100  1.0
  H  H1267  1  0.243300  0.288500  0.219100  1.0
  H  H1268  1  0.711500  0.756700  0.280900  1.0
  H  H1269  1  0.735400  0.664800  0.829700  1.0
  H  H1270  1  0.335200  0.264600  0.670300  1.0
  H  H1271  1  0.264600  0.335200  0.170300  1.0
  H  H1272  1  0.664800  0.735400  0.329700  1.0
  H  H1273  1  0.798600  0.660000  0.872600  1.0
  H  H1274  1  0.340000  0.201400  0.627400  1.0
  H  H1275  1  0.201400  0.340000  0.127400  1.0
  H  H1276  1  0.660000  0.798600  0.372600  1.0
  H  H1277  1  0.883000  0.701800  0.866800  1.0
  H  H1278  1  0.298200  0.117000  0.633200  1.0
  H  H1279  1  0.117000  0.298200  0.133200  1.0
  H  H1280  1  0.701800  0.883000  0.366800  1.0
  H  H1281  1  0.841200  0.753400  0.775000  1.0
  H  H1282  1  0.246600  0.158800  0.725000  1.0
  H  H1283  1  0.158800  0.246600  0.225000  1.0
  H  H1284  1  0.753400  0.841200  0.275000  1.0
  N  N1285  1  0.384500  0.381300  0.701700  1.0
  N  N1286  1  0.618700  0.615500  0.798300  1.0
  N  N1287  1  0.615500  0.618700  0.298300  1.0
  N  N1288  1  0.381300  0.384500  0.201700  1.0
  N  N1289  1  0.991400  0.838000  0.823800  1.0
  N  N1290  1  0.162000  0.008600  0.676200  1.0
  N  N1291  1  0.008600  0.162000  0.176200  1.0
  N  N1292  1  0.838000  0.991400  0.323800  1.0
  N  N1293  1  0.152700  0.980500  0.833000  1.0
  N  N1294  1  0.019500  0.847300  0.667000  1.0
  N  N1295  1  0.847300  0.019500  0.167000  1.0
  N  N1296  1  0.980500  0.152700  0.333000  1.0
  N  N1297  1  0.912100  0.767900  0.819300  1.0
  N  N1298  1  0.232100  0.087900  0.680700  1.0
  N  N1299  1  0.087900  0.232100  0.180700  1.0
  N  N1300  1  0.767900  0.912100  0.319300  1.0
  N  N1301  1  0.819500  0.868700  0.862400  1.0
  N  N1302  1  0.131300  0.180500  0.637600  1.0
  N  N1303  1  0.180500  0.131300  0.137600  1.0
  N  N1304  1  0.868700  0.819500  0.362400  1.0
  N  N1305  1  0.923200  0.801000  0.886000  1.0
  N  N1306  1  0.199000  0.076800  0.614000  1.0
  N  N1307  1  0.076800  0.199000  0.114000  1.0
  N  N1308  1  0.801000  0.923200  0.386000  1.0
  N  N1309  1  0.124700  0.642100  0.931600  1.0
  N  N1310  1  0.357900  0.875300  0.568400  1.0
  N  N1311  1  0.875300  0.357900  0.068400  1.0
  N  N1312  1  0.642100  0.124700  0.431600  1.0
  N  N1313  1  0.230500  0.588900  0.949600  1.0
  N  N1314  1  0.411100  0.769500  0.550400  1.0
  N  N1315  1  0.769500  0.411100  0.050400  1.0
  N  N1316  1  0.588900  0.230500  0.449600  1.0
  N  N1317  1  0.910500  0.934700  0.863200  1.0
  N  N1318  1  0.065300  0.089500  0.636800  1.0
  N  N1319  1  0.089500  0.065300  0.136800  1.0
  N  N1320  1  0.934700  0.910500  0.363200  1.0
  N  N1321  1  0.883400  0.913400  0.805400  1.0
  N  N1322  1  0.086600  0.116600  0.694600  1.0
  N  N1323  1  0.116600  0.086600  0.194600  1.0
  N  N1324  1  0.913400  0.883400  0.305400  1.0
  N  N1325  1  0.878300  0.887100  0.670100  1.0
  N  N1326  1  0.112900  0.121700  0.829900  1.0
  N  N1327  1  0.121700  0.112900  0.329900  1.0
  N  N1328  1  0.887100  0.878300  0.170100  1.0
  N  N1329  1  0.232900  0.047500  0.848900  1.0
  N  N1330  1  0.952500  0.767100  0.651100  1.0
  N  N1331  1  0.767100  0.952500  0.151100  1.0
  N  N1332  1  0.047500  0.232900  0.348900  1.0
  N  N1333  1  0.147200  0.513400  0.952900  1.0
  N  N1334  1  0.486600  0.852800  0.547100  1.0
  N  N1335  1  0.852800  0.486600  0.047100  1.0
  N  N1336  1  0.513400  0.147200  0.452900  1.0
  N  N1337  1  0.235400  0.486800  0.904300  1.0
  N  N1338  1  0.513200  0.764600  0.595700  1.0
  N  N1339  1  0.764600  0.513200  0.095700  1.0
  N  N1340  1  0.486800  0.235400  0.404300  1.0
  N  N1341  1  0.388900  0.407500  0.801000  1.0
  N  N1342  1  0.592500  0.611100  0.699000  1.0
  N  N1343  1  0.611100  0.592500  0.199000  1.0
  N  N1344  1  0.407500  0.388900  0.301000  1.0
  N  N1345  1  0.475000  0.395400  0.751900  1.0
  N  N1346  1  0.604600  0.525000  0.748100  1.0
  N  N1347  1  0.525000  0.604600  0.248100  1.0
  N  N1348  1  0.395400  0.475000  0.251900  1.0
  N  N1349  1  0.405100  0.302100  0.750100  1.0
  N  N1350  1  0.697900  0.594900  0.749900  1.0
  N  N1351  1  0.594900  0.697900  0.249900  1.0
  N  N1352  1  0.302100  0.405100  0.250100  1.0
  N  N1353  1  0.289800  0.404800  0.752400  1.0
  N  N1354  1  0.595200  0.710200  0.747600  1.0
  N  N1355  1  0.710200  0.595200  0.247600  1.0
  N  N1356  1  0.404800  0.289800  0.252400  1.0
  N  N1357  1  0.356600  0.489000  0.747000  1.0
  N  N1358  1  0.511000  0.643400  0.753000  1.0
  N  N1359  1  0.643400  0.511000  0.253000  1.0
  N  N1360  1  0.489000  0.356600  0.247000  1.0
  N  N1361  1  0.116800  0.549000  0.878900  1.0
  N  N1362  1  0.451000  0.883200  0.621100  1.0
  N  N1363  1  0.883200  0.451000  0.121100  1.0
  N  N1364  1  0.549000  0.116800  0.378900  1.0
  N  N1365  1  0.203000  0.613200  0.875900  1.0
  N  N1366  1  0.386800  0.797000  0.624100  1.0
  N  N1367  1  0.797000  0.386800  0.124100  1.0
  N  N1368  1  0.613200  0.203000  0.375900  1.0
  N  N1369  1  0.367700  0.760900  0.881300  1.0
  N  N1370  1  0.239100  0.632300  0.618700  1.0
  N  N1371  1  0.632300  0.239100  0.118700  1.0
  N  N1372  1  0.760900  0.367700  0.381300  1.0
  N  N1373  1  0.451200  0.824000  0.886600  1.0
  N  N1374  1  0.176000  0.548800  0.613400  1.0
  N  N1375  1  0.548800  0.176000  0.113400  1.0
  N  N1376  1  0.824000  0.451200  0.386600  1.0
  N  N1377  1  0.055600  0.052000  0.878600  1.0
  N  N1378  1  0.948000  0.944400  0.621400  1.0
  N  N1379  1  0.944400  0.948000  0.121400  1.0
  N  N1380  1  0.052000  0.055600  0.378600  1.0
  N  N1381  1  0.161000  0.993800  0.903900  1.0
  N  N1382  1  0.006200  0.839000  0.596100  1.0
  N  N1383  1  0.839000  0.006200  0.096100  1.0
  N  N1384  1  0.993800  0.161000  0.403900  1.0
  N  N1385  1  0.365500  0.835100  0.943100  1.0
  N  N1386  1  0.164900  0.634500  0.556900  1.0
  N  N1387  1  0.634500  0.164900  0.056900  1.0
  N  N1388  1  0.835100  0.365500  0.443100  1.0
  N  N1389  1  0.467400  0.771000  0.962900  1.0
  N  N1390  1  0.229000  0.532600  0.537100  1.0
  N  N1391  1  0.532600  0.229000  0.037100  1.0
  N  N1392  1  0.771000  0.467400  0.462900  1.0
  N  N1393  1  0.871000  0.866000  0.608600  1.0
  N  N1394  1  0.134000  0.129000  0.891400  1.0
  N  N1395  1  0.129000  0.134000  0.391400  1.0
  N  N1396  1  0.866000  0.871000  0.108600  1.0
  N  N1397  1  0.300000  0.620000  0.545800  1.0
  N  N1398  1  0.380000  0.700000  0.954200  1.0
  N  N1399  1  0.700000  0.380000  0.454200  1.0
  N  N1400  1  0.620000  0.300000  0.045800  1.0
  N  N1401  1  0.316100  0.528100  0.593400  1.0
  N  N1402  1  0.471900  0.683900  0.906600  1.0
  N  N1403  1  0.683900  0.471900  0.406600  1.0
  N  N1404  1  0.528100  0.316100  0.093400  1.0
  Ni  Ni1405  1  0.906540  0.852880  0.842860  1.0
  Ni  Ni1406  1  0.147120  0.093460  0.657140  1.0
  Ni  Ni1407  1  0.093460  0.147120  0.157140  1.0
  Ni  Ni1408  1  0.852880  0.906540  0.342860  1.0
  Ni  Ni1409  1  0.174300  0.565580  0.914130  1.0
  Ni  Ni1410  1  0.434420  0.825700  0.585870  1.0
  Ni  Ni1411  1  0.825700  0.434420  0.085870  1.0
  Ni  Ni1412  1  0.565580  0.174300  0.414130  1.0
  Ni  Ni1413  1  0.381290  0.399210  0.750920  1.0
  Ni  Ni1414  1  0.600790  0.618710  0.749080  1.0
  Ni  Ni1415  1  0.618710  0.600790  0.249080  1.0
  Ni  Ni1416  1  0.399210  0.381290  0.250920  1.0
  Ni  Ni1417  1  0.417150  0.762990  0.921020  1.0
  Ni  Ni1418  1  0.237010  0.582850  0.578980  1.0
  Ni  Ni1419  1  0.582850  0.237010  0.078980  1.0
  Ni  Ni1420  1  0.762990  0.417150  0.421020  1.0
  Ni  Ni1421  1  0.141890  0.053370  0.862840  1.0
  Ni  Ni1422  1  0.946630  0.858110  0.637160  1.0
  Ni  Ni1423  1  0.858110  0.946630  0.137160  1.0
  Ni  Ni1424  1  0.053370  0.141890  0.362840  1.0
  O  O1425  1  0.124500  0.781900  0.872500  1
  O  O1426  1  0.218100  0.875500  0.627500  1
  O  O1427  1  0.875500  0.218100  0.127500  1
  O  O1428  1  0.781900  0.124500  0.372500  1
  O  O1429  1  0.116400  0.860000  0.904600  1
  O  O1430  1  0.140000  0.883600  0.595400  1
  O  O1431  1  0.883600  0.140000  0.095400  1
  O  O1432  1  0.860000  0.116400  0.404600  1
  O  O1433  1  0.201000  0.829600  0.875400  1
  O  O1434  1  0.170400  0.799000  0.624600  1
  O  O1435  1  0.799000  0.170400  0.124600  1
  O  O1436  1  0.829600  0.201000  0.375400  1
  O  O1437  1  0.177200  0.773000  0.917500  1
  O  O1438  1  0.227000  0.822800  0.582500  1
  O  O1439  1  0.822800  0.227000  0.082500  1
  O  O1440  1  0.773000  0.177200  0.417500  1
  O  O1441  1  0.357200  0.879000  0.756100  1
  O  O1442  1  0.121000  0.642800  0.743900  1
  O  O1443  1  0.642800  0.121000  0.243900  1
  O  O1444  1  0.879000  0.357200  0.256100  1
  O  O1445  1  0.404300  0.939900  0.725900  1
  O  O1446  1  0.060100  0.595700  0.774100  1
  O  O1447  1  0.595700  0.060100  0.274100  1
  O  O1448  1  0.939900  0.404300  0.225900  1
  O  O1449  1  0.451800  0.882600  0.765800  1
  O  O1450  1  0.117400  0.548200  0.734200  1
  O  O1451  1  0.548200  0.117400  0.234200  1
  O  O1452  1  0.882600  0.451800  0.265800  1
  O  O1453  1  0.378500  0.960100  0.777700  1
  O  O1454  1  0.039900  0.621500  0.722300  1
  O  O1455  1  0.621500  0.039900  0.222300  1
  O  O1456  1  0.960100  0.378500  0.277700  1
  O  O1457  1  0.353500  0.569900  0.836800  1
  O  O1458  1  0.430100  0.646500  0.663200  1
  O  O1459  1  0.646500  0.430100  0.163200  1
  O  O1460  1  0.569900  0.353500  0.336800  1
  O  O1461  1  0.436200  0.531200  0.818700  1
  O  O1462  1  0.468800  0.563800  0.681300  1
  O  O1463  1  0.563800  0.468800  0.181300  1
  O  O1464  1  0.531200  0.436200  0.318700  1
  O  O1465  1  0.430100  0.559900  0.870200  1
  O  O1466  1  0.440100  0.569900  0.629800  1
  O  O1467  1  0.569900  0.440100  0.129800  1
  O  O1468  1  0.559900  0.430100  0.370200  1
  O  O1469  1  0.421300  0.628500  0.829500  1
  O  O1470  1  0.371500  0.578700  0.670500  1
  O  O1471  1  0.578700  0.371500  0.170500  1
  O  O1472  1  0.628500  0.421300  0.329500  1
  O  O1473  1  0.090500  0.850500  0.993000  1
  O  O1474  1  0.149500  0.909500  0.507000  1
  O  O1475  1  0.909500  0.149500  0.007000  1
  O  O1476  1  0.850500  0.090500  0.493000  1
  O  O1477  1  0.031100  0.911100  0.029500  1
  O  O1478  1  0.088900  0.968900  0.470500  1
  O  O1479  1  0.968900  0.088900  0.970500  1
  O  O1480  1  0.911100  0.031100  0.529500  1
  O  O1481  1  0.133300  0.870100  0.038700  1
  O  O1482  1  0.129900  0.866700  0.461300  1
  O  O1483  1  0.866700  0.129900  0.961300  1
  O  O1484  1  0.870100  0.133300  0.538700  1
  O  O1485  1  0.057000  0.815600  0.038500  1
  O  O1486  1  0.184400  0.943000  0.461500  1
  O  O1487  1  0.943000  0.184400  0.961500  1
  O  O1488  1  0.815600  0.057000  0.538500  1
  O  O1489  1  0.566700  0.430700  0.955200  1
  O  O1490  1  0.569300  0.433300  0.544800  1
  O  O1491  1  0.433300  0.569300  0.044800  1
  O  O1492  1  0.430700  0.566700  0.455200  1
  O  O1493  1  0.530200  0.438400  0.905000  1
  O  O1494  1  0.561600  0.469800  0.595000  1
  O  O1495  1  0.469800  0.561600  0.095000  1
  O  O1496  1  0.438400  0.530200  0.405000  1
  O  O1497  1  0.610900  0.367300  0.916800  1
  O  O1498  1  0.632700  0.389100  0.583200  1
  O  O1499  1  0.389100  0.632700  0.083200  1
  O  O1500  1  0.367300  0.610900  0.416800  1
  O  O1501  1  0.520500  0.360100  0.938100  1
  O  O1502  1  0.639900  0.479500  0.561900  1
  O  O1503  1  0.479500  0.639900  0.061900  1
  O  O1504  1  0.360100  0.520500  0.438100  1
  O  O1505  1  0.969200  0.030800  0.750000  1
  O  O1506  1  0.030800  0.969200  0.250000  1
  O  O1507  1  0.076500  0.990700  0.759400  1.0
  O  O1508  1  0.009300  0.923500  0.740600  1.0
  O  O1509  1  0.923500  0.009300  0.240600  1.0
  O  O1510  1  0.990700  0.076500  0.259400  1.0
  O  O1511  1  0.000300  0.973900  0.780800  1.0
  O  O1512  1  0.026100  0.999700  0.719200  1.0
  O  O1513  1  0.999700  0.026100  0.219200  1.0
  O  O1514  1  0.973900  0.000300  0.280800  1.0
