# generated using pymatgen
data_Ni3H112C112S7N16(OF)24
_symmetry_space_group_name_H-M   'P 1'
_cell_length_a   21.91200000
_cell_length_b   21.91200000
_cell_length_c   54.05600000
_cell_angle_alpha   90.00000000
_cell_angle_beta   90.00000000
_cell_angle_gamma   120.00000000
_symmetry_Int_Tables_number   1
_chemical_formula_structural   Ni3H112C112S7N16(OF)24
_chemical_formula_sum   'Ni18 H672 C672 S42 N96 O144 F144'
_cell_volume   22477.01193081
_cell_formula_units_Z   6
loop_
 _symmetry_equiv_pos_site_id
 _symmetry_equiv_pos_as_xyz
  1  'x, y, z'
loop_
 _atom_site_type_symbol
 _atom_site_label
 _atom_site_symmetry_multiplicity
 _atom_site_fract_x
 _atom_site_fract_y
 _atom_site_fract_z
 _atom_site_occupancy
  Ni  Ni1  1  0.500000  0.500000  0.296960  1.0
  Ni  Ni2  1  1.000000  0.500000  0.963627  1.0
  Ni  Ni3  1  0.500000  0.000000  0.630293  1.0
  Ni  Ni4  1  0.500000  0.500000  0.703040  1.0
  Ni  Ni5  1  0.500000  0.000000  0.036373  1.0
  Ni  Ni6  1  1.000000  0.500000  0.369707  1.0
  Ni  Ni7  1  0.700690  0.745360  0.409490  1.0
  Ni  Ni8  1  0.299310  0.254640  0.409490  1.0
  Ni  Ni9  1  0.044670  0.299310  0.076157  1.0
  Ni  Ni10  1  0.254640  0.955330  0.742823  1.0
  Ni  Ni11  1  0.745360  0.044670  0.742823  1.0
  Ni  Ni12  1  0.955330  0.700690  0.076157  1.0
  Ni  Ni13  1  0.745360  0.700690  0.590510  1.0
  Ni  Ni14  1  0.299310  0.044670  0.923843  1.0
  Ni  Ni15  1  0.955330  0.254640  0.257177  1.0
  Ni  Ni16  1  0.044670  0.745360  0.257177  1.0
  Ni  Ni17  1  0.700690  0.955330  0.923843  1.0
  Ni  Ni18  1  0.254640  0.299310  0.590510  1.0
  H  H19  1  0.093100  0.939100  0.434200  1
  H  H20  1  0.906900  0.060900  0.434200  1
  H  H21  1  0.846000  0.906900  0.100867  1
  H  H22  1  0.060900  0.154000  0.767533  1
  H  H23  1  0.939100  0.846000  0.767533  1
  H  H24  1  0.154000  0.093100  0.100867  1
  H  H25  1  0.939100  0.093100  0.565800  1
  H  H26  1  0.906900  0.846000  0.899133  1
  H  H27  1  0.154000  0.060900  0.232467  1
  H  H28  1  0.846000  0.939100  0.232467  1
  H  H29  1  0.093100  0.154000  0.899133  1
  H  H30  1  0.060900  0.906900  0.565800  1
  H  H31  1  0.106100  0.916500  0.402400  1
  H  H32  1  0.893900  0.083500  0.402400  1
  H  H33  1  0.810400  0.893900  0.069067  1
  H  H34  1  0.083500  0.189600  0.735733  1
  H  H35  1  0.916500  0.810400  0.735733  1
  H  H36  1  0.189600  0.106100  0.069067  1
  H  H37  1  0.916500  0.106100  0.597600  1
  H  H38  1  0.893900  0.810400  0.930933  1
  H  H39  1  0.189600  0.083500  0.264267  1
  H  H40  1  0.810400  0.916500  0.264267  1
  H  H41  1  0.106100  0.189600  0.930933  1
  H  H42  1  0.083500  0.893900  0.597600  1
  H  H43  1  0.108400  0.891200  0.415700  1
  H  H44  1  0.891600  0.108800  0.415700  1
  H  H45  1  0.782800  0.891600  0.082367  1
  H  H46  1  0.108800  0.217200  0.749033  1
  H  H47  1  0.891200  0.782800  0.749033  1
  H  H48  1  0.217200  0.108400  0.082367  1
  H  H49  1  0.891200  0.108400  0.584300  1
  H  H50  1  0.891600  0.782800  0.917633  1
  H  H51  1  0.217200  0.108800  0.250967  1
  H  H52  1  0.782800  0.891200  0.250967  1
  H  H53  1  0.108400  0.217200  0.917633  1
  H  H54  1  0.108800  0.891600  0.584300  1
  H  H55  1  0.759800  0.002500  0.507400  1
  H  H56  1  0.240200  0.997500  0.507400  1
  H  H57  1  0.242700  0.240200  0.174067  1
  H  H58  1  0.997500  0.757300  0.840733  1
  H  H59  1  0.002500  0.242700  0.840733  1
  H  H60  1  0.757300  0.759800  0.174067  1
  H  H61  1  0.002500  0.759800  0.492600  1
  H  H62  1  0.240200  0.242700  0.825933  1
  H  H63  1  0.757300  0.997500  0.159267  1
  H  H64  1  0.242700  0.002500  0.159267  1
  H  H65  1  0.759800  0.757300  0.825933  1
  H  H66  1  0.997500  0.240200  0.492600  1
  H  H67  1  0.834900  0.064100  0.498100  1
  H  H68  1  0.165100  0.935900  0.498100  1
  H  H69  1  0.229200  0.165100  0.164767  1
  H  H70  1  0.935900  0.770800  0.831433  1
  H  H71  1  0.064100  0.229200  0.831433  1
  H  H72  1  0.770800  0.834900  0.164767  1
  H  H73  1  0.064100  0.834900  0.501900  1
  H  H74  1  0.165100  0.229200  0.835233  1
  H  H75  1  0.770800  0.935900  0.168567  1
  H  H76  1  0.229200  0.064100  0.168567  1
  H  H77  1  0.834900  0.770800  0.835233  1
  H  H78  1  0.935900  0.165100  0.501900  1
  H  H79  1  0.828800  0.996400  0.511700  1
  H  H80  1  0.171200  0.003600  0.511700  1
  H  H81  1  0.167600  0.171200  0.178367  1
  H  H82  1  0.003600  0.832400  0.845033  1
  H  H83  1  0.996400  0.167600  0.845033  1
  H  H84  1  0.832400  0.828800  0.178367  1
  H  H85  1  0.996400  0.828800  0.488300  1
  H  H86  1  0.171200  0.167600  0.821633  1
  H  H87  1  0.832400  0.003600  0.154967  1
  H  H88  1  0.167600  0.996400  0.154967  1
  H  H89  1  0.828800  0.832400  0.821633  1
  H  H90  1  0.003600  0.171200  0.488300  1
  H  H91  1  0.405900  0.205500  0.204400  1
  H  H92  1  0.594100  0.794500  0.204400  1
  H  H93  1  0.799600  0.594100  0.871067  1
  H  H94  1  0.794500  0.200400  0.537733  1
  H  H95  1  0.205500  0.799600  0.537733  1
  H  H96  1  0.200400  0.405900  0.871067  1
  H  H97  1  0.205500  0.405900  0.795600  1
  H  H98  1  0.594100  0.799600  0.128933  1
  H  H99  1  0.200400  0.794500  0.462267  1
  H  H100  1  0.799600  0.205500  0.462267  1
  H  H101  1  0.405900  0.200400  0.128933  1
  H  H102  1  0.794500  0.594100  0.795600  1
  H  H103  1  0.366400  0.170300  0.229700  1
  H  H104  1  0.633600  0.829700  0.229700  1
  H  H105  1  0.803900  0.633600  0.896367  1
  H  H106  1  0.829700  0.196100  0.563033  1
  H  H107  1  0.170300  0.803900  0.563033  1
  H  H108  1  0.196100  0.366400  0.896367  1
  H  H109  1  0.170300  0.366400  0.770300  1
  H  H110  1  0.633600  0.803900  0.103633  1
  H  H111  1  0.196100  0.829700  0.436967  1
  H  H112  1  0.803900  0.170300  0.436967  1
  H  H113  1  0.366400  0.196100  0.103633  1
  H  H114  1  0.829700  0.633600  0.770300  1
  H  H115  1  0.336500  0.207800  0.212000  1
  H  H116  1  0.663500  0.792200  0.212000  1
  H  H117  1  0.871300  0.663500  0.878667  1
  H  H118  1  0.792200  0.128700  0.545333  1
  H  H119  1  0.207800  0.871300  0.545333  1
  H  H120  1  0.128700  0.336500  0.878667  1
  H  H121  1  0.207800  0.336500  0.788000  1
  H  H122  1  0.663500  0.871300  0.121333  1
  H  H123  1  0.128700  0.792200  0.454667  1
  H  H124  1  0.871300  0.207800  0.454667  1
  H  H125  1  0.336500  0.128700  0.121333  1
  H  H126  1  0.792200  0.663500  0.788000  1
  H  H127  1  0.529400  0.829700  0.310200  1
  H  H128  1  0.470600  0.170300  0.310200  1
  H  H129  1  0.300300  0.470600  0.976867  1
  H  H130  1  0.170300  0.699700  0.643533  1
  H  H131  1  0.829700  0.300300  0.643533  1
  H  H132  1  0.699700  0.529400  0.976867  1
  H  H133  1  0.829700  0.529400  0.689800  1
  H  H134  1  0.470600  0.300300  0.023133  1
  H  H135  1  0.699700  0.170300  0.356467  1
  H  H136  1  0.300300  0.829700  0.356467  1
  H  H137  1  0.529400  0.699700  0.023133  1
  H  H138  1  0.170300  0.470600  0.689800  1
  H  H139  1  0.454100  0.821000  0.328400  1
  H  H140  1  0.545900  0.179000  0.328400  1
  H  H141  1  0.366900  0.545900  0.995067  1
  H  H142  1  0.179000  0.633100  0.661733  1
  H  H143  1  0.821000  0.366900  0.661733  1
  H  H144  1  0.633100  0.454100  0.995067  1
  H  H145  1  0.821000  0.454100  0.671600  1
  H  H146  1  0.545900  0.366900  0.004933  1
  H  H147  1  0.633100  0.179000  0.338267  1
  H  H148  1  0.366900  0.821000  0.338267  1
  H  H149  1  0.454100  0.633100  0.004933  1
  H  H150  1  0.179000  0.545900  0.671600  1
  H  H151  1  0.451100  0.782100  0.320600  1
  H  H152  1  0.548900  0.217900  0.320600  1
  H  H153  1  0.331000  0.548900  0.987267  1
  H  H154  1  0.217900  0.669000  0.653933  1
  H  H155  1  0.782100  0.331000  0.653933  1
  H  H156  1  0.669000  0.451100  0.987267  1
  H  H157  1  0.782100  0.451100  0.679400  1
  H  H158  1  0.548900  0.331000  0.012733  1
  H  H159  1  0.669000  0.217900  0.346067  1
  H  H160  1  0.331000  0.782100  0.346067  1
  H  H161  1  0.451100  0.669000  0.012733  1
  H  H162  1  0.217900  0.548900  0.679400  1
  H  H163  1  0.873100  0.732600  0.444500  1.0
  H  H164  1  0.126900  0.267400  0.444500  1.0
  H  H165  1  0.859500  0.126900  0.111167  1.0
  H  H166  1  0.267400  0.140500  0.777833  1.0
  H  H167  1  0.732600  0.859500  0.777833  1.0
  H  H168  1  0.140500  0.873100  0.111167  1.0
  H  H169  1  0.732600  0.873100  0.555500  1.0
  H  H170  1  0.126900  0.859500  0.888833  1.0
  H  H171  1  0.140500  0.267400  0.222167  1.0
  H  H172  1  0.859500  0.732600  0.222167  1.0
  H  H173  1  0.873100  0.140500  0.888833  1.0
  H  H174  1  0.267400  0.126900  0.555500  1.0
  H  H175  1  0.000500  0.803800  0.443500  1.0
  H  H176  1  0.999500  0.196200  0.443500  1.0
  H  H177  1  0.803300  0.999500  0.110167  1.0
  H  H178  1  0.196200  0.196700  0.776833  1.0
  H  H179  1  0.803800  0.803300  0.776833  1.0
  H  H180  1  0.196700  0.000500  0.110167  1.0
  H  H181  1  0.803800  0.000500  0.556500  1.0
  H  H182  1  0.999500  0.803300  0.889833  1.0
  H  H183  1  0.196700  0.196200  0.223167  1.0
  H  H184  1  0.803300  0.803800  0.223167  1.0
  H  H185  1  0.000500  0.196700  0.889833  1.0
  H  H186  1  0.196200  0.999500  0.556500  1.0
  H  H187  1  0.987500  0.897300  0.384700  1.0
  H  H188  1  0.012500  0.102700  0.384700  1.0
  H  H189  1  0.909800  0.012500  0.051367  1.0
  H  H190  1  0.102700  0.090200  0.718033  1.0
  H  H191  1  0.897300  0.909800  0.718033  1.0
  H  H192  1  0.090200  0.987500  0.051367  1.0
  H  H193  1  0.897300  0.987500  0.615300  1.0
  H  H194  1  0.012500  0.909800  0.948633  1.0
  H  H195  1  0.090200  0.102700  0.281967  1.0
  H  H196  1  0.909800  0.897300  0.281967  1.0
  H  H197  1  0.987500  0.090200  0.948633  1.0
  H  H198  1  0.102700  0.012500  0.615300  1.0
  H  H199  1  0.863500  0.827800  0.384300  1.0
  H  H200  1  0.136500  0.172200  0.384300  1.0
  H  H201  1  0.964300  0.136500  0.050967  1.0
  H  H202  1  0.172200  0.035700  0.717633  1.0
  H  H203  1  0.827800  0.964300  0.717633  1.0
  H  H204  1  0.035700  0.863500  0.050967  1.0
  H  H205  1  0.827800  0.863500  0.615700  1.0
  H  H206  1  0.136500  0.964300  0.949033  1.0
  H  H207  1  0.035700  0.172200  0.282367  1.0
  H  H208  1  0.964300  0.827800  0.282367  1.0
  H  H209  1  0.863500  0.035700  0.949033  1.0
  H  H210  1  0.172200  0.136500  0.615700  1.0
  H  H211  1  0.097300  0.953100  0.405000  1.0
  H  H212  1  0.902700  0.046900  0.405000  1.0
  H  H213  1  0.855800  0.902700  0.071667  1.0
  H  H214  1  0.046900  0.144200  0.738333  1.0
  H  H215  1  0.953100  0.855800  0.738333  1.0
  H  H216  1  0.144200  0.097300  0.071667  1.0
  H  H217  1  0.953100  0.097300  0.595000  1.0
  H  H218  1  0.902700  0.855800  0.928333  1.0
  H  H219  1  0.144200  0.046900  0.261667  1.0
  H  H220  1  0.855800  0.953100  0.261667  1.0
  H  H221  1  0.097300  0.144200  0.928333  1.0
  H  H222  1  0.046900  0.902700  0.595000  1.0
  H  H223  1  0.101900  0.902500  0.431600  1.0
  H  H224  1  0.898100  0.097500  0.431600  1.0
  H  H225  1  0.800600  0.898100  0.098267  1.0
  H  H226  1  0.097500  0.199400  0.764933  1.0
  H  H227  1  0.902500  0.800600  0.764933  1.0
  H  H228  1  0.199400  0.101900  0.098267  1.0
  H  H229  1  0.902500  0.101900  0.568400  1.0
  H  H230  1  0.898100  0.800600  0.901733  1.0
  H  H231  1  0.199400  0.097500  0.235067  1.0
  H  H232  1  0.800600  0.902500  0.235067  1.0
  H  H233  1  0.101900  0.199400  0.901733  1.0
  H  H234  1  0.097500  0.898100  0.568400  1.0
  H  H235  1  0.090800  0.964400  0.420900  1.0
  H  H236  1  0.909200  0.035600  0.420900  1.0
  H  H237  1  0.873600  0.909200  0.087567  1.0
  H  H238  1  0.035600  0.126400  0.754233  1.0
  H  H239  1  0.964400  0.873600  0.754233  1.0
  H  H240  1  0.126400  0.090800  0.087567  1.0
  H  H241  1  0.964400  0.090800  0.579100  1.0
  H  H242  1  0.909200  0.873600  0.912433  1.0
  H  H243  1  0.126400  0.035600  0.245767  1.0
  H  H244  1  0.873600  0.964400  0.245767  1.0
  H  H245  1  0.090800  0.126400  0.912433  1.0
  H  H246  1  0.035600  0.909200  0.579100  1.0
  H  H247  1  0.790800  0.637800  0.413700  1.0
  H  H248  1  0.209200  0.362200  0.413700  1.0
  H  H249  1  0.847000  0.209200  0.080367  1.0
  H  H250  1  0.362200  0.153000  0.747033  1.0
  H  H251  1  0.637800  0.847000  0.747033  1.0
  H  H252  1  0.153000  0.790800  0.080367  1.0
  H  H253  1  0.637800  0.790800  0.586300  1.0
  H  H254  1  0.209200  0.847000  0.919633  1.0
  H  H255  1  0.153000  0.362200  0.252967  1.0
  H  H256  1  0.847000  0.637800  0.252967  1.0
  H  H257  1  0.790800  0.153000  0.919633  1.0
  H  H258  1  0.362200  0.209200  0.586300  1.0
  H  H259  1  0.547600  0.616700  0.404200  1.0
  H  H260  1  0.452400  0.383300  0.404200  1.0
  H  H261  1  0.069100  0.452400  0.070867  1.0
  H  H262  1  0.383300  0.930900  0.737533  1.0
  H  H263  1  0.616700  0.069100  0.737533  1.0
  H  H264  1  0.930900  0.547600  0.070867  1.0
  H  H265  1  0.616700  0.547600  0.595800  1.0
  H  H266  1  0.452400  0.069100  0.929133  1.0
  H  H267  1  0.930900  0.383300  0.262467  1.0
  H  H268  1  0.069100  0.616700  0.262467  1.0
  H  H269  1  0.547600  0.930900  0.929133  1.0
  H  H270  1  0.383300  0.452400  0.595800  1.0
  H  H271  1  0.561500  0.445400  0.421100  1.0
  H  H272  1  0.438500  0.554600  0.421100  1.0
  H  H273  1  0.883900  0.438500  0.087767  1.0
  H  H274  1  0.554600  0.116100  0.754433  1.0
  H  H275  1  0.445400  0.883900  0.754433  1.0
  H  H276  1  0.116100  0.561500  0.087767  1.0
  H  H277  1  0.445400  0.561500  0.578900  1.0
  H  H278  1  0.438500  0.883900  0.912233  1.0
  H  H279  1  0.116100  0.554600  0.245567  1.0
  H  H280  1  0.883900  0.445400  0.245567  1.0
  H  H281  1  0.561500  0.116100  0.912233  1.0
  H  H282  1  0.554600  0.438500  0.578900  1.0
  H  H283  1  0.684000  0.515400  0.419300  1.0
  H  H284  1  0.316000  0.484600  0.419300  1.0
  H  H285  1  0.831400  0.316000  0.085967  1.0
  H  H286  1  0.484600  0.168600  0.752633  1.0
  H  H287  1  0.515400  0.831400  0.752633  1.0
  H  H288  1  0.168600  0.684000  0.085967  1.0
  H  H289  1  0.515400  0.684000  0.580700  1.0
  H  H290  1  0.316000  0.831400  0.914033  1.0
  H  H291  1  0.168600  0.484600  0.247367  1.0
  H  H292  1  0.831400  0.515400  0.247367  1.0
  H  H293  1  0.684000  0.168600  0.914033  1.0
  H  H294  1  0.484600  0.316000  0.580700  1.0
  H  H295  1  0.571600  0.694600  0.368000  1.0
  H  H296  1  0.428400  0.305400  0.368000  1.0
  H  H297  1  0.123000  0.428400  0.034667  1.0
  H  H298  1  0.305400  0.877000  0.701333  1.0
  H  H299  1  0.694600  0.123000  0.701333  1.0
  H  H300  1  0.877000  0.571600  0.034667  1.0
  H  H301  1  0.694600  0.571600  0.632000  1.0
  H  H302  1  0.428400  0.123000  0.965333  1.0
  H  H303  1  0.877000  0.305400  0.298667  1.0
  H  H304  1  0.123000  0.694600  0.298667  1.0
  H  H305  1  0.571600  0.877000  0.965333  1.0
  H  H306  1  0.305400  0.428400  0.632000  1.0
  H  H307  1  0.520900  0.717100  0.334100  1.0
  H  H308  1  0.479100  0.282900  0.334100  1.0
  H  H309  1  0.196200  0.479100  0.000767  1.0
  H  H310  1  0.282900  0.803800  0.667433  1.0
  H  H311  1  0.717100  0.196200  0.667433  1.0
  H  H312  1  0.803800  0.520900  0.000767  1.0
  H  H313  1  0.717100  0.520900  0.665900  1.0
  H  H314  1  0.479100  0.196200  0.999233  1.0
  H  H315  1  0.803800  0.282900  0.332567  1.0
  H  H316  1  0.196200  0.717100  0.332567  1.0
  H  H317  1  0.520900  0.803800  0.999233  1.0
  H  H318  1  0.282900  0.479100  0.665900  1.0
  H  H319  1  0.543000  0.889800  0.366200  1.0
  H  H320  1  0.457000  0.110200  0.366200  1.0
  H  H321  1  0.346800  0.457000  0.032867  1.0
  H  H322  1  0.110200  0.653200  0.699533  1.0
  H  H323  1  0.889800  0.346800  0.699533  1.0
  H  H324  1  0.653200  0.543000  0.032867  1.0
  H  H325  1  0.889800  0.543000  0.633800  1.0
  H  H326  1  0.457000  0.346800  0.967133  1.0
  H  H327  1  0.653200  0.110200  0.300467  1.0
  H  H328  1  0.346800  0.889800  0.300467  1.0
  H  H329  1  0.543000  0.653200  0.967133  1.0
  H  H330  1  0.110200  0.457000  0.633800  1.0
  H  H331  1  0.593900  0.870000  0.403000  1.0
  H  H332  1  0.406100  0.130000  0.403000  1.0
  H  H333  1  0.276100  0.406100  0.069667  1.0
  H  H334  1  0.130000  0.723900  0.736333  1.0
  H  H335  1  0.870000  0.276100  0.736333  1.0
  H  H336  1  0.723900  0.593900  0.069667  1.0
  H  H337  1  0.870000  0.593900  0.597000  1.0
  H  H338  1  0.406100  0.276100  0.930333  1.0
  H  H339  1  0.723900  0.130000  0.263667  1.0
  H  H340  1  0.276100  0.870000  0.263667  1.0
  H  H341  1  0.593900  0.723900  0.930333  1.0
  H  H342  1  0.130000  0.406100  0.597000  1.0
  H  H343  1  0.494700  0.864300  0.327100  1.0
  H  H344  1  0.505300  0.135700  0.327100  1.0
  H  H345  1  0.369600  0.505300  0.993767  1.0
  H  H346  1  0.135700  0.630400  0.660433  1.0
  H  H347  1  0.864300  0.369600  0.660433  1.0
  H  H348  1  0.630400  0.494700  0.993767  1.0
  H  H349  1  0.864300  0.494700  0.672900  1.0
  H  H350  1  0.505300  0.369600  0.006233  1.0
  H  H351  1  0.630400  0.135700  0.339567  1.0
  H  H352  1  0.369600  0.864300  0.339567  1.0
  H  H353  1  0.494700  0.630400  0.006233  1.0
  H  H354  1  0.135700  0.505300  0.672900  1.0
  H  H355  1  0.488700  0.786400  0.311500  1.0
  H  H356  1  0.511300  0.213600  0.311500  1.0
  H  H357  1  0.297700  0.511300  0.978167  1.0
  H  H358  1  0.213600  0.702300  0.644833  1.0
  H  H359  1  0.786400  0.297700  0.644833  1.0
  H  H360  1  0.702300  0.488700  0.978167  1.0
  H  H361  1  0.786400  0.488700  0.688500  1.0
  H  H362  1  0.511300  0.297700  0.021833  1.0
  H  H363  1  0.702300  0.213600  0.355167  1.0
  H  H364  1  0.297700  0.786400  0.355167  1.0
  H  H365  1  0.488700  0.702300  0.021833  1.0
  H  H366  1  0.213600  0.511300  0.688500  1.0
  H  H367  1  0.532400  0.868600  0.318000  1.0
  H  H368  1  0.467600  0.131400  0.318000  1.0
  H  H369  1  0.336200  0.467600  0.984667  1.0
  H  H370  1  0.131400  0.663800  0.651333  1.0
  H  H371  1  0.868600  0.336200  0.651333  1.0
  H  H372  1  0.663800  0.532400  0.984667  1.0
  H  H373  1  0.868600  0.532400  0.682000  1.0
  H  H374  1  0.467600  0.336200  0.015333  1.0
  H  H375  1  0.663800  0.131400  0.348667  1.0
  H  H376  1  0.336200  0.868600  0.348667  1.0
  H  H377  1  0.532400  0.663800  0.015333  1.0
  H  H378  1  0.131400  0.467600  0.682000  1.0
  H  H379  1  0.558400  0.776100  0.434000  1.0
  H  H380  1  0.441600  0.223900  0.434000  1.0
  H  H381  1  0.217700  0.441600  0.100667  1.0
  H  H382  1  0.223900  0.782300  0.767333  1.0
  H  H383  1  0.776100  0.217700  0.767333  1.0
  H  H384  1  0.782300  0.558400  0.100667  1.0
  H  H385  1  0.776100  0.558400  0.566000  1.0
  H  H386  1  0.441600  0.217700  0.899333  1.0
  H  H387  1  0.782300  0.223900  0.232667  1.0
  H  H388  1  0.217700  0.776100  0.232667  1.0
  H  H389  1  0.558400  0.782300  0.899333  1.0
  H  H390  1  0.223900  0.441600  0.566000  1.0
  H  H391  1  0.740700  0.705800  0.463200  1.0
  H  H392  1  0.259300  0.294200  0.463200  1.0
  H  H393  1  0.965100  0.259300  0.129867  1.0
  H  H394  1  0.294200  0.034900  0.796533  1.0
  H  H395  1  0.705800  0.965100  0.796533  1.0
  H  H396  1  0.034900  0.740700  0.129867  1.0
  H  H397  1  0.705800  0.740700  0.536800  1.0
  H  H398  1  0.259300  0.965100  0.870133  1.0
  H  H399  1  0.034900  0.294200  0.203467  1.0
  H  H400  1  0.965100  0.705800  0.203467  1.0
  H  H401  1  0.740700  0.034900  0.870133  1.0
  H  H402  1  0.294200  0.259300  0.536800  1.0
  H  H403  1  0.603100  0.712500  0.511300  1.0
  H  H404  1  0.396900  0.287500  0.511300  1.0
  H  H405  1  0.109400  0.396900  0.177967  1.0
  H  H406  1  0.287500  0.890600  0.844633  1.0
  H  H407  1  0.712500  0.109400  0.844633  1.0
  H  H408  1  0.890600  0.603100  0.177967  1.0
  H  H409  1  0.712500  0.603100  0.488700  1.0
  H  H410  1  0.396900  0.109400  0.822033  1.0
  H  H411  1  0.890600  0.287500  0.155367  1.0
  H  H412  1  0.109400  0.712500  0.155367  1.0
  H  H413  1  0.603100  0.890600  0.822033  1.0
  H  H414  1  0.287500  0.396900  0.488700  1.0
  H  H415  1  0.563000  0.753700  0.480100  1.0
  H  H416  1  0.437000  0.246300  0.480100  1.0
  H  H417  1  0.190700  0.437000  0.146767  1.0
  H  H418  1  0.246300  0.809300  0.813433  1.0
  H  H419  1  0.753700  0.190700  0.813433  1.0
  H  H420  1  0.809300  0.563000  0.146767  1.0
  H  H421  1  0.753700  0.563000  0.519900  1.0
  H  H422  1  0.437000  0.190700  0.853233  1.0
  H  H423  1  0.809300  0.246300  0.186567  1.0
  H  H424  1  0.190700  0.753700  0.186567  1.0
  H  H425  1  0.563000  0.809300  0.853233  1.0
  H  H426  1  0.246300  0.437000  0.519900  1.0
  H  H427  1  0.824800  0.856300  0.452300  1.0
  H  H428  1  0.175200  0.143700  0.452300  1.0
  H  H429  1  0.031500  0.175200  0.118967  1.0
  H  H430  1  0.143700  0.968500  0.785633  1.0
  H  H431  1  0.856300  0.031500  0.785633  1.0
  H  H432  1  0.968500  0.824800  0.118967  1.0
  H  H433  1  0.856300  0.824800  0.547700  1.0
  H  H434  1  0.175200  0.031500  0.881033  1.0
  H  H435  1  0.968500  0.143700  0.214367  1.0
  H  H436  1  0.031500  0.856300  0.214367  1.0
  H  H437  1  0.824800  0.968500  0.881033  1.0
  H  H438  1  0.143700  0.175200  0.547700  1.0
  H  H439  1  0.841500  0.922800  0.488100  1.0
  H  H440  1  0.158500  0.077200  0.488100  1.0
  H  H441  1  0.081300  0.158500  0.154767  1.0
  H  H442  1  0.077200  0.918700  0.821433  1.0
  H  H443  1  0.922800  0.081300  0.821433  1.0
  H  H444  1  0.918700  0.841500  0.154767  1.0
  H  H445  1  0.922800  0.841500  0.511900  1.0
  H  H446  1  0.158500  0.081300  0.845233  1.0
  H  H447  1  0.918700  0.077200  0.178567  1.0
  H  H448  1  0.081300  0.922800  0.178567  1.0
  H  H449  1  0.841500  0.918700  0.845233  1.0
  H  H450  1  0.077200  0.158500  0.511900  1.0
  H  H451  1  0.742400  0.016200  0.455600  1.0
  H  H452  1  0.257600  0.983800  0.455600  1.0
  H  H453  1  0.273800  0.257600  0.122267  1.0
  H  H454  1  0.983800  0.726200  0.788933  1.0
  H  H455  1  0.016200  0.273800  0.788933  1.0
  H  H456  1  0.726200  0.742400  0.122267  1.0
  H  H457  1  0.016200  0.742400  0.544400  1.0
  H  H458  1  0.257600  0.273800  0.877733  1.0
  H  H459  1  0.726200  0.983800  0.211067  1.0
  H  H460  1  0.273800  0.016200  0.211067  1.0
  H  H461  1  0.742400  0.726200  0.877733  1.0
  H  H462  1  0.983800  0.257600  0.544400  1.0
  H  H463  1  0.725700  0.949600  0.419800  1.0
  H  H464  1  0.274300  0.050400  0.419800  1.0
  H  H465  1  0.223900  0.274300  0.086467  1.0
  H  H466  1  0.050400  0.776100  0.753133  1.0
  H  H467  1  0.949600  0.223900  0.753133  1.0
  H  H468  1  0.776100  0.725700  0.086467  1.0
  H  H469  1  0.949600  0.725700  0.580200  1.0
  H  H470  1  0.274300  0.223900  0.913533  1.0
  H  H471  1  0.776100  0.050400  0.246867  1.0
  H  H472  1  0.223900  0.949600  0.246867  1.0
  H  H473  1  0.725700  0.776100  0.913533  1.0
  H  H474  1  0.050400  0.274300  0.580200  1.0
  H  H475  1  0.786900  0.045600  0.499700  1.0
  H  H476  1  0.213100  0.954400  0.499700  1.0
  H  H477  1  0.258700  0.213100  0.166367  1.0
  H  H478  1  0.954400  0.741300  0.833033  1.0
  H  H479  1  0.045600  0.258700  0.833033  1.0
  H  H480  1  0.741300  0.786900  0.166367  1.0
  H  H481  1  0.045600  0.786900  0.500300  1.0
  H  H482  1  0.213100  0.258700  0.833633  1.0
  H  H483  1  0.741300  0.954400  0.166967  1.0
  H  H484  1  0.258700  0.045600  0.166967  1.0
  H  H485  1  0.786900  0.741300  0.833633  1.0
  H  H486  1  0.954400  0.213100  0.500300  1.0
  H  H487  1  0.855900  0.039500  0.504100  1.0
  H  H488  1  0.144100  0.960500  0.504100  1.0
  H  H489  1  0.183600  0.144100  0.170767  1.0
  H  H490  1  0.960500  0.816400  0.837433  1.0
  H  H491  1  0.039500  0.183600  0.837433  1.0
  H  H492  1  0.816400  0.855900  0.170767  1.0
  H  H493  1  0.039500  0.855900  0.495900  1.0
  H  H494  1  0.144100  0.183600  0.829233  1.0
  H  H495  1  0.816400  0.960500  0.162567  1.0
  H  H496  1  0.183600  0.039500  0.162567  1.0
  H  H497  1  0.855900  0.816400  0.829233  1.0
  H  H498  1  0.960500  0.144100  0.495900  1.0
  H  H499  1  0.780700  0.977800  0.513400  1.0
  H  H500  1  0.219300  0.022200  0.513400  1.0
  H  H501  1  0.197100  0.219300  0.180067  1.0
  H  H502  1  0.022200  0.802900  0.846733  1.0
  H  H503  1  0.977800  0.197100  0.846733  1.0
  H  H504  1  0.802900  0.780700  0.180067  1.0
  H  H505  1  0.977800  0.780700  0.486600  1.0
  H  H506  1  0.219300  0.197100  0.819933  1.0
  H  H507  1  0.802900  0.022200  0.153267  1.0
  H  H508  1  0.197100  0.977800  0.153267  1.0
  H  H509  1  0.780700  0.802900  0.819933  1.0
  H  H510  1  0.022200  0.219300  0.486600  1.0
  H  H511  1  0.795600  0.934300  0.388400  1.0
  H  H512  1  0.204400  0.065700  0.388400  1.0
  H  H513  1  0.138700  0.204400  0.055067  1.0
  H  H514  1  0.065700  0.861300  0.721733  1.0
  H  H515  1  0.934300  0.138700  0.721733  1.0
  H  H516  1  0.861300  0.795600  0.055067  1.0
  H  H517  1  0.934300  0.795600  0.611600  1.0
  H  H518  1  0.204400  0.138700  0.944933  1.0
  H  H519  1  0.861300  0.065700  0.278267  1.0
  H  H520  1  0.138700  0.934300  0.278267  1.0
  H  H521  1  0.795600  0.861300  0.944933  1.0
  H  H522  1  0.065700  0.204400  0.611600  1.0
  H  H523  1  0.685500  0.681100  0.357100  1.0
  H  H524  1  0.314500  0.318900  0.357100  1.0
  H  H525  1  0.995600  0.314500  0.023767  1.0
  H  H526  1  0.318900  0.004400  0.690433  1.0
  H  H527  1  0.681100  0.995600  0.690433  1.0
  H  H528  1  0.004400  0.685500  0.023767  1.0
  H  H529  1  0.681100  0.685500  0.642900  1.0
  H  H530  1  0.314500  0.995600  0.976233  1.0
  H  H531  1  0.004400  0.318900  0.309567  1.0
  H  H532  1  0.995600  0.681100  0.309567  1.0
  H  H533  1  0.685500  0.004400  0.976233  1.0
  H  H534  1  0.318900  0.314500  0.642900  1.0
  H  H535  1  0.767800  0.840500  0.307700  1.0
  H  H536  1  0.232200  0.159500  0.307700  1.0
  H  H537  1  0.072700  0.232200  0.974367  1.0
  H  H538  1  0.159500  0.927300  0.641033  1.0
  H  H539  1  0.840500  0.072700  0.641033  1.0
  H  H540  1  0.927300  0.767800  0.974367  1.0
  H  H541  1  0.840500  0.767800  0.692300  1.0
  H  H542  1  0.232200  0.072700  0.025633  1.0
  H  H543  1  0.927300  0.159500  0.358967  1.0
  H  H544  1  0.072700  0.840500  0.358967  1.0
  H  H545  1  0.767800  0.927300  0.025633  1.0
  H  H546  1  0.159500  0.232200  0.692300  1.0
  H  H547  1  0.798000  0.918000  0.340700  1.0
  H  H548  1  0.202000  0.082000  0.340700  1.0
  H  H549  1  0.120000  0.202000  0.007367  1.0
  H  H550  1  0.082000  0.880000  0.674033  1.0
  H  H551  1  0.918000  0.120000  0.674033  1.0
  H  H552  1  0.880000  0.798000  0.007367  1.0
  H  H553  1  0.918000  0.798000  0.659300  1.0
  H  H554  1  0.202000  0.120000  0.992633  1.0
  H  H555  1  0.880000  0.082000  0.325967  1.0
  H  H556  1  0.120000  0.918000  0.325967  1.0
  H  H557  1  0.798000  0.880000  0.992633  1.0
  H  H558  1  0.082000  0.202000  0.659300  1.0
  H  H559  1  0.593900  0.638600  0.323800  1.0
  H  H560  1  0.406100  0.361400  0.323800  1.0
  H  H561  1  0.044700  0.406100  0.990467  1.0
  H  H562  1  0.361400  0.955300  0.657133  1.0
  H  H563  1  0.638600  0.044700  0.657133  1.0
  H  H564  1  0.955300  0.593900  0.990467  1.0
  H  H565  1  0.638600  0.593900  0.676200  1.0
  H  H566  1  0.406100  0.044700  0.009533  1.0
  H  H567  1  0.955300  0.361400  0.342867  1.0
  H  H568  1  0.044700  0.638600  0.342867  1.0
  H  H569  1  0.593900  0.955300  0.009533  1.0
  H  H570  1  0.361400  0.406100  0.676200  1.0
  H  H571  1  0.726600  0.644700  0.257300  1.0
  H  H572  1  0.273400  0.355300  0.257300  1.0
  H  H573  1  0.918100  0.273400  0.923967  1.0
  H  H574  1  0.355300  0.081900  0.590633  1.0
  H  H575  1  0.644700  0.918100  0.590633  1.0
  H  H576  1  0.081900  0.726600  0.923967  1.0
  H  H577  1  0.644700  0.726600  0.742700  1.0
  H  H578  1  0.273400  0.918100  0.076033  1.0
  H  H579  1  0.081900  0.355300  0.409367  1.0
  H  H580  1  0.918100  0.644700  0.409367  1.0
  H  H581  1  0.726600  0.081900  0.076033  1.0
  H  H582  1  0.355300  0.273400  0.742700  1.0
  H  H583  1  0.775300  0.739900  0.284600  1.0
  H  H584  1  0.224700  0.260100  0.284600  1.0
  H  H585  1  0.964600  0.224700  0.951267  1.0
  H  H586  1  0.260100  0.035400  0.617933  1.0
  H  H587  1  0.739900  0.964600  0.617933  1.0
  H  H588  1  0.035400  0.775300  0.951267  1.0
  H  H589  1  0.739900  0.775300  0.715400  1.0
  H  H590  1  0.224700  0.964600  0.048733  1.0
  H  H591  1  0.035400  0.260100  0.382067  1.0
  H  H592  1  0.964600  0.739900  0.382067  1.0
  H  H593  1  0.775300  0.035400  0.048733  1.0
  H  H594  1  0.260100  0.224700  0.715400  1.0
  H  H595  1  0.628100  0.517600  0.248100  1.0
  H  H596  1  0.371900  0.482400  0.248100  1.0
  H  H597  1  0.889500  0.371900  0.914767  1.0
  H  H598  1  0.482400  0.110500  0.581433  1.0
  H  H599  1  0.517600  0.889500  0.581433  1.0
  H  H600  1  0.110500  0.628100  0.914767  1.0
  H  H601  1  0.517600  0.628100  0.751900  1.0
  H  H602  1  0.371900  0.889500  0.085233  1.0
  H  H603  1  0.110500  0.482400  0.418567  1.0
  H  H604  1  0.889500  0.517600  0.418567  1.0
  H  H605  1  0.628100  0.110500  0.085233  1.0
  H  H606  1  0.482400  0.371900  0.751900  1.0
  H  H607  1  0.490600  0.342800  0.285700  1.0
  H  H608  1  0.509400  0.657200  0.285700  1.0
  H  H609  1  0.852200  0.509400  0.952367  1.0
  H  H610  1  0.657200  0.147800  0.619033  1.0
  H  H611  1  0.342800  0.852200  0.619033  1.0
  H  H612  1  0.147800  0.490600  0.952367  1.0
  H  H613  1  0.342800  0.490600  0.714300  1.0
  H  H614  1  0.509400  0.852200  0.047633  1.0
  H  H615  1  0.147800  0.657200  0.380967  1.0
  H  H616  1  0.852200  0.342800  0.380967  1.0
  H  H617  1  0.490600  0.147800  0.047633  1.0
  H  H618  1  0.657200  0.509400  0.714300  1.0
  H  H619  1  0.418300  0.235900  0.265600  1.0
  H  H620  1  0.581700  0.764100  0.265600  1.0
  H  H621  1  0.817600  0.581700  0.932267  1.0
  H  H622  1  0.764100  0.182400  0.598933  1.0
  H  H623  1  0.235900  0.817600  0.598933  1.0
  H  H624  1  0.182400  0.418300  0.932267  1.0
  H  H625  1  0.235900  0.418300  0.734400  1.0
  H  H626  1  0.581700  0.817600  0.067733  1.0
  H  H627  1  0.182400  0.764100  0.401067  1.0
  H  H628  1  0.817600  0.235900  0.401067  1.0
  H  H629  1  0.418300  0.182400  0.067733  1.0
  H  H630  1  0.764100  0.581700  0.734400  1.0
  H  H631  1  0.443400  0.340900  0.201200  1.0
  H  H632  1  0.556600  0.659100  0.201200  1.0
  H  H633  1  0.897500  0.556600  0.867867  1.0
  H  H634  1  0.659100  0.102500  0.534533  1.0
  H  H635  1  0.340900  0.897500  0.534533  1.0
  H  H636  1  0.102500  0.443400  0.867867  1.0
  H  H637  1  0.340900  0.443400  0.798800  1.0
  H  H638  1  0.556600  0.897500  0.132133  1.0
  H  H639  1  0.102500  0.659100  0.465467  1.0
  H  H640  1  0.897500  0.340900  0.465467  1.0
  H  H641  1  0.443400  0.102500  0.132133  1.0
  H  H642  1  0.659100  0.556600  0.798800  1.0
  H  H643  1  0.515600  0.447800  0.221400  1.0
  H  H644  1  0.484400  0.552200  0.221400  1.0
  H  H645  1  0.932200  0.484400  0.888067  1.0
  H  H646  1  0.552200  0.067800  0.554733  1.0
  H  H647  1  0.447800  0.932200  0.554733  1.0
  H  H648  1  0.067800  0.515600  0.888067  1.0
  H  H649  1  0.447800  0.515600  0.778600  1.0
  H  H650  1  0.484400  0.932200  0.111933  1.0
  H  H651  1  0.067800  0.552200  0.445267  1.0
  H  H652  1  0.932200  0.447800  0.445267  1.0
  H  H653  1  0.515600  0.067800  0.111933  1.0
  H  H654  1  0.552200  0.484400  0.778600  1.0
  H  H655  1  0.372800  0.218800  0.201000  1.0
  H  H656  1  0.627200  0.781200  0.201000  1.0
  H  H657  1  0.846000  0.627200  0.867667  1.0
  H  H658  1  0.781200  0.154000  0.534333  1.0
  H  H659  1  0.218800  0.846000  0.534333  1.0
  H  H660  1  0.154000  0.372800  0.867667  1.0
  H  H661  1  0.218800  0.372800  0.799000  1.0
  H  H662  1  0.627200  0.846000  0.132333  1.0
  H  H663  1  0.154000  0.781200  0.465667  1.0
  H  H664  1  0.846000  0.218800  0.465667  1.0
  H  H665  1  0.372800  0.154000  0.132333  1.0
  H  H666  1  0.781200  0.627200  0.799000  1.0
  H  H667  1  0.333333  0.183533  0.226400  1.0
  H  H668  1  0.666667  0.816467  0.226400  1.0
  H  H669  1  0.850200  0.666667  0.893067  1.0
  H  H670  1  0.816467  0.149800  0.559733  1.0
  H  H671  1  0.183533  0.850200  0.559733  1.0
  H  H672  1  0.149800  0.333333  0.893067  1.0
  H  H673  1  0.183533  0.333333  0.773600  1.0
  H  H674  1  0.666667  0.850200  0.106933  1.0
  H  H675  1  0.149800  0.816467  0.440267  1.0
  H  H676  1  0.850200  0.183533  0.440267  1.0
  H  H677  1  0.333333  0.149800  0.106933  1.0
  H  H678  1  0.816467  0.666667  0.773600  1.0
  H  H679  1  0.402700  0.181300  0.218700  1.0
  H  H680  1  0.597300  0.818700  0.218700  1.0
  H  H681  1  0.778600  0.597300  0.885367  1.0
  H  H682  1  0.818700  0.221400  0.552033  1.0
  H  H683  1  0.181300  0.778600  0.552033  1.0
  H  H684  1  0.221400  0.402700  0.885367  1.0
  H  H685  1  0.181300  0.402700  0.781300  1.0
  H  H686  1  0.597300  0.778600  0.114633  1.0
  H  H687  1  0.221400  0.818700  0.447967  1.0
  H  H688  1  0.778600  0.181300  0.447967  1.0
  H  H689  1  0.402700  0.221400  0.114633  1.0
  H  H690  1  0.818700  0.597300  0.781300  1.0
  C  C691  1  0.894700  0.591800  0.473920  1
  C  C692  1  0.105300  0.408200  0.473920  1
  C  C693  1  0.697100  0.105300  0.140587  1
  C  C694  1  0.408200  0.302900  0.807253  1
  C  C695  1  0.591800  0.697100  0.807253  1
  C  C696  1  0.302900  0.894700  0.140587  1
  C  C697  1  0.591800  0.894700  0.526080  1
  C  C698  1  0.105300  0.697100  0.859413  1
  C  C699  1  0.302900  0.408200  0.192747  1
  C  C700  1  0.697100  0.591800  0.192747  1
  C  C701  1  0.894700  0.302900  0.859413  1
  C  C702  1  0.408200  0.105300  0.526080  1
  C  C703  1  0.499300  0.502000  0.514700  1
  C  C704  1  0.500700  0.498000  0.514700  1
  C  C705  1  0.002700  0.500700  0.181367  1
  C  C706  1  0.498000  0.997300  0.848033  1
  C  C707  1  0.502000  0.002700  0.848033  1
  C  C708  1  0.997300  0.499300  0.181367  1
  C  C709  1  0.502000  0.499300  0.485300  1
  C  C710  1  0.500700  0.002700  0.818633  1
  C  C711  1  0.997300  0.498000  0.151967  1
  C  C712  1  0.002700  0.502000  0.151967  1
  C  C713  1  0.499300  0.997300  0.818633  1
  C  C714  1  0.498000  0.500700  0.485300  1
  C  C715  1  0.692700  0.980400  0.322800  1
  C  C716  1  0.307300  0.019600  0.322800  1
  C  C717  1  0.287700  0.307300  0.989467  1
  C  C718  1  0.019600  0.712300  0.656133  1
  C  C719  1  0.980400  0.287700  0.656133  1
  C  C720  1  0.712300  0.692700  0.989467  1
  C  C721  1  0.980400  0.692700  0.677200  1
  C  C722  1  0.307300  0.287700  0.010533  1
  C  C723  1  0.712300  0.019600  0.343867  1
  C  C724  1  0.287700  0.980400  0.343867  1
  C  C725  1  0.692700  0.712300  0.010533  1
  C  C726  1  0.019600  0.307300  0.677200  1
  C  C727  1  0.856000  0.768300  0.413000  1.0
  C  C728  1  0.144000  0.231700  0.413000  1.0
  C  C729  1  0.912300  0.144000  0.079667  1.0
  C  C730  1  0.231700  0.087700  0.746333  1.0
  C  C731  1  0.768300  0.912300  0.746333  1.0
  C  C732  1  0.087700  0.856000  0.079667  1.0
  C  C733  1  0.768300  0.856000  0.587000  1.0
  C  C734  1  0.144000  0.912300  0.920333  1.0
  C  C735  1  0.087700  0.231700  0.253667  1.0
  C  C736  1  0.912300  0.768300  0.253667  1.0
  C  C737  1  0.856000  0.087700  0.920333  1.0
  C  C738  1  0.231700  0.144000  0.587000  1.0
  C  C739  1  0.895500  0.765200  0.431500  1.0
  C  C740  1  0.104500  0.234800  0.431500  1.0
  C  C741  1  0.869700  0.104500  0.098167  1.0
  C  C742  1  0.234800  0.130300  0.764833  1.0
  C  C743  1  0.765200  0.869700  0.764833  1.0
  C  C744  1  0.130300  0.895500  0.098167  1.0
  C  C745  1  0.765200  0.895500  0.568500  1.0
  C  C746  1  0.104500  0.869700  0.901833  1.0
  C  C747  1  0.130300  0.234800  0.235167  1.0
  C  C748  1  0.869700  0.765200  0.235167  1.0
  C  C749  1  0.895500  0.130300  0.901833  1.0
  C  C750  1  0.234800  0.104500  0.568500  1.0
  C  C751  1  0.971600  0.810500  0.432000  1.0
  C  C752  1  0.028400  0.189500  0.432000  1.0
  C  C753  1  0.838900  0.028400  0.098667  1.0
  C  C754  1  0.189500  0.161100  0.765333  1.0
  C  C755  1  0.810500  0.838900  0.765333  1.0
  C  C756  1  0.161100  0.971600  0.098667  1.0
  C  C757  1  0.810500  0.971600  0.568000  1.0
  C  C758  1  0.028400  0.838900  0.901333  1.0
  C  C759  1  0.161100  0.189500  0.234667  1.0
  C  C760  1  0.838900  0.810500  0.234667  1.0
  C  C761  1  0.971600  0.161100  0.901333  1.0
  C  C762  1  0.189500  0.028400  0.568000  1.0
  C  C763  1  0.998100  0.861800  0.415500  1.0
  C  C764  1  0.001900  0.138200  0.415500  1.0
  C  C765  1  0.863700  0.001900  0.082167  1.0
  C  C766  1  0.138200  0.136300  0.748833  1.0
  C  C767  1  0.861800  0.863700  0.748833  1.0
  C  C768  1  0.136300  0.998100  0.082167  1.0
  C  C769  1  0.861800  0.998100  0.584500  1.0
  C  C770  1  0.001900  0.863700  0.917833  1.0
  C  C771  1  0.136300  0.138200  0.251167  1.0
  C  C772  1  0.863700  0.861800  0.251167  1.0
  C  C773  1  0.998100  0.136300  0.917833  1.0
  C  C774  1  0.138200  0.001900  0.584500  1.0
  C  C775  1  0.963800  0.864800  0.397800  1.0
  C  C776  1  0.036200  0.135200  0.397800  1.0
  C  C777  1  0.901000  0.036200  0.064467  1.0
  C  C778  1  0.135200  0.099000  0.731133  1.0
  C  C779  1  0.864800  0.901000  0.731133  1.0
  C  C780  1  0.099000  0.963800  0.064467  1.0
  C  C781  1  0.864800  0.963800  0.602200  1.0
  C  C782  1  0.036200  0.901000  0.935533  1.0
  C  C783  1  0.099000  0.135200  0.268867  1.0
  C  C784  1  0.901000  0.864800  0.268867  1.0
  C  C785  1  0.963800  0.099000  0.935533  1.0
  C  C786  1  0.135200  0.036200  0.602200  1.0
  C  C787  1  0.889700  0.820400  0.396800  1.0
  C  C788  1  0.110300  0.179600  0.396800  1.0
  C  C789  1  0.930700  0.110300  0.063467  1.0
  C  C790  1  0.179600  0.069300  0.730133  1.0
  C  C791  1  0.820400  0.930700  0.730133  1.0
  C  C792  1  0.069300  0.889700  0.063467  1.0
  C  C793  1  0.820400  0.889700  0.603200  1.0
  C  C794  1  0.110300  0.930700  0.936533  1.0
  C  C795  1  0.069300  0.179600  0.269867  1.0
  C  C796  1  0.930700  0.820400  0.269867  1.0
  C  C797  1  0.889700  0.069300  0.936533  1.0
  C  C798  1  0.179600  0.110300  0.603200  1.0
  C  C799  1  0.082700  0.916800  0.417800  1.0
  C  C800  1  0.917300  0.083200  0.417800  1.0
  C  C801  1  0.834100  0.917300  0.084467  1.0
  C  C802  1  0.083200  0.165900  0.751133  1.0
  C  C803  1  0.916800  0.834100  0.751133  1.0
  C  C804  1  0.165900  0.082700  0.084467  1.0
  C  C805  1  0.916800  0.082700  0.582200  1.0
  C  C806  1  0.917300  0.834100  0.915533  1.0
  C  C807  1  0.165900  0.083200  0.248867  1.0
  C  C808  1  0.834100  0.916800  0.248867  1.0
  C  C809  1  0.082700  0.165900  0.915533  1.0
  C  C810  1  0.083200  0.917300  0.582200  1.0
  C  C811  1  0.758800  0.655100  0.413000  1.0
  C  C812  1  0.241200  0.344900  0.413000  1.0
  C  C813  1  0.896300  0.241200  0.079667  1.0
  C  C814  1  0.344900  0.103700  0.746333  1.0
  C  C815  1  0.655100  0.896300  0.746333  1.0
  C  C816  1  0.103700  0.758800  0.079667  1.0
  C  C817  1  0.655100  0.758800  0.587000  1.0
  C  C818  1  0.241200  0.896300  0.920333  1.0
  C  C819  1  0.103700  0.344900  0.253667  1.0
  C  C820  1  0.896300  0.655100  0.253667  1.0
  C  C821  1  0.758800  0.103700  0.920333  1.0
  C  C822  1  0.344900  0.241200  0.587000  1.0
  C  C823  1  0.681200  0.604300  0.413010  1.0
  C  C824  1  0.318800  0.395700  0.413010  1.0
  C  C825  1  0.923100  0.318800  0.079677  1.0
  C  C826  1  0.395700  0.076900  0.746343  1.0
  C  C827  1  0.604300  0.923100  0.746343  1.0
  C  C828  1  0.076900  0.681200  0.079677  1.0
  C  C829  1  0.604300  0.681200  0.586990  1.0
  C  C830  1  0.318800  0.923100  0.920323  1.0
  C  C831  1  0.076900  0.395700  0.253657  1.0
  C  C832  1  0.923100  0.604300  0.253657  1.0
  C  C833  1  0.681200  0.076900  0.920323  1.0
  C  C834  1  0.395700  0.318800  0.586990  1.0
  C  C835  1  0.574600  0.594600  0.407610  1.0
  C  C836  1  0.425400  0.405400  0.407610  1.0
  C  C837  1  0.020000  0.425400  0.074277  1.0
  C  C838  1  0.405400  0.980000  0.740943  1.0
  C  C839  1  0.594600  0.020000  0.740943  1.0
  C  C840  1  0.980000  0.574600  0.074277  1.0
  C  C841  1  0.594600  0.574600  0.592390  1.0
  C  C842  1  0.425400  0.020000  0.925723  1.0
  C  C843  1  0.980000  0.405400  0.259057  1.0
  C  C844  1  0.020000  0.594600  0.259057  1.0
  C  C845  1  0.574600  0.980000  0.925723  1.0
  C  C846  1  0.405400  0.425400  0.592390  1.0
  C  C847  1  0.539000  0.522200  0.411930  1.0
  C  C848  1  0.461000  0.477800  0.411930  1.0
  C  C849  1  0.983200  0.461000  0.078597  1.0
  C  C850  1  0.477800  0.016800  0.745263  1.0
  C  C851  1  0.522200  0.983200  0.745263  1.0
  C  C852  1  0.016800  0.539000  0.078597  1.0
  C  C853  1  0.522200  0.539000  0.588070  1.0
  C  C854  1  0.461000  0.983200  0.921403  1.0
  C  C855  1  0.016800  0.477800  0.254737  1.0
  C  C856  1  0.983200  0.522200  0.254737  1.0
  C  C857  1  0.539000  0.016800  0.921403  1.0
  C  C858  1  0.477800  0.461000  0.588070  1.0
  C  C859  1  0.582400  0.494100  0.417180  1.0
  C  C860  1  0.417600  0.505900  0.417180  1.0
  C  C861  1  0.911700  0.417600  0.083847  1.0
  C  C862  1  0.505900  0.088300  0.750513  1.0
  C  C863  1  0.494100  0.911700  0.750513  1.0
  C  C864  1  0.088300  0.582400  0.083847  1.0
  C  C865  1  0.494100  0.582400  0.582820  1.0
  C  C866  1  0.417600  0.911700  0.916153  1.0
  C  C867  1  0.088300  0.505900  0.249487  1.0
  C  C868  1  0.911700  0.494100  0.249487  1.0
  C  C869  1  0.582400  0.088300  0.916153  1.0
  C  C870  1  0.505900  0.417600  0.582820  1.0
  C  C871  1  0.654500  0.535200  0.416900  1.0
  C  C872  1  0.345500  0.464800  0.416900  1.0
  C  C873  1  0.880700  0.345500  0.083567  1.0
  C  C874  1  0.464800  0.119300  0.750233  1.0
  C  C875  1  0.535200  0.880700  0.750233  1.0
  C  C876  1  0.119300  0.654500  0.083567  1.0
  C  C877  1  0.535200  0.654500  0.583100  1.0
  C  C878  1  0.345500  0.880700  0.916433  1.0
  C  C879  1  0.119300  0.464800  0.249767  1.0
  C  C880  1  0.880700  0.535200  0.249767  1.0
  C  C881  1  0.654500  0.119300  0.916433  1.0
  C  C882  1  0.464800  0.345500  0.583100  1.0
  C  C883  1  0.583600  0.779500  0.388800  1.0
  C  C884  1  0.416400  0.220500  0.388800  1.0
  C  C885  1  0.195900  0.416400  0.055467  1.0
  C  C886  1  0.220500  0.804100  0.722133  1.0
  C  C887  1  0.779500  0.195900  0.722133  1.0
  C  C888  1  0.804100  0.583600  0.055467  1.0
  C  C889  1  0.779500  0.583600  0.611200  1.0
  C  C890  1  0.416400  0.195900  0.944533  1.0
  C  C891  1  0.804100  0.220500  0.277867  1.0
  C  C892  1  0.195900  0.779500  0.277867  1.0
  C  C893  1  0.583600  0.804100  0.944533  1.0
  C  C894  1  0.220500  0.416400  0.611200  1.0
  C  C895  1  0.564500  0.733900  0.368000  1.0
  C  C896  1  0.435500  0.266100  0.368000  1.0
  C  C897  1  0.169400  0.435500  0.034667  1.0
  C  C898  1  0.266100  0.830600  0.701333  1.0
  C  C899  1  0.733900  0.169400  0.701333  1.0
  C  C900  1  0.830600  0.564500  0.034667  1.0
  C  C901  1  0.733900  0.564500  0.632000  1.0
  C  C902  1  0.435500  0.169400  0.965333  1.0
  C  C903  1  0.830600  0.266100  0.298667  1.0
  C  C904  1  0.169400  0.733900  0.298667  1.0
  C  C905  1  0.564500  0.830600  0.965333  1.0
  C  C906  1  0.266100  0.435500  0.632000  1.0
  C  C907  1  0.535500  0.748000  0.347900  1.0
  C  C908  1  0.464500  0.252000  0.347900  1.0
  C  C909  1  0.212500  0.464500  0.014567  1.0
  C  C910  1  0.252000  0.787500  0.681233  1.0
  C  C911  1  0.748000  0.212500  0.681233  1.0
  C  C912  1  0.787500  0.535500  0.014567  1.0
  C  C913  1  0.748000  0.535500  0.652100  1.0
  C  C914  1  0.464500  0.212500  0.985433  1.0
  C  C915  1  0.787500  0.252000  0.318767  1.0
  C  C916  1  0.212500  0.748000  0.318767  1.0
  C  C917  1  0.535500  0.787500  0.985433  1.0
  C  C918  1  0.252000  0.464500  0.652100  1.0
  C  C919  1  0.527300  0.805500  0.347300  1.0
  C  C920  1  0.472700  0.194500  0.347300  1.0
  C  C921  1  0.278200  0.472700  0.013967  1.0
  C  C922  1  0.194500  0.721800  0.680633  1.0
  C  C923  1  0.805500  0.278200  0.680633  1.0
  C  C924  1  0.721800  0.527300  0.013967  1.0
  C  C925  1  0.805500  0.527300  0.652700  1.0
  C  C926  1  0.472700  0.278200  0.986033  1.0
  C  C927  1  0.721800  0.194500  0.319367  1.0
  C  C928  1  0.278200  0.805500  0.319367  1.0
  C  C929  1  0.527300  0.721800  0.986033  1.0
  C  C930  1  0.194500  0.472700  0.652700  1.0
  C  C931  1  0.548400  0.849400  0.367000  1.0
  C  C932  1  0.451600  0.150600  0.367000  1.0
  C  C933  1  0.301000  0.451600  0.033667  1.0
  C  C934  1  0.150600  0.699000  0.700333  1.0
  C  C935  1  0.849400  0.301000  0.700333  1.0
  C  C936  1  0.699000  0.548400  0.033667  1.0
  C  C937  1  0.849400  0.548400  0.633000  1.0
  C  C938  1  0.451600  0.301000  0.966333  1.0
  C  C939  1  0.699000  0.150600  0.299667  1.0
  C  C940  1  0.301000  0.849400  0.299667  1.0
  C  C941  1  0.548400  0.699000  0.966333  1.0
  C  C942  1  0.150600  0.451600  0.633000  1.0
  C  C943  1  0.578800  0.838500  0.389300  1.0
  C  C944  1  0.421200  0.161500  0.389300  1.0
  C  C945  1  0.259700  0.421200  0.055967  1.0
  C  C946  1  0.161500  0.740300  0.722633  1.0
  C  C947  1  0.838500  0.259700  0.722633  1.0
  C  C948  1  0.740300  0.578800  0.055967  1.0
  C  C949  1  0.838500  0.578800  0.610700  1.0
  C  C950  1  0.421200  0.259700  0.944033  1.0
  C  C951  1  0.740300  0.161500  0.277367  1.0
  C  C952  1  0.259700  0.838500  0.277367  1.0
  C  C953  1  0.578800  0.740300  0.944033  1.0
  C  C954  1  0.161500  0.421200  0.610700  1.0
  C  C955  1  0.498000  0.821800  0.324200  1.0
  C  C956  1  0.502000  0.178200  0.324200  1.0
  C  C957  1  0.323800  0.502000  0.990867  1.0
  C  C958  1  0.178200  0.676200  0.657533  1.0
  C  C959  1  0.821800  0.323800  0.657533  1.0
  C  C960  1  0.676200  0.498000  0.990867  1.0
  C  C961  1  0.821800  0.498000  0.675800  1.0
  C  C962  1  0.502000  0.323800  0.009133  1.0
  C  C963  1  0.676200  0.178200  0.342467  1.0
  C  C964  1  0.323800  0.821800  0.342467  1.0
  C  C965  1  0.498000  0.676200  0.009133  1.0
  C  C966  1  0.178200  0.502000  0.675800  1.0
  C  C967  1  0.593600  0.763400  0.431700  1.0
  C  C968  1  0.406400  0.236600  0.431700  1.0
  C  C969  1  0.169800  0.406400  0.098367  1.0
  C  C970  1  0.236600  0.830200  0.765033  1.0
  C  C971  1  0.763400  0.169800  0.765033  1.0
  C  C972  1  0.830200  0.593600  0.098367  1.0
  C  C973  1  0.763400  0.593600  0.568300  1.0
  C  C974  1  0.406400  0.169800  0.901633  1.0
  C  C975  1  0.830200  0.236600  0.234967  1.0
  C  C976  1  0.169800  0.763400  0.234967  1.0
  C  C977  1  0.593600  0.830200  0.901633  1.0
  C  C978  1  0.236600  0.406400  0.568300  1.0
  C  C979  1  0.622500  0.747300  0.452500  1.0
  C  C980  1  0.377500  0.252700  0.452500  1.0
  C  C981  1  0.124800  0.377500  0.119167  1.0
  C  C982  1  0.252700  0.875200  0.785833  1.0
  C  C983  1  0.747300  0.124800  0.785833  1.0
  C  C984  1  0.875200  0.622500  0.119167  1.0
  C  C985  1  0.747300  0.622500  0.547500  1.0
  C  C986  1  0.377500  0.124800  0.880833  1.0
  C  C987  1  0.875200  0.252700  0.214167  1.0
  C  C988  1  0.124800  0.747300  0.214167  1.0
  C  C989  1  0.622500  0.875200  0.880833  1.0
  C  C990  1  0.252700  0.377500  0.547500  1.0
  C  C991  1  0.701700  0.712400  0.466200  1.0
  C  C992  1  0.298300  0.287600  0.466200  1.0
  C  C993  1  0.010700  0.298300  0.132867  1.0
  C  C994  1  0.287600  0.989300  0.799533  1.0
  C  C995  1  0.712400  0.010700  0.799533  1.0
  C  C996  1  0.989300  0.701700  0.132867  1.0
  C  C997  1  0.712400  0.701700  0.533800  1.0
  C  C998  1  0.298300  0.010700  0.867133  1.0
  C  C999  1  0.989300  0.287600  0.200467  1.0
  C  C1000  1  0.010700  0.712400  0.200467  1.0
  C  C1001  1  0.701700  0.989300  0.867133  1.0
  C  C1002  1  0.287600  0.298300  0.533800  1.0
  C  C1003  1  0.675400  0.701800  0.490200  1.0
  C  C1004  1  0.324600  0.298200  0.490200  1.0
  C  C1005  1  0.026400  0.324600  0.156867  1.0
  C  C1006  1  0.298200  0.973600  0.823533  1.0
  C  C1007  1  0.701800  0.026400  0.823533  1.0
  C  C1008  1  0.973600  0.675400  0.156867  1.0
  C  C1009  1  0.701800  0.675400  0.509800  1.0
  C  C1010  1  0.324600  0.026400  0.843133  1.0
  C  C1011  1  0.973600  0.298200  0.176467  1.0
  C  C1012  1  0.026400  0.701800  0.176467  1.0
  C  C1013  1  0.675400  0.973600  0.843133  1.0
  C  C1014  1  0.298200  0.324600  0.509800  1.0
  C  C1015  1  0.622000  0.718000  0.495100  1.0
  C  C1016  1  0.378000  0.282000  0.495100  1.0
  C  C1017  1  0.096000  0.378000  0.161767  1.0
  C  C1018  1  0.282000  0.904000  0.828433  1.0
  C  C1019  1  0.718000  0.096000  0.828433  1.0
  C  C1020  1  0.904000  0.622000  0.161767  1.0
  C  C1021  1  0.718000  0.622000  0.504900  1.0
  C  C1022  1  0.378000  0.096000  0.838233  1.0
  C  C1023  1  0.904000  0.282000  0.171567  1.0
  C  C1024  1  0.096000  0.718000  0.171567  1.0
  C  C1025  1  0.622000  0.904000  0.838233  1.0
  C  C1026  1  0.282000  0.378000  0.504900  1.0
  C  C1027  1  0.597800  0.741100  0.476600  1.0
  C  C1028  1  0.402200  0.258900  0.476600  1.0
  C  C1029  1  0.143300  0.402200  0.143267  1.0
  C  C1030  1  0.258900  0.856700  0.809933  1.0
  C  C1031  1  0.741100  0.143300  0.809933  1.0
  C  C1032  1  0.856700  0.597800  0.143267  1.0
  C  C1033  1  0.741100  0.597800  0.523400  1.0
  C  C1034  1  0.402200  0.143300  0.856733  1.0
  C  C1035  1  0.856700  0.258900  0.190067  1.0
  C  C1036  1  0.143300  0.741100  0.190067  1.0
  C  C1037  1  0.597800  0.856700  0.856733  1.0
  C  C1038  1  0.258900  0.402200  0.523400  1.0
  C  C1039  1  0.773700  0.896700  0.432700  1.0
  C  C1040  1  0.226300  0.103300  0.432700  1.0
  C  C1041  1  0.123000  0.226300  0.099367  1.0
  C  C1042  1  0.103300  0.877000  0.766033  1.0
  C  C1043  1  0.896700  0.123000  0.766033  1.0
  C  C1044  1  0.877000  0.773700  0.099367  1.0
  C  C1045  1  0.896700  0.773700  0.567300  1.0
  C  C1046  1  0.226300  0.123000  0.900633  1.0
  C  C1047  1  0.877000  0.103300  0.233967  1.0
  C  C1048  1  0.123000  0.896700  0.233967  1.0
  C  C1049  1  0.773700  0.877000  0.900633  1.0
  C  C1050  1  0.103300  0.226300  0.567300  1.0
  C  C1051  1  0.808100  0.888800  0.453000  1.0
  C  C1052  1  0.191900  0.111200  0.453000  1.0
  C  C1053  1  0.080700  0.191900  0.119667  1.0
  C  C1054  1  0.111200  0.919300  0.786333  1.0
  C  C1055  1  0.888800  0.080700  0.786333  1.0
  C  C1056  1  0.919300  0.808100  0.119667  1.0
  C  C1057  1  0.888800  0.808100  0.547000  1.0
  C  C1058  1  0.191900  0.080700  0.880333  1.0
  C  C1059  1  0.919300  0.111200  0.213667  1.0
  C  C1060  1  0.080700  0.888800  0.213667  1.0
  C  C1061  1  0.808100  0.919300  0.880333  1.0
  C  C1062  1  0.111200  0.191900  0.547000  1.0
  C  C1063  1  0.818000  0.928300  0.474200  1.0
  C  C1064  1  0.182000  0.071700  0.474200  1.0
  C  C1065  1  0.110300  0.182000  0.140867  1.0
  C  C1066  1  0.071700  0.889700  0.807533  1.0
  C  C1067  1  0.928300  0.110300  0.807533  1.0
  C  C1068  1  0.889700  0.818000  0.140867  1.0
  C  C1069  1  0.928300  0.818000  0.525800  1.0
  C  C1070  1  0.182000  0.110300  0.859133  1.0
  C  C1071  1  0.889700  0.071700  0.192467  1.0
  C  C1072  1  0.110300  0.928300  0.192467  1.0
  C  C1073  1  0.818000  0.889700  0.859133  1.0
  C  C1074  1  0.071700  0.182000  0.525800  1.0
  C  C1075  1  0.793500  0.975700  0.475240  1.0
  C  C1076  1  0.206500  0.024300  0.475240  1.0
  C  C1077  1  0.182200  0.206500  0.141907  1.0
  C  C1078  1  0.024300  0.817800  0.808573  1.0
  C  C1079  1  0.975700  0.182200  0.808573  1.0
  C  C1080  1  0.817800  0.793500  0.141907  1.0
  C  C1081  1  0.975700  0.793500  0.524760  1.0
  C  C1082  1  0.206500  0.182200  0.858093  1.0
  C  C1083  1  0.817800  0.024300  0.191427  1.0
  C  C1084  1  0.182200  0.975700  0.191427  1.0
  C  C1085  1  0.793500  0.817800  0.858093  1.0
  C  C1086  1  0.024300  0.206500  0.524760  1.0
  C  C1087  1  0.759100  0.983700  0.455000  1.0
  C  C1088  1  0.240900  0.016300  0.455000  1.0
  C  C1089  1  0.224600  0.240900  0.121667  1.0
  C  C1090  1  0.016300  0.775400  0.788333  1.0
  C  C1091  1  0.983700  0.224600  0.788333  1.0
  C  C1092  1  0.775400  0.759100  0.121667  1.0
  C  C1093  1  0.983700  0.759100  0.545000  1.0
  C  C1094  1  0.240900  0.224600  0.878333  1.0
  C  C1095  1  0.775400  0.016300  0.211667  1.0
  C  C1096  1  0.224600  0.983700  0.211667  1.0
  C  C1097  1  0.759100  0.775400  0.878333  1.0
  C  C1098  1  0.016300  0.240900  0.545000  1.0
  C  C1099  1  0.749200  0.944200  0.433680  1.0
  C  C1100  1  0.250800  0.055800  0.433680  1.0
  C  C1101  1  0.195000  0.250800  0.100347  1.0
  C  C1102  1  0.055800  0.805000  0.767013  1.0
  C  C1103  1  0.944200  0.195000  0.767013  1.0
  C  C1104  1  0.805000  0.749200  0.100347  1.0
  C  C1105  1  0.944200  0.749200  0.566320  1.0
  C  C1106  1  0.250800  0.195000  0.899653  1.0
  C  C1107  1  0.805000  0.055800  0.232987  1.0
  C  C1108  1  0.195000  0.944200  0.232987  1.0
  C  C1109  1  0.749200  0.805000  0.899653  1.0
  C  C1110  1  0.055800  0.250800  0.566320  1.0
  C  C1111  1  0.805300  0.013000  0.500400  1.0
  C  C1112  1  0.194700  0.987000  0.500400  1.0
  C  C1113  1  0.207700  0.194700  0.167067  1.0
  C  C1114  1  0.987000  0.792300  0.833733  1.0
  C  C1115  1  0.013000  0.207700  0.833733  1.0
  C  C1116  1  0.792300  0.805300  0.167067  1.0
  C  C1117  1  0.013000  0.805300  0.499600  1.0
  C  C1118  1  0.194700  0.207700  0.832933  1.0
  C  C1119  1  0.792300  0.987000  0.166267  1.0
  C  C1120  1  0.207700  0.013000  0.166267  1.0
  C  C1121  1  0.805300  0.792300  0.832933  1.0
  C  C1122  1  0.987000  0.194700  0.499600  1.0
  C  C1123  1  0.774900  0.884600  0.389900  1.0
  C  C1124  1  0.225100  0.115400  0.389900  1.0
  C  C1125  1  0.109700  0.225100  0.056567  1.0
  C  C1126  1  0.115400  0.890300  0.723233  1.0
  C  C1127  1  0.884600  0.109700  0.723233  1.0
  C  C1128  1  0.890300  0.774900  0.056567  1.0
  C  C1129  1  0.884600  0.774900  0.610100  1.0
  C  C1130  1  0.225100  0.109700  0.943433  1.0
  C  C1131  1  0.890300  0.115400  0.276767  1.0
  C  C1132  1  0.109700  0.884600  0.276767  1.0
  C  C1133  1  0.774900  0.890300  0.943433  1.0
  C  C1134  1  0.115400  0.225100  0.610100  1.0
  C  C1135  1  0.755300  0.840900  0.367000  1.0
  C  C1136  1  0.244700  0.159100  0.367000  1.0
  C  C1137  1  0.085600  0.244700  0.033667  1.0
  C  C1138  1  0.159100  0.914400  0.700333  1.0
  C  C1139  1  0.840900  0.085600  0.700333  1.0
  C  C1140  1  0.914400  0.755300  0.033667  1.0
  C  C1141  1  0.840900  0.755300  0.633000  1.0
  C  C1142  1  0.244700  0.085600  0.966333  1.0
  C  C1143  1  0.914400  0.159100  0.299667  1.0
  C  C1144  1  0.085600  0.840900  0.299667  1.0
  C  C1145  1  0.755300  0.914400  0.966333  1.0
  C  C1146  1  0.159100  0.244700  0.633000  1.0
  C  C1147  1  0.706300  0.730100  0.353800  1.0
  C  C1148  1  0.293700  0.269900  0.353800  1.0
  C  C1149  1  0.023800  0.293700  0.020467  1.0
  C  C1150  1  0.269900  0.976200  0.687133  1.0
  C  C1151  1  0.730100  0.023800  0.687133  1.0
  C  C1152  1  0.976200  0.706300  0.020467  1.0
  C  C1153  1  0.730100  0.706300  0.646200  1.0
  C  C1154  1  0.293700  0.023800  0.979533  1.0
  C  C1155  1  0.976200  0.269900  0.312867  1.0
  C  C1156  1  0.023800  0.730100  0.312867  1.0
  C  C1157  1  0.706300  0.976200  0.979533  1.0
  C  C1158  1  0.269900  0.293700  0.646200  1.0
  C  C1159  1  0.717400  0.752000  0.328340  1.0
  C  C1160  1  0.282600  0.248000  0.328340  1.0
  C  C1161  1  0.034600  0.282600  0.995007  1.0
  C  C1162  1  0.248000  0.965400  0.661673  1.0
  C  C1163  1  0.752000  0.034600  0.661673  1.0
  C  C1164  1  0.965400  0.717400  0.995007  1.0
  C  C1165  1  0.752000  0.717400  0.671660  1.0
  C  C1166  1  0.282600  0.034600  0.004993  1.0
  C  C1167  1  0.965400  0.248000  0.338327  1.0
  C  C1168  1  0.034600  0.752000  0.338327  1.0
  C  C1169  1  0.717400  0.965400  0.004993  1.0
  C  C1170  1  0.248000  0.282600  0.671660  1.0
  C  C1171  1  0.754900  0.823200  0.324100  1.0
  C  C1172  1  0.245100  0.176800  0.324100  1.0
  C  C1173  1  0.068300  0.245100  0.990767  1.0
  C  C1174  1  0.176800  0.931700  0.657433  1.0
  C  C1175  1  0.823200  0.068300  0.657433  1.0
  C  C1176  1  0.931700  0.754900  0.990767  1.0
  C  C1177  1  0.823200  0.754900  0.675900  1.0
  C  C1178  1  0.245100  0.068300  0.009233  1.0
  C  C1179  1  0.931700  0.176800  0.342567  1.0
  C  C1180  1  0.068300  0.823200  0.342567  1.0
  C  C1181  1  0.754900  0.931700  0.009233  1.0
  C  C1182  1  0.176800  0.245100  0.675900  1.0
  C  C1183  1  0.773300  0.868500  0.343300  1.0
  C  C1184  1  0.226700  0.131500  0.343300  1.0
  C  C1185  1  0.095200  0.226700  0.009967  1.0
  C  C1186  1  0.131500  0.904800  0.676633  1.0
  C  C1187  1  0.868500  0.095200  0.676633  1.0
  C  C1188  1  0.904800  0.773300  0.009967  1.0
  C  C1189  1  0.868500  0.773300  0.656700  1.0
  C  C1190  1  0.226700  0.095200  0.990033  1.0
  C  C1191  1  0.904800  0.131500  0.323367  1.0
  C  C1192  1  0.095200  0.868500  0.323367  1.0
  C  C1193  1  0.773300  0.904800  0.990033  1.0
  C  C1194  1  0.131500  0.226700  0.656700  1.0
  C  C1195  1  0.690100  0.698000  0.308500  1.0
  C  C1196  1  0.309900  0.302000  0.308500  1.0
  C  C1197  1  0.007900  0.309900  0.975167  1.0
  C  C1198  1  0.302000  0.992100  0.641833  1.0
  C  C1199  1  0.698000  0.007900  0.641833  1.0
  C  C1200  1  0.992100  0.690100  0.975167  1.0
  C  C1201  1  0.698000  0.690100  0.691500  1.0
  C  C1202  1  0.309900  0.007900  0.024833  1.0
  C  C1203  1  0.992100  0.302000  0.358167  1.0
  C  C1204  1  0.007900  0.698000  0.358167  1.0
  C  C1205  1  0.690100  0.992100  0.024833  1.0
  C  C1206  1  0.302000  0.309900  0.691500  1.0
  C  C1207  1  0.622500  0.639700  0.310400  1.0
  C  C1208  1  0.377500  0.360300  0.310400  1.0
  C  C1209  1  0.017200  0.377500  0.977067  1.0
  C  C1210  1  0.360300  0.982800  0.643733  1.0
  C  C1211  1  0.639700  0.017200  0.643733  1.0
  C  C1212  1  0.982800  0.622500  0.977067  1.0
  C  C1213  1  0.639700  0.622500  0.689600  1.0
  C  C1214  1  0.377500  0.017200  0.022933  1.0
  C  C1215  1  0.982800  0.360300  0.356267  1.0
  C  C1216  1  0.017200  0.639700  0.356267  1.0
  C  C1217  1  0.622500  0.982800  0.022933  1.0
  C  C1218  1  0.360300  0.377500  0.689600  1.0
  C  C1219  1  0.637100  0.586300  0.276000  1.0
  C  C1220  1  0.362900  0.413700  0.276000  1.0
  C  C1221  1  0.949200  0.362900  0.942667  1.0
  C  C1222  1  0.413700  0.050800  0.609333  1.0
  C  C1223  1  0.586300  0.949200  0.609333  1.0
  C  C1224  1  0.050800  0.637100  0.942667  1.0
  C  C1225  1  0.586300  0.637100  0.724000  1.0
  C  C1226  1  0.362900  0.949200  0.057333  1.0
  C  C1227  1  0.050800  0.413700  0.390667  1.0
  C  C1228  1  0.949200  0.586300  0.390667  1.0
  C  C1229  1  0.637100  0.050800  0.057333  1.0
  C  C1230  1  0.413700  0.362900  0.724000  1.0
  C  C1231  1  0.701100  0.643600  0.271700  1.0
  C  C1232  1  0.298900  0.356400  0.271700  1.0
  C  C1233  1  0.942500  0.298900  0.938367  1.0
  C  C1234  1  0.356400  0.057500  0.605033  1.0
  C  C1235  1  0.643600  0.942500  0.605033  1.0
  C  C1236  1  0.057500  0.701100  0.938367  1.0
  C  C1237  1  0.643600  0.701100  0.728300  1.0
  C  C1238  1  0.298900  0.942500  0.061633  1.0
  C  C1239  1  0.057500  0.356400  0.394967  1.0
  C  C1240  1  0.942500  0.643600  0.394967  1.0
  C  C1241  1  0.701100  0.057500  0.061633  1.0
  C  C1242  1  0.356400  0.298900  0.728300  1.0
  C  C1243  1  0.730000  0.700500  0.287600  1.0
  C  C1244  1  0.270000  0.299500  0.287600  1.0
  C  C1245  1  0.970500  0.270000  0.954267  1.0
  C  C1246  1  0.299500  0.029500  0.620933  1.0
  C  C1247  1  0.700500  0.970500  0.620933  1.0
  C  C1248  1  0.029500  0.730000  0.954267  1.0
  C  C1249  1  0.700500  0.730000  0.712400  1.0
  C  C1250  1  0.270000  0.970500  0.045733  1.0
  C  C1251  1  0.029500  0.299500  0.379067  1.0
  C  C1252  1  0.970500  0.700500  0.379067  1.0
  C  C1253  1  0.730000  0.029500  0.045733  1.0
  C  C1254  1  0.299500  0.270000  0.712400  1.0
  C  C1255  1  0.605200  0.522800  0.262200  1.0
  C  C1256  1  0.394800  0.477200  0.262200  1.0
  C  C1257  1  0.917600  0.394800  0.928867  1.0
  C  C1258  1  0.477200  0.082400  0.595533  1.0
  C  C1259  1  0.522800  0.917600  0.595533  1.0
  C  C1260  1  0.082400  0.605200  0.928867  1.0
  C  C1261  1  0.522800  0.605200  0.737800  1.0
  C  C1262  1  0.394800  0.917600  0.071133  1.0
  C  C1263  1  0.082400  0.477200  0.404467  1.0
  C  C1264  1  0.917600  0.522800  0.404467  1.0
  C  C1265  1  0.605200  0.082400  0.071133  1.0
  C  C1266  1  0.477200  0.394800  0.737800  1.0
  C  C1267  1  0.509900  0.405400  0.255500  1.0
  C  C1268  1  0.490100  0.594600  0.255500  1.0
  C  C1269  1  0.895500  0.490100  0.922167  1.0
  C  C1270  1  0.594600  0.104500  0.588833  1.0
  C  C1271  1  0.405400  0.895500  0.588833  1.0
  C  C1272  1  0.104500  0.509900  0.922167  1.0
  C  C1273  1  0.405400  0.509900  0.744500  1.0
  C  C1274  1  0.490100  0.895500  0.077833  1.0
  C  C1275  1  0.104500  0.594600  0.411167  1.0
  C  C1276  1  0.895500  0.405400  0.411167  1.0
  C  C1277  1  0.509900  0.104500  0.077833  1.0
  C  C1278  1  0.594600  0.490100  0.744500  1.0
  C  C1279  1  0.481000  0.342400  0.268600  1.0
  C  C1280  1  0.519000  0.657600  0.268600  1.0
  C  C1281  1  0.861400  0.519000  0.935267  1.0
  C  C1282  1  0.657600  0.138600  0.601933  1.0
  C  C1283  1  0.342400  0.861400  0.601933  1.0
  C  C1284  1  0.138600  0.481000  0.935267  1.0
  C  C1285  1  0.342400  0.481000  0.731400  1.0
  C  C1286  1  0.519000  0.861400  0.064733  1.0
  C  C1287  1  0.138600  0.657600  0.398067  1.0
  C  C1288  1  0.861400  0.342400  0.398067  1.0
  C  C1289  1  0.481000  0.138600  0.064733  1.0
  C  C1290  1  0.657600  0.519000  0.731400  1.0
  C  C1291  1  0.438100  0.278900  0.256600  1.0
  C  C1292  1  0.561900  0.721100  0.256600  1.0
  C  C1293  1  0.840800  0.561900  0.923267  1.0
  C  C1294  1  0.721100  0.159200  0.589933  1.0
  C  C1295  1  0.278900  0.840800  0.589933  1.0
  C  C1296  1  0.159200  0.438100  0.923267  1.0
  C  C1297  1  0.278900  0.438100  0.743400  1.0
  C  C1298  1  0.561900  0.840800  0.076733  1.0
  C  C1299  1  0.159200  0.721100  0.410067  1.0
  C  C1300  1  0.840800  0.278900  0.410067  1.0
  C  C1301  1  0.438100  0.159200  0.076733  1.0
  C  C1302  1  0.721100  0.561900  0.743400  1.0
  C  C1303  1  0.424100  0.278400  0.231500  1.0
  C  C1304  1  0.575900  0.721600  0.231500  1.0
  C  C1305  1  0.854300  0.575900  0.898167  1.0
  C  C1306  1  0.721600  0.145700  0.564833  1.0
  C  C1307  1  0.278400  0.854300  0.564833  1.0
  C  C1308  1  0.145700  0.424100  0.898167  1.0
  C  C1309  1  0.278400  0.424100  0.768500  1.0
  C  C1310  1  0.575900  0.854300  0.101833  1.0
  C  C1311  1  0.145700  0.721600  0.435167  1.0
  C  C1312  1  0.854300  0.278400  0.435167  1.0
  C  C1313  1  0.424100  0.145700  0.101833  1.0
  C  C1314  1  0.721600  0.575900  0.768500  1.0
  C  C1315  1  0.453000  0.341300  0.218400  1.0
  C  C1316  1  0.547000  0.658700  0.218400  1.0
  C  C1317  1  0.888300  0.547000  0.885067  1.0
  C  C1318  1  0.658700  0.111700  0.551733  1.0
  C  C1319  1  0.341300  0.888300  0.551733  1.0
  C  C1320  1  0.111700  0.453000  0.885067  1.0
  C  C1321  1  0.341300  0.453000  0.781600  1.0
  C  C1322  1  0.547000  0.888300  0.114933  1.0
  C  C1323  1  0.111700  0.658700  0.448267  1.0
  C  C1324  1  0.888300  0.341300  0.448267  1.0
  C  C1325  1  0.453000  0.111700  0.114933  1.0
  C  C1326  1  0.658700  0.547000  0.781600  1.0
  C  C1327  1  0.495900  0.404800  0.230400  1.0
  C  C1328  1  0.504100  0.595200  0.230400  1.0
  C  C1329  1  0.908900  0.504100  0.897067  1.0
  C  C1330  1  0.595200  0.091100  0.563733  1.0
  C  C1331  1  0.404800  0.908900  0.563733  1.0
  C  C1332  1  0.091100  0.495900  0.897067  1.0
  C  C1333  1  0.404800  0.495900  0.769600  1.0
  C  C1334  1  0.504100  0.908900  0.102933  1.0
  C  C1335  1  0.091100  0.595200  0.436267  1.0
  C  C1336  1  0.908900  0.404800  0.436267  1.0
  C  C1337  1  0.495900  0.091100  0.102933  1.0
  C  C1338  1  0.595200  0.504100  0.769600  1.0
  C  C1339  1  0.379300  0.209500  0.218200  1.0
  C  C1340  1  0.620700  0.790500  0.218200  1.0
  C  C1341  1  0.830200  0.620700  0.884867  1.0
  C  C1342  1  0.790500  0.169800  0.551533  1.0
  C  C1343  1  0.209500  0.830200  0.551533  1.0
  C  C1344  1  0.169800  0.379300  0.884867  1.0
  C  C1345  1  0.209500  0.379300  0.781800  1.0
  C  C1346  1  0.620700  0.830200  0.115133  1.0
  C  C1347  1  0.169800  0.790500  0.448467  1.0
  C  C1348  1  0.830200  0.209500  0.448467  1.0
  C  C1349  1  0.379300  0.169800  0.115133  1.0
  C  C1350  1  0.790500  0.620700  0.781800  1.0
  C  C1351  1  0.355500  0.539300  0.335180  1.0
  C  C1352  1  0.644500  0.460700  0.335180  1.0
  C  C1353  1  0.183800  0.644500  0.001847  1.0
  C  C1354  1  0.460700  0.816200  0.668513  1.0
  C  C1355  1  0.539300  0.183800  0.668513  1.0
  C  C1356  1  0.816200  0.355500  0.001847  1.0
  C  C1357  1  0.539300  0.355500  0.664820  1.0
  C  C1358  1  0.644500  0.183800  0.998153  1.0
  C  C1359  1  0.816200  0.460700  0.331487  1.0
  C  C1360  1  0.183800  0.539300  0.331487  1.0
  C  C1361  1  0.355500  0.816200  0.998153  1.0
  C  C1362  1  0.460700  0.644500  0.664820  1.0
  S  S1363  1  0.806600  0.561600  0.462310  1
  S  S1364  1  0.193400  0.438400  0.462310  1
  S  S1365  1  0.755000  0.193400  0.128977  1
  S  S1366  1  0.438400  0.245000  0.795643  1
  S  S1367  1  0.561600  0.755000  0.795643  1
  S  S1368  1  0.245000  0.806600  0.128977  1
  S  S1369  1  0.561600  0.806600  0.537690  1
  S  S1370  1  0.193400  0.755000  0.871023  1
  S  S1371  1  0.245000  0.438400  0.204357  1
  S  S1372  1  0.755000  0.561600  0.204357  1
  S  S1373  1  0.806600  0.245000  0.871023  1
  S  S1374  1  0.438400  0.193400  0.537690  1
  S  S1375  1  0.500000  0.500000  0.481300  1
  S  S1376  1  1.000000  0.500000  0.147967  1
  S  S1377  1  0.500000  0.000000  0.814633  1
  S  S1378  1  0.500000  0.500000  0.518700  1
  S  S1379  1  0.500000  0.000000  0.852033  1
  S  S1380  1  1.000000  0.500000  0.185367  1
  S  S1381  1  0.706700  0.946800  0.294000  1
  S  S1382  1  0.293300  0.053200  0.294000  1
  S  S1383  1  0.240100  0.293300  0.960667  1
  S  S1384  1  0.053200  0.759900  0.627333  1
  S  S1385  1  0.946800  0.240100  0.627333  1
  S  S1386  1  0.759900  0.706700  0.960667  1
  S  S1387  1  0.946800  0.706700  0.706000  1
  S  S1388  1  0.293300  0.240100  0.039333  1
  S  S1389  1  0.759900  0.053200  0.372667  1
  S  S1390  1  0.240100  0.946800  0.372667  1
  S  S1391  1  0.706700  0.759900  0.039333  1
  S  S1392  1  0.053200  0.293300  0.706000  1
  S  S1393  1  0.428700  0.527800  0.347010  1.0
  S  S1394  1  0.571300  0.472200  0.347010  1.0
  S  S1395  1  0.099100  0.571300  0.013677  1.0
  S  S1396  1  0.472200  0.900900  0.680343  1.0
  S  S1397  1  0.527800  0.099100  0.680343  1.0
  S  S1398  1  0.900900  0.428700  0.013677  1.0
  S  S1399  1  0.527800  0.428700  0.652990  1.0
  S  S1400  1  0.571300  0.099100  0.986323  1.0
  S  S1401  1  0.900900  0.472200  0.319657  1.0
  S  S1402  1  0.099100  0.527800  0.319657  1.0
  S  S1403  1  0.428700  0.900900  0.986323  1.0
  S  S1404  1  0.472200  0.571300  0.652990  1.0
  N  N1405  1  0.781900  0.720400  0.412220  1.0
  N  N1406  1  0.218100  0.279600  0.412220  1.0
  N  N1407  1  0.938500  0.218100  0.078887  1.0
  N  N1408  1  0.279600  0.061500  0.745553  1.0
  N  N1409  1  0.720400  0.938500  0.745553  1.0
  N  N1410  1  0.061500  0.781900  0.078887  1.0
  N  N1411  1  0.720400  0.781900  0.587780  1.0
  N  N1412  1  0.218100  0.938500  0.921113  1.0
  N  N1413  1  0.061500  0.279600  0.254447  1.0
  N  N1414  1  0.938500  0.720400  0.254447  1.0
  N  N1415  1  0.781900  0.061500  0.921113  1.0
  N  N1416  1  0.279600  0.218100  0.587780  1.0
  N  N1417  1  0.642200  0.633400  0.408010  1.0
  N  N1418  1  0.357800  0.366600  0.408010  1.0
  N  N1419  1  0.991200  0.357800  0.074677  1.0
  N  N1420  1  0.366600  0.008800  0.741343  1.0
  N  N1421  1  0.633400  0.991200  0.741343  1.0
  N  N1422  1  0.008800  0.642200  0.074677  1.0
  N  N1423  1  0.633400  0.642200  0.591990  1.0
  N  N1424  1  0.357800  0.991200  0.925323  1.0
  N  N1425  1  0.008800  0.366600  0.258657  1.0
  N  N1426  1  0.991200  0.633400  0.258657  1.0
  N  N1427  1  0.642200  0.008800  0.925323  1.0
  N  N1428  1  0.366600  0.357800  0.591990  1.0
  N  N1429  1  0.614800  0.760800  0.410140  1.0
  N  N1430  1  0.385200  0.239200  0.410140  1.0
  N  N1431  1  0.146000  0.385200  0.076807  1.0
  N  N1432  1  0.239200  0.854000  0.743473  1.0
  N  N1433  1  0.760800  0.146000  0.743473  1.0
  N  N1434  1  0.854000  0.614800  0.076807  1.0
  N  N1435  1  0.760800  0.614800  0.589860  1.0
  N  N1436  1  0.385200  0.146000  0.923193  1.0
  N  N1437  1  0.854000  0.239200  0.256527  1.0
  N  N1438  1  0.146000  0.760800  0.256527  1.0
  N  N1439  1  0.614800  0.854000  0.923193  1.0
  N  N1440  1  0.239200  0.385200  0.589860  1.0
  N  N1441  1  0.677800  0.729800  0.448500  1.0
  N  N1442  1  0.322200  0.270200  0.448500  1.0
  N  N1443  1  0.052000  0.322200  0.115167  1.0
  N  N1444  1  0.270200  0.948000  0.781833  1.0
  N  N1445  1  0.729800  0.052000  0.781833  1.0
  N  N1446  1  0.948000  0.677800  0.115167  1.0
  N  N1447  1  0.729800  0.677800  0.551500  1.0
  N  N1448  1  0.322200  0.052000  0.884833  1.0
  N  N1449  1  0.948000  0.270200  0.218167  1.0
  N  N1450  1  0.052000  0.729800  0.218167  1.0
  N  N1451  1  0.677800  0.948000  0.884833  1.0
  N  N1452  1  0.270200  0.322200  0.551500  1.0
  N  N1453  1  0.764600  0.857000  0.411200  1.0
  N  N1454  1  0.235400  0.143000  0.411200  1.0
  N  N1455  1  0.092400  0.235400  0.077867  1.0
  N  N1456  1  0.143000  0.907600  0.744533  1.0
  N  N1457  1  0.857000  0.092400  0.744533  1.0
  N  N1458  1  0.907600  0.764600  0.077867  1.0
  N  N1459  1  0.857000  0.764600  0.588800  1.0
  N  N1460  1  0.235400  0.092400  0.922133  1.0
  N  N1461  1  0.907600  0.143000  0.255467  1.0
  N  N1462  1  0.092400  0.857000  0.255467  1.0
  N  N1463  1  0.764600  0.907600  0.922133  1.0
  N  N1464  1  0.143000  0.235400  0.588800  1.0
  N  N1465  1  0.722200  0.771000  0.372200  1.0
  N  N1466  1  0.277800  0.229000  0.372200  1.0
  N  N1467  1  0.048800  0.277800  0.038867  1.0
  N  N1468  1  0.229000  0.951200  0.705533  1.0
  N  N1469  1  0.771000  0.048800  0.705533  1.0
  N  N1470  1  0.951200  0.722200  0.038867  1.0
  N  N1471  1  0.771000  0.722200  0.627800  1.0
  N  N1472  1  0.277800  0.048800  0.961133  1.0
  N  N1473  1  0.951200  0.229000  0.294467  1.0
  N  N1474  1  0.048800  0.771000  0.294467  1.0
  N  N1475  1  0.722200  0.951200  0.961133  1.0
  N  N1476  1  0.229000  0.277800  0.627800  1.0
  N  N1477  1  0.595800  0.587100  0.295290  1.0
  N  N1478  1  0.404200  0.412900  0.295290  1.0
  N  N1479  1  0.991300  0.404200  0.961957  1.0
  N  N1480  1  0.412900  0.008700  0.628623  1.0
  N  N1481  1  0.587100  0.991300  0.628623  1.0
  N  N1482  1  0.008700  0.595800  0.961957  1.0
  N  N1483  1  0.587100  0.595800  0.704710  1.0
  N  N1484  1  0.404200  0.991300  0.038043  1.0
  N  N1485  1  0.008700  0.412900  0.371377  1.0
  N  N1486  1  0.991300  0.587100  0.371377  1.0
  N  N1487  1  0.595800  0.008700  0.038043  1.0
  N  N1488  1  0.412900  0.404200  0.704710  1.0
  N  N1489  1  0.547100  0.474400  0.268900  1.0
  N  N1490  1  0.452900  0.525600  0.268900  1.0
  N  N1491  1  0.927300  0.452900  0.935567  1.0
  N  N1492  1  0.525600  0.072700  0.602233  1.0
  N  N1493  1  0.474400  0.927300  0.602233  1.0
  N  N1494  1  0.072700  0.547100  0.935567  1.0
  N  N1495  1  0.474400  0.547100  0.731100  1.0
  N  N1496  1  0.452900  0.927300  0.064433  1.0
  N  N1497  1  0.072700  0.525600  0.397767  1.0
  N  N1498  1  0.927300  0.474400  0.397767  1.0
  N  N1499  1  0.547100  0.072700  0.064433  1.0
  N  N1500  1  0.525600  0.452900  0.731100  1.0
  O  O1501  1  0.801200  0.624100  0.462800  1
  O  O1502  1  0.198800  0.375900  0.462800  1
  O  O1503  1  0.822900  0.198800  0.129467  1
  O  O1504  1  0.375900  0.177100  0.796133  1
  O  O1505  1  0.624100  0.822900  0.796133  1
  O  O1506  1  0.177100  0.801200  0.129467  1
  O  O1507  1  0.624100  0.801200  0.537200  1
  O  O1508  1  0.198800  0.822900  0.870533  1
  O  O1509  1  0.177100  0.375900  0.203867  1
  O  O1510  1  0.822900  0.624100  0.203867  1
  O  O1511  1  0.801200  0.177100  0.870533  1
  O  O1512  1  0.375900  0.198800  0.537200  1
  O  O1513  1  0.762500  0.509200  0.479710  1
  O  O1514  1  0.237500  0.490800  0.479710  1
  O  O1515  1  0.746700  0.237500  0.146377  1
  O  O1516  1  0.490800  0.253300  0.813043  1
  O  O1517  1  0.509200  0.746700  0.813043  1
  O  O1518  1  0.253300  0.762500  0.146377  1
  O  O1519  1  0.509200  0.762500  0.520290  1
  O  O1520  1  0.237500  0.746700  0.853623  1
  O  O1521  1  0.253300  0.490800  0.186957  1
  O  O1522  1  0.746700  0.509200  0.186957  1
  O  O1523  1  0.762500  0.253300  0.853623  1
  O  O1524  1  0.490800  0.237500  0.520290  1
  O  O1525  1  0.808900  0.536300  0.438140  1
  O  O1526  1  0.191100  0.463700  0.438140  1
  O  O1527  1  0.727400  0.191100  0.104807  1
  O  O1528  1  0.463700  0.272600  0.771473  1
  O  O1529  1  0.536300  0.727400  0.771473  1
  O  O1530  1  0.272600  0.808900  0.104807  1
  O  O1531  1  0.536300  0.808900  0.561860  1
  O  O1532  1  0.191100  0.727400  0.895193  1
  O  O1533  1  0.272600  0.463700  0.228527  1
  O  O1534  1  0.727400  0.536300  0.228527  1
  O  O1535  1  0.808900  0.272600  0.895193  1
  O  O1536  1  0.463700  0.191100  0.561860  1
  O  O1537  1  0.513400  0.441200  0.477200  1
  O  O1538  1  0.486600  0.558800  0.477200  1
  O  O1539  1  0.927800  0.486600  0.143867  1
  O  O1540  1  0.558800  0.072200  0.810533  1
  O  O1541  1  0.441200  0.927800  0.810533  1
  O  O1542  1  0.072200  0.513400  0.143867  1
  O  O1543  1  0.441200  0.513400  0.522800  1
  O  O1544  1  0.486600  0.927800  0.856133  1
  O  O1545  1  0.072200  0.558800  0.189467  1
  O  O1546  1  0.927800  0.441200  0.189467  1
  O  O1547  1  0.513400  0.072200  0.856133  1
  O  O1548  1  0.558800  0.486600  0.522800  1
  O  O1549  1  0.427300  0.479100  0.474600  1
  O  O1550  1  0.572700  0.520900  0.474600  1
  O  O1551  1  0.051800  0.572700  0.141267  1
  O  O1552  1  0.520900  0.948200  0.807933  1
  O  O1553  1  0.479100  0.051800  0.807933  1
  O  O1554  1  0.948200  0.427300  0.141267  1
  O  O1555  1  0.479100  0.427300  0.525400  1
  O  O1556  1  0.572700  0.051800  0.858733  1
  O  O1557  1  0.948200  0.520900  0.192067  1
  O  O1558  1  0.051800  0.479100  0.192067  1
  O  O1559  1  0.427300  0.948200  0.858733  1
  O  O1560  1  0.520900  0.572700  0.525400  1
  O  O1561  1  0.449400  0.435000  0.474000  1
  O  O1562  1  0.550600  0.565000  0.474000  1
  O  O1563  1  0.985600  0.550600  0.140667  1
  O  O1564  1  0.565000  0.014400  0.807333  1
  O  O1565  1  0.435000  0.985600  0.807333  1
  O  O1566  1  0.014400  0.449400  0.140667  1
  O  O1567  1  0.435000  0.449400  0.526000  1
  O  O1568  1  0.550600  0.985600  0.859333  1
  O  O1569  1  0.014400  0.565000  0.192667  1
  O  O1570  1  0.985600  0.435000  0.192667  1
  O  O1571  1  0.449400  0.014400  0.859333  1
  O  O1572  1  0.565000  0.550600  0.526000  1
  O  O1573  1  0.778400  0.964000  0.295500  1
  O  O1574  1  0.221600  0.036000  0.295500  1
  O  O1575  1  0.185600  0.221600  0.962167  1
  O  O1576  1  0.036000  0.814400  0.628833  1
  O  O1577  1  0.964000  0.185600  0.628833  1
  O  O1578  1  0.814400  0.778400  0.962167  1
  O  O1579  1  0.964000  0.778400  0.704500  1
  O  O1580  1  0.221600  0.185600  0.037833  1
  O  O1581  1  0.814400  0.036000  0.371167  1
  O  O1582  1  0.185600  0.964000  0.371167  1
  O  O1583  1  0.778400  0.814400  0.037833  1
  O  O1584  1  0.036000  0.221600  0.704500  1
  O  O1585  1  0.656900  0.872900  0.295400  1
  O  O1586  1  0.343100  0.127100  0.295400  1
  O  O1587  1  0.216000  0.343100  0.962067  1
  O  O1588  1  0.127100  0.784000  0.628733  1
  O  O1589  1  0.872900  0.216000  0.628733  1
  O  O1590  1  0.784000  0.656900  0.962067  1
  O  O1591  1  0.872900  0.656900  0.704600  1
  O  O1592  1  0.343100  0.216000  0.037933  1
  O  O1593  1  0.784000  0.127100  0.371267  1
  O  O1594  1  0.216000  0.872900  0.371267  1
  O  O1595  1  0.656900  0.784000  0.037933  1
  O  O1596  1  0.127100  0.343100  0.704600  1
  O  O1597  1  0.691500  0.984700  0.275800  1
  O  O1598  1  0.308500  0.015300  0.275800  1
  O  O1599  1  0.293200  0.308500  0.942467  1
  O  O1600  1  0.015300  0.706800  0.609133  1
  O  O1601  1  0.984700  0.293200  0.609133  1
  O  O1602  1  0.706800  0.691500  0.942467  1
  O  O1603  1  0.984700  0.691500  0.724200  1
  O  O1604  1  0.308500  0.293200  0.057533  1
  O  O1605  1  0.706800  0.015300  0.390867  1
  O  O1606  1  0.293200  0.984700  0.390867  1
  O  O1607  1  0.691500  0.706800  0.057533  1
  O  O1608  1  0.015300  0.308500  0.724200  1
  O  O1609  1  0.473100  0.548700  0.324090  1.0
  O  O1610  1  0.526900  0.451300  0.324090  1.0
  O  O1611  1  0.075600  0.526900  0.990757  1.0
  O  O1612  1  0.451300  0.924400  0.657423  1.0
  O  O1613  1  0.548700  0.075600  0.657423  1.0
  O  O1614  1  0.924400  0.473100  0.990757  1.0
  O  O1615  1  0.548700  0.473100  0.675910  1.0
  O  O1616  1  0.526900  0.075600  0.009243  1.0
  O  O1617  1  0.924400  0.451300  0.342577  1.0
  O  O1618  1  0.075600  0.548700  0.342577  1.0
  O  O1619  1  0.473100  0.924400  0.009243  1.0
  O  O1620  1  0.451300  0.526900  0.675910  1.0
  O  O1621  1  0.393900  0.455000  0.352930  1.0
  O  O1622  1  0.606100  0.545000  0.352930  1.0
  O  O1623  1  0.061100  0.606100  0.019597  1.0
  O  O1624  1  0.545000  0.938900  0.686263  1.0
  O  O1625  1  0.455000  0.061100  0.686263  1.0
  O  O1626  1  0.938900  0.393900  0.019597  1.0
  O  O1627  1  0.455000  0.393900  0.647070  1.0
  O  O1628  1  0.606100  0.061100  0.980403  1.0
  O  O1629  1  0.938900  0.545000  0.313737  1.0
  O  O1630  1  0.061100  0.455000  0.313737  1.0
  O  O1631  1  0.393900  0.938900  0.980403  1.0
  O  O1632  1  0.545000  0.606100  0.647070  1.0
  O  O1633  1  0.452900  0.576600  0.366730  1.0
  O  O1634  1  0.547100  0.423400  0.366730  1.0
  O  O1635  1  0.123700  0.547100  0.033397  1.0
  O  O1636  1  0.423400  0.876300  0.700063  1.0
  O  O1637  1  0.576600  0.123700  0.700063  1.0
  O  O1638  1  0.876300  0.452900  0.033397  1.0
  O  O1639  1  0.576600  0.452900  0.633270  1.0
  O  O1640  1  0.547100  0.123700  0.966603  1.0
  O  O1641  1  0.876300  0.423400  0.299937  1.0
  O  O1642  1  0.123700  0.576600  0.299937  1.0
  O  O1643  1  0.452900  0.876300  0.966603  1.0
  O  O1644  1  0.423400  0.547100  0.633270  1.0
  F  F1645  1  0.909300  0.539700  0.475060  1
  F  F1646  1  0.090700  0.460300  0.475060  1
  F  F1647  1  0.630400  0.090700  0.141727  1
  F  F1648  1  0.460300  0.369600  0.808393  1
  F  F1649  1  0.539700  0.630400  0.808393  1
  F  F1650  1  0.369600  0.909300  0.141727  1
  F  F1651  1  0.539700  0.909300  0.524940  1
  F  F1652  1  0.090700  0.630400  0.858273  1
  F  F1653  1  0.369600  0.460300  0.191607  1
  F  F1654  1  0.630400  0.539700  0.191607  1
  F  F1655  1  0.909300  0.369600  0.858273  1
  F  F1656  1  0.460300  0.090700  0.524940  1
  F  F1657  1  0.943500  0.640900  0.459680  1
  F  F1658  1  0.056500  0.359100  0.459680  1
  F  F1659  1  0.697400  0.056500  0.126347  1
  F  F1660  1  0.359100  0.302600  0.793013  1
  F  F1661  1  0.640900  0.697400  0.793013  1
  F  F1662  1  0.302600  0.943500  0.126347  1
  F  F1663  1  0.640900  0.943500  0.540320  1
  F  F1664  1  0.056500  0.697400  0.873653  1
  F  F1665  1  0.302600  0.359100  0.206987  1
  F  F1666  1  0.697400  0.640900  0.206987  1
  F  F1667  1  0.943500  0.302600  0.873653  1
  F  F1668  1  0.359100  0.056500  0.540320  1
  F  F1669  1  0.902600  0.618000  0.496480  1
  F  F1670  1  0.097400  0.382000  0.496480  1
  F  F1671  1  0.715400  0.097400  0.163147  1
  F  F1672  1  0.382000  0.284600  0.829813  1
  F  F1673  1  0.618000  0.715400  0.829813  1
  F  F1674  1  0.284600  0.902600  0.163147  1
  F  F1675  1  0.618000  0.902600  0.503520  1
  F  F1676  1  0.097400  0.715400  0.836853  1
  F  F1677  1  0.284600  0.382000  0.170187  1
  F  F1678  1  0.715400  0.618000  0.170187  1
  F  F1679  1  0.902600  0.284600  0.836853  1
  F  F1680  1  0.382000  0.097400  0.503520  1
  F  F1681  1  0.442000  0.449000  0.475100  1
  F  F1682  1  0.558000  0.551000  0.475100  1
  F  F1683  1  0.007000  0.558000  0.141767  1
  F  F1684  1  0.551000  0.993000  0.808433  1
  F  F1685  1  0.449000  0.007000  0.808433  1
  F  F1686  1  0.993000  0.442000  0.141767  1
  F  F1687  1  0.449000  0.442000  0.524900  1
  F  F1688  1  0.558000  0.007000  0.858233  1
  F  F1689  1  0.993000  0.551000  0.191567  1
  F  F1690  1  0.007000  0.449000  0.191567  1
  F  F1691  1  0.442000  0.993000  0.858233  1
  F  F1692  1  0.551000  0.558000  0.524900  1
  F  F1693  1  0.551000  0.482900  0.478000  1
  F  F1694  1  0.449000  0.517100  0.478000  1
  F  F1695  1  0.931900  0.449000  0.144667  1
  F  F1696  1  0.517100  0.068100  0.811333  1
  F  F1697  1  0.482900  0.931900  0.811333  1
  F  F1698  1  0.068100  0.551000  0.144667  1
  F  F1699  1  0.482900  0.551000  0.522000  1
  F  F1700  1  0.449000  0.931900  0.855333  1
  F  F1701  1  0.068100  0.517100  0.188667  1
  F  F1702  1  0.931900  0.482900  0.188667  1
  F  F1703  1  0.551000  0.068100  0.855333  1
  F  F1704  1  0.517100  0.449000  0.522000  1
  F  F1705  1  0.483500  0.441800  0.475700  1
  F  F1706  1  0.516500  0.558200  0.475700  1
  F  F1707  1  0.958300  0.516500  0.142367  1
  F  F1708  1  0.558200  0.041700  0.809033  1
  F  F1709  1  0.441800  0.958300  0.809033  1
  F  F1710  1  0.041700  0.483500  0.142367  1
  F  F1711  1  0.441800  0.483500  0.524300  1
  F  F1712  1  0.516500  0.958300  0.857633  1
  F  F1713  1  0.041700  0.558200  0.190967  1
  F  F1714  1  0.958300  0.441800  0.190967  1
  F  F1715  1  0.483500  0.041700  0.857633  1
  F  F1716  1  0.558200  0.516500  0.524300  1
  F  F1717  1  0.735700  0.049500  0.325100  1
  F  F1718  1  0.264300  0.950500  0.325100  1
  F  F1719  1  0.313800  0.264300  0.991767  1
  F  F1720  1  0.950500  0.686200  0.658433  1
  F  F1721  1  0.049500  0.313800  0.658433  1
  F  F1722  1  0.686200  0.735700  0.991767  1
  F  F1723  1  0.049500  0.735700  0.674900  1
  F  F1724  1  0.264300  0.313800  0.008233  1
  F  F1725  1  0.686200  0.950500  0.341567  1
  F  F1726  1  0.313800  0.049500  0.341567  1
  F  F1727  1  0.735700  0.686200  0.008233  1
  F  F1728  1  0.950500  0.264300  0.674900  1
  F  F1729  1  0.704000  0.950200  0.342100  1
  F  F1730  1  0.296000  0.049800  0.342100  1
  F  F1731  1  0.246200  0.296000  0.008767  1
  F  F1732  1  0.049800  0.753800  0.675433  1
  F  F1733  1  0.950200  0.246200  0.675433  1
  F  F1734  1  0.753800  0.704000  0.008767  1
  F  F1735  1  0.950200  0.704000  0.657900  1
  F  F1736  1  0.296000  0.246200  0.991233  1
  F  F1737  1  0.753800  0.049800  0.324567  1
  F  F1738  1  0.246200  0.950200  0.324567  1
  F  F1739  1  0.704000  0.753800  0.991233  1
  F  F1740  1  0.049800  0.296000  0.657900  1
  F  F1741  1  0.628000  0.969700  0.324600  1
  F  F1742  1  0.372000  0.030300  0.324600  1
  F  F1743  1  0.341700  0.372000  0.991267  1
  F  F1744  1  0.030300  0.658300  0.657933  1
  F  F1745  1  0.969700  0.341700  0.657933  1
  F  F1746  1  0.658300  0.628000  0.991267  1
  F  F1747  1  0.969700  0.628000  0.675400  1
  F  F1748  1  0.372000  0.341700  0.008733  1
  F  F1749  1  0.658300  0.030300  0.342067  1
  F  F1750  1  0.341700  0.969700  0.342067  1
  F  F1751  1  0.628000  0.658300  0.008733  1
  F  F1752  1  0.030300  0.372000  0.675400  1
  F  F1753  1  0.380400  0.606400  0.327430  1.0
  F  F1754  1  0.619600  0.393600  0.327430  1.0
  F  F1755  1  0.226000  0.619600  0.994097  1.0
  F  F1756  1  0.393600  0.774000  0.660763  1.0
  F  F1757  1  0.606400  0.226000  0.660763  1.0
  F  F1758  1  0.774000  0.380400  0.994097  1.0
  F  F1759  1  0.606400  0.380400  0.672570  1.0
  F  F1760  1  0.619600  0.226000  0.005903  1.0
  F  F1761  1  0.774000  0.393600  0.339237  1.0
  F  F1762  1  0.226000  0.606400  0.339237  1.0
  F  F1763  1  0.380400  0.774000  0.005903  1.0
  F  F1764  1  0.393600  0.619600  0.672570  1.0
  F  F1765  1  0.324100  0.492300  0.316510  1.0
  F  F1766  1  0.675900  0.507700  0.316510  1.0
  F  F1767  1  0.168200  0.675900  0.983177  1.0
  F  F1768  1  0.507700  0.831800  0.649843  1.0
  F  F1769  1  0.492300  0.168200  0.649843  1.0
  F  F1770  1  0.831800  0.324100  0.983177  1.0
  F  F1771  1  0.492300  0.324100  0.683490  1.0
  F  F1772  1  0.675900  0.168200  0.016823  1.0
  F  F1773  1  0.831800  0.507700  0.350157  1.0
  F  F1774  1  0.168200  0.492300  0.350157  1.0
  F  F1775  1  0.324100  0.831800  0.016823  1.0
  F  F1776  1  0.507700  0.675900  0.683490  1.0
  F  F1777  1  0.312300  0.523300  0.355120  1.0
  F  F1778  1  0.687700  0.476700  0.355120  1.0
  F  F1779  1  0.211000  0.687700  0.021787  1.0
  F  F1780  1  0.476700  0.789000  0.688453  1.0
  F  F1781  1  0.523300  0.211000  0.688453  1.0
  F  F1782  1  0.789000  0.312300  0.021787  1.0
  F  F1783  1  0.523300  0.312300  0.644880  1.0
  F  F1784  1  0.687700  0.211000  0.978213  1.0
  F  F1785  1  0.789000  0.476700  0.311547  1.0
  F  F1786  1  0.211000  0.523300  0.311547  1.0
  F  F1787  1  0.312300  0.789000  0.978213  1.0
  F  F1788  1  0.476700  0.687700  0.644880  1.0
