# generated using pymatgen
data_Ni8H381C394S21N65(O7F8)9
_symmetry_space_group_name_H-M   'P 1'
_cell_length_a   24.58100000
_cell_length_b   24.58100000
_cell_length_c   41.33000000
_cell_angle_alpha   90.00000000
_cell_angle_beta   90.00000000
_cell_angle_gamma   120.00000000
_symmetry_Int_Tables_number   1
_chemical_formula_structural   Ni8H381C394S21N65(O7F8)9
_chemical_formula_sum   'Ni16 H762 C788 S42 N130 O126 F144'
_cell_volume   21626.94274931
_cell_formula_units_Z   2
loop_
 _symmetry_equiv_pos_site_id
 _symmetry_equiv_pos_as_xyz
  1  'x, y, z'
loop_
 _atom_site_type_symbol
 _atom_site_label
 _atom_site_symmetry_multiplicity
 _atom_site_fract_x
 _atom_site_fract_y
 _atom_site_fract_z
 _atom_site_occupancy
  Ni  Ni1  1  0.333333  0.666667  0.081020  1
  Ni  Ni2  1  0.666667  0.333333  0.918980  1
  Ni  Ni3  1  0.666667  0.333333  0.581020  1
  Ni  Ni4  1  0.333333  0.666667  0.418980  1
  Ni  Ni5  1  0.597940  0.789820  0.891380  1.0
  Ni  Ni6  1  0.191880  0.402060  0.891380  1.0
  Ni  Ni7  1  0.210180  0.808120  0.891380  1.0
  Ni  Ni8  1  0.789820  0.597940  0.108620  1.0
  Ni  Ni9  1  0.402060  0.191880  0.108620  1.0
  Ni  Ni10  1  0.808120  0.210180  0.108620  1.0
  Ni  Ni11  1  0.808120  0.210180  0.391380  1.0
  Ni  Ni12  1  0.402060  0.191880  0.391380  1.0
  Ni  Ni13  1  0.789820  0.597940  0.391380  1.0
  Ni  Ni14  1  0.597940  0.789820  0.608620  1.0
  Ni  Ni15  1  0.210180  0.808120  0.608620  1.0
  Ni  Ni16  1  0.191880  0.402060  0.608620  1.0
  H  H17  1  0.468400  0.956700  0.969700  1
  H  H18  1  0.488300  0.531600  0.969700  1
  H  H19  1  0.043300  0.511700  0.969700  1
  H  H20  1  0.956700  0.468400  0.030300  1
  H  H21  1  0.531600  0.488300  0.030300  1
  H  H22  1  0.511700  0.043300  0.030300  1
  H  H23  1  0.511700  0.043300  0.469700  1
  H  H24  1  0.531600  0.488300  0.469700  1
  H  H25  1  0.956700  0.468400  0.469700  1
  H  H26  1  0.468400  0.956700  0.530300  1
  H  H27  1  0.043300  0.511700  0.530300  1
  H  H28  1  0.488300  0.531600  0.530300  1
  H  H29  1  0.511600  0.939400  0.991400  1
  H  H30  1  0.427800  0.488400  0.991400  1
  H  H31  1  0.060600  0.572200  0.991400  1
  H  H32  1  0.939400  0.511600  0.008600  1
  H  H33  1  0.488400  0.427800  0.008600  1
  H  H34  1  0.572200  0.060600  0.008600  1
  H  H35  1  0.572200  0.060600  0.491400  1
  H  H36  1  0.488400  0.427800  0.491400  1
  H  H37  1  0.939400  0.511600  0.491400  1
  H  H38  1  0.511600  0.939400  0.508600  1
  H  H39  1  0.060600  0.572200  0.508600  1
  H  H40  1  0.427800  0.488400  0.508600  1
  H  H41  1  0.447800  0.931700  0.005900  1
  H  H42  1  0.483900  0.552200  0.005900  1
  H  H43  1  0.068300  0.516100  0.005900  1
  H  H44  1  0.931700  0.447800  0.994100  1
  H  H45  1  0.552200  0.483900  0.994100  1
  H  H46  1  0.516100  0.068300  0.994100  1
  H  H47  1  0.516100  0.068300  0.505900  1
  H  H48  1  0.552200  0.483900  0.505900  1
  H  H49  1  0.931700  0.447800  0.505900  1
  H  H50  1  0.447800  0.931700  0.494100  1
  H  H51  1  0.068300  0.516100  0.494100  1
  H  H52  1  0.483900  0.552200  0.494100  1
  H  H53  1  0.536900  0.486800  0.849400  1
  H  H54  1  0.949900  0.463100  0.849400  1
  H  H55  1  0.513200  0.050100  0.849400  1
  H  H56  1  0.486800  0.536900  0.150600  1
  H  H57  1  0.463100  0.949900  0.150600  1
  H  H58  1  0.050100  0.513200  0.150600  1
  H  H59  1  0.050100  0.513200  0.349400  1
  H  H60  1  0.463100  0.949900  0.349400  1
  H  H61  1  0.486800  0.536900  0.349400  1
  H  H62  1  0.536900  0.486800  0.650600  1
  H  H63  1  0.513200  0.050100  0.650600  1
  H  H64  1  0.949900  0.463100  0.650600  1
  H  H65  1  0.584000  0.510300  0.819200  1
  H  H66  1  0.926300  0.416000  0.819200  1
  H  H67  1  0.489700  0.073700  0.819200  1
  H  H68  1  0.510300  0.584000  0.180800  1
  H  H69  1  0.416000  0.926300  0.180800  1
  H  H70  1  0.073700  0.489700  0.180800  1
  H  H71  1  0.073700  0.489700  0.319200  1
  H  H72  1  0.416000  0.926300  0.319200  1
  H  H73  1  0.510300  0.584000  0.319200  1
  H  H74  1  0.584000  0.510300  0.680800  1
  H  H75  1  0.489700  0.073700  0.680800  1
  H  H76  1  0.926300  0.416000  0.680800  1
  H  H77  1  0.557300  0.553300  0.832900  1
  H  H78  1  0.996000  0.442700  0.832900  1
  H  H79  1  0.446700  0.004000  0.832900  1
  H  H80  1  0.553300  0.557300  0.167100  1
  H  H81  1  0.442700  0.996000  0.167100  1
  H  H82  1  0.004000  0.446700  0.167100  1
  H  H83  1  0.004000  0.446700  0.332900  1
  H  H84  1  0.442700  0.996000  0.332900  1
  H  H85  1  0.553300  0.557300  0.332900  1
  H  H86  1  0.557300  0.553300  0.667100  1
  H  H87  1  0.446700  0.004000  0.667100  1
  H  H88  1  0.996000  0.442700  0.667100  1
  H  H89  1  0.710700  0.834300  0.750000  1
  H  H90  1  0.123600  0.289300  0.750000  1
  H  H91  1  0.165700  0.876400  0.750000  1
  H  H92  1  0.834300  0.710700  0.250000  1
  H  H93  1  0.289300  0.123600  0.250000  1
  H  H94  1  0.876400  0.165700  0.250000  1
  H  H95  1  0.219100  0.411500  0.207400  1
  H  H96  1  0.192400  0.780900  0.207400  1
  H  H97  1  0.588500  0.807600  0.207400  1
  H  H98  1  0.411500  0.219100  0.792600  1
  H  H99  1  0.780900  0.192400  0.792600  1
  H  H100  1  0.807600  0.588500  0.792600  1
  H  H101  1  0.807600  0.588500  0.707400  1
  H  H102  1  0.780900  0.192400  0.707400  1
  H  H103  1  0.411500  0.219100  0.707400  1
  H  H104  1  0.219100  0.411500  0.292600  1
  H  H105  1  0.588500  0.807600  0.292600  1
  H  H106  1  0.192400  0.780900  0.292600  1
  H  H107  1  0.246300  0.466100  0.234000  1
  H  H108  1  0.219800  0.753700  0.234000  1
  H  H109  1  0.533900  0.780200  0.234000  1
  H  H110  1  0.466100  0.246300  0.766000  1
  H  H111  1  0.753700  0.219800  0.766000  1
  H  H112  1  0.780200  0.533900  0.766000  1
  H  H113  1  0.780200  0.533900  0.734000  1
  H  H114  1  0.753700  0.219800  0.734000  1
  H  H115  1  0.466100  0.246300  0.734000  1
  H  H116  1  0.246300  0.466100  0.266000  1
  H  H117  1  0.533900  0.780200  0.266000  1
  H  H118  1  0.219800  0.753700  0.266000  1
  H  H119  1  0.290100  0.441000  0.219600  1
  H  H120  1  0.150900  0.709900  0.219600  1
  H  H121  1  0.559000  0.849100  0.219600  1
  H  H122  1  0.441000  0.290100  0.780400  1
  H  H123  1  0.709900  0.150900  0.780400  1
  H  H124  1  0.849100  0.559000  0.780400  1
  H  H125  1  0.849100  0.559000  0.719600  1
  H  H126  1  0.709900  0.150900  0.719600  1
  H  H127  1  0.441000  0.290100  0.719600  1
  H  H128  1  0.290100  0.441000  0.280400  1
  H  H129  1  0.559000  0.849100  0.280400  1
  H  H130  1  0.150900  0.709900  0.280400  1
  H  H131  1  0.726500  0.822300  0.848800  1
  H  H132  1  0.095800  0.273500  0.848800  1
  H  H133  1  0.177700  0.904200  0.848800  1
  H  H134  1  0.822300  0.726500  0.151200  1
  H  H135  1  0.273500  0.095800  0.151200  1
  H  H136  1  0.904200  0.177700  0.151200  1
  H  H137  1  0.904200  0.177700  0.348800  1
  H  H138  1  0.273500  0.095800  0.348800  1
  H  H139  1  0.822300  0.726500  0.348800  1
  H  H140  1  0.726500  0.822300  0.651200  1
  H  H141  1  0.177700  0.904200  0.651200  1
  H  H142  1  0.095800  0.273500  0.651200  1
  H  H143  1  0.793900  0.808800  0.826100  1
  H  H144  1  0.014900  0.206100  0.826100  1
  H  H145  1  0.191200  0.985100  0.826100  1
  H  H146  1  0.808800  0.793900  0.173900  1
  H  H147  1  0.206100  0.014900  0.173900  1
  H  H148  1  0.985100  0.191200  0.173900  1
  H  H149  1  0.985100  0.191200  0.326100  1
  H  H150  1  0.206100  0.014900  0.326100  1
  H  H151  1  0.808800  0.793900  0.326100  1
  H  H152  1  0.793900  0.808800  0.673900  1
  H  H153  1  0.191200  0.985100  0.673900  1
  H  H154  1  0.014900  0.206100  0.673900  1
  H  H155  1  0.659900  0.665300  0.774500  1
  H  H156  1  0.005400  0.340100  0.774500  1
  H  H157  1  0.334700  0.994600  0.774500  1
  H  H158  1  0.665300  0.659900  0.225500  1
  H  H159  1  0.340100  0.005400  0.225500  1
  H  H160  1  0.994600  0.334700  0.225500  1
  H  H161  1  0.994600  0.334700  0.274500  1
  H  H162  1  0.340100  0.005400  0.274500  1
  H  H163  1  0.665300  0.659900  0.274500  1
  H  H164  1  0.659900  0.665300  0.725500  1
  H  H165  1  0.334700  0.994600  0.725500  1
  H  H166  1  0.005400  0.340100  0.725500  1
  H  H167  1  0.580300  0.668900  0.810600  1
  H  H168  1  0.088600  0.419700  0.810600  1
  H  H169  1  0.331100  0.911400  0.810600  1
  H  H170  1  0.668900  0.580300  0.189400  1
  H  H171  1  0.419700  0.088600  0.189400  1
  H  H172  1  0.911400  0.331100  0.189400  1
  H  H173  1  0.911400  0.331100  0.310600  1
  H  H174  1  0.419700  0.088600  0.310600  1
  H  H175  1  0.668900  0.580300  0.310600  1
  H  H176  1  0.580300  0.668900  0.689400  1
  H  H177  1  0.331100  0.911400  0.689400  1
  H  H178  1  0.088600  0.419700  0.689400  1
  H  H179  1  0.764900  0.672600  0.776400  1
  H  H180  1  0.907700  0.235100  0.776400  1
  H  H181  1  0.327400  0.092300  0.776400  1
  H  H182  1  0.672600  0.764900  0.223600  1
  H  H183  1  0.235100  0.907700  0.223600  1
  H  H184  1  0.092300  0.327400  0.223600  1
  H  H185  1  0.092300  0.327400  0.276400  1
  H  H186  1  0.235100  0.907700  0.276400  1
  H  H187  1  0.672600  0.764900  0.276400  1
  H  H188  1  0.764900  0.672600  0.723600  1
  H  H189  1  0.327400  0.092300  0.723600  1
  H  H190  1  0.907700  0.235100  0.723600  1
  H  H191  1  0.820400  0.727000  0.797200  1
  H  H192  1  0.906600  0.179600  0.797200  1
  H  H193  1  0.273000  0.093400  0.797200  1
  H  H194  1  0.727000  0.820400  0.202800  1
  H  H195  1  0.179600  0.906600  0.202800  1
  H  H196  1  0.093400  0.273000  0.202800  1
  H  H197  1  0.093400  0.273000  0.297200  1
  H  H198  1  0.179600  0.906600  0.297200  1
  H  H199  1  0.727000  0.820400  0.297200  1
  H  H200  1  0.820400  0.727000  0.702800  1
  H  H201  1  0.273000  0.093400  0.702800  1
  H  H202  1  0.906600  0.179600  0.702800  1
  H  H203  1  0.802300  0.742800  0.762700  1
  H  H204  1  0.940500  0.197700  0.762700  1
  H  H205  1  0.257200  0.059500  0.762700  1
  H  H206  1  0.742800  0.802300  0.237300  1
  H  H207  1  0.197700  0.940500  0.237300  1
  H  H208  1  0.059500  0.257200  0.237300  1
  H  H209  1  0.059500  0.257200  0.262700  1
  H  H210  1  0.197700  0.940500  0.262700  1
  H  H211  1  0.742800  0.802300  0.262700  1
  H  H212  1  0.802300  0.742800  0.737300  1
  H  H213  1  0.257200  0.059500  0.737300  1
  H  H214  1  0.940500  0.197700  0.737300  1
  H  H215  1  0.744800  0.895000  0.770400  1
  H  H216  1  0.150200  0.255200  0.770400  1
  H  H217  1  0.105000  0.849800  0.770400  1
  H  H218  1  0.895000  0.744800  0.229600  1
  H  H219  1  0.255200  0.150200  0.229600  1
  H  H220  1  0.849800  0.105000  0.229600  1
  H  H221  1  0.849800  0.105000  0.270400  1
  H  H222  1  0.255200  0.150200  0.270400  1
  H  H223  1  0.895000  0.744800  0.270400  1
  H  H224  1  0.744800  0.895000  0.729600  1
  H  H225  1  0.105000  0.849800  0.729600  1
  H  H226  1  0.150200  0.255200  0.729600  1
  H  H227  1  0.749200  0.902800  0.731900  1
  H  H228  1  0.153600  0.250800  0.731900  1
  H  H229  1  0.097200  0.846400  0.731900  1
  H  H230  1  0.902800  0.749200  0.268100  1
  H  H231  1  0.250800  0.153600  0.268100  1
  H  H232  1  0.846400  0.097200  0.268100  1
  H  H233  1  0.846400  0.097200  0.231900  1
  H  H234  1  0.250800  0.153600  0.231900  1
  H  H235  1  0.902800  0.749200  0.231900  1
  H  H236  1  0.749200  0.902800  0.768100  1
  H  H237  1  0.097200  0.846400  0.768100  1
  H  H238  1  0.153600  0.250800  0.768100  1
  H  H239  1  0.774200  0.969300  0.908600  1.0
  H  H240  1  0.195100  0.225800  0.908600  1.0
  H  H241  1  0.030700  0.804900  0.908600  1.0
  H  H242  1  0.969300  0.774200  0.091400  1.0
  H  H243  1  0.225800  0.195100  0.091400  1.0
  H  H244  1  0.804900  0.030700  0.091400  1.0
  H  H245  1  0.804900  0.030700  0.408600  1.0
  H  H246  1  0.225800  0.195100  0.408600  1.0
  H  H247  1  0.969300  0.774200  0.408600  1.0
  H  H248  1  0.774200  0.969300  0.591400  1.0
  H  H249  1  0.030700  0.804900  0.591400  1.0
  H  H250  1  0.195100  0.225800  0.591400  1.0
  H  H251  1  0.851600  0.039700  0.875100  1.0
  H  H252  1  0.188100  0.148400  0.875100  1.0
  H  H253  1  0.960300  0.811900  0.875100  1.0
  H  H254  1  0.039700  0.851600  0.124900  1.0
  H  H255  1  0.148400  0.188100  0.124900  1.0
  H  H256  1  0.811900  0.960300  0.124900  1.0
  H  H257  1  0.811900  0.960300  0.375100  1.0
  H  H258  1  0.148400  0.188100  0.375100  1.0
  H  H259  1  0.039700  0.851600  0.375100  1.0
  H  H260  1  0.851600  0.039700  0.624900  1.0
  H  H261  1  0.960300  0.811900  0.624900  1.0
  H  H262  1  0.188100  0.148400  0.624900  1.0
  H  H263  1  0.730100  0.970500  0.798500  1.0
  H  H264  1  0.240400  0.269900  0.798500  1.0
  H  H265  1  0.029500  0.759600  0.798500  1.0
  H  H266  1  0.970500  0.730100  0.201500  1.0
  H  H267  1  0.269900  0.240400  0.201500  1.0
  H  H268  1  0.759600  0.029500  0.201500  1.0
  H  H269  1  0.759600  0.029500  0.298500  1.0
  H  H270  1  0.269900  0.240400  0.298500  1.0
  H  H271  1  0.970500  0.730100  0.298500  1.0
  H  H272  1  0.730100  0.970500  0.701500  1.0
  H  H273  1  0.029500  0.759600  0.701500  1.0
  H  H274  1  0.240400  0.269900  0.701500  1.0
  H  H275  1  0.651300  0.898500  0.833100  1.0
  H  H276  1  0.247200  0.348700  0.833100  1.0
  H  H277  1  0.101500  0.752800  0.833100  1.0
  H  H278  1  0.898500  0.651300  0.166900  1.0
  H  H279  1  0.348700  0.247200  0.166900  1.0
  H  H280  1  0.752800  0.101500  0.166900  1.0
  H  H281  1  0.752800  0.101500  0.333100  1.0
  H  H282  1  0.348700  0.247200  0.333100  1.0
  H  H283  1  0.898500  0.651300  0.333100  1.0
  H  H284  1  0.651300  0.898500  0.666900  1.0
  H  H285  1  0.101500  0.752800  0.666900  1.0
  H  H286  1  0.247200  0.348700  0.666900  1.0
  H  H287  1  0.877000  0.033600  0.803300  1.0
  H  H288  1  0.156600  0.123000  0.803300  1.0
  H  H289  1  0.966400  0.843400  0.803300  1.0
  H  H290  1  0.033600  0.877000  0.196700  1.0
  H  H291  1  0.123000  0.156600  0.196700  1.0
  H  H292  1  0.843400  0.966400  0.196700  1.0
  H  H293  1  0.843400  0.966400  0.303300  1.0
  H  H294  1  0.123000  0.156600  0.303300  1.0
  H  H295  1  0.033600  0.877000  0.303300  1.0
  H  H296  1  0.877000  0.033600  0.696700  1.0
  H  H297  1  0.966400  0.843400  0.696700  1.0
  H  H298  1  0.156600  0.123000  0.696700  1.0
  H  H299  1  0.876700  0.093500  0.818200  1.0
  H  H300  1  0.216800  0.123300  0.818200  1.0
  H  H301  1  0.906500  0.783200  0.818200  1.0
  H  H302  1  0.093500  0.876700  0.181800  1.0
  H  H303  1  0.123300  0.216800  0.181800  1.0
  H  H304  1  0.783200  0.906500  0.181800  1.0
  H  H305  1  0.783200  0.906500  0.318200  1.0
  H  H306  1  0.123300  0.216800  0.318200  1.0
  H  H307  1  0.093500  0.876700  0.318200  1.0
  H  H308  1  0.876700  0.093500  0.681800  1.0
  H  H309  1  0.906500  0.783200  0.681800  1.0
  H  H310  1  0.216800  0.123300  0.681800  1.0
  H  H311  1  0.830300  0.055400  0.789100  1.0
  H  H312  1  0.225100  0.169700  0.789100  1.0
  H  H313  1  0.944600  0.774900  0.789100  1.0
  H  H314  1  0.055400  0.830300  0.210900  1.0
  H  H315  1  0.169700  0.225100  0.210900  1.0
  H  H316  1  0.774900  0.944600  0.210900  1.0
  H  H317  1  0.774900  0.944600  0.289100  1.0
  H  H318  1  0.169700  0.225100  0.289100  1.0
  H  H319  1  0.055400  0.830300  0.289100  1.0
  H  H320  1  0.830300  0.055400  0.710900  1.0
  H  H321  1  0.944600  0.774900  0.710900  1.0
  H  H322  1  0.225100  0.169700  0.710900  1.0
  H  H323  1  0.666667  0.953367  0.924900  1.0
  H  H324  1  0.286700  0.333333  0.924900  1.0
  H  H325  1  0.046633  0.713300  0.924900  1.0
  H  H326  1  0.953367  0.666667  0.075100  1.0
  H  H327  1  0.333333  0.286700  0.075100  1.0
  H  H328  1  0.713300  0.046633  0.075100  1.0
  H  H329  1  0.713300  0.046633  0.424900  1.0
  H  H330  1  0.333333  0.286700  0.424900  1.0
  H  H331  1  0.953367  0.666667  0.424900  1.0
  H  H332  1  0.666667  0.953367  0.575100  1.0
  H  H333  1  0.046633  0.713300  0.575100  1.0
  H  H334  1  0.286700  0.333333  0.575100  1.0
  H  H335  1  0.522800  0.718500  0.955100  1.0
  H  H336  1  0.195700  0.477200  0.955100  1.0
  H  H337  1  0.281500  0.804300  0.955100  1.0
  H  H338  1  0.718500  0.522800  0.044900  1.0
  H  H339  1  0.477200  0.195700  0.044900  1.0
  H  H340  1  0.804300  0.281500  0.044900  1.0
  H  H341  1  0.804300  0.281500  0.455100  1.0
  H  H342  1  0.477200  0.195700  0.455100  1.0
  H  H343  1  0.718500  0.522800  0.455100  1.0
  H  H344  1  0.522800  0.718500  0.544900  1.0
  H  H345  1  0.281500  0.804300  0.544900  1.0
  H  H346  1  0.195700  0.477200  0.544900  1.0
  H  H347  1  0.547600  0.854100  0.018500  1.0
  H  H348  1  0.306500  0.452400  0.018500  1.0
  H  H349  1  0.145900  0.693500  0.018500  1.0
  H  H350  1  0.854100  0.547600  0.981500  1.0
  H  H351  1  0.452400  0.306500  0.981500  1.0
  H  H352  1  0.693500  0.145900  0.981500  1.0
  H  H353  1  0.693500  0.145900  0.518500  1.0
  H  H354  1  0.452400  0.306500  0.518500  1.0
  H  H355  1  0.854100  0.547600  0.518500  1.0
  H  H356  1  0.547600  0.854100  0.481500  1.0
  H  H357  1  0.145900  0.693500  0.481500  1.0
  H  H358  1  0.306500  0.452400  0.481500  1.0
  H  H359  1  0.609700  0.928700  0.980100  1.0
  H  H360  1  0.319000  0.390300  0.980100  1.0
  H  H361  1  0.071300  0.681000  0.980100  1.0
  H  H362  1  0.928700  0.609700  0.019900  1.0
  H  H363  1  0.390300  0.319000  0.019900  1.0
  H  H364  1  0.681000  0.071300  0.019900  1.0
  H  H365  1  0.681000  0.071300  0.480100  1.0
  H  H366  1  0.390300  0.319000  0.480100  1.0
  H  H367  1  0.928700  0.609700  0.480100  1.0
  H  H368  1  0.609700  0.928700  0.519900  1.0
  H  H369  1  0.071300  0.681000  0.519900  1.0
  H  H370  1  0.319000  0.390300  0.519900  1.0
  H  H371  1  0.425500  0.749200  0.024800  1.0
  H  H372  1  0.323700  0.574500  0.024800  1.0
  H  H373  1  0.250800  0.676300  0.024800  1.0
  H  H374  1  0.749200  0.425500  0.975200  1.0
  H  H375  1  0.574500  0.323700  0.975200  1.0
  H  H376  1  0.676300  0.250800  0.975200  1.0
  H  H377  1  0.676300  0.250800  0.524800  1.0
  H  H378  1  0.574500  0.323700  0.524800  1.0
  H  H379  1  0.749200  0.425500  0.524800  1.0
  H  H380  1  0.425500  0.749200  0.475200  1.0
  H  H381  1  0.250800  0.676300  0.475200  1.0
  H  H382  1  0.323700  0.574500  0.475200  1.0
  H  H383  1  0.506400  0.626100  0.059300  1.0
  H  H384  1  0.119700  0.493600  0.059300  1.0
  H  H385  1  0.373900  0.880300  0.059300  1.0
  H  H386  1  0.626100  0.506400  0.940700  1.0
  H  H387  1  0.493600  0.119700  0.940700  1.0
  H  H388  1  0.880300  0.373900  0.940700  1.0
  H  H389  1  0.880300  0.373900  0.559300  1.0
  H  H390  1  0.493600  0.119700  0.559300  1.0
  H  H391  1  0.626100  0.506400  0.559300  1.0
  H  H392  1  0.506400  0.626100  0.440700  1.0
  H  H393  1  0.373900  0.880300  0.440700  1.0
  H  H394  1  0.119700  0.493600  0.440700  1.0
  H  H395  1  0.551400  0.690500  0.015200  1.0
  H  H396  1  0.139100  0.448600  0.015200  1.0
  H  H397  1  0.309500  0.860900  0.015200  1.0
  H  H398  1  0.690500  0.551400  0.984800  1.0
  H  H399  1  0.448600  0.139100  0.984800  1.0
  H  H400  1  0.860900  0.309500  0.984800  1.0
  H  H401  1  0.860900  0.309500  0.515200  1.0
  H  H402  1  0.448600  0.139100  0.515200  1.0
  H  H403  1  0.690500  0.551400  0.515200  1.0
  H  H404  1  0.551400  0.690500  0.484800  1.0
  H  H405  1  0.309500  0.860900  0.484800  1.0
  H  H406  1  0.139100  0.448600  0.484800  1.0
  H  H407  1  0.420700  0.580200  0.100600  1.0
  H  H408  1  0.159500  0.579300  0.100600  1.0
  H  H409  1  0.419800  0.840500  0.100600  1.0
  H  H410  1  0.580200  0.420700  0.899400  1.0
  H  H411  1  0.579300  0.159500  0.899400  1.0
  H  H412  1  0.840500  0.419800  0.899400  1.0
  H  H413  1  0.840500  0.419800  0.600600  1.0
  H  H414  1  0.579300  0.159500  0.600600  1.0
  H  H415  1  0.580200  0.420700  0.600600  1.0
  H  H416  1  0.420700  0.580200  0.399400  1.0
  H  H417  1  0.419800  0.840500  0.399400  1.0
  H  H418  1  0.159500  0.579300  0.399400  1.0
  H  H419  1  0.249000  0.509700  0.111300  1.0
  H  H420  1  0.260700  0.751000  0.111300  1.0
  H  H421  1  0.490300  0.739300  0.111300  1.0
  H  H422  1  0.509700  0.249000  0.888700  1.0
  H  H423  1  0.751000  0.260700  0.888700  1.0
  H  H424  1  0.739300  0.490300  0.888700  1.0
  H  H425  1  0.739300  0.490300  0.611300  1.0
  H  H426  1  0.751000  0.260700  0.611300  1.0
  H  H427  1  0.509700  0.249000  0.611300  1.0
  H  H428  1  0.249000  0.509700  0.388700  1.0
  H  H429  1  0.490300  0.739300  0.388700  1.0
  H  H430  1  0.260700  0.751000  0.388700  1.0
  H  H431  1  0.203800  0.448900  0.157600  1.0
  H  H432  1  0.245100  0.796200  0.157600  1.0
  H  H433  1  0.551100  0.754900  0.157600  1.0
  H  H434  1  0.448900  0.203800  0.842400  1.0
  H  H435  1  0.796200  0.245100  0.842400  1.0
  H  H436  1  0.754900  0.551100  0.842400  1.0
  H  H437  1  0.754900  0.551100  0.657600  1.0
  H  H438  1  0.796200  0.245100  0.657600  1.0
  H  H439  1  0.448900  0.203800  0.657600  1.0
  H  H440  1  0.203800  0.448900  0.342400  1.0
  H  H441  1  0.551100  0.754900  0.342400  1.0
  H  H442  1  0.245100  0.796200  0.342400  1.0
  H  H443  1  0.361600  0.562100  0.208500  1.0
  H  H444  1  0.200500  0.638400  0.208500  1.0
  H  H445  1  0.437900  0.799500  0.208500  1.0
  H  H446  1  0.562100  0.361600  0.791500  1.0
  H  H447  1  0.638400  0.200500  0.791500  1.0
  H  H448  1  0.799500  0.437900  0.791500  1.0
  H  H449  1  0.799500  0.437900  0.708500  1.0
  H  H450  1  0.638400  0.200500  0.708500  1.0
  H  H451  1  0.562100  0.361600  0.708500  1.0
  H  H452  1  0.361600  0.562100  0.291500  1.0
  H  H453  1  0.437900  0.799500  0.291500  1.0
  H  H454  1  0.200500  0.638400  0.291500  1.0
  H  H455  1  0.406800  0.623000  0.162200  1.0
  H  H456  1  0.216200  0.593200  0.162200  1.0
  H  H457  1  0.377000  0.783800  0.162200  1.0
  H  H458  1  0.623000  0.406800  0.837800  1.0
  H  H459  1  0.593200  0.216200  0.837800  1.0
  H  H460  1  0.783800  0.377000  0.837800  1.0
  H  H461  1  0.783800  0.377000  0.662200  1.0
  H  H462  1  0.593200  0.216200  0.662200  1.0
  H  H463  1  0.623000  0.406800  0.662200  1.0
  H  H464  1  0.406800  0.623000  0.337800  1.0
  H  H465  1  0.377000  0.783800  0.337800  1.0
  H  H466  1  0.216200  0.593200  0.337800  1.0
  H  H467  1  0.284500  0.467500  0.233200  1.0
  H  H468  1  0.183000  0.715500  0.233200  1.0
  H  H469  1  0.532500  0.817000  0.233200  1.0
  H  H470  1  0.467500  0.284500  0.766800  1.0
  H  H471  1  0.715500  0.183000  0.766800  1.0
  H  H472  1  0.817000  0.532500  0.766800  1.0
  H  H473  1  0.817000  0.532500  0.733200  1.0
  H  H474  1  0.715500  0.183000  0.733200  1.0
  H  H475  1  0.467500  0.284500  0.733200  1.0
  H  H476  1  0.284500  0.467500  0.266800  1.0
  H  H477  1  0.532500  0.817000  0.266800  1.0
  H  H478  1  0.183000  0.715500  0.266800  1.0
  H  H479  1  0.257300  0.412900  0.206600  1.0
  H  H480  1  0.155600  0.742700  0.206600  1.0
  H  H481  1  0.587100  0.844400  0.206600  1.0
  H  H482  1  0.412900  0.257300  0.793400  1.0
  H  H483  1  0.742700  0.155600  0.793400  1.0
  H  H484  1  0.844400  0.587100  0.793400  1.0
  H  H485  1  0.844400  0.587100  0.706600  1.0
  H  H486  1  0.742700  0.155600  0.706600  1.0
  H  H487  1  0.412900  0.257300  0.706600  1.0
  H  H488  1  0.257300  0.412900  0.293400  1.0
  H  H489  1  0.587100  0.844400  0.293400  1.0
  H  H490  1  0.155600  0.742700  0.293400  1.0
  H  H491  1  0.213500  0.438000  0.221000  1.0
  H  H492  1  0.224500  0.786500  0.221000  1.0
  H  H493  1  0.562000  0.775500  0.221000  1.0
  H  H494  1  0.438000  0.213500  0.779000  1.0
  H  H495  1  0.786500  0.224500  0.779000  1.0
  H  H496  1  0.775500  0.562000  0.779000  1.0
  H  H497  1  0.775500  0.562000  0.721000  1.0
  H  H498  1  0.786500  0.224500  0.721000  1.0
  H  H499  1  0.438000  0.213500  0.721000  1.0
  H  H500  1  0.213500  0.438000  0.279000  1.0
  H  H501  1  0.562000  0.775500  0.279000  1.0
  H  H502  1  0.224500  0.786500  0.279000  1.0
  H  H503  1  0.141700  0.859100  0.946600  1.0
  H  H504  1  0.717400  0.858300  0.946600  1.0
  H  H505  1  0.140900  0.282600  0.946600  1.0
  H  H506  1  0.859100  0.141700  0.053400  1.0
  H  H507  1  0.858300  0.717400  0.053400  1.0
  H  H508  1  0.282600  0.140900  0.053400  1.0
  H  H509  1  0.282600  0.140900  0.446600  1.0
  H  H510  1  0.858300  0.717400  0.446600  1.0
  H  H511  1  0.859100  0.141700  0.446600  1.0
  H  H512  1  0.141700  0.859100  0.553400  1.0
  H  H513  1  0.140900  0.282600  0.553400  1.0
  H  H514  1  0.717400  0.858300  0.553400  1.0
  H  H515  1  0.083100  0.906900  0.960400  1.0
  H  H516  1  0.823800  0.916900  0.960400  1.0
  H  H517  1  0.093100  0.176200  0.960400  1.0
  H  H518  1  0.906900  0.083100  0.039600  1.0
  H  H519  1  0.916900  0.823800  0.039600  1.0
  H  H520  1  0.176200  0.093100  0.039600  1.0
  H  H521  1  0.176200  0.093100  0.460400  1.0
  H  H522  1  0.916900  0.823800  0.460400  1.0
  H  H523  1  0.906900  0.083100  0.460400  1.0
  H  H524  1  0.083100  0.906900  0.539600  1.0
  H  H525  1  0.093100  0.176200  0.539600  1.0
  H  H526  1  0.823800  0.916900  0.539600  1.0
  H  H527  1  0.197300  0.058100  0.906800  1.0
  H  H528  1  0.860800  0.802700  0.906800  1.0
  H  H529  1  0.941900  0.139200  0.906800  1.0
  H  H530  1  0.058100  0.197300  0.093200  1.0
  H  H531  1  0.802700  0.860800  0.093200  1.0
  H  H532  1  0.139200  0.941900  0.093200  1.0
  H  H533  1  0.139200  0.941900  0.406800  1.0
  H  H534  1  0.802700  0.860800  0.406800  1.0
  H  H535  1  0.058100  0.197300  0.406800  1.0
  H  H536  1  0.197300  0.058100  0.593200  1.0
  H  H537  1  0.941900  0.139200  0.593200  1.0
  H  H538  1  0.860800  0.802700  0.593200  1.0
  H  H539  1  0.257900  0.011500  0.893000  1.0
  H  H540  1  0.753600  0.742100  0.893000  1.0
  H  H541  1  0.988500  0.246400  0.893000  1.0
  H  H542  1  0.011500  0.257900  0.107000  1.0
  H  H543  1  0.742100  0.753600  0.107000  1.0
  H  H544  1  0.246400  0.988500  0.107000  1.0
  H  H545  1  0.246400  0.988500  0.393000  1.0
  H  H546  1  0.742100  0.753600  0.393000  1.0
  H  H547  1  0.011500  0.257900  0.393000  1.0
  H  H548  1  0.257900  0.011500  0.607000  1.0
  H  H549  1  0.988500  0.246400  0.607000  1.0
  H  H550  1  0.753600  0.742100  0.607000  1.0
  H  H551  1  0.089400  0.012300  0.968700  1.0
  H  H552  1  0.922900  0.910600  0.968700  1.0
  H  H553  1  0.987700  0.077100  0.968700  1.0
  H  H554  1  0.012300  0.089400  0.031300  1.0
  H  H555  1  0.910600  0.922900  0.031300  1.0
  H  H556  1  0.077100  0.987700  0.031300  1.0
  H  H557  1  0.077100  0.987700  0.468700  1.0
  H  H558  1  0.910600  0.922900  0.468700  1.0
  H  H559  1  0.012300  0.089400  0.468700  1.0
  H  H560  1  0.089400  0.012300  0.531300  1.0
  H  H561  1  0.987700  0.077100  0.531300  1.0
  H  H562  1  0.922900  0.910600  0.531300  1.0
  H  H563  1  0.060200  0.000900  0.933100  1.0
  H  H564  1  0.940700  0.939800  0.933100  1.0
  H  H565  1  0.999100  0.059300  0.933100  1.0
  H  H566  1  0.000900  0.060200  0.066900  1.0
  H  H567  1  0.939800  0.940700  0.066900  1.0
  H  H568  1  0.059300  0.999100  0.066900  1.0
  H  H569  1  0.059300  0.999100  0.433100  1.0
  H  H570  1  0.939800  0.940700  0.433100  1.0
  H  H571  1  0.000900  0.060200  0.433100  1.0
  H  H572  1  0.060200  0.000900  0.566900  1.0
  H  H573  1  0.999100  0.059300  0.566900  1.0
  H  H574  1  0.940700  0.939800  0.566900  1.0
  H  H575  1  0.123700  0.064500  0.941300  1.0
  H  H576  1  0.940800  0.876300  0.941300  1.0
  H  H577  1  0.935500  0.059200  0.941300  1.0
  H  H578  1  0.064500  0.123700  0.058700  1.0
  H  H579  1  0.876300  0.940800  0.058700  1.0
  H  H580  1  0.059200  0.935500  0.058700  1.0
  H  H581  1  0.059200  0.935500  0.441300  1.0
  H  H582  1  0.876300  0.940800  0.441300  1.0
  H  H583  1  0.064500  0.123700  0.441300  1.0
  H  H584  1  0.123700  0.064500  0.558700  1.0
  H  H585  1  0.935500  0.059200  0.558700  1.0
  H  H586  1  0.940800  0.876300  0.558700  1.0
  H  H587  1  0.318100  0.975200  0.920800  1.0
  H  H588  1  0.657100  0.681900  0.920800  1.0
  H  H589  1  0.024800  0.342900  0.920800  1.0
  H  H590  1  0.975200  0.318100  0.079200  1.0
  H  H591  1  0.681900  0.657100  0.079200  1.0
  H  H592  1  0.342900  0.024800  0.079200  1.0
  H  H593  1  0.342900  0.024800  0.420800  1.0
  H  H594  1  0.681900  0.657100  0.420800  1.0
  H  H595  1  0.975200  0.318100  0.420800  1.0
  H  H596  1  0.318100  0.975200  0.579200  1.0
  H  H597  1  0.024800  0.342900  0.579200  1.0
  H  H598  1  0.657100  0.681900  0.579200  1.0
  H  H599  1  0.320900  0.780800  0.872300  1.0
  H  H600  1  0.459900  0.679100  0.872300  1.0
  H  H601  1  0.219200  0.540100  0.872300  1.0
  H  H602  1  0.780800  0.320900  0.127700  1.0
  H  H603  1  0.679100  0.459900  0.127700  1.0
  H  H604  1  0.540100  0.219200  0.127700  1.0
  H  H605  1  0.540100  0.219200  0.372300  1.0
  H  H606  1  0.679100  0.459900  0.372300  1.0
  H  H607  1  0.780800  0.320900  0.372300  1.0
  H  H608  1  0.320900  0.780800  0.627700  1.0
  H  H609  1  0.219200  0.540100  0.627700  1.0
  H  H610  1  0.459900  0.679100  0.627700  1.0
  H  H611  1  0.482100  0.936100  0.897300  1.0
  H  H612  1  0.454000  0.517900  0.897300  1.0
  H  H613  1  0.063900  0.546000  0.897300  1.0
  H  H614  1  0.936100  0.482100  0.102700  1.0
  H  H615  1  0.517900  0.454000  0.102700  1.0
  H  H616  1  0.546000  0.063900  0.102700  1.0
  H  H617  1  0.546000  0.063900  0.397300  1.0
  H  H618  1  0.517900  0.454000  0.397300  1.0
  H  H619  1  0.936100  0.482100  0.397300  1.0
  H  H620  1  0.482100  0.936100  0.602700  1.0
  H  H621  1  0.063900  0.546000  0.602700  1.0
  H  H622  1  0.454000  0.517900  0.602700  1.0
  H  H623  1  0.424900  0.981200  0.916300  1.0
  H  H624  1  0.556300  0.575100  0.916300  1.0
  H  H625  1  0.018800  0.443700  0.916300  1.0
  H  H626  1  0.981200  0.424900  0.083700  1.0
  H  H627  1  0.575100  0.556300  0.083700  1.0
  H  H628  1  0.443700  0.018800  0.083700  1.0
  H  H629  1  0.443700  0.018800  0.416300  1.0
  H  H630  1  0.575100  0.556300  0.416300  1.0
  H  H631  1  0.981200  0.424900  0.416300  1.0
  H  H632  1  0.424900  0.981200  0.583700  1.0
  H  H633  1  0.018800  0.443700  0.583700  1.0
  H  H634  1  0.556300  0.575100  0.583700  1.0
  H  H635  1  0.731800  0.828700  0.843600  1.0
  H  H636  1  0.096900  0.268200  0.843600  1.0
  H  H637  1  0.171300  0.903100  0.843600  1.0
  H  H638  1  0.828700  0.731800  0.156400  1.0
  H  H639  1  0.268200  0.096900  0.156400  1.0
  H  H640  1  0.903100  0.171300  0.156400  1.0
  H  H641  1  0.903100  0.171300  0.343600  1.0
  H  H642  1  0.268200  0.096900  0.343600  1.0
  H  H643  1  0.828700  0.731800  0.343600  1.0
  H  H644  1  0.731800  0.828700  0.656400  1.0
  H  H645  1  0.171300  0.903100  0.656400  1.0
  H  H646  1  0.096900  0.268200  0.656400  1.0
  H  H647  1  0.791400  0.781200  0.823900  1.0
  H  H648  1  0.989800  0.208600  0.823900  1.0
  H  H649  1  0.218800  0.010200  0.823900  1.0
  H  H650  1  0.781200  0.791400  0.176100  1.0
  H  H651  1  0.208600  0.989800  0.176100  1.0
  H  H652  1  0.010200  0.218800  0.176100  1.0
  H  H653  1  0.010200  0.218800  0.323900  1.0
  H  H654  1  0.208600  0.989800  0.323900  1.0
  H  H655  1  0.781200  0.791400  0.323900  1.0
  H  H656  1  0.791400  0.781200  0.676100  1.0
  H  H657  1  0.218800  0.010200  0.676100  1.0
  H  H658  1  0.989800  0.208600  0.676100  1.0
  H  H659  1  0.631100  0.625000  0.794300  1.0
  H  H660  1  0.993900  0.368900  0.794300  1.0
  H  H661  1  0.375000  0.006100  0.794300  1.0
  H  H662  1  0.625000  0.631100  0.205700  1.0
  H  H663  1  0.368900  0.993900  0.205700  1.0
  H  H664  1  0.006100  0.375000  0.205700  1.0
  H  H665  1  0.006100  0.375000  0.294300  1.0
  H  H666  1  0.368900  0.993900  0.294300  1.0
  H  H667  1  0.625000  0.631100  0.294300  1.0
  H  H668  1  0.631100  0.625000  0.705700  1.0
  H  H669  1  0.375000  0.006100  0.705700  1.0
  H  H670  1  0.993900  0.368900  0.705700  1.0
  H  H671  1  0.582500  0.684100  0.802900  1.0
  H  H672  1  0.101600  0.417500  0.802900  1.0
  H  H673  1  0.315900  0.898400  0.802900  1.0
  H  H674  1  0.684100  0.582500  0.197100  1.0
  H  H675  1  0.417500  0.101600  0.197100  1.0
  H  H676  1  0.898400  0.315900  0.197100  1.0
  H  H677  1  0.898400  0.315900  0.302900  1.0
  H  H678  1  0.417500  0.101600  0.302900  1.0
  H  H679  1  0.684100  0.582500  0.302900  1.0
  H  H680  1  0.582500  0.684100  0.697100  1.0
  H  H681  1  0.315900  0.898400  0.697100  1.0
  H  H682  1  0.101600  0.417500  0.697100  1.0
  H  H683  1  0.782200  0.699800  0.777700  1.0
  H  H684  1  0.917600  0.217800  0.777700  1.0
  H  H685  1  0.300200  0.082400  0.777700  1.0
  H  H686  1  0.699800  0.782200  0.222300  1.0
  H  H687  1  0.217800  0.917600  0.222300  1.0
  H  H688  1  0.082400  0.300200  0.222300  1.0
  H  H689  1  0.082400  0.300200  0.277700  1.0
  H  H690  1  0.217800  0.917600  0.277700  1.0
  H  H691  1  0.699800  0.782200  0.277700  1.0
  H  H692  1  0.782200  0.699800  0.722300  1.0
  H  H693  1  0.300200  0.082400  0.722300  1.0
  H  H694  1  0.917600  0.217800  0.722300  1.0
  H  H695  1  0.731000  0.630200  0.788800  1.0
  H  H696  1  0.899200  0.269000  0.788800  1.0
  H  H697  1  0.369800  0.100800  0.788800  1.0
  H  H698  1  0.630200  0.731000  0.211200  1.0
  H  H699  1  0.269000  0.899200  0.211200  1.0
  H  H700  1  0.100800  0.369800  0.211200  1.0
  H  H701  1  0.100800  0.369800  0.288800  1.0
  H  H702  1  0.269000  0.899200  0.288800  1.0
  H  H703  1  0.630200  0.731000  0.288800  1.0
  H  H704  1  0.731000  0.630200  0.711200  1.0
  H  H705  1  0.369800  0.100800  0.711200  1.0
  H  H706  1  0.899200  0.269000  0.711200  1.0
  H  H707  1  0.787400  0.674500  0.812600  1.0
  H  H708  1  0.887100  0.212600  0.812600  1.0
  H  H709  1  0.325500  0.112900  0.812600  1.0
  H  H710  1  0.674500  0.787400  0.187400  1.0
  H  H711  1  0.212600  0.887100  0.187400  1.0
  H  H712  1  0.112900  0.325500  0.187400  1.0
  H  H713  1  0.112900  0.325500  0.312600  1.0
  H  H714  1  0.212600  0.887100  0.312600  1.0
  H  H715  1  0.674500  0.787400  0.312600  1.0
  H  H716  1  0.787400  0.674500  0.687400  1.0
  H  H717  1  0.325500  0.112900  0.687400  1.0
  H  H718  1  0.887100  0.212600  0.687400  1.0
  H  H719  1  0.558300  0.759100  0.803400  1.0
  H  H720  1  0.200800  0.441700  0.803400  1.0
  H  H721  1  0.240900  0.799200  0.803400  1.0
  H  H722  1  0.759100  0.558300  0.196600  1.0
  H  H723  1  0.441700  0.200800  0.196600  1.0
  H  H724  1  0.799200  0.240900  0.196600  1.0
  H  H725  1  0.799200  0.240900  0.303400  1.0
  H  H726  1  0.441700  0.200800  0.303400  1.0
  H  H727  1  0.759100  0.558300  0.303400  1.0
  H  H728  1  0.558300  0.759100  0.696600  1.0
  H  H729  1  0.240900  0.799200  0.696600  1.0
  H  H730  1  0.200800  0.441700  0.696600  1.0
  H  H731  1  0.498800  0.838100  0.905600  1.0
  H  H732  1  0.339300  0.501200  0.905600  1.0
  H  H733  1  0.161900  0.660700  0.905600  1.0
  H  H734  1  0.838100  0.498800  0.094400  1.0
  H  H735  1  0.501200  0.339300  0.094400  1.0
  H  H736  1  0.660700  0.161900  0.094400  1.0
  H  H737  1  0.660700  0.161900  0.405600  1.0
  H  H738  1  0.501200  0.339300  0.405600  1.0
  H  H739  1  0.838100  0.498800  0.405600  1.0
  H  H740  1  0.498800  0.838100  0.594400  1.0
  H  H741  1  0.161900  0.660700  0.594400  1.0
  H  H742  1  0.339300  0.501200  0.594400  1.0
  H  H743  1  0.401000  0.808000  0.823400  1.0
  H  H744  1  0.407000  0.599000  0.823400  1.0
  H  H745  1  0.192000  0.593000  0.823400  1.0
  H  H746  1  0.808000  0.401000  0.176600  1.0
  H  H747  1  0.599000  0.407000  0.176600  1.0
  H  H748  1  0.593000  0.192000  0.176600  1.0
  H  H749  1  0.593000  0.192000  0.323400  1.0
  H  H750  1  0.599000  0.407000  0.323400  1.0
  H  H751  1  0.808000  0.401000  0.323400  1.0
  H  H752  1  0.401000  0.808000  0.676600  1.0
  H  H753  1  0.192000  0.593000  0.676600  1.0
  H  H754  1  0.407000  0.599000  0.676600  1.0
  H  H755  1  0.465700  0.773300  0.798300  1.0
  H  H756  1  0.307600  0.534300  0.798300  1.0
  H  H757  1  0.226700  0.692400  0.798300  1.0
  H  H758  1  0.773300  0.465700  0.201700  1.0
  H  H759  1  0.534300  0.307600  0.201700  1.0
  H  H760  1  0.692400  0.226700  0.201700  1.0
  H  H761  1  0.692400  0.226700  0.298300  1.0
  H  H762  1  0.534300  0.307600  0.298300  1.0
  H  H763  1  0.773300  0.465700  0.298300  1.0
  H  H764  1  0.465700  0.773300  0.701700  1.0
  H  H765  1  0.226700  0.692400  0.701700  1.0
  H  H766  1  0.307600  0.534300  0.701700  1.0
  H  H767  1  0.290200  0.641300  0.948300  1.0
  H  H768  1  0.351100  0.709800  0.948300  1.0
  H  H769  1  0.358700  0.648900  0.948300  1.0
  H  H770  1  0.641300  0.290200  0.051700  1.0
  H  H771  1  0.709800  0.351100  0.051700  1.0
  H  H772  1  0.648900  0.358700  0.051700  1.0
  H  H773  1  0.648900  0.358700  0.448300  1.0
  H  H774  1  0.709800  0.351100  0.448300  1.0
  H  H775  1  0.641300  0.290200  0.448300  1.0
  H  H776  1  0.290200  0.641300  0.551700  1.0
  H  H777  1  0.358700  0.648900  0.551700  1.0
  H  H778  1  0.351100  0.709800  0.551700  1.0
  C  C779  1  0.481800  0.582300  0.750000  1
  C  C780  1  0.100500  0.518200  0.750000  1
  C  C781  1  0.417700  0.899500  0.750000  1
  C  C782  1  0.582300  0.481800  0.250000  1
  C  C783  1  0.518200  0.100500  0.250000  1
  C  C784  1  0.899500  0.417700  0.250000  1
  C  C785  1  0.634600  0.048500  0.890600  1
  C  C786  1  0.413900  0.365400  0.890600  1
  C  C787  1  0.951500  0.586100  0.890600  1
  C  C788  1  0.048500  0.634600  0.109400  1
  C  C789  1  0.365400  0.413900  0.109400  1
  C  C790  1  0.586100  0.951500  0.109400  1
  C  C791  1  0.586100  0.951500  0.390600  1
  C  C792  1  0.365400  0.413900  0.390600  1
  C  C793  1  0.048500  0.634600  0.390600  1
  C  C794  1  0.634600  0.048500  0.609400  1
  C  C795  1  0.951500  0.586100  0.609400  1
  C  C796  1  0.413900  0.365400  0.609400  1
  C  C797  1  0.333333  0.666667  0.903300  1
  C  C798  1  0.666667  0.333333  0.096700  1
  C  C799  1  0.666667  0.333333  0.403300  1
  C  C800  1  0.333333  0.666667  0.596700  1
  C  C801  1  0.333333  0.666667  0.940400  1
  C  C802  1  0.666667  0.333333  0.059600  1
  C  C803  1  0.666667  0.333333  0.440400  1
  C  C804  1  0.333333  0.666667  0.559600  1
  C  C805  1  0.432300  0.860600  0.973800  1
  C  C806  1  0.428300  0.567700  0.973800  1
  C  C807  1  0.139400  0.571700  0.973800  1
  C  C808  1  0.860600  0.432300  0.026200  1
  C  C809  1  0.567700  0.428300  0.026200  1
  C  C810  1  0.571700  0.139400  0.026200  1
  C  C811  1  0.571700  0.139400  0.473800  1
  C  C812  1  0.567700  0.428300  0.473800  1
  C  C813  1  0.860600  0.432300  0.473800  1
  C  C814  1  0.432300  0.860600  0.526200  1
  C  C815  1  0.139400  0.571700  0.526200  1
  C  C816  1  0.428300  0.567700  0.526200  1
  C  C817  1  0.468300  0.928200  0.986300  1
  C  C818  1  0.459900  0.531700  0.986300  1
  C  C819  1  0.071800  0.540100  0.986300  1
  C  C820  1  0.928200  0.468300  0.013700  1
  C  C821  1  0.531700  0.459900  0.013700  1
  C  C822  1  0.540100  0.071800  0.013700  1
  C  C823  1  0.540100  0.071800  0.486300  1
  C  C824  1  0.531700  0.459900  0.486300  1
  C  C825  1  0.928200  0.468300  0.486300  1
  C  C826  1  0.468300  0.928200  0.513700  1
  C  C827  1  0.071800  0.540100  0.513700  1
  C  C828  1  0.459900  0.531700  0.513700  1
  C  C829  1  0.616600  0.549500  0.857500  1
  C  C830  1  0.932900  0.383400  0.857500  1
  C  C831  1  0.450500  0.067100  0.857500  1
  C  C832  1  0.549500  0.616600  0.142500  1
  C  C833  1  0.383400  0.932900  0.142500  1
  C  C834  1  0.067100  0.450500  0.142500  1
  C  C835  1  0.067100  0.450500  0.357500  1
  C  C836  1  0.383400  0.932900  0.357500  1
  C  C837  1  0.549500  0.616600  0.357500  1
  C  C838  1  0.616600  0.549500  0.642500  1
  C  C839  1  0.450500  0.067100  0.642500  1
  C  C840  1  0.932900  0.383400  0.642500  1
  C  C841  1  0.571000  0.523000  0.838700  1
  C  C842  1  0.952000  0.429000  0.838700  1
  C  C843  1  0.477000  0.048000  0.838700  1
  C  C844  1  0.523000  0.571000  0.161300  1
  C  C845  1  0.429000  0.952000  0.161300  1
  C  C846  1  0.048000  0.477000  0.161300  1
  C  C847  1  0.048000  0.477000  0.338700  1
  C  C848  1  0.429000  0.952000  0.338700  1
  C  C849  1  0.523000  0.571000  0.338700  1
  C  C850  1  0.571000  0.523000  0.661300  1
  C  C851  1  0.477000  0.048000  0.661300  1
  C  C852  1  0.952000  0.429000  0.661300  1
  C  C853  1  0.655000  0.869000  0.750000  1
  C  C854  1  0.214000  0.345000  0.750000  1
  C  C855  1  0.131000  0.786000  0.750000  1
  C  C856  1  0.869000  0.655000  0.250000  1
  C  C857  1  0.345000  0.214000  0.250000  1
  C  C858  1  0.786000  0.131000  0.250000  1
  C  C859  1  0.722000  0.878000  0.750000  1
  C  C860  1  0.156000  0.278000  0.750000  1
  C  C861  1  0.122000  0.844000  0.750000  1
  C  C862  1  0.878000  0.722000  0.250000  1
  C  C863  1  0.278000  0.156000  0.250000  1
  C  C864  1  0.844000  0.122000  0.250000  1
  C  C865  1  0.438900  0.526300  0.250000  1
  C  C866  1  0.087400  0.561100  0.250000  1
  C  C867  1  0.473700  0.912600  0.250000  1
  C  C868  1  0.526300  0.438900  0.750000  1
  C  C869  1  0.561100  0.087400  0.750000  1
  C  C870  1  0.912600  0.473700  0.750000  1
  C  C871  1  0.751200  0.780400  0.821100  1
  C  C872  1  0.029200  0.248800  0.821100  1
  C  C873  1  0.219600  0.970800  0.821100  1
  C  C874  1  0.780400  0.751200  0.178900  1
  C  C875  1  0.248800  0.029200  0.178900  1
  C  C876  1  0.970800  0.219600  0.178900  1
  C  C877  1  0.970800  0.219600  0.321100  1
  C  C878  1  0.248800  0.029200  0.321100  1
  C  C879  1  0.780400  0.751200  0.321100  1
  C  C880  1  0.751200  0.780400  0.678900  1
  C  C881  1  0.219600  0.970800  0.678900  1
  C  C882  1  0.029200  0.248800  0.678900  1
  C  C883  1  0.738200  0.731800  0.798600  1
  C  C884  1  0.993600  0.261800  0.798600  1
  C  C885  1  0.268200  0.006400  0.798600  1
  C  C886  1  0.731800  0.738200  0.201400  1
  C  C887  1  0.261800  0.993600  0.201400  1
  C  C888  1  0.006400  0.268200  0.201400  1
  C  C889  1  0.006400  0.268200  0.298600  1
  C  C890  1  0.261800  0.993600  0.298600  1
  C  C891  1  0.731800  0.738200  0.298600  1
  C  C892  1  0.738200  0.731800  0.701400  1
  C  C893  1  0.268200  0.006400  0.701400  1
  C  C894  1  0.993600  0.261800  0.701400  1
  C  C895  1  0.672900  0.694400  0.791900  1
  C  C896  1  0.021500  0.327100  0.791900  1
  C  C897  1  0.305600  0.978500  0.791900  1
  C  C898  1  0.694400  0.672900  0.208100  1
  C  C899  1  0.327100  0.021500  0.208100  1
  C  C900  1  0.978500  0.305600  0.208100  1
  C  C901  1  0.978500  0.305600  0.291900  1
  C  C902  1  0.327100  0.021500  0.291900  1
  C  C903  1  0.694400  0.672900  0.291900  1
  C  C904  1  0.672900  0.694400  0.708100  1
  C  C905  1  0.305600  0.978500  0.708100  1
  C  C906  1  0.021500  0.327100  0.708100  1
  C  C907  1  0.785800  0.717200  0.782200  1
  C  C908  1  0.931400  0.214200  0.782200  1
  C  C909  1  0.282800  0.068600  0.782200  1
  C  C910  1  0.717200  0.785800  0.217800  1
  C  C911  1  0.214200  0.931400  0.217800  1
  C  C912  1  0.068600  0.282800  0.217800  1
  C  C913  1  0.068600  0.282800  0.282200  1
  C  C914  1  0.214200  0.931400  0.282200  1
  C  C915  1  0.717200  0.785800  0.282200  1
  C  C916  1  0.785800  0.717200  0.717800  1
  C  C917  1  0.282800  0.068600  0.717800  1
  C  C918  1  0.931400  0.214200  0.717800  1
  C  C919  1  0.740500  0.932000  0.026100  1
  C  C920  1  0.191500  0.259500  0.026100  1
  C  C921  1  0.068000  0.808500  0.026100  1
  C  C922  1  0.932000  0.740500  0.973900  1
  C  C923  1  0.259500  0.191500  0.973900  1
  C  C924  1  0.808500  0.068000  0.973900  1
  C  C925  1  0.808500  0.068000  0.526100  1
  C  C926  1  0.259500  0.191500  0.526100  1
  C  C927  1  0.932000  0.740500  0.526100  1
  C  C928  1  0.740500  0.932000  0.473900  1
  C  C929  1  0.068000  0.808500  0.473900  1
  C  C930  1  0.191500  0.259500  0.473900  1
  C  C931  1  0.690100  0.718700  0.001360  1
  C  C932  1  0.028600  0.309900  0.001360  1
  C  C933  1  0.281300  0.971400  0.001360  1
  C  C934  1  0.718700  0.690100  0.998640  1
  C  C935  1  0.309900  0.028600  0.998640  1
  C  C936  1  0.971400  0.281300  0.998640  1
  C  C937  1  0.971400  0.281300  0.501360  1
  C  C938  1  0.309900  0.028600  0.501360  1
  C  C939  1  0.718700  0.690100  0.501360  1
  C  C940  1  0.690100  0.718700  0.498640  1
  C  C941  1  0.281300  0.971400  0.498640  1
  C  C942  1  0.028600  0.309900  0.498640  1
  C  C943  1  0.704300  0.929600  0.875100  1.0
  C  C944  1  0.225300  0.295700  0.875100  1.0
  C  C945  1  0.070400  0.774700  0.875100  1.0
  C  C946  1  0.929600  0.704300  0.124900  1.0
  C  C947  1  0.295700  0.225300  0.124900  1.0
  C  C948  1  0.774700  0.070400  0.124900  1.0
  C  C949  1  0.774700  0.070400  0.375100  1.0
  C  C950  1  0.295700  0.225300  0.375100  1.0
  C  C951  1  0.929600  0.704300  0.375100  1.0
  C  C952  1  0.704300  0.929600  0.624900  1.0
  C  C953  1  0.070400  0.774700  0.624900  1.0
  C  C954  1  0.225300  0.295700  0.624900  1.0
  C  C955  1  0.765100  0.970100  0.886300  1.0
  C  C956  1  0.205000  0.234900  0.886300  1.0
  C  C957  1  0.029900  0.795000  0.886300  1.0
  C  C958  1  0.970100  0.765100  0.113700  1.0
  C  C959  1  0.234900  0.205000  0.113700  1.0
  C  C960  1  0.795000  0.029900  0.113700  1.0
  C  C961  1  0.795000  0.029900  0.386300  1.0
  C  C962  1  0.234900  0.205000  0.386300  1.0
  C  C963  1  0.970100  0.765100  0.386300  1.0
  C  C964  1  0.765100  0.970100  0.613700  1.0
  C  C965  1  0.029900  0.795000  0.613700  1.0
  C  C966  1  0.205000  0.234900  0.613700  1.0
  C  C967  1  0.811800  0.010800  0.866200  1.0
  C  C968  1  0.199000  0.188200  0.866200  1.0
  C  C969  1  0.989200  0.801000  0.866200  1.0
  C  C970  1  0.010800  0.811800  0.133800  1.0
  C  C971  1  0.188200  0.199000  0.133800  1.0
  C  C972  1  0.801000  0.989200  0.133800  1.0
  C  C973  1  0.801000  0.989200  0.366200  1.0
  C  C974  1  0.188200  0.199000  0.366200  1.0
  C  C975  1  0.010800  0.811800  0.366200  1.0
  C  C976  1  0.811800  0.010800  0.633800  1.0
  C  C977  1  0.989200  0.801000  0.633800  1.0
  C  C978  1  0.199000  0.188200  0.633800  1.0
  C  C979  1  0.802700  0.011200  0.832100  1.0
  C  C980  1  0.208500  0.197300  0.832100  1.0
  C  C981  1  0.988800  0.791500  0.832100  1.0
  C  C982  1  0.011200  0.802700  0.167900  1.0
  C  C983  1  0.197300  0.208500  0.167900  1.0
  C  C984  1  0.791500  0.988800  0.167900  1.0
  C  C985  1  0.791500  0.988800  0.332100  1.0
  C  C986  1  0.197300  0.208500  0.332100  1.0
  C  C987  1  0.011200  0.802700  0.332100  1.0
  C  C988  1  0.802700  0.011200  0.667900  1.0
  C  C989  1  0.988800  0.791500  0.667900  1.0
  C  C990  1  0.208500  0.197300  0.667900  1.0
  C  C991  1  0.739500  0.969500  0.820700  1.0
  C  C992  1  0.230000  0.260500  0.820700  1.0
  C  C993  1  0.030500  0.770000  0.820700  1.0
  C  C994  1  0.969500  0.739500  0.179300  1.0
  C  C995  1  0.260500  0.230000  0.179300  1.0
  C  C996  1  0.770000  0.030500  0.179300  1.0
  C  C997  1  0.770000  0.030500  0.320700  1.0
  C  C998  1  0.260500  0.230000  0.320700  1.0
  C  C999  1  0.969500  0.739500  0.320700  1.0
  C  C1000  1  0.739500  0.969500  0.679300  1.0
  C  C1001  1  0.030500  0.770000  0.679300  1.0
  C  C1002  1  0.230000  0.260500  0.679300  1.0
  C  C1003  1  0.691600  0.927700  0.841500  1.0
  C  C1004  1  0.236100  0.308400  0.841500  1.0
  C  C1005  1  0.072300  0.763900  0.841500  1.0
  C  C1006  1  0.927700  0.691600  0.158500  1.0
  C  C1007  1  0.308400  0.236100  0.158500  1.0
  C  C1008  1  0.763900  0.072300  0.158500  1.0
  C  C1009  1  0.763900  0.072300  0.341500  1.0
  C  C1010  1  0.308400  0.236100  0.341500  1.0
  C  C1011  1  0.927700  0.691600  0.341500  1.0
  C  C1012  1  0.691600  0.927700  0.658500  1.0
  C  C1013  1  0.072300  0.763900  0.658500  1.0
  C  C1014  1  0.236100  0.308400  0.658500  1.0
  C  C1015  1  0.850600  0.051700  0.808800  1.0
  C  C1016  1  0.201100  0.149400  0.808800  1.0
  C  C1017  1  0.948300  0.798900  0.808800  1.0
  C  C1018  1  0.051700  0.850600  0.191200  1.0
  C  C1019  1  0.149400  0.201100  0.191200  1.0
  C  C1020  1  0.798900  0.948300  0.191200  1.0
  C  C1021  1  0.798900  0.948300  0.308800  1.0
  C  C1022  1  0.149400  0.201100  0.308800  1.0
  C  C1023  1  0.051700  0.850600  0.308800  1.0
  C  C1024  1  0.850600  0.051700  0.691200  1.0
  C  C1025  1  0.948300  0.798900  0.691200  1.0
  C  C1026  1  0.201100  0.149400  0.691200  1.0
  C  C1027  1  0.647100  0.909300  0.921640  1.0
  C  C1028  1  0.262200  0.352900  0.921640  1.0
  C  C1029  1  0.090700  0.737800  0.921640  1.0
  C  C1030  1  0.909300  0.647100  0.078360  1.0
  C  C1031  1  0.352900  0.262200  0.078360  1.0
  C  C1032  1  0.737800  0.090700  0.078360  1.0
  C  C1033  1  0.737800  0.090700  0.421640  1.0
  C  C1034  1  0.352900  0.262200  0.421640  1.0
  C  C1035  1  0.909300  0.647100  0.421640  1.0
  C  C1036  1  0.647100  0.909300  0.578360  1.0
  C  C1037  1  0.090700  0.737800  0.578360  1.0
  C  C1038  1  0.262200  0.352900  0.578360  1.0
  C  C1039  1  0.604100  0.865300  0.946200  1.0
  C  C1040  1  0.261200  0.395900  0.946200  1.0
  C  C1041  1  0.134700  0.738800  0.946200  1.0
  C  C1042  1  0.865300  0.604100  0.053800  1.0
  C  C1043  1  0.395900  0.261200  0.053800  1.0
  C  C1044  1  0.738800  0.134700  0.053800  1.0
  C  C1045  1  0.738800  0.134700  0.446200  1.0
  C  C1046  1  0.395900  0.261200  0.446200  1.0
  C  C1047  1  0.865300  0.604100  0.446200  1.0
  C  C1048  1  0.604100  0.865300  0.553800  1.0
  C  C1049  1  0.134700  0.738800  0.553800  1.0
  C  C1050  1  0.261200  0.395900  0.553800  1.0
  C  C1051  1  0.541000  0.761900  0.960400  1.0
  C  C1052  1  0.220900  0.459000  0.960400  1.0
  C  C1053  1  0.238100  0.779100  0.960400  1.0
  C  C1054  1  0.761900  0.541000  0.039600  1.0
  C  C1055  1  0.459000  0.220900  0.039600  1.0
  C  C1056  1  0.779100  0.238100  0.039600  1.0
  C  C1057  1  0.779100  0.238100  0.460400  1.0
  C  C1058  1  0.459000  0.220900  0.460400  1.0
  C  C1059  1  0.761900  0.541000  0.460400  1.0
  C  C1060  1  0.541000  0.761900  0.539600  1.0
  C  C1061  1  0.238100  0.779100  0.539600  1.0
  C  C1062  1  0.220900  0.459000  0.539600  1.0
  C  C1063  1  0.528400  0.776600  0.990300  1.0
  C  C1064  1  0.248200  0.471600  0.990300  1.0
  C  C1065  1  0.223400  0.751800  0.990300  1.0
  C  C1066  1  0.776600  0.528400  0.009700  1.0
  C  C1067  1  0.471600  0.248200  0.009700  1.0
  C  C1068  1  0.751800  0.223400  0.009700  1.0
  C  C1069  1  0.751800  0.223400  0.490300  1.0
  C  C1070  1  0.471600  0.248200  0.490300  1.0
  C  C1071  1  0.776600  0.528400  0.490300  1.0
  C  C1072  1  0.528400  0.776600  0.509700  1.0
  C  C1073  1  0.223400  0.751800  0.509700  1.0
  C  C1074  1  0.248200  0.471600  0.509700  1.0
  C  C1075  1  0.555300  0.841500  0.998080  1.0
  C  C1076  1  0.286200  0.444700  0.998080  1.0
  C  C1077  1  0.158500  0.713800  0.998080  1.0
  C  C1078  1  0.841500  0.555300  0.001920  1.0
  C  C1079  1  0.444700  0.286200  0.001920  1.0
  C  C1080  1  0.713800  0.158500  0.001920  1.0
  C  C1081  1  0.713800  0.158500  0.498080  1.0
  C  C1082  1  0.444700  0.286200  0.498080  1.0
  C  C1083  1  0.841500  0.555300  0.498080  1.0
  C  C1084  1  0.555300  0.841500  0.501920  1.0
  C  C1085  1  0.158500  0.713800  0.501920  1.0
  C  C1086  1  0.286200  0.444700  0.501920  1.0
  C  C1087  1  0.592200  0.885200  0.975700  1.0
  C  C1088  1  0.293000  0.407800  0.975700  1.0
  C  C1089  1  0.114800  0.707000  0.975700  1.0
  C  C1090  1  0.885200  0.592200  0.024300  1.0
  C  C1091  1  0.407800  0.293000  0.024300  1.0
  C  C1092  1  0.707000  0.114800  0.024300  1.0
  C  C1093  1  0.707000  0.114800  0.475700  1.0
  C  C1094  1  0.407800  0.293000  0.475700  1.0
  C  C1095  1  0.885200  0.592200  0.475700  1.0
  C  C1096  1  0.592200  0.885200  0.524300  1.0
  C  C1097  1  0.114800  0.707000  0.524300  1.0
  C  C1098  1  0.293000  0.407800  0.524300  1.0
  C  C1099  1  0.495000  0.729200  0.015400  1.0
  C  C1100  1  0.234200  0.505000  0.015400  1.0
  C  C1101  1  0.270800  0.765800  0.015400  1.0
  C  C1102  1  0.729200  0.495000  0.984600  1.0
  C  C1103  1  0.505000  0.234200  0.984600  1.0
  C  C1104  1  0.765800  0.270800  0.984600  1.0
  C  C1105  1  0.765800  0.270800  0.515400  1.0
  C  C1106  1  0.505000  0.234200  0.515400  1.0
  C  C1107  1  0.729200  0.495000  0.515400  1.0
  C  C1108  1  0.495000  0.729200  0.484600  1.0
  C  C1109  1  0.270800  0.765800  0.484600  1.0
  C  C1110  1  0.234200  0.505000  0.484600  1.0
  C  C1111  1  0.441300  0.722600  0.031230  1.0
  C  C1112  1  0.281300  0.558700  0.031230  1.0
  C  C1113  1  0.277400  0.718700  0.031230  1.0
  C  C1114  1  0.722600  0.441300  0.968770  1.0
  C  C1115  1  0.558700  0.281300  0.968770  1.0
  C  C1116  1  0.718700  0.277400  0.968770  1.0
  C  C1117  1  0.718700  0.277400  0.531230  1.0
  C  C1118  1  0.558700  0.281300  0.531230  1.0
  C  C1119  1  0.722600  0.441300  0.531230  1.0
  C  C1120  1  0.441300  0.722600  0.468770  1.0
  C  C1121  1  0.277400  0.718700  0.468770  1.0
  C  C1122  1  0.281300  0.558700  0.468770  1.0
  C  C1123  1  0.434500  0.644300  0.065500  1.0
  C  C1124  1  0.209800  0.565500  0.065500  1.0
  C  C1125  1  0.355700  0.790200  0.065500  1.0
  C  C1126  1  0.644300  0.434500  0.934500  1.0
  C  C1127  1  0.565500  0.209800  0.934500  1.0
  C  C1128  1  0.790200  0.355700  0.934500  1.0
  C  C1129  1  0.790200  0.355700  0.565500  1.0
  C  C1130  1  0.565500  0.209800  0.565500  1.0
  C  C1131  1  0.644300  0.434500  0.565500  1.0
  C  C1132  1  0.434500  0.644300  0.434500  1.0
  C  C1133  1  0.355700  0.790200  0.434500  1.0
  C  C1134  1  0.209800  0.565500  0.434500  1.0
  C  C1135  1  0.488900  0.650200  0.051200  1.0
  C  C1136  1  0.161300  0.511100  0.051200  1.0
  C  C1137  1  0.349800  0.838700  0.051200  1.0
  C  C1138  1  0.650200  0.488900  0.948800  1.0
  C  C1139  1  0.511100  0.161300  0.948800  1.0
  C  C1140  1  0.838700  0.349800  0.948800  1.0
  C  C1141  1  0.838700  0.349800  0.551200  1.0
  C  C1142  1  0.511100  0.161300  0.551200  1.0
  C  C1143  1  0.650200  0.488900  0.551200  1.0
  C  C1144  1  0.488900  0.650200  0.448800  1.0
  C  C1145  1  0.349800  0.838700  0.448800  1.0
  C  C1146  1  0.161300  0.511100  0.448800  1.0
  C  C1147  1  0.516800  0.689800  0.025800  1.0
  C  C1148  1  0.173000  0.483200  0.025800  1.0
  C  C1149  1  0.310200  0.827000  0.025800  1.0
  C  C1150  1  0.689800  0.516800  0.974200  1.0
  C  C1151  1  0.483200  0.173000  0.974200  1.0
  C  C1152  1  0.827000  0.310200  0.974200  1.0
  C  C1153  1  0.827000  0.310200  0.525800  1.0
  C  C1154  1  0.483200  0.173000  0.525800  1.0
  C  C1155  1  0.689800  0.516800  0.525800  1.0
  C  C1156  1  0.516800  0.689800  0.474200  1.0
  C  C1157  1  0.310200  0.827000  0.474200  1.0
  C  C1158  1  0.173000  0.483200  0.474200  1.0
  C  C1159  1  0.406000  0.606500  0.092100  1.0
  C  C1160  1  0.200500  0.594000  0.092100  1.0
  C  C1161  1  0.393500  0.799500  0.092100  1.0
  C  C1162  1  0.606500  0.406000  0.907900  1.0
  C  C1163  1  0.594000  0.200500  0.907900  1.0
  C  C1164  1  0.799500  0.393500  0.907900  1.0
  C  C1165  1  0.799500  0.393500  0.592100  1.0
  C  C1166  1  0.594000  0.200500  0.592100  1.0
  C  C1167  1  0.606500  0.406000  0.592100  1.0
  C  C1168  1  0.406000  0.606500  0.407900  1.0
  C  C1169  1  0.393500  0.799500  0.407900  1.0
  C  C1170  1  0.200500  0.594000  0.407900  1.0
  C  C1171  1  0.332200  0.572100  0.132400  1.0
  C  C1172  1  0.239900  0.667800  0.132400  1.0
  C  C1173  1  0.427900  0.760100  0.132400  1.0
  C  C1174  1  0.572100  0.332200  0.867600  1.0
  C  C1175  1  0.667800  0.239900  0.867600  1.0
  C  C1176  1  0.760100  0.427900  0.867600  1.0
  C  C1177  1  0.760100  0.427900  0.632400  1.0
  C  C1178  1  0.667800  0.239900  0.632400  1.0
  C  C1179  1  0.572100  0.332200  0.632400  1.0
  C  C1180  1  0.332200  0.572100  0.367600  1.0
  C  C1181  1  0.427900  0.760100  0.367600  1.0
  C  C1182  1  0.239900  0.667800  0.367600  1.0
  C  C1183  1  0.271800  0.520300  0.131100  1.0
  C  C1184  1  0.248500  0.728200  0.131100  1.0
  C  C1185  1  0.479700  0.751500  0.131100  1.0
  C  C1186  1  0.520300  0.271800  0.868900  1.0
  C  C1187  1  0.728200  0.248500  0.868900  1.0
  C  C1188  1  0.751500  0.479700  0.868900  1.0
  C  C1189  1  0.751500  0.479700  0.631100  1.0
  C  C1190  1  0.728200  0.248500  0.631100  1.0
  C  C1191  1  0.520300  0.271800  0.631100  1.0
  C  C1192  1  0.271800  0.520300  0.368900  1.0
  C  C1193  1  0.479700  0.751500  0.368900  1.0
  C  C1194  1  0.248500  0.728200  0.368900  1.0
  C  C1195  1  0.245000  0.484200  0.158600  1.0
  C  C1196  1  0.239200  0.755000  0.158600  1.0
  C  C1197  1  0.515800  0.760800  0.158600  1.0
  C  C1198  1  0.484200  0.245000  0.841400  1.0
  C  C1199  1  0.755000  0.239200  0.841400  1.0
  C  C1200  1  0.760800  0.515800  0.841400  1.0
  C  C1201  1  0.760800  0.515800  0.658600  1.0
  C  C1202  1  0.755000  0.239200  0.658600  1.0
  C  C1203  1  0.484200  0.245000  0.658600  1.0
  C  C1204  1  0.245000  0.484200  0.341400  1.0
  C  C1205  1  0.515800  0.760800  0.341400  1.0
  C  C1206  1  0.239200  0.755000  0.341400  1.0
  C  C1207  1  0.278400  0.499800  0.187400  1.0
  C  C1208  1  0.221400  0.721600  0.187400  1.0
  C  C1209  1  0.500200  0.778600  0.187400  1.0
  C  C1210  1  0.499800  0.278400  0.812600  1.0
  C  C1211  1  0.721600  0.221400  0.812600  1.0
  C  C1212  1  0.778600  0.500200  0.812600  1.0
  C  C1213  1  0.778600  0.500200  0.687400  1.0
  C  C1214  1  0.721600  0.221400  0.687400  1.0
  C  C1215  1  0.499800  0.278400  0.687400  1.0
  C  C1216  1  0.278400  0.499800  0.312600  1.0
  C  C1217  1  0.500200  0.778600  0.312600  1.0
  C  C1218  1  0.221400  0.721600  0.312600  1.0
  C  C1219  1  0.338700  0.551500  0.188800  1.0
  C  C1220  1  0.212800  0.661300  0.188800  1.0
  C  C1221  1  0.448500  0.787200  0.188800  1.0
  C  C1222  1  0.551500  0.338700  0.811200  1.0
  C  C1223  1  0.661300  0.212800  0.811200  1.0
  C  C1224  1  0.787200  0.448500  0.811200  1.0
  C  C1225  1  0.787200  0.448500  0.688800  1.0
  C  C1226  1  0.661300  0.212800  0.688800  1.0
  C  C1227  1  0.551500  0.338700  0.688800  1.0
  C  C1228  1  0.338700  0.551500  0.311200  1.0
  C  C1229  1  0.448500  0.787200  0.311200  1.0
  C  C1230  1  0.212800  0.661300  0.311200  1.0
  C  C1231  1  0.365600  0.587600  0.161300  1.0
  C  C1232  1  0.222000  0.634400  0.161300  1.0
  C  C1233  1  0.412400  0.778000  0.161300  1.0
  C  C1234  1  0.587600  0.365600  0.838700  1.0
  C  C1235  1  0.634400  0.222000  0.838700  1.0
  C  C1236  1  0.778000  0.412400  0.838700  1.0
  C  C1237  1  0.778000  0.412400  0.661300  1.0
  C  C1238  1  0.634400  0.222000  0.661300  1.0
  C  C1239  1  0.587600  0.365600  0.661300  1.0
  C  C1240  1  0.365600  0.587600  0.338700  1.0
  C  C1241  1  0.412400  0.778000  0.338700  1.0
  C  C1242  1  0.222000  0.634400  0.338700  1.0
  C  C1243  1  0.256400  0.450000  0.214600  1.0
  C  C1244  1  0.193600  0.743600  0.214600  1.0
  C  C1245  1  0.550000  0.806400  0.214600  1.0
  C  C1246  1  0.450000  0.256400  0.785400  1.0
  C  C1247  1  0.743600  0.193600  0.785400  1.0
  C  C1248  1  0.806400  0.550000  0.785400  1.0
  C  C1249  1  0.806400  0.550000  0.714600  1.0
  C  C1250  1  0.743600  0.193600  0.714600  1.0
  C  C1251  1  0.450000  0.256400  0.714600  1.0
  C  C1252  1  0.256400  0.450000  0.285400  1.0
  C  C1253  1  0.550000  0.806400  0.285400  1.0
  C  C1254  1  0.193600  0.743600  0.285400  1.0
  C  C1255  1  0.205500  0.930100  0.917240  1.0
  C  C1256  1  0.724600  0.794500  0.917240  1.0
  C  C1257  1  0.069900  0.275400  0.917240  1.0
  C  C1258  1  0.930100  0.205500  0.082760  1.0
  C  C1259  1  0.794500  0.724600  0.082760  1.0
  C  C1260  1  0.275400  0.069900  0.082760  1.0
  C  C1261  1  0.275400  0.069900  0.417240  1.0
  C  C1262  1  0.794500  0.724600  0.417240  1.0
  C  C1263  1  0.930100  0.205500  0.417240  1.0
  C  C1264  1  0.205500  0.930100  0.582760  1.0
  C  C1265  1  0.069900  0.275400  0.582760  1.0
  C  C1266  1  0.724600  0.794500  0.582760  1.0
  C  C1267  1  0.153500  0.899600  0.938400  1.0
  C  C1268  1  0.746100  0.846500  0.938400  1.0
  C  C1269  1  0.100400  0.253900  0.938400  1.0
  C  C1270  1  0.899600  0.153500  0.061600  1.0
  C  C1271  1  0.846500  0.746100  0.061600  1.0
  C  C1272  1  0.253900  0.100400  0.061600  1.0
  C  C1273  1  0.253900  0.100400  0.438400  1.0
  C  C1274  1  0.846500  0.746100  0.438400  1.0
  C  C1275  1  0.899600  0.153500  0.438400  1.0
  C  C1276  1  0.153500  0.899600  0.561600  1.0
  C  C1277  1  0.100400  0.253900  0.561600  1.0
  C  C1278  1  0.746100  0.846500  0.561600  1.0
  C  C1279  1  0.119200  0.928600  0.947100  1.0
  C  C1280  1  0.809400  0.880800  0.947100  1.0
  C  C1281  1  0.071400  0.190600  0.947100  1.0
  C  C1282  1  0.928600  0.119200  0.052900  1.0
  C  C1283  1  0.880800  0.809400  0.052900  1.0
  C  C1284  1  0.190600  0.071400  0.052900  1.0
  C  C1285  1  0.190600  0.071400  0.447100  1.0
  C  C1286  1  0.880800  0.809400  0.447100  1.0
  C  C1287  1  0.928600  0.119200  0.447100  1.0
  C  C1288  1  0.119200  0.928600  0.552900  1.0
  C  C1289  1  0.071400  0.190600  0.552900  1.0
  C  C1290  1  0.809400  0.880800  0.552900  1.0
  C  C1291  1  0.137500  0.989400  0.936400  1.0
  C  C1292  1  0.851900  0.862500  0.936400  1.0
  C  C1293  1  0.010600  0.148100  0.936400  1.0
  C  C1294  1  0.989400  0.137500  0.063600  1.0
  C  C1295  1  0.862500  0.851900  0.063600  1.0
  C  C1296  1  0.148100  0.010600  0.063600  1.0
  C  C1297  1  0.148100  0.010600  0.436400  1.0
  C  C1298  1  0.862500  0.851900  0.436400  1.0
  C  C1299  1  0.989400  0.137500  0.436400  1.0
  C  C1300  1  0.137500  0.989400  0.563600  1.0
  C  C1301  1  0.010600  0.148100  0.563600  1.0
  C  C1302  1  0.851900  0.862500  0.563600  1.0
  C  C1303  1  0.186600  0.018200  0.915500  1.0
  C  C1304  1  0.831600  0.813400  0.915500  1.0
  C  C1305  1  0.981800  0.168400  0.915500  1.0
  C  C1306  1  0.018200  0.186600  0.084500  1.0
  C  C1307  1  0.813400  0.831600  0.084500  1.0
  C  C1308  1  0.168400  0.981800  0.084500  1.0
  C  C1309  1  0.168400  0.981800  0.415500  1.0
  C  C1310  1  0.813400  0.831600  0.415500  1.0
  C  C1311  1  0.018200  0.186600  0.415500  1.0
  C  C1312  1  0.186600  0.018200  0.584500  1.0
  C  C1313  1  0.981800  0.168400  0.584500  1.0
  C  C1314  1  0.831600  0.813400  0.584500  1.0
  C  C1315  1  0.222200  0.989500  0.906500  1.0
  C  C1316  1  0.767300  0.777800  0.906500  1.0
  C  C1317  1  0.010500  0.232700  0.906500  1.0
  C  C1318  1  0.989500  0.222200  0.093500  1.0
  C  C1319  1  0.777800  0.767300  0.093500  1.0
  C  C1320  1  0.232700  0.010500  0.093500  1.0
  C  C1321  1  0.232700  0.010500  0.406500  1.0
  C  C1322  1  0.777800  0.767300  0.406500  1.0
  C  C1323  1  0.989500  0.222200  0.406500  1.0
  C  C1324  1  0.222200  0.989500  0.593500  1.0
  C  C1325  1  0.010500  0.232700  0.593500  1.0
  C  C1326  1  0.767300  0.777800  0.593500  1.0
  C  C1327  1  0.099300  0.019300  0.945600  1.0
  C  C1328  1  0.920000  0.900700  0.945600  1.0
  C  C1329  1  0.980700  0.080000  0.945600  1.0
  C  C1330  1  0.019300  0.099300  0.054400  1.0
  C  C1331  1  0.900700  0.920000  0.054400  1.0
  C  C1332  1  0.080000  0.980700  0.054400  1.0
  C  C1333  1  0.080000  0.980700  0.445600  1.0
  C  C1334  1  0.900700  0.920000  0.445600  1.0
  C  C1335  1  0.019300  0.099300  0.445600  1.0
  C  C1336  1  0.099300  0.019300  0.554400  1.0
  C  C1337  1  0.980700  0.080000  0.554400  1.0
  C  C1338  1  0.920000  0.900700  0.554400  1.0
  C  C1339  1  0.299700  0.933500  0.912830  1.0
  C  C1340  1  0.633800  0.700300  0.912830  1.0
  C  C1341  1  0.066500  0.366200  0.912830  1.0
  C  C1342  1  0.933500  0.299700  0.087170  1.0
  C  C1343  1  0.700300  0.633800  0.087170  1.0
  C  C1344  1  0.366200  0.066500  0.087170  1.0
  C  C1345  1  0.366200  0.066500  0.412830  1.0
  C  C1346  1  0.700300  0.633800  0.412830  1.0
  C  C1347  1  0.933500  0.299700  0.412830  1.0
  C  C1348  1  0.299700  0.933500  0.587170  1.0
  C  C1349  1  0.066500  0.366200  0.587170  1.0
  C  C1350  1  0.633800  0.700300  0.587170  1.0
  C  C1351  1  0.339600  0.905400  0.904260  1.0
  C  C1352  1  0.565800  0.660400  0.904260  1.0
  C  C1353  1  0.094600  0.434200  0.904260  1.0
  C  C1354  1  0.905400  0.339600  0.095740  1.0
  C  C1355  1  0.660400  0.565800  0.095740  1.0
  C  C1356  1  0.434200  0.094600  0.095740  1.0
  C  C1357  1  0.434200  0.094600  0.404260  1.0
  C  C1358  1  0.660400  0.565800  0.404260  1.0
  C  C1359  1  0.905400  0.339600  0.404260  1.0
  C  C1360  1  0.339600  0.905400  0.595740  1.0
  C  C1361  1  0.094600  0.434200  0.595740  1.0
  C  C1362  1  0.565800  0.660400  0.595740  1.0
  C  C1363  1  0.342200  0.821900  0.881350  1.0
  C  C1364  1  0.479700  0.657800  0.881350  1.0
  C  C1365  1  0.178100  0.520300  0.881350  1.0
  C  C1366  1  0.821900  0.342200  0.118650  1.0
  C  C1367  1  0.657800  0.479700  0.118650  1.0
  C  C1368  1  0.520300  0.178100  0.118650  1.0
  C  C1369  1  0.520300  0.178100  0.381350  1.0
  C  C1370  1  0.657800  0.479700  0.381350  1.0
  C  C1371  1  0.821900  0.342200  0.381350  1.0
  C  C1372  1  0.342200  0.821900  0.618650  1.0
  C  C1373  1  0.178100  0.520300  0.618650  1.0
  C  C1374  1  0.479700  0.657800  0.618650  1.0
  C  C1375  1  0.409100  0.855200  0.882200  1.0
  C  C1376  1  0.446100  0.590900  0.882200  1.0
  C  C1377  1  0.144800  0.553900  0.882200  1.0
  C  C1378  1  0.855200  0.409100  0.117800  1.0
  C  C1379  1  0.590900  0.446100  0.117800  1.0
  C  C1380  1  0.553900  0.144800  0.117800  1.0
  C  C1381  1  0.553900  0.144800  0.382200  1.0
  C  C1382  1  0.590900  0.446100  0.382200  1.0
  C  C1383  1  0.855200  0.409100  0.382200  1.0
  C  C1384  1  0.409100  0.855200  0.617800  1.0
  C  C1385  1  0.144800  0.553900  0.617800  1.0
  C  C1386  1  0.446100  0.590900  0.617800  1.0
  C  C1387  1  0.437500  0.913400  0.895700  1.0
  C  C1388  1  0.475900  0.562500  0.895700  1.0
  C  C1389  1  0.086600  0.524100  0.895700  1.0
  C  C1390  1  0.913400  0.437500  0.104300  1.0
  C  C1391  1  0.562500  0.475900  0.104300  1.0
  C  C1392  1  0.524100  0.086600  0.104300  1.0
  C  C1393  1  0.524100  0.086600  0.395700  1.0
  C  C1394  1  0.562500  0.475900  0.395700  1.0
  C  C1395  1  0.913400  0.437500  0.395700  1.0
  C  C1396  1  0.437500  0.913400  0.604300  1.0
  C  C1397  1  0.086600  0.524100  0.604300  1.0
  C  C1398  1  0.475900  0.562500  0.604300  1.0
  C  C1399  1  0.404600  0.940500  0.907000  1.0
  C  C1400  1  0.535900  0.595400  0.907000  1.0
  C  C1401  1  0.059500  0.464100  0.907000  1.0
  C  C1402  1  0.940500  0.404600  0.093000  1.0
  C  C1403  1  0.595400  0.535900  0.093000  1.0
  C  C1404  1  0.464100  0.059500  0.093000  1.0
  C  C1405  1  0.464100  0.059500  0.407000  1.0
  C  C1406  1  0.595400  0.535900  0.407000  1.0
  C  C1407  1  0.940500  0.404600  0.407000  1.0
  C  C1408  1  0.404600  0.940500  0.593000  1.0
  C  C1409  1  0.059500  0.464100  0.593000  1.0
  C  C1410  1  0.535900  0.595400  0.593000  1.0
  C  C1411  1  0.746900  0.757700  0.822500  1.0
  C  C1412  1  0.010800  0.253100  0.822500  1.0
  C  C1413  1  0.242300  0.989200  0.822500  1.0
  C  C1414  1  0.757700  0.746900  0.177500  1.0
  C  C1415  1  0.253100  0.010800  0.177500  1.0
  C  C1416  1  0.989200  0.242300  0.177500  1.0
  C  C1417  1  0.989200  0.242300  0.322500  1.0
  C  C1418  1  0.253100  0.010800  0.322500  1.0
  C  C1419  1  0.757700  0.746900  0.322500  1.0
  C  C1420  1  0.746900  0.757700  0.677500  1.0
  C  C1421  1  0.242300  0.989200  0.677500  1.0
  C  C1422  1  0.010800  0.253100  0.677500  1.0
  C  C1423  1  0.720100  0.697600  0.809800  1.0
  C  C1424  1  0.977500  0.279900  0.809800  1.0
  C  C1425  1  0.302400  0.022500  0.809800  1.0
  C  C1426  1  0.697600  0.720100  0.190200  1.0
  C  C1427  1  0.279900  0.977500  0.190200  1.0
  C  C1428  1  0.022500  0.302400  0.190200  1.0
  C  C1429  1  0.022500  0.302400  0.309800  1.0
  C  C1430  1  0.279900  0.977500  0.309800  1.0
  C  C1431  1  0.697600  0.720100  0.309800  1.0
  C  C1432  1  0.720100  0.697600  0.690200  1.0
  C  C1433  1  0.302400  0.022500  0.690200  1.0
  C  C1434  1  0.977500  0.279900  0.690200  1.0
  C  C1435  1  0.653200  0.666100  0.803400  1.0
  C  C1436  1  0.012900  0.346800  0.803400  1.0
  C  C1437  1  0.333900  0.987100  0.803400  1.0
  C  C1438  1  0.666100  0.653200  0.196600  1.0
  C  C1439  1  0.346800  0.012900  0.196600  1.0
  C  C1440  1  0.987100  0.333900  0.196600  1.0
  C  C1441  1  0.987100  0.333900  0.303400  1.0
  C  C1442  1  0.346800  0.012900  0.303400  1.0
  C  C1443  1  0.666100  0.653200  0.303400  1.0
  C  C1444  1  0.653200  0.666100  0.696600  1.0
  C  C1445  1  0.333900  0.987100  0.696600  1.0
  C  C1446  1  0.012900  0.346800  0.696600  1.0
  C  C1447  1  0.758300  0.673600  0.796100  1.0
  C  C1448  1  0.915300  0.241700  0.796100  1.0
  C  C1449  1  0.326400  0.084700  0.796100  1.0
  C  C1450  1  0.673600  0.758300  0.203900  1.0
  C  C1451  1  0.241700  0.915300  0.203900  1.0
  C  C1452  1  0.084700  0.326400  0.203900  1.0
  C  C1453  1  0.084700  0.326400  0.296100  1.0
  C  C1454  1  0.241700  0.915300  0.296100  1.0
  C  C1455  1  0.673600  0.758300  0.296100  1.0
  C  C1456  1  0.758300  0.673600  0.703900  1.0
  C  C1457  1  0.326400  0.084700  0.703900  1.0
  C  C1458  1  0.915300  0.241700  0.703900  1.0
  C  C1459  1  0.562800  0.772000  0.825300  1.0
  C  C1460  1  0.209200  0.437200  0.825300  1.0
  C  C1461  1  0.228000  0.790800  0.825300  1.0
  C  C1462  1  0.772000  0.562800  0.174700  1.0
  C  C1463  1  0.437200  0.209200  0.174700  1.0
  C  C1464  1  0.790800  0.228000  0.174700  1.0
  C  C1465  1  0.790800  0.228000  0.325300  1.0
  C  C1466  1  0.437200  0.209200  0.325300  1.0
  C  C1467  1  0.772000  0.562800  0.325300  1.0
  C  C1468  1  0.562800  0.772000  0.674700  1.0
  C  C1469  1  0.228000  0.790800  0.674700  1.0
  C  C1470  1  0.209200  0.437200  0.674700  1.0
  C  C1471  1  0.518200  0.787600  0.838800  1.0
  C  C1472  1  0.269400  0.481800  0.838800  1.0
  C  C1473  1  0.212400  0.730600  0.838800  1.0
  C  C1474  1  0.787600  0.518200  0.161200  1.0
  C  C1475  1  0.481800  0.269400  0.161200  1.0
  C  C1476  1  0.730600  0.212400  0.161200  1.0
  C  C1477  1  0.730600  0.212400  0.338800  1.0
  C  C1478  1  0.481800  0.269400  0.338800  1.0
  C  C1479  1  0.787600  0.518200  0.338800  1.0
  C  C1480  1  0.518200  0.787600  0.661200  1.0
  C  C1481  1  0.212400  0.730600  0.661200  1.0
  C  C1482  1  0.269400  0.481800  0.661200  1.0
  C  C1483  1  0.492500  0.824900  0.883650  1.0
  C  C1484  1  0.332400  0.507500  0.883650  1.0
  C  C1485  1  0.175100  0.667600  0.883650  1.0
  C  C1486  1  0.824900  0.492500  0.116350  1.0
  C  C1487  1  0.507500  0.332400  0.116350  1.0
  C  C1488  1  0.667600  0.175100  0.116350  1.0
  C  C1489  1  0.667600  0.175100  0.383650  1.0
  C  C1490  1  0.507500  0.332400  0.383650  1.0
  C  C1491  1  0.824900  0.492500  0.383650  1.0
  C  C1492  1  0.492500  0.824900  0.616350  1.0
  C  C1493  1  0.175100  0.667600  0.616350  1.0
  C  C1494  1  0.332400  0.507500  0.616350  1.0
  C  C1495  1  0.445200  0.827800  0.866100  1.0
  C  C1496  1  0.382600  0.554800  0.866100  1.0
  C  C1497  1  0.172200  0.617400  0.866100  1.0
  C  C1498  1  0.827800  0.445200  0.133900  1.0
  C  C1499  1  0.554800  0.382600  0.133900  1.0
  C  C1500  1  0.617400  0.172200  0.133900  1.0
  C  C1501  1  0.617400  0.172200  0.366100  1.0
  C  C1502  1  0.554800  0.382600  0.366100  1.0
  C  C1503  1  0.827800  0.445200  0.366100  1.0
  C  C1504  1  0.445200  0.827800  0.633900  1.0
  C  C1505  1  0.172200  0.617400  0.633900  1.0
  C  C1506  1  0.382600  0.554800  0.633900  1.0
  C  C1507  1  0.434200  0.807900  0.835100  1.0
  C  C1508  1  0.373700  0.565800  0.835100  1.0
  C  C1509  1  0.192100  0.626300  0.835100  1.0
  C  C1510  1  0.807900  0.434200  0.164900  1.0
  C  C1511  1  0.565800  0.373700  0.164900  1.0
  C  C1512  1  0.626300  0.192100  0.164900  1.0
  C  C1513  1  0.626300  0.192100  0.335100  1.0
  C  C1514  1  0.565800  0.373700  0.335100  1.0
  C  C1515  1  0.807900  0.434200  0.335100  1.0
  C  C1516  1  0.434200  0.807900  0.664900  1.0
  C  C1517  1  0.192100  0.626300  0.664900  1.0
  C  C1518  1  0.373700  0.565800  0.664900  1.0
  C  C1519  1  0.472000  0.787100  0.820210  1.0
  C  C1520  1  0.315100  0.528000  0.820210  1.0
  C  C1521  1  0.212900  0.684900  0.820210  1.0
  C  C1522  1  0.787100  0.472000  0.179790  1.0
  C  C1523  1  0.528000  0.315100  0.179790  1.0
  C  C1524  1  0.684900  0.212900  0.179790  1.0
  C  C1525  1  0.684900  0.212900  0.320210  1.0
  C  C1526  1  0.528000  0.315100  0.320210  1.0
  C  C1527  1  0.787100  0.472000  0.320210  1.0
  C  C1528  1  0.472000  0.787100  0.679790  1.0
  C  C1529  1  0.212900  0.684900  0.679790  1.0
  C  C1530  1  0.315100  0.528000  0.679790  1.0
  C  C1531  1  0.647300  0.752100  0.829490  1.0
  C  C1532  1  0.104800  0.352700  0.829490  1.0
  C  C1533  1  0.247900  0.895200  0.829490  1.0
  C  C1534  1  0.752100  0.647300  0.170510  1.0
  C  C1535  1  0.352700  0.104800  0.170510  1.0
  C  C1536  1  0.895200  0.247900  0.170510  1.0
  C  C1537  1  0.895200  0.247900  0.329490  1.0
  C  C1538  1  0.352700  0.104800  0.329490  1.0
  C  C1539  1  0.752100  0.647300  0.329490  1.0
  C  C1540  1  0.647300  0.752100  0.670510  1.0
  C  C1541  1  0.247900  0.895200  0.670510  1.0
  C  C1542  1  0.104800  0.352700  0.670510  1.0
  C  C1543  1  0.712100  0.788300  0.834000  1.0
  C  C1544  1  0.076200  0.287900  0.834000  1.0
  C  C1545  1  0.211700  0.923800  0.834000  1.0
  C  C1546  1  0.788300  0.712100  0.166000  1.0
  C  C1547  1  0.287900  0.076200  0.166000  1.0
  C  C1548  1  0.923800  0.211700  0.166000  1.0
  C  C1549  1  0.923800  0.211700  0.334000  1.0
  C  C1550  1  0.287900  0.076200  0.334000  1.0
  C  C1551  1  0.788300  0.712100  0.334000  1.0
  C  C1552  1  0.712100  0.788300  0.666000  1.0
  C  C1553  1  0.211700  0.923800  0.666000  1.0
  C  C1554  1  0.076200  0.287900  0.666000  1.0
  C  C1555  1  0.623700  0.699600  0.811200  1.0
  C  C1556  1  0.075900  0.376300  0.811200  1.0
  C  C1557  1  0.300400  0.924100  0.811200  1.0
  C  C1558  1  0.699600  0.623700  0.188800  1.0
  C  C1559  1  0.376300  0.075900  0.188800  1.0
  C  C1560  1  0.924100  0.300400  0.188800  1.0
  C  C1561  1  0.924100  0.300400  0.311200  1.0
  C  C1562  1  0.376300  0.075900  0.311200  1.0
  C  C1563  1  0.699600  0.623700  0.311200  1.0
  C  C1564  1  0.623700  0.699600  0.688800  1.0
  C  C1565  1  0.300400  0.924100  0.688800  1.0
  C  C1566  1  0.075900  0.376300  0.688800  1.0
  S  S1567  1  0.451400  0.635100  0.750000  1
  S  S1568  1  0.183700  0.548600  0.750000  1
  S  S1569  1  0.364900  0.816300  0.750000  1
  S  S1570  1  0.635100  0.451400  0.250000  1
  S  S1571  1  0.548600  0.183700  0.250000  1
  S  S1572  1  0.816300  0.364900  0.250000  1
  S  S1573  1  0.603800  0.056950  0.926570  1
  S  S1574  1  0.453150  0.396200  0.926570  1
  S  S1575  1  0.943050  0.546850  0.926570  1
  S  S1576  1  0.056950  0.603800  0.073430  1
  S  S1577  1  0.396200  0.453150  0.073430  1
  S  S1578  1  0.546850  0.943050  0.073430  1
  S  S1579  1  0.546850  0.943050  0.426570  1
  S  S1580  1  0.396200  0.453150  0.426570  1
  S  S1581  1  0.056950  0.603800  0.426570  1
  S  S1582  1  0.603800  0.056950  0.573430  1
  S  S1583  1  0.943050  0.546850  0.573430  1
  S  S1584  1  0.453150  0.396200  0.573430  1
  S  S1585  1  0.484800  0.607600  0.250000  1
  S  S1586  1  0.122800  0.515200  0.250000  1
  S  S1587  1  0.392400  0.877200  0.250000  1
  S  S1588  1  0.607600  0.484800  0.750000  1
  S  S1589  1  0.515200  0.122800  0.750000  1
  S  S1590  1  0.877200  0.392400  0.750000  1
  S  S1591  1  0.784150  0.000000  0.000000  1
  S  S1592  1  0.215850  0.215850  1.000000  1
  S  S1593  1  1.000000  0.784150  0.000000  1
  S  S1594  1  0.784150  0.000000  0.500000  1
  S  S1595  1  0.215850  0.215850  0.500000  1
  S  S1596  1  1.000000  0.784150  0.500000  1
  S  S1597  1  0.646200  0.634300  0.006630  1
  S  S1598  1  0.988100  0.353800  0.006630  1
  S  S1599  1  0.365700  0.011900  0.006630  1
  S  S1600  1  0.634300  0.646200  0.993370  1
  S  S1601  1  0.353800  0.988100  0.993370  1
  S  S1602  1  0.011900  0.365700  0.993370  1
  S  S1603  1  0.011900  0.365700  0.506630  1
  S  S1604  1  0.353800  0.988100  0.506630  1
  S  S1605  1  0.634300  0.646200  0.506630  1
  S  S1606  1  0.646200  0.634300  0.493370  1
  S  S1607  1  0.365700  0.011900  0.493370  1
  S  S1608  1  0.988100  0.353800  0.493370  1
  N  N1609  1  0.333333  0.666667  0.875600  1
  N  N1610  1  0.666667  0.333333  0.124400  1
  N  N1611  1  0.666667  0.333333  0.375600  1
  N  N1612  1  0.333333  0.666667  0.624400  1
  N  N1613  1  0.406500  0.810600  0.965100  1
  N  N1614  1  0.404100  0.593500  0.965100  1
  N  N1615  1  0.189400  0.595900  0.965100  1
  N  N1616  1  0.810600  0.406500  0.034900  1
  N  N1617  1  0.593500  0.404100  0.034900  1
  N  N1618  1  0.595900  0.189400  0.034900  1
  N  N1619  1  0.595900  0.189400  0.465100  1
  N  N1620  1  0.593500  0.404100  0.465100  1
  N  N1621  1  0.810600  0.406500  0.465100  1
  N  N1622  1  0.406500  0.810600  0.534900  1
  N  N1623  1  0.189400  0.595900  0.534900  1
  N  N1624  1  0.404100  0.593500  0.534900  1
  N  N1625  1  0.656900  0.571900  0.873700  1
  N  N1626  1  0.915000  0.343100  0.873700  1
  N  N1627  1  0.428100  0.085000  0.873700  1
  N  N1628  1  0.571900  0.656900  0.126300  1
  N  N1629  1  0.343100  0.915000  0.126300  1
  N  N1630  1  0.085000  0.428100  0.126300  1
  N  N1631  1  0.085000  0.428100  0.373700  1
  N  N1632  1  0.343100  0.915000  0.373700  1
  N  N1633  1  0.571900  0.656900  0.373700  1
  N  N1634  1  0.656900  0.571900  0.626300  1
  N  N1635  1  0.428100  0.085000  0.626300  1
  N  N1636  1  0.915000  0.343100  0.626300  1
  N  N1637  1  0.612000  0.872000  0.750000  1
  N  N1638  1  0.260000  0.388000  0.750000  1
  N  N1639  1  0.128000  0.740000  0.750000  1
  N  N1640  1  0.872000  0.612000  0.250000  1
  N  N1641  1  0.388000  0.260000  0.250000  1
  N  N1642  1  0.740000  0.128000  0.250000  1
  N  N1643  1  0.657500  0.886900  0.895720  1.0
  N  N1644  1  0.229400  0.342500  0.895720  1.0
  N  N1645  1  0.113100  0.770600  0.895720  1.0
  N  N1646  1  0.886900  0.657500  0.104280  1.0
  N  N1647  1  0.342500  0.229400  0.104280  1.0
  N  N1648  1  0.770600  0.113100  0.104280  1.0
  N  N1649  1  0.770600  0.113100  0.395720  1.0
  N  N1650  1  0.342500  0.229400  0.395720  1.0
  N  N1651  1  0.886900  0.657500  0.395720  1.0
  N  N1652  1  0.657500  0.886900  0.604280  1.0
  N  N1653  1  0.113100  0.770600  0.604280  1.0
  N  N1654  1  0.229400  0.342500  0.604280  1.0
  N  N1655  1  0.577300  0.804300  0.937860  1.0
  N  N1656  1  0.227000  0.422700  0.937860  1.0
  N  N1657  1  0.195700  0.773000  0.937860  1.0
  N  N1658  1  0.804300  0.577300  0.062140  1.0
  N  N1659  1  0.422700  0.227000  0.062140  1.0
  N  N1660  1  0.773000  0.195700  0.062140  1.0
  N  N1661  1  0.773000  0.195700  0.437860  1.0
  N  N1662  1  0.422700  0.227000  0.437860  1.0
  N  N1663  1  0.804300  0.577300  0.437860  1.0
  N  N1664  1  0.577300  0.804300  0.562140  1.0
  N  N1665  1  0.195700  0.773000  0.562140  1.0
  N  N1666  1  0.227000  0.422700  0.562140  1.0
  N  N1667  1  0.411800  0.681500  0.054570  1.0
  N  N1668  1  0.269700  0.588200  0.054570  1.0
  N  N1669  1  0.318500  0.730300  0.054570  1.0
  N  N1670  1  0.681500  0.411800  0.945430  1.0
  N  N1671  1  0.588200  0.269700  0.945430  1.0
  N  N1672  1  0.730300  0.318500  0.945430  1.0
  N  N1673  1  0.730300  0.318500  0.554570  1.0
  N  N1674  1  0.588200  0.269700  0.554570  1.0
  N  N1675  1  0.681500  0.411800  0.554570  1.0
  N  N1676  1  0.411800  0.681500  0.445430  1.0
  N  N1677  1  0.318500  0.730300  0.445430  1.0
  N  N1678  1  0.269700  0.588200  0.445430  1.0
  N  N1679  1  0.358600  0.607500  0.105340  1.0
  N  N1680  1  0.248900  0.641400  0.105340  1.0
  N  N1681  1  0.392500  0.751100  0.105340  1.0
  N  N1682  1  0.607500  0.358600  0.894660  1.0
  N  N1683  1  0.641400  0.248900  0.894660  1.0
  N  N1684  1  0.751100  0.392500  0.894660  1.0
  N  N1685  1  0.751100  0.392500  0.605340  1.0
  N  N1686  1  0.641400  0.248900  0.605340  1.0
  N  N1687  1  0.607500  0.358600  0.605340  1.0
  N  N1688  1  0.358600  0.607500  0.394660  1.0
  N  N1689  1  0.392500  0.751100  0.394660  1.0
  N  N1690  1  0.248900  0.641400  0.394660  1.0
  N  N1691  1  0.239200  0.899300  0.909130  1.0
  N  N1692  1  0.660100  0.760800  0.909130  1.0
  N  N1693  1  0.100700  0.339900  0.909130  1.0
  N  N1694  1  0.899300  0.239200  0.090870  1.0
  N  N1695  1  0.760800  0.660100  0.090870  1.0
  N  N1696  1  0.339900  0.100700  0.090870  1.0
  N  N1697  1  0.339900  0.100700  0.409130  1.0
  N  N1698  1  0.760800  0.660100  0.409130  1.0
  N  N1699  1  0.899300  0.239200  0.409130  1.0
  N  N1700  1  0.239200  0.899300  0.590870  1.0
  N  N1701  1  0.100700  0.339900  0.590870  1.0
  N  N1702  1  0.660100  0.760800  0.590870  1.0
  N  N1703  1  0.309000  0.846100  0.892630  1.0
  N  N1704  1  0.537100  0.691000  0.892630  1.0
  N  N1705  1  0.153900  0.462900  0.892630  1.0
  N  N1706  1  0.846100  0.309000  0.107370  1.0
  N  N1707  1  0.691000  0.537100  0.107370  1.0
  N  N1708  1  0.462900  0.153900  0.107370  1.0
  N  N1709  1  0.462900  0.153900  0.392630  1.0
  N  N1710  1  0.691000  0.537100  0.392630  1.0
  N  N1711  1  0.846100  0.309000  0.392630  1.0
  N  N1712  1  0.309000  0.846100  0.607370  1.0
  N  N1713  1  0.153900  0.462900  0.607370  1.0
  N  N1714  1  0.537100  0.691000  0.607370  1.0
  N  N1715  1  0.608300  0.775000  0.841950  1.0
  N  N1716  1  0.166700  0.391700  0.841950  1.0
  N  N1717  1  0.225000  0.833300  0.841950  1.0
  N  N1718  1  0.775000  0.608300  0.158050  1.0
  N  N1719  1  0.391700  0.166700  0.158050  1.0
  N  N1720  1  0.833300  0.225000  0.158050  1.0
  N  N1721  1  0.833300  0.225000  0.341950  1.0
  N  N1722  1  0.391700  0.166700  0.341950  1.0
  N  N1723  1  0.775000  0.608300  0.341950  1.0
  N  N1724  1  0.608300  0.775000  0.658050  1.0
  N  N1725  1  0.225000  0.833300  0.658050  1.0
  N  N1726  1  0.166700  0.391700  0.658050  1.0
  N  N1727  1  0.529200  0.804400  0.870960  1.0
  N  N1728  1  0.275200  0.470800  0.870960  1.0
  N  N1729  1  0.195600  0.724800  0.870960  1.0
  N  N1730  1  0.804400  0.529200  0.129040  1.0
  N  N1731  1  0.470800  0.275200  0.129040  1.0
  N  N1732  1  0.724800  0.195600  0.129040  1.0
  N  N1733  1  0.724800  0.195600  0.370960  1.0
  N  N1734  1  0.470800  0.275200  0.370960  1.0
  N  N1735  1  0.804400  0.529200  0.370960  1.0
  N  N1736  1  0.529200  0.804400  0.629040  1.0
  N  N1737  1  0.195600  0.724800  0.629040  1.0
  N  N1738  1  0.275200  0.470800  0.629040  1.0
  O  O1739  1  0.385200  0.586800  0.750000  1
  O  O1740  1  0.201600  0.614800  0.750000  1
  O  O1741  1  0.413200  0.798400  0.750000  1
  O  O1742  1  0.586800  0.385200  0.250000  1
  O  O1743  1  0.614800  0.201600  0.250000  1
  O  O1744  1  0.798400  0.413200  0.250000  1
  O  O1745  1  0.545600  0.049200  0.921100  1
  O  O1746  1  0.503600  0.454400  0.921100  1
  O  O1747  1  0.950800  0.496400  0.921100  1
  O  O1748  1  0.049200  0.545600  0.078900  1
  O  O1749  1  0.454400  0.503600  0.078900  1
  O  O1750  1  0.496400  0.950800  0.078900  1
  O  O1751  1  0.496400  0.950800  0.421100  1
  O  O1752  1  0.454400  0.503600  0.421100  1
  O  O1753  1  0.049200  0.545600  0.421100  1
  O  O1754  1  0.545600  0.049200  0.578900  1
  O  O1755  1  0.950800  0.496400  0.578900  1
  O  O1756  1  0.503600  0.454400  0.578900  1
  O  O1757  1  0.610300  0.021000  0.948700  1
  O  O1758  1  0.410700  0.389700  0.948700  1
  O  O1759  1  0.979000  0.589300  0.948700  1
  O  O1760  1  0.021000  0.610300  0.051300  1
  O  O1761  1  0.389700  0.410700  0.051300  1
  O  O1762  1  0.589300  0.979000  0.051300  1
  O  O1763  1  0.589300  0.979000  0.448700  1
  O  O1764  1  0.389700  0.410700  0.448700  1
  O  O1765  1  0.021000  0.610300  0.448700  1
  O  O1766  1  0.610300  0.021000  0.551300  1
  O  O1767  1  0.979000  0.589300  0.551300  1
  O  O1768  1  0.410700  0.389700  0.551300  1
  O  O1769  1  0.648300  0.126900  0.933500  1
  O  O1770  1  0.478600  0.351700  0.933500  1
  O  O1771  1  0.873100  0.521400  0.933500  1
  O  O1772  1  0.126900  0.648300  0.066500  1
  O  O1773  1  0.351700  0.478600  0.066500  1
  O  O1774  1  0.521400  0.873100  0.066500  1
  O  O1775  1  0.521400  0.873100  0.433500  1
  O  O1776  1  0.351700  0.478600  0.433500  1
  O  O1777  1  0.126900  0.648300  0.433500  1
  O  O1778  1  0.648300  0.126900  0.566500  1
  O  O1779  1  0.873100  0.521400  0.566500  1
  O  O1780  1  0.478600  0.351700  0.566500  1
  O  O1781  1  0.539100  0.603700  0.250000  1
  O  O1782  1  0.064600  0.460900  0.250000  1
  O  O1783  1  0.396300  0.935400  0.250000  1
  O  O1784  1  0.603700  0.539100  0.750000  1
  O  O1785  1  0.460900  0.064600  0.750000  1
  O  O1786  1  0.935400  0.396300  0.750000  1
  O  O1787  1  0.840400  1.000000  1.000000  1
  O  O1788  1  0.159600  0.159600  1.000000  1
  O  O1789  1  1.000000  0.840400  0.000000  1
  O  O1790  1  0.840400  1.000000  0.500000  1
  O  O1791  1  0.159600  0.159600  0.500000  1
  O  O1792  1  1.000000  0.840400  0.500000  1
  O  O1793  1  0.774900  0.036100  0.023100  1
  O  O1794  1  0.261200  0.225100  0.023100  1
  O  O1795  1  0.963900  0.738800  0.023100  1
  O  O1796  1  0.036100  0.774900  0.976900  1
  O  O1797  1  0.225100  0.261200  0.976900  1
  O  O1798  1  0.738800  0.963900  0.976900  1
  O  O1799  1  0.738800  0.963900  0.523100  1
  O  O1800  1  0.225100  0.261200  0.523100  1
  O  O1801  1  0.036100  0.774900  0.523100  1
  O  O1802  1  0.774900  0.036100  0.476900  1
  O  O1803  1  0.963900  0.738800  0.476900  1
  O  O1804  1  0.261200  0.225100  0.476900  1
  O  O1805  1  0.691800  0.621300  0.020600  1
  O  O1806  1  0.929500  0.308200  0.020600  1
  O  O1807  1  0.378700  0.070500  0.020600  1
  O  O1808  1  0.621300  0.691800  0.979400  1
  O  O1809  1  0.308200  0.929500  0.979400  1
  O  O1810  1  0.070500  0.378700  0.979400  1
  O  O1811  1  0.070500  0.378700  0.520600  1
  O  O1812  1  0.308200  0.929500  0.520600  1
  O  O1813  1  0.621300  0.691800  0.520600  1
  O  O1814  1  0.691800  0.621300  0.479400  1
  O  O1815  1  0.378700  0.070500  0.479400  1
  O  O1816  1  0.929500  0.308200  0.479400  1
  O  O1817  1  0.595900  0.624600  0.027400  1
  O  O1818  1  0.028700  0.404100  0.027400  1
  O  O1819  1  0.375400  0.971300  0.027400  1
  O  O1820  1  0.624600  0.595900  0.972600  1
  O  O1821  1  0.404100  0.028700  0.972600  1
  O  O1822  1  0.971300  0.375400  0.972600  1
  O  O1823  1  0.971300  0.375400  0.527400  1
  O  O1824  1  0.404100  0.028700  0.527400  1
  O  O1825  1  0.624600  0.595900  0.527400  1
  O  O1826  1  0.595900  0.624600  0.472600  1
  O  O1827  1  0.375400  0.971300  0.472600  1
  O  O1828  1  0.028700  0.404100  0.472600  1
  O  O1829  1  0.627400  0.611500  0.974350  1
  O  O1830  1  0.984100  0.372600  0.974350  1
  O  O1831  1  0.388500  0.015900  0.974350  1
  O  O1832  1  0.611500  0.627400  0.025650  1
  O  O1833  1  0.372600  0.984100  0.025650  1
  O  O1834  1  0.015900  0.388500  0.025650  1
  O  O1835  1  0.015900  0.388500  0.474350  1
  O  O1836  1  0.372600  0.984100  0.474350  1
  O  O1837  1  0.611500  0.627400  0.474350  1
  O  O1838  1  0.627400  0.611500  0.525650  1
  O  O1839  1  0.388500  0.015900  0.525650  1
  O  O1840  1  0.984100  0.372600  0.525650  1
  O  O1841  1  0.470500  0.659200  0.780110  1.0
  O  O1842  1  0.188700  0.529500  0.780110  1.0
  O  O1843  1  0.340800  0.811300  0.780110  1.0
  O  O1844  1  0.659200  0.470500  0.219890  1.0
  O  O1845  1  0.529500  0.188700  0.219890  1.0
  O  O1846  1  0.811300  0.340800  0.219890  1.0
  O  O1847  1  0.811300  0.340800  0.280110  1.0
  O  O1848  1  0.529500  0.188700  0.280110  1.0
  O  O1849  1  0.659200  0.470500  0.280110  1.0
  O  O1850  1  0.470500  0.659200  0.719890  1.0
  O  O1851  1  0.340800  0.811300  0.719890  1.0
  O  O1852  1  0.188700  0.529500  0.719890  1.0
  O  O1853  1  0.458600  0.610200  0.220800  1.0
  O  O1854  1  0.151600  0.541400  0.220800  1.0
  O  O1855  1  0.389800  0.848400  0.220800  1.0
  O  O1856  1  0.610200  0.458600  0.779200  1.0
  O  O1857  1  0.541400  0.151600  0.779200  1.0
  O  O1858  1  0.848400  0.389800  0.779200  1.0
  O  O1859  1  0.848400  0.389800  0.720800  1.0
  O  O1860  1  0.541400  0.151600  0.720800  1.0
  O  O1861  1  0.610200  0.458600  0.720800  1.0
  O  O1862  1  0.458600  0.610200  0.279200  1.0
  O  O1863  1  0.389800  0.848400  0.279200  1.0
  O  O1864  1  0.151600  0.541400  0.279200  1.0
  F  F1865  1  0.547500  0.618900  0.750000  1
  F  F1866  1  0.071400  0.452500  0.750000  1
  F  F1867  1  0.381100  0.928600  0.750000  1
  F  F1868  1  0.618900  0.547500  0.250000  1
  F  F1869  1  0.452500  0.071400  0.250000  1
  F  F1870  1  0.928600  0.381100  0.250000  1
  F  F1871  1  0.597300  0.985000  0.882000  1
  F  F1872  1  0.387700  0.402700  0.882000  1
  F  F1873  1  0.015000  0.612300  0.882000  1
  F  F1874  1  0.985000  0.597300  0.118000  1
  F  F1875  1  0.402700  0.387700  0.118000  1
  F  F1876  1  0.612300  0.015000  0.118000  1
  F  F1877  1  0.612300  0.015000  0.382000  1
  F  F1878  1  0.402700  0.387700  0.382000  1
  F  F1879  1  0.985000  0.597300  0.382000  1
  F  F1880  1  0.597300  0.985000  0.618000  1
  F  F1881  1  0.015000  0.612300  0.618000  1
  F  F1882  1  0.387700  0.402700  0.618000  1
  F  F1883  1  0.632800  0.084900  0.867200  1
  F  F1884  1  0.452100  0.367200  0.867200  1
  F  F1885  1  0.915100  0.547900  0.867200  1
  F  F1886  1  0.084900  0.632800  0.132800  1
  F  F1887  1  0.367200  0.452100  0.132800  1
  F  F1888  1  0.547900  0.915100  0.132800  1
  F  F1889  1  0.547900  0.915100  0.367200  1
  F  F1890  1  0.367200  0.452100  0.367200  1
  F  F1891  1  0.084900  0.632800  0.367200  1
  F  F1892  1  0.632800  0.084900  0.632800  1
  F  F1893  1  0.915100  0.547900  0.632800  1
  F  F1894  1  0.452100  0.367200  0.632800  1
  F  F1895  1  0.693900  0.061300  0.890600  1
  F  F1896  1  0.367400  0.306100  0.890600  1
  F  F1897  1  0.938700  0.632600  0.890600  1
  F  F1898  1  0.061300  0.693900  0.109400  1
  F  F1899  1  0.306100  0.367400  0.109400  1
  F  F1900  1  0.632600  0.938700  0.109400  1
  F  F1901  1  0.632600  0.938700  0.390600  1
  F  F1902  1  0.306100  0.367400  0.390600  1
  F  F1903  1  0.061300  0.693900  0.390600  1
  F  F1904  1  0.693900  0.061300  0.609400  1
  F  F1905  1  0.938700  0.632600  0.609400  1
  F  F1906  1  0.367400  0.306100  0.609400  1
  F  F1907  1  0.372500  0.500500  0.250000  1
  F  F1908  1  0.128000  0.627500  0.250000  1
  F  F1909  1  0.499500  0.872000  0.250000  1
  F  F1910  1  0.500500  0.372500  0.750000  1
  F  F1911  1  0.627500  0.128000  0.750000  1
  F  F1912  1  0.872000  0.499500  0.750000  1
  F  F1913  1  0.682000  0.924100  0.035400  1
  F  F1914  1  0.242100  0.318000  0.035400  1
  F  F1915  1  0.075900  0.757900  0.035400  1
  F  F1916  1  0.924100  0.682000  0.964600  1
  F  F1917  1  0.318000  0.242100  0.964600  1
  F  F1918  1  0.757900  0.075900  0.964600  1
  F  F1919  1  0.757900  0.075900  0.535400  1
  F  F1920  1  0.318000  0.242100  0.535400  1
  F  F1921  1  0.924100  0.682000  0.535400  1
  F  F1922  1  0.682000  0.924100  0.464600  1
  F  F1923  1  0.075900  0.757900  0.464600  1
  F  F1924  1  0.242100  0.318000  0.464600  1
  F  F1925  1  0.728400  0.877400  0.013800  1
  F  F1926  1  0.149000  0.271600  0.013800  1
  F  F1927  1  0.122600  0.851000  0.013800  1
  F  F1928  1  0.877400  0.728400  0.986200  1
  F  F1929  1  0.271600  0.149000  0.986200  1
  F  F1930  1  0.851000  0.122600  0.986200  1
  F  F1931  1  0.851000  0.122600  0.513800  1
  F  F1932  1  0.271600  0.149000  0.513800  1
  F  F1933  1  0.877400  0.728400  0.513800  1
  F  F1934  1  0.728400  0.877400  0.486200  1
  F  F1935  1  0.122600  0.851000  0.486200  1
  F  F1936  1  0.149000  0.271600  0.486200  1
  F  F1937  1  0.768500  0.933400  0.055500  1
  F  F1938  1  0.164900  0.231500  0.055500  1
  F  F1939  1  0.066600  0.835100  0.055500  1
  F  F1940  1  0.933400  0.768500  0.944500  1
  F  F1941  1  0.231500  0.164900  0.944500  1
  F  F1942  1  0.835100  0.066600  0.944500  1
  F  F1943  1  0.835100  0.066600  0.555500  1
  F  F1944  1  0.231500  0.164900  0.555500  1
  F  F1945  1  0.933400  0.768500  0.555500  1
  F  F1946  1  0.768500  0.933400  0.444500  1
  F  F1947  1  0.066600  0.835100  0.444500  1
  F  F1948  1  0.164900  0.231500  0.444500  1
  F  F1949  1  0.736800  0.739900  0.017300  1
  F  F1950  1  0.003100  0.263200  0.017300  1
  F  F1951  1  0.260100  0.996900  0.017300  1
  F  F1952  1  0.739900  0.736800  0.982700  1
  F  F1953  1  0.263200  0.003100  0.982700  1
  F  F1954  1  0.996900  0.260100  0.982700  1
  F  F1955  1  0.996900  0.260100  0.517300  1
  F  F1956  1  0.263200  0.003100  0.517300  1
  F  F1957  1  0.739900  0.736800  0.517300  1
  F  F1958  1  0.736800  0.739900  0.482700  1
  F  F1959  1  0.260100  0.996900  0.482700  1
  F  F1960  1  0.003100  0.263200  0.482700  1
  F  F1961  1  0.711300  0.748700  0.029390  1
  F  F1962  1  0.037400  0.288700  0.029390  1
  F  F1963  1  0.251300  0.962600  0.029390  1
  F  F1964  1  0.748700  0.711300  0.970610  1
  F  F1965  1  0.288700  0.037400  0.970610  1
  F  F1966  1  0.962600  0.251300  0.970610  1
  F  F1967  1  0.962600  0.251300  0.529390  1
  F  F1968  1  0.288700  0.037400  0.529390  1
  F  F1969  1  0.748700  0.711300  0.529390  1
  F  F1970  1  0.711300  0.748700  0.470610  1
  F  F1971  1  0.251300  0.962600  0.470610  1
  F  F1972  1  0.037400  0.288700  0.470610  1
  F  F1973  1  0.739500  0.654900  0.011790  1
  F  F1974  1  0.915400  0.260500  0.011790  1
  F  F1975  1  0.345100  0.084600  0.011790  1
  F  F1976  1  0.654900  0.739500  0.988210  1
  F  F1977  1  0.260500  0.915400  0.988210  1
  F  F1978  1  0.084600  0.345100  0.988210  1
  F  F1979  1  0.084600  0.345100  0.511790  1
  F  F1980  1  0.260500  0.915400  0.511790  1
  F  F1981  1  0.654900  0.739500  0.511790  1
  F  F1982  1  0.739500  0.654900  0.488210  1
  F  F1983  1  0.345100  0.084600  0.488210  1
  F  F1984  1  0.915400  0.260500  0.488210  1
  F  F1985  1  0.467400  0.546900  0.722900  1.0
  F  F1986  1  0.079500  0.532600  0.722900  1.0
  F  F1987  1  0.453100  0.920500  0.722900  1.0
  F  F1988  1  0.546900  0.467400  0.277100  1.0
  F  F1989  1  0.532600  0.079500  0.277100  1.0
  F  F1990  1  0.920500  0.453100  0.277100  1.0
  F  F1991  1  0.920500  0.453100  0.222900  1.0
  F  F1992  1  0.532600  0.079500  0.222900  1.0
  F  F1993  1  0.546900  0.467400  0.222900  1.0
  F  F1994  1  0.467400  0.546900  0.777100  1.0
  F  F1995  1  0.453100  0.920500  0.777100  1.0
  F  F1996  1  0.079500  0.532600  0.777100  1.0
  F  F1997  1  0.445800  0.494800  0.277500  1.0
  F  F1998  1  0.049000  0.554200  0.277500  1.0
  F  F1999  1  0.505200  0.951000  0.277500  1.0
  F  F2000  1  0.494800  0.445800  0.722500  1.0
  F  F2001  1  0.554200  0.049000  0.722500  1.0
  F  F2002  1  0.951000  0.505200  0.722500  1.0
  F  F2003  1  0.951000  0.505200  0.777500  1.0
  F  F2004  1  0.554200  0.049000  0.777500  1.0
  F  F2005  1  0.494800  0.445800  0.777500  1.0
  F  F2006  1  0.445800  0.494800  0.222500  1.0
  F  F2007  1  0.505200  0.951000  0.222500  1.0
  F  F2008  1  0.049000  0.554200  0.222500  1.0
