# generated using pymatgen
data_Ni5H216C199N32(Cl4O15)2
_symmetry_space_group_name_H-M   'P 1'
_cell_length_a   21.56800000
_cell_length_b   30.85700000
_cell_length_c   34.26000000
_cell_angle_alpha   90.00000000
_cell_angle_beta   97.35300000
_cell_angle_gamma   90.00000000
_symmetry_Int_Tables_number   1
_chemical_formula_structural   Ni5H216C199N32(Cl4O15)2
_chemical_formula_sum   'Ni20 H864 C796 N128 Cl32 O120'
_cell_volume   22613.34137273
_cell_formula_units_Z   4
loop_
 _symmetry_equiv_pos_site_id
 _symmetry_equiv_pos_as_xyz
  1  'x, y, z'
loop_
 _atom_site_type_symbol
 _atom_site_label
 _atom_site_symmetry_multiplicity
 _atom_site_fract_x
 _atom_site_fract_y
 _atom_site_fract_z
 _atom_site_occupancy
  Ni  Ni1  1  0.561820  0.516450  0.223640  1.0
  Ni  Ni2  1  0.938180  0.516450  0.276360  1.0
  Ni  Ni3  1  0.438180  0.483550  0.776360  1.0
  Ni  Ni4  1  0.061820  0.483550  0.723640  1.0
  Ni  Ni5  1  0.660100  0.658670  0.018380  1.0
  Ni  Ni6  1  0.839900  0.658670  0.481620  1.0
  Ni  Ni7  1  0.339900  0.341330  0.981620  1.0
  Ni  Ni8  1  0.160100  0.341330  0.518380  1.0
  Ni  Ni9  1  0.637890  0.926310  0.070300  1.0
  Ni  Ni10  1  0.862110  0.926310  0.429700  1.0
  Ni  Ni11  1  0.362110  0.073690  0.929700  1.0
  Ni  Ni12  1  0.137890  0.073690  0.570300  1.0
  Ni  Ni13  1  0.522290  0.959450  0.301610  1.0
  Ni  Ni14  1  0.977710  0.959450  0.198390  1.0
  Ni  Ni15  1  0.477710  0.040550  0.698390  1.0
  Ni  Ni16  1  0.022290  0.040550  0.801610  1.0
  Ni  Ni17  1  0.482780  0.701310  0.397400  1.0
  Ni  Ni18  1  0.017220  0.701310  0.102600  1.0
  Ni  Ni19  1  0.517220  0.298690  0.602600  1.0
  Ni  Ni20  1  0.982780  0.298690  0.897400  1.0
  H  H21  1  0.394300  0.839300  0.139400  1
  H  H22  1  0.105700  0.839300  0.360600  1
  H  H23  1  0.605700  0.160700  0.860600  1
  H  H24  1  0.894300  0.160700  0.639400  1
  H  H25  1  0.405400  0.856700  0.096800  1
  H  H26  1  0.094600  0.856700  0.403200  1
  H  H27  1  0.594600  0.143300  0.903200  1
  H  H28  1  0.905400  0.143300  0.596800  1
  H  H29  1  0.354900  0.879700  0.120200  1
  H  H30  1  0.145100  0.879700  0.379800  1
  H  H31  1  0.645100  0.120300  0.879800  1
  H  H32  1  0.854900  0.120300  0.620200  1
  H  H33  1  0.377700  0.650400  0.094400  1
  H  H34  1  0.122300  0.650400  0.405600  1
  H  H35  1  0.622300  0.349600  0.905600  1
  H  H36  1  0.877700  0.349600  0.594400  1
  H  H37  1  0.399600  0.686300  0.127000  1
  H  H38  1  0.100400  0.686300  0.373000  1
  H  H39  1  0.600400  0.313700  0.873000  1
  H  H40  1  0.899600  0.313700  0.627000  1
  H  H41  1  0.380800  0.638800  0.140100  1
  H  H42  1  0.119200  0.638800  0.359900  1
  H  H43  1  0.619200  0.361200  0.859900  1
  H  H44  1  0.880800  0.361200  0.640100  1
  H  H45  1  0.370400  0.397300  0.348200  1
  H  H46  1  0.129600  0.397300  0.151800  1
  H  H47  1  0.629600  0.602700  0.651800  1
  H  H48  1  0.870400  0.602700  0.848200  1
  H  H49  1  0.426900  0.363300  0.353600  1
  H  H50  1  0.073100  0.363300  0.146400  1
  H  H51  1  0.573100  0.636700  0.646400  1
  H  H52  1  0.926900  0.636700  0.853600  1
  H  H53  1  0.364400  0.352200  0.324900  1
  H  H54  1  0.135600  0.352200  0.175100  1
  H  H55  1  0.635600  0.647800  0.675100  1
  H  H56  1  0.864400  0.647800  0.824900  1
  H  H57  1  0.878800  0.784300  0.912500  1
  H  H58  1  0.621200  0.784300  0.587500  1
  H  H59  1  0.121200  0.215700  0.087500  1
  H  H60  1  0.378800  0.215700  0.412500  1
  H  H61  1  0.840600  0.761500  0.874900  1
  H  H62  1  0.659400  0.761500  0.625100  1
  H  H63  1  0.159400  0.238500  0.125100  1
  H  H64  1  0.340600  0.238500  0.374900  1
  H  H65  1  0.908600  0.744100  0.891900  1
  H  H66  1  0.591400  0.744100  0.608100  1
  H  H67  1  0.091400  0.255900  0.108100  1
  H  H68  1  0.408600  0.255900  0.391900  1
  H  H69  1  0.792200  0.390400  0.121300  1
  H  H70  1  0.707800  0.390400  0.378700  1
  H  H71  1  0.207800  0.609600  0.878700  1
  H  H72  1  0.292200  0.609600  0.621300  1
  H  H73  1  0.740600  0.352900  0.118800  1
  H  H74  1  0.759400  0.352900  0.381200  1
  H  H75  1  0.259400  0.647100  0.881200  1
  H  H76  1  0.240600  0.647100  0.618800  1
  H  H77  1  0.798800  0.351800  0.152800  1
  H  H78  1  0.701200  0.351800  0.347200  1
  H  H79  1  0.201200  0.648200  0.847200  1
  H  H80  1  0.298800  0.648200  0.652800  1
  H  H81  1  0.360700  0.821500  0.556800  1
  H  H82  1  0.139300  0.821500  0.943200  1
  H  H83  1  0.639300  0.178500  0.443200  1
  H  H84  1  0.860700  0.178500  0.056800  1
  H  H85  1  0.304500  0.841200  0.527100  1
  H  H86  1  0.195500  0.841200  0.972900  1
  H  H87  1  0.695500  0.158800  0.472900  1
  H  H88  1  0.804500  0.158800  0.027100  1
  H  H89  1  0.375300  0.853000  0.522100  1
  H  H90  1  0.124700  0.853000  0.977900  1
  H  H91  1  0.624700  0.147000  0.477900  1
  H  H92  1  0.875300  0.147000  0.022100  1
  H  H93  1  0.204300  0.597800  0.194200  1
  H  H94  1  0.295700  0.597800  0.305800  1
  H  H95  1  0.795700  0.402200  0.805800  1
  H  H96  1  0.704300  0.402200  0.694200  1
  H  H97  1  0.207000  0.546300  0.189000  1
  H  H98  1  0.293000  0.546300  0.311000  1
  H  H99  1  0.793000  0.453700  0.811000  1
  H  H100  1  0.707000  0.453700  0.689000  1
  H  H101  1  0.211700  0.577400  0.152100  1
  H  H102  1  0.288300  0.577400  0.347900  1
  H  H103  1  0.788300  0.422600  0.847900  1
  H  H104  1  0.711700  0.422600  0.652100  1
  H  H105  1  0.530500  0.446700  0.936100  1
  H  H106  1  0.969500  0.446700  0.563900  1
  H  H107  1  0.469500  0.553300  0.063900  1
  H  H108  1  0.030500  0.553300  0.436100  1
  H  H109  1  0.598100  0.441800  0.922100  1
  H  H110  1  0.901900  0.441800  0.577900  1
  H  H111  1  0.401900  0.558200  0.077900  1
  H  H112  1  0.098100  0.558200  0.422100  1
  H  H113  1  0.540600  0.459200  0.892100  1
  H  H114  1  0.959400  0.459200  0.607900  1
  H  H115  1  0.459400  0.540800  0.107900  1
  H  H116  1  0.040600  0.540800  0.392100  1
  H  H117  1  0.750600  0.133500  0.166600  1
  H  H118  1  0.749400  0.133500  0.333400  1
  H  H119  1  0.249400  0.866500  0.833400  1
  H  H120  1  0.250600  0.866500  0.666600  1
  H  H121  1  0.716200  0.154800  0.127100  1
  H  H122  1  0.783800  0.154800  0.372900  1
  H  H123  1  0.283800  0.845200  0.872900  1
  H  H124  1  0.216200  0.845200  0.627100  1
  H  H125  1  0.790700  0.150300  0.133400  1
  H  H126  1  0.709300  0.150300  0.366600  1
  H  H127  1  0.209300  0.849700  0.866600  1
  H  H128  1  0.290700  0.849700  0.633400  1
  H  H129  1  0.336700  0.849100  0.952300  1
  H  H130  1  0.163300  0.849100  0.547700  1
  H  H131  1  0.663300  0.150900  0.047700  1
  H  H132  1  0.836700  0.150900  0.452300  1
  H  H133  1  0.344500  0.802400  0.972500  1
  H  H134  1  0.155500  0.802400  0.527500  1
  H  H135  1  0.655500  0.197600  0.027500  1
  H  H136  1  0.844500  0.197600  0.472500  1
  H  H137  1  0.384600  0.814900  0.938000  1
  H  H138  1  0.115400  0.814900  0.562000  1
  H  H139  1  0.615400  0.185100  0.062000  1
  H  H140  1  0.884600  0.185100  0.438000  1
  H  H141  1  0.598800  0.969000  0.845100  1
  H  H142  1  0.901200  0.969000  0.654900  1
  H  H143  1  0.401200  0.031000  0.154900  1
  H  H144  1  0.098800  0.031000  0.345100  1
  H  H145  1  0.548000  0.931500  0.847100  1
  H  H146  1  0.952000  0.931500  0.652900  1
  H  H147  1  0.452000  0.068500  0.152900  1
  H  H148  1  0.048000  0.068500  0.347100  1
  H  H149  1  0.620800  0.919700  0.851900  1
  H  H150  1  0.879200  0.919700  0.648100  1
  H  H151  1  0.379200  0.080300  0.148100  1
  H  H152  1  0.120800  0.080300  0.351900  1
  H  H153  1  0.576600  0.022900  0.521200  1
  H  H154  1  0.923400  0.022900  0.978800  1
  H  H155  1  0.423400  0.977100  0.478800  1
  H  H156  1  0.076600  0.977100  0.021200  1
  H  H157  1  0.625300  0.983700  0.522600  1
  H  H158  1  0.874700  0.983700  0.977400  1
  H  H159  1  0.374700  0.016300  0.477400  1
  H  H160  1  0.125300  0.016300  0.022600  1
  H  H161  1  0.551800  0.974000  0.517200  1
  H  H162  1  0.948200  0.974000  0.982800  1
  H  H163  1  0.448200  0.026000  0.482800  1
  H  H164  1  0.051800  0.026000  0.017200  1
  H  H165  1  0.280700  0.968400  0.324800  1
  H  H166  1  0.219300  0.968400  0.175200  1
  H  H167  1  0.719300  0.031600  0.675200  1
  H  H168  1  0.780700  0.031600  0.824800  1
  H  H169  1  0.309500  0.932500  0.298700  1
  H  H170  1  0.190500  0.932500  0.201300  1
  H  H171  1  0.690500  0.067500  0.701300  1
  H  H172  1  0.809500  0.067500  0.798700  1
  H  H173  1  0.288900  0.919500  0.340300  1
  H  H174  1  0.211100  0.919500  0.159700  1
  H  H175  1  0.711100  0.080500  0.659700  1
  H  H176  1  0.788900  0.080500  0.840300  1
  H  H177  1  0.406200  0.193000  0.241000  1
  H  H178  1  0.093800  0.193000  0.259000  1
  H  H179  1  0.593800  0.807000  0.759000  1
  H  H180  1  0.906200  0.807000  0.741000  1
  H  H181  1  0.358900  0.166100  0.210300  1
  H  H182  1  0.141100  0.166100  0.289700  1
  H  H183  1  0.641100  0.833900  0.789700  1
  H  H184  1  0.858900  0.833900  0.710300  1
  H  H185  1  0.430700  0.170700  0.203700  1
  H  H186  1  0.069300  0.170700  0.296300  1
  H  H187  1  0.569300  0.829300  0.796300  1
  H  H188  1  0.930700  0.829300  0.703700  1
  H  H189  1  0.609700  0.495300  0.493200  1
  H  H190  1  0.890300  0.495300  0.006800  1
  H  H191  1  0.390300  0.504700  0.506800  1
  H  H192  1  0.109700  0.504700  0.993200  1
  H  H193  1  0.546800  0.496700  0.513300  1
  H  H194  1  0.953200  0.496700  0.986700  1
  H  H195  1  0.453200  0.503300  0.486700  1
  H  H196  1  0.046800  0.503300  0.013300  1
  H  H197  1  0.610900  0.513700  0.537000  1
  H  H198  1  0.889100  0.513700  0.963000  1
  H  H199  1  0.389100  0.486300  0.463000  1
  H  H200  1  0.110900  0.486300  0.037000  1
  H  H201  1  0.148100  0.734900  0.304000  1
  H  H202  1  0.351900  0.734900  0.196000  1
  H  H203  1  0.851900  0.265100  0.696000  1
  H  H204  1  0.648100  0.265100  0.804000  1
  H  H205  1  0.168000  0.759700  0.266600  1
  H  H206  1  0.332000  0.759700  0.233400  1
  H  H207  1  0.832000  0.240300  0.733400  1
  H  H208  1  0.668000  0.240300  0.766600  1
  H  H209  1  0.164500  0.785400  0.306800  1
  H  H210  1  0.335500  0.785400  0.193200  1
  H  H211  1  0.835500  0.214600  0.693200  1
  H  H212  1  0.664500  0.214600  0.806800  1
  H  H213  1  0.191300  0.627400  0.539600  1
  H  H214  1  0.308700  0.627400  0.960400  1
  H  H215  1  0.808700  0.372600  0.460400  1
  H  H216  1  0.691300  0.372600  0.039600  1
  H  H217  1  0.162100  0.635500  0.579700  1
  H  H218  1  0.337900  0.635500  0.920300  1
  H  H219  1  0.837900  0.364500  0.420300  1
  H  H220  1  0.662100  0.364500  0.079700  1
  H  H221  1  0.190100  0.675200  0.557500  1
  H  H222  1  0.309900  0.675200  0.942500  1
  H  H223  1  0.809900  0.324800  0.442500  1
  H  H224  1  0.690100  0.324800  0.057500  1
  H  H225  1  0.511100  0.380500  0.233100  1.0
  H  H226  1  0.988900  0.380500  0.266900  1.0
  H  H227  1  0.488900  0.619500  0.766900  1.0
  H  H228  1  0.011100  0.619500  0.733100  1.0
  H  H229  1  0.467300  0.344100  0.282900  1.0
  H  H230  1  0.032700  0.344100  0.217100  1.0
  H  H231  1  0.532700  0.655900  0.717100  1.0
  H  H232  1  0.967300  0.655900  0.782900  1.0
  H  H233  1  0.381800  0.455000  0.310100  1.0
  H  H234  1  0.118200  0.455000  0.189900  1.0
  H  H235  1  0.618200  0.545000  0.689900  1.0
  H  H236  1  0.881800  0.545000  0.810100  1.0
  H  H237  1  0.425600  0.491500  0.260300  1.0
  H  H238  1  0.074400  0.491500  0.239700  1.0
  H  H239  1  0.574400  0.508500  0.739700  1.0
  H  H240  1  0.925600  0.508500  0.760300  1.0
  H  H241  1  0.404000  0.344600  0.336200  1.0
  H  H242  1  0.096000  0.344600  0.163800  1.0
  H  H243  1  0.596000  0.655400  0.663800  1.0
  H  H244  1  0.904000  0.655400  0.836200  1.0
  H  H245  1  0.347600  0.378600  0.330900  1.0
  H  H246  1  0.152400  0.378600  0.169100  1.0
  H  H247  1  0.652400  0.621400  0.669100  1.0
  H  H248  1  0.847600  0.621400  0.830900  1.0
  H  H249  1  0.410100  0.389600  0.359600  1.0
  H  H250  1  0.089900  0.389600  0.140400  1.0
  H  H251  1  0.589900  0.610400  0.640400  1.0
  H  H252  1  0.910100  0.610400  0.859600  1.0
  H  H253  1  0.492000  0.413400  0.173900  1.0
  H  H254  1  0.008000  0.413400  0.326100  1.0
  H  H255  1  0.508000  0.586600  0.826100  1.0
  H  H256  1  0.992000  0.586600  0.673900  1.0
  H  H257  1  0.615800  0.553300  0.145000  1.0
  H  H258  1  0.884200  0.553300  0.355000  1.0
  H  H259  1  0.384200  0.446700  0.855000  1.0
  H  H260  1  0.115800  0.446700  0.645000  1.0
  H  H261  1  0.540600  0.417000  0.110600  1.0
  H  H262  1  0.959400  0.417000  0.389400  1.0
  H  H263  1  0.459400  0.583000  0.889400  1.0
  H  H264  1  0.040600  0.583000  0.610600  1.0
  H  H265  1  0.612200  0.590700  0.078200  1.0
  H  H266  1  0.887800  0.590700  0.421800  1.0
  H  H267  1  0.387800  0.409300  0.921800  1.0
  H  H268  1  0.112200  0.409300  0.578200  1.0
  H  H269  1  0.773800  0.518800  0.028900  1.0
  H  H270  1  0.726200  0.518800  0.471100  1.0
  H  H271  1  0.226200  0.481200  0.971100  1.0
  H  H272  1  0.273800  0.481200  0.528900  1.0
  H  H273  1  0.709800  0.479000  0.068100  1.0
  H  H274  1  0.790200  0.479000  0.431900  1.0
  H  H275  1  0.290200  0.521000  0.931900  1.0
  H  H276  1  0.209800  0.521000  0.568100  1.0
  H  H277  1  0.793900  0.590300  0.992700  1.0
  H  H278  1  0.706100  0.590300  0.507300  1.0
  H  H279  1  0.206100  0.409700  0.007300  1.0
  H  H280  1  0.293900  0.409700  0.492700  1.0
  H  H281  1  0.781500  0.626800  0.929700  1.0
  H  H282  1  0.718500  0.626800  0.570300  1.0
  H  H283  1  0.218500  0.373200  0.070300  1.0
  H  H284  1  0.281500  0.373200  0.429700  1.0
  H  H285  1  0.828200  0.673600  0.888400  1.0
  H  H286  1  0.671800  0.673600  0.611600  1.0
  H  H287  1  0.171800  0.326400  0.111600  1.0
  H  H288  1  0.328200  0.326400  0.388400  1.0
  H  H289  1  0.841900  0.766200  0.973000  1.0
  H  H290  1  0.658100  0.766200  0.527000  1.0
  H  H291  1  0.158100  0.233800  0.027000  1.0
  H  H292  1  0.341900  0.233800  0.473000  1.0
  H  H293  1  0.795200  0.719300  0.014400  1.0
  H  H294  1  0.704800  0.719300  0.485600  1.0
  H  H295  1  0.204800  0.280700  0.985600  1.0
  H  H296  1  0.295200  0.280700  0.514400  1.0
  H  H297  1  0.873200  0.742300  0.873700  1.0
  H  H298  1  0.626800  0.742300  0.626300  1.0
  H  H299  1  0.126800  0.257700  0.126300  1.0
  H  H300  1  0.373200  0.257700  0.373700  1.0
  H  H301  1  0.911400  0.765100  0.911300  1.0
  H  H302  1  0.588600  0.765100  0.588700  1.0
  H  H303  1  0.088600  0.234900  0.088700  1.0
  H  H304  1  0.411400  0.234900  0.411300  1.0
  H  H305  1  0.843400  0.782400  0.894300  1.0
  H  H306  1  0.656600  0.782400  0.605700  1.0
  H  H307  1  0.156600  0.217600  0.105700  1.0
  H  H308  1  0.343400  0.217600  0.394300  1.0
  H  H309  1  0.705600  0.496400  0.192000  1.0
  H  H310  1  0.794400  0.496400  0.308000  1.0
  H  H311  1  0.294400  0.503600  0.808000  1.0
  H  H312  1  0.205600  0.503600  0.692000  1.0
  H  H313  1  0.759000  0.457400  0.148100  1.0
  H  H314  1  0.741000  0.457400  0.351900  1.0
  H  H315  1  0.241000  0.542600  0.851900  1.0
  H  H316  1  0.259000  0.542600  0.648100  1.0
  H  H317  1  0.693000  0.345000  0.188100  1.0
  H  H318  1  0.807000  0.345000  0.311900  1.0
  H  H319  1  0.307000  0.655000  0.811900  1.0
  H  H320  1  0.193000  0.655000  0.688100  1.0
  H  H321  1  0.639600  0.384000  0.231900  1.0
  H  H322  1  0.860400  0.384000  0.268100  1.0
  H  H323  1  0.360400  0.616000  0.768100  1.0
  H  H324  1  0.139600  0.616000  0.731900  1.0
  H  H325  1  0.762200  0.339700  0.140600  1.0
  H  H326  1  0.737800  0.339700  0.359400  1.0
  H  H327  1  0.237800  0.660300  0.859400  1.0
  H  H328  1  0.262200  0.660300  0.640600  1.0
  H  H329  1  0.813800  0.377200  0.143100  1.0
  H  H330  1  0.686200  0.377200  0.356900  1.0
  H  H331  1  0.186200  0.622800  0.856900  1.0
  H  H332  1  0.313800  0.622800  0.643100  1.0
  H  H333  1  0.755600  0.378200  0.109100  1.0
  H  H334  1  0.744400  0.378200  0.390900  1.0
  H  H335  1  0.244400  0.621800  0.890900  1.0
  H  H336  1  0.255600  0.621800  0.609100  1.0
  H  H337  1  0.647500  0.429500  0.285600  1.0
  H  H338  1  0.852500  0.429500  0.214400  1.0
  H  H339  1  0.352500  0.570500  0.714400  1.0
  H  H340  1  0.147500  0.570500  0.785600  1.0
  H  H341  1  0.509000  0.565500  0.293600  1.0
  H  H342  1  0.991000  0.565500  0.206400  1.0
  H  H343  1  0.491000  0.434500  0.706400  1.0
  H  H344  1  0.009000  0.434500  0.793600  1.0
  H  H345  1  0.547400  0.487300  0.389700  1.0
  H  H346  1  0.952600  0.487300  0.110300  1.0
  H  H347  1  0.452600  0.512700  0.610300  1.0
  H  H348  1  0.047400  0.512700  0.889700  1.0
  H  H349  1  0.608700  0.445200  0.353400  1.0
  H  H350  1  0.891300  0.445200  0.146600  1.0
  H  H351  1  0.391300  0.554800  0.646600  1.0
  H  H352  1  0.108700  0.554800  0.853400  1.0
  H  H353  1  0.520700  0.616600  0.348300  1.0
  H  H354  1  0.979300  0.616600  0.151700  1.0
  H  H355  1  0.479300  0.383400  0.651700  1.0
  H  H356  1  0.020700  0.383400  0.848300  1.0
  H  H357  1  0.387200  0.563400  0.430900  1.0
  H  H358  1  0.112800  0.563400  0.069100  1.0
  H  H359  1  0.612800  0.436600  0.569100  1.0
  H  H360  1  0.887200  0.436600  0.930900  1.0
  H  H361  1  0.440000  0.515100  0.395000  1.0
  H  H362  1  0.060000  0.515100  0.105000  1.0
  H  H363  1  0.560000  0.484900  0.605000  1.0
  H  H364  1  0.940000  0.484900  0.895000  1.0
  H  H365  1  0.362200  0.642200  0.449900  1.0
  H  H366  1  0.137800  0.642200  0.050100  1.0
  H  H367  1  0.637800  0.357800  0.550100  1.0
  H  H368  1  0.862200  0.357800  0.949900  1.0
  H  H369  1  0.356000  0.767400  0.410000  1.0
  H  H370  1  0.144000  0.767400  0.090000  1.0
  H  H371  1  0.644000  0.232600  0.590000  1.0
  H  H372  1  0.856000  0.232600  0.910000  1.0
  H  H373  1  0.333900  0.824700  0.450900  1.0
  H  H374  1  0.166100  0.824700  0.049100  1.0
  H  H375  1  0.666100  0.175300  0.549100  1.0
  H  H376  1  0.833900  0.175300  0.950900  1.0
  H  H377  1  0.370700  0.746800  0.546300  1.0
  H  H378  1  0.129300  0.746800  0.953700  1.0
  H  H379  1  0.629300  0.253200  0.453700  1.0
  H  H380  1  0.870700  0.253200  0.046300  1.0
  H  H381  1  0.392800  0.689500  0.505400  1.0
  H  H382  1  0.107200  0.689500  0.994600  1.0
  H  H383  1  0.607200  0.310500  0.494600  1.0
  H  H384  1  0.892800  0.310500  0.005400  1.0
  H  H385  1  0.332900  0.855700  0.513900  1.0
  H  H386  1  0.167100  0.855700  0.986100  1.0
  H  H387  1  0.667100  0.144300  0.486100  1.0
  H  H388  1  0.832900  0.144300  0.013900  1.0
  H  H389  1  0.389100  0.835900  0.543600  1.0
  H  H390  1  0.110900  0.835900  0.956400  1.0
  H  H391  1  0.610900  0.164100  0.456400  1.0
  H  H392  1  0.889100  0.164100  0.043600  1.0
  H  H393  1  0.318300  0.824100  0.548600  1.0
  H  H394  1  0.181700  0.824100  0.951400  1.0
  H  H395  1  0.681700  0.175900  0.451400  1.0
  H  H396  1  0.818300  0.175900  0.048600  1.0
  H  H397  1  0.418600  0.517200  0.172300  1.0
  H  H398  1  0.081400  0.517200  0.327700  1.0
  H  H399  1  0.581400  0.482800  0.827700  1.0
  H  H400  1  0.918600  0.482800  0.672300  1.0
  H  H401  1  0.309800  0.521700  0.158100  1.0
  H  H402  1  0.190200  0.521700  0.341900  1.0
  H  H403  1  0.690200  0.478300  0.841900  1.0
  H  H404  1  0.809800  0.478300  0.658100  1.0
  H  H405  1  0.310200  0.628200  0.227400  1.0
  H  H406  1  0.189800  0.628200  0.272600  1.0
  H  H407  1  0.689800  0.371800  0.772600  1.0
  H  H408  1  0.810200  0.371800  0.727400  1.0
  H  H409  1  0.419100  0.623700  0.241500  1.0
  H  H410  1  0.080900  0.623700  0.258500  1.0
  H  H411  1  0.580900  0.376300  0.758500  1.0
  H  H412  1  0.919100  0.376300  0.741500  1.0
  H  H413  1  0.211000  0.549900  0.162700  1.0
  H  H414  1  0.289000  0.549900  0.337300  1.0
  H  H415  1  0.789000  0.450100  0.837300  1.0
  H  H416  1  0.711000  0.450100  0.662700  1.0
  H  H417  1  0.208300  0.601300  0.167900  1.0
  H  H418  1  0.291700  0.601300  0.332100  1.0
  H  H419  1  0.791700  0.398700  0.832100  1.0
  H  H420  1  0.708300  0.398700  0.667900  1.0
  H  H421  1  0.203600  0.570300  0.204800  1.0
  H  H422  1  0.296400  0.570300  0.295200  1.0
  H  H423  1  0.796400  0.429700  0.795200  1.0
  H  H424  1  0.703600  0.429700  0.704800  1.0
  H  H425  1  0.493700  0.626600  0.202500  1.0
  H  H426  1  0.006300  0.626600  0.297500  1.0
  H  H427  1  0.506300  0.373400  0.797500  1.0
  H  H428  1  0.993700  0.373400  0.702500  1.0
  H  H429  1  0.703500  0.545800  0.250900  1.0
  H  H430  1  0.796500  0.545800  0.249100  1.0
  H  H431  1  0.296500  0.454200  0.749100  1.0
  H  H432  1  0.203500  0.454200  0.750900  1.0
  H  H433  1  0.701600  0.674600  0.228200  1.0
  H  H434  1  0.798400  0.674600  0.271800  1.0
  H  H435  1  0.298400  0.325400  0.771800  1.0
  H  H436  1  0.201600  0.325400  0.728200  1.0
  H  H437  1  0.594400  0.668700  0.206000  1.0
  H  H438  1  0.905600  0.668700  0.294000  1.0
  H  H439  1  0.405600  0.331300  0.794000  1.0
  H  H440  1  0.094400  0.331300  0.706000  1.0
  H  H441  1  0.549900  0.579600  0.993000  1.0
  H  H442  1  0.950100  0.579600  0.507000  1.0
  H  H443  1  0.450100  0.420400  0.007000  1.0
  H  H444  1  0.049900  0.420400  0.493000  1.0
  H  H445  1  0.522200  0.509700  0.974300  1.0
  H  H446  1  0.977800  0.509700  0.525700  1.0
  H  H447  1  0.477800  0.490300  0.025700  1.0
  H  H448  1  0.022200  0.490300  0.474300  1.0
  H  H449  1  0.657500  0.590200  0.905000  1.0
  H  H450  1  0.842500  0.590200  0.595000  1.0
  H  H451  1  0.342500  0.409800  0.095000  1.0
  H  H452  1  0.157500  0.409800  0.405000  1.0
  H  H453  1  0.582300  0.451800  0.897400  1.0
  H  H454  1  0.917700  0.451800  0.602600  1.0
  H  H455  1  0.417700  0.548200  0.102600  1.0
  H  H456  1  0.082300  0.548200  0.397400  1.0
  H  H457  1  0.514700  0.456700  0.911400  1.0
  H  H458  1  0.985300  0.456700  0.588600  1.0
  H  H459  1  0.485300  0.543300  0.088600  1.0
  H  H460  1  0.014700  0.543300  0.411400  1.0
  H  H461  1  0.572200  0.439300  0.941500  1.0
  H  H462  1  0.927800  0.439300  0.558500  1.0
  H  H463  1  0.427800  0.560700  0.058500  1.0
  H  H464  1  0.072200  0.560700  0.441500  1.0
  H  H465  1  0.616500  0.658400  0.907600  1.0
  H  H466  1  0.883500  0.658400  0.592400  1.0
  H  H467  1  0.383500  0.341600  0.092400  1.0
  H  H468  1  0.116500  0.341600  0.407600  1.0
  H  H469  1  0.680800  0.762600  0.025700  1.0
  H  H470  1  0.819200  0.762600  0.474300  1.0
  H  H471  1  0.319200  0.237400  0.974300  1.0
  H  H472  1  0.180800  0.237400  0.525700  1.0
  H  H473  1  0.677500  0.805800  0.914200  1.0
  H  H474  1  0.822500  0.805800  0.585800  1.0
  H  H475  1  0.322500  0.194200  0.085800  1.0
  H  H476  1  0.177500  0.194200  0.414200  1.0
  H  H477  1  0.649200  0.734100  0.891500  1.0
  H  H478  1  0.850800  0.734100  0.608500  1.0
  H  H479  1  0.350800  0.265900  0.108500  1.0
  H  H480  1  0.149200  0.265900  0.391500  1.0
  H  H481  1  0.642600  0.835500  0.030100  1.0
  H  H482  1  0.857400  0.835500  0.469900  1.0
  H  H483  1  0.357400  0.164500  0.969900  1.0
  H  H484  1  0.142600  0.164500  0.530100  1.0
  H  H485  1  0.797500  0.915400  0.979500  1.0
  H  H486  1  0.702500  0.915400  0.520500  1.0
  H  H487  1  0.202500  0.084600  0.020500  1.0
  H  H488  1  0.297500  0.084600  0.479500  1.0
  H  H489  1  0.767100  0.848100  0.951900  1.0
  H  H490  1  0.732900  0.848100  0.548100  1.0
  H  H491  1  0.232900  0.151900  0.048100  1.0
  H  H492  1  0.267100  0.151900  0.451900  1.0
  H  H493  1  0.775300  0.975400  0.028100  1.0
  H  H494  1  0.724700  0.975400  0.471900  1.0
  H  H495  1  0.224700  0.024600  0.971900  1.0
  H  H496  1  0.275300  0.024600  0.528100  1.0
  H  H497  1  0.732300  0.044100  0.032100  1.0
  H  H498  1  0.767700  0.044100  0.467900  1.0
  H  H499  1  0.267700  0.955900  0.967900  1.0
  H  H500  1  0.232300  0.955900  0.532100  1.0
  H  H501  1  0.746200  0.112300  0.062000  1.0
  H  H502  1  0.753800  0.112300  0.438000  1.0
  H  H503  1  0.253800  0.887700  0.938000  1.0
  H  H504  1  0.246200  0.887700  0.562000  1.0
  H  H505  1  0.743200  0.056800  0.169000  1.0
  H  H506  1  0.756800  0.056800  0.331000  1.0
  H  H507  1  0.256800  0.943200  0.831000  1.0
  H  H508  1  0.243200  0.943200  0.669000  1.0
  H  H509  1  0.729400  0.988700  0.139100  1.0
  H  H510  1  0.770600  0.988700  0.360900  1.0
  H  H511  1  0.270600  0.011300  0.860900  1.0
  H  H512  1  0.229400  0.011300  0.639100  1.0
  H  H513  1  0.754400  0.158900  0.118100  1.0
  H  H514  1  0.745600  0.158900  0.381900  1.0
  H  H515  1  0.245600  0.841100  0.881900  1.0
  H  H516  1  0.254400  0.841100  0.618100  1.0
  H  H517  1  0.788800  0.137600  0.157700  1.0
  H  H518  1  0.711200  0.137600  0.342300  1.0
  H  H519  1  0.211200  0.862400  0.842300  1.0
  H  H520  1  0.288800  0.862400  0.657700  1.0
  H  H521  1  0.714300  0.142100  0.151300  1.0
  H  H522  1  0.785700  0.142100  0.348700  1.0
  H  H523  1  0.285700  0.857900  0.848700  1.0
  H  H524  1  0.214300  0.857900  0.651300  1.0
  H  H525  1  0.466400  0.923700  0.047400  1.0
  H  H526  1  0.033600  0.923700  0.452600  1.0
  H  H527  1  0.533600  0.076300  0.952600  1.0
  H  H528  1  0.966400  0.076300  0.547400  1.0
  H  H529  1  0.386000  0.904600  0.997900  1.0
  H  H530  1  0.114000  0.904600  0.502100  1.0
  H  H531  1  0.614000  0.095400  0.002100  1.0
  H  H532  1  0.886000  0.095400  0.497900  1.0
  H  H533  1  0.462000  0.785100  0.991700  1.0
  H  H534  1  0.038000  0.785100  0.508300  1.0
  H  H535  1  0.538000  0.214900  0.008300  1.0
  H  H536  1  0.962000  0.214900  0.491700  1.0
  H  H537  1  0.542400  0.804200  0.041200  1.0
  H  H538  1  0.957600  0.804200  0.458800  1.0
  H  H539  1  0.457600  0.195800  0.958800  1.0
  H  H540  1  0.042400  0.195800  0.541200  1.0
  H  H541  1  0.373900  0.795100  0.956200  1.0
  H  H542  1  0.126100  0.795100  0.543800  1.0
  H  H543  1  0.626100  0.204900  0.043800  1.0
  H  H544  1  0.873900  0.204900  0.456200  1.0
  H  H545  1  0.366000  0.841900  0.936000  1.0
  H  H546  1  0.134000  0.841900  0.564000  1.0
  H  H547  1  0.634000  0.158100  0.064000  1.0
  H  H548  1  0.866000  0.158100  0.436000  1.0
  H  H549  1  0.325900  0.829400  0.970600  1.0
  H  H550  1  0.174100  0.829400  0.529400  1.0
  H  H551  1  0.674100  0.170600  0.029400  1.0
  H  H552  1  0.825900  0.170600  0.470600  1.0
  H  H553  1  0.542600  0.837200  0.112300  1.0
  H  H554  1  0.957400  0.837200  0.387700  1.0
  H  H555  1  0.457400  0.162800  0.887700  1.0
  H  H556  1  0.042600  0.162800  0.612300  1.0
  H  H557  1  0.762000  0.912800  0.131100  1.0
  H  H558  1  0.738000  0.912800  0.368900  1.0
  H  H559  1  0.238000  0.087200  0.868900  1.0
  H  H560  1  0.262000  0.087200  0.631100  1.0
  H  H561  1  0.718900  0.823400  0.209100  1.0
  H  H562  1  0.781100  0.823400  0.290900  1.0
  H  H563  1  0.281100  0.176600  0.790900  1.0
  H  H564  1  0.218900  0.176600  0.709100  1.0
  H  H565  1  0.619100  0.820100  0.172200  1.0
  H  H566  1  0.880900  0.820100  0.327800  1.0
  H  H567  1  0.380900  0.179900  0.827800  1.0
  H  H568  1  0.119100  0.179900  0.672200  1.0
  H  H569  1  0.565800  0.895700  0.978400  1.0
  H  H570  1  0.934200  0.895700  0.521600  1.0
  H  H571  1  0.434200  0.104300  0.021600  1.0
  H  H572  1  0.065800  0.104300  0.478400  1.0
  H  H573  1  0.570600  0.886000  0.913000  1.0
  H  H574  1  0.929400  0.886000  0.587000  1.0
  H  H575  1  0.429400  0.114000  0.087000  1.0
  H  H576  1  0.070600  0.114000  0.413000  1.0
  H  H577  1  0.614700  0.011300  0.900300  1.0
  H  H578  1  0.885300  0.011300  0.599700  1.0
  H  H579  1  0.385300  0.988700  0.099700  1.0
  H  H580  1  0.114700  0.988700  0.400300  1.0
  H  H581  1  0.620200  0.024000  0.968200  1.0
  H  H582  1  0.879800  0.024000  0.531800  1.0
  H  H583  1  0.379800  0.976000  0.031800  1.0
  H  H584  1  0.120200  0.976000  0.468200  1.0
  H  H585  1  0.579600  0.911200  0.850900  1.0
  H  H586  1  0.920400  0.911200  0.649100  1.0
  H  H587  1  0.420400  0.088800  0.149100  1.0
  H  H588  1  0.079600  0.088800  0.350900  1.0
  H  H589  1  0.630400  0.948600  0.848900  1.0
  H  H590  1  0.869600  0.948600  0.651100  1.0
  H  H591  1  0.369600  0.051400  0.151100  1.0
  H  H592  1  0.130400  0.051400  0.348900  1.0
  H  H593  1  0.557500  0.960400  0.844100  1.0
  H  H594  1  0.942500  0.960400  0.655900  1.0
  H  H595  1  0.442500  0.039600  0.155900  1.0
  H  H596  1  0.057500  0.039600  0.344100  1.0
  H  H597  1  0.560900  0.021400  0.016100  1.0
  H  H598  1  0.939100  0.021400  0.483900  1.0
  H  H599  1  0.439100  0.978600  0.983900  1.0
  H  H600  1  0.060900  0.978600  0.516100  1.0
  H  H601  1  0.610800  0.956500  0.155700  1.0
  H  H602  1  0.889200  0.956500  0.344300  1.0
  H  H603  1  0.389200  0.043500  0.844300  1.0
  H  H604  1  0.110800  0.043500  0.655700  1.0
  H  H605  1  0.560200  0.083400  0.142400  1.0
  H  H606  1  0.939800  0.083400  0.357600  1.0
  H  H607  1  0.439800  0.916600  0.857600  1.0
  H  H608  1  0.060200  0.916600  0.642400  1.0
  H  H609  1  0.555500  0.072100  0.074400  1.0
  H  H610  1  0.944500  0.072100  0.425600  1.0
  H  H611  1  0.444500  0.927900  0.925600  1.0
  H  H612  1  0.055500  0.927900  0.574400  1.0
  H  H613  1  0.544500  0.970300  0.212400  1.0
  H  H614  1  0.955500  0.970300  0.287600  1.0
  H  H615  1  0.455500  0.029700  0.787600  1.0
  H  H616  1  0.044500  0.029700  0.712400  1.0
  H  H617  1  0.649400  0.086200  0.274000  1.0
  H  H618  1  0.850600  0.086200  0.226000  1.0
  H  H619  1  0.350600  0.913800  0.726000  1.0
  H  H620  1  0.149400  0.913800  0.774000  1.0
  H  H621  1  0.638900  0.079600  0.206400  1.0
  H  H622  1  0.861100  0.079600  0.293600  1.0
  H  H623  1  0.361100  0.920400  0.793600  1.0
  H  H624  1  0.138900  0.920400  0.706400  1.0
  H  H625  1  0.623600  0.052700  0.339000  1.0
  H  H626  1  0.876400  0.052700  0.161000  1.0
  H  H627  1  0.376400  0.947300  0.661000  1.0
  H  H628  1  0.123600  0.947300  0.839000  1.0
  H  H629  1  0.561200  0.064900  0.391700  1.0
  H  H630  1  0.938800  0.064900  0.108300  1.0
  H  H631  1  0.438800  0.935100  0.608300  1.0
  H  H632  1  0.061200  0.935100  0.891700  1.0
  H  H633  1  0.563300  0.059600  0.459700  1.0
  H  H634  1  0.936700  0.059600  0.040300  1.0
  H  H635  1  0.436700  0.940400  0.540300  1.0
  H  H636  1  0.063300  0.940400  0.959700  1.0
  H  H637  1  0.610600  0.931700  0.461500  1.0
  H  H638  1  0.889400  0.931700  0.038500  1.0
  H  H639  1  0.389400  0.068300  0.538500  1.0
  H  H640  1  0.110600  0.068300  0.961500  1.0
  H  H641  1  0.609900  0.934500  0.392400  1.0
  H  H642  1  0.890100  0.934500  0.107600  1.0
  H  H643  1  0.390100  0.065500  0.607600  1.0
  H  H644  1  0.109900  0.065500  0.892400  1.0
  H  H645  1  0.592500  0.964200  0.519500  1.0
  H  H646  1  0.907500  0.964200  0.980500  1.0
  H  H647  1  0.407500  0.035800  0.480500  1.0
  H  H648  1  0.092500  0.035800  0.019500  1.0
  H  H649  1  0.543800  0.003400  0.518000  1.0
  H  H650  1  0.956200  0.003400  0.982000  1.0
  H  H651  1  0.456200  0.996600  0.482000  1.0
  H  H652  1  0.043800  0.996600  0.018000  1.0
  H  H653  1  0.617300  0.013000  0.523500  1.0
  H  H654  1  0.882700  0.013000  0.976500  1.0
  H  H655  1  0.382700  0.987000  0.476500  1.0
  H  H656  1  0.117300  0.987000  0.023500  1.0
  H  H657  1  0.086200  0.981700  0.277700  1.0
  H  H658  1  0.413800  0.981700  0.222300  1.0
  H  H659  1  0.913800  0.018300  0.722300  1.0
  H  H660  1  0.586200  0.018300  0.777700  1.0
  H  H661  1  0.188500  0.988700  0.309500  1.0
  H  H662  1  0.311500  0.988700  0.190500  1.0
  H  H663  1  0.811500  0.011300  0.690500  1.0
  H  H664  1  0.688500  0.011300  0.809500  1.0
  H  H665  1  0.225100  0.864900  0.280100  1.0
  H  H666  1  0.274900  0.864900  0.219900  1.0
  H  H667  1  0.774900  0.135100  0.719900  1.0
  H  H668  1  0.725100  0.135100  0.780100  1.0
  H  H669  1  0.122900  0.857900  0.248400  1.0
  H  H670  1  0.377100  0.857900  0.251600  1.0
  H  H671  1  0.877100  0.142100  0.751600  1.0
  H  H672  1  0.622900  0.142100  0.748400  1.0
  H  H673  1  0.305400  0.911900  0.317700  1.0
  H  H674  1  0.194600  0.911900  0.182300  1.0
  H  H675  1  0.694600  0.088100  0.682300  1.0
  H  H676  1  0.805400  0.088100  0.817700  1.0
  H  H677  1  0.276500  0.947800  0.343900  1.0
  H  H678  1  0.223500  0.947800  0.156100  1.0
  H  H679  1  0.723500  0.052200  0.656100  1.0
  H  H680  1  0.776500  0.052200  0.843900  1.0
  H  H681  1  0.297200  0.960700  0.302200  1.0
  H  H682  1  0.202800  0.960700  0.197800  1.0
  H  H683  1  0.702800  0.039300  0.697800  1.0
  H  H684  1  0.797200  0.039300  0.802200  1.0
  H  H685  1  0.028600  0.864000  0.262500  1.0
  H  H686  1  0.471400  0.864000  0.237500  1.0
  H  H687  1  0.971400  0.136000  0.737500  1.0
  H  H688  1  0.528600  0.136000  0.762500  1.0
  H  H689  1  0.838500  0.929500  0.169200  1.0
  H  H690  1  0.661500  0.929500  0.330800  1.0
  H  H691  1  0.161500  0.070500  0.830800  1.0
  H  H692  1  0.338500  0.070500  0.669200  1.0
  H  H693  1  0.823400  0.809500  0.216200  1.0
  H  H694  1  0.676600  0.809500  0.283800  1.0
  H  H695  1  0.176600  0.190500  0.783800  1.0
  H  H696  1  0.323400  0.190500  0.716200  1.0
  H  H697  1  0.925200  0.816000  0.249600  1.0
  H  H698  1  0.574800  0.816000  0.250400  1.0
  H  H699  1  0.074800  0.184000  0.750400  1.0
  H  H700  1  0.425200  0.184000  0.749600  1.0
  H  H701  1  0.424900  0.021500  0.238000  1.0
  H  H702  1  0.075100  0.021500  0.262000  1.0
  H  H703  1  0.575100  0.978500  0.762000  1.0
  H  H704  1  0.924900  0.978500  0.738000  1.0
  H  H705  1  0.402300  0.084800  0.201300  1.0
  H  H706  1  0.097700  0.084800  0.298700  1.0
  H  H707  1  0.597700  0.915200  0.798700  1.0
  H  H708  1  0.902300  0.915200  0.701300  1.0
  H  H709  1  0.437100  0.156500  0.300800  1.0
  H  H710  1  0.062900  0.156500  0.199200  1.0
  H  H711  1  0.562900  0.843500  0.699200  1.0
  H  H712  1  0.937100  0.843500  0.800800  1.0
  H  H713  1  0.459600  0.093300  0.337500  1.0
  H  H714  1  0.040400  0.093300  0.162500  1.0
  H  H715  1  0.540400  0.906700  0.662500  1.0
  H  H716  1  0.959600  0.906700  0.837500  1.0
  H  H717  1  0.391000  0.160100  0.195700  1.0
  H  H718  1  0.109000  0.160100  0.304300  1.0
  H  H719  1  0.609000  0.839900  0.804300  1.0
  H  H720  1  0.891000  0.839900  0.695700  1.0
  H  H721  1  0.438300  0.187100  0.226300  1.0
  H  H722  1  0.061700  0.187100  0.273700  1.0
  H  H723  1  0.561700  0.812900  0.773700  1.0
  H  H724  1  0.938300  0.812900  0.726300  1.0
  H  H725  1  0.366500  0.182500  0.233000  1.0
  H  H726  1  0.133500  0.182500  0.267000  1.0
  H  H727  1  0.633500  0.817500  0.767000  1.0
  H  H728  1  0.866500  0.817500  0.733000  1.0
  H  H729  1  0.400700  0.019700  0.349700  1.0
  H  H730  1  0.099300  0.019700  0.150300  1.0
  H  H731  1  0.599300  0.980300  0.650300  1.0
  H  H732  1  0.900700  0.980300  0.849700  1.0
  H  H733  1  0.516700  0.874100  0.355700  1.0
  H  H734  1  0.983300  0.874100  0.144300  1.0
  H  H735  1  0.483300  0.125900  0.644300  1.0
  H  H736  1  0.016700  0.125900  0.855700  1.0
  H  H737  1  0.411500  0.907800  0.439500  1.0
  H  H738  1  0.088500  0.907800  0.060500  1.0
  H  H739  1  0.588500  0.092200  0.560500  1.0
  H  H740  1  0.911500  0.092200  0.939500  1.0
  H  H741  1  0.387200  0.970300  0.405000  1.0
  H  H742  1  0.112800  0.970300  0.095000  1.0
  H  H743  1  0.612800  0.029700  0.595000  1.0
  H  H744  1  0.887200  0.029700  0.905000  1.0
  H  H745  1  0.465000  0.803800  0.373700  1.0
  H  H746  1  0.035000  0.803800  0.126300  1.0
  H  H747  1  0.535000  0.196200  0.626300  1.0
  H  H748  1  0.965000  0.196200  0.873700  1.0
  H  H749  1  0.536000  0.804800  0.507900  1.0
  H  H750  1  0.964000  0.804800  0.992100  1.0
  H  H751  1  0.464000  0.195200  0.492100  1.0
  H  H752  1  0.036000  0.195200  0.007900  1.0
  H  H753  1  0.506300  0.867100  0.476800  1.0
  H  H754  1  0.993700  0.867100  0.023200  1.0
  H  H755  1  0.493700  0.132900  0.523200  1.0
  H  H756  1  0.006300  0.132900  0.976800  1.0
  H  H757  1  0.547900  0.722700  0.503500  1.0
  H  H758  1  0.952100  0.722700  0.996500  1.0
  H  H759  1  0.452100  0.277300  0.496500  1.0
  H  H760  1  0.047900  0.277300  0.003500  1.0
  H  H761  1  0.504400  0.649100  0.519100  1.0
  H  H762  1  0.995600  0.649100  0.980900  1.0
  H  H763  1  0.495600  0.350900  0.480900  1.0
  H  H764  1  0.004400  0.350900  0.019100  1.0
  H  H765  1  0.532100  0.579800  0.543500  1.0
  H  H766  1  0.967900  0.579800  0.956500  1.0
  H  H767  1  0.467900  0.420200  0.456500  1.0
  H  H768  1  0.032100  0.420200  0.043500  1.0
  H  H769  1  0.615500  0.555200  0.445200  1.0
  H  H770  1  0.884500  0.555200  0.054800  1.0
  H  H771  1  0.384500  0.444800  0.554800  1.0
  H  H772  1  0.115500  0.444800  0.945200  1.0
  H  H773  1  0.592800  0.625900  0.424500  1.0
  H  H774  1  0.907200  0.625900  0.075500  1.0
  H  H775  1  0.407200  0.374100  0.575500  1.0
  H  H776  1  0.092800  0.374100  0.924500  1.0
  H  H777  1  0.568500  0.508500  0.535800  1.0
  H  H778  1  0.931500  0.508500  0.964200  1.0
  H  H779  1  0.431500  0.491500  0.464200  1.0
  H  H780  1  0.068500  0.491500  0.035800  1.0
  H  H781  1  0.631500  0.507100  0.515700  1.0
  H  H782  1  0.868500  0.507100  0.984300  1.0
  H  H783  1  0.368500  0.492900  0.484300  1.0
  H  H784  1  0.131500  0.492900  0.015700  1.0
  H  H785  1  0.567300  0.490100  0.492000  1.0
  H  H786  1  0.932700  0.490100  0.008000  1.0
  H  H787  1  0.432700  0.509900  0.508000  1.0
  H  H788  1  0.067300  0.509900  0.992000  1.0
  H  H789  1  0.332600  0.672000  0.354400  1.0
  H  H790  1  0.167400  0.672000  0.145600  1.0
  H  H791  1  0.667400  0.328000  0.645600  1.0
  H  H792  1  0.832600  0.328000  0.854400  1.0
  H  H793  1  0.227400  0.689000  0.334900  1.0
  H  H794  1  0.272600  0.689000  0.165100  1.0
  H  H795  1  0.772600  0.311000  0.665100  1.0
  H  H796  1  0.727400  0.311000  0.834900  1.0
  H  H797  1  0.279300  0.801100  0.286600  1.0
  H  H798  1  0.220700  0.801100  0.213400  1.0
  H  H799  1  0.720700  0.198900  0.713400  1.0
  H  H800  1  0.779300  0.198900  0.786600  1.0
  H  H801  1  0.384400  0.784000  0.306000  1.0
  H  H802  1  0.115600  0.784000  0.194000  1.0
  H  H803  1  0.615600  0.216000  0.694000  1.0
  H  H804  1  0.884400  0.216000  0.806000  1.0
  H  H805  1  0.172300  0.785100  0.280900  1.0
  H  H806  1  0.327700  0.785100  0.219100  1.0
  H  H807  1  0.827700  0.214900  0.719100  1.0
  H  H808  1  0.672300  0.214900  0.780900  1.0
  H  H809  1  0.152400  0.760300  0.318400  1.0
  H  H810  1  0.347600  0.760300  0.181600  1.0
  H  H811  1  0.847600  0.239700  0.681600  1.0
  H  H812  1  0.652400  0.239700  0.818400  1.0
  H  H813  1  0.155900  0.734600  0.278200  1.0
  H  H814  1  0.344100  0.734600  0.221800  1.0
  H  H815  1  0.844100  0.265400  0.721800  1.0
  H  H816  1  0.655900  0.265400  0.778200  1.0
  H  H817  1  0.019800  0.630100  0.447100  1.0
  H  H818  1  0.480200  0.630100  0.052900  1.0
  H  H819  1  0.980200  0.369900  0.552900  1.0
  H  H820  1  0.519800  0.369900  0.947100  1.0
  H  H821  1  0.117400  0.617300  0.483700  1.0
  H  H822  1  0.382600  0.617300  0.016300  1.0
  H  H823  1  0.882600  0.382700  0.516300  1.0
  H  H824  1  0.617400  0.382700  0.983700  1.0
  H  H825  1  0.070800  0.696100  0.570000  1.0
  H  H826  1  0.429200  0.696100  0.930000  1.0
  H  H827  1  0.929200  0.303900  0.430000  1.0
  H  H828  1  0.570800  0.303900  0.070000  1.0
  H  H829  1  0.973200  0.708900  0.533400  1.0
  H  H830  1  0.526800  0.708900  0.966600  1.0
  H  H831  1  0.026800  0.291100  0.466600  1.0
  H  H832  1  0.473200  0.291100  0.033400  1.0
  H  H833  1  0.171000  0.664700  0.578300  1.0
  H  H834  1  0.329000  0.664700  0.921700  1.0
  H  H835  1  0.829000  0.335300  0.421700  1.0
  H  H836  1  0.671000  0.335300  0.078300  1.0
  H  H837  1  0.200200  0.656600  0.538200  1.0
  H  H838  1  0.299800  0.656600  0.961800  1.0
  H  H839  1  0.799800  0.343400  0.461800  1.0
  H  H840  1  0.700200  0.343400  0.038200  1.0
  H  H841  1  0.172200  0.616800  0.560300  1.0
  H  H842  1  0.327800  0.616800  0.939700  1.0
  H  H843  1  0.827800  0.383200  0.439700  1.0
  H  H844  1  0.672200  0.383200  0.060300  1.0
  H  H845  1  0.956000  0.713100  0.419800  1.0
  H  H846  1  0.544000  0.713100  0.080200  1.0
  H  H847  1  0.044000  0.286900  0.580200  1.0
  H  H848  1  0.456000  0.286900  0.919800  1.0
  H  H849  1  0.722200  0.674800  0.424500  1.0
  H  H850  1  0.777800  0.674800  0.075500  1.0
  H  H851  1  0.277800  0.325200  0.575500  1.0
  H  H852  1  0.222200  0.325200  0.924500  1.0
  H  H853  1  0.772300  0.736600  0.328600  1.0
  H  H854  1  0.727700  0.736600  0.171400  1.0
  H  H855  1  0.227700  0.263400  0.671400  1.0
  H  H856  1  0.272300  0.263400  0.828600  1.0
  H  H857  1  0.873000  0.735300  0.357900  1.0
  H  H858  1  0.627000  0.735300  0.142100  1.0
  H  H859  1  0.127000  0.264700  0.642100  1.0
  H  H860  1  0.373000  0.264700  0.857900  1.0
  H  H861  1  0.601400  0.454800  0.069500  1.0
  H  H862  1  0.898600  0.454800  0.430500  1.0
  H  H863  1  0.398600  0.545200  0.930500  1.0
  H  H864  1  0.101400  0.545200  0.569500  1.0
  H  H865  1  0.637100  0.517000  0.890400  1.0
  H  H866  1  0.862900  0.517000  0.609600  1.0
  H  H867  1  0.362900  0.483000  0.109600  1.0
  H  H868  1  0.137100  0.483000  0.390400  1.0
  H  H869  1  0.455500  0.721500  0.286500  1.0
  H  H870  1  0.044500  0.721500  0.213500  1.0
  H  H871  1  0.544500  0.278500  0.713500  1.0
  H  H872  1  0.955500  0.278500  0.786500  1.0
  H  H873  1  0.628200  0.701000  0.407100  1.0
  H  H874  1  0.871800  0.701000  0.092900  1.0
  H  H875  1  0.371800  0.299000  0.592900  1.0
  H  H876  1  0.128200  0.299000  0.907100  1.0
  H  H877  1  0.678800  0.715700  0.298100  1.0
  H  H878  1  0.821200  0.715700  0.201900  1.0
  H  H879  1  0.321200  0.284300  0.701900  1.0
  H  H880  1  0.178800  0.284300  0.798100  1.0
  H  H881  1  0.574900  0.722300  0.273500  1.0
  H  H882  1  0.925100  0.722300  0.226500  1.0
  H  H883  1  0.425100  0.277700  0.726500  1.0
  H  H884  1  0.074900  0.277700  0.773500  1.0
  C  C885  1  0.447200  0.896900  0.142400  1
  C  C886  1  0.052800  0.896900  0.357600  1
  C  C887  1  0.552800  0.103100  0.857600  1
  C  C888  1  0.947200  0.103100  0.642400  1
  C  C889  1  0.395600  0.865200  0.122900  1
  C  C890  1  0.104400  0.865200  0.377100  1
  C  C891  1  0.604400  0.134800  0.877100  1
  C  C892  1  0.895600  0.134800  0.622900  1
  C  C893  1  0.469800  0.640300  0.121300  1
  C  C894  1  0.030200  0.640300  0.378700  1
  C  C895  1  0.530200  0.359700  0.878700  1
  C  C896  1  0.969800  0.359700  0.621300  1
  C  C897  1  0.400500  0.655400  0.120600  1
  C  C898  1  0.099500  0.655400  0.379400  1
  C  C899  1  0.599500  0.344600  0.879400  1
  C  C900  1  0.900500  0.344600  0.620600  1
  C  C901  1  0.472500  0.439400  0.242000  1.0
  C  C902  1  0.027500  0.439400  0.258000  1.0
  C  C903  1  0.527500  0.560600  0.758000  1.0
  C  C904  1  0.972500  0.560600  0.742000  1.0
  C  C905  1  0.484900  0.395700  0.248700  1.0
  C  C906  1  0.015100  0.395700  0.251300  1.0
  C  C907  1  0.515100  0.604300  0.751300  1.0
  C  C908  1  0.984900  0.604300  0.748700  1.0
  C  C909  1  0.458800  0.374000  0.278300  1.0
  C  C910  1  0.041200  0.374000  0.221700  1.0
  C  C911  1  0.541200  0.626000  0.721700  1.0
  C  C912  1  0.958800  0.626000  0.778300  1.0
  C  C913  1  0.420400  0.396100  0.301200  1.0
  C  C914  1  0.079600  0.396100  0.198800  1.0
  C  C915  1  0.579600  0.603900  0.698800  1.0
  C  C916  1  0.920400  0.603900  0.801200  1.0
  C  C917  1  0.408000  0.439900  0.294500  1.0
  C  C918  1  0.092000  0.439900  0.205500  1.0
  C  C919  1  0.592000  0.560100  0.705500  1.0
  C  C920  1  0.908000  0.560100  0.794500  1.0
  C  C921  1  0.434100  0.461500  0.264900  1.0
  C  C922  1  0.065900  0.461500  0.235100  1.0
  C  C923  1  0.565900  0.538500  0.735100  1.0
  C  C924  1  0.934100  0.538500  0.764900  1.0
  C  C925  1  0.393100  0.375400  0.334900  1.0
  C  C926  1  0.106900  0.375400  0.165100  1.0
  C  C927  1  0.606900  0.624600  0.665100  1.0
  C  C928  1  0.893100  0.624600  0.834900  1.0
  C  C929  1  0.509300  0.441300  0.180200  1.0
  C  C930  1  0.990700  0.441300  0.319800  1.0
  C  C931  1  0.490700  0.558700  0.819800  1.0
  C  C932  1  0.009300  0.558700  0.680200  1.0
  C  C933  1  0.545300  0.465300  0.153000  1.0
  C  C934  1  0.954700  0.465300  0.347000  1.0
  C  C935  1  0.454700  0.534700  0.847000  1.0
  C  C936  1  0.045300  0.534700  0.653000  1.0
  C  C937  1  0.600800  0.524900  0.138300  1.0
  C  C938  1  0.899200  0.524900  0.361700  1.0
  C  C939  1  0.399200  0.475100  0.861700  1.0
  C  C940  1  0.100800  0.475100  0.638300  1.0
  C  C941  1  0.615300  0.507500  0.104000  1.0
  C  C942  1  0.884700  0.507500  0.396000  1.0
  C  C943  1  0.384700  0.492500  0.896000  1.0
  C  C944  1  0.115300  0.492500  0.604000  1.0
  C  C945  1  0.556800  0.445000  0.117600  1.0
  C  C946  1  0.943200  0.445000  0.382400  1.0
  C  C947  1  0.443200  0.555000  0.882400  1.0
  C  C948  1  0.056800  0.555000  0.617600  1.0
  C  C949  1  0.652400  0.532500  0.076400  1.0
  C  C950  1  0.847600  0.532500  0.423600  1.0
  C  C951  1  0.347600  0.467500  0.923600  1.0
  C  C952  1  0.152400  0.467500  0.576400  1.0
  C  C953  1  0.643400  0.575200  0.066700  1.0
  C  C954  1  0.856600  0.575200  0.433300  1.0
  C  C955  1  0.356600  0.424800  0.933300  1.0
  C  C956  1  0.143400  0.424800  0.566700  1.0
  C  C957  1  0.724000  0.575100  0.028000  1.0
  C  C958  1  0.776000  0.575100  0.472000  1.0
  C  C959  1  0.276000  0.424900  0.972000  1.0
  C  C960  1  0.224000  0.424900  0.528000  1.0
  C  C961  1  0.738800  0.532200  0.038100  1.0
  C  C962  1  0.761200  0.532200  0.461900  1.0
  C  C963  1  0.261200  0.467800  0.961900  1.0
  C  C964  1  0.238800  0.467800  0.538100  1.0
  C  C965  1  0.702200  0.508700  0.061900  1.0
  C  C966  1  0.797800  0.508700  0.438100  1.0
  C  C967  1  0.297800  0.491300  0.938100  1.0
  C  C968  1  0.202200  0.491300  0.561900  1.0
  C  C969  1  0.760700  0.602600  0.004700  1.0
  C  C970  1  0.739300  0.602600  0.495300  1.0
  C  C971  1  0.239300  0.397400  0.995300  1.0
  C  C972  1  0.260700  0.397400  0.504700  1.0
  C  C973  1  0.784000  0.668600  0.975900  1.0
  C  C974  1  0.716000  0.668600  0.524100  1.0
  C  C975  1  0.216000  0.331400  0.024100  1.0
  C  C976  1  0.284000  0.331400  0.475900  1.0
  C  C977  1  0.793800  0.655100  0.938500  1.0
  C  C978  1  0.706200  0.655100  0.561500  1.0
  C  C979  1  0.206200  0.344900  0.061500  1.0
  C  C980  1  0.293800  0.344900  0.438500  1.0
  C  C981  1  0.821500  0.682900  0.914000  1.0
  C  C982  1  0.678500  0.682900  0.586000  1.0
  C  C983  1  0.178500  0.317100  0.086000  1.0
  C  C984  1  0.321500  0.317100  0.414000  1.0
  C  C985  1  0.839400  0.724300  0.926800  1.0
  C  C986  1  0.660600  0.724300  0.573200  1.0
  C  C987  1  0.160600  0.275700  0.073200  1.0
  C  C988  1  0.339400  0.275700  0.426800  1.0
  C  C989  1  0.829600  0.737900  0.964200  1.0
  C  C990  1  0.670400  0.737900  0.535800  1.0
  C  C991  1  0.170400  0.262100  0.035800  1.0
  C  C992  1  0.329600  0.262100  0.464200  1.0
  C  C993  1  0.801900  0.710000  0.988800  1.0
  C  C994  1  0.698100  0.710000  0.511200  1.0
  C  C995  1  0.198100  0.290000  0.011200  1.0
  C  C996  1  0.301900  0.290000  0.488800  1.0
  C  C997  1  0.869800  0.756600  0.898900  1.0
  C  C998  1  0.630200  0.756600  0.601100  1.0
  C  C999  1  0.130200  0.243400  0.101100  1.0
  C  C1000  1  0.369800  0.243400  0.398900  1.0
  C  C1001  1  0.667600  0.443900  0.216100  1.0
  C  C1002  1  0.832400  0.443900  0.283900  1.0
  C  C1003  1  0.332400  0.556100  0.783900  1.0
  C  C1004  1  0.167600  0.556100  0.716100  1.0
  C  C1005  1  0.703000  0.465700  0.191200  1.0
  C  C1006  1  0.797000  0.465700  0.308800  1.0
  C  C1007  1  0.297000  0.534300  0.808800  1.0
  C  C1008  1  0.203000  0.534300  0.691200  1.0
  C  C1009  1  0.734700  0.442500  0.165100  1.0
  C  C1010  1  0.765300  0.442500  0.334900  1.0
  C  C1011  1  0.265300  0.557500  0.834900  1.0
  C  C1012  1  0.234700  0.557500  0.665100  1.0
  C  C1013  1  0.731000  0.397500  0.163900  1.0
  C  C1014  1  0.769000  0.397500  0.336100  1.0
  C  C1015  1  0.269000  0.602500  0.836100  1.0
  C  C1016  1  0.231000  0.602500  0.663900  1.0
  C  C1017  1  0.695500  0.375700  0.188800  1.0
  C  C1018  1  0.804500  0.375700  0.311200  1.0
  C  C1019  1  0.304500  0.624300  0.811200  1.0
  C  C1020  1  0.195500  0.624300  0.688800  1.0
  C  C1021  1  0.663800  0.398900  0.214900  1.0
  C  C1022  1  0.836200  0.398900  0.285100  1.0
  C  C1023  1  0.336200  0.601100  0.785100  1.0
  C  C1024  1  0.163800  0.601100  0.714900  1.0
  C  C1025  1  0.769200  0.370600  0.136700  1.0
  C  C1026  1  0.730800  0.370600  0.363300  1.0
  C  C1027  1  0.230800  0.629400  0.863300  1.0
  C  C1028  1  0.269200  0.629400  0.636700  1.0
  C  C1029  1  0.627500  0.455600  0.276300  1.0
  C  C1030  1  0.872500  0.455600  0.223700  1.0
  C  C1031  1  0.372500  0.544400  0.723700  1.0
  C  C1032  1  0.127500  0.544400  0.776300  1.0
  C  C1033  1  0.590700  0.480700  0.302000  1.0
  C  C1034  1  0.909300  0.480700  0.198000  1.0
  C  C1035  1  0.409300  0.519300  0.698000  1.0
  C  C1036  1  0.090700  0.519300  0.802000  1.0
  C  C1037  1  0.528500  0.540300  0.305400  1.0
  C  C1038  1  0.971500  0.540300  0.194600  1.0
  C  C1039  1  0.471500  0.459700  0.694600  1.0
  C  C1040  1  0.028500  0.459700  0.805400  1.0
  C  C1041  1  0.552100  0.494800  0.363400  1.0
  C  C1042  1  0.947900  0.494800  0.136600  1.0
  C  C1043  1  0.447900  0.505200  0.636600  1.0
  C  C1044  1  0.052100  0.505200  0.863400  1.0
  C  C1045  1  0.587000  0.469700  0.341800  1.0
  C  C1046  1  0.913000  0.469700  0.158200  1.0
  C  C1047  1  0.413000  0.530300  0.658200  1.0
  C  C1048  1  0.087000  0.530300  0.841800  1.0
  C  C1049  1  0.486100  0.561400  0.367100  1.0
  C  C1050  1  0.013900  0.561400  0.132900  1.0
  C  C1051  1  0.513900  0.438600  0.632900  1.0
  C  C1052  1  0.986100  0.438600  0.867100  1.0
  C  C1053  1  0.492800  0.605400  0.365100  1.0
  C  C1054  1  0.007200  0.605400  0.134900  1.0
  C  C1055  1  0.507200  0.394600  0.634900  1.0
  C  C1056  1  0.992800  0.394600  0.865100  1.0
  C  C1057  1  0.422800  0.618100  0.410700  1.0
  C  C1058  1  0.077200  0.618100  0.089300  1.0
  C  C1059  1  0.577200  0.381900  0.589300  1.0
  C  C1060  1  0.922800  0.381900  0.910700  1.0
  C  C1061  1  0.414900  0.574200  0.413700  1.0
  C  C1062  1  0.085100  0.574200  0.086300  1.0
  C  C1063  1  0.585100  0.425800  0.586300  1.0
  C  C1064  1  0.914900  0.425800  0.913700  1.0
  C  C1065  1  0.445900  0.545500  0.392400  1.0
  C  C1066  1  0.054100  0.545500  0.107600  1.0
  C  C1067  1  0.554100  0.454500  0.607600  1.0
  C  C1068  1  0.945900  0.454500  0.892400  1.0
  C  C1069  1  0.391400  0.651000  0.432800  1.0
  C  C1070  1  0.108600  0.651000  0.067200  1.0
  C  C1071  1  0.608600  0.349000  0.567200  1.0
  C  C1072  1  0.891400  0.349000  0.932800  1.0
  C  C1073  1  0.376500  0.723100  0.453900  1.0
  C  C1074  1  0.123500  0.723100  0.046100  1.0
  C  C1075  1  0.623500  0.276900  0.546100  1.0
  C  C1076  1  0.876500  0.276900  0.953900  1.0
  C  C1077  1  0.359000  0.763200  0.437700  1.0
  C  C1078  1  0.141000  0.763200  0.062300  1.0
  C  C1079  1  0.641000  0.236800  0.562300  1.0
  C  C1080  1  0.859000  0.236800  0.937700  1.0
  C  C1081  1  0.345900  0.797300  0.461900  1.0
  C  C1082  1  0.154100  0.797300  0.038100  1.0
  C  C1083  1  0.654100  0.202700  0.538100  1.0
  C  C1084  1  0.845900  0.202700  0.961900  1.0
  C  C1085  1  0.350200  0.791100  0.502400  1.0
  C  C1086  1  0.149800  0.791100  0.997600  1.0
  C  C1087  1  0.649800  0.208900  0.497600  1.0
  C  C1088  1  0.850200  0.208900  0.002400  1.0
  C  C1089  1  0.367700  0.751000  0.518600  1.0
  C  C1090  1  0.132300  0.751000  0.981400  1.0
  C  C1091  1  0.632300  0.249000  0.481400  1.0
  C  C1092  1  0.867700  0.249000  0.018600  1.0
  C  C1093  1  0.380900  0.717000  0.494400  1.0
  C  C1094  1  0.119100  0.717000  0.005600  1.0
  C  C1095  1  0.619100  0.283000  0.505600  1.0
  C  C1096  1  0.880900  0.283000  0.994400  1.0
  C  C1097  1  0.347400  0.830200  0.529600  1.0
  C  C1098  1  0.152600  0.830200  0.970400  1.0
  C  C1099  1  0.652600  0.169800  0.470400  1.0
  C  C1100  1  0.847400  0.169800  0.029600  1.0
  C  C1101  1  0.429100  0.570000  0.208200  1.0
  C  C1102  1  0.070900  0.570000  0.291800  1.0
  C  C1103  1  0.570900  0.430000  0.791800  1.0
  C  C1104  1  0.929100  0.430000  0.708200  1.0
  C  C1105  1  0.396600  0.539700  0.183500  1.0
  C  C1106  1  0.103400  0.539700  0.316500  1.0
  C  C1107  1  0.603400  0.460300  0.816500  1.0
  C  C1108  1  0.896600  0.460300  0.683500  1.0
  C  C1109  1  0.331900  0.542400  0.175100  1.0
  C  C1110  1  0.168100  0.542400  0.324900  1.0
  C  C1111  1  0.668100  0.457600  0.824900  1.0
  C  C1112  1  0.831900  0.457600  0.675100  1.0
  C  C1113  1  0.299700  0.575400  0.191400  1.0
  C  C1114  1  0.200300  0.575400  0.308600  1.0
  C  C1115  1  0.700300  0.424600  0.808600  1.0
  C  C1116  1  0.799700  0.424600  0.691400  1.0
  C  C1117  1  0.332200  0.605700  0.216200  1.0
  C  C1118  1  0.167800  0.605700  0.283800  1.0
  C  C1119  1  0.667800  0.394300  0.783800  1.0
  C  C1120  1  0.832200  0.394300  0.716200  1.0
  C  C1121  1  0.396900  0.603000  0.224600  1.0
  C  C1122  1  0.103100  0.603000  0.275400  1.0
  C  C1123  1  0.603100  0.397000  0.775400  1.0
  C  C1124  1  0.896900  0.397000  0.724600  1.0
  C  C1125  1  0.222800  0.574100  0.180600  1.0
  C  C1126  1  0.277200  0.574100  0.319400  1.0
  C  C1127  1  0.777200  0.425900  0.819400  1.0
  C  C1128  1  0.722800  0.425900  0.680600  1.0
  C  C1129  1  0.518900  0.601700  0.208900  1.0
  C  C1130  1  0.981100  0.601700  0.291100  1.0
  C  C1131  1  0.481100  0.398300  0.791100  1.0
  C  C1132  1  0.018900  0.398300  0.708900  1.0
  C  C1133  1  0.586300  0.604900  0.217700  1.0
  C  C1134  1  0.913700  0.604900  0.282300  1.0
  C  C1135  1  0.413700  0.395100  0.782300  1.0
  C  C1136  1  0.086300  0.395100  0.717700  1.0
  C  C1137  1  0.682600  0.571900  0.242300  1.0
  C  C1138  1  0.817400  0.571900  0.257700  1.0
  C  C1139  1  0.317400  0.428100  0.757700  1.0
  C  C1140  1  0.182600  0.428100  0.742300  1.0
  C  C1141  1  0.717400  0.609400  0.243000  1.0
  C  C1142  1  0.782600  0.609400  0.257000  1.0
  C  C1143  1  0.282600  0.390600  0.757000  1.0
  C  C1144  1  0.217400  0.390600  0.743000  1.0
  C  C1145  1  0.681500  0.647300  0.228800  1.0
  C  C1146  1  0.818500  0.647300  0.271200  1.0
  C  C1147  1  0.318500  0.352700  0.771200  1.0
  C  C1148  1  0.181500  0.352700  0.728800  1.0
  C  C1149  1  0.617100  0.643800  0.216000  1.0
  C  C1150  1  0.882900  0.643800  0.284000  1.0
  C  C1151  1  0.382900  0.356200  0.784000  1.0
  C  C1152  1  0.117100  0.356200  0.716000  1.0
  C  C1153  1  0.609800  0.593900  0.951000  1.0
  C  C1154  1  0.890200  0.593900  0.549000  1.0
  C  C1155  1  0.390200  0.406100  0.049000  1.0
  C  C1156  1  0.109800  0.406100  0.451000  1.0
  C  C1157  1  0.567200  0.567200  0.971400  1.0
  C  C1158  1  0.932800  0.567200  0.528600  1.0
  C  C1159  1  0.432800  0.432800  0.028600  1.0
  C  C1160  1  0.067200  0.432800  0.471400  1.0
  C  C1161  1  0.551300  0.525400  0.961100  1.0
  C  C1162  1  0.948700  0.525400  0.538900  1.0
  C  C1163  1  0.448700  0.474600  0.038900  1.0
  C  C1164  1  0.051300  0.474600  0.461100  1.0
  C  C1165  1  0.576400  0.508200  0.933500  1.0
  C  C1166  1  0.923600  0.508200  0.566500  1.0
  C  C1167  1  0.423600  0.491800  0.066500  1.0
  C  C1168  1  0.076400  0.491800  0.433500  1.0
  C  C1169  1  0.632000  0.574100  0.920500  1.0
  C  C1170  1  0.868000  0.574100  0.579500  1.0
  C  C1171  1  0.368000  0.425900  0.079500  1.0
  C  C1172  1  0.132000  0.425900  0.420500  1.0
  C  C1173  1  0.559800  0.459200  0.919600  1.0
  C  C1174  1  0.940200  0.459200  0.580400  1.0
  C  C1175  1  0.440200  0.540800  0.080400  1.0
  C  C1176  1  0.059800  0.540800  0.419600  1.0
  C  C1177  1  0.626500  0.665400  0.934700  1.0
  C  C1178  1  0.873500  0.665400  0.565300  1.0
  C  C1179  1  0.373500  0.334600  0.065300  1.0
  C  C1180  1  0.126500  0.334600  0.434700  1.0
  C  C1181  1  0.647000  0.708700  0.947000  1.0
  C  C1182  1  0.853000  0.708700  0.553000  1.0
  C  C1183  1  0.353000  0.291300  0.053000  1.0
  C  C1184  1  0.147000  0.291300  0.447000  1.0
  C  C1185  1  0.673700  0.757100  0.998300  1.0
  C  C1186  1  0.826300  0.757100  0.501700  1.0
  C  C1187  1  0.326300  0.242900  0.001700  1.0
  C  C1188  1  0.173700  0.242900  0.498300  1.0
  C  C1189  1  0.681400  0.790600  0.971300  1.0
  C  C1190  1  0.818600  0.790600  0.528700  1.0
  C  C1191  1  0.318600  0.209400  0.028700  1.0
  C  C1192  1  0.181400  0.209400  0.471300  1.0
  C  C1193  1  0.672400  0.783200  0.932300  1.0
  C  C1194  1  0.827600  0.783200  0.567700  1.0
  C  C1195  1  0.327600  0.216800  0.067700  1.0
  C  C1196  1  0.172400  0.216800  0.432300  1.0
  C  C1197  1  0.655100  0.740700  0.918800  1.0
  C  C1198  1  0.844900  0.740700  0.581200  1.0
  C  C1199  1  0.344900  0.259300  0.081200  1.0
  C  C1200  1  0.155100  0.259300  0.418800  1.0
  C  C1201  1  0.701400  0.832500  0.989100  1.0
  C  C1202  1  0.798600  0.832500  0.510900  1.0
  C  C1203  1  0.298600  0.167500  0.010900  1.0
  C  C1204  1  0.201400  0.167500  0.489100  1.0
  C  C1205  1  0.673300  0.851700  0.018800  1.0
  C  C1206  1  0.826700  0.851700  0.481200  1.0
  C  C1207  1  0.326700  0.148300  0.981200  1.0
  C  C1208  1  0.173300  0.148300  0.518800  1.0
  C  C1209  1  0.735500  0.913600  0.018400  1.0
  C  C1210  1  0.764500  0.913600  0.481600  1.0
  C  C1211  1  0.264500  0.086400  0.981600  1.0
  C  C1212  1  0.235500  0.086400  0.518400  1.0
  C  C1213  1  0.765500  0.898900  0.989100  1.0
  C  C1214  1  0.734500  0.898900  0.510900  1.0
  C  C1215  1  0.234500  0.101100  0.010900  1.0
  C  C1216  1  0.265500  0.101100  0.489100  1.0
  C  C1217  1  0.748000  0.858700  0.973500  1.0
  C  C1218  1  0.752000  0.858700  0.526500  1.0
  C  C1219  1  0.252000  0.141300  0.026500  1.0
  C  C1220  1  0.248000  0.141300  0.473500  1.0
  C  C1221  1  0.746200  0.956200  0.037500  1.0
  C  C1222  1  0.753800  0.956200  0.462500  1.0
  C  C1223  1  0.253800  0.043800  0.962500  1.0
  C  C1224  1  0.246200  0.043800  0.537500  1.0
  C  C1225  1  0.729500  0.010000  0.082800  1.0
  C  C1226  1  0.770500  0.010000  0.417200  1.0
  C  C1227  1  0.270500  0.990000  0.917200  1.0
  C  C1228  1  0.229500  0.990000  0.582800  1.0
  C  C1229  1  0.734500  0.046700  0.059900  1.0
  C  C1230  1  0.765500  0.046700  0.440100  1.0
  C  C1231  1  0.265500  0.953300  0.940100  1.0
  C  C1232  1  0.234500  0.953300  0.559900  1.0
  C  C1233  1  0.742800  0.087200  0.077700  1.0
  C  C1234  1  0.757200  0.087200  0.422300  1.0
  C  C1235  1  0.257200  0.912800  0.922300  1.0
  C  C1236  1  0.242800  0.912800  0.577700  1.0
  C  C1237  1  0.746000  0.091000  0.118300  1.0
  C  C1238  1  0.754000  0.091000  0.381700  1.0
  C  C1239  1  0.254000  0.909000  0.881700  1.0
  C  C1240  1  0.246000  0.909000  0.618300  1.0
  C  C1241  1  0.741000  0.054200  0.141200  1.0
  C  C1242  1  0.759000  0.054200  0.358800  1.0
  C  C1243  1  0.259000  0.945800  0.858800  1.0
  C  C1244  1  0.241000  0.945800  0.641200  1.0
  C  C1245  1  0.732800  0.013800  0.123500  1.0
  C  C1246  1  0.767200  0.013800  0.376500  1.0
  C  C1247  1  0.267200  0.986200  0.876500  1.0
  C  C1248  1  0.232800  0.986200  0.623500  1.0
  C  C1249  1  0.751400  0.136700  0.138200  1.0
  C  C1250  1  0.748600  0.136700  0.361800  1.0
  C  C1251  1  0.248600  0.863300  0.861800  1.0
  C  C1252  1  0.251400  0.863300  0.638200  1.0
  C  C1253  1  0.512000  0.865700  0.049000  1.0
  C  C1254  1  0.988000  0.865700  0.451000  1.0
  C  C1255  1  0.488000  0.134300  0.951000  1.0
  C  C1256  1  0.012000  0.134300  0.549000  1.0
  C  C1257  1  0.465500  0.895600  0.036100  1.0
  C  C1258  1  0.034500  0.895600  0.463900  1.0
  C  C1259  1  0.534500  0.104400  0.963900  1.0
  C  C1260  1  0.965500  0.104400  0.536100  1.0
  C  C1261  1  0.417800  0.884200  0.006700  1.0
  C  C1262  1  0.082200  0.884200  0.493300  1.0
  C  C1263  1  0.582200  0.115800  0.993300  1.0
  C  C1264  1  0.917800  0.115800  0.506700  1.0
  C  C1265  1  0.416500  0.843000  0.990200  1.0
  C  C1266  1  0.083500  0.843000  0.509800  1.0
  C  C1267  1  0.583500  0.157000  0.009800  1.0
  C  C1268  1  0.916500  0.157000  0.490200  1.0
  C  C1269  1  0.462900  0.813200  0.003000  1.0
  C  C1270  1  0.037100  0.813200  0.497000  1.0
  C  C1271  1  0.537100  0.186800  0.997000  1.0
  C  C1272  1  0.962900  0.186800  0.503000  1.0
  C  C1273  1  0.510700  0.824500  0.032400  1.0
  C  C1274  1  0.989300  0.824500  0.467600  1.0
  C  C1275  1  0.489300  0.175500  0.967600  1.0
  C  C1276  1  0.010700  0.175500  0.532400  1.0
  C  C1277  1  0.366400  0.825900  0.960800  1.0
  C  C1278  1  0.133600  0.825900  0.539200  1.0
  C  C1279  1  0.633600  0.174100  0.039200  1.0
  C  C1280  1  0.866400  0.174100  0.460800  1.0
  C  C1281  1  0.572900  0.857100  0.105400  1.0
  C  C1282  1  0.927100  0.857100  0.394600  1.0
  C  C1283  1  0.427100  0.142900  0.894600  1.0
  C  C1284  1  0.072900  0.142900  0.605400  1.0
  C  C1285  1  0.632000  0.862900  0.128900  1.0
  C  C1286  1  0.868000  0.862900  0.371100  1.0
  C  C1287  1  0.368000  0.137100  0.871100  1.0
  C  C1288  1  0.132000  0.137100  0.628900  1.0
  C  C1289  1  0.733300  0.892700  0.139800  1.0
  C  C1290  1  0.766700  0.892700  0.360200  1.0
  C  C1291  1  0.266700  0.107300  0.860200  1.0
  C  C1292  1  0.233300  0.107300  0.639800  1.0
  C  C1293  1  0.754600  0.867800  0.171700  1.0
  C  C1294  1  0.745400  0.867800  0.328300  1.0
  C  C1295  1  0.245400  0.132200  0.828300  1.0
  C  C1296  1  0.254600  0.132200  0.671700  1.0
  C  C1297  1  0.709300  0.840000  0.185800  1.0
  C  C1298  1  0.790700  0.840000  0.314200  1.0
  C  C1299  1  0.290700  0.160000  0.814200  1.0
  C  C1300  1  0.209300  0.160000  0.685800  1.0
  C  C1301  1  0.649500  0.838600  0.163400  1.0
  C  C1302  1  0.850500  0.838600  0.336600  1.0
  C  C1303  1  0.350500  0.161400  0.836600  1.0
  C  C1304  1  0.149500  0.161400  0.663400  1.0
  C  C1305  1  0.594300  0.959100  0.982100  1.0
  C  C1306  1  0.905700  0.959100  0.517900  1.0
  C  C1307  1  0.405700  0.040900  0.017900  1.0
  C  C1308  1  0.094300  0.040900  0.482100  1.0
  C  C1309  1  0.578100  0.919300  0.963300  1.0
  C  C1310  1  0.921900  0.919300  0.536700  1.0
  C  C1311  1  0.421900  0.080700  0.036700  1.0
  C  C1312  1  0.078100  0.080700  0.463300  1.0
  C  C1313  1  0.579500  0.913800  0.924300  1.0
  C  C1314  1  0.920500  0.913800  0.575700  1.0
  C  C1315  1  0.420500  0.086200  0.075700  1.0
  C  C1316  1  0.079500  0.086200  0.424300  1.0
  C  C1317  1  0.593600  0.947600  0.900200  1.0
  C  C1318  1  0.906400  0.947600  0.599800  1.0
  C  C1319  1  0.406400  0.052400  0.099800  1.0
  C  C1320  1  0.093600  0.052400  0.400200  1.0
  C  C1321  1  0.606900  0.987900  0.917100  1.0
  C  C1322  1  0.893100  0.987900  0.582900  1.0
  C  C1323  1  0.393100  0.012100  0.082900  1.0
  C  C1324  1  0.106900  0.012100  0.417100  1.0
  C  C1325  1  0.609400  0.996200  0.957300  1.0
  C  C1326  1  0.890600  0.996200  0.542700  1.0
  C  C1327  1  0.390600  0.003800  0.042700  1.0
  C  C1328  1  0.109400  0.003800  0.457300  1.0
  C  C1329  1  0.590000  0.941400  0.857500  1.0
  C  C1330  1  0.910000  0.941400  0.642500  1.0
  C  C1331  1  0.410000  0.058600  0.142500  1.0
  C  C1332  1  0.090000  0.058600  0.357500  1.0
  C  C1333  1  0.576400  0.999800  0.034600  1.0
  C  C1334  1  0.923600  0.999800  0.465400  1.0
  C  C1335  1  0.423600  0.000200  0.965400  1.0
  C  C1336  1  0.076400  0.000200  0.534600  1.0
  C  C1337  1  0.579100  0.009200  0.075400  1.0
  C  C1338  1  0.920900  0.009200  0.424600  1.0
  C  C1339  1  0.420900  0.990800  0.924600  1.0
  C  C1340  1  0.079100  0.990800  0.575400  1.0
  C  C1341  1  0.598800  0.980700  0.139300  1.0
  C  C1342  1  0.901200  0.980700  0.360700  1.0
  C  C1343  1  0.401200  0.019300  0.860700  1.0
  C  C1344  1  0.098800  0.019300  0.639300  1.0
  C  C1345  1  0.586100  0.018100  0.156700  1.0
  C  C1346  1  0.913900  0.018100  0.343300  1.0
  C  C1347  1  0.413900  0.981900  0.843300  1.0
  C  C1348  1  0.086100  0.981900  0.656700  1.0
  C  C1349  1  0.569000  0.055900  0.131900  1.0
  C  C1350  1  0.931000  0.055900  0.368100  1.0
  C  C1351  1  0.431000  0.944100  0.868100  1.0
  C  C1352  1  0.069000  0.944100  0.631900  1.0
  C  C1353  1  0.566600  0.048500  0.091800  1.0
  C  C1354  1  0.933400  0.048500  0.408200  1.0
  C  C1355  1  0.433400  0.951500  0.908200  1.0
  C  C1356  1  0.066600  0.951500  0.591800  1.0
  C  C1357  1  0.591100  0.024500  0.199800  1.0
  C  C1358  1  0.908900  0.024500  0.300200  1.0
  C  C1359  1  0.408900  0.975500  0.800200  1.0
  C  C1360  1  0.091100  0.975500  0.699800  1.0
  C  C1361  1  0.565200  0.994900  0.224600  1.0
  C  C1362  1  0.934800  0.994900  0.275400  1.0
  C  C1363  1  0.434800  0.005100  0.775400  1.0
  C  C1364  1  0.065200  0.005100  0.724600  1.0
  C  C1365  1  0.601700  0.030800  0.282800  1.0
  C  C1366  1  0.898300  0.030800  0.217200  1.0
  C  C1367  1  0.398300  0.969200  0.717200  1.0
  C  C1368  1  0.101700  0.969200  0.782800  1.0
  C  C1369  1  0.627600  0.062200  0.261400  1.0
  C  C1370  1  0.872400  0.062200  0.238600  1.0
  C  C1371  1  0.372400  0.937800  0.738600  1.0
  C  C1372  1  0.127600  0.937800  0.761400  1.0
  C  C1373  1  0.621000  0.057700  0.220900  1.0
  C  C1374  1  0.879000  0.057700  0.279100  1.0
  C  C1375  1  0.379000  0.942300  0.779100  1.0
  C  C1376  1  0.121000  0.942300  0.720900  1.0
  C  C1377  1  0.604600  0.029200  0.324000  1.0
  C  C1378  1  0.895400  0.029200  0.176000  1.0
  C  C1379  1  0.395400  0.970800  0.676000  1.0
  C  C1380  1  0.104600  0.970800  0.824000  1.0
  C  C1381  1  0.584200  0.997600  0.383000  1.0
  C  C1382  1  0.915800  0.997600  0.117000  1.0
  C  C1383  1  0.415800  0.002400  0.617000  1.0
  C  C1384  1  0.084200  0.002400  0.883000  1.0
  C  C1385  1  0.570200  0.038100  0.404900  1.0
  C  C1386  1  0.929800  0.038100  0.095100  1.0
  C  C1387  1  0.429800  0.961900  0.595100  1.0
  C  C1388  1  0.070200  0.961900  0.904900  1.0
  C  C1389  1  0.571300  0.034200  0.445500  1.0
  C  C1390  1  0.928700  0.034200  0.054500  1.0
  C  C1391  1  0.428700  0.965800  0.554500  1.0
  C  C1392  1  0.071300  0.965800  0.945500  1.0
  C  C1393  1  0.582800  0.996700  0.466600  1.0
  C  C1394  1  0.917200  0.996700  0.033400  1.0
  C  C1395  1  0.417200  0.003300  0.533400  1.0
  C  C1396  1  0.082800  0.003300  0.966600  1.0
  C  C1397  1  0.599700  0.957600  0.447300  1.0
  C  C1398  1  0.900300  0.957600  0.052700  1.0
  C  C1399  1  0.400300  0.042400  0.552700  1.0
  C  C1400  1  0.099700  0.042400  0.947300  1.0
  C  C1401  1  0.599400  0.959900  0.405700  1.0
  C  C1402  1  0.900600  0.959900  0.094300  1.0
  C  C1403  1  0.400600  0.040100  0.594300  1.0
  C  C1404  1  0.099400  0.040100  0.905700  1.0
  C  C1405  1  0.584200  0.994100  0.510800  1.0
  C  C1406  1  0.915800  0.994100  0.989200  1.0
  C  C1407  1  0.415800  0.005900  0.489200  1.0
  C  C1408  1  0.084200  0.005900  0.010800  1.0
  C  C1409  1  0.095000  0.919100  0.260100  1.0
  C  C1410  1  0.405000  0.919100  0.239900  1.0
  C  C1411  1  0.905000  0.080900  0.739900  1.0
  C  C1412  1  0.595000  0.080900  0.760100  1.0
  C  C1413  1  0.114400  0.958000  0.278200  1.0
  C  C1414  1  0.385600  0.958000  0.221800  1.0
  C  C1415  1  0.885600  0.042000  0.721800  1.0
  C  C1416  1  0.614400  0.042000  0.778200  1.0
  C  C1417  1  0.175200  0.962100  0.297100  1.0
  C  C1418  1  0.324800  0.962100  0.202900  1.0
  C  C1419  1  0.824800  0.037900  0.702900  1.0
  C  C1420  1  0.675200  0.037900  0.797100  1.0
  C  C1421  1  0.216400  0.927400  0.297800  1.0
  C  C1422  1  0.283600  0.927400  0.202200  1.0
  C  C1423  1  0.783600  0.072600  0.702200  1.0
  C  C1424  1  0.716400  0.072600  0.797800  1.0
  C  C1425  1  0.197000  0.888600  0.279600  1.0
  C  C1426  1  0.303000  0.888600  0.220400  1.0
  C  C1427  1  0.803000  0.111400  0.720400  1.0
  C  C1428  1  0.697000  0.111400  0.779600  1.0
  C  C1429  1  0.136200  0.884400  0.260800  1.0
  C  C1430  1  0.363800  0.884400  0.239200  1.0
  C  C1431  1  0.863800  0.115600  0.739200  1.0
  C  C1432  1  0.636200  0.115600  0.760800  1.0
  C  C1433  1  0.279000  0.937800  0.317000  1.0
  C  C1434  1  0.221000  0.937800  0.183000  1.0
  C  C1435  1  0.721000  0.062200  0.683000  1.0
  C  C1436  1  0.779000  0.062200  0.817000  1.0
  C  C1437  1  0.007400  0.885500  0.246000  1.0
  C  C1438  1  0.492600  0.885500  0.254000  1.0
  C  C1439  1  0.992600  0.114500  0.754000  1.0
  C  C1440  1  0.507400  0.114500  0.746000  1.0
  C  C1441  1  0.941700  0.876300  0.225700  1.0
  C  C1442  1  0.558300  0.876300  0.274300  1.0
  C  C1443  1  0.058300  0.123700  0.774300  1.0
  C  C1444  1  0.441700  0.123700  0.725700  1.0
  C  C1445  1  0.855100  0.906100  0.185300  1.0
  C  C1446  1  0.644900  0.906100  0.314700  1.0
  C  C1447  1  0.144900  0.093900  0.814700  1.0
  C  C1448  1  0.355100  0.093900  0.685300  1.0
  C  C1449  1  0.817200  0.869200  0.190000  1.0
  C  C1450  1  0.682800  0.869200  0.310000  1.0
  C  C1451  1  0.182800  0.130800  0.810000  1.0
  C  C1452  1  0.317200  0.130800  0.690000  1.0
  C  C1453  1  0.846300  0.835400  0.213400  1.0
  C  C1454  1  0.653700  0.835400  0.286600  1.0
  C  C1455  1  0.153700  0.164600  0.786600  1.0
  C  C1456  1  0.346300  0.164600  0.713400  1.0
  C  C1457  1  0.907400  0.838300  0.232700  1.0
  C  C1458  1  0.592600  0.838300  0.267300  1.0
  C  C1459  1  0.092600  0.161700  0.767300  1.0
  C  C1460  1  0.407400  0.161700  0.732700  1.0
  C  C1461  1  0.444400  0.051400  0.291200  1.0
  C  C1462  1  0.055600  0.051400  0.208800  1.0
  C  C1463  1  0.555600  0.948600  0.708800  1.0
  C  C1464  1  0.944400  0.948600  0.791200  1.0
  C  C1465  1  0.427300  0.048900  0.250800  1.0
  C  C1466  1  0.072700  0.048900  0.249200  1.0
  C  C1467  1  0.572700  0.951100  0.749200  1.0
  C  C1468  1  0.927300  0.951100  0.750800  1.0
  C  C1469  1  0.413900  0.086500  0.228900  1.0
  C  C1470  1  0.086100  0.086500  0.271100  1.0
  C  C1471  1  0.586100  0.913500  0.771100  1.0
  C  C1472  1  0.913900  0.913500  0.728900  1.0
  C  C1473  1  0.417500  0.126600  0.247600  1.0
  C  C1474  1  0.082500  0.126600  0.252400  1.0
  C  C1475  1  0.582500  0.873400  0.752400  1.0
  C  C1476  1  0.917500  0.873400  0.747600  1.0
  C  C1477  1  0.434600  0.129100  0.288000  1.0
  C  C1478  1  0.065400  0.129100  0.212000  1.0
  C  C1479  1  0.565400  0.870900  0.712000  1.0
  C  C1480  1  0.934600  0.870900  0.788000  1.0
  C  C1481  1  0.448000  0.091500  0.309900  1.0
  C  C1482  1  0.052000  0.091500  0.190100  1.0
  C  C1483  1  0.552000  0.908500  0.690100  1.0
  C  C1484  1  0.948000  0.908500  0.809900  1.0
  C  C1485  1  0.401900  0.167800  0.223500  1.0
  C  C1486  1  0.098100  0.167800  0.276500  1.0
  C  C1487  1  0.598100  0.832200  0.776500  1.0
  C  C1488  1  0.901900  0.832200  0.723500  1.0
  C  C1489  1  0.427500  0.998900  0.340200  1.0
  C  C1490  1  0.072500  0.998900  0.159800  1.0
  C  C1491  1  0.572500  0.001100  0.659800  1.0
  C  C1492  1  0.927500  0.001100  0.840200  1.0
  C  C1493  1  0.438600  0.958200  0.360500  1.0
  C  C1494  1  0.061400  0.958200  0.139500  1.0
  C  C1495  1  0.561400  0.041800  0.639500  1.0
  C  C1496  1  0.938600  0.041800  0.860500  1.0
  C  C1497  1  0.490400  0.894300  0.366500  1.0
  C  C1498  1  0.009600  0.894300  0.133500  1.0
  C  C1499  1  0.509600  0.105700  0.633500  1.0
  C  C1500  1  0.990400  0.105700  0.866500  1.0
  C  C1501  1  0.468500  0.881200  0.401000  1.0
  C  C1502  1  0.031500  0.881200  0.099000  1.0
  C  C1503  1  0.531500  0.118800  0.599000  1.0
  C  C1504  1  0.968500  0.118800  0.901000  1.0
  C  C1505  1  0.428200  0.912900  0.415600  1.0
  C  C1506  1  0.071800  0.912900  0.084400  1.0
  C  C1507  1  0.571800  0.087100  0.584400  1.0
  C  C1508  1  0.928200  0.087100  0.915600  1.0
  C  C1509  1  0.414300  0.949700  0.395300  1.0
  C  C1510  1  0.085700  0.949700  0.104700  1.0
  C  C1511  1  0.585700  0.050300  0.604700  1.0
  C  C1512  1  0.914300  0.050300  0.895300  1.0
  C  C1513  1  0.487500  0.844400  0.421600  1.0
  C  C1514  1  0.012500  0.844400  0.078400  1.0
  C  C1515  1  0.512500  0.155600  0.578400  1.0
  C  C1516  1  0.987500  0.155600  0.921600  1.0
  C  C1517  1  0.481600  0.803700  0.400800  1.0
  C  C1518  1  0.018400  0.803700  0.099200  1.0
  C  C1519  1  0.518400  0.196300  0.599200  1.0
  C  C1520  1  0.981600  0.196300  0.900800  1.0
  C  C1521  1  0.518200  0.767200  0.457900  1.0
  C  C1522  1  0.981800  0.767200  0.042100  1.0
  C  C1523  1  0.481800  0.232800  0.542100  1.0
  C  C1524  1  0.018200  0.232800  0.957900  1.0
  C  C1525  1  0.522100  0.805200  0.480400  1.0
  C  C1526  1  0.977900  0.805200  0.019600  1.0
  C  C1527  1  0.477900  0.194800  0.519600  1.0
  C  C1528  1  0.022100  0.194800  0.980400  1.0
  C  C1529  1  0.505700  0.841300  0.461800  1.0
  C  C1530  1  0.994300  0.841300  0.038200  1.0
  C  C1531  1  0.494300  0.158700  0.538200  1.0
  C  C1532  1  0.005700  0.158700  0.961800  1.0
  C  C1533  1  0.535400  0.724500  0.475900  1.0
  C  C1534  1  0.964600  0.724500  0.024100  1.0
  C  C1535  1  0.464600  0.275500  0.524100  1.0
  C  C1536  1  0.035400  0.275500  0.975900  1.0
  C  C1537  1  0.549200  0.646000  0.470100  1.0
  C  C1538  1  0.950800  0.646000  0.029900  1.0
  C  C1539  1  0.450800  0.354000  0.529900  1.0
  C  C1540  1  0.049200  0.354000  0.970100  1.0
  C  C1541  1  0.528400  0.630600  0.504700  1.0
  C  C1542  1  0.971600  0.630600  0.995300  1.0
  C  C1543  1  0.471600  0.369400  0.495300  1.0
  C  C1544  1  0.028400  0.369400  0.004700  1.0
  C  C1545  1  0.542000  0.588900  0.518500  1.0
  C  C1546  1  0.958000  0.588900  0.981500  1.0
  C  C1547  1  0.458000  0.411100  0.481500  1.0
  C  C1548  1  0.042000  0.411100  0.018500  1.0
  C  C1549  1  0.571500  0.560000  0.493500  1.0
  C  C1550  1  0.928500  0.560000  0.006500  1.0
  C  C1551  1  0.428500  0.440000  0.506500  1.0
  C  C1552  1  0.071500  0.440000  0.993500  1.0
  C  C1553  1  0.592700  0.573900  0.460200  1.0
  C  C1554  1  0.907300  0.573900  0.039800  1.0
  C  C1555  1  0.407300  0.426100  0.539800  1.0
  C  C1556  1  0.092700  0.426100  0.960200  1.0
  C  C1557  1  0.579900  0.616400  0.448600  1.0
  C  C1558  1  0.920100  0.616400  0.051400  1.0
  C  C1559  1  0.420100  0.383600  0.551400  1.0
  C  C1560  1  0.079900  0.383600  0.948600  1.0
  C  C1561  1  0.586200  0.511600  0.511000  1.0
  C  C1562  1  0.913800  0.511600  0.989000  1.0
  C  C1563  1  0.413800  0.488400  0.489000  1.0
  C  C1564  1  0.086200  0.488400  0.011000  1.0
  C  C1565  1  0.368400  0.726400  0.332000  1.0
  C  C1566  1  0.131600  0.726400  0.168000  1.0
  C  C1567  1  0.631600  0.273600  0.668000  1.0
  C  C1568  1  0.868400  0.273600  0.832000  1.0
  C  C1569  1  0.321700  0.698200  0.340600  1.0
  C  C1570  1  0.178300  0.698200  0.159400  1.0
  C  C1571  1  0.678300  0.301800  0.659400  1.0
  C  C1572  1  0.821700  0.301800  0.840600  1.0
  C  C1573  1  0.259300  0.708300  0.329000  1.0
  C  C1574  1  0.240700  0.708300  0.171000  1.0
  C  C1575  1  0.740700  0.291700  0.671000  1.0
  C  C1576  1  0.759300  0.291700  0.829000  1.0
  C  C1577  1  0.243500  0.746600  0.308900  1.0
  C  C1578  1  0.256500  0.746600  0.191100  1.0
  C  C1579  1  0.756500  0.253400  0.691100  1.0
  C  C1580  1  0.743500  0.253400  0.808900  1.0
  C  C1581  1  0.290100  0.774900  0.300300  1.0
  C  C1582  1  0.209900  0.774900  0.199700  1.0
  C  C1583  1  0.709900  0.225100  0.699700  1.0
  C  C1584  1  0.790100  0.225100  0.800300  1.0
  C  C1585  1  0.352500  0.764700  0.311900  1.0
  C  C1586  1  0.147500  0.764700  0.188100  1.0
  C  C1587  1  0.647500  0.235300  0.688100  1.0
  C  C1588  1  0.852500  0.235300  0.811900  1.0
  C  C1589  1  0.174800  0.757600  0.295400  1.0
  C  C1590  1  0.325200  0.757600  0.204600  1.0
  C  C1591  1  0.825200  0.242400  0.704600  1.0
  C  C1592  1  0.674800  0.242400  0.795400  1.0
  C  C1593  1  0.987300  0.670700  0.486800  1.0
  C  C1594  1  0.512700  0.670700  0.013200  1.0
  C  C1595  1  0.012700  0.329300  0.513200  1.0
  C  C1596  1  0.487300  0.329300  0.986800  1.0
  C  C1597  1  0.030200  0.643500  0.472100  1.0
  C  C1598  1  0.469800  0.643500  0.027900  1.0
  C  C1599  1  0.969800  0.356500  0.527900  1.0
  C  C1600  1  0.530200  0.356500  0.972100  1.0
  C  C1601  1  0.088100  0.635900  0.493800  1.0
  C  C1602  1  0.411900  0.635900  0.006200  1.0
  C  C1603  1  0.911900  0.364100  0.506200  1.0
  C  C1604  1  0.588100  0.364100  0.993800  1.0
  C  C1605  1  0.103200  0.655500  0.530300  1.0
  C  C1606  1  0.396800  0.655500  0.969700  1.0
  C  C1607  1  0.896800  0.344500  0.469700  1.0
  C  C1608  1  0.603200  0.344500  0.030300  1.0
  C  C1609  1  0.060400  0.682700  0.545100  1.0
  C  C1610  1  0.439600  0.682700  0.954900  1.0
  C  C1611  1  0.939600  0.317300  0.454900  1.0
  C  C1612  1  0.560400  0.317300  0.045100  1.0
  C  C1613  1  0.002500  0.690300  0.523300  1.0
  C  C1614  1  0.497500  0.690300  0.976700  1.0
  C  C1615  1  0.997500  0.309700  0.476700  1.0
  C  C1616  1  0.502500  0.309700  0.023300  1.0
  C  C1617  1  0.167500  0.647700  0.553900  1.0
  C  C1618  1  0.332500  0.647700  0.946100  1.0
  C  C1619  1  0.832500  0.352300  0.446100  1.0
  C  C1620  1  0.667500  0.352300  0.053900  1.0
  C  C1621  1  0.921100  0.698900  0.428400  1.0
  C  C1622  1  0.578900  0.698900  0.071600  1.0
  C  C1623  1  0.078900  0.301100  0.571600  1.0
  C  C1624  1  0.421100  0.301100  0.928400  1.0
  C  C1625  1  0.853800  0.703600  0.405900  1.0
  C  C1626  1  0.646200  0.703600  0.094100  1.0
  C  C1627  1  0.146200  0.296400  0.594100  1.0
  C  C1628  1  0.353800  0.296400  0.905900  1.0
  C  C1629  1  0.753100  0.687700  0.410900  1.0
  C  C1630  1  0.746900  0.687700  0.089100  1.0
  C  C1631  1  0.246900  0.312300  0.589100  1.0
  C  C1632  1  0.253100  0.312300  0.910900  1.0
  C  C1633  1  0.732200  0.707400  0.372900  1.0
  C  C1634  1  0.767800  0.707400  0.127100  1.0
  C  C1635  1  0.267800  0.292600  0.627100  1.0
  C  C1636  1  0.232200  0.292600  0.872900  1.0
  C  C1637  1  0.781600  0.724100  0.354000  1.0
  C  C1638  1  0.718400  0.724100  0.146000  1.0
  C  C1639  1  0.218400  0.275900  0.646000  1.0
  C  C1640  1  0.281600  0.275900  0.854000  1.0
  C  C1641  1  0.840700  0.722900  0.370700  1.0
  C  C1642  1  0.659300  0.722900  0.129300  1.0
  C  C1643  1  0.159300  0.277100  0.629300  1.0
  C  C1644  1  0.340700  0.277100  0.870700  1.0
  C  C1645  1  0.592600  0.467500  0.093500  1.0
  C  C1646  1  0.907400  0.467500  0.406500  1.0
  C  C1647  1  0.407400  0.532500  0.906500  1.0
  C  C1648  1  0.092600  0.532500  0.593500  1.0
  C  C1649  1  0.522900  0.532300  0.345700  1.0
  C  C1650  1  0.977100  0.532300  0.154300  1.0
  C  C1651  1  0.477100  0.467700  0.654300  1.0
  C  C1652  1  0.022900  0.467700  0.845700  1.0
  C  C1653  1  0.619000  0.531000  0.910900  1.0
  C  C1654  1  0.881000  0.531000  0.589100  1.0
  C  C1655  1  0.381000  0.469000  0.089100  1.0
  C  C1656  1  0.119000  0.469000  0.410900  1.0
  C  C1657  1  0.472200  0.718800  0.313400  1.0
  C  C1658  1  0.027800  0.718800  0.186600  1.0
  C  C1659  1  0.527800  0.281200  0.686600  1.0
  C  C1660  1  0.972200  0.281200  0.813400  1.0
  C  C1661  1  0.541200  0.714500  0.326900  1.0
  C  C1662  1  0.958800  0.714500  0.173100  1.0
  C  C1663  1  0.458800  0.285500  0.673100  1.0
  C  C1664  1  0.041200  0.285500  0.826900  1.0
  C  C1665  1  0.617500  0.704900  0.379500  1.0
  C  C1666  1  0.882500  0.704900  0.120500  1.0
  C  C1667  1  0.382500  0.295100  0.620500  1.0
  C  C1668  1  0.117500  0.295100  0.879500  1.0
  C  C1669  1  0.667000  0.708800  0.355600  1.0
  C  C1670  1  0.833000  0.708800  0.144400  1.0
  C  C1671  1  0.333000  0.291200  0.644400  1.0
  C  C1672  1  0.167000  0.291200  0.855600  1.0
  C  C1673  1  0.648100  0.714300  0.315600  1.0
  C  C1674  1  0.851900  0.714300  0.184400  1.0
  C  C1675  1  0.351900  0.285700  0.684400  1.0
  C  C1676  1  0.148100  0.285700  0.815600  1.0
  C  C1677  1  0.586900  0.717700  0.300800  1.0
  C  C1678  1  0.913100  0.717700  0.199200  1.0
  C  C1679  1  0.413100  0.282300  0.699200  1.0
  C  C1680  1  0.086900  0.282300  0.800800  1.0
  N  N1681  1  0.493200  0.908200  0.160000  1
  N  N1682  1  0.006800  0.908200  0.340000  1
  N  N1683  1  0.506800  0.091800  0.840000  1
  N  N1684  1  0.993200  0.091800  0.660000  1
  N  N1685  1  0.527800  0.627400  0.123800  1
  N  N1686  1  0.972200  0.627400  0.376200  1
  N  N1687  1  0.472200  0.372600  0.876200  1
  N  N1688  1  0.027800  0.372600  0.623800  1
  N  N1689  1  0.502700  0.461000  0.213400  1.0
  N  N1690  1  0.997300  0.461000  0.286600  1.0
  N  N1691  1  0.497300  0.539000  0.786600  1.0
  N  N1692  1  0.002700  0.539000  0.713400  1.0
  N  N1693  1  0.566600  0.504800  0.163100  1.0
  N  N1694  1  0.933400  0.504800  0.336900  1.0
  N  N1695  1  0.433400  0.495200  0.836900  1.0
  N  N1696  1  0.066600  0.495200  0.663100  1.0
  N  N1697  1  0.675300  0.595900  0.042400  1.0
  N  N1698  1  0.824700  0.595900  0.457600  1.0
  N  N1699  1  0.324700  0.404100  0.957600  1.0
  N  N1700  1  0.175300  0.404100  0.542400  1.0
  N  N1701  1  0.748400  0.643400  0.000400  1.0
  N  N1702  1  0.751600  0.643400  0.499600  1.0
  N  N1703  1  0.251600  0.356600  0.999600  1.0
  N  N1704  1  0.248400  0.356600  0.500400  1.0
  N  N1705  1  0.632300  0.468900  0.241800  1.0
  N  N1706  1  0.867700  0.468900  0.258200  1.0
  N  N1707  1  0.367700  0.531100  0.758200  1.0
  N  N1708  1  0.132300  0.531100  0.741800  1.0
  N  N1709  1  0.558400  0.515400  0.283700  1.0
  N  N1710  1  0.941600  0.515400  0.216300  1.0
  N  N1711  1  0.441600  0.484600  0.716300  1.0
  N  N1712  1  0.058400  0.484600  0.783700  1.0
  N  N1713  1  0.461700  0.634400  0.386100  1.0
  N  N1714  1  0.038300  0.634400  0.113900  1.0
  N  N1715  1  0.538300  0.365600  0.613900  1.0
  N  N1716  1  0.961700  0.365600  0.886100  1.0
  N  N1717  1  0.403500  0.691200  0.429000  1.0
  N  N1718  1  0.096500  0.691200  0.071000  1.0
  N  N1719  1  0.596500  0.308800  0.571000  1.0
  N  N1720  1  0.903500  0.308800  0.929000  1.0
  N  N1721  1  0.496200  0.565900  0.210000  1.0
  N  N1722  1  0.003800  0.565900  0.290000  1.0
  N  N1723  1  0.503800  0.434100  0.790000  1.0
  N  N1724  1  0.996200  0.434100  0.710000  1.0
  N  N1725  1  0.620800  0.569800  0.230100  1.0
  N  N1726  1  0.879200  0.569800  0.269900  1.0
  N  N1727  1  0.379200  0.430200  0.769900  1.0
  N  N1728  1  0.120800  0.430200  0.730100  1.0
  N  N1729  1  0.622100  0.636500  0.961400  1.0
  N  N1730  1  0.877900  0.636500  0.538600  1.0
  N  N1731  1  0.377900  0.363500  0.038600  1.0
  N  N1732  1  0.122100  0.363500  0.461400  1.0
  N  N1733  1  0.656400  0.717300  0.985000  1.0
  N  N1734  1  0.843600  0.717300  0.515000  1.0
  N  N1735  1  0.343600  0.282700  0.015000  1.0
  N  N1736  1  0.156400  0.282700  0.485000  1.0
  N  N1737  1  0.686900  0.892200  0.032800  1.0
  N  N1738  1  0.813100  0.892200  0.467200  1.0
  N  N1739  1  0.313100  0.107800  0.967200  1.0
  N  N1740  1  0.186900  0.107800  0.532800  1.0
  N  N1741  1  0.717900  0.968700  0.066300  1.0
  N  N1742  1  0.782100  0.968700  0.433700  1.0
  N  N1743  1  0.282100  0.031300  0.933700  1.0
  N  N1744  1  0.217900  0.031300  0.566300  1.0
  N  N1745  1  0.927000  0.674200  0.460200  1.0
  N  N1746  1  0.573000  0.674200  0.039800  1.0
  N  N1747  1  0.073000  0.325800  0.539800  1.0
  N  N1748  1  0.427000  0.325800  0.960200  1.0
  N  N1749  1  0.810200  0.686400  0.427500  1.0
  N  N1750  1  0.689800  0.686400  0.072500  1.0
  N  N1751  1  0.189800  0.313600  0.572500  1.0
  N  N1752  1  0.310200  0.313600  0.927500  1.0
  N  N1753  1  0.593400  0.964600  0.022000  1.0
  N  N1754  1  0.906600  0.964600  0.478000  1.0
  N  N1755  1  0.406600  0.035400  0.978000  1.0
  N  N1756  1  0.093400  0.035400  0.522000  1.0
  N  N1757  1  0.595700  0.975300  0.100500  1.0
  N  N1758  1  0.904300  0.975300  0.399500  1.0
  N  N1759  1  0.404300  0.024700  0.899500  1.0
  N  N1760  1  0.095700  0.024700  0.600500  1.0
  N  N1761  1  0.567100  0.998000  0.263800  1.0
  N  N1762  1  0.932900  0.998000  0.236200  1.0
  N  N1763  1  0.432900  0.002000  0.736200  1.0
  N  N1764  1  0.067100  0.002000  0.763800  1.0
  N  N1765  1  0.583200  0.998400  0.341900  1.0
  N  N1766  1  0.916800  0.998400  0.158100  1.0
  N  N1767  1  0.416800  0.001600  0.658100  1.0
  N  N1768  1  0.083200  0.001600  0.841900  1.0
  N  N1769  1  0.563500  0.880700  0.074200  1.0
  N  N1770  1  0.936500  0.880700  0.425800  1.0
  N  N1771  1  0.436500  0.119300  0.925800  1.0
  N  N1772  1  0.063500  0.119300  0.574200  1.0
  N  N1773  1  0.675300  0.891500  0.119400  1.0
  N  N1774  1  0.824700  0.891500  0.380600  1.0
  N  N1775  1  0.324700  0.108500  0.880600  1.0
  N  N1776  1  0.175300  0.108500  0.619400  1.0
  N  N1777  1  0.453200  0.007300  0.309600  1.0
  N  N1778  1  0.046800  0.007300  0.190400  1.0
  N  N1779  1  0.546800  0.992700  0.690400  1.0
  N  N1780  1  0.953200  0.992700  0.809600  1.0
  N  N1781  1  0.479700  0.931600  0.346100  1.0
  N  N1782  1  0.020300  0.931600  0.153900  1.0
  N  N1783  1  0.520300  0.068400  0.653900  1.0
  N  N1784  1  0.979700  0.068400  0.846100  1.0
  N  N1785  1  0.498900  0.765200  0.418300  1.0
  N  N1786  1  0.001100  0.765200  0.081700  1.0
  N  N1787  1  0.501100  0.234800  0.581700  1.0
  N  N1788  1  0.998900  0.234800  0.918300  1.0
  N  N1789  1  0.533800  0.688200  0.453900  1.0
  N  N1790  1  0.966200  0.688200  0.046100  1.0
  N  N1791  1  0.466200  0.311800  0.546100  1.0
  N  N1792  1  0.033800  0.311800  0.953900  1.0
  N  N1793  1  0.035200  0.922100  0.241000  1.0
  N  N1794  1  0.464800  0.922100  0.259000  1.0
  N  N1795  1  0.964800  0.077900  0.759000  1.0
  N  N1796  1  0.535200  0.077900  0.741000  1.0
  N  N1797  1  0.913800  0.908100  0.203200  1.0
  N  N1798  1  0.586200  0.908100  0.296800  1.0
  N  N1799  1  0.086200  0.091900  0.796800  1.0
  N  N1800  1  0.413800  0.091900  0.703200  1.0
  N  N1801  1  0.437000  0.718500  0.342100  1.0
  N  N1802  1  0.063000  0.718500  0.157900  1.0
  N  N1803  1  0.563000  0.281500  0.657900  1.0
  N  N1804  1  0.937000  0.281500  0.842100  1.0
  N  N1805  1  0.556800  0.706500  0.365100  1.0
  N  N1806  1  0.943200  0.706500  0.134900  1.0
  N  N1807  1  0.443200  0.293500  0.634900  1.0
  N  N1808  1  0.056800  0.293500  0.865100  1.0
  Cl  Cl1809  1  0.077200  0.114200  0.074400  1
  Cl  Cl1810  1  0.422800  0.114200  0.425600  1
  Cl  Cl1811  1  0.922800  0.885800  0.925600  1
  Cl  Cl1812  1  0.577200  0.885800  0.574400  1
  Cl  Cl1813  1  0.196400  0.461500  0.106600  1
  Cl  Cl1814  1  0.303600  0.461500  0.393400  1
  Cl  Cl1815  1  0.803600  0.538500  0.893400  1
  Cl  Cl1816  1  0.696400  0.538500  0.606600  1
  Cl  Cl1817  1  0.856000  0.410400  0.045140  1
  Cl  Cl1818  1  0.644000  0.410400  0.454860  1
  Cl  Cl1819  1  0.144000  0.589600  0.954860  1
  Cl  Cl1820  1  0.356000  0.589600  0.545140  1
  Cl  Cl1821  1  0.803300  0.584890  0.148830  1
  Cl  Cl1822  1  0.696700  0.584890  0.351170  1
  Cl  Cl1823  1  0.196700  0.415110  0.851170  1
  Cl  Cl1824  1  0.303300  0.415110  0.648830  1
  Cl  Cl1825  1  0.501900  0.752540  0.191810  1
  Cl  Cl1826  1  0.998100  0.752540  0.308190  1
  Cl  Cl1827  1  0.498100  0.247460  0.808190  1
  Cl  Cl1828  1  0.001900  0.247460  0.691810  1
  Cl  Cl1829  1  0.828100  0.816380  0.085950  1
  Cl  Cl1830  1  0.671900  0.816380  0.414050  1
  Cl  Cl1831  1  0.171900  0.183620  0.914050  1
  Cl  Cl1832  1  0.328100  0.183620  0.585950  1
  Cl  Cl1833  1  0.750000  0.960600  0.250000  1
  Cl  Cl1834  1  0.250000  0.039400  0.750000  1
  Cl  Cl1835  1  0.246600  0.928700  0.054800  1
  Cl  Cl1836  1  0.253400  0.928700  0.445200  1
  Cl  Cl1837  1  0.753400  0.071300  0.945200  1
  Cl  Cl1838  1  0.746600  0.071300  0.554800  1
  Cl  Cl1839  1  0.750000  0.752710  0.250000  1
  Cl  Cl1840  1  0.250000  0.247290  0.750000  1
  O  O1841  1  0.130200  0.139700  0.082400  1
  O  O1842  1  0.369800  0.139700  0.417600  1
  O  O1843  1  0.869800  0.860300  0.917600  1
  O  O1844  1  0.630200  0.860300  0.582400  1
  O  O1845  1  0.025800  0.135300  0.081400  1
  O  O1846  1  0.474200  0.135300  0.418600  1
  O  O1847  1  0.974200  0.864700  0.918600  1
  O  O1848  1  0.525800  0.864700  0.581400  1
  O  O1849  1  0.085500  0.075600  0.094200  1
  O  O1850  1  0.414500  0.075600  0.405800  1
  O  O1851  1  0.914500  0.924400  0.905800  1
  O  O1852  1  0.585500  0.924400  0.594200  1
  O  O1853  1  0.072600  0.104500  0.033400  1
  O  O1854  1  0.427400  0.104500  0.466600  1
  O  O1855  1  0.927400  0.895500  0.966600  1
  O  O1856  1  0.572600  0.895500  0.533400  1
  O  O1857  1  0.239800  0.436400  0.132900  1
  O  O1858  1  0.260200  0.436400  0.367100  1
  O  O1859  1  0.760200  0.563600  0.867100  1
  O  O1860  1  0.739800  0.563600  0.632900  1
  O  O1861  1  0.126600  0.448800  0.103500  1
  O  O1862  1  0.373400  0.448800  0.396500  1
  O  O1863  1  0.873400  0.551200  0.896500  1
  O  O1864  1  0.626600  0.551200  0.603500  1
  O  O1865  1  0.201300  0.506300  0.113900  1
  O  O1866  1  0.298700  0.506300  0.386100  1
  O  O1867  1  0.798700  0.493700  0.886100  1
  O  O1868  1  0.701300  0.493700  0.613900  1
  O  O1869  1  0.215500  0.457400  0.065600  1
  O  O1870  1  0.284500  0.457400  0.434400  1
  O  O1871  1  0.784500  0.542600  0.934400  1
  O  O1872  1  0.715500  0.542600  0.565600  1
  O  O1873  1  0.841100  0.364800  0.053000  1
  O  O1874  1  0.658900  0.364800  0.447000  1
  O  O1875  1  0.158900  0.635200  0.947000  1
  O  O1876  1  0.341100  0.635200  0.553000  1
  O  O1877  1  0.808100  0.436200  0.053800  1
  O  O1878  1  0.691900  0.436200  0.446200  1
  O  O1879  1  0.191900  0.563800  0.946200  1
  O  O1880  1  0.308100  0.563800  0.553800  1
  O  O1881  1  0.861300  0.408400  0.003500  1
  O  O1882  1  0.638700  0.408400  0.496500  1
  O  O1883  1  0.138700  0.591600  0.996500  1
  O  O1884  1  0.361300  0.591600  0.503500  1
  O  O1885  1  0.911200  0.422400  0.068700  1
  O  O1886  1  0.588800  0.422400  0.431300  1
  O  O1887  1  0.088800  0.577600  0.931300  1
  O  O1888  1  0.411200  0.577600  0.568700  1
  O  O1889  1  0.745200  0.605500  0.152200  1
  O  O1890  1  0.754800  0.605500  0.347800  1
  O  O1891  1  0.254800  0.394500  0.847800  1
  O  O1892  1  0.245200  0.394500  0.652200  1
  O  O1893  1  0.798100  0.542400  0.161300  1
  O  O1894  1  0.701900  0.542400  0.338700  1
  O  O1895  1  0.201900  0.457600  0.838700  1
  O  O1896  1  0.298100  0.457600  0.661300  1
  O  O1897  1  0.814600  0.588900  0.110400  1
  O  O1898  1  0.685400  0.588900  0.389600  1
  O  O1899  1  0.185400  0.411100  0.889600  1
  O  O1900  1  0.314600  0.411100  0.610400  1
  O  O1901  1  0.854000  0.606000  0.173500  1
  O  O1902  1  0.646000  0.606000  0.326500  1
  O  O1903  1  0.146000  0.394000  0.826500  1
  O  O1904  1  0.354000  0.394000  0.673500  1
  O  O1905  1  0.480200  0.707700  0.207800  1
  O  O1906  1  0.019800  0.707700  0.292200  1
  O  O1907  1  0.519800  0.292300  0.792200  1
  O  O1908  1  0.980200  0.292300  0.707800  1
  O  O1909  1  0.474400  0.782300  0.218300  1
  O  O1910  1  0.025600  0.782300  0.281700  1
  O  O1911  1  0.525600  0.217700  0.781700  1
  O  O1912  1  0.974400  0.217700  0.718300  1
  O  O1913  1  0.486100  0.755500  0.153700  1
  O  O1914  1  0.013900  0.755500  0.346300  1
  O  O1915  1  0.513900  0.244500  0.846300  1
  O  O1916  1  0.986100  0.244500  0.653700  1
  O  O1917  1  0.572300  0.752600  0.204500  1
  O  O1918  1  0.927700  0.752600  0.295500  1
  O  O1919  1  0.427700  0.247400  0.795500  1
  O  O1920  1  0.072300  0.247400  0.704500  1
  O  O1921  1  0.762400  0.807200  0.091400  1
  O  O1922  1  0.737600  0.807200  0.408600  1
  O  O1923  1  0.237600  0.192800  0.908600  1
  O  O1924  1  0.262400  0.192800  0.591400  1
  O  O1925  1  0.869500  0.809100  0.120600  1
  O  O1926  1  0.630500  0.809100  0.379400  1
  O  O1927  1  0.130500  0.190900  0.879400  1
  O  O1928  1  0.369500  0.190900  0.620600  1
  O  O1929  1  0.832900  0.859800  0.074700  1
  O  O1930  1  0.667100  0.859800  0.425300  1
  O  O1931  1  0.167100  0.140200  0.925300  1
  O  O1932  1  0.332900  0.140200  0.574700  1
  O  O1933  1  0.845100  0.787700  0.056700  1
  O  O1934  1  0.654900  0.787700  0.443300  1
  O  O1935  1  0.154900  0.212300  0.943300  1
  O  O1936  1  0.345100  0.212300  0.556700  1
  O  O1937  1  0.257600  0.931100  0.093300  1
  O  O1938  1  0.242400  0.931100  0.406700  1
  O  O1939  1  0.742400  0.068900  0.906700  1
  O  O1940  1  0.757600  0.068900  0.593300  1
  O  O1941  1  0.237900  0.970800  0.040400  1
  O  O1942  1  0.262100  0.970800  0.459600  1
  O  O1943  1  0.762100  0.029200  0.959600  1
  O  O1944  1  0.737900  0.029200  0.540400  1
  O  O1945  1  0.295400  0.912000  0.039200  1
  O  O1946  1  0.204600  0.912000  0.460800  1
  O  O1947  1  0.704600  0.088000  0.960800  1
  O  O1948  1  0.795400  0.088000  0.539200  1
  O  O1949  1  0.195200  0.911800  0.038600  1
  O  O1950  1  0.304800  0.911800  0.461400  1
  O  O1951  1  0.804800  0.088200  0.961400  1
  O  O1952  1  0.695200  0.088200  0.538600  1
  O  O1953  1  0.696100  0.935900  0.234300  1.0
  O  O1954  1  0.803900  0.935900  0.265700  1.0
  O  O1955  1  0.303900  0.064100  0.765700  1.0
  O  O1956  1  0.196100  0.064100  0.734300  1.0
  O  O1957  1  0.766800  0.986000  0.218400  1.0
  O  O1958  1  0.733200  0.986000  0.281600  1.0
  O  O1959  1  0.233200  0.014000  0.781600  1.0
  O  O1960  1  0.266800  0.014000  0.718400  1.0
