
#######################################################################
#
#                 Cambridge Crystallographic Data Centre
#                                CCDC 
#
#######################################################################
#
# If this CIF has been generated from an entry in the Cambridge 
# Structural Database, then it will include bibliographic, chemical, 
# crystal, experimental, refinement or atomic coordinate data resulting 
# from the CCDC's data processing and validation procedures.
#
#######################################################################

data_XEXHEP
_chemical_formula_moiety         
'C390 H330 N60 Ni10 20+,4(C2 H3 N1),19(Cl1 O4 1-),Cl1 1-,8(C4 H10 O1)'
_chemical_name_systematic        
"pentadecakis(\m~2~-N,N'-(3,3'-Bipyridine-6,6'-diyldimethylylidene)bis(4-methylaniline))-deca-nickel chloride nonadecaperchlorate acetonitrile diethyl ether solvate"
_symmetry_cell_setting           monoclinic
_symmetry_space_group_name_H-M   'P 2/n'
_symmetry_Int_Tables_number      13
_space_group_name_Hall           '-P 2yac'
loop_
_symmetry_equiv_pos_site_id
_symmetry_equiv_pos_as_xyz
1 x,y,z
2 1/2-x,y,1/2-z
3 -x,-y,-z
4 1/2+x,-y,1/2+z
_cell_length_a                   21.568(8)
_cell_length_b                   30.857(11)
_cell_length_c                   34.260(12)
_cell_angle_alpha                90
_cell_angle_beta                 97.353(6)
_cell_angle_gamma                90
_cell_volume                     22613.3
_exptl_crystal_colour            orange
_exptl_crystal_description       Plate
_cell_formula_units_Z            2
loop_
_atom_site_label
_atom_site_type_symbol
_atom_site_fract_x
_atom_site_fract_y
_atom_site_fract_z
C1 C 0.4725(6) 0.4394(5) 0.2420(3)
C2 C 0.4849(6) 0.3957(4) 0.2487(4)
H1 H 0.5111 0.3805 0.2331
C3 C 0.4588(6) 0.3740(3) 0.2783(4)
H2 H 0.4673 0.3441 0.2829
C4 C 0.4204(6) 0.3961(4) 0.3012(3)
C5 C 0.4080(6) 0.4399(4) 0.2945(4)
H3 H 0.3818 0.4550 0.3101
C6 C 0.4341(6) 0.4615(3) 0.2649(4)
H4 H 0.4256 0.4915 0.2603
C7 C 0.3931(9) 0.3754(6) 0.3349(5)
H5 H 0.4040 0.3446 0.3362
H6 H 0.3476 0.3786 0.3309
H7 H 0.4101 0.3896 0.3596
C8 C 0.5093(6) 0.4413(5) 0.1802(5)
H8 H 0.4920 0.4134 0.1739
C9 C 0.5453(6) 0.4653(5) 0.1530(5)
C10 C 0.6008(6) 0.5249(4) 0.1383(4)
H9 H 0.6158 0.5533 0.1450
C11 C 0.6153(6) 0.5075(5) 0.1040(4)
C12 C 0.5568(7) 0.4450(5) 0.1176(5)
H10 H 0.5406 0.4170 0.1106
C13 C 0.6524(6) 0.5325(5) 0.0764(3)
C14 C 0.6434(6) 0.5752(4) 0.0667(3)
H11 H 0.6122 0.5907 0.0782
C15 C 0.7240(7) 0.5751(5) 0.0280(4)
C16 C 0.7388(6) 0.5322(5) 0.0381(4)
H12 H 0.7738 0.5188 0.0289
C17 C 0.7022(7) 0.5087(4) 0.0619(3)
H13 H 0.7098 0.4790 0.0681
C18 C 0.7607(6) 0.6026(5) 0.0047(4)
H14 H 0.7939 0.5903 -0.0073
C19 C 0.7840(4) 0.6686(4) -0.0241(3)
C20 C 0.7938(5) 0.6551(3) -0.0615(4)
H15 H 0.7815 0.6268 -0.0703
C21 C 0.8215(5) 0.6829(5) -0.0860(3)
H16 H 0.8282 0.6736 -0.1116
C22 C 0.8394(5) 0.7243(4) -0.0732(4)
C23 C 0.8296(5) 0.7379(3) -0.0358(4)
H17 H 0.8419 0.7662 -0.0270
C24 C 0.8019(5) 0.7100(4) -0.0112(3)
H18 H 0.7952 0.7193 0.0144
C25 C 0.8698(10) 0.7566(6) -0.1011(6)
H19 H 0.8732 0.7423 -0.1263
H20 H 0.9114 0.7651 -0.0887
H21 H 0.8434 0.7824 -0.1057
C26 C 0.6676(4) 0.4439(3) 0.2161(2)
C27 C 0.7030(4) 0.4657(2) 0.1912(3)
H22 H 0.7056 0.4964 0.1920
C28 C 0.7347(4) 0.4425(3) 0.1651(2)
H23 H 0.7590 0.4574 0.1481
C29 C 0.7310(4) 0.3975(3) 0.1639(2)
C30 C 0.6955(4) 0.3757(2) 0.1888(3)
H24 H 0.6930 0.3450 0.1881
C31 C 0.6638(4) 0.3989(3) 0.2149(2)
H25 H 0.6396 0.3840 0.2319
C32 C 0.7692(6) 0.3706(4) 0.1367(4)
H26 H 0.7622 0.3397 0.1406
H27 H 0.8138 0.3772 0.1431
H28 H 0.7556 0.3782 0.1091
C33 C 0.6275(6) 0.4556(4) 0.2763(4)
H29 H 0.6475 0.4295 0.2856
C34 C 0.5907(6) 0.4807(5) 0.3020(5)
C35 C 0.5285(5) 0.5403(4) 0.3054(4)
H30 H 0.5090 0.5655 0.2936
C36 C 0.5521(6) 0.4948(4) 0.3634(3)
H31 H 0.5474 0.4873 0.3897
C37 C 0.5870(6) 0.4697(4) 0.3418(4)
H32 H 0.6087 0.4452 0.3534
C38 C 0.4861(5) 0.5614(4) 0.3671(3)
C39 C 0.4928(5) 0.6054(4) 0.3651(3)
H33 H 0.5207 0.6166 0.3483
C40 C 0.4228(5) 0.6181(5) 0.4107(3)
C41 C 0.4149(6) 0.5742(6) 0.4137(4)
H34 H 0.3872 0.5634 0.4309
C42 C 0.4459(7) 0.5455(4) 0.3924(4)
H35 H 0.4400 0.5151 0.3950
C43 C 0.3914(6) 0.6510(5) 0.4328(4)
H36 H 0.3622 0.6422 0.4499
C44 C 0.3765(7) 0.7231(3) 0.4539(3)
C45 C 0.3590(7) 0.7632(4) 0.4377(3)
H37 H 0.3560 0.7674 0.4100
C46 C 0.3459(6) 0.7973(3) 0.4619(4)
H38 H 0.3339 0.8247 0.4509
C47 C 0.3502(6) 0.7911(3) 0.5024(3)
C48 C 0.3677(7) 0.7510(4) 0.5186(2)
H39 H 0.3707 0.7468 0.5463
C49 C 0.3809(6) 0.7170(3) 0.4944(4)
H40 H 0.3928 0.6895 0.5054
C50 C 0.3474(9) 0.8302(4) 0.5296(4)
H41 H 0.3329 0.8557 0.5139
H42 H 0.3891 0.8359 0.5436
H43 H 0.3183 0.8241 0.5486
C51 C 0.4291(5) 0.5700(7) 0.2082(6)
C52 C 0.3966(9) 0.5397(5) 0.1835(5)
H44 H 0.4186 0.5172 0.1723
C53 C 0.3319(8) 0.5424(5) 0.1751(5)
H45 H 0.3098 0.5217 0.1581
C54 C 0.2997(5) 0.5754(7) 0.1914(6)
C55 C 0.3322(9) 0.6057(5) 0.2162(5)
H46 H 0.3102 0.6282 0.2274
C56 C 0.3969(8) 0.6030(6) 0.2246(5)
H47 H 0.4191 0.6237 0.2415
C57 C 0.2228(9) 0.5741(8) 0.1806(8)
H48 H 0.2110 0.5499 0.1627
H49 H 0.2083 0.6013 0.1679
H50 H 0.2036 0.5703 0.2048
C58 C 0.5189(8) 0.6017(7) 0.2089(4)
H51 H 0.4937 0.6266 0.2025
C59 C 0.5863(9) 0.6049(5) 0.2177(4)
C60 C 0.6826(7) 0.5719(4) 0.2423(3)
H52 H 0.7035 0.5458 0.2509
C61 C 0.7174(5) 0.6094(4) 0.2430(3)
C62 C 0.6815(7) 0.6473(4) 0.2288(3)
H53 H 0.7016 0.6746 0.2282
C63 C 0.6171(7) 0.6438(6) 0.2160(4)
H54 H 0.5944 0.6687 0.2060
C64 C 0.6098(7) 0.5939(6) -0.0490(5)
C65 C 0.5672(9) 0.5672(8) -0.0286(5)
H55 H 0.5499 0.5796 -0.0070
C66 C 0.5513(9) 0.5254(8) -0.0389(5)
H56 H 0.5222 0.5097 -0.0257
C67 C 0.5764(10) 0.5082(7) -0.0665(9)
C68 C 0.6320(8) 0.5741(6) -0.0795(6)
H57 H 0.6575 0.5902 -0.0950
C69 C 0.5598(9) 0.4592(6) -0.0804(6)
H58 H 0.5823 0.4518 -0.1026
H59 H 0.5147 0.4567 -0.0886
H60 H 0.5722 0.4393 -0.0585
C70 C 0.6265(7) 0.6654(7) -0.0653(5)
H61 H 0.6165 0.6584 -0.0924
C71 C 0.6470(7) 0.7087(6) -0.0530(5)
C72 C 0.6737(6) 0.7571(5) -0.0017(4)
H62 H 0.6808 0.7626 0.0257
C73 C 0.6814(7) 0.7906(6) -0.0287(5)
C74 C 0.6724(8) 0.7832(6) -0.0677(6)
H63 H 0.6775 0.8058 -0.0858
C75 C 0.6551(8) 0.7407(7) -0.0812(5)
H64 H 0.6492 0.7341 -0.1085
C76 C 0.7014(9) 0.8325(5) -0.0109(4)
C77 C 0.6733(5) 0.8517(5) 0.0188(4)
H65 H 0.6426 0.8355 0.0301
C78 C 0.7355(7) 0.9136(5) 0.0184(4)
C79 C 0.7655(7) 0.8989(5) -0.0109(5)
H66 H 0.7975 0.9154 -0.0205
C80 C 0.7480(7) 0.8587(7) -0.0265(4)
H67 H 0.7671 0.8481 -0.0481
C81 C 0.7462(6) 0.9562(5) 0.0375(4)
H68 H 0.7753 0.9754 0.0281
C82 C 0.7295(4) 1.0100(3) 0.0828(4)
C83 C 0.7345(5) 1.0467(5) 0.0599(3)
H69 H 0.7323 1.0441 0.0321
C84 C 0.7428(5) 1.0872(4) 0.0777(5)
H70 H 0.7462 1.1123 0.0620
C85 C 0.7460(4) 1.0910(3) 0.1183(5)
C86 C 0.7410(4) 1.0542(5) 0.1412(3)
H71 H 0.7432 1.0568 0.1690
C87 C 0.7328(4) 1.0138(4) 0.1235(4)
H72 H 0.7294 0.9887 0.1391
C88 C 0.7514(8) 1.1367(5) 0.1382(6)
H73 H 0.7544 1.1589 0.1181
H74 H 0.7888 1.1376 0.1577
H75 H 0.7143 1.1421 0.1513
C89 C 0.5120(7) 0.8657(6) 0.0490(5)
C90 C 0.4655(9) 0.8956(4) 0.0361(6)
H76 H 0.4664 0.9237 0.0474
C91 C 0.4178(7) 0.8842(5) 0.0067(6)
H77 H 0.3860 0.9046 -0.0021
C92 C 0.4165(7) 0.8430(6) -0.0098(5)
C93 C 0.4629(9) 0.8132(4) 0.0030(6)
H78 H 0.4620 0.7851 -0.0083
C94 C 0.5107(7) 0.8245(5) 0.0324(6)
H79 H 0.5424 0.8042 0.0412
C95 C 0.3664(10) 0.8259(7) -0.0392(8)
H80 H 0.3739 0.7951 -0.0438
H81 H 0.3660 0.8419 -0.0640
H82 H 0.3259 0.8294 -0.0294
C96 C 0.5729(8) 0.8571(6) 0.1054(5)
H83 H 0.5426 0.8372 0.1123
C97 C 0.6320(9) 0.8629(4) 0.1289(4)
C98 C 0.7333(7) 0.8927(3) 0.1398(5)
H84 H 0.7620 0.9128 0.1311
C99 C 0.7546(7) 0.8678(4) 0.1717(4)
C100 C 0.7093(7) 0.8400(4) 0.1858(3)
H85 H 0.7189 0.8234 0.2091
C101 C 0.6495(6) 0.8386(4) 0.1634(5)
H86 H 0.6191 0.8201 0.1722
C102 C 0.5943(8) 0.9591(7) -0.0179(6)
C103 C 0.5781(7) 0.9193(6) -0.0367(5)
H87 H 0.5658 0.8957 -0.0216
C104 C 0.5795(7) 0.9138(6) -0.0757(5)
H88 H 0.5706 0.8860 -0.0870
C105 C 0.5936(7) 0.9476(7) -0.0998(5)
C106 C 0.6069(7) 0.9879(6) -0.0829(5)
H89 H 0.6147 1.0113 -0.0997
C107 C 0.6094(8) 0.9962(6) -0.0427(5)
H90 H 0.6202 1.0240 -0.0318
C108 C 0.5900(7) 0.9414(5) -0.1425(4)
H91 H 0.5796 0.9112 -0.1491
H92 H 0.6304 0.9486 -0.1511
H93 H 0.5575 0.9604 -0.1559
C109 C 0.5764(6) 0.9998(6) 0.0346(4)
H94 H 0.5609 1.0214 0.0161
C110 C 0.5791(5) 1.0092(5) 0.0754(6)
C111 C 0.5988(6) 0.9807(4) 0.1393(5)
H95 H 0.6108 0.9565 0.1557
C112 C 0.5861(5) 1.0181(5) 0.1567(5)
C113 C 0.5690(6) 1.0559(4) 0.1319(6)
H96 H 0.5602 1.0834 0.1424
C114 C 0.5666(6) 1.0485(6) 0.0918(5)
H97 H 0.5555 1.0721 0.0744
C115 C 0.5911(7) 1.0245(5) 0.1998(5)
C116 C 0.5652(6) 0.9949(4) 0.2246(5)
H98 H 0.5445 0.9703 0.2124
C117 C 0.6017(7) 1.0308(5) 0.2828(5)
C118 C 0.6276(8) 1.0622(5) 0.2614(6)
H99 H 0.6494 1.0862 0.2740
C119 C 0.6210(7) 1.0577(6) 0.2209(6)
H100 H 0.6389 1.0796 0.2064
C120 C 0.6046(6) 1.0292(4) 0.3240(5)
H101 H 0.6236 1.0527 0.3390
C121 C 0.5842(6) 0.9976(5) 0.3830(5)
C122 C 0.5702(6) 1.0381(5) 0.4049(4)
H102 H 0.5612 1.0649 0.3917
C123 C 0.5713(6) 1.0342(5) 0.4455(4)
H103 H 0.5633 1.0596 0.4597
C124 C 0.5828(6) 0.9967(6) 0.4666(4)
C125 C 0.5997(6) 0.9576(5) 0.4473(4)
H104 H 0.6106 0.9317 0.4615
C126 C 0.5994(6) 0.9599(5) 0.4057(4)
H105 H 0.6099 0.9345 0.3924
C127 C 0.5842(6) 0.9941(5) 0.5108(4)
H106 H 0.5925 0.9642 0.5195
H107 H 0.5438 1.0034 0.5180
H108 H 0.6173 1.0130 0.5235
C128 C 1.0950(5) 0.9191(6) 0.2601(4)
C129 C 1.1144(7) 0.9580(5) 0.2782(5)
H109 H 1.0862 0.9817 0.2777
C130 C 1.1752(8) 0.9621(5) 0.2971(5)
H110 H 1.1885 0.9887 0.3095
C131 C 1.2164(5) 0.9274(6) 0.2978(4)
C132 C 1.1970(7) 0.8886(5) 0.2796(5)
H111 H 1.2251 0.8649 0.2801
C133 C 1.1362(8) 0.8844(5) 0.2608(5)
H112 H 1.1229 0.8579 0.2484
C134 C 1.2790(8) 0.9378(8) 0.3170(7)
H113 H 1.3054 0.9119 0.3177
H114 H 1.2765 0.9478 0.3439
H115 H 1.2972 0.9607 0.3022
C135 C 1.0074(6) 0.8855(5) 0.2460(4)
H116 H 1.0286 0.8640 0.2625
C136 C 0.9417(6) 0.8763(4) 0.2257(3)
C137 C 0.8551(7) 0.9061(4) 0.1853(3)
H117 H 0.8385 0.9295 0.1692
C138 C 0.8172(7) 0.8692(4) 0.1900(3)
C139 C 0.8463(7) 0.8354(4) 0.2134(3)
H118 H 0.8234 0.8095 0.2162
C140 C 0.9074(7) 0.8383(4) 0.2327(4)
H119 H 0.9252 0.8160 0.2496
C141 C 0.4444(10) 1.0514(5) 0.2912(7)
C142 C 0.4273(12) 1.0489(4) 0.2508(7)
H120 H 0.4249 1.0215 0.2380
C143 C 0.4139(12) 1.0865(5) 0.2289(5)
H121 H 0.4023 1.0848 0.2013
C144 C 0.4175(8) 1.1266(4) 0.2476(5)
C145 C 0.4346(12) 1.1291(5) 0.2880(5)
H122 H 0.4371 1.1565 0.3008
C146 C 0.4480(13) 1.0915(7) 0.3099(5)
H123 H 0.4596 1.0933 0.3375
C147 C 0.4019(15) 1.1678(6) 0.2235(7)
H124 H 0.3910 1.1601 0.1957
H125 H 0.4383 1.1871 0.2263
H126 H 0.3665 1.1825 0.2330
C148 C 0.4275(6) 0.9989(5) 0.3402(5)
H127 H 0.4007 1.0197 0.3497
C149 C 0.4386(6) 0.9582(5) 0.3605(4)
C150 C 0.4904(5) 0.8943(5) 0.3665(4)
H128 H 0.5167 0.8741 0.3557
C151 C 0.4685(7) 0.8812(5) 0.4010(4)
C152 C 0.4282(6) 0.9129(5) 0.4156(4)
H129 H 0.4115 0.9078 0.4395
C153 C 0.4143(6) 0.9497(5) 0.3953(5)
H130 H 0.3872 0.9703 0.4050
C154 C 0.4875(6) 0.8444(5) 0.4216(5)
C155 C 0.4816(5) 0.8037(5) 0.4008(4)
H131 H 0.4650 0.8038 0.3737
C156 C 0.5182(6) 0.7672(5) 0.4579(5)
C157 C 0.5221(6) 0.8052(6) 0.4804(5)
H132 H 0.5360 0.8048 0.5079
C158 C 0.5057(6) 0.8413(5) 0.4618(5)
H133 H 0.5063 0.8671 0.4768
C159 C 0.5354(6) 0.7245(7) 0.4759(4)
H134 H 0.5479 0.7227 0.5035
C160 C 0.5492(5) 0.6460(5) 0.4701(4)
C161 C 0.5284(6) 0.6306(6) 0.5047(4)
H135 H 0.5044 0.6491 0.5191
C162 C 0.5420(7) 0.5889(7) 0.5185(5)
H136 H 0.5321 0.5798 0.5435
C163 C 0.5715(8) 0.5600(5) 0.4935(6)
C164 C 0.5927(6) 0.5739(5) 0.4602(4)
H137 H 0.6155 0.5552 0.4452
C165 C 0.5799(6) 0.6164(5) 0.4486(4)
H138 H 0.5928 0.6259 0.4245
C166 C 0.5862(7) 0.5116(5) 0.5110(5)
H139 H 0.5685 0.5085 0.5358
H140 H 0.6315 0.5071 0.5157
H141 H 0.5673 0.4901 0.4920
C167 C 0.3684(5) 0.7264(7) 0.3320(6)
C168 C 0.3217(8) 0.6982(6) 0.3406(7)
H142 H 0.3326 0.6720 0.3544
C169 C 0.2593(7) 0.7083(6) 0.3290(6)
H143 H 0.2274 0.6890 0.3349
C170 C 0.2435(5) 0.7466(5) 0.3089(5)
C171 C 0.2901(7) 0.7749(6) 0.3003(6)
H144 H 0.2793 0.8011 0.2866
C172 C 0.3525(6) 0.7647(7) 0.3119(7)
H145 H 0.3844 0.7840 0.3060
C173 C 0.1748(5) 0.7576(9) 0.2954(8)
H146 H 0.1723 0.7851 0.2809
H147 H 0.1524 0.7603 0.3184
H148 H 0.1559 0.7346 0.2782
C174 C 0.9873(7) 0.6707(8) 0.4868(8)
C175 C 1.0302(11) 0.6435(8) 0.4721(6)
H149 H 1.0198 0.6301 0.4471
C176 C 1.0881(9) 0.6359(7) 0.4938(6)
H150 H 1.1174 0.6173 0.4837
C177 C 1.1032(6) 0.6555(5) 0.5303(6)
C178 C 1.0604(9) 0.6827(7) 0.5451(6)
H151 H 1.0708 0.6961 0.5700
C179 C 1.0025(8) 0.6903(7) 0.5233(9)
H152 H 0.9732 0.7089 0.5334
C180 C 1.1675(8) 0.6477(9) 0.5539(9)
H153 H 1.1710 0.6647 0.5783
H154 H 1.2002 0.6566 0.5382
H155 H 1.1722 0.6168 0.5603
C181 C 0.9211(8) 0.6989(5) 0.4284(4)
H156 H 0.9560 0.7131 0.4198
C182 C 0.8538(7) 0.7036(4) 0.4059(5)
C183 C 0.7531(7) 0.6877(3) 0.4109(4)
H157 H 0.7222 0.6748 0.4245
C184 C 0.7322(7) 0.7074(3) 0.3729(3)
C185 C 0.7816(8) 0.7241(4) 0.3540(4)
H158 H 0.7723 0.7366 0.3286
C186 C 0.8407(8) 0.7229(4) 0.3707(4)
H159 H 0.8730 0.7353 0.3579
C187 C 0.5926(8) 0.4675(5) 0.0935(5)
H160 H 0.6014 0.4548 0.0695
C188 C 0.5229(6) 0.5323(5) 0.3457(4)
C189 C 0.6190(8) 0.5310(8) -0.0891(5)
H161 H 0.6371 0.5170 -0.1096
C190 C 0.4722(7) 0.7188(4) 0.3134(4)
H162 H 0.4555 0.7215 0.2865
C191 C 0.5412(6) 0.7145(3) 0.3269(4)
C192 C 0.6175(8) 0.7049(3) 0.3795(3)
H163 H 0.6282 0.7010 0.4071
C193 C 0.6670(6) 0.7088(3) 0.3556(4)
C194 C 0.6481(7) 0.7143(4) 0.3156(4)
H164 H 0.6788 0.7157 0.2981
C195 C 0.5869(8) 0.7177(4) 0.3008(4)
H165 H 0.5749 0.7223 0.2735
N1 N 0.5027(5) 0.4610(3) 0.2134(4)
N2 N 0.5666(5) 0.5048(4) 0.1631(3)
N3 N 0.6753(5) 0.5959(3) 0.0424(3)
N4 N 0.7484(5) 0.6434(4) 0.0004(3)
N5 N 0.6323(4) 0.4689(3) 0.2418(3)
N6 N 0.5584(5) 0.5154(4) 0.2837(3)
N7 N 0.4617(5) 0.6344(3) 0.3861(3)
N8 N 0.4035(4) 0.6912(4) 0.4290(3)
N9 N 0.4962(6) 0.5659(4) 0.2100(3)
N10 N 0.6208(6) 0.5698(3) 0.2301(3)
N11 N 0.6221(5) 0.6365(5) -0.0386(3)
N12 N 0.6564(4) 0.7173(4) -0.0150(3)
N13 N 0.6869(5) 0.8922(4) 0.0328(3)
N14 N 0.7179(4) 0.9687(4) 0.0663(4)
N15 N 0.9270(4) 0.6742(3) 0.4602(3)
N16 N 0.8102(6) 0.6864(3) 0.4275(3)
N17 N 0.5934(5) 0.9646(4) 0.0220(4)
N18 N 0.5957(4) 0.9753(4) 0.1005(4)
N19 N 0.5671(5) 0.9980(4) 0.2638(4)
N20 N 0.5832(4) 0.9984(3) 0.3419(3)
N21 N 0.5635(5) 0.8807(4) 0.0742(4)
N22 N 0.6753(6) 0.8915(3) 0.1194(3)
N23 N 0.4532(5) 1.0073(3) 0.3096(3)
N24 N 0.4797(4) 0.9316(4) 0.3461(3)
N25 N 0.4989(5) 0.7652(4) 0.4183(3)
N26 N 0.5338(4) 0.6882(4) 0.4539(3)
N27 N 1.0352(6) 0.9221(3) 0.2410(3)
N28 N 0.9138(6) 0.9081(3) 0.2032(3)
N29 N 0.4370(5) 0.7185(3) 0.3421(3)
N30 N 0.5568(5) 0.7065(3) 0.3651(3)
Ni1 Ni 0.56182(9) 0.51645(6) 0.22364(5)
Ni2 Ni 0.66010(9) 0.65867(6) 0.01838(5)
Ni3 Ni 0.63789(9) 0.92631(6) 0.07030(6)
Ni4 Ni 0.52229(9) 0.95945(6) 0.30161(5)
Ni5 Ni 0.48278(9) 0.70131(6) 0.39740(5)
C51A C 1.0709(5) 0.5700(7) 0.2918(6)
C52A C 1.1034(9) 0.5397(5) 0.3165(5)
H44A H 1.0814 0.5172 0.3277
C53A C 1.1681(8) 0.5424(5) 0.3249(5)
H45A H 1.1902 0.5217 0.3419
C54A C 1.2003(5) 0.5754(7) 0.3086(6)
C55A C 1.1678(9) 0.6057(5) 0.2838(5)
H46A H 1.1898 0.6282 0.2726
C56A C 1.1031(8) 0.6030(6) 0.2754(5)
H47A H 1.0809 0.6237 0.2585
C57A C 1.2772(9) 0.5741(8) 0.3194(8)
H48A H 1.2890 0.5499 0.3373
H49A H 1.2917 0.6013 0.3321
H50A H 1.2964 0.5703 0.2952
C58A C 0.9811(8) 0.6017(7) 0.2911(4)
H51A H 1.0063 0.6266 0.2975
C59A C 0.9137(9) 0.6049(5) 0.2823(4)
C60A C 0.8174(7) 0.5719(4) 0.2577(3)
H52A H 0.7965 0.5458 0.2491
C61A C 0.7826(5) 0.6094(4) 0.2570(3)
C62A C 0.8185(7) 0.6473(4) 0.2712(3)
H53A H 0.7984 0.6746 0.2718
C63A C 0.8829(7) 0.6438(6) 0.2840(4)
H54A H 0.9056 0.6687 0.2940
N9A N 1.0038(6) 0.5659(4) 0.2900(3)
N10A N 0.8792(6) 0.5698(3) 0.2699(3)
C1A C 1.0275(6) 0.4394(5) 0.2580(3)
C2A C 1.0151(6) 0.3957(4) 0.2513(4)
H1A H 0.9889 0.3805 0.2669
C3A C 1.0412(6) 0.3740(3) 0.2217(4)
H2A H 1.0327 0.3441 0.2171
C4A C 1.0796(6) 0.3961(4) 0.1988(3)
C5A C 1.0920(6) 0.4399(4) 0.2055(4)
H3A H 1.1182 0.4550 0.1899
C6A C 1.0659(6) 0.4615(3) 0.2351(4)
H4A H 1.0744 0.4915 0.2397
C7A C 1.1069(9) 0.3754(6) 0.1651(5)
H5A H 1.0960 0.3446 0.1638
H6A H 1.1524 0.3786 0.1691
H7A H 1.0899 0.3896 0.1404
C8A C 0.9907(6) 0.4413(5) 0.3198(5)
H8A H 1.0080 0.4134 0.3261
C9A C 0.9547(6) 0.4653(5) 0.3470(5)
C10A C 0.8992(6) 0.5249(4) 0.3617(4)
H9A H 0.8842 0.5533 0.3550
C11A C 0.8847(6) 0.5075(5) 0.3960(4)
C12A C 0.9432(7) 0.4450(5) 0.3824(5)
H10A H 0.9594 0.4170 0.3894
C13A C 0.8476(6) 0.5325(5) 0.4236(3)
C14A C 0.8566(6) 0.5752(4) 0.4333(3)
H11A H 0.8878 0.5907 0.4218
C15A C 0.7760(7) 0.5751(5) 0.4720(4)
C16A C 0.7612(6) 0.5322(5) 0.4619(4)
H12A H 0.7262 0.5188 0.4711
C17A C 0.7978(7) 0.5087(4) 0.4381(3)
H13A H 0.7902 0.4790 0.4319
C18A C 0.7393(6) 0.6026(5) 0.4953(4)
H14A H 0.7061 0.5903 0.5073
C19A C 0.7160(4) 0.6686(4) 0.5241(3)
C20A C 0.7062(5) 0.6551(3) 0.5615(4)
H15A H 0.7185 0.6268 0.5703
C21A C 0.6785(5) 0.6829(5) 0.5860(3)
H16A H 0.6718 0.6736 0.6116
C22A C 0.6606(5) 0.7243(4) 0.5732(4)
C23A C 0.6704(5) 0.7379(3) 0.5358(4)
H17A H 0.6581 0.7662 0.5270
C24A C 0.6981(5) 0.7100(4) 0.5112(3)
H18A H 0.7048 0.7193 0.4856
C25A C 0.6302(10) 0.7566(6) 0.6011(6)
H19A H 0.6268 0.7423 0.6263
H20A H 0.5886 0.7651 0.5887
H21A H 0.6566 0.7824 0.6057
C26A C 0.8324(4) 0.4439(3) 0.2839(2)
C27A C 0.7970(4) 0.4657(2) 0.3088(3)
H22A H 0.7944 0.4964 0.3080
C28A C 0.7653(4) 0.4425(3) 0.3349(2)
H23A H 0.7410 0.4574 0.3519
C29A C 0.7690(4) 0.3975(3) 0.3361(2)
C30A C 0.8045(4) 0.3757(2) 0.3112(3)
H24A H 0.8070 0.3450 0.3119
C31A C 0.8362(4) 0.3989(3) 0.2851(2)
H25A H 0.8604 0.3840 0.2681
C32A C 0.7308(6) 0.3706(4) 0.3633(4)
H26A H 0.7378 0.3397 0.3594
H27A H 0.6862 0.3772 0.3569
H28A H 0.7444 0.3782 0.3909
C33A C 0.8725(6) 0.4556(4) 0.2237(4)
H29A H 0.8525 0.4295 0.2144
C34A C 0.9093(6) 0.4807(5) 0.1980(5)
C35A C 0.9715(5) 0.5403(4) 0.1946(4)
H30A H 0.9910 0.5655 0.2064
C36A C 0.9479(6) 0.4948(4) 0.1366(3)
H31A H 0.9526 0.4873 0.1103
C37A C 0.9130(6) 0.4697(4) 0.1582(4)
H32A H 0.8913 0.4452 0.1466
C38A C 1.0139(5) 0.5614(4) 0.1329(3)
C39A C 1.0072(5) 0.6054(4) 0.1349(3)
H33A H 0.9793 0.6166 0.1517
C40A C 1.0772(5) 0.6181(5) 0.0893(3)
C41A C 1.0851(6) 0.5742(6) 0.0863(4)
H34A H 1.1128 0.5634 0.0691
C42A C 1.0541(7) 0.5455(4) 0.1076(4)
H35A H 1.0600 0.5151 0.1050
C43A C 1.1086(6) 0.6510(5) 0.0672(4)
H36A H 1.1378 0.6422 0.0501
C44A C 1.1235(7) 0.7231(3) 0.0461(3)
C45A C 1.1410(7) 0.7632(4) 0.0623(3)
H37A H 1.1440 0.7674 0.0900
C46A C 1.1541(6) 0.7973(3) 0.0381(4)
H38A H 1.1661 0.8247 0.0491
C47A C 1.1498(6) 0.7911(3) -0.0024(3)
C48A C 1.1323(7) 0.7510(4) -0.0186(2)
H39A H 1.1293 0.7468 -0.0463
C49A C 1.1191(6) 0.7170(3) 0.0056(4)
H40A H 1.1072 0.6895 -0.0054
C50A C 1.1526(9) 0.8302(4) -0.0296(4)
H41A H 1.1671 0.8557 -0.0139
H42A H 1.1109 0.8359 -0.0436
H43A H 1.1817 0.8241 -0.0486
C64A C 0.8902(7) 0.5939(6) 0.5490(5)
C65A C 0.9328(9) 0.5672(8) 0.5286(5)
H55A H 0.9501 0.5796 0.5070
C66A C 0.9487(9) 0.5254(8) 0.5389(5)
H56A H 0.9778 0.5097 0.5257
C67A C 0.9236(10) 0.5082(7) 0.5665(9)
C68A C 0.8680(8) 0.5741(6) 0.5795(6)
H57A H 0.8425 0.5902 0.5950
C69A C 0.9402(9) 0.4592(6) 0.5804(6)
H58A H 0.9177 0.4518 0.6026
H59A H 0.9853 0.4567 0.5886
H60A H 0.9278 0.4393 0.5585
C70A C 0.8735(7) 0.6654(7) 0.5653(5)
H61A H 0.8835 0.6584 0.5924
C71A C 0.8530(7) 0.7087(6) 0.5530(5)
C72A C 0.8263(6) 0.7571(5) 0.5017(4)
H62A H 0.8192 0.7626 0.4743
C73A C 0.8186(7) 0.7906(6) 0.5287(5)
C74A C 0.8276(8) 0.7832(6) 0.5677(6)
H63A H 0.8225 0.8058 0.5858
C75A C 0.8449(8) 0.7407(7) 0.5812(5)
H64A H 0.8508 0.7341 0.6085
C76A C 0.7986(9) 0.8325(5) 0.5109(4)
C77A C 0.8267(5) 0.8517(5) 0.4812(4)
H65A H 0.8574 0.8355 0.4699
C78A C 0.7645(7) 0.9136(5) 0.4816(4)
C79A C 0.7345(7) 0.8989(5) 0.5109(5)
H66A H 0.7025 0.9154 0.5205
C80A C 0.7520(7) 0.8587(7) 0.5265(4)
H67A H 0.7329 0.8481 0.5481
C81A C 0.7538(6) 0.9562(5) 0.4625(4)
H68A H 0.7247 0.9754 0.4719
C82A C 0.7705(4) 1.0100(3) 0.4172(4)
C83A C 0.7655(5) 1.0467(5) 0.4401(3)
H69A H 0.7677 1.0441 0.4679
C84A C 0.7572(5) 1.0872(4) 0.4223(5)
H70A H 0.7538 1.1123 0.4380
C85A C 0.7540(4) 1.0910(3) 0.3817(5)
C86A C 0.7590(4) 1.0542(5) 0.3588(3)
H71A H 0.7568 1.0568 0.3310
C87A C 0.7672(4) 1.0138(4) 0.3765(4)
H72A H 0.7706 0.9887 0.3609
C88A C 0.7486(8) 1.1367(5) 0.3618(6)
H73A H 0.7456 1.1589 0.3819
H74A H 0.7112 1.1376 0.3423
H75A H 0.7857 1.1421 0.3487
C89A C 0.9880(7) 0.8657(6) 0.4510(5)
C90A C 1.0345(9) 0.8956(4) 0.4639(6)
H76A H 1.0336 0.9237 0.4526
C91A C 1.0822(7) 0.8842(5) 0.4933(6)
H77A H 1.1140 0.9046 0.5021
C92A C 1.0835(7) 0.8430(6) 0.5098(5)
C93A C 1.0371(9) 0.8132(4) 0.4970(6)
H78A H 1.0380 0.7851 0.5083
C94A C 0.9893(7) 0.8245(5) 0.4676(6)
H79A H 0.9576 0.8042 0.4588
C95A C 1.1336(10) 0.8259(7) 0.5392(8)
H80A H 1.1261 0.7951 0.5438
H81A H 1.1340 0.8419 0.5640
H82A H 1.1741 0.8294 0.5294
C96A C 0.9271(8) 0.8571(6) 0.3946(5)
H83A H 0.9574 0.8372 0.3877
C97A C 0.8680(9) 0.8629(4) 0.3711(4)
C98A C 0.7667(7) 0.8927(3) 0.3602(5)
H84A H 0.7380 0.9128 0.3689
C99A C 0.7454(7) 0.8678(4) 0.3283(4)
C100A C 0.7907(7) 0.8400(4) 0.3142(3)
H85A H 0.7811 0.8234 0.2909
C101A C 0.8505(6) 0.8386(4) 0.3366(5)
H86A H 0.8809 0.8201 0.3278
C102A C 0.9057(8) 0.9591(7) 0.5179(6)
C103A C 0.9219(7) 0.9193(6) 0.5367(5)
H87A H 0.9342 0.8957 0.5216
C104A C 0.9205(7) 0.9138(6) 0.5757(5)
H88A H 0.9294 0.8860 0.5870
C105A C 0.9064(7) 0.9476(7) 0.5998(5)
C106A C 0.8931(7) 0.9879(6) 0.5829(5)
H89A H 0.8853 1.0113 0.5997
C107A C 0.8906(8) 0.9962(6) 0.5427(5)
H90A H 0.8798 1.0240 0.5318
C108A C 0.9100(7) 0.9414(5) 0.6425(4)
H91A H 0.9204 0.9112 0.6491
H92A H 0.8696 0.9486 0.6511
H93A H 0.9425 0.9604 0.6559
C109A C 0.9236(6) 0.9998(6) 0.4654(4)
H94A H 0.9391 1.0214 0.4839
C110A C 0.9209(5) 1.0092(5) 0.4246(6)
C111A C 0.9012(6) 0.9807(4) 0.3607(5)
H95A H 0.8892 0.9565 0.3443
C112A C 0.9139(5) 1.0181(5) 0.3433(5)
C113A C 0.9310(6) 1.0559(4) 0.3681(6)
H96A H 0.9398 1.0834 0.3576
C114A C 0.9334(6) 1.0485(6) 0.4082(5)
H97A H 0.9445 1.0721 0.4256
C115A C 0.9089(7) 1.0245(5) 0.3002(5)
C116A C 0.9348(6) 0.9949(4) 0.2754(5)
H98A H 0.9555 0.9703 0.2876
C117A C 0.8983(7) 1.0308(5) 0.2172(5)
C118A C 0.8724(8) 1.0622(5) 0.2386(6)
H99A H 0.8506 1.0862 0.2260
C119A C 0.8790(7) 1.0577(6) 0.2791(6)
H100A H 0.8611 1.0796 0.2936
C120A C 0.8954(6) 1.0292(4) 0.1760(5)
H101A H 0.8764 1.0527 0.1610
C121A C 0.9158(6) 0.9976(5) 0.1170(5)
C122A C 0.9298(6) 1.0381(5) 0.0951(4)
H102A H 0.9388 1.0649 0.1083
C123A C 0.9287(6) 1.0342(5) 0.0545(4)
H103A H 0.9367 1.0596 0.0403
C124A C 0.9172(6) 0.9967(6) 0.0334(4)
C125A C 0.9003(6) 0.9576(5) 0.0527(4)
H104A H 0.8894 0.9317 0.0385
C126A C 0.9006(6) 0.9599(5) 0.0943(4)
H105A H 0.8901 0.9345 0.1076
C127A C 0.9158(6) 0.9941(5) -0.0108(4)
H106A H 0.9075 0.9642 -0.0195
H107A H 0.9562 1.0034 -0.0180
H108A H 0.8827 1.0130 -0.0235
C128A C 0.4050(5) 0.9191(6) 0.2399(4)
C129A C 0.3856(7) 0.9580(5) 0.2218(5)
H109A H 0.4138 0.9817 0.2223
C130A C 0.3248(8) 0.9621(5) 0.2029(5)
H110A H 0.3115 0.9887 0.1905
C131A C 0.2836(5) 0.9274(6) 0.2022(4)
C132A C 0.3030(7) 0.8886(5) 0.2204(5)
H111A H 0.2749 0.8649 0.2199
C133A C 0.3638(8) 0.8844(5) 0.2392(5)
H112A H 0.3771 0.8579 0.2516
C134A C 0.2210(8) 0.9378(8) 0.1830(7)
H113A H 0.1946 0.9119 0.1823
H114A H 0.2235 0.9478 0.1561
H115A H 0.2028 0.9607 0.1978
C135A C 0.4926(6) 0.8855(5) 0.2540(4)
H116A H 0.4714 0.8640 0.2375
C136A C 0.5583(6) 0.8763(4) 0.2743(3)
C137A C 0.6449(7) 0.9061(4) 0.3147(3)
H117A H 0.6615 0.9295 0.3308
C138A C 0.6828(7) 0.8692(4) 0.3100(3)
C139A C 0.6537(7) 0.8354(4) 0.2866(3)
H118A H 0.6766 0.8095 0.2838
C140A C 0.5926(7) 0.8383(4) 0.2673(4)
H119A H 0.5748 0.8160 0.2504
C141A C 1.0556(10) 1.0514(5) 0.2088(7)
C142A C 1.0727(12) 1.0489(4) 0.2492(7)
H120A H 1.0751 1.0215 0.2620
C143A C 1.0861(12) 1.0865(5) 0.2711(5)
H121A H 1.0977 1.0848 0.2987
C144A C 1.0825(8) 1.1266(4) 0.2524(5)
C145A C 1.0654(12) 1.1291(5) 0.2120(5)
H122A H 1.0629 1.1565 0.1992
C146A C 1.0520(13) 1.0915(7) 0.1901(5)
H123A H 1.0404 1.0933 0.1625
C147A C 1.0981(15) 1.1678(6) 0.2765(7)
H124A H 1.1090 1.1601 0.3043
H125A H 1.0617 1.1871 0.2737
H126A H 1.1335 1.1825 0.2670
C148A C 1.0725(6) 0.9989(5) 0.1598(5)
H127A H 1.0993 1.0197 0.1503
C149A C 1.0614(6) 0.9582(5) 0.1395(4)
C150A C 1.0096(5) 0.8943(5) 0.1335(4)
H128A H 0.9833 0.8741 0.1443
C151A C 1.0315(7) 0.8812(5) 0.0990(4)
C152A C 1.0718(6) 0.9129(5) 0.0844(4)
H129A H 1.0885 0.9078 0.0605
C153A C 1.0857(6) 0.9497(5) 0.1047(5)
H130A H 1.1128 0.9703 0.0950
C154A C 1.0125(6) 0.8444(5) 0.0784(5)
C155A C 1.0184(5) 0.8037(5) 0.0992(4)
H131A H 1.0350 0.8038 0.1263
C156A C 0.9818(6) 0.7672(5) 0.0421(5)
C157A C 0.9779(6) 0.8052(6) 0.0196(5)
H132A H 0.9640 0.8048 -0.0079
C158A C 0.9943(6) 0.8413(5) 0.0382(5)
H133A H 0.9937 0.8671 0.0232
C159A C 0.9646(6) 0.7245(7) 0.0241(4)
H134A H 0.9521 0.7227 -0.0035
C160A C 0.9508(5) 0.6460(5) 0.0299(4)
C161A C 0.9716(6) 0.6306(6) -0.0047(4)
H135A H 0.9956 0.6491 -0.0191
C162A C 0.9580(7) 0.5889(7) -0.0185(5)
H136A H 0.9679 0.5798 -0.0435
C163A C 0.9285(8) 0.5600(5) 0.0065(6)
C164A C 0.9073(6) 0.5739(5) 0.0398(4)
H137A H 0.8845 0.5552 0.0548
C165A C 0.9201(6) 0.6164(5) 0.0514(4)
H138A H 0.9072 0.6259 0.0755
C166A C 0.9138(7) 0.5116(5) -0.0110(5)
H139A H 0.9315 0.5085 -0.0358
H140A H 0.8685 0.5071 -0.0157
H141A H 0.9327 0.4901 0.0080
C167A C 1.1316(5) 0.7264(7) 0.1680(6)
C168A C 1.1783(8) 0.6982(6) 0.1594(7)
H142A H 1.1674 0.6720 0.1456
C169A C 1.2407(7) 0.7083(6) 0.1710(6)
H143A H 1.2726 0.6890 0.1651
C170A C 1.2565(5) 0.7466(5) 0.1911(5)
C171A C 1.2099(7) 0.7749(6) 0.1997(6)
H144A H 1.2207 0.8011 0.2134
C172A C 1.1475(6) 0.7647(7) 0.1881(7)
H145A H 1.1156 0.7840 0.1940
C173A C 1.3252(5) 0.7576(9) 0.2046(8)
H146A H 1.3277 0.7851 0.2191
H147A H 1.3476 0.7603 0.1816
H148A H 1.3441 0.7346 0.2218
C174A C 0.5127(7) 0.6707(8) 0.0132(8)
C175A C 0.4698(11) 0.6435(8) 0.0279(6)
H149A H 0.4802 0.6301 0.0529
C176A C 0.4119(9) 0.6359(7) 0.0062(6)
H150A H 0.3826 0.6173 0.0163
C177A C 0.3968(6) 0.6555(5) -0.0303(6)
C178A C 0.4396(9) 0.6827(7) -0.0451(6)
H151A H 0.4292 0.6961 -0.0700
C179A C 0.4975(8) 0.6903(7) -0.0233(9)
H152A H 0.5268 0.7089 -0.0334
C180A C 0.3325(8) 0.6477(9) -0.0539(9)
H153A H 0.3290 0.6647 -0.0783
H154A H 0.2998 0.6566 -0.0382
H155A H 0.3278 0.6168 -0.0603
C181A C 0.5789(8) 0.6989(5) 0.0716(4)
H156A H 0.5440 0.7131 0.0802
C182A C 0.6462(7) 0.7036(4) 0.0941(5)
C183A C 0.7469(7) 0.6877(3) 0.0891(4)
H157A H 0.7778 0.6748 0.0755
C184A C 0.7678(7) 0.7074(3) 0.1271(3)
C185A C 0.7184(8) 0.7241(4) 0.1460(4)
H158A H 0.7277 0.7366 0.1714
C186A C 0.6593(8) 0.7229(4) 0.1293(4)
H159A H 0.6270 0.7353 0.1421
C187A C 0.9074(8) 0.4675(5) 0.4065(5)
H160A H 0.8986 0.4548 0.4305
C188A C 0.9771(6) 0.5323(5) 0.1543(4)
C189A C 0.8810(8) 0.5310(8) 0.5891(5)
H161A H 0.8629 0.5170 0.6096
C190A C 1.0278(7) 0.7188(4) 0.1866(4)
H162A H 1.0445 0.7215 0.2135
C191A C 0.9588(6) 0.7145(3) 0.1731(4)
C192A C 0.8825(8) 0.7049(3) 0.1205(3)
H163A H 0.8718 0.7010 0.0929
C193A C 0.8330(6) 0.7088(3) 0.1444(4)
C194A C 0.8519(7) 0.7143(4) 0.1844(4)
H164A H 0.8212 0.7157 0.2019
C195A C 0.9131(8) 0.7177(4) 0.1992(4)
H165A H 0.9251 0.7223 0.2265
N1A N 0.9973(5) 0.4610(3) 0.2866(4)
N2A N 0.9334(5) 0.5048(4) 0.3369(3)
N3A N 0.8247(5) 0.5959(3) 0.4576(3)
N4A N 0.7516(5) 0.6434(4) 0.4996(3)
N5A N 0.8677(4) 0.4689(3) 0.2582(3)
N6A N 0.9416(5) 0.5154(4) 0.2163(3)
N7A N 1.0383(5) 0.6344(3) 0.1139(3)
N8A N 1.0965(4) 0.6912(4) 0.0710(3)
N11A N 0.8779(5) 0.6365(5) 0.5386(3)
N12A N 0.8436(4) 0.7173(4) 0.5150(3)
N13A N 0.8131(5) 0.8922(4) 0.4672(3)
N14A N 0.7821(4) 0.9687(4) 0.4337(4)
N15A N 0.5730(4) 0.6742(3) 0.0398(3)
N16A N 0.6898(6) 0.6864(3) 0.0725(3)
N17A N 0.9066(5) 0.9646(4) 0.4780(4)
N18A N 0.9043(4) 0.9753(4) 0.3995(4)
N19A N 0.9329(5) 0.9980(4) 0.2362(4)
N20A N 0.9168(4) 0.9984(3) 0.1581(3)
N21A N 0.9365(5) 0.8807(4) 0.4258(4)
N22A N 0.8247(6) 0.8915(3) 0.3806(3)
N23A N 1.0468(5) 1.0073(3) 0.1904(3)
N24A N 1.0203(4) 0.9316(4) 0.1539(3)
N25A N 1.0011(5) 0.7652(4) 0.0817(3)
N26A N 0.9662(4) 0.6882(4) 0.0461(3)
N27A N 0.4648(6) 0.9221(3) 0.2590(3)
N28A N 0.5862(6) 0.9081(3) 0.2968(3)
N29A N 1.0630(5) 0.7185(3) 0.1579(3)
N30A N 0.9432(5) 0.7065(3) 0.1349(3)
Ni1A Ni 0.93818(9) 0.51645(6) 0.27636(5)
Ni2A Ni 0.83990(9) 0.65867(6) 0.48162(5)
Ni3A Ni 0.86211(9) 0.92631(6) 0.42970(6)
Ni4A Ni 0.97771(9) 0.95945(6) 0.19839(5)
Ni5A Ni 1.01722(9) 0.70131(6) 0.10260(5)
C196 C 0.4472(13) 0.8969(11) 0.1424(8)
C197 C 0.3956(10) 0.8652(8) 0.1229(6)
H211 H 0.3943 0.8393 0.1394
H212 H 0.4054 0.8567 0.0968
H213 H 0.3549 0.8797 0.1202
N31 N 0.4932(10) 0.9082(8) 0.1600(6)
C198 C 0.4698(17) 0.6403(10) 0.1213(9)
C199 C 0.4005(13) 0.6554(8) 0.1206(8)
H214 H 0.3777 0.6504 0.0944
H215 H 0.3996 0.6863 0.1270
H216 H 0.3808 0.6388 0.1401
N32 N 0.5278(12) 0.6274(8) 0.1238(8)
O1 O 0.1302(7) 0.1397(5) 0.0824(6)
O2 O 0.0258(8) 0.1353(5) 0.0814(6)
O3 O 0.0855(9) 0.0756(5) 0.0942(6)
O4 O 0.0726(10) 0.1045(6) 0.0334(4)
Cl1 Cl 0.0772(4) 0.1142(2) 0.07440(18)
O5 O 0.2398(11) 0.4364(8) 0.1329(5)
O6 O 0.1266(8) 0.4488(5) 0.1035(5)
O7 O 0.2013(10) 0.5063(7) 0.1139(8)
O8 O 0.2155(9) 0.4574(5) 0.0656(5)
Cl2 Cl 0.1964(4) 0.4615(3) 0.1066(3)
O9 O 0.8411(8) 0.3648(5) 0.0530(5)
O10 O 0.8081(8) 0.4362(5) 0.0538(4)
O11 O 0.8613(6) 0.4084(4) 0.0035(3)
O12 O 0.9112(8) 0.4224(6) 0.0687(4)
Cl3 Cl 0.8560(3) 0.4104(2) 0.04514(17)
O13 O 0.7452(6) 0.6055(4) 0.1522(3)
O14 O 0.7981(5) 0.5424(3) 0.1613(3)
O15 O 0.8146(5) 0.5889(3) 0.1104(3)
O16 O 0.8540(5) 0.6060(3) 0.1735(3)
Cl4 Cl 0.8033(2) 0.58489(15) 0.14883(12)
O17 O 0.4802(6) 0.7077(5) 0.2078(5)
O18 O 0.4744(6) 0.7823(5) 0.2183(5)
O19 O 0.4861(7) 0.7555(5) 0.1537(5)
O20 O 0.5723(6) 0.7526(5) 0.2045(5)
Cl5 Cl 0.5019(4) 0.75254(18) 0.19181(17)
O21 O 0.7624(5) 0.8072(3) 0.0914(3)
O22 O 0.8695(6) 0.8091(3) 0.1206(3)
O23 O 0.8329(5) 0.8598(3) 0.0747(3)
O24 O 0.8451(4) 0.7877(3) 0.0567(3)
Cl6 Cl 0.8281(2) 0.81638(13) 0.08595(14)
O25 O 0.6961(6) 0.9359(4) 0.2343(3)
O26 O 0.7668(5) 0.9860(3) 0.2184(3)
Cl7 Cl 0.7500 0.9606(2) 0.2500
O25A O 0.8039(6) 0.9359(4) 0.2657(3)
O26A O 0.7332(5) 0.9860(3) 0.2816(3)
O27 O 0.2576(10) 0.9311(7) 0.0933(5)
O28 O 0.2379(10) 0.9708(5) 0.0404(6)
O29 O 0.2954(8) 0.9120(6) 0.0392(5)
O30 O 0.1952(8) 0.9118(6) 0.0386(5)
Cl8 Cl 0.2466(3) 0.9287(2) 0.0548(2)
Cl9 Cl 0.7500 0.75271(11) 0.2500
H166? H 0.3704 0.3973 0.3482
H167? H 0.4269 0.3633 0.3536
H168? H 0.3644 0.3522 0.3249
H169? H 0.8788 0.7843 -0.0875
H170? H 0.8406 0.7615 -0.1251
H171? H 0.9086 0.7441 -0.1081
H172? H 0.7922 0.3904 0.1213
H173? H 0.7406 0.3529 0.1188
H174? H 0.7988 0.3518 0.1528
H175? H 0.3607 0.8215 0.5568
H176? H 0.3045 0.8412 0.5271
H177? H 0.3753 0.8530 0.5221
H178? H 0.2043 0.5978 0.1942
H179? H 0.2070 0.5463 0.1890
H180? H 0.2117 0.5774 0.1521
H181? H 0.5305 0.4467 -0.0639
H182? H 0.5981 0.4418 -0.0779
H183? H 0.5406 0.4592 -0.1079
H184? H 0.7506 1.1335 0.1666
H185? H 0.7162 1.1548 0.1271
H186? H 0.7907 1.1503 0.1334
H187? H 0.3367 0.8491 -0.0477
H188? H 0.3445 0.8024 -0.0275
H189? H 0.3846 0.8149 -0.0620
H190? H 0.5988 0.9690 -0.1549
H191? H 0.5480 0.9315 -0.1529
H192? H 0.6208 0.9197 -0.1481
H193? H 0.5766 1.0229 0.5212
H194? H 0.6253 0.9837 0.5226
H195? H 0.5518 0.9740 0.5172
H196? H 1.2807 0.9684 0.3248
H197? H 1.3095 0.9325 0.2987
H198? H 1.2889 0.9195 0.3403
H199? H 0.4062 1.1930 0.2410
H200? H 0.3589 1.1661 0.2103
H201? H 0.4307 1.1707 0.2037
H202? H 0.6097 0.4953 0.4932
H203? H 0.5468 0.4967 0.5133
H204? H 0.6109 0.5137 0.5370
H205? H 0.1481 0.7349 0.3040
H206? H 0.1680 0.7597 0.2666
H207? H 0.1645 0.7854 0.3068
H208? H 1.1913 0.6274 0.5396
H209? H 1.1621 0.6355 0.5797
H210? H 1.1901 0.6752 0.5575
loop_
_geom_bond_atom_site_label_1
_geom_bond_atom_site_label_2
_geom_bond_site_symmetry_1
_geom_bond_site_symmetry_2
C1 C2 1_555 1_555
C2 H1 1_555 1_555
C3 C2 1_555 1_555
H2 C3 1_555 1_555
C4 C3 1_555 1_555
C5 C4 1_555 1_555
H3 C5 1_555 1_555
C6 C1 1_555 1_555
H4 C6 1_555 1_555
C7 C4 1_555 1_555
H5 C7 1_555 1_555
H6 C7 1_555 1_555
H7 C7 1_555 1_555
C8 H8 1_555 1_555
C9 C8 1_555 1_555
C10 H9 1_555 1_555
C11 C10 1_555 1_555
C12 C9 1_555 1_555
H10 C12 1_555 1_555
C13 C11 1_555 1_555
C14 C13 1_555 1_555
H11 C14 1_555 1_555
C15 C16 1_555 1_555
C16 H12 1_555 1_555
C17 C13 1_555 1_555
H13 C17 1_555 1_555
C18 C15 1_555 1_555
H14 C18 1_555 1_555
C19 C20 1_555 1_555
C20 H15 1_555 1_555
C21 C20 1_555 1_555
H16 C21 1_555 1_555
C22 C21 1_555 1_555
C23 C22 1_555 1_555
H17 C23 1_555 1_555
C24 C19 1_555 1_555
H18 C24 1_555 1_555
C25 C22 1_555 1_555
H19 C25 1_555 1_555
H20 C25 1_555 1_555
H21 C25 1_555 1_555
C26 C27 1_555 1_555
C27 H22 1_555 1_555
C28 C27 1_555 1_555
H23 C28 1_555 1_555
C29 C28 1_555 1_555
C30 C29 1_555 1_555
H24 C30 1_555 1_555
C31 C26 1_555 1_555
H25 C31 1_555 1_555
C32 C29 1_555 1_555
H26 C32 1_555 1_555
H27 C32 1_555 1_555
H28 C32 1_555 1_555
C33 H29 1_555 1_555
C34 C33 1_555 1_555
C35 H30 1_555 1_555
C36 H31 1_555 1_555
C37 C34 1_555 1_555
H32 C37 1_555 1_555
C38 C39 1_555 1_555
C39 H33 1_555 1_555
C40 C41 1_555 1_555
C41 H34 1_555 1_555
C42 C38 1_555 1_555
H35 C42 1_555 1_555
C43 C40 1_555 1_555
H36 C43 1_555 1_555
C44 C45 1_555 1_555
C45 H37 1_555 1_555
C46 C45 1_555 1_555
H38 C46 1_555 1_555
C47 C46 1_555 1_555
C48 C47 1_555 1_555
H39 C48 1_555 1_555
C49 C44 1_555 1_555
H40 C49 1_555 1_555
C50 C47 1_555 1_555
H41 C50 1_555 1_555
H42 C50 1_555 1_555
H43 C50 1_555 1_555
C51 C52 1_555 1_555
C52 H44 1_555 1_555
C53 C52 1_555 1_555
H45 C53 1_555 1_555
C54 C53 1_555 1_555
C55 C54 1_555 1_555
H46 C55 1_555 1_555
C56 C51 1_555 1_555
H47 C56 1_555 1_555
C57 C54 1_555 1_555
H48 C57 1_555 1_555
H49 C57 1_555 1_555
H50 C57 1_555 1_555
C58 H51 1_555 1_555
C59 C58 1_555 1_555
C60 H52 1_555 1_555
C61 C60 1_555 1_555
C62 C61 1_555 1_555
H53 C62 1_555 1_555
C63 C59 1_555 1_555
H54 C63 1_555 1_555
C64 C65 1_555 1_555
C65 H55 1_555 1_555
C66 C65 1_555 1_555
H56 C66 1_555 1_555
C67 C66 1_555 1_555
C68 C64 1_555 1_555
H57 C68 1_555 1_555
C69 C67 1_555 1_555
H58 C69 1_555 1_555
H59 C69 1_555 1_555
H60 C69 1_555 1_555
C70 H61 1_555 1_555
C71 C70 1_555 1_555
C72 H62 1_555 1_555
C73 C72 1_555 1_555
C74 C73 1_555 1_555
H63 C74 1_555 1_555
C75 C71 1_555 1_555
H64 C75 1_555 1_555
C76 C73 1_555 1_555
C77 C76 1_555 1_555
H65 C77 1_555 1_555
C78 C79 1_555 1_555
C79 H66 1_555 1_555
C80 C76 1_555 1_555
H67 C80 1_555 1_555
C81 C78 1_555 1_555
H68 C81 1_555 1_555
C82 C83 1_555 1_555
C83 H69 1_555 1_555
C84 C83 1_555 1_555
H70 C84 1_555 1_555
C85 C84 1_555 1_555
C86 C85 1_555 1_555
H71 C86 1_555 1_555
C87 C82 1_555 1_555
H72 C87 1_555 1_555
C88 C85 1_555 1_555
H73 C88 1_555 1_555
H74 C88 1_555 1_555
H75 C88 1_555 1_555
C89 C90 1_555 1_555
C90 H76 1_555 1_555
C91 C90 1_555 1_555
H77 C91 1_555 1_555
C92 C91 1_555 1_555
C93 C92 1_555 1_555
H78 C93 1_555 1_555
C94 C89 1_555 1_555
H79 C94 1_555 1_555
C95 C92 1_555 1_555
H80 C95 1_555 1_555
H81 C95 1_555 1_555
H82 C95 1_555 1_555
C96 H83 1_555 1_555
C97 C96 1_555 1_555
C98 H84 1_555 1_555
C99 C98 1_555 1_555
C100 C99 1_555 1_555
H85 C100 1_555 1_555
C101 C97 1_555 1_555
H86 C101 1_555 1_555
C102 C103 1_555 1_555
C103 H87 1_555 1_555
C104 C103 1_555 1_555
H88 C104 1_555 1_555
C105 C104 1_555 1_555
C106 C105 1_555 1_555
H89 C106 1_555 1_555
C107 C102 1_555 1_555
H90 C107 1_555 1_555
C108 C105 1_555 1_555
H91 C108 1_555 1_555
H92 C108 1_555 1_555
H93 C108 1_555 1_555
C109 H94 1_555 1_555
C110 C109 1_555 1_555
C111 H95 1_555 1_555
C112 C111 1_555 1_555
C113 C112 1_555 1_555
H96 C113 1_555 1_555
C114 C110 1_555 1_555
H97 C114 1_555 1_555
C115 C112 1_555 1_555
C116 C115 1_555 1_555
H98 C116 1_555 1_555
C117 C118 1_555 1_555
C118 H99 1_555 1_555
C119 C115 1_555 1_555
H100 C119 1_555 1_555
C120 C117 1_555 1_555
H101 C120 1_555 1_555
C121 C122 1_555 1_555
C122 H102 1_555 1_555
C123 C122 1_555 1_555
H103 C123 1_555 1_555
C124 C123 1_555 1_555
C125 C124 1_555 1_555
H104 C125 1_555 1_555
C126 C121 1_555 1_555
H105 C126 1_555 1_555
C127 C124 1_555 1_555
H106 C127 1_555 1_555
H107 C127 1_555 1_555
H108 C127 1_555 1_555
C128 C129 1_555 1_555
C129 H109 1_555 1_555
C130 C129 1_555 1_555
H110 C130 1_555 1_555
C131 C130 1_555 1_555
C132 C131 1_555 1_555
H111 C132 1_555 1_555
C133 C128 1_555 1_555
H112 C133 1_555 1_555
C134 C131 1_555 1_555
H113 C134 1_555 1_555
H114 C134 1_555 1_555
H115 C134 1_555 1_555
C135 H116 1_555 1_555
C136 C135 1_555 1_555
C137 H117 1_555 1_555
C138 C99 1_555 1_555
C139 C138 1_555 1_555
H118 C139 1_555 1_555
C140 C136 1_555 1_555
H119 C140 1_555 1_555
C141 C142 1_555 1_555
C142 H120 1_555 1_555
C143 C142 1_555 1_555
H121 C143 1_555 1_555
C144 C143 1_555 1_555
C145 C144 1_555 1_555
H122 C145 1_555 1_555
C146 C141 1_555 1_555
H123 C146 1_555 1_555
C147 C144 1_555 1_555
H124 C147 1_555 1_555
H125 C147 1_555 1_555
H126 C147 1_555 1_555
C148 H127 1_555 1_555
C149 C148 1_555 1_555
C150 H128 1_555 1_555
C151 C150 1_555 1_555
C152 C151 1_555 1_555
H129 C152 1_555 1_555
C153 C149 1_555 1_555
H130 C153 1_555 1_555
C154 C151 1_555 1_555
C155 C154 1_555 1_555
H131 C155 1_555 1_555
C156 C157 1_555 1_555
C157 H132 1_555 1_555
C158 C154 1_555 1_555
H133 C158 1_555 1_555
C159 C156 1_555 1_555
H134 C159 1_555 1_555
C160 C161 1_555 1_555
C161 H135 1_555 1_555
C162 C161 1_555 1_555
H136 C162 1_555 1_555
C163 C162 1_555 1_555
C164 C163 1_555 1_555
H137 C164 1_555 1_555
C165 C160 1_555 1_555
H138 C165 1_555 1_555
C166 C163 1_555 1_555
H139 C166 1_555 1_555
H140 C166 1_555 1_555
H141 C166 1_555 1_555
C167 C168 1_555 1_555
C168 H142 1_555 1_555
C169 C168 1_555 1_555
H143 C169 1_555 1_555
C170 C169 1_555 1_555
C171 C170 1_555 1_555
H144 C171 1_555 1_555
C172 C167 1_555 1_555
H145 C172 1_555 1_555
C173 C170 1_555 1_555
H146 C173 1_555 1_555
H147 C173 1_555 1_555
H148 C173 1_555 1_555
C174 C175 1_555 1_555
C175 H149 1_555 1_555
C176 C175 1_555 1_555
H150 C176 1_555 1_555
C177 C176 1_555 1_555
C178 C177 1_555 1_555
H151 C178 1_555 1_555
C179 C174 1_555 1_555
H152 C179 1_555 1_555
C180 C177 1_555 1_555
H153 C180 1_555 1_555
H154 C180 1_555 1_555
H155 C180 1_555 1_555
C181 H156 1_555 1_555
C182 C181 1_555 1_555
C183 H157 1_555 1_555
C184 C183 1_555 1_555
C185 C184 1_555 1_555
H158 C185 1_555 1_555
C186 C182 1_555 1_555
H159 C186 1_555 1_555
C187 C11 1_555 1_555
H160 C187 1_555 1_555
C188 C35 1_555 1_555
C189 C67 1_555 1_555
H161 C189 1_555 1_555
C190 H162 1_555 1_555
C191 C190 1_555 1_555
C192 H163 1_555 1_555
C193 C184 1_555 1_555
C194 C193 1_555 1_555
H164 C194 1_555 1_555
C195 C191 1_555 1_555
H165 C195 1_555 1_555
N1 C1 1_555 1_555
N2 C9 1_555 1_555
N3 C14 1_555 1_555
N4 C18 1_555 1_555
N5 C26 1_555 1_555
N6 C34 1_555 1_555
N7 C39 1_555 1_555
N8 C43 1_555 1_555
N9 C51 1_555 1_555
N10 C59 1_555 1_555
N11 C64 1_555 1_555
N12 C71 1_555 1_555
N13 C77 1_555 1_555
N14 C81 1_555 1_555
N15 C174 1_555 1_555
N16 C182 1_555 1_555
N17 C102 1_555 1_555
N18 C110 1_555 1_555
N19 C116 1_555 1_555
N20 C120 1_555 1_555
N21 C89 1_555 1_555
N22 C97 1_555 1_555
N23 C141 1_555 1_555
N24 C149 1_555 1_555
N25 C155 1_555 1_555
N26 C159 1_555 1_555
N27 C128 1_555 1_555
N28 C136 1_555 1_555
N29 C167 1_555 1_555
N30 C191 1_555 1_555
Ni1 N1 1_555 1_555
Ni2 N3 1_555 1_555
Ni3 N13 1_555 1_555
Ni4 N19 1_555 1_555
Ni5 N7 1_555 1_555
C196 C197 1_555 1_555
C197 H211 1_555 1_555
H212 C197 1_555 1_555
H213 C197 1_555 1_555
N31 C196 1_555 1_555
C198 C199 1_555 1_555
C199 H214 1_555 1_555
H215 C199 1_555 1_555
H216 C199 1_555 1_555
N32 C198 1_555 1_555
O1 Cl1 1_555 1_555
O2 Cl1 1_555 1_555
O3 Cl1 1_555 1_555
O4 Cl1 1_555 1_555
O5 Cl2 1_555 1_555
O6 Cl2 1_555 1_555
O7 Cl2 1_555 1_555
O8 Cl2 1_555 1_555
O9 Cl3 1_555 1_555
O10 Cl3 1_555 1_555
O11 Cl3 1_555 1_555
O12 Cl3 1_555 1_555
O13 Cl4 1_555 1_555
O14 Cl4 1_555 1_555
O15 Cl4 1_555 1_555
O16 Cl4 1_555 1_555
O17 Cl5 1_555 1_555
O18 Cl5 1_555 1_555
O19 Cl5 1_555 1_555
O20 Cl5 1_555 1_555
O21 Cl6 1_555 1_555
O22 Cl6 1_555 1_555
O23 Cl6 1_555 1_555
O24 Cl6 1_555 1_555
O25 Cl7 1_555 1_555
O26 Cl7 1_555 1_555
Cl7 O25A 1_555 1_555
O27 Cl8 1_555 1_555
O28 Cl8 1_555 1_555
O29 Cl8 1_555 1_555
O30 Cl8 1_555 1_555
C51A C52A 1_555 1_555
C52A H44A 1_555 1_555
C53A C52A 1_555 1_555
H45A C53A 1_555 1_555
C54A C53A 1_555 1_555
C55A C54A 1_555 1_555
H46A C55A 1_555 1_555
C56A C51A 1_555 1_555
H47A C56A 1_555 1_555
C57A C54A 1_555 1_555
H48A C57A 1_555 1_555
H49A C57A 1_555 1_555
H50A C57A 1_555 1_555
C58A H51A 1_555 1_555
C59A C58A 1_555 1_555
C60A H52A 1_555 1_555
C61A C61 1_555 1_555
C62A C61A 1_555 1_555
H53A C62A 1_555 1_555
C63A C59A 1_555 1_555
H54A C63A 1_555 1_555
N9A C51A 1_555 1_555
N10A C59A 1_555 1_555
C1A C2A 1_555 1_555
C2A H1A 1_555 1_555
C3A C2A 1_555 1_555
H2A C3A 1_555 1_555
C4A C3A 1_555 1_555
C5A C4A 1_555 1_555
H3A C5A 1_555 1_555
C6A C1A 1_555 1_555
H4A C6A 1_555 1_555
C7A C4A 1_555 1_555
H5A C7A 1_555 1_555
H6A C7A 1_555 1_555
H7A C7A 1_555 1_555
C8A H8A 1_555 1_555
C9A C8A 1_555 1_555
C10A H9A 1_555 1_555
C11A C10A 1_555 1_555
C12A C9A 1_555 1_555
H10A C12A 1_555 1_555
C13A C11A 1_555 1_555
C14A C13A 1_555 1_555
H11A C14A 1_555 1_555
C15A C16A 1_555 1_555
C16A H12A 1_555 1_555
C17A C13A 1_555 1_555
H13A C17A 1_555 1_555
C18A C15A 1_555 1_555
H14A C18A 1_555 1_555
C19A C20A 1_555 1_555
C20A H15A 1_555 1_555
C21A C20A 1_555 1_555
H16A C21A 1_555 1_555
C22A C21A 1_555 1_555
C23A C22A 1_555 1_555
H17A C23A 1_555 1_555
C24A C19A 1_555 1_555
H18A C24A 1_555 1_555
C25A C22A 1_555 1_555
H19A C25A 1_555 1_555
H20A C25A 1_555 1_555
H21A C25A 1_555 1_555
C26A C27A 1_555 1_555
C27A H22A 1_555 1_555
C28A C27A 1_555 1_555
H23A C28A 1_555 1_555
C29A C28A 1_555 1_555
C30A C29A 1_555 1_555
H24A C30A 1_555 1_555
C31A C26A 1_555 1_555
H25A C31A 1_555 1_555
C32A C29A 1_555 1_555
H26A C32A 1_555 1_555
H27A C32A 1_555 1_555
H28A C32A 1_555 1_555
C33A H29A 1_555 1_555
C34A C33A 1_555 1_555
C35A H30A 1_555 1_555
C36A H31A 1_555 1_555
C37A C34A 1_555 1_555
H32A C37A 1_555 1_555
C38A C39A 1_555 1_555
C39A H33A 1_555 1_555
C40A C41A 1_555 1_555
C41A H34A 1_555 1_555
C42A C38A 1_555 1_555
H35A C42A 1_555 1_555
C43A C40A 1_555 1_555
H36A C43A 1_555 1_555
C44A C45A 1_555 1_555
C45A H37A 1_555 1_555
C46A C45A 1_555 1_555
H38A C46A 1_555 1_555
C47A C46A 1_555 1_555
C48A C47A 1_555 1_555
H39A C48A 1_555 1_555
C49A C44A 1_555 1_555
H40A C49A 1_555 1_555
C50A C47A 1_555 1_555
H41A C50A 1_555 1_555
H42A C50A 1_555 1_555
H43A C50A 1_555 1_555
C64A C65A 1_555 1_555
C65A H55A 1_555 1_555
C66A C65A 1_555 1_555
H56A C66A 1_555 1_555
C67A C66A 1_555 1_555
C68A C64A 1_555 1_555
H57A C68A 1_555 1_555
C69A C67A 1_555 1_555
H58A C69A 1_555 1_555
H59A C69A 1_555 1_555
H60A C69A 1_555 1_555
C70A H61A 1_555 1_555
C71A C70A 1_555 1_555
C72A H62A 1_555 1_555
C73A C72A 1_555 1_555
C74A C73A 1_555 1_555
H63A C74A 1_555 1_555
C75A C71A 1_555 1_555
H64A C75A 1_555 1_555
C76A C73A 1_555 1_555
C77A C76A 1_555 1_555
H65A C77A 1_555 1_555
C78A C79A 1_555 1_555
C79A H66A 1_555 1_555
C80A C76A 1_555 1_555
H67A C80A 1_555 1_555
C81A C78A 1_555 1_555
H68A C81A 1_555 1_555
C82A C83A 1_555 1_555
C83A H69A 1_555 1_555
C84A C83A 1_555 1_555
H70A C84A 1_555 1_555
C85A C84A 1_555 1_555
C86A C85A 1_555 1_555
H71A C86A 1_555 1_555
C87A C82A 1_555 1_555
H72A C87A 1_555 1_555
C88A C85A 1_555 1_555
H73A C88A 1_555 1_555
H74A C88A 1_555 1_555
H75A C88A 1_555 1_555
C89A C90A 1_555 1_555
C90A H76A 1_555 1_555
C91A C90A 1_555 1_555
H77A C91A 1_555 1_555
C92A C91A 1_555 1_555
C93A C92A 1_555 1_555
H78A C93A 1_555 1_555
C94A C89A 1_555 1_555
H79A C94A 1_555 1_555
C95A C92A 1_555 1_555
H80A C95A 1_555 1_555
H81A C95A 1_555 1_555
H82A C95A 1_555 1_555
C96A H83A 1_555 1_555
C97A C96A 1_555 1_555
C98A H84A 1_555 1_555
C99A C98A 1_555 1_555
C100A C99A 1_555 1_555
H85A C100A 1_555 1_555
C101A C97A 1_555 1_555
H86A C101A 1_555 1_555
C102A C103A 1_555 1_555
C103A H87A 1_555 1_555
C104A C103A 1_555 1_555
H88A C104A 1_555 1_555
C105A C104A 1_555 1_555
C106A C105A 1_555 1_555
H89A C106A 1_555 1_555
C107A C102A 1_555 1_555
H90A C107A 1_555 1_555
C108A C105A 1_555 1_555
H91A C108A 1_555 1_555
H92A C108A 1_555 1_555
H93A C108A 1_555 1_555
C109A H94A 1_555 1_555
C110A C109A 1_555 1_555
C111A H95A 1_555 1_555
C112A C111A 1_555 1_555
C113A C112A 1_555 1_555
H96A C113A 1_555 1_555
C114A C110A 1_555 1_555
H97A C114A 1_555 1_555
C115A C112A 1_555 1_555
C116A C115A 1_555 1_555
H98A C116A 1_555 1_555
C117A C118A 1_555 1_555
C118A H99A 1_555 1_555
C119A C115A 1_555 1_555
H100A C119A 1_555 1_555
C120A C117A 1_555 1_555
H101A C120A 1_555 1_555
C121A C122A 1_555 1_555
C122A H102A 1_555 1_555
C123A C122A 1_555 1_555
H103A C123A 1_555 1_555
C124A C123A 1_555 1_555
C125A C124A 1_555 1_555
H104A C125A 1_555 1_555
C126A C121A 1_555 1_555
H105A C126A 1_555 1_555
C127A C124A 1_555 1_555
H106A C127A 1_555 1_555
H107A C127A 1_555 1_555
H108A C127A 1_555 1_555
C128A C129A 1_555 1_555
C129A H109A 1_555 1_555
C130A C129A 1_555 1_555
H110A C130A 1_555 1_555
C131A C130A 1_555 1_555
C132A C131A 1_555 1_555
H111A C132A 1_555 1_555
C133A C128A 1_555 1_555
H112A C133A 1_555 1_555
C134A C131A 1_555 1_555
H113A C134A 1_555 1_555
H114A C134A 1_555 1_555
H115A C134A 1_555 1_555
C135A H116A 1_555 1_555
C136A C135A 1_555 1_555
C137A H117A 1_555 1_555
C138A C99A 1_555 1_555
C139A C138A 1_555 1_555
H118A C139A 1_555 1_555
C140A C136A 1_555 1_555
H119A C140A 1_555 1_555
C141A C142A 1_555 1_555
C142A H120A 1_555 1_555
C143A C142A 1_555 1_555
H121A C143A 1_555 1_555
C144A C143A 1_555 1_555
C145A C144A 1_555 1_555
H122A C145A 1_555 1_555
C146A C141A 1_555 1_555
H123A C146A 1_555 1_555
C147A C144A 1_555 1_555
H124A C147A 1_555 1_555
H125A C147A 1_555 1_555
H126A C147A 1_555 1_555
C148A H127A 1_555 1_555
C149A C148A 1_555 1_555
C150A H128A 1_555 1_555
C151A C150A 1_555 1_555
C152A C151A 1_555 1_555
H129A C152A 1_555 1_555
C153A C149A 1_555 1_555
H130A C153A 1_555 1_555
C154A C151A 1_555 1_555
C155A C154A 1_555 1_555
H131A C155A 1_555 1_555
C156A C157A 1_555 1_555
C157A H132A 1_555 1_555
C158A C154A 1_555 1_555
H133A C158A 1_555 1_555
C159A C156A 1_555 1_555
H134A C159A 1_555 1_555
C160A C161A 1_555 1_555
C161A H135A 1_555 1_555
C162A C161A 1_555 1_555
H136A C162A 1_555 1_555
C163A C162A 1_555 1_555
C164A C163A 1_555 1_555
H137A C164A 1_555 1_555
C165A C160A 1_555 1_555
H138A C165A 1_555 1_555
C166A C163A 1_555 1_555
H139A C166A 1_555 1_555
H140A C166A 1_555 1_555
H141A C166A 1_555 1_555
C167A C168A 1_555 1_555
C168A H142A 1_555 1_555
C169A C168A 1_555 1_555
H143A C169A 1_555 1_555
C170A C169A 1_555 1_555
C171A C170A 1_555 1_555
H144A C171A 1_555 1_555
C172A C167A 1_555 1_555
H145A C172A 1_555 1_555
C173A C170A 1_555 1_555
H146A C173A 1_555 1_555
H147A C173A 1_555 1_555
H148A C173A 1_555 1_555
C174A C175A 1_555 1_555
C175A H149A 1_555 1_555
C176A C175A 1_555 1_555
H150A C176A 1_555 1_555
C177A C176A 1_555 1_555
C178A C177A 1_555 1_555
H151A C178A 1_555 1_555
C179A C174A 1_555 1_555
H152A C179A 1_555 1_555
C180A C177A 1_555 1_555
H153A C180A 1_555 1_555
H154A C180A 1_555 1_555
H155A C180A 1_555 1_555
C181A H156A 1_555 1_555
C182A C181A 1_555 1_555
C183A H157A 1_555 1_555
C184A C183A 1_555 1_555
C185A C184A 1_555 1_555
H158A C185A 1_555 1_555
C186A C182A 1_555 1_555
H159A C186A 1_555 1_555
C187A C11A 1_555 1_555
H160A C187A 1_555 1_555
C188A C35A 1_555 1_555
C189A C67A 1_555 1_555
H161A C189A 1_555 1_555
C190A H162A 1_555 1_555
C191A C190A 1_555 1_555
C192A H163A 1_555 1_555
C193A C184A 1_555 1_555
C194A C193A 1_555 1_555
H164A C194A 1_555 1_555
C195A C191A 1_555 1_555
H165A C195A 1_555 1_555
N1A C1A 1_555 1_555
N2A C9A 1_555 1_555
N3A C14A 1_555 1_555
N4A C18A 1_555 1_555
N5A C26A 1_555 1_555
N6A C34A 1_555 1_555
N7A C39A 1_555 1_555
N8A C43A 1_555 1_555
N11A C64A 1_555 1_555
N12A C71A 1_555 1_555
N13A C77A 1_555 1_555
N14A C81A 1_555 1_555
N15A Ni2 1_555 1_555
N16A Ni2 1_555 1_555
N17A C102A 1_555 1_555
N18A C110A 1_555 1_555
N19A C116A 1_555 1_555
N20A C120A 1_555 1_555
N21A C89A 1_555 1_555
N22A C97A 1_555 1_555
N23A C141A 1_555 1_555
N24A C149A 1_555 1_555
N25A C155A 1_555 1_555
N26A C159A 1_555 1_555
N27A Ni4 1_555 1_555
N28A Ni4 1_555 1_555
N29A C167A 1_555 1_555
N30A C191A 1_555 1_555
Ni1A N9A 1_555 1_555
Ni2A N15 1_555 1_555
Ni3A N13A 1_555 1_555
Ni4A N27 1_555 1_555
Ni5A N7A 1_555 1_555
O26A Cl7 1_555 1_555
C5 C6 1_555 1_555
C8 N1 1_555 1_555
C10 N2 1_555 1_555
C12 C187 1_555 1_555
C15 N3 1_555 1_555
C16 C17 1_555 1_555
C19 N4 1_555 1_555
C23 C24 1_555 1_555
C30 C31 1_555 1_555
C33 N5 1_555 1_555
C35 N6 1_555 1_555
C36 C37 1_555 1_555
C36 C188 1_555 1_555
C38 C188 1_555 1_555
C40 N7 1_555 1_555
C41 C42 1_555 1_555
C44 N8 1_555 1_555
C48 C49 1_555 1_555
C55 C56 1_555 1_555
C58 N9 1_555 1_555
C60 N10 1_555 1_555
C62 C63 1_555 1_555
C68 C189 1_555 1_555
C70 N11 1_555 1_555
C72 N12 1_555 1_555
C74 C75 1_555 1_555
C78 N13 1_555 1_555
C79 C80 1_555 1_555
C82 N14 1_555 1_555
C86 C87 1_555 1_555
C93 C94 1_555 1_555
C96 N21 1_555 1_555
C98 N22 1_555 1_555
C100 C101 1_555 1_555
C106 C107 1_555 1_555
C109 N17 1_555 1_555
C111 N18 1_555 1_555
C113 C114 1_555 1_555
C117 N19 1_555 1_555
C118 C119 1_555 1_555
C121 N20 1_555 1_555
C125 C126 1_555 1_555
C132 C133 1_555 1_555
C135 N27 1_555 1_555
C137 C138 1_555 1_555
C137 N28 1_555 1_555
C139 C140 1_555 1_555
C145 C146 1_555 1_555
C148 N23 1_555 1_555
C150 N24 1_555 1_555
C152 C153 1_555 1_555
C156 N25 1_555 1_555
C157 C158 1_555 1_555
C160 N26 1_555 1_555
C164 C165 1_555 1_555
C171 C172 1_555 1_555
C178 C179 1_555 1_555
C181 N15 1_555 1_555
C183 N16 1_555 1_555
C185 C186 1_555 1_555
C190 N29 1_555 1_555
C192 C193 1_555 1_555
C192 N30 1_555 1_555
C194 C195 1_555 1_555
N2 Ni1 1_555 1_555
N4 Ni2 1_555 1_555
N5 Ni1 1_555 1_555
N6 Ni1 1_555 1_555
N8 Ni5 1_555 1_555
N9 Ni1 1_555 1_555
N10 Ni1 1_555 1_555
N11 Ni2 1_555 1_555
N12 Ni2 1_555 1_555
N14 Ni3 1_555 1_555
N16 Ni2A 1_555 1_555
N17 Ni3 1_555 1_555
N18 Ni3 1_555 1_555
N20 Ni4 1_555 1_555
N21 Ni3 1_555 1_555
N22 Ni3 1_555 1_555
N23 Ni4 1_555 1_555
N24 Ni4 1_555 1_555
N25 Ni5 1_555 1_555
N26 Ni5 1_555 1_555
N28 Ni4A 1_555 1_555
N29 Ni5 1_555 1_555
N30 Ni5 1_555 1_555
C55A C56A 1_555 1_555
C58A N9A 1_555 1_555
C60A C61A 1_555 1_555
C60A N10A 1_555 1_555
C62A C63A 1_555 1_555
N10A Ni1A 1_555 1_555
C5A C6A 1_555 1_555
C8A N1A 1_555 1_555
C10A N2A 1_555 1_555
C12A C187A 1_555 1_555
C15A N3A 1_555 1_555
C16A C17A 1_555 1_555
C19A N4A 1_555 1_555
C23A C24A 1_555 1_555
C30A C31A 1_555 1_555
C33A N5A 1_555 1_555
C35A N6A 1_555 1_555
C36A C37A 1_555 1_555
C36A C188A 1_555 1_555
C38A C188A 1_555 1_555
C40A N7A 1_555 1_555
C41A C42A 1_555 1_555
C44A N8A 1_555 1_555
C48A C49A 1_555 1_555
C68A C189A 1_555 1_555
C70A N11A 1_555 1_555
C72A N12A 1_555 1_555
C74A C75A 1_555 1_555
C78A N13A 1_555 1_555
C79A C80A 1_555 1_555
C82A N14A 1_555 1_555
C86A C87A 1_555 1_555
C93A C94A 1_555 1_555
C96A N21A 1_555 1_555
C98A N22A 1_555 1_555
C100A C101A 1_555 1_555
C106A C107A 1_555 1_555
C109A N17A 1_555 1_555
C111A N18A 1_555 1_555
C113A C114A 1_555 1_555
C117A N19A 1_555 1_555
C118A C119A 1_555 1_555
C121A N20A 1_555 1_555
C125A C126A 1_555 1_555
C128A N27A 1_555 1_555
C132A C133A 1_555 1_555
C135A N27A 1_555 1_555
C136A N28A 1_555 1_555
C137A C138A 1_555 1_555
C137A N28A 1_555 1_555
C139A C140A 1_555 1_555
C145A C146A 1_555 1_555
C148A N23A 1_555 1_555
C150A N24A 1_555 1_555
C152A C153A 1_555 1_555
C156A N25A 1_555 1_555
C157A C158A 1_555 1_555
C160A N26A 1_555 1_555
C164A C165A 1_555 1_555
C171A C172A 1_555 1_555
C174A N15A 1_555 1_555
C178A C179A 1_555 1_555
C181A N15A 1_555 1_555
C182A N16A 1_555 1_555
C183A N16A 1_555 1_555
C185A C186A 1_555 1_555
C190A N29A 1_555 1_555
C192A C193A 1_555 1_555
C192A N30A 1_555 1_555
C194A C195A 1_555 1_555
N1A Ni1A 1_555 1_555
N2A Ni1A 1_555 1_555
N3A Ni2A 1_555 1_555
N4A Ni2A 1_555 1_555
N5A Ni1A 1_555 1_555
N6A Ni1A 1_555 1_555
N8A Ni5A 1_555 1_555
N11A Ni2A 1_555 1_555
N12A Ni2A 1_555 1_555
N14A Ni3A 1_555 1_555
N17A Ni3A 1_555 1_555
N18A Ni3A 1_555 1_555
N19A Ni4A 1_555 1_555
N20A Ni4A 1_555 1_555
N21A Ni3A 1_555 1_555
N22A Ni3A 1_555 1_555
N23A Ni4A 1_555 1_555
N24A Ni4A 1_555 1_555
N25A Ni5A 1_555 1_555
N26A Ni5A 1_555 1_555
N29A Ni5A 1_555 1_555
N30A Ni5A 1_555 1_555

#END
