
#######################################################################
#
#                 Cambridge Crystallographic Data Centre
#                                CCDC 
#
#######################################################################
#
# If this CIF has been generated from an entry in the Cambridge 
# Structural Database, then it will include bibliographic, chemical, 
# crystal, experimental, refinement or atomic coordinate data resulting 
# from the CCDC's data processing and validation procedures.
#
#######################################################################

data_XEXHUF
_chemical_formula_moiety         
'C390 H330 Co10 N60 20+,19(B1 F4 1-),Cl1 1-,15(C2 H3 N1),15(C4 H10 O1)'
_chemical_name_systematic        
"pentadecakis(\m~2~-N,N'-(3,3'-Bipyridine-6,6'-diyldimethylylidene)bis(4-methylaniline))-deca-cobalt nonadecakis(tetrafluoroborate) chloride acetonitrile diethyl ether solvate"
_symmetry_cell_setting           triclinic
_symmetry_space_group_name_H-M   'P -1'
_symmetry_Int_Tables_number      2
_space_group_name_Hall           '-P 1'
loop_
_symmetry_equiv_pos_site_id
_symmetry_equiv_pos_as_xyz
1 x,y,z
2 -x,-y,-z
_cell_length_a                   20.456(3)
_cell_length_b                   27.508(3)
_cell_length_c                   40.763(5)
_cell_angle_alpha                88.663(5)
_cell_angle_beta                 86.592(3)
_cell_angle_gamma                87.672(6)
_cell_volume                     22873
_exptl_crystal_colour            orange
_exptl_crystal_description       prism
_cell_formula_units_Z            2
loop_
_atom_site_label
_atom_site_type_symbol
_atom_site_fract_x
_atom_site_fract_y
_atom_site_fract_z
C1 C 0.5455(11) 0.6478(6) 0.4611(7)
C2 C 0.5277(10) 0.6332(8) 0.4932(6)
H1 H 0.5071 0.6559 0.5080
C3 C 0.5401(11) 0.5853(9) 0.5034(5)
H2 H 0.5279 0.5753 0.5253
C4 C 0.5702(11) 0.5521(6) 0.4816(7)
C5 C 0.5880(10) 0.5667(8) 0.4496(6)
H3 H 0.6087 0.5440 0.4347
C6 C 0.5757(11) 0.6146(9) 0.4393(5)
H4 H 0.5879 0.6246 0.4174
C7 C 0.591(2) 0.5035(14) 0.4936(11)
H5 H 0.5732 0.4988 0.5163
H6 H 0.6386 0.5005 0.4928
H7 H 0.5738 0.4789 0.4797
C8 C 0.5365(14) 0.7331(10) 0.4622(8)
H8 H 0.5577 0.7293 0.4823
C9 C 0.5171(10) 0.7790(6) 0.4535(6)
N1 N 0.4925(9) 0.7828(6) 0.4224(6)
C10 C 0.4803(9) 0.8283(8) 0.4081(4)
H9 H 0.4634 0.8309 0.3869
C11 C 0.4927(10) 0.8701(6) 0.4248(6)
C12 C 0.5174(10) 0.8664(7) 0.4558(6)
H10 H 0.5259 0.8949 0.4672
C13 C 0.5296(10) 0.8208(9) 0.4702(4)
H11 H 0.5464 0.8182 0.4914
C14 C 0.4796(10) 0.9183(6) 0.4089(6)
C15 C 0.5003(9) 0.9240(7) 0.3760(6)
H12 H 0.5225 0.8978 0.3647
N2 N 0.4886(9) 0.9681(9) 0.3596(4)
C16 C 0.4561(10) 1.0065(6) 0.3761(6)
C17 C 0.4354(10) 1.0008(7) 0.4090(6)
H13 H 0.4132 1.0270 0.4203
C18 C 0.4471(10) 0.9567(9) 0.4254(4)
H14 H 0.4329 0.9528 0.4479
C19 C 0.4467(14) 1.0522(10) 0.3626(8)
H15 H 0.4275 1.0785 0.3749
C20 C 0.4707(13) 1.1031(9) 0.3122(7)
C21 C 0.4861(13) 1.1453(12) 0.3276(5)
H16 H 0.4970 1.1440 0.3500
C22 C 0.4856(13) 1.1895(9) 0.3103(6)
H17 H 0.4962 1.2184 0.3209
C23 C 0.4697(13) 1.1914(8) 0.2776(6)
C24 C 0.4543(11) 1.1492(9) 0.2622(5)
H18 H 0.4434 1.1505 0.2399
C25 C 0.4548(11) 1.1050(8) 0.2795(7)
H19 H 0.4442 1.0761 0.2690
C26 C 0.480(3) 1.2370(19) 0.2577(13)
H20 H 0.4671 1.2321 0.2352
H21 H 0.5258 1.2452 0.2573
H22 H 0.4524 1.2636 0.2676
C27 C 0.3658(10) 0.7402(8) 0.4670(6)
C28 C 0.3482(11) 0.7873(9) 0.4570(5)
H23 H 0.3504 0.7960 0.4342
C29 C 0.3273(11) 0.8217(6) 0.4801(7)
H24 H 0.3152 0.8539 0.4733
C30 C 0.3240(11) 0.8089(8) 0.5134(6)
C31 C 0.3417(12) 0.7618(10) 0.5234(5)
H25 H 0.3395 0.7531 0.5462
C32 C 0.3626(10) 0.7275(6) 0.5002(7)
H26 H 0.3747 0.6953 0.5071
C33 C 0.3007(19) 0.8467(13) 0.5370(10)
H27 H 0.2993 0.8327 0.5594
H28 H 0.2567 0.8587 0.5318
H29 H 0.3307 0.8737 0.5355
C34 C 0.3778(14) 0.6608(10) 0.4449(8)
H30 H 0.3503 0.6498 0.4630
C35 C 0.4035(9) 0.6261(7) 0.4235(5)
N3 N 0.4470(10) 0.6423(5) 0.3985(5)
C36 C 0.4809(9) 0.6090(8) 0.3781(4)
H31 H 0.5107 0.6201 0.3610
C37 C 0.4713(9) 0.5595(7) 0.3826(5)
C38 C 0.4278(10) 0.5433(5) 0.4076(5)
H32 H 0.4212 0.5095 0.4107
C39 C 0.3939(9) 0.5766(8) 0.4281(5)
H33 H 0.3641 0.5655 0.4451
C40 C 0.5128(17) 0.5257(13) 0.3613(10)
C41 C 0.5115(14) 0.5384(10) 0.3265(8)
H34 H 0.4901 0.5677 0.3193
C42 C 0.5689(16) 0.4643(12) 0.3141(9)
C43 C 0.5749(16) 0.4542(12) 0.3517(9)
H35 H 0.5992 0.4265 0.3594
C44 C 0.5456(19) 0.4850(14) 0.3722(11)
H36 H 0.5473 0.4788 0.3952
C45 C 0.6077(18) 0.4355(13) 0.2891(11)
H37 H 0.6364 0.4089 0.2947
C46 C 0.6275(12) 0.4159(9) 0.2371(5)
C47 C 0.6103(11) 0.3675(10) 0.2368(6)
H38 H 0.5857 0.3539 0.2551
C48 C 0.6292(12) 0.3391(7) 0.2099(7)
H39 H 0.6174 0.3060 0.2097
C49 C 0.6652(12) 0.3590(9) 0.1833(6)
C50 C 0.6823(10) 0.4073(9) 0.1836(5)
H40 H 0.7069 0.4209 0.1653
C51 C 0.6635(11) 0.4358(6) 0.2105(7)
H41 H 0.6752 0.4688 0.2107
C52 C 0.690(2) 0.3312(14) 0.1500(11)
H42 H 0.6753 0.2976 0.1514
H43 H 0.7375 0.3311 0.1474
H44 H 0.6708 0.3480 0.1311
C53 C 0.2141(9) 0.7441(9) 0.3441(7)
C54 C 0.2401(12) 0.7746(8) 0.3662(6)
H45 H 0.2125 0.7979 0.3776
C55 C 0.3066(13) 0.7708(8) 0.3717(5)
H46 H 0.3244 0.7917 0.3868
C56 C 0.3470(9) 0.7366(9) 0.3550(7)
C57 C 0.3209(13) 0.7061(8) 0.3328(6)
H47 H 0.3485 0.6827 0.3214
C58 C 0.2545(14) 0.7098(8) 0.3274(6)
H48 H 0.2366 0.6890 0.3123
C59 C 0.1467(18) 0.7558(13) 0.3343(10)
H49 H 0.1346 0.7321 0.3183
H50 H 0.1447 0.7886 0.3243
H51 H 0.1162 0.7546 0.3537
C60 C 0.4500(18) 0.7257(11) 0.3343(11)
H52 H 0.4306 0.7271 0.3137
C61 C 0.5222(8) 0.7203(6) 0.3363(6)
N4 N 0.5438(10) 0.7181(5) 0.3681(5)
C62 C 0.6105(11) 0.7135(6) 0.3729(5)
H53 H 0.6252 0.7120 0.3946
C63 C 0.6555(8) 0.7112(6) 0.3460(7)
C64 C 0.6340(12) 0.7134(7) 0.3143(5)
H54 H 0.6648 0.7118 0.2960
C65 C 0.5673(13) 0.7180(7) 0.3095(4)
H55 H 0.5525 0.7195 0.2878
C66 C 0.7279(8) 0.7025(7) 0.3530(6)
C67 C 0.7479(11) 0.6778(6) 0.3810(5)
H56 H 0.7163 0.6653 0.3966
N5 N 0.8143(12) 0.6715(6) 0.3862(4)
C68 C 0.8606(8) 0.6898(7) 0.3634(6)
C69 C 0.8406(11) 0.7145(7) 0.3354(5)
H57 H 0.8722 0.7271 0.3198
C70 C 0.7742(13) 0.7209(6) 0.3302(4)
H58 H 0.7605 0.7378 0.3110
C71 C 0.9268(17) 0.6821(12) 0.3690(10)
H59 H 0.9601 0.6942 0.3542
C72 C 1.0098(11) 0.6497(9) 0.3999(9)
C73 C 1.0340(14) 0.6618(8) 0.4297(7)
H60 H 1.0048 0.6732 0.4471
C74 C 1.1009(16) 0.6573(8) 0.4340(6)
H61 H 1.1175 0.6656 0.4543
C75 C 1.1436(11) 0.6408(9) 0.4085(9)
C76 C 1.1194(17) 0.6286(9) 0.3787(7)
H62 H 1.1486 0.6173 0.3613
C77 C 1.0525(18) 0.6331(10) 0.3744(6)
H63 H 1.0359 0.6248 0.3541
C78 C 1.214(2) 0.6374(16) 0.4202(12)
H64 H 1.2139 0.6480 0.4430
H65 H 1.2422 0.6585 0.4062
H66 H 1.2315 0.6037 0.4189
C79 C 0.6071(10) 1.0345(9) 0.3767(4)
C80 C 0.5900(10) 1.0772(7) 0.3932(6)
H67 H 0.5843 1.1069 0.3812
C81 C 0.5813(11) 1.0765(8) 0.4273(6)
H68 H 0.5696 1.1057 0.4385
C82 C 0.5897(11) 1.0330(10) 0.4449(4)
C83 C 0.6067(11) 0.9902(7) 0.4284(6)
H69 H 0.6125 0.9605 0.4404
C84 C 0.6155(10) 0.9910(7) 0.3943(6)
H70 H 0.6271 0.9618 0.3830
C85 C 0.5825(18) 1.0340(12) 0.4809(9)
H71 H 0.5894 1.0010 0.4899
H72 H 0.5384 1.0464 0.4877
H73 H 0.6150 1.0552 0.4890
C86 C 0.6263(18) 1.0697(14) 0.3263(9)
H74 H 0.6471 1.0947 0.3369
C87 C 0.6220(11) 1.0696(8) 0.2910(5)
N6 N 0.5832(9) 1.0345(6) 0.2790(5)
C88 C 0.5754(9) 1.0322(6) 0.2455(6)
H75 H 0.5489 1.0082 0.2373
C89 C 0.6063(12) 1.0650(9) 0.2239(4)
C90 C 0.6450(11) 1.1002(7) 0.2359(7)
H76 H 0.6661 1.1226 0.2212
C91 C 0.6529(9) 1.1025(7) 0.2694(7)
H77 H 0.6793 1.1265 0.2776
C92 C 0.5966(11) 1.0656(10) 0.1899(5)
C93 C 0.6022(9) 1.0204(7) 0.1751(6)
H78 H 0.6132 0.9921 0.1877
N7 N 0.5919(10) 1.0168(7) 0.1419(6)
C94 C 0.5759(11) 1.0583(10) 0.1234(4)
C95 C 0.5703(11) 1.1034(7) 0.1383(7)
H79 H 0.5594 1.1318 0.1257
C96 C 0.5806(11) 1.1070(7) 0.1715(7)
H80 H 0.5768 1.1379 0.1816
C97 C 0.5681(15) 1.0422(13) 0.0896(8)
H81 H 0.5545 1.0674 0.0749
C98 C 0.5771(11) 0.9994(9) 0.0443(5)
C99 C 0.6117(10) 1.0297(7) 0.0224(7)
H82 H 0.6304 1.0580 0.0300
C100 C 0.6188(10) 1.0185(8) -0.0107(6)
H83 H 0.6425 1.0392 -0.0257
C101 C 0.5914(11) 0.9771(9) -0.0220(5)
C102 C 0.5568(10) 0.9468(6) 0.0000(7)
H84 H 0.5380 0.9184 -0.0077
C103 C 0.5496(10) 0.9579(8) 0.0331(6)
H85 H 0.5260 0.9372 0.0481
C104 C 0.5957(18) 0.9603(12) -0.0589(9)
H86 H 0.6212 0.9834 -0.0725
H87 H 0.5515 0.9593 -0.0667
H88 H 0.6172 0.9278 -0.0602
C105 C 0.4098(9) 0.9647(7) 0.2761(7)
C106 C 0.3909(13) 0.9613(7) 0.2441(6)
H89 H 0.4227 0.9538 0.2268
C107 C 0.3254(15) 0.9689(8) 0.2373(6)
H90 H 0.3125 0.9666 0.2154
C108 C 0.2789(10) 0.9800(8) 0.2626(8)
C109 C 0.2978(12) 0.9834(8) 0.2946(7)
H91 H 0.2660 0.9909 0.3119
C110 C 0.3633(14) 0.9757(7) 0.3014(5)
H92 H 0.3762 0.9780 0.3233
C111 C 0.205(2) 0.9869(14) 0.2560(11)
H93 H 0.1802 0.9946 0.2766
H94 H 0.1897 0.9568 0.2473
H95 H 0.1993 1.0136 0.2400
C112 C 0.4998(16) 0.9108(11) 0.2794(8)
H96 H 0.4769 0.8874 0.2684
C113 C 0.5661(19) 0.9003(13) 0.2901(9)
C114 C 0.6618(16) 0.9291(11) 0.3112(8)
H97 H 0.6851 0.9549 0.3194
C115 C 0.6926(15) 0.8842(11) 0.3045(8)
C116 C 0.6616(15) 0.8477(11) 0.2910(7)
H98 H 0.6839 0.8169 0.2895
C117 C 0.5973(17) 0.8526(12) 0.2788(9)
H99 H 0.5777 0.8296 0.2658
C118 C 0.7622(8) 0.8786(8) 0.3122(5)
C119 C 0.7838(9) 0.9054(6) 0.3377(5)
H100 H 0.7545 0.9279 0.3489
N8 N 0.8481(10) 0.8993(6) 0.3466(4)
C120 C 0.8909(7) 0.8664(7) 0.3301(5)
C121 C 0.8693(10) 0.8396(6) 0.3047(5)
H101 H 0.8985 0.8171 0.2934
C122 C 0.8049(11) 0.8457(7) 0.2957(4)
H102 H 0.7902 0.8274 0.2783
C123 C 0.9567(15) 0.8544(11) 0.3442(8)
H103 H 0.9879 0.8308 0.3356
C124 C 1.0121(13) 0.8598(12) 0.3886(7)
C125 C 1.0594(16) 0.8926(9) 0.3950(8)
H104 H 1.0543 0.9257 0.3882
C126 C 1.1142(14) 0.8769(8) 0.4115(8)
H105 H 1.1466 0.8993 0.4159
C127 C 1.1218(12) 0.8284(8) 0.4215(7)
C128 C 1.0744(13) 0.7957(8) 0.4150(7)
H106 H 1.0796 0.7626 0.4219
C129 C 1.0196(12) 0.8114(11) 0.3986(7)
H107 H 0.9872 0.7890 0.3942
C130 C 1.181(2) 0.8115(13) 0.4436(12)
H108 H 1.1797 0.7763 0.4481
H109 H 1.1768 0.8287 0.4645
H110 H 1.2228 0.8190 0.4320
C131 C 0.7366(10) 1.0330(7) 0.1076(6)
C132 C 0.7445(10) 1.0740(9) 0.0874(4)
H111 H 0.7388 1.0722 0.0645
C133 C 0.7607(10) 1.1177(7) 0.1006(6)
H112 H 0.7661 1.1458 0.0868
C134 C 0.7690(10) 1.1204(7) 0.1341(6)
C135 C 0.7611(10) 1.0794(9) 0.1543(5)
H113 H 0.7668 1.0813 0.1772
C136 C 0.7449(10) 1.0358(7) 0.1411(6)
H114 H 0.7395 1.0077 0.1549
C137 C 0.7816(18) 1.1747(12) 0.1482(10)
H115 H 0.7862 1.1724 0.1720
H116 H 0.7443 1.1969 0.1436
H117 H 0.8217 1.1873 0.1374
C138 C 0.7361(18) 0.9769(12) 0.0678(10)
H118 H 0.7682 0.9950 0.0557
C139 C 0.7091(10) 0.9328(5) 0.0544(6)
N9 N 0.6627(10) 0.9098(7) 0.0750(4)
C140 C 0.6373(8) 0.8665(7) 0.0656(5)
H119 H 0.6056 0.8507 0.0796
C141 C 0.6582(10) 0.8462(6) 0.0356(6)
C142 C 0.7046(10) 0.8693(8) 0.0151(4)
H120 H 0.7189 0.8554 -0.0053
C143 C 0.7301(9) 0.9126(8) 0.0245(5)
H121 H 0.7618 0.9283 0.0105
C144 C 0.6373(15) 0.8031(11) 0.0240(9)
C145 C 0.6279(14) 0.7636(12) 0.0477(9)
H122 H 0.6339 0.7713 0.0699
C146 C 0.5940(18) 0.7100(15) 0.0121(11)
C147 C 0.5938(16) 0.7455(13) -0.0140(10)
H123 H 0.5796 0.7398 -0.0353
C148 C 0.6171(15) 0.7900(12) -0.0042(9)
H124 H 0.6184 0.8147 -0.0209
C149 C 0.5786(16) 0.6640(13) 0.0028(10)
H125 H 0.5670 0.6569 -0.0188
C150 C 0.5784(11) 0.5789(6) 0.0183(6)
C151 C 0.6178(11) 0.5613(8) -0.0081(5)
H126 H 0.6409 0.5832 -0.0224
C152 C 0.6235(10) 0.5115(9) -0.0135(5)
H127 H 0.6504 0.4995 -0.0315
C153 C 0.5897(12) 0.4795(6) 0.0075(6)
C154 C 0.5503(11) 0.4971(8) 0.0339(6)
H128 H 0.5272 0.4752 0.0482
C155 C 0.5446(10) 0.5469(9) 0.0393(5)
H129 H 0.5177 0.5589 0.0573
C156 C 0.5952(18) 0.4246(12) 0.0017(10)
H130 H 0.5683 0.4076 0.0186
H131 H 0.6411 0.4131 0.0027
H132 H 0.5799 0.4179 -0.0200
C157 C 0.4722(10) 0.9265(9) 0.1267(7)
C158 C 0.4351(13) 0.9632(8) 0.1428(5)
H133 H 0.4540 0.9818 0.1589
C159 C 0.3704(12) 0.9728(8) 0.1352(6)
H134 H 0.3451 0.9979 0.1461
C160 C 0.3428(10) 0.9457(10) 0.1116(7)
C161 C 0.3798(14) 0.9089(9) 0.0956(6)
H135 H 0.3610 0.8904 0.0795
C162 C 0.4445(14) 0.8993(8) 0.1032(6)
H136 H 0.4699 0.8742 0.0922
C163 C 0.268(2) 0.9591(17) 0.1045(13)
H137 H 0.2520 0.9859 0.1185
H138 H 0.2419 0.9306 0.1091
H139 H 0.2658 0.9692 0.0813
C164 C 0.5494(18) 0.8902(12) 0.1589(10)
H140 H 0.5153 0.8747 0.1714
C165 C 0.6199(19) 0.8846(12) 0.1673(10)
C166 C 0.7244(15) 0.9016(10) 0.1556(8)
H141 H 0.7573 0.9189 0.1434
C167 C 0.7427(15) 0.8715(10) 0.1804(8)
C168 C 0.6967(17) 0.8458(11) 0.2006(8)
H142 H 0.7096 0.8234 0.2174
C169 C 0.6336(16) 0.8550(10) 0.1944(8)
H143 H 0.5993 0.8418 0.2081
C170 C 0.8132(16) 0.8695(11) 0.1872(8)
C171 C 0.865(2) 0.9071(13) 0.1792(9)
H144 H 0.8523 0.9363 0.1680
C172 C 0.9443(18) 0.8582(14) 0.2001(9)
C173 C 0.9024(19) 0.8222(13) 0.2082(8)
H145 H 0.9179 0.7934 0.2191
C174 C 0.8390(17) 0.8269(12) 0.2011(8)
H146 H 0.8112 0.8004 0.2056
C175 C 1.0161(15) 0.8530(11) 0.2068(7)
H147 H 1.0362 0.8242 0.2156
C176 C 1.1206(9) 0.8851(9) 0.2024(7)
C177 C 1.1653(14) 0.9072(7) 0.1804(5)
H148 H 1.1503 0.9306 0.1647
C178 C 1.2318(12) 0.8952(8) 0.1814(6)
H149 H 1.2623 0.9104 0.1664
C179 C 1.2536(9) 0.8611(9) 0.2043(7)
C180 C 1.2090(14) 0.8389(7) 0.2263(5)
H150 H 1.2239 0.8156 0.2420
C181 C 1.1424(13) 0.8509(8) 0.2253(5)
H151 H 1.1119 0.8358 0.2404
C182 C 1.3310(18) 0.8520(13) 0.2051(10)
H152 H 1.3530 0.8727 0.1883
H153 H 1.3424 0.8178 0.2007
H154 H 1.3451 0.8601 0.2269
C183 C 0.7506(10) 0.6566(8) 0.0203(6)
C184 C 0.7621(11) 0.6385(7) -0.0111(7)
H155 H 0.7531 0.6056 -0.0153
C185 C 0.7868(11) 0.6683(10) -0.0365(5)
H156 H 0.7946 0.6559 -0.0580
C186 C 0.8000(12) 0.7163(9) -0.0304(6)
C187 C 0.7885(11) 0.7345(6) 0.0010(7)
H157 H 0.7975 0.7674 0.0051
C188 C 0.7638(10) 0.7047(9) 0.0264(5)
H158 H 0.7560 0.7171 0.0479
C189 C 0.827(2) 0.7495(15) -0.0576(11)
H159 H 0.8314 0.7320 -0.0784
H160 H 0.8708 0.7597 -0.0522
H161 H 0.7980 0.7783 -0.0599
C190 C 0.7229(15) 0.5846(12) 0.0480(8)
H162 H 0.7536 0.5691 0.0329
C191 C 0.6886(17) 0.5559(14) 0.0733(9)
C192 C 0.6077(16) 0.5609(13) 0.1148(9)
H163 H 0.5803 0.5794 0.1298
C193 C 0.6125(18) 0.5122(15) 0.1202(9)
C194 C 0.6510(19) 0.4839(14) 0.1050(9)
H164 H 0.6517 0.4496 0.1085
C195 C 0.697(2) 0.5089(15) 0.0806(10)
H165 H 0.7320 0.4907 0.0702
C196 C 0.5698(10) 0.4942(8) 0.1479(5)
C197 C 0.5626(10) 0.5158(6) 0.1785(7)
H166 H 0.5825 0.5457 0.1819
N10 N 0.5262(11) 0.4936(9) 0.2041(5)
C198 C 0.4970(10) 0.4498(9) 0.1992(6)
C199 C 0.5043(10) 0.4282(6) 0.1686(7)
H167 H 0.4844 0.3982 0.1652
C200 C 0.5407(11) 0.4504(8) 0.1430(5)
H168 H 0.5457 0.4356 0.1221
C201 C 0.4617(17) 0.4345(12) 0.2250(10)
H169 H 0.4318 0.4096 0.2223
C202 C 0.4310(11) 0.4290(10) 0.2866(5)
C203 C 0.4029(12) 0.4599(7) 0.3104(7)
H170 H 0.4024 0.4941 0.3068
C204 C 0.3755(13) 0.4406(12) 0.3397(6)
H171 H 0.3563 0.4617 0.3560
C205 C 0.3762(15) 0.3905(13) 0.3451(7)
C206 C 0.4043(15) 0.3597(8) 0.3212(9)
H172 H 0.4047 0.3254 0.3249
C207 C 0.4317(12) 0.3789(9) 0.2919(7)
H173 H 0.4509 0.3578 0.2756
C208 C 0.358(3) 0.373(2) 0.3786(15)
H174 H 0.3602 0.3371 0.3792
H175 H 0.3127 0.3842 0.3848
H176 H 0.3876 0.3851 0.3940
C209 C 0.4712(10) 0.6915(10) 0.0889(6)
C210 C 0.4464(12) 0.7379(8) 0.0813(6)
H177 H 0.4697 0.7656 0.0866
C211 C 0.3875(13) 0.7438(7) 0.0661(6)
H178 H 0.3706 0.7756 0.0609
C212 C 0.3534(10) 0.7033(10) 0.0584(6)
C213 C 0.3782(13) 0.6569(8) 0.0660(6)
H179 H 0.3549 0.6292 0.0607
C214 C 0.4371(13) 0.6509(7) 0.0812(6)
H180 H 0.4540 0.6192 0.0864
C215 C 0.282(2) 0.7145(14) 0.0397(11)
H181 H 0.2620 0.6836 0.0355
H182 H 0.2908 0.7321 0.0188
H183 H 0.2518 0.7343 0.0540
C216 C 0.5452(13) 0.7093(9) 0.1238(7)
H184 H 0.5138 0.7322 0.1331
C217 C 0.6123(16) 0.6998(10) 0.1331(8)
C218 C 0.7234(16) 0.6762(10) 0.1205(8)
H185 H 0.7540 0.6573 0.1072
C219 C 0.7437(16) 0.6957(10) 0.1478(8)
C220 C 0.6961(17) 0.7227(10) 0.1680(8)
H186 H 0.7085 0.7392 0.1867
C221 C 0.6358(17) 0.7241(10) 0.1600(8)
H187 H 0.6048 0.7428 0.1732
C222 C 0.8118(17) 0.6926(10) 0.1542(9)
C223 C 0.8641(15) 0.6875(9) 0.1294(8)
H188 H 0.8521 0.6863 0.1073
C224 C 0.9503(16) 0.6885(10) 0.1631(9)
C225 C 0.9037(18) 0.6881(11) 0.1915(10)
H189 H 0.9173 0.6839 0.2133
C226 C 0.8366(16) 0.6945(9) 0.1847(9)
H190 H 0.8062 0.7006 0.2028
C227 C 1.0195(16) 0.6857(9) 0.1673(9)
H191 H 1.0376 0.6805 0.1881
C228 C 1.1218(9) 0.6905(8) 0.1462(6)
C229 C 1.1681(14) 0.6695(7) 0.1240(5)
H192 H 1.1544 0.6511 0.1064
C230 C 1.2345(12) 0.6753(9) 0.1276(6)
H193 H 1.2661 0.6609 0.1124
C231 C 1.2545(9) 0.7022(10) 0.1534(8)
C232 C 1.2082(14) 0.7232(8) 0.1756(6)
H194 H 1.2219 0.7416 0.1932
C233 C 1.1418(12) 0.7174(7) 0.1720(5)
H195 H 1.1102 0.7318 0.1872
C234 C 1.3319(16) 0.7048(12) 0.1594(9)
H196 H 1.3576 0.6876 0.1419
H197 H 1.3409 0.6894 0.1807
H198 H 1.3441 0.7389 0.1593
C235 C 0.3994(8) 0.5883(8) 0.2451(5)
C236 C 0.3704(10) 0.6342(7) 0.2504(5)
H199 H 0.3969 0.6615 0.2519
C237 C 0.3025(11) 0.6402(6) 0.2534(5)
H200 H 0.2827 0.6716 0.2570
C238 C 0.2637(7) 0.6003(8) 0.2511(5)
C239 C 0.2927(10) 0.5543(6) 0.2458(5)
H201 H 0.2661 0.5270 0.2442
C240 C 0.3606(11) 0.5483(6) 0.2428(5)
H202 H 0.3804 0.5169 0.2392
C241 C 0.1875(19) 0.6107(14) 0.2532(11)
H203 H 0.1781 0.6454 0.2571
H204 H 0.1675 0.5914 0.2714
H205 H 0.1694 0.6019 0.2326
C242 C 0.5115(17) 0.6145(12) 0.2340(8)
H206 H 0.4951 0.6427 0.2229
C243 C 0.5800(16) 0.6057(13) 0.2398(8)
C244 C 0.6628(19) 0.5599(12) 0.2544(8)
H207 H 0.6813 0.5285 0.2592
C245 C 0.7054(14) 0.5970(11) 0.2510(7)
C246 C 0.6778(15) 0.6402(11) 0.2398(7)
H208 H 0.7057 0.6667 0.2352
C247 C 0.6132(17) 0.6471(12) 0.2350(8)
H209 H 0.5933 0.6775 0.2290
C248 C 0.7749(7) 0.5867(7) 0.2561(5)
C249 C 0.8040(9) 0.5408(6) 0.2509(4)
H210 H 0.7781 0.5146 0.2453
N11 N 0.8711(9) 0.5332(5) 0.2537(4)
C250 C 0.9090(7) 0.5714(7) 0.2618(5)
C251 C 0.8799(10) 0.6173(6) 0.2670(5)
H211 H 0.9058 0.6435 0.2726
C252 C 0.8128(10) 0.6250(5) 0.2642(5)
H212 H 0.7929 0.6563 0.2678
C253 C 0.9770(16) 0.5583(12) 0.2669(8)
H213 H 1.0067 0.5798 0.2754
C254 C 1.0588(10) 0.4949(7) 0.2643(8)
C255 C 1.0987(15) 0.4761(9) 0.2384(6)
H214 H 1.0846 0.4783 0.2166
C256 C 1.1592(13) 0.4539(8) 0.2445(7)
H215 H 1.1865 0.4411 0.2268
C257 C 1.1798(10) 0.4507(8) 0.2764(9)
C258 C 1.1399(16) 0.4695(10) 0.3022(6)
H216 H 1.1540 0.4673 0.3240
C259 C 1.0794(14) 0.4916(8) 0.2962(6)
H217 H 1.0522 0.5045 0.3138
C260 C 1.249(2) 0.4230(15) 0.2798(12)
H218 H 1.2666 0.4128 0.2581
H219 H 1.2434 0.3943 0.2943
H220 H 1.2791 0.4448 0.2892
C261 C 0.9088(11) 0.5595(6) 0.4778(6)
C262 C 0.9485(10) 0.5335(9) 0.4550(5)
H221 H 0.9706 0.5501 0.4372
C263 C 0.9559(10) 0.4832(9) 0.4582(6)
H222 H 0.9830 0.4654 0.4426
C264 C 0.9235(13) 0.4589(6) 0.4843(7)
C265 C 0.8839(12) 0.4849(9) 0.5071(5)
H223 H 0.8618 0.4683 0.5250
C266 C 0.8765(10) 0.5352(9) 0.5039(5)
H224 H 0.8494 0.5530 0.5195
C267 C 0.927(2) 0.4062(13) 0.4872(11)
H225 H 0.9571 0.3930 0.4697
H226 H 0.8833 0.3936 0.4851
H227 H 0.9429 0.3963 0.5086
C268 C 0.8896(14) 0.6410(11) 0.4927(9)
H228 H 0.8956 0.6282 0.5142
C269 C 0.8741(10) 0.6931(6) 0.4898(7)
N12 N 0.8665(10) 0.7033(7) 0.4566(6)
C270 C 0.8495(10) 0.7503(9) 0.4462(5)
H229 H 0.8444 0.7572 0.4236
C271 C 0.8401(11) 0.7872(6) 0.4689(7)
C272 C 0.8477(11) 0.7771(8) 0.5021(6)
H230 H 0.8413 0.8023 0.5176
C273 C 0.8647(11) 0.7300(10) 0.5125(5)
H231 H 0.8699 0.7231 0.5352
C274 C 0.8223(12) 0.8364(6) 0.4603(6)
C275 C 0.8548(9) 0.8537(8) 0.4317(6)
H232 H 0.8882 0.8341 0.4208
N13 N 0.8386(10) 0.8998(8) 0.4192(4)
C276 C 0.7897(11) 0.9285(6) 0.4352(6)
C277 C 0.7571(9) 0.9112(9) 0.4637(6)
H233 H 0.7237 0.9308 0.4747
C278 C 0.7734(12) 0.8651(9) 0.4763(5)
H234 H 0.7511 0.8533 0.4958
C279 C 0.7787(16) 0.9759(10) 0.4177(8)
H235 H 0.7448 0.9975 0.4261
C280 C 0.7973(11) 1.0330(8) 0.3799(6)
C281 C 0.7970(10) 1.0355(7) 0.3458(6)
H236 H 0.8015 1.0066 0.3334
C282 C 0.7902(10) 1.0804(9) 0.3297(5)
H237 H 0.7900 1.0822 0.3064
C283 C 0.7837(11) 1.1228(7) 0.3478(7)
C284 C 0.7840(11) 1.1203(8) 0.3819(6)
H238 H 0.7795 1.1492 0.3942
C285 C 0.7908(11) 1.0754(11) 0.3979(5)
H239 H 0.7910 1.0736 0.4212
C286 C 0.7773(18) 1.1741(12) 0.3346(9)
H240 H 0.7770 1.1738 0.3106
H241 H 0.8144 1.1925 0.3410
H242 H 0.7363 1.1895 0.3437
C287 C 0.7267(10) 0.6513(8) 0.4807(7)
C288 C 0.7106(11) 0.6994(9) 0.4722(5)
H243 H 0.7170 0.7105 0.4500
C289 C 0.6852(11) 0.7312(7) 0.4961(8)
H244 H 0.6742 0.7641 0.4903
C290 C 0.6758(13) 0.7150(10) 0.5286(7)
C291 C 0.6919(14) 0.6669(12) 0.5370(5)
H245 H 0.6855 0.6558 0.5592
C292 C 0.7173(13) 0.6351(7) 0.5131(8)
H246 H 0.7283 0.6022 0.5189
C293 C 0.648(3) 0.7433(17) 0.5589(13)
H247 H 0.6350 0.7766 0.5522
H248 H 0.6811 0.7441 0.5752
H249 H 0.6092 0.7270 0.5687
C294 C 0.7494(17) 0.5846(13) 0.4527(9)
H250 H 0.7124 0.5755 0.4662
C295 C 0.7803(12) 0.5474(9) 0.4333(5)
N14 N 0.8279(12) 0.5671(6) 0.4117(6)
C296 C 0.8605(11) 0.5381(10) 0.3880(6)
H251 H 0.8931 0.5515 0.3733
C297 C 0.8455(13) 0.4895(9) 0.3858(6)
C298 C 0.7979(14) 0.4698(6) 0.4074(7)
H252 H 0.7877 0.4366 0.4059
C299 C 0.7653(11) 0.4988(10) 0.4311(6)
H253 H 0.7328 0.4854 0.4459
C300 C 0.8810(11) 0.4593(10) 0.3593(5)
C301 C 0.8863(9) 0.4779(6) 0.3273(6)
H254 H 0.8680 0.5093 0.3224
N15 N 0.9183(10) 0.4505(8) 0.3026(4)
C302 C 0.9450(11) 0.4045(8) 0.3098(6)
C303 C 0.9398(13) 0.3859(7) 0.3418(8)
H255 H 0.9581 0.3545 0.3468
C304 C 0.9078(14) 0.4133(10) 0.3666(5)
H256 H 0.9042 0.4006 0.3885
C305 C 0.969(2) 0.3727(16) 0.2861(12)
H257 H 0.9843 0.3402 0.2904
C306 C 0.9916(13) 0.3644(11) 0.2277(7)
C307 C 1.0241(13) 0.3824(8) 0.1993(8)
H258 H 1.0343 0.4158 0.1976
C308 C 1.0417(13) 0.3515(13) 0.1735(6)
H259 H 1.0639 0.3638 0.1541
C309 C 1.0268(14) 0.3026(11) 0.1760(7)
C310 C 0.9943(16) 0.2847(8) 0.2044(10)
H260 H 0.9841 0.2513 0.2062
C311 C 0.9767(13) 0.3156(12) 0.2303(7)
H261 H 0.9545 0.3033 0.2497
C312 C 1.059(2) 0.2693(16) 0.1461(12)
H262 H 1.0455 0.2356 0.1496
H263 H 1.1064 0.2704 0.1455
H264 H 1.0428 0.2820 0.1252
C313 C 0.9305(13) 0.9913(12) 0.4483(5)
C314 C 0.9051(13) 1.0332(9) 0.4637(8)
H265 H 0.8967 1.0620 0.4510
C315 C 0.8919(12) 1.0329(9) 0.4975(8)
H266 H 0.8745 1.0614 0.5080
C316 C 0.9041(12) 0.9907(12) 0.5160(5)
C317 C 0.9294(12) 0.9489(8) 0.5006(8)
H267 H 0.9378 0.9201 0.5133
C318 C 0.9427(12) 0.9492(9) 0.4668(8)
H268 H 0.9600 0.9206 0.4563
C319 C 0.896(2) 0.9896(14) 0.5538(11)
H269 H 0.9060 0.9567 0.5622
H270 H 0.8501 0.9989 0.5606
H271 H 0.9250 1.0125 0.5627
C320 C 0.966(2) 1.0220(16) 0.3993(11)
H272 H 0.9861 1.0460 0.4114
C321 C 0.9681(10) 1.0236(9) 0.3646(4)
N16 N 0.9382(9) 0.9873(6) 0.3484(6)
C322 C 0.9320(9) 0.9912(7) 0.3146(6)
H273 H 0.9117 0.9664 0.3036
C323 C 0.9557(11) 1.0313(9) 0.2971(4)
C324 C 0.9856(10) 1.0676(7) 0.3132(6)
H274 H 1.0017 1.0951 0.3012
C325 C 0.9917(9) 1.0637(7) 0.3470(7)
H275 H 1.0121 1.0885 0.3580
C326 C 0.9482(11) 1.0332(9) 0.2619(4)
C327 C 0.9647(9) 0.9957(6) 0.2403(6)
H276 H 0.9813 0.9653 0.2484
N17 N 0.9568(10) 1.0027(7) 0.2068(6)
C328 C 0.9325(11) 1.0472(9) 0.1950(4)
C329 C 0.9160(10) 1.0847(6) 0.2166(7)
H277 H 0.8993 1.1151 0.2085
C330 C 0.9238(10) 1.0777(7) 0.2500(6)
H278 H 0.9125 1.1033 0.2648
C331 C 0.9191(13) 1.0435(11) 0.1608(7)
H279 H 0.9012 1.0711 0.1496
C332 C 0.9232(9) 1.0065(8) 0.1110(4)
C333 C 0.8986(9) 0.9659(6) 0.0970(6)
H280 H 0.8854 0.9391 0.1105
C334 C 0.8933(9) 0.9647(7) 0.0632(6)
H281 H 0.8764 0.9370 0.0536
C335 C 0.9125(11) 1.0040(9) 0.0434(4)
C336 C 0.9372(10) 1.0445(7) 0.0574(6)
H282 H 0.9504 1.0714 0.0438
C337 C 0.9425(9) 1.0458(6) 0.0912(6)
H283 H 0.9594 1.0735 0.1007
C338 C 0.9069(18) 1.0038(12) 0.0043(9)
H284 H 0.8882 0.9734 -0.0019
H285 H 0.9505 1.0067 -0.0066
H286 H 0.8784 1.0314 -0.0023
C339 C 1.0828(9) 1.0463(7) 0.1697(5)
C340 C 1.0820(10) 1.0911(9) 0.1532(4)
H287 H 1.0746 1.0929 0.1304
C341 C 1.0920(10) 1.1332(6) 0.1700(6)
H288 H 1.0914 1.1639 0.1587
C342 C 1.1028(10) 1.1306(7) 0.2034(6)
C343 C 1.1036(9) 1.0858(9) 0.2199(4)
H289 H 1.1110 1.0840 0.2427
C344 C 1.0936(9) 1.0436(6) 0.2030(5)
H290 H 1.0942 1.0130 0.2143
C345 C 1.125(2) 1.1751(13) 0.2186(10)
H291 H 1.1308 1.1688 0.2420
H292 H 1.0929 1.2019 0.2159
H293 H 1.1674 1.1841 0.2078
C346 C 1.0864(14) 0.9944(11) 0.1228(8)
H294 H 1.1109 1.0181 0.1107
C347 C 1.0695(14) 0.9553(10) 0.1074(8)
C348 C 1.0080(15) 0.8819(12) 0.1151(9)
H295 H 0.9808 0.8616 0.1286
C349 C 1.0250(17) 0.8684(13) 0.0832(10)
C350 C 1.0627(17) 0.9050(13) 0.0634(10)
H296 H 1.0699 0.9008 0.0403
C351 C 1.0868(15) 0.9436(11) 0.0770(9)
H297 H 1.1170 0.9630 0.0645
C352 C 0.9978(16) 0.8295(13) 0.0685(10)
C353 C 0.9985(13) 0.7842(11) 0.0871(8)
H298 H 1.0111 0.7853 0.1091
C354 C 0.9533(13) 0.7421(12) 0.0451(8)
C355 C 0.9532(16) 0.7833(14) 0.0278(10)
H299 H 0.9383 0.7831 0.0062
C356 C 0.9727(17) 0.8253(14) 0.0389(10)
H300 H 0.9688 0.8536 0.0253
C357 C 0.9350(14) 0.6947(12) 0.0394(9)
H301 H 0.9210 0.6903 0.0179
C358 C 0.9161(11) 0.6101(6) 0.0483(6)
C359 C 0.8827(10) 0.5792(9) 0.0703(5)
H302 H 0.8693 0.5899 0.0917
C360 C 0.8690(10) 0.5326(8) 0.0609(6)
H303 H 0.8462 0.5114 0.0760
C361 C 0.8886(11) 0.5169(6) 0.0296(7)
C362 C 0.9220(11) 0.5478(9) 0.0076(5)
H304 H 0.9354 0.5370 -0.0139
C363 C 0.9357(10) 0.5944(8) 0.0169(6)
H305 H 0.9585 0.6155 0.0019
C364 C 0.8771(16) 0.4628(10) 0.0243(8)
H306 H 0.8907 0.4545 0.0017
H307 H 0.8304 0.4568 0.0285
H308 H 0.9027 0.4428 0.0395
C365 C 1.0978(11) 0.6886(8) 0.0339(7)
C366 C 1.0894(11) 0.6793(8) 0.0011(8)
H309 H 1.0723 0.6493 -0.0048
C367 C 1.1060(13) 0.7138(12) -0.0231(5)
H310 H 1.1002 0.7074 -0.0455
C368 C 1.1310(12) 0.7576(10) -0.0145(7)
C369 C 1.1393(11) 0.7670(7) 0.0183(8)
H311 H 1.1564 0.7970 0.0242
C370 C 1.1227(11) 0.7325(10) 0.0426(5)
H312 H 1.1285 0.7389 0.0650
C371 C 1.163(2) 0.7924(14) -0.0386(11)
H313 H 1.1545 0.7834 -0.0610
H314 H 1.2105 0.7912 -0.0361
H315 H 1.1455 0.8255 -0.0345
C372 C 1.0820(15) 0.6083(12) 0.0584(8)
H316 H 1.1100 0.5969 0.0406
C373 C 1.0557(10) 0.5741(8) 0.0780(5)
N18 N 1.0175(10) 0.5959(5) 0.1033(5)
C374 C 0.9826(9) 0.5674(8) 0.1263(4)
H317 H 0.9565 0.5823 0.1436
C375 C 0.9860(10) 0.5170(8) 0.1239(5)
C376 C 1.0243(11) 0.4951(5) 0.0986(6)
H318 H 1.0266 0.4607 0.0970
C377 C 1.0591(10) 0.5237(8) 0.0756(5)
H319 H 1.0852 0.5087 0.0583
C378 C 0.9443(10) 0.4855(7) 0.1447(5)
C379 C 0.9476(9) 0.4931(6) 0.1781(6)
H320 H 0.9749 0.5173 0.1855
N19 N 0.9109(11) 0.4654(8) 0.2009(4)
C380 C 0.8709(10) 0.4301(7) 0.1901(6)
C381 C 0.8676(9) 0.4224(7) 0.1567(7)
H321 H 0.8402 0.3983 0.1494
C382 C 0.9043(11) 0.4501(8) 0.1340(4)
H322 H 0.9020 0.4449 0.1111
C383 C 0.8378(14) 0.4111(10) 0.2148(8)
H323 H 0.8100 0.3866 0.2083
C384 C 0.8040(11) 0.3908(10) 0.2721(5)
C385 C 0.7735(11) 0.4180(6) 0.2974(7)
H324 H 0.7712 0.4525 0.2955
C386 C 0.7466(10) 0.3947(10) 0.3253(5)
H325 H 0.7257 0.4134 0.3426
C387 C 0.7500(12) 0.3442(10) 0.3280(6)
C388 C 0.7805(13) 0.3170(6) 0.3027(7)
H326 H 0.7829 0.2825 0.3046
C389 C 0.8075(11) 0.3403(9) 0.2748(6)
H327 H 0.8283 0.3216 0.2575
C390 C 0.726(2) 0.3126(14) 0.3612(11)
H328 H 0.7351 0.2778 0.3575
H329 H 0.6787 0.3184 0.3658
H330 H 0.7495 0.3226 0.3799
N20 N 0.5295(12) 0.6947(9) 0.4466(6)
N21 N 0.4670(14) 1.0574(10) 0.3297(8)
N22 N 0.3879(10) 0.7079(8) 0.4428(5)
N23 N 0.5428(13) 0.5061(10) 0.3037(7)
N24 N 0.5999(14) 0.4487(10) 0.2608(9)
N25 N 0.4166(13) 0.7282(8) 0.3601(7)
N26 N 0.9413(12) 0.6568(9) 0.3961(7)
N27 N 0.6012(13) 1.0351(10) 0.3421(7)
N28 N 0.5760(13) 1.0030(10) 0.0775(7)
N29 N 0.4748(12) 0.9521(7) 0.2856(5)
N30 N 0.5951(12) 0.9351(5) 0.3053(4)
N31 N 0.9645(15) 0.8789(10) 0.3681(9)
N32 N 0.7135(12) 0.9894(8) 0.0969(7)
N33 N 0.6114(12) 0.7162(10) 0.0428(7)
N34 N 0.5818(11) 0.6286(9) 0.0283(6)
N35 N 0.5385(14) 0.9167(10) 0.1340(8)
N36 N 0.6615(15) 0.9083(9) 0.1472(7)
N37 N 0.9245(14) 0.9015(10) 0.1868(7)
N38 N 1.0481(12) 0.8929(9) 0.1990(6)
N39 N 0.7126(11) 0.6282(9) 0.0460(6)
N40 N 0.6402(15) 0.5865(10) 0.0883(8)
N41 N 0.4655(13) 0.4518(9) 0.2540(8)
N42 N 0.5380(11) 0.6814(8) 0.1014(6)
N43 N 0.6610(13) 0.6824(7) 0.1112(6)
N44 N 0.9271(12) 0.6844(7) 0.1341(6)
N45 N 1.0542(13) 0.6907(8) 0.1409(7)
N46 N 0.4726(13) 0.5780(9) 0.2461(6)
N47 N 0.5999(13) 0.5632(9) 0.2517(6)
N48 N 0.9934(11) 0.5133(9) 0.2585(6)
N49 N 0.8954(11) 0.6129(8) 0.4708(6)
N50 N 0.8122(14) 0.9888(9) 0.3921(8)
N51 N 0.7642(13) 0.6270(10) 0.4542(7)
N52 N 0.9685(12) 0.3931(9) 0.2567(8)
N53 N 0.9386(15) 0.9893(11) 0.4125(8)
N54 N 0.9299(11) 1.0066(9) 0.1463(6)
N55 N 1.0709(12) 1.0018(8) 0.1540(7)
N56 N 1.0287(12) 0.9230(9) 0.1274(6)
N57 N 0.9826(12) 0.7399(9) 0.0761(7)
N58 N 0.9335(11) 0.6558(9) 0.0577(6)
N59 N 1.0747(10) 0.6537(8) 0.0604(6)
N60 N 0.8335(12) 0.4171(8) 0.2458(8)
Co1 Co 0.4679(2) 0.71519(17) 0.40470(12)
Co2 Co 0.5341(2) 0.99521(16) 0.31605(13)
Co3 Co 0.6226(2) 0.95468(16) 0.11154(12)
Co4 Co 0.6214(2) 0.65392(17) 0.07076(12)
Co5 Co 0.5294(2) 0.51082(16) 0.25411(12)
Co6 Co 0.8534(2) 0.63992(18) 0.42764(13)
Co7 Co 0.8921(2) 0.93798(18) 0.38154(13)
Co8 Co 0.9943(2) 0.95290(15) 0.17172(12)
Co9 Co 0.9992(2) 0.67228(15) 0.09753(12)
Co10 Co 0.9178(2) 0.46397(16) 0.25185(13)
B1 B 0.7622(8) 0.9811(6) 0.2448(4)
F1 F 0.7117(11) 0.9610(8) 0.2314(6)
F2 F 0.8093(11) 0.9470(8) 0.2502(6)
F3 F 0.7864(13) 1.0156(9) 0.2242(6)
F4 F 0.7411(8) 1.0010(6) 0.2735(4)
B2 B 0.7974(12) 0.8139(9) 0.1017(6)
F5 F 0.7319(11) 0.8090(7) 0.1106(5)
F6 F 0.8368(13) 0.8027(9) 0.1273(7)
F7 F 0.8055(12) 0.8612(9) 0.0905(6)
F8 F 0.8140(10) 0.7788(7) 0.0787(6)
B3 B 0.7698(11) 0.5607(9) 0.1637(6)
F9 F 0.7116(12) 0.5844(8) 0.1706(6)
F10 F 0.7573(12) 0.5151(9) 0.1747(7)
F11 F 0.7756(11) 0.5625(7) 0.1304(6)
F12 F 0.8208(12) 0.5812(8) 0.1770(6)
B4 B 0.6975(14) 0.5652(8) 0.3434(6)
F13 F 0.7558(15) 0.5856(9) 0.3358(7)
F14 F 0.6573(11) 0.5964(8) 0.3270(6)
F15 F 0.7060(10) 0.5225(7) 0.3274(5)
F16 F 0.6873(12) 0.5667(8) 0.3765(7)
B5 B 0.6975(11) 0.8221(8) 0.3943(6)
F17 F 0.6599(11) 0.8137(7) 0.3671(6)
F18 F 0.7643(12) 0.8090(7) 0.3869(6)
F19 F 0.6921(11) 0.8721(8) 0.4017(6)
F20 F 0.6683(12) 0.7935(8) 0.4200(6)
B6 B 0.4848(11) 0.7744(7) 0.2238(6)
F21 F 0.4771(10) 0.7636(7) 0.1918(6)
F22 F 0.4747(9) 0.8228(7) 0.2297(5)
F23 F 0.5463(10) 0.7624(6) 0.2331(5)
F24 F 0.4408(12) 0.7515(8) 0.2446(6)
B7 B 1.0022(13) 0.7269(8) 0.2766(6)
F25 F 0.9418(11) 0.7289(7) 0.2628(6)
F26 F 1.0185(10) 0.6794(7) 0.2860(5)
F27 F 1.0002(11) 0.7529(7) 0.3053(6)
F28 F 1.0471(16) 0.7467(10) 0.2537(8)
Cl1 Cl 0.7458(4) 0.7495(3) 0.2504(2)
loop_
_geom_bond_atom_site_label_1
_geom_bond_atom_site_label_2
_geom_bond_site_symmetry_1
_geom_bond_site_symmetry_2
C1 C2 1_555 1_555
C2 H1 1_555 1_555
C3 C2 1_555 1_555
H2 C3 1_555 1_555
C4 C3 1_555 1_555
C5 C4 1_555 1_555
H3 C5 1_555 1_555
C6 C1 1_555 1_555
H4 C6 1_555 1_555
C7 C4 1_555 1_555
H5 C7 1_555 1_555
H6 C7 1_555 1_555
H7 C7 1_555 1_555
C8 H8 1_555 1_555
C9 C8 1_555 1_555
N1 C9 1_555 1_555
C10 N1 1_555 1_555
H9 C10 1_555 1_555
C11 C10 1_555 1_555
C12 C11 1_555 1_555
H10 C12 1_555 1_555
C13 C9 1_555 1_555
H11 C13 1_555 1_555
C14 C11 1_555 1_555
C15 C14 1_555 1_555
H12 C15 1_555 1_555
N2 C15 1_555 1_555
C16 N2 1_555 1_555
C17 C16 1_555 1_555
H13 C17 1_555 1_555
C18 C14 1_555 1_555
H14 C18 1_555 1_555
C19 C16 1_555 1_555
H15 C19 1_555 1_555
C20 C21 1_555 1_555
C21 H16 1_555 1_555
C22 C21 1_555 1_555
H17 C22 1_555 1_555
C23 C22 1_555 1_555
C24 C23 1_555 1_555
H18 C24 1_555 1_555
C25 C20 1_555 1_555
H19 C25 1_555 1_555
C26 C23 1_555 1_555
H20 C26 1_555 1_555
H21 C26 1_555 1_555
H22 C26 1_555 1_555
C27 C28 1_555 1_555
C28 H23 1_555 1_555
C29 C28 1_555 1_555
H24 C29 1_555 1_555
C30 C29 1_555 1_555
C31 C30 1_555 1_555
H25 C31 1_555 1_555
C32 C27 1_555 1_555
H26 C32 1_555 1_555
C33 C30 1_555 1_555
H27 C33 1_555 1_555
H28 C33 1_555 1_555
H29 C33 1_555 1_555
C34 H30 1_555 1_555
C35 C34 1_555 1_555
N3 C35 1_555 1_555
C36 N3 1_555 1_555
H31 C36 1_555 1_555
C37 C36 1_555 1_555
C38 C37 1_555 1_555
H32 C38 1_555 1_555
C39 C35 1_555 1_555
H33 C39 1_555 1_555
C40 C37 1_555 1_555
C41 C40 1_555 1_555
H34 C41 1_555 1_555
C42 C43 1_555 1_555
C43 H35 1_555 1_555
C44 C40 1_555 1_555
H36 C44 1_555 1_555
C45 C42 1_555 1_555
H37 C45 1_555 1_555
C46 C47 1_555 1_555
C47 H38 1_555 1_555
C48 C47 1_555 1_555
H39 C48 1_555 1_555
C49 C48 1_555 1_555
C50 C49 1_555 1_555
H40 C50 1_555 1_555
C51 C46 1_555 1_555
H41 C51 1_555 1_555
C52 C49 1_555 1_555
H42 C52 1_555 1_555
H43 C52 1_555 1_555
H44 C52 1_555 1_555
C53 C54 1_555 1_555
C54 H45 1_555 1_555
C55 C54 1_555 1_555
H46 C55 1_555 1_555
C56 C55 1_555 1_555
C57 C56 1_555 1_555
H47 C57 1_555 1_555
C58 C53 1_555 1_555
H48 C58 1_555 1_555
C59 C53 1_555 1_555
H49 C59 1_555 1_555
H50 C59 1_555 1_555
H51 C59 1_555 1_555
C60 H52 1_555 1_555
C61 C60 1_555 1_555
N4 C61 1_555 1_555
C62 N4 1_555 1_555
H53 C62 1_555 1_555
C63 C62 1_555 1_555
C64 C63 1_555 1_555
H54 C64 1_555 1_555
C65 C61 1_555 1_555
H55 C65 1_555 1_555
C66 C63 1_555 1_555
C67 C66 1_555 1_555
H56 C67 1_555 1_555
N5 C67 1_555 1_555
C68 N5 1_555 1_555
C69 C68 1_555 1_555
H57 C69 1_555 1_555
C70 C66 1_555 1_555
H58 C70 1_555 1_555
C71 C68 1_555 1_555
H59 C71 1_555 1_555
C72 C73 1_555 1_555
C73 H60 1_555 1_555
C74 C73 1_555 1_555
H61 C74 1_555 1_555
C75 C74 1_555 1_555
C76 C75 1_555 1_555
H62 C76 1_555 1_555
C77 C72 1_555 1_555
H63 C77 1_555 1_555
C78 C75 1_555 1_555
H64 C78 1_555 1_555
H65 C78 1_555 1_555
H66 C78 1_555 1_555
C79 C80 1_555 1_555
C80 H67 1_555 1_555
C81 C80 1_555 1_555
H68 C81 1_555 1_555
C82 C81 1_555 1_555
C83 C82 1_555 1_555
H69 C83 1_555 1_555
C84 C79 1_555 1_555
H70 C84 1_555 1_555
C85 C82 1_555 1_555
H71 C85 1_555 1_555
H72 C85 1_555 1_555
H73 C85 1_555 1_555
C86 H74 1_555 1_555
C87 C86 1_555 1_555
N6 C87 1_555 1_555
C88 N6 1_555 1_555
H75 C88 1_555 1_555
C89 C88 1_555 1_555
C90 C89 1_555 1_555
H76 C90 1_555 1_555
C91 C87 1_555 1_555
H77 C91 1_555 1_555
C92 C89 1_555 1_555
C93 C92 1_555 1_555
H78 C93 1_555 1_555
N7 C93 1_555 1_555
C94 N7 1_555 1_555
C95 C94 1_555 1_555
H79 C95 1_555 1_555
C96 C92 1_555 1_555
H80 C96 1_555 1_555
C97 C94 1_555 1_555
H81 C97 1_555 1_555
C98 C99 1_555 1_555
C99 H82 1_555 1_555
C100 C99 1_555 1_555
H83 C100 1_555 1_555
C101 C100 1_555 1_555
C102 C101 1_555 1_555
H84 C102 1_555 1_555
C103 C98 1_555 1_555
H85 C103 1_555 1_555
C104 C101 1_555 1_555
H86 C104 1_555 1_555
H87 C104 1_555 1_555
H88 C104 1_555 1_555
C105 C106 1_555 1_555
C106 H89 1_555 1_555
C107 C106 1_555 1_555
H90 C107 1_555 1_555
C108 C107 1_555 1_555
C109 C108 1_555 1_555
H91 C109 1_555 1_555
C110 C105 1_555 1_555
H92 C110 1_555 1_555
C111 C108 1_555 1_555
H93 C111 1_555 1_555
H94 C111 1_555 1_555
H95 C111 1_555 1_555
C112 H96 1_555 1_555
C113 C112 1_555 1_555
C114 H97 1_555 1_555
C115 C114 1_555 1_555
C116 C115 1_555 1_555
H98 C116 1_555 1_555
C117 C113 1_555 1_555
H99 C117 1_555 1_555
C118 C115 1_555 1_555
C119 C118 1_555 1_555
H100 C119 1_555 1_555
N8 C119 1_555 1_555
C120 N8 1_555 1_555
C121 C120 1_555 1_555
H101 C121 1_555 1_555
C122 C118 1_555 1_555
H102 C122 1_555 1_555
C123 C120 1_555 1_555
H103 C123 1_555 1_555
C124 C125 1_555 1_555
C125 H104 1_555 1_555
C126 C125 1_555 1_555
H105 C126 1_555 1_555
C127 C126 1_555 1_555
C128 C127 1_555 1_555
H106 C128 1_555 1_555
C129 C124 1_555 1_555
H107 C129 1_555 1_555
C130 C127 1_555 1_555
H108 C130 1_555 1_555
H109 C130 1_555 1_555
H110 C130 1_555 1_555
C131 C132 1_555 1_555
C132 H111 1_555 1_555
C133 C132 1_555 1_555
H112 C133 1_555 1_555
C134 C133 1_555 1_555
C135 C134 1_555 1_555
H113 C135 1_555 1_555
C136 C131 1_555 1_555
H114 C136 1_555 1_555
C137 C134 1_555 1_555
H115 C137 1_555 1_555
H116 C137 1_555 1_555
H117 C137 1_555 1_555
C138 H118 1_555 1_555
C139 C138 1_555 1_555
N9 C139 1_555 1_555
C140 N9 1_555 1_555
H119 C140 1_555 1_555
C141 C140 1_555 1_555
C142 C141 1_555 1_555
H120 C142 1_555 1_555
C143 C139 1_555 1_555
H121 C143 1_555 1_555
C144 C141 1_555 1_555
C145 C144 1_555 1_555
H122 C145 1_555 1_555
C146 C147 1_555 1_555
C147 H123 1_555 1_555
C148 C144 1_555 1_555
H124 C148 1_555 1_555
C149 C146 1_555 1_555
H125 C149 1_555 1_555
C150 C151 1_555 1_555
C151 H126 1_555 1_555
C152 C151 1_555 1_555
H127 C152 1_555 1_555
C153 C152 1_555 1_555
C154 C153 1_555 1_555
H128 C154 1_555 1_555
C155 C150 1_555 1_555
H129 C155 1_555 1_555
C156 C153 1_555 1_555
H130 C156 1_555 1_555
H131 C156 1_555 1_555
H132 C156 1_555 1_555
C157 C158 1_555 1_555
C158 H133 1_555 1_555
C159 C158 1_555 1_555
H134 C159 1_555 1_555
C160 C159 1_555 1_555
C161 C160 1_555 1_555
H135 C161 1_555 1_555
C162 C157 1_555 1_555
H136 C162 1_555 1_555
C163 C160 1_555 1_555
H137 C163 1_555 1_555
H138 C163 1_555 1_555
H139 C163 1_555 1_555
C164 H140 1_555 1_555
C165 C164 1_555 1_555
C166 H141 1_555 1_555
C167 C166 1_555 1_555
C168 C167 1_555 1_555
H142 C168 1_555 1_555
C169 C165 1_555 1_555
H143 C169 1_555 1_555
C170 C167 1_555 1_555
C171 C170 1_555 1_555
H144 C171 1_555 1_555
C172 C173 1_555 1_555
C173 H145 1_555 1_555
C174 C170 1_555 1_555
H146 C174 1_555 1_555
C175 C172 1_555 1_555
H147 C175 1_555 1_555
C176 C177 1_555 1_555
C177 H148 1_555 1_555
C178 C177 1_555 1_555
H149 C178 1_555 1_555
C179 C178 1_555 1_555
C180 C179 1_555 1_555
H150 C180 1_555 1_555
C181 C176 1_555 1_555
H151 C181 1_555 1_555
C182 C179 1_555 1_555
H152 C182 1_555 1_555
H153 C182 1_555 1_555
H154 C182 1_555 1_555
C183 C184 1_555 1_555
C184 H155 1_555 1_555
C185 C184 1_555 1_555
H156 C185 1_555 1_555
C186 C185 1_555 1_555
C187 C186 1_555 1_555
H157 C187 1_555 1_555
C188 C183 1_555 1_555
H158 C188 1_555 1_555
C189 C186 1_555 1_555
H159 C189 1_555 1_555
H160 C189 1_555 1_555
H161 C189 1_555 1_555
C190 H162 1_555 1_555
C191 C190 1_555 1_555
C192 H163 1_555 1_555
C193 C192 1_555 1_555
C194 C193 1_555 1_555
H164 C194 1_555 1_555
C195 C191 1_555 1_555
H165 C195 1_555 1_555
C196 C193 1_555 1_555
C197 C196 1_555 1_555
H166 C197 1_555 1_555
N10 C197 1_555 1_555
C198 N10 1_555 1_555
C199 C198 1_555 1_555
H167 C199 1_555 1_555
C200 C196 1_555 1_555
H168 C200 1_555 1_555
C201 C198 1_555 1_555
H169 C201 1_555 1_555
C202 C203 1_555 1_555
C203 H170 1_555 1_555
C204 C203 1_555 1_555
H171 C204 1_555 1_555
C205 C204 1_555 1_555
C206 C205 1_555 1_555
H172 C206 1_555 1_555
C207 C202 1_555 1_555
H173 C207 1_555 1_555
C208 C205 1_555 1_555
H174 C208 1_555 1_555
H175 C208 1_555 1_555
H176 C208 1_555 1_555
C209 C210 1_555 1_555
C210 H177 1_555 1_555
C211 C210 1_555 1_555
H178 C211 1_555 1_555
C212 C211 1_555 1_555
C213 C212 1_555 1_555
H179 C213 1_555 1_555
C214 C209 1_555 1_555
H180 C214 1_555 1_555
C215 C212 1_555 1_555
H181 C215 1_555 1_555
H182 C215 1_555 1_555
H183 C215 1_555 1_555
C216 H184 1_555 1_555
C217 C216 1_555 1_555
C218 H185 1_555 1_555
C219 C218 1_555 1_555
C220 C219 1_555 1_555
H186 C220 1_555 1_555
C221 C217 1_555 1_555
H187 C221 1_555 1_555
C222 C219 1_555 1_555
C223 C222 1_555 1_555
H188 C223 1_555 1_555
C224 C225 1_555 1_555
C225 H189 1_555 1_555
C226 C222 1_555 1_555
H190 C226 1_555 1_555
C227 C224 1_555 1_555
H191 C227 1_555 1_555
C228 C229 1_555 1_555
C229 H192 1_555 1_555
C230 C229 1_555 1_555
H193 C230 1_555 1_555
C231 C230 1_555 1_555
C232 C231 1_555 1_555
H194 C232 1_555 1_555
C233 C228 1_555 1_555
H195 C233 1_555 1_555
C234 C231 1_555 1_555
H196 C234 1_555 1_555
H197 C234 1_555 1_555
H198 C234 1_555 1_555
C235 C236 1_555 1_555
C236 H199 1_555 1_555
C237 C236 1_555 1_555
H200 C237 1_555 1_555
C238 C237 1_555 1_555
C239 C238 1_555 1_555
H201 C239 1_555 1_555
C240 C235 1_555 1_555
H202 C240 1_555 1_555
C241 C238 1_555 1_555
H203 C241 1_555 1_555
H204 C241 1_555 1_555
H205 C241 1_555 1_555
C242 H206 1_555 1_555
C243 C242 1_555 1_555
C244 H207 1_555 1_555
C245 C244 1_555 1_555
C246 C245 1_555 1_555
H208 C246 1_555 1_555
C247 C243 1_555 1_555
H209 C247 1_555 1_555
C248 C245 1_555 1_555
C249 C248 1_555 1_555
H210 C249 1_555 1_555
N11 C249 1_555 1_555
C250 N11 1_555 1_555
C251 C250 1_555 1_555
H211 C251 1_555 1_555
C252 C248 1_555 1_555
H212 C252 1_555 1_555
C253 C250 1_555 1_555
H213 C253 1_555 1_555
C254 C255 1_555 1_555
C255 H214 1_555 1_555
C256 C255 1_555 1_555
H215 C256 1_555 1_555
C257 C256 1_555 1_555
C258 C257 1_555 1_555
H216 C258 1_555 1_555
C259 C254 1_555 1_555
H217 C259 1_555 1_555
C260 C257 1_555 1_555
H218 C260 1_555 1_555
H219 C260 1_555 1_555
H220 C260 1_555 1_555
C261 C262 1_555 1_555
C262 H221 1_555 1_555
C263 C262 1_555 1_555
H222 C263 1_555 1_555
C264 C263 1_555 1_555
C265 C264 1_555 1_555
H223 C265 1_555 1_555
C266 C261 1_555 1_555
H224 C266 1_555 1_555
C267 C264 1_555 1_555
H225 C267 1_555 1_555
H226 C267 1_555 1_555
H227 C267 1_555 1_555
C268 H228 1_555 1_555
C269 C268 1_555 1_555
N12 C269 1_555 1_555
C270 N12 1_555 1_555
H229 C270 1_555 1_555
C271 C270 1_555 1_555
C272 C271 1_555 1_555
H230 C272 1_555 1_555
C273 C269 1_555 1_555
H231 C273 1_555 1_555
C274 C271 1_555 1_555
C275 C274 1_555 1_555
H232 C275 1_555 1_555
N13 C275 1_555 1_555
C276 N13 1_555 1_555
C277 C276 1_555 1_555
H233 C277 1_555 1_555
C278 C274 1_555 1_555
H234 C278 1_555 1_555
C279 C276 1_555 1_555
H235 C279 1_555 1_555
C280 C281 1_555 1_555
C281 H236 1_555 1_555
C282 C281 1_555 1_555
H237 C282 1_555 1_555
C283 C282 1_555 1_555
C284 C283 1_555 1_555
H238 C284 1_555 1_555
C285 C280 1_555 1_555
H239 C285 1_555 1_555
C286 C283 1_555 1_555
H240 C286 1_555 1_555
H241 C286 1_555 1_555
H242 C286 1_555 1_555
C287 C288 1_555 1_555
C288 H243 1_555 1_555
C289 C288 1_555 1_555
H244 C289 1_555 1_555
C290 C289 1_555 1_555
C291 C290 1_555 1_555
H245 C291 1_555 1_555
C292 C287 1_555 1_555
H246 C292 1_555 1_555
C293 C290 1_555 1_555
H247 C293 1_555 1_555
H248 C293 1_555 1_555
H249 C293 1_555 1_555
C294 H250 1_555 1_555
C295 C294 1_555 1_555
N14 C295 1_555 1_555
C296 N14 1_555 1_555
H251 C296 1_555 1_555
C297 C296 1_555 1_555
C298 C297 1_555 1_555
H252 C298 1_555 1_555
C299 C295 1_555 1_555
H253 C299 1_555 1_555
C300 C297 1_555 1_555
C301 C300 1_555 1_555
H254 C301 1_555 1_555
N15 C301 1_555 1_555
C302 N15 1_555 1_555
C303 C302 1_555 1_555
H255 C303 1_555 1_555
C304 C300 1_555 1_555
H256 C304 1_555 1_555
C305 C302 1_555 1_555
H257 C305 1_555 1_555
C306 C307 1_555 1_555
C307 H258 1_555 1_555
C308 C307 1_555 1_555
H259 C308 1_555 1_555
C309 C308 1_555 1_555
C310 C309 1_555 1_555
H260 C310 1_555 1_555
C311 C306 1_555 1_555
H261 C311 1_555 1_555
C312 C309 1_555 1_555
H262 C312 1_555 1_555
H263 C312 1_555 1_555
H264 C312 1_555 1_555
C313 C314 1_555 1_555
C314 H265 1_555 1_555
C315 C314 1_555 1_555
H266 C315 1_555 1_555
C316 C315 1_555 1_555
C317 C316 1_555 1_555
H267 C317 1_555 1_555
C318 C313 1_555 1_555
H268 C318 1_555 1_555
C319 C316 1_555 1_555
H269 C319 1_555 1_555
H270 C319 1_555 1_555
H271 C319 1_555 1_555
C320 H272 1_555 1_555
C321 C320 1_555 1_555
N16 C321 1_555 1_555
C322 N16 1_555 1_555
H273 C322 1_555 1_555
C323 C322 1_555 1_555
C324 C323 1_555 1_555
H274 C324 1_555 1_555
C325 C321 1_555 1_555
H275 C325 1_555 1_555
C326 C323 1_555 1_555
C327 C326 1_555 1_555
H276 C327 1_555 1_555
N17 C327 1_555 1_555
C328 N17 1_555 1_555
C329 C328 1_555 1_555
H277 C329 1_555 1_555
C330 C326 1_555 1_555
H278 C330 1_555 1_555
C331 C328 1_555 1_555
H279 C331 1_555 1_555
C332 C333 1_555 1_555
C333 H280 1_555 1_555
C334 C333 1_555 1_555
H281 C334 1_555 1_555
C335 C334 1_555 1_555
C336 C335 1_555 1_555
H282 C336 1_555 1_555
C337 C332 1_555 1_555
H283 C337 1_555 1_555
C338 C335 1_555 1_555
H284 C338 1_555 1_555
H285 C338 1_555 1_555
H286 C338 1_555 1_555
C339 C340 1_555 1_555
C340 H287 1_555 1_555
C341 C340 1_555 1_555
H288 C341 1_555 1_555
C342 C341 1_555 1_555
C343 C342 1_555 1_555
H289 C343 1_555 1_555
C344 C339 1_555 1_555
H290 C344 1_555 1_555
C345 C342 1_555 1_555
H291 C345 1_555 1_555
H292 C345 1_555 1_555
H293 C345 1_555 1_555
C346 H294 1_555 1_555
C347 C346 1_555 1_555
C348 H295 1_555 1_555
C349 C348 1_555 1_555
C350 C349 1_555 1_555
H296 C350 1_555 1_555
C351 C347 1_555 1_555
H297 C351 1_555 1_555
C352 C349 1_555 1_555
C353 C352 1_555 1_555
H298 C353 1_555 1_555
C354 C355 1_555 1_555
C355 H299 1_555 1_555
C356 C352 1_555 1_555
H300 C356 1_555 1_555
C357 C354 1_555 1_555
H301 C357 1_555 1_555
C358 C359 1_555 1_555
C359 H302 1_555 1_555
C360 C359 1_555 1_555
H303 C360 1_555 1_555
C361 C360 1_555 1_555
C362 C361 1_555 1_555
H304 C362 1_555 1_555
C363 C358 1_555 1_555
H305 C363 1_555 1_555
C364 C361 1_555 1_555
H306 C364 1_555 1_555
H307 C364 1_555 1_555
H308 C364 1_555 1_555
C365 C366 1_555 1_555
C366 H309 1_555 1_555
C367 C366 1_555 1_555
H310 C367 1_555 1_555
C368 C367 1_555 1_555
C369 C368 1_555 1_555
H311 C369 1_555 1_555
C370 C365 1_555 1_555
H312 C370 1_555 1_555
C371 C368 1_555 1_555
H313 C371 1_555 1_555
H314 C371 1_555 1_555
H315 C371 1_555 1_555
C372 H316 1_555 1_555
C373 C372 1_555 1_555
N18 C373 1_555 1_555
C374 N18 1_555 1_555
H317 C374 1_555 1_555
C375 C374 1_555 1_555
C376 C375 1_555 1_555
H318 C376 1_555 1_555
C377 C373 1_555 1_555
H319 C377 1_555 1_555
C378 C375 1_555 1_555
C379 C378 1_555 1_555
H320 C379 1_555 1_555
N19 C379 1_555 1_555
C380 N19 1_555 1_555
C381 C380 1_555 1_555
H321 C381 1_555 1_555
C382 C378 1_555 1_555
H322 C382 1_555 1_555
C383 C380 1_555 1_555
H323 C383 1_555 1_555
C384 C385 1_555 1_555
C385 H324 1_555 1_555
C386 C385 1_555 1_555
H325 C386 1_555 1_555
C387 C386 1_555 1_555
C388 C387 1_555 1_555
H326 C388 1_555 1_555
C389 C384 1_555 1_555
H327 C389 1_555 1_555
C390 C387 1_555 1_555
H328 C390 1_555 1_555
H329 C390 1_555 1_555
H330 C390 1_555 1_555
N20 C1 1_555 1_555
N21 C19 1_555 1_555
N22 C27 1_555 1_555
N23 C41 1_555 1_555
N24 C45 1_555 1_555
N25 C56 1_555 1_555
N26 C71 1_555 1_555
N27 C79 1_555 1_555
N28 C97 1_555 1_555
N29 C105 1_555 1_555
N30 C113 1_555 1_555
N31 C123 1_555 1_555
N32 C131 1_555 1_555
N33 C145 1_555 1_555
N34 C149 1_555 1_555
N35 C157 1_555 1_555
N36 C165 1_555 1_555
N37 C171 1_555 1_555
N38 C175 1_555 1_555
N39 C183 1_555 1_555
N40 C191 1_555 1_555
N41 C201 1_555 1_555
N42 C209 1_555 1_555
N43 C217 1_555 1_555
N44 C223 1_555 1_555
N45 C227 1_555 1_555
N46 C235 1_555 1_555
N47 C243 1_555 1_555
N48 C253 1_555 1_555
N49 C261 1_555 1_555
N50 C279 1_555 1_555
N51 C287 1_555 1_555
N52 C305 1_555 1_555
N53 C313 1_555 1_555
N54 C331 1_555 1_555
N55 C339 1_555 1_555
N56 C347 1_555 1_555
N57 C353 1_555 1_555
N58 C357 1_555 1_555
N59 C365 1_555 1_555
N60 C383 1_555 1_555
Co1 N1 1_555 1_555
Co2 N2 1_555 1_555
Co3 N7 1_555 1_555
Co4 N33 1_555 1_555
Co5 N10 1_555 1_555
Co6 N5 1_555 1_555
Co7 N8 1_555 1_555
Co8 N17 1_555 1_555
Co9 N18 1_555 1_555
Co10 N11 1_555 1_555
B1 F1 1_555 1_555
F2 B1 1_555 1_555
F3 B1 1_555 1_555
F4 B1 1_555 1_555
B2 F5 1_555 1_555
F6 B2 1_555 1_555
F7 B2 1_555 1_555
F8 B2 1_555 1_555
B3 F9 1_555 1_555
F10 B3 1_555 1_555
F11 B3 1_555 1_555
F12 B3 1_555 1_555
B4 F13 1_555 1_555
F14 B4 1_555 1_555
F15 B4 1_555 1_555
F16 B4 1_555 1_555
B5 F17 1_555 1_555
F18 B5 1_555 1_555
F19 B5 1_555 1_555
F20 B5 1_555 1_555
B6 F21 1_555 1_555
F22 B6 1_555 1_555
F23 B6 1_555 1_555
F24 B6 1_555 1_555
B7 F25 1_555 1_555
F26 B7 1_555 1_555
F27 B7 1_555 1_555
F28 B7 1_555 1_555
C5 C6 1_555 1_555
C8 N20 1_555 1_555
C12 C13 1_555 1_555
C17 C18 1_555 1_555
C20 N21 1_555 1_555
C24 C25 1_555 1_555
C31 C32 1_555 1_555
C34 N22 1_555 1_555
N3 Co1 1_555 1_555
C38 C39 1_555 1_555
C42 N23 1_555 1_555
C43 C44 1_555 1_555
C46 N24 1_555 1_555
C50 C51 1_555 1_555
C57 C58 1_555 1_555
C60 N25 1_555 1_555
N4 Co1 1_555 1_555
C64 C65 1_555 1_555
C69 C70 1_555 1_555
C72 N26 1_555 1_555
C76 C77 1_555 1_555
C83 C84 1_555 1_555
C86 N27 1_555 1_555
N6 Co2 1_555 1_555
C90 C91 1_555 1_555
C95 C96 1_555 1_555
C98 N28 1_555 1_555
C102 C103 1_555 1_555
C109 C110 1_555 1_555
C112 N29 1_555 1_555
C114 N30 1_555 1_555
C116 C117 1_555 1_555
C121 C122 1_555 1_555
C124 N31 1_555 1_555
C128 C129 1_555 1_555
C135 C136 1_555 1_555
C138 N32 1_555 1_555
N9 Co3 1_555 1_555
C142 C143 1_555 1_555
C146 N33 1_555 1_555
C147 C148 1_555 1_555
C150 N34 1_555 1_555
C154 C155 1_555 1_555
C161 C162 1_555 1_555
C164 N35 1_555 1_555
C166 N36 1_555 1_555
C168 C169 1_555 1_555
C172 N37 1_555 1_555
C173 C174 1_555 1_555
C176 N38 1_555 1_555
C180 C181 1_555 1_555
C187 C188 1_555 1_555
C190 N39 1_555 1_555
C192 N40 1_555 1_555
C194 C195 1_555 1_555
C199 C200 1_555 1_555
C202 N41 1_555 1_555
C206 C207 1_555 1_555
C213 C214 1_555 1_555
C216 N42 1_555 1_555
C218 N43 1_555 1_555
C220 C221 1_555 1_555
C224 N44 1_555 1_555
C225 C226 1_555 1_555
C228 N45 1_555 1_555
C232 C233 1_555 1_555
C239 C240 1_555 1_555
C242 N46 1_555 1_555
C244 N47 1_555 1_555
C246 C247 1_555 1_555
C251 C252 1_555 1_555
C254 N48 1_555 1_555
C258 C259 1_555 1_555
C265 C266 1_555 1_555
C268 N49 1_555 1_555
N12 Co6 1_555 1_555
C272 C273 1_555 1_555
N13 Co7 1_555 1_555
C277 C278 1_555 1_555
C280 N50 1_555 1_555
C284 C285 1_555 1_555
C291 C292 1_555 1_555
C294 N51 1_555 1_555
N14 Co6 1_555 1_555
C298 C299 1_555 1_555
N15 Co10 1_555 1_555
C303 C304 1_555 1_555
C306 N52 1_555 1_555
C310 C311 1_555 1_555
C317 C318 1_555 1_555
C320 N53 1_555 1_555
N16 Co7 1_555 1_555
C324 C325 1_555 1_555
C329 C330 1_555 1_555
C332 N54 1_555 1_555
C336 C337 1_555 1_555
C343 C344 1_555 1_555
C346 N55 1_555 1_555
C348 N56 1_555 1_555
C350 C351 1_555 1_555
C354 N57 1_555 1_555
C355 C356 1_555 1_555
C358 N58 1_555 1_555
C362 C363 1_555 1_555
C369 C370 1_555 1_555
C372 N59 1_555 1_555
C376 C377 1_555 1_555
N19 Co10 1_555 1_555
C381 C382 1_555 1_555
C384 N60 1_555 1_555
C388 C389 1_555 1_555
N20 Co1 1_555 1_555
N21 Co2 1_555 1_555
N22 Co1 1_555 1_555
N23 Co5 1_555 1_555
N24 Co5 1_555 1_555
N25 Co1 1_555 1_555
N26 Co6 1_555 1_555
N27 Co2 1_555 1_555
N28 Co3 1_555 1_555
N29 Co2 1_555 1_555
N30 Co2 1_555 1_555
N31 Co7 1_555 1_555
N32 Co3 1_555 1_555
N34 Co4 1_555 1_555
N35 Co3 1_555 1_555
N36 Co3 1_555 1_555
N37 Co8 1_555 1_555
N38 Co8 1_555 1_555
N39 Co4 1_555 1_555
N40 Co4 1_555 1_555
N41 Co5 1_555 1_555
N42 Co4 1_555 1_555
N43 Co4 1_555 1_555
N44 Co9 1_555 1_555
N45 Co9 1_555 1_555
N46 Co5 1_555 1_555
N47 Co5 1_555 1_555
N48 Co10 1_555 1_555
N49 Co6 1_555 1_555
N50 Co7 1_555 1_555
N51 Co6 1_555 1_555
N52 Co10 1_555 1_555
N53 Co7 1_555 1_555
N54 Co8 1_555 1_555
N55 Co8 1_555 1_555
N56 Co8 1_555 1_555
N57 Co9 1_555 1_555
N58 Co9 1_555 1_555
N59 Co9 1_555 1_555
N60 Co10 1_555 1_555

#END
