
#######################################################################
#
#                 Cambridge Crystallographic Data Centre
#                                CCDC 
#
#######################################################################
#
# If this CIF has been generated from an entry in the Cambridge 
# Structural Database, then it will include bibliographic, chemical, 
# crystal, experimental, refinement or atomic coordinate data resulting 
# from the CCDC's data processing and validation procedures.
#
#######################################################################

data_XEXJER
_chemical_formula_moiety         
'C144 H108 Fe4 N24 8+,4(B1 F4 1-),4(C2 F6 N1 O4 S2 1-),10(C6 H14 O1),10(C2 H3 N1)'
_chemical_name_systematic        
"hexakis(\m~2~-N,N'-(3,3'-Bipyridine-6,6'-diyldimethylylidene)dianiline)-tetra-iron tetrakis(tetrafluoroborate) tetrakis(bis(trifluoromethanesulfonyl)amide) acetonitrile diethyl ether solvate"
_symmetry_cell_setting           monoclinic
_symmetry_space_group_name_H-M   'C 2/c'
_symmetry_Int_Tables_number      15
_space_group_name_Hall           '-C 2yn'
loop_
_symmetry_equiv_pos_site_id
_symmetry_equiv_pos_as_xyz
1 x,y,z
2 -x,y,1/2-z
3 1/2+x,1/2+y,z
4 1/2-x,1/2+y,1/2-z
5 -x,-y,-z
6 x,-y,1/2+z
7 1/2-x,1/2-y,-z
8 1/2+x,1/2-y,1/2+z
_cell_length_a                   26.8643(6)
_cell_length_b                   37.9527(14)
_cell_length_c                   22.2933(4)
_cell_angle_alpha                90
_cell_angle_beta                 94.065(2)
_cell_angle_gamma                90
_cell_volume                     22672.5
_exptl_crystal_colour            purple
_exptl_crystal_description       plate
_cell_formula_units_Z            4
loop_
_atom_site_label
_atom_site_type_symbol
_atom_site_fract_x
_atom_site_fract_y
_atom_site_fract_z
B1 B 0.4720(3) 0.2837(3) 0.7448(4)
F1 F 0.4565(5) 0.3179(3) 0.7408(4)
F2 F 0.4317(4) 0.2616(3) 0.7382(5)
F3 F 0.4963(3) 0.2772(2) 0.7999(3)
B1A B 0.5280(3) 0.2837(3) 0.7552(4)
F1A F 0.5435(5) 0.3179(3) 0.7592(4)
F2A F 0.5683(4) 0.2616(3) 0.7618(5)
F3A F 0.5037(3) 0.2772(2) 0.7001(3)
C1 C 0.7270(5) 0.5326(2) 0.7571(6)
H1 H 0.7380 0.5558 0.7674
C2 C 0.7585(4) 0.5097(3) 0.7291(6)
H2 H 0.7909 0.5172 0.7202
C3 C 0.7425(5) 0.4758(3) 0.7140(6)
H3 H 0.7640 0.4602 0.6949
C4 C 0.6951(5) 0.4648(2) 0.7269(6)
C5 C 0.6636(4) 0.4877(3) 0.7549(6)
H4 H 0.6312 0.4802 0.7638
C6 C 0.6796(5) 0.5216(3) 0.7700(6)
H5 H 0.6582 0.5372 0.7892
C7 C 0.6623(3) 0.4230(3) 0.6590(5)
H6 H 0.6627 0.4405 0.6286
C8 C 0.6454(3) 0.3900(3) 0.6445(4)
C9 C 0.6352(3) 0.3319(2) 0.6851(4)
H7 H 0.6362 0.3163 0.7185
C10 C 0.6231(3) 0.3201(3) 0.6279(4)
C11 C 0.6215(3) 0.3410(3) 0.5783(4)
H8 H 0.6137 0.3317 0.5392
C12 C 0.6318(4) 0.3768(3) 0.5875(4)
H9 H 0.6294 0.3924 0.5541
C13 C 0.6149(3) 0.2815(3) 0.6181(3)
C14 C 0.5723(3) 0.2696(3) 0.5885(3)
H10 H 0.5468 0.2861 0.5770
C15 C 0.5999(4) 0.2125(3) 0.5902(3)
C16 C 0.6434(4) 0.2197(3) 0.6255(5)
H11 H 0.6665 0.2019 0.6386
C17 C 0.6507(4) 0.2541(4) 0.6398(4)
H12 H 0.6795 0.2608 0.6644
C18 C 0.5900(4) 0.1764(3) 0.5692(4)
H13 H 0.6134 0.1579 0.5769
C19 C 0.5361(3) 0.13630(18) 0.5171(4)
C20 C 0.5520(3) 0.1260(2) 0.4617(4)
H14 H 0.5727 0.1412 0.4405
C21 C 0.5375(4) 0.0936(3) 0.4374(3)
H15 H 0.5483 0.0866 0.3995
C22 C 0.5072(4) 0.0714(2) 0.4684(5)
H16 H 0.4973 0.0492 0.4518
C23 C 0.4913(3) 0.0817(2) 0.5238(5)
H17 H 0.4706 0.0665 0.5451
C24 C 0.5058(3) 0.1141(3) 0.5482(3)
H18 H 0.4950 0.1211 0.5860
C25 C 0.8450(3) 0.4115(2) 0.6448(4)
H19 H 0.8689 0.4215 0.6203
C26 C 0.8052(3) 0.3922(2) 0.6188(3)
H20 H 0.8019 0.3888 0.5765
C27 C 0.7703(3) 0.3776(2) 0.6548(4)
H21 H 0.7431 0.3644 0.6370
C28 C 0.7752(3) 0.3825(2) 0.7167(4)
C29 C 0.8150(3) 0.4019(2) 0.7427(3)
H22 H 0.8183 0.4053 0.7850
C30 C 0.8499(3) 0.4164(2) 0.7068(4)
H23 H 0.8771 0.4297 0.7245
C31 C 0.7442(4) 0.3367(3) 0.7711(4)
H24 H 0.7726 0.3230 0.7633
C32 C 0.7022(4) 0.3238(3) 0.8067(4)
C33 C 0.6325(3) 0.3382(3) 0.8545(4)
H25 H 0.6085 0.3553 0.8637
C34 C 0.6303(4) 0.3047(3) 0.8810(4)
C35 C 0.6654(5) 0.2805(3) 0.8680(5)
H26 H 0.6643 0.2575 0.8848
C36 C 0.7037(4) 0.2891(3) 0.8296(4)
H27 H 0.7286 0.2726 0.8201
C37 C 0.5937(3) 0.2980(3) 0.9248(4)
C38 C 0.5673(4) 0.2678(3) 0.9209(4)
H28 H 0.5708 0.2535 0.8865
C39 C 0.5314(4) 0.2788(4) 1.0108(4)
C40 C 0.5565(4) 0.3097(3) 1.0149(5)
H29 H 0.5518 0.3248 1.0480
C41 C 0.5880(4) 0.3196(3) 0.9737(5)
H30 H 0.6060 0.3412 0.9781
C42 C 0.4980(4) 0.2614(4) 1.0535(4)
H31 H 0.4907 0.2728 1.0897
C43 C 0.4488(4) 0.2146(3) 1.0843(4)
C44 C 0.3975(4) 0.2123(3) 1.0701(4)
H32 H 0.3834 0.2221 1.0335
C45 C 0.3684(4) 0.1965(3) 1.1069(4)
H33 H 0.3337 0.1944 1.0964
C46 C 0.3893(4) 0.1824(3) 1.1632(5)
H34 H 0.3687 0.1710 1.1901
C47 C 0.4399(5) 0.1860(3) 1.1771(4)
H35 H 0.4544 0.1765 1.2137
C48 C 0.4712(4) 0.2043(3) 1.1367(4)
H36 H 0.5056 0.2086 1.1469
C49 C 0.8416(6) 0.4211(6) 0.9236(7)
H37 H 0.8762 0.4217 0.9357
C50 C 0.8147(6) 0.3920(6) 0.9273(5)
H38 H 0.8285 0.3730 0.9507
C51 C 0.7651(4) 0.3875(4) 0.8977(5)
H39 H 0.7480 0.3656 0.8966
C52 C 0.7454(4) 0.4168(3) 0.8721(4)
C53 C 0.7725(5) 0.4474(4) 0.8769(6)
H40 H 0.7589 0.4690 0.8616
C54 C 0.8197(6) 0.4461(5) 0.9043(7)
H41 H 0.8370 0.4679 0.9082
C55 C 0.6605(5) 0.4314(3) 0.8685(5)
H42 H 0.6667 0.4433 0.9057
C56 C 0.6115(4) 0.4300(3) 0.8389(6)
C57 C 0.5651(4) 0.4096(2) 0.7548(4)
H43 H 0.5620 0.3975 0.7174
C58 C 0.5242(4) 0.4271(3) 0.7764(6)
C59 C 0.5252(5) 0.4440(3) 0.8266(5)
H44 H 0.4954 0.4528 0.8418
C60 C 0.5696(5) 0.4487(3) 0.8563(5)
H45 H 0.5730 0.4646 0.8892
C61 C 0.4850(4) 0.1850(3) 0.7219(4)
C62 C 0.5056(3) 0.1974(3) 0.6687(4)
H46 H 0.5386 0.2066 0.6719
C63 C 0.4342(4) 0.1806(3) 0.6089(4)
C64 C 0.4121(4) 0.1680(3) 0.6616(4)
H47 H 0.3806 0.1565 0.6578
C65 C 0.4353(5) 0.1723(3) 0.7154(4)
H48 H 0.4184 0.1668 0.7503
C66 C 0.4150(4) 0.1810(3) 0.5495(5)
H49 H 0.3809 0.1752 0.5407
C67 C 0.4211(4) 0.1858(4) 0.4470(5)
C68 C 0.4299(4) 0.1572(4) 0.4135(4)
H50 H 0.4497 0.1382 0.4293
C69 C 0.4074(4) 0.1567(4) 0.3513(5)
H51 H 0.4107 0.1362 0.3275
C70 C 0.3829(4) 0.1841(4) 0.3280(5)
H52 H 0.3701 0.1834 0.2872
C71 C 0.3760(4) 0.2125(4) 0.3607(4)
H53 H 0.3596 0.2327 0.3440
C72 C 0.3941(4) 0.2113(4) 0.4212(5)
H54 H 0.3861 0.2306 0.4458
N1 N 0.6781(3) 0.43093(19) 0.7141(4)
N2 N 0.6460(2) 0.3681(2) 0.6925(3)
N3 N 0.5648(3) 0.2350(3) 0.5747(3)
N4 N 0.5484(3) 0.1713(2) 0.5402(3)
N5 N 0.7369(2) 0.3676(2) 0.7532(3)
N6 N 0.6670(3) 0.34689(19) 0.8170(3)
N7 N 0.5356(3) 0.2560(2) 0.9621(3)
N8 N 0.4803(3) 0.2320(3) 1.0406(3)
N9 N 0.6963(4) 0.4157(2) 0.8425(3)
N10 N 0.6097(3) 0.4101(2) 0.7890(3)
N11 N 0.4808(3) 0.1967(2) 0.6145(3)
N12 N 0.4408(3) 0.1888(2) 0.5079(3)
Fe1 Fe 0.67354(5) 0.39059(4) 0.76916(5)
Fe2 Fe 0.50368(5) 0.21278(4) 0.53735(5)
C49A C 0.1584(6) 0.4211(6) 0.5764(7)
H37A H 0.1238 0.4217 0.5643
C50A C 0.1853(6) 0.3920(6) 0.5727(5)
H38A H 0.1715 0.3730 0.5493
C51A C 0.2349(4) 0.3875(4) 0.6023(5)
H39A H 0.2520 0.3656 0.6034
C52A C 0.2546(4) 0.4168(3) 0.6279(4)
C53A C 0.2275(5) 0.4474(4) 0.6231(6)
H40A H 0.2411 0.4690 0.6384
C54A C 0.1803(6) 0.4461(5) 0.5957(7)
H41A H 0.1630 0.4679 0.5918
C55A C 0.3395(5) 0.4314(3) 0.6315(5)
H42A H 0.3333 0.4433 0.5943
C56A C 0.3885(4) 0.4300(3) 0.6611(6)
C57A C 0.4349(4) 0.4096(2) 0.7452(4)
H43A H 0.4380 0.3975 0.7826
C58A C 0.4758(4) 0.4271(3) 0.7236(6)
C59A C 0.4748(5) 0.4440(3) 0.6734(5)
H44A H 0.5046 0.4528 0.6582
C60A C 0.4304(5) 0.4487(3) 0.6437(5)
H45A H 0.4270 0.4646 0.6108
N9A N 0.3037(4) 0.4157(2) 0.6575(3)
N10A N 0.3903(3) 0.4101(2) 0.7110(3)
C61A C 0.5150(4) 0.1850(3) 0.7781(4)
C62A C 0.4944(3) 0.1974(3) 0.8313(4)
H46A H 0.4614 0.2066 0.8281
C63A C 0.5658(4) 0.1806(3) 0.8911(4)
C64A C 0.5879(4) 0.1680(3) 0.8384(4)
H47A H 0.6194 0.1565 0.8422
C65A C 0.5647(5) 0.1723(3) 0.7846(4)
H48A H 0.5816 0.1668 0.7497
C66A C 0.5850(4) 0.1810(3) 0.9505(5)
H49A H 0.6191 0.1752 0.9593
C67A C 0.5789(4) 0.1858(4) 1.0530(5)
C68A C 0.5701(4) 0.1572(4) 1.0865(4)
H50A H 0.5503 0.1382 1.0707
C69A C 0.5926(4) 0.1567(4) 1.1487(5)
H51A H 0.5893 0.1362 1.1725
C70A C 0.6171(4) 0.1841(4) 1.1720(5)
H52A H 0.6299 0.1834 1.2128
C71A C 0.6240(4) 0.2125(4) 1.1393(4)
H53A H 0.6404 0.2327 1.1560
C72A C 0.6059(4) 0.2113(4) 1.0788(5)
H54A H 0.6139 0.2306 1.0542
N11A N 0.5192(3) 0.1967(2) 0.8855(3)
N12A N 0.5592(3) 0.1888(2) 0.9921(3)
C1A C 0.2730(5) 0.5326(2) 0.7429(6)
H1A H 0.2620 0.5558 0.7326
C2A C 0.2415(4) 0.5097(3) 0.7709(6)
H2A H 0.2091 0.5172 0.7798
C3A C 0.2575(5) 0.4758(3) 0.7860(6)
H3A H 0.2360 0.4602 0.8051
C4A C 0.3049(5) 0.4648(2) 0.7731(6)
C5A C 0.3364(4) 0.4877(3) 0.7451(6)
H4A H 0.3688 0.4802 0.7362
C6A C 0.3204(5) 0.5216(3) 0.7300(6)
H5A H 0.3418 0.5372 0.7108
C7A C 0.3377(3) 0.4230(3) 0.8410(5)
H6A H 0.3373 0.4405 0.8714
C8A C 0.3546(3) 0.3900(3) 0.8555(4)
C9A C 0.3648(3) 0.3319(2) 0.8149(4)
H7A H 0.3638 0.3163 0.7815
C10A C 0.3769(3) 0.3201(3) 0.8721(4)
C11A C 0.3785(3) 0.3410(3) 0.9217(4)
H8A H 0.3863 0.3317 0.9608
C12A C 0.3682(4) 0.3768(3) 0.9125(4)
H9A H 0.3706 0.3924 0.9459
C13A C 0.3851(3) 0.2815(3) 0.8819(3)
C14A C 0.4277(3) 0.2696(3) 0.9115(3)
H10A H 0.4532 0.2861 0.9230
C15A C 0.4001(4) 0.2125(3) 0.9098(3)
C16A C 0.3566(4) 0.2197(3) 0.8745(5)
H11A H 0.3335 0.2019 0.8614
C17A C 0.3493(4) 0.2541(4) 0.8602(4)
H12A H 0.3205 0.2608 0.8356
C18A C 0.4100(4) 0.1764(3) 0.9308(4)
H13A H 0.3866 0.1579 0.9231
C19A C 0.4639(3) 0.13630(18) 0.9829(4)
C20A C 0.4480(3) 0.1260(2) 1.0383(4)
H14A H 0.4273 0.1412 1.0595
C21A C 0.4625(4) 0.0936(3) 1.0626(3)
H15A H 0.4517 0.0866 1.1005
C22A C 0.4928(4) 0.0714(2) 1.0316(5)
H16A H 0.5027 0.0492 1.0482
C23A C 0.5087(3) 0.0817(2) 0.9762(5)
H17A H 0.5294 0.0665 0.9549
C24A C 0.4942(3) 0.1141(3) 0.9518(3)
H18A H 0.5050 0.1211 0.9140
C25A C 0.1550(3) 0.4115(2) 0.8552(4)
H19A H 0.1311 0.4215 0.8797
C26A C 0.1948(3) 0.3922(2) 0.8812(3)
H20A H 0.1981 0.3888 0.9235
C27A C 0.2297(3) 0.3776(2) 0.8452(4)
H21A H 0.2569 0.3644 0.8630
C28A C 0.2248(3) 0.3825(2) 0.7833(4)
C29A C 0.1850(3) 0.4019(2) 0.7573(3)
H22A H 0.1817 0.4053 0.7150
C30A C 0.1501(3) 0.4164(2) 0.7932(4)
H23A H 0.1229 0.4297 0.7755
C31A C 0.2558(4) 0.3367(3) 0.7289(4)
H24A H 0.2274 0.3230 0.7367
C32A C 0.2978(4) 0.3238(3) 0.6933(4)
C33A C 0.3675(3) 0.3382(3) 0.6455(4)
H25A H 0.3915 0.3553 0.6363
C34A C 0.3697(4) 0.3047(3) 0.6190(4)
C35A C 0.3346(5) 0.2805(3) 0.6320(5)
H26A H 0.3357 0.2575 0.6152
C36A C 0.2963(4) 0.2891(3) 0.6704(4)
H27A H 0.2714 0.2726 0.6799
C37A C 0.4063(3) 0.2980(3) 0.5752(4)
C38A C 0.4327(4) 0.2678(3) 0.5791(4)
H28A H 0.4292 0.2535 0.6135
C39A C 0.4686(4) 0.2788(4) 0.4892(4)
C40A C 0.4435(4) 0.3097(3) 0.4851(5)
H29A H 0.4482 0.3248 0.4520
C41A C 0.4120(4) 0.3196(3) 0.5263(5)
H30A H 0.3940 0.3412 0.5219
C42A C 0.5020(4) 0.2614(4) 0.4465(4)
H31A H 0.5093 0.2728 0.4103
C43A C 0.5512(4) 0.2146(3) 0.4157(4)
C44A C 0.6025(4) 0.2123(3) 0.4299(4)
H32A H 0.6166 0.2221 0.4665
C45A C 0.6316(4) 0.1965(3) 0.3931(4)
H33A H 0.6663 0.1944 0.4036
C46A C 0.6107(4) 0.1824(3) 0.3368(5)
H34A H 0.6313 0.1710 0.3099
C47A C 0.5601(5) 0.1860(3) 0.3229(4)
H35A H 0.5456 0.1765 0.2863
C48A C 0.5288(4) 0.2043(3) 0.3633(4)
H36A H 0.4944 0.2086 0.3531
N1A N 0.3219(3) 0.43093(19) 0.7859(4)
N2A N 0.3540(2) 0.3681(2) 0.8075(3)
N3A N 0.4352(3) 0.2350(3) 0.9253(3)
N4A N 0.4516(3) 0.1713(2) 0.9598(3)
N5A N 0.2631(2) 0.3676(2) 0.7468(3)
N6A N 0.3330(3) 0.34689(19) 0.6830(3)
N7A N 0.4644(3) 0.2560(2) 0.5379(3)
N8A N 0.5197(3) 0.2320(3) 0.4594(3)
Fe1A Fe 0.32646(5) 0.39059(4) 0.73084(5)
Fe2A Fe 0.49632(5) 0.21278(4) 0.96265(5)
loop_
_geom_bond_atom_site_label_1
_geom_bond_atom_site_label_2
_geom_bond_site_symmetry_1
_geom_bond_site_symmetry_2
C1 H1 1_555 1_555
C2 C1 1_555 1_555
H2 C2 1_555 1_555
C3 C2 1_555 1_555
H3 C3 1_555 1_555
C4 C3 1_555 1_555
C5 C4 1_555 1_555
H4 C5 1_555 1_555
C6 C1 1_555 1_555
H5 C6 1_555 1_555
C7 H6 1_555 1_555
C8 C7 1_555 1_555
C9 H7 1_555 1_555
C10 C9 1_555 1_555
C11 C10 1_555 1_555
H8 C11 1_555 1_555
C12 C8 1_555 1_555
H9 C12 1_555 1_555
C13 C10 1_555 1_555
C14 C13 1_555 1_555
H10 C14 1_555 1_555
C15 C16 1_555 1_555
C16 H11 1_555 1_555
C17 C13 1_555 1_555
H12 C17 1_555 1_555
C18 C15 1_555 1_555
H13 C18 1_555 1_555
C19 C20 1_555 1_555
C20 H14 1_555 1_555
C21 C20 1_555 1_555
H15 C21 1_555 1_555
C22 C21 1_555 1_555
H16 C22 1_555 1_555
C23 C22 1_555 1_555
H17 C23 1_555 1_555
C24 C19 1_555 1_555
H18 C24 1_555 1_555
C25 H19 1_555 1_555
C26 C25 1_555 1_555
H20 C26 1_555 1_555
C27 C26 1_555 1_555
H21 C27 1_555 1_555
C28 C27 1_555 1_555
C29 C28 1_555 1_555
H22 C29 1_555 1_555
C30 C25 1_555 1_555
H23 C30 1_555 1_555
C31 H24 1_555 1_555
C32 C31 1_555 1_555
C33 H25 1_555 1_555
C34 C33 1_555 1_555
C35 C34 1_555 1_555
H26 C35 1_555 1_555
C36 C32 1_555 1_555
H27 C36 1_555 1_555
C37 C34 1_555 1_555
C38 C37 1_555 1_555
H28 C38 1_555 1_555
C39 C40 1_555 1_555
C40 H29 1_555 1_555
C41 C37 1_555 1_555
H30 C41 1_555 1_555
C42 C39 1_555 1_555
H31 C42 1_555 1_555
C43 C44 1_555 1_555
C44 H32 1_555 1_555
C45 C44 1_555 1_555
H33 C45 1_555 1_555
C46 C45 1_555 1_555
H34 C46 1_555 1_555
C47 C46 1_555 1_555
H35 C47 1_555 1_555
C48 C43 1_555 1_555
H36 C48 1_555 1_555
C49 H37 1_555 1_555
C50 C49 1_555 1_555
H38 C50 1_555 1_555
C51 C50 1_555 1_555
H39 C51 1_555 1_555
C52 C51 1_555 1_555
C53 C52 1_555 1_555
H40 C53 1_555 1_555
C54 C49 1_555 1_555
H41 C54 1_555 1_555
C55 H42 1_555 1_555
C56 C55 1_555 1_555
C57 H43 1_555 1_555
C58 C57 1_555 1_555
C59 C58 1_555 1_555
H44 C59 1_555 1_555
C60 C56 1_555 1_555
H45 C60 1_555 1_555
C61 C62 1_555 1_555
C62 H46 1_555 1_555
C63 C64 1_555 1_555
C64 H47 1_555 1_555
C65 C61 1_555 1_555
H48 C65 1_555 1_555
C66 C63 1_555 1_555
H49 C66 1_555 1_555
C67 C68 1_555 1_555
C68 H50 1_555 1_555
C69 C68 1_555 1_555
H51 C69 1_555 1_555
C70 C69 1_555 1_555
H52 C70 1_555 1_555
C71 C70 1_555 1_555
H53 C71 1_555 1_555
C72 C67 1_555 1_555
H54 C72 1_555 1_555
N1 C4 1_555 1_555
N2 C8 1_555 1_555
N3 C14 1_555 1_555
N4 C18 1_555 1_555
N5 C28 1_555 1_555
N6 C32 1_555 1_555
N7 C38 1_555 1_555
N8 C42 1_555 1_555
N9 C52 1_555 1_555
N10 C56 1_555 1_555
N11 C62 1_555 1_555
N12 C66 1_555 1_555
Fe1 N1 1_555 1_555
Fe2 N3 1_555 1_555
B1 F1 1_555 1_555
F2 B1 1_555 1_555
F3 B1 1_555 1_555
C49A H37A 1_555 1_555
C50A C49A 1_555 1_555
H38A C50A 1_555 1_555
C51A C50A 1_555 1_555
H39A C51A 1_555 1_555
C52A C51A 1_555 1_555
C53A C52A 1_555 1_555
H40A C53A 1_555 1_555
C54A C49A 1_555 1_555
H41A C54A 1_555 1_555
C55A H42A 1_555 1_555
C56A C55A 1_555 1_555
C57A H43A 1_555 1_555
C58A C58 1_555 1_555
C59A C58A 1_555 1_555
H44A C59A 1_555 1_555
C60A C56A 1_555 1_555
H45A C60A 1_555 1_555
N9A C52A 1_555 1_555
N10A C56A 1_555 1_555
C61A C61 1_555 1_555
C62A C61A 1_555 1_555
H46A C62A 1_555 1_555
C63A C64A 1_555 1_555
C64A H47A 1_555 1_555
C65A C61A 1_555 1_555
H48A C65A 1_555 1_555
C66A C63A 1_555 1_555
H49A C66A 1_555 1_555
C67A C68A 1_555 1_555
C68A H50A 1_555 1_555
C69A C68A 1_555 1_555
H51A C69A 1_555 1_555
C70A C69A 1_555 1_555
H52A C70A 1_555 1_555
C71A C70A 1_555 1_555
H53A C71A 1_555 1_555
C72A C67A 1_555 1_555
H54A C72A 1_555 1_555
N11A C62A 1_555 1_555
N12A C66A 1_555 1_555
C1A H1A 1_555 1_555
C2A C1A 1_555 1_555
H2A C2A 1_555 1_555
C3A C2A 1_555 1_555
H3A C3A 1_555 1_555
C4A C3A 1_555 1_555
C5A C4A 1_555 1_555
H4A C5A 1_555 1_555
C6A C1A 1_555 1_555
H5A C6A 1_555 1_555
C7A H6A 1_555 1_555
C8A C7A 1_555 1_555
C9A H7A 1_555 1_555
C10A C9A 1_555 1_555
C11A C10A 1_555 1_555
H8A C11A 1_555 1_555
C12A C8A 1_555 1_555
H9A C12A 1_555 1_555
C13A C10A 1_555 1_555
C14A C13A 1_555 1_555
H10A C14A 1_555 1_555
C15A C16A 1_555 1_555
C16A H11A 1_555 1_555
C17A C13A 1_555 1_555
H12A C17A 1_555 1_555
C18A C15A 1_555 1_555
H13A C18A 1_555 1_555
C19A C20A 1_555 1_555
C20A H14A 1_555 1_555
C21A C20A 1_555 1_555
H15A C21A 1_555 1_555
C22A C21A 1_555 1_555
H16A C22A 1_555 1_555
C23A C22A 1_555 1_555
H17A C23A 1_555 1_555
C24A C19A 1_555 1_555
H18A C24A 1_555 1_555
C25A H19A 1_555 1_555
C26A C25A 1_555 1_555
H20A C26A 1_555 1_555
C27A C26A 1_555 1_555
H21A C27A 1_555 1_555
C28A C27A 1_555 1_555
C29A C28A 1_555 1_555
H22A C29A 1_555 1_555
C30A C25A 1_555 1_555
H23A C30A 1_555 1_555
C31A H24A 1_555 1_555
C32A C31A 1_555 1_555
C33A H25A 1_555 1_555
C34A C33A 1_555 1_555
C35A C34A 1_555 1_555
H26A C35A 1_555 1_555
C36A C32A 1_555 1_555
H27A C36A 1_555 1_555
C37A C34A 1_555 1_555
C38A C37A 1_555 1_555
H28A C38A 1_555 1_555
C39A C40A 1_555 1_555
C40A H29A 1_555 1_555
C41A C37A 1_555 1_555
H30A C41A 1_555 1_555
C42A C39A 1_555 1_555
H31A C42A 1_555 1_555
C43A C44A 1_555 1_555
C44A H32A 1_555 1_555
C45A C44A 1_555 1_555
H33A C45A 1_555 1_555
C46A C45A 1_555 1_555
H34A C46A 1_555 1_555
C47A C46A 1_555 1_555
H35A C47A 1_555 1_555
C48A C43A 1_555 1_555
H36A C48A 1_555 1_555
N1A C4A 1_555 1_555
N2A C8A 1_555 1_555
N3A C14A 1_555 1_555
N4A C18A 1_555 1_555
N5A C28A 1_555 1_555
N6A C32A 1_555 1_555
N7A Fe2 1_555 1_555
N8A Fe2 1_555 1_555
Fe1A N9A 1_555 1_555
Fe2A N7 1_555 1_555
B1A B1 1_555 1_555
F1A B1A 1_555 1_555
F2A B1A 1_555 1_555
F3A B1 1_555 1_555
C5 C6 1_555 1_555
C7 N1 1_555 1_555
C9 N2 1_555 1_555
C11 C12 1_555 1_555
C15 N3 1_555 1_555
C16 C17 1_555 1_555
C19 N4 1_555 1_555
C23 C24 1_555 1_555
C29 C30 1_555 1_555
C31 N5 1_555 1_555
C33 N6 1_555 1_555
C35 C36 1_555 1_555
C39 N7 1_555 1_555
C40 C41 1_555 1_555
C43 N8 1_555 1_555
C47 C48 1_555 1_555
C53 C54 1_555 1_555
C55 N9 1_555 1_555
C57 N10 1_555 1_555
C59 C60 1_555 1_555
C63 N11 1_555 1_555
C64 C65 1_555 1_555
C67 N12 1_555 1_555
C71 C72 1_555 1_555
N2 Fe1 1_555 1_555
N4 Fe2 1_555 1_555
N5 Fe1 1_555 1_555
N6 Fe1 1_555 1_555
N8 Fe2A 1_555 1_555
N9 Fe1 1_555 1_555
N10 Fe1 1_555 1_555
N11 Fe2 1_555 1_555
N12 Fe2 1_555 1_555
F3 B1A 1_555 1_555
C53A C54A 1_555 1_555
C55A N9A 1_555 1_555
C57A C58A 1_555 1_555
C57A N10A 1_555 1_555
C59A C60A 1_555 1_555
N10A Fe1A 1_555 1_555
C63A N11A 1_555 1_555
C64A C65A 1_555 1_555
C67A N12A 1_555 1_555
C71A C72A 1_555 1_555
N11A Fe2A 1_555 1_555
N12A Fe2A 1_555 1_555
C5A C6A 1_555 1_555
C7A N1A 1_555 1_555
C9A N2A 1_555 1_555
C11A C12A 1_555 1_555
C15A N3A 1_555 1_555
C16A C17A 1_555 1_555
C19A N4A 1_555 1_555
C23A C24A 1_555 1_555
C29A C30A 1_555 1_555
C31A N5A 1_555 1_555
C33A N6A 1_555 1_555
C35A C36A 1_555 1_555
C38A N7A 1_555 1_555
C39A N7A 1_555 1_555
C40A C41A 1_555 1_555
C42A N8A 1_555 1_555
C43A N8A 1_555 1_555
C47A C48A 1_555 1_555
N1A Fe1A 1_555 1_555
N2A Fe1A 1_555 1_555
N3A Fe2A 1_555 1_555
N4A Fe2A 1_555 1_555
N5A Fe1A 1_555 1_555
N6A Fe1A 1_555 1_555
B1A F3A 1_555 1_555

#END
