# generated using pymatgen
data_Fe20H672C788N124Cl25O92
_symmetry_space_group_name_H-M   'P 1'
_cell_length_a   43.15490000
_cell_length_b   43.15490000
_cell_length_c   54.13650000
_cell_angle_alpha   90.00000000
_cell_angle_beta   90.00000000
_cell_angle_gamma   90.00000000
_symmetry_Int_Tables_number   1
_chemical_formula_structural   Fe20H672C788N124Cl25O92
_chemical_formula_sum   'Fe80 H2688 C3152 N496 Cl100 O368'
_cell_volume   100820.86142282
_cell_formula_units_Z   4
loop_
 _symmetry_equiv_pos_site_id
 _symmetry_equiv_pos_as_xyz
  1  'x, y, z'
loop_
 _atom_site_type_symbol
 _atom_site_label
 _atom_site_symmetry_multiplicity
 _atom_site_fract_x
 _atom_site_fract_y
 _atom_site_fract_z
 _atom_site_occupancy
  Fe  Fe1  1  0.611350  0.368860  0.951540  1
  Fe  Fe2  1  0.388650  0.631140  0.451540  1
  Fe  Fe3  1  0.131140  0.111350  0.201540  1
  Fe  Fe4  1  0.868860  0.888650  0.701540  1
  Fe  Fe5  1  0.888650  0.868860  0.298460  1
  Fe  Fe6  1  0.111350  0.131140  0.798460  1
  Fe  Fe7  1  0.368860  0.611350  0.048460  1
  Fe  Fe8  1  0.631140  0.388650  0.548460  1
  Fe  Fe9  1  0.774760  0.404170  0.037140  1
  Fe  Fe10  1  0.225240  0.595830  0.537140  1
  Fe  Fe11  1  0.095830  0.274760  0.287140  1
  Fe  Fe12  1  0.904170  0.725240  0.787140  1
  Fe  Fe13  1  0.725240  0.904170  0.212860  1
  Fe  Fe14  1  0.274760  0.095830  0.712860  1
  Fe  Fe15  1  0.404170  0.774760  0.962860  1
  Fe  Fe16  1  0.595830  0.225240  0.462860  1
  Fe  Fe17  1  0.794600  0.260150  0.142910  1
  Fe  Fe18  1  0.205400  0.739850  0.642910  1
  Fe  Fe19  1  0.239850  0.294600  0.392910  1
  Fe  Fe20  1  0.760150  0.705400  0.892910  1
  Fe  Fe21  1  0.705400  0.760150  0.107090  1
  Fe  Fe22  1  0.294600  0.239850  0.607090  1
  Fe  Fe23  1  0.260150  0.794600  0.857090  1
  Fe  Fe24  1  0.739850  0.205400  0.357090  1
  Fe  Fe25  1  0.641490  0.142570  0.122560  1
  Fe  Fe26  1  0.358510  0.857430  0.622560  1
  Fe  Fe27  1  0.357430  0.141490  0.372560  1
  Fe  Fe28  1  0.642570  0.858510  0.872560  1
  Fe  Fe29  1  0.858510  0.642570  0.127440  1
  Fe  Fe30  1  0.141490  0.357430  0.627440  1
  Fe  Fe31  1  0.142570  0.641490  0.877440  1
  Fe  Fe32  1  0.857430  0.358510  0.377440  1
  Fe  Fe33  1  0.527490  0.208270  0.002950  1
  Fe  Fe34  1  0.472510  0.791730  0.502950  1
  Fe  Fe35  1  0.291730  0.027490  0.252950  1
  Fe  Fe36  1  0.708270  0.972510  0.752950  1
  Fe  Fe37  1  0.972510  0.708270  0.247050  1
  Fe  Fe38  1  0.027490  0.291730  0.747050  1
  Fe  Fe39  1  0.208270  0.527490  0.997050  1
  Fe  Fe40  1  0.791730  0.472510  0.497050  1
  Fe  Fe41  1  0.733950  0.292430  0.861810  1
  Fe  Fe42  1  0.266050  0.707570  0.361810  1
  Fe  Fe43  1  0.207570  0.233950  0.111810  1
  Fe  Fe44  1  0.792430  0.766050  0.611810  1
  Fe  Fe45  1  0.766050  0.792430  0.388190  1
  Fe  Fe46  1  0.233950  0.207570  0.888190  1
  Fe  Fe47  1  0.292430  0.733950  0.138190  1
  Fe  Fe48  1  0.707570  0.266050  0.638190  1
  Fe  Fe49  1  0.889060  0.296860  0.961250  1
  Fe  Fe50  1  0.110940  0.703140  0.461250  1
  Fe  Fe51  1  0.203140  0.389060  0.211250  1
  Fe  Fe52  1  0.796860  0.610940  0.711250  1
  Fe  Fe53  1  0.610940  0.796860  0.288750  1
  Fe  Fe54  1  0.389060  0.203140  0.788750  1
  Fe  Fe55  1  0.296860  0.889060  0.038750  1
  Fe  Fe56  1  0.703140  0.110940  0.538750  1
  Fe  Fe57  1  0.879510  0.141260  0.055220  1
  Fe  Fe58  1  0.120490  0.858740  0.555220  1
  Fe  Fe59  1  0.358740  0.379510  0.305220  1
  Fe  Fe60  1  0.641260  0.620490  0.805220  1
  Fe  Fe61  1  0.620490  0.641260  0.194780  1
  Fe  Fe62  1  0.379510  0.358740  0.694780  1
  Fe  Fe63  1  0.141260  0.879510  0.944780  1
  Fe  Fe64  1  0.858740  0.120490  0.444780  1
  Fe  Fe65  1  0.715590  0.038940  0.018830  1
  Fe  Fe66  1  0.284410  0.961060  0.518830  1
  Fe  Fe67  1  0.461060  0.215590  0.268830  1
  Fe  Fe68  1  0.538940  0.784410  0.768830  1
  Fe  Fe69  1  0.784410  0.538940  0.231170  1
  Fe  Fe70  1  0.215590  0.461060  0.731170  1
  Fe  Fe71  1  0.038940  0.715590  0.981170  1
  Fe  Fe72  1  0.961060  0.284410  0.481170  1
  Fe  Fe73  1  0.630430  0.134780  0.899340  1
  Fe  Fe74  1  0.369570  0.865220  0.399340  1
  Fe  Fe75  1  0.365220  0.130430  0.149340  1
  Fe  Fe76  1  0.634780  0.869570  0.649340  1
  Fe  Fe77  1  0.869570  0.634780  0.350660  1
  Fe  Fe78  1  0.130430  0.365220  0.850660  1
  Fe  Fe79  1  0.134780  0.630430  0.100660  1
  Fe  Fe80  1  0.865220  0.369570  0.600660  1
  H  H81  1  0.533000  0.373500  0.961300  1
  H  H82  1  0.467000  0.626500  0.461300  1
  H  H83  1  0.126500  0.033000  0.211300  1
  H  H84  1  0.873500  0.967000  0.711300  1
  H  H85  1  0.967000  0.873500  0.288700  1
  H  H86  1  0.033000  0.126500  0.788700  1
  H  H87  1  0.373500  0.533000  0.038700  1
  H  H88  1  0.626500  0.467000  0.538700  1
  H  H89  1  0.483900  0.368300  0.943400  1
  H  H90  1  0.516100  0.631700  0.443400  1
  H  H91  1  0.131700  0.983900  0.193400  1
  H  H92  1  0.868300  0.016100  0.693400  1
  H  H93  1  0.016100  0.868300  0.306600  1
  H  H94  1  0.983900  0.131700  0.806600  1
  H  H95  1  0.368300  0.483900  0.056600  1
  H  H96  1  0.631700  0.516100  0.556600  1
  H  H97  1  0.511400  0.421100  0.885500  1
  H  H98  1  0.488600  0.578900  0.385500  1
  H  H99  1  0.078900  0.011400  0.135500  1
  H  H100  1  0.921100  0.988600  0.635500  1
  H  H101  1  0.988600  0.921100  0.364500  1
  H  H102  1  0.011400  0.078900  0.864500  1
  H  H103  1  0.421100  0.511400  0.114500  1
  H  H104  1  0.578900  0.488600  0.614500  1
  H  H105  1  0.560500  0.426300  0.903400  1
  H  H106  1  0.439500  0.573700  0.403400  1
  H  H107  1  0.073700  0.060500  0.153400  1
  H  H108  1  0.926300  0.939500  0.653400  1
  H  H109  1  0.939500  0.926300  0.346600  1
  H  H110  1  0.060500  0.073700  0.846600  1
  H  H111  1  0.426300  0.560500  0.096600  1
  H  H112  1  0.573700  0.439500  0.596600  1
  H  H113  1  0.461700  0.402500  0.882600  1
  H  H114  1  0.538300  0.597500  0.382600  1
  H  H115  1  0.097500  0.961700  0.132600  1
  H  H116  1  0.902500  0.038300  0.632600  1
  H  H117  1  0.038300  0.902500  0.367400  1
  H  H118  1  0.961700  0.097500  0.867400  1
  H  H119  1  0.402500  0.461700  0.117400  1
  H  H120  1  0.597500  0.538300  0.617400  1
  H  H121  1  0.443600  0.394600  0.907700  1
  H  H122  1  0.556400  0.605400  0.407700  1
  H  H123  1  0.105400  0.943600  0.157700  1
  H  H124  1  0.894600  0.056400  0.657700  1
  H  H125  1  0.056400  0.894600  0.342300  1
  H  H126  1  0.943600  0.105400  0.842300  1
  H  H127  1  0.394600  0.443600  0.092300  1
  H  H128  1  0.605400  0.556400  0.592300  1
  H  H129  1  0.459800  0.367500  0.892200  1
  H  H130  1  0.540200  0.632500  0.392200  1
  H  H131  1  0.132500  0.959800  0.142200  1
  H  H132  1  0.867500  0.040200  0.642200  1
  H  H133  1  0.040200  0.867500  0.357800  1
  H  H134  1  0.959800  0.132500  0.857800  1
  H  H135  1  0.367500  0.459800  0.107800  1
  H  H136  1  0.632500  0.540200  0.607800  1
  H  H137  1  0.584700  0.449900  0.938800  1
  H  H138  1  0.415300  0.550100  0.438800  1
  H  H139  1  0.050100  0.084700  0.188800  1
  H  H140  1  0.949900  0.915300  0.688800  1
  H  H141  1  0.915300  0.949900  0.311200  1
  H  H142  1  0.084700  0.050100  0.811200  1
  H  H143  1  0.449900  0.584700  0.061200  1
  H  H144  1  0.550100  0.415300  0.561200  1
  H  H145  1  0.675500  0.384400  0.973000  1
  H  H146  1  0.324500  0.615600  0.473000  1
  H  H147  1  0.115600  0.175500  0.223000  1
  H  H148  1  0.884400  0.824500  0.723000  1
  H  H149  1  0.824500  0.884400  0.277000  1
  H  H150  1  0.175500  0.115600  0.777000  1
  H  H151  1  0.384400  0.675500  0.027000  1
  H  H152  1  0.615600  0.324500  0.527000  1
  H  H153  1  0.687300  0.474700  0.960800  1
  H  H154  1  0.312700  0.525300  0.460800  1
  H  H155  1  0.025300  0.187300  0.210800  1
  H  H156  1  0.974700  0.812700  0.710800  1
  H  H157  1  0.812700  0.974700  0.289200  1
  H  H158  1  0.187300  0.025300  0.789200  1
  H  H159  1  0.474700  0.687300  0.039200  1
  H  H160  1  0.525300  0.312700  0.539200  1
  H  H161  1  0.634000  0.477600  0.947100  1
  H  H162  1  0.366000  0.522400  0.447100  1
  H  H163  1  0.022400  0.134000  0.197100  1
  H  H164  1  0.977600  0.866000  0.697100  1
  H  H165  1  0.866000  0.977600  0.302900  1
  H  H166  1  0.134000  0.022400  0.802900  1
  H  H167  1  0.477600  0.634000  0.052900  1
  H  H168  1  0.522400  0.366000  0.552900  1
  H  H169  1  0.712300  0.407500  0.008800  1
  H  H170  1  0.287700  0.592500  0.508800  1
  H  H171  1  0.092500  0.212300  0.258800  1
  H  H172  1  0.907500  0.787700  0.758800  1
  H  H173  1  0.787700  0.907500  0.241200  1
  H  H174  1  0.212300  0.092500  0.741200  1
  H  H175  1  0.407500  0.712300  0.991200  1
  H  H176  1  0.592500  0.287700  0.491200  1
  H  H177  1  0.790100  0.444000  0.955800  1
  H  H178  1  0.209900  0.556000  0.455800  1
  H  H179  1  0.056000  0.290100  0.205800  1
  H  H180  1  0.944000  0.709900  0.705800  1
  H  H181  1  0.709900  0.944000  0.294200  1
  H  H182  1  0.290100  0.056000  0.794200  1
  H  H183  1  0.444000  0.790100  0.044200  1
  H  H184  1  0.556000  0.209900  0.544200  1
  H  H185  1  0.738600  0.453300  0.944200  1
  H  H186  1  0.261400  0.546700  0.444200  1
  H  H187  1  0.046700  0.238600  0.194200  1
  H  H188  1  0.953300  0.761400  0.694200  1
  H  H189  1  0.761400  0.953300  0.305800  1
  H  H190  1  0.238600  0.046700  0.805800  1
  H  H191  1  0.453300  0.738600  0.055800  1
  H  H192  1  0.546700  0.261400  0.555800  1
  H  H193  1  0.827600  0.428700  0.987000  1
  H  H194  1  0.172400  0.571300  0.487000  1
  H  H195  1  0.071300  0.327600  0.237000  1
  H  H196  1  0.928700  0.672400  0.737000  1
  H  H197  1  0.672400  0.928700  0.263000  1
  H  H198  1  0.327600  0.071300  0.763000  1
  H  H199  1  0.428700  0.827600  0.013000  1
  H  H200  1  0.571300  0.172400  0.513000  1
  H  H201  1  0.840100  0.364200  0.042400  1
  H  H202  1  0.159900  0.635800  0.542400  1
  H  H203  1  0.135800  0.340100  0.292400  1
  H  H204  1  0.864200  0.659900  0.792400  1
  H  H205  1  0.659900  0.864200  0.207600  1
  H  H206  1  0.340100  0.135800  0.707600  1
  H  H207  1  0.364200  0.840100  0.957600  1
  H  H208  1  0.635800  0.159900  0.457600  1
  H  H209  1  0.891100  0.360300  0.056800  1
  H  H210  1  0.108900  0.639700  0.556800  1
  H  H211  1  0.139700  0.391100  0.306800  1
  H  H212  1  0.860300  0.608900  0.806800  1
  H  H213  1  0.608900  0.860300  0.193200  1
  H  H214  1  0.391100  0.139700  0.693200  1
  H  H215  1  0.360300  0.891100  0.943200  1
  H  H216  1  0.639700  0.108900  0.443200  1
  H  H217  1  0.910300  0.444900  0.028200  1
  H  H218  1  0.089700  0.555100  0.528200  1
  H  H219  1  0.055100  0.410300  0.278200  1
  H  H220  1  0.944900  0.589700  0.778200  1
  H  H221  1  0.589700  0.944900  0.221800  1
  H  H222  1  0.410300  0.055100  0.721800  1
  H  H223  1  0.444900  0.910300  0.971800  1
  H  H224  1  0.555100  0.089700  0.471800  1
  H  H225  1  0.859300  0.448800  0.013800  1
  H  H226  1  0.140700  0.551200  0.513800  1
  H  H227  1  0.051200  0.359300  0.263800  1
  H  H228  1  0.948800  0.640700  0.763800  1
  H  H229  1  0.640700  0.948800  0.236200  1
  H  H230  1  0.359300  0.051200  0.736200  1
  H  H231  1  0.448800  0.859300  0.986200  1
  H  H232  1  0.551200  0.140700  0.486200  1
  H  H233  1  0.951500  0.416300  0.045700  1
  H  H234  1  0.048500  0.583700  0.545700  1
  H  H235  1  0.083700  0.451500  0.295700  1
  H  H236  1  0.916300  0.548500  0.795700  1
  H  H237  1  0.548500  0.916300  0.204300  1
  H  H238  1  0.451500  0.083700  0.704300  1
  H  H239  1  0.416300  0.951500  0.954300  1
  H  H240  1  0.583700  0.048500  0.454300  1
  H  H241  1  0.947700  0.379500  0.047300  1
  H  H242  1  0.052300  0.620500  0.547300  1
  H  H243  1  0.120500  0.447700  0.297300  1
  H  H244  1  0.879500  0.552300  0.797300  1
  H  H245  1  0.552300  0.879500  0.202700  1
  H  H246  1  0.447700  0.120500  0.702700  1
  H  H247  1  0.379500  0.947700  0.952700  1
  H  H248  1  0.620500  0.052300  0.452700  1
  H  H249  1  0.939800  0.400500  0.070800  1
  H  H250  1  0.060200  0.599500  0.570800  1
  H  H251  1  0.099500  0.439800  0.320800  1
  H  H252  1  0.900500  0.560200  0.820800  1
  H  H253  1  0.560200  0.900500  0.179200  1
  H  H254  1  0.439800  0.099500  0.679200  1
  H  H255  1  0.400500  0.939800  0.929200  1
  H  H256  1  0.599500  0.060200  0.429200  1
  H  H257  1  0.614400  0.416300  0.884100  1
  H  H258  1  0.385600  0.583700  0.384100  1
  H  H259  1  0.083700  0.114400  0.134100  1
  H  H260  1  0.916300  0.885600  0.634100  1
  H  H261  1  0.885600  0.916300  0.365900  1
  H  H262  1  0.114400  0.083700  0.865900  1
  H  H263  1  0.416300  0.614400  0.115900  1
  H  H264  1  0.583700  0.385600  0.615900  1
  H  H265  1  0.649500  0.452800  0.870100  1
  H  H266  1  0.350500  0.547200  0.370100  1
  H  H267  1  0.047200  0.149500  0.120100  1
  H  H268  1  0.952800  0.850500  0.620100  1
  H  H269  1  0.850500  0.952800  0.379900  1
  H  H270  1  0.149500  0.047200  0.879900  1
  H  H271  1  0.452800  0.649500  0.129900  1
  H  H272  1  0.547200  0.350500  0.629900  1
  H  H273  1  0.718500  0.415500  0.911300  1
  H  H274  1  0.281500  0.584500  0.411300  1
  H  H275  1  0.084500  0.218500  0.161300  1
  H  H276  1  0.915500  0.781500  0.661300  1
  H  H277  1  0.781500  0.915500  0.338700  1
  H  H278  1  0.218500  0.084500  0.838700  1
  H  H279  1  0.415500  0.718500  0.088700  1
  H  H280  1  0.584500  0.281500  0.588700  1
  H  H281  1  0.684200  0.373400  0.922300  1
  H  H282  1  0.315800  0.626600  0.422300  1
  H  H283  1  0.126600  0.184200  0.172300  1
  H  H284  1  0.873400  0.815800  0.672300  1
  H  H285  1  0.815800  0.873400  0.327700  1
  H  H286  1  0.184200  0.126600  0.827700  1
  H  H287  1  0.373400  0.684200  0.077700  1
  H  H288  1  0.626600  0.315800  0.577700  1
  H  H289  1  0.732700  0.450400  0.878600  1
  H  H290  1  0.267300  0.549600  0.378600  1
  H  H291  1  0.049600  0.232700  0.128600  1
  H  H292  1  0.950400  0.767300  0.628600  1
  H  H293  1  0.767300  0.950400  0.371400  1
  H  H294  1  0.232700  0.049600  0.871400  1
  H  H295  1  0.450400  0.732700  0.121400  1
  H  H296  1  0.549600  0.267300  0.621400  1
  H  H297  1  0.714000  0.477500  0.892300  1
  H  H298  1  0.286000  0.522500  0.392300  1
  H  H299  1  0.022500  0.214000  0.142300  1
  H  H300  1  0.977500  0.786000  0.642300  1
  H  H301  1  0.786000  0.977500  0.357700  1
  H  H302  1  0.214000  0.022500  0.857700  1
  H  H303  1  0.477500  0.714000  0.107700  1
  H  H304  1  0.522500  0.286000  0.607700  1
  H  H305  1  0.707500  0.470100  0.863800  1
  H  H306  1  0.292500  0.529900  0.363800  1
  H  H307  1  0.029900  0.207500  0.113800  1
  H  H308  1  0.970100  0.792500  0.613800  1
  H  H309  1  0.792500  0.970100  0.386200  1
  H  H310  1  0.207500  0.029900  0.886200  1
  H  H311  1  0.470100  0.707500  0.136200  1
  H  H312  1  0.529900  0.292500  0.636200  1
  H  H313  1  0.606700  0.363000  0.883500  1
  H  H314  1  0.393300  0.637000  0.383500  1
  H  H315  1  0.137000  0.106700  0.133500  1
  H  H316  1  0.863000  0.893300  0.633500  1
  H  H317  1  0.893300  0.863000  0.366500  1
  H  H318  1  0.106700  0.137000  0.866500  1
  H  H319  1  0.363000  0.606700  0.116500  1
  H  H320  1  0.637000  0.393300  0.616500  1
  H  H321  1  0.566200  0.317000  0.965700  1
  H  H322  1  0.433800  0.683000  0.465700  1
  H  H323  1  0.183000  0.066200  0.215700  1
  H  H324  1  0.817000  0.933800  0.715700  1
  H  H325  1  0.933800  0.817000  0.284300  1
  H  H326  1  0.066200  0.183000  0.784300  1
  H  H327  1  0.317000  0.566200  0.034300  1
  H  H328  1  0.683000  0.433800  0.534300  1
  H  H329  1  0.522900  0.293900  0.903100  1
  H  H330  1  0.477100  0.706100  0.403100  1
  H  H331  1  0.206100  0.022900  0.153100  1
  H  H332  1  0.793900  0.977100  0.653100  1
  H  H333  1  0.977100  0.793900  0.346900  1
  H  H334  1  0.022900  0.206100  0.846900  1
  H  H335  1  0.293900  0.522900  0.096900  1
  H  H336  1  0.706100  0.477100  0.596900  1
  H  H337  1  0.555000  0.328600  0.883000  1
  H  H338  1  0.445000  0.671400  0.383000  1
  H  H339  1  0.171400  0.055000  0.133000  1
  H  H340  1  0.828600  0.945000  0.633000  1
  H  H341  1  0.945000  0.828600  0.367000  1
  H  H342  1  0.055000  0.171400  0.867000  1
  H  H343  1  0.328600  0.555000  0.117000  1
  H  H344  1  0.671400  0.445000  0.617000  1
  H  H345  1  0.553300  0.262800  0.973800  1
  H  H346  1  0.446700  0.737200  0.473800  1
  H  H347  1  0.237200  0.053300  0.223800  1
  H  H348  1  0.762800  0.946700  0.723800  1
  H  H349  1  0.946700  0.762800  0.276200  1
  H  H350  1  0.053300  0.237200  0.776200  1
  H  H351  1  0.262800  0.553300  0.026200  1
  H  H352  1  0.737200  0.446700  0.526200  1
  H  H353  1  0.448100  0.267700  0.961000  1
  H  H354  1  0.551900  0.732300  0.461000  1
  H  H355  1  0.232300  0.948100  0.211000  1
  H  H356  1  0.767700  0.051900  0.711000  1
  H  H357  1  0.051900  0.767700  0.289000  1
  H  H358  1  0.948100  0.232300  0.789000  1
  H  H359  1  0.267700  0.448100  0.039000  1
  H  H360  1  0.732300  0.551900  0.539000  1
  H  H361  1  0.481900  0.298800  0.938500  1
  H  H362  1  0.518100  0.701200  0.438500  1
  H  H363  1  0.201200  0.981900  0.188500  1
  H  H364  1  0.798800  0.018100  0.688500  1
  H  H365  1  0.018100  0.798800  0.311500  1
  H  H366  1  0.981900  0.201200  0.811500  1
  H  H367  1  0.298800  0.481900  0.061500  1
  H  H368  1  0.701200  0.518100  0.561500  1
  H  H369  1  0.445300  0.220000  0.995100  1
  H  H370  1  0.554700  0.780000  0.495100  1
  H  H371  1  0.280000  0.945300  0.245100  1
  H  H372  1  0.720000  0.054700  0.745100  1
  H  H373  1  0.054700  0.720000  0.254900  1
  H  H374  1  0.945300  0.280000  0.754900  1
  H  H375  1  0.220000  0.445300  0.004900  1
  H  H376  1  0.780000  0.554700  0.504900  1
  H  H377  1  0.481800  0.183300  0.055000  1
  H  H378  1  0.518200  0.816700  0.555000  1
  H  H379  1  0.316700  0.981800  0.305000  1
  H  H380  1  0.683300  0.018200  0.805000  1
  H  H381  1  0.018200  0.683300  0.195000  1
  H  H382  1  0.981800  0.316700  0.695000  1
  H  H383  1  0.183300  0.481800  0.945000  1
  H  H384  1  0.816700  0.518200  0.445000  1
  H  H385  1  0.467800  0.136400  0.066500  1
  H  H386  1  0.532200  0.863600  0.566500  1
  H  H387  1  0.363600  0.967800  0.316500  1
  H  H388  1  0.636400  0.032200  0.816500  1
  H  H389  1  0.032200  0.636400  0.183500  1
  H  H390  1  0.967800  0.363600  0.683500  1
  H  H391  1  0.136400  0.467800  0.933500  1
  H  H392  1  0.863600  0.532200  0.433500  1
  H  H393  1  0.424600  0.119200  0.002700  1
  H  H394  1  0.575400  0.880800  0.502700  1
  H  H395  1  0.380800  0.924600  0.252700  1
  H  H396  1  0.619200  0.075400  0.752700  1
  H  H397  1  0.075400  0.619200  0.247300  1
  H  H398  1  0.924600  0.380800  0.747300  1
  H  H399  1  0.119200  0.424600  0.997300  1
  H  H400  1  0.880800  0.575400  0.497300  1
  H  H401  1  0.446100  0.166800  0.987900  1
  H  H402  1  0.553900  0.833200  0.487900  1
  H  H403  1  0.333200  0.946100  0.237900  1
  H  H404  1  0.666800  0.053900  0.737900  1
  H  H405  1  0.053900  0.666800  0.262100  1
  H  H406  1  0.946100  0.333200  0.762100  1
  H  H407  1  0.166800  0.446100  0.012100  1
  H  H408  1  0.833200  0.553900  0.512100  1
  H  H409  1  0.446600  0.076100  0.043500  1
  H  H410  1  0.553400  0.923900  0.543500  1
  H  H411  1  0.423900  0.946600  0.293500  1
  H  H412  1  0.576100  0.053400  0.793500  1
  H  H413  1  0.053400  0.576100  0.206500  1
  H  H414  1  0.946600  0.423900  0.706500  1
  H  H415  1  0.076100  0.446600  0.956500  1
  H  H416  1  0.923900  0.553400  0.456500  1
  H  H417  1  0.411500  0.088200  0.044300  1
  H  H418  1  0.588500  0.911800  0.544300  1
  H  H419  1  0.411800  0.911500  0.294300  1
  H  H420  1  0.588200  0.088500  0.794300  1
  H  H421  1  0.088500  0.588200  0.205700  1
  H  H422  1  0.911500  0.411800  0.705700  1
  H  H423  1  0.088200  0.411500  0.955700  1
  H  H424  1  0.911800  0.588500  0.455700  1
  H  H425  1  0.434000  0.094000  0.067400  1
  H  H426  1  0.566000  0.906000  0.567400  1
  H  H427  1  0.406000  0.934000  0.317400  1
  H  H428  1  0.594000  0.066000  0.817400  1
  H  H429  1  0.066000  0.594000  0.182600  1
  H  H430  1  0.934000  0.406000  0.682600  1
  H  H431  1  0.094000  0.434000  0.932600  1
  H  H432  1  0.906000  0.566000  0.432600  1
  H  H433  1  0.590600  0.419400  0.997800  1
  H  H434  1  0.409400  0.580600  0.497800  1
  H  H435  1  0.080600  0.090600  0.247800  1
  H  H436  1  0.919400  0.909400  0.747800  1
  H  H437  1  0.909400  0.919400  0.252200  1
  H  H438  1  0.090600  0.080600  0.752200  1
  H  H439  1  0.419400  0.590600  0.002200  1
  H  H440  1  0.580600  0.409400  0.502200  1
  H  H441  1  0.549800  0.441300  0.020200  1
  H  H442  1  0.450200  0.558700  0.520200  1
  H  H443  1  0.058700  0.049800  0.270200  1
  H  H444  1  0.941300  0.950200  0.770200  1
  H  H445  1  0.950200  0.941300  0.229800  1
  H  H446  1  0.049800  0.058700  0.729800  1
  H  H447  1  0.441300  0.549800  0.979800  1
  H  H448  1  0.558700  0.450200  0.479800  1
  H  H449  1  0.511900  0.356100  0.029300  1
  H  H450  1  0.488100  0.643900  0.529300  1
  H  H451  1  0.143900  0.011900  0.279300  1
  H  H452  1  0.856100  0.988100  0.779300  1
  H  H453  1  0.988100  0.856100  0.220700  1
  H  H454  1  0.011900  0.143900  0.720700  1
  H  H455  1  0.356100  0.511900  0.970700  1
  H  H456  1  0.643900  0.488100  0.470700  1
  H  H457  1  0.552800  0.334200  0.006900  1
  H  H458  1  0.447200  0.665800  0.506900  1
  H  H459  1  0.165800  0.052800  0.256900  1
  H  H460  1  0.834200  0.947200  0.756900  1
  H  H461  1  0.947200  0.834200  0.243100  1
  H  H462  1  0.052800  0.165800  0.743100  1
  H  H463  1  0.334200  0.552800  0.993100  1
  H  H464  1  0.665800  0.447200  0.493100  1
  H  H465  1  0.477300  0.406600  0.036900  1
  H  H466  1  0.522700  0.593400  0.536900  1
  H  H467  1  0.093400  0.977300  0.286900  1
  H  H468  1  0.906600  0.022700  0.786900  1
  H  H469  1  0.022700  0.906600  0.213100  1
  H  H470  1  0.977300  0.093400  0.713100  1
  H  H471  1  0.406600  0.477300  0.963100  1
  H  H472  1  0.593400  0.522700  0.463100  1
  H  H473  1  0.497300  0.431700  0.050400  1
  H  H474  1  0.502700  0.568300  0.550400  1
  H  H475  1  0.068300  0.997300  0.300400  1
  H  H476  1  0.931700  0.002700  0.800400  1
  H  H477  1  0.002700  0.931700  0.199600  1
  H  H478  1  0.997300  0.068300  0.699600  1
  H  H479  1  0.431700  0.497300  0.949600  1
  H  H480  1  0.568300  0.502700  0.449600  1
  H  H481  1  0.496900  0.397500  0.060100  1
  H  H482  1  0.503100  0.602500  0.560100  1
  H  H483  1  0.102500  0.996900  0.310100  1
  H  H484  1  0.897500  0.003100  0.810100  1
  H  H485  1  0.003100  0.897500  0.189900  1
  H  H486  1  0.996900  0.102500  0.689900  1
  H  H487  1  0.397500  0.496900  0.939900  1
  H  H488  1  0.602500  0.503100  0.439900  1
  H  H489  1  0.615400  0.338400  0.015800  1
  H  H490  1  0.384600  0.661600  0.515800  1
  H  H491  1  0.161600  0.115400  0.265800  1
  H  H492  1  0.838400  0.884600  0.765800  1
  H  H493  1  0.884600  0.838400  0.234200  1
  H  H494  1  0.115400  0.161600  0.734200  1
  H  H495  1  0.338400  0.615400  0.984200  1
  H  H496  1  0.661600  0.384600  0.484200  1
  H  H497  1  0.661200  0.328200  0.929600  1
  H  H498  1  0.338800  0.671800  0.429600  1
  H  H499  1  0.171800  0.161200  0.179600  1
  H  H500  1  0.828200  0.838800  0.679600  1
  H  H501  1  0.838800  0.828200  0.320400  1
  H  H502  1  0.161200  0.171800  0.820400  1
  H  H503  1  0.328200  0.661200  0.070400  1
  H  H504  1  0.671800  0.338800  0.570400  1
  H  H505  1  0.694600  0.277100  0.985700  1
  H  H506  1  0.305400  0.722900  0.485700  1
  H  H507  1  0.222900  0.194600  0.235700  1
  H  H508  1  0.777100  0.805400  0.735700  1
  H  H509  1  0.805400  0.777100  0.264300  1
  H  H510  1  0.194600  0.222900  0.764300  1
  H  H511  1  0.277100  0.694600  0.014300  1
  H  H512  1  0.722900  0.305400  0.514300  1
  H  H513  1  0.662800  0.304400  0.011800  1
  H  H514  1  0.337200  0.695600  0.511800  1
  H  H515  1  0.195600  0.162800  0.261800  1
  H  H516  1  0.804400  0.837200  0.761800  1
  H  H517  1  0.837200  0.804400  0.238200  1
  H  H518  1  0.162800  0.195600  0.738200  1
  H  H519  1  0.304400  0.662800  0.988200  1
  H  H520  1  0.695600  0.337200  0.488200  1
  H  H521  1  0.697900  0.312900  0.907000  1
  H  H522  1  0.302100  0.687100  0.407000  1
  H  H523  1  0.187100  0.197900  0.157000  1
  H  H524  1  0.812900  0.802100  0.657000  1
  H  H525  1  0.802100  0.812900  0.343000  1
  H  H526  1  0.197900  0.187100  0.843000  1
  H  H527  1  0.312900  0.697900  0.093000  1
  H  H528  1  0.687100  0.302100  0.593000  1
  H  H529  1  0.750100  0.224400  0.931900  1
  H  H530  1  0.249900  0.775600  0.431900  1
  H  H531  1  0.275600  0.250100  0.181900  1
  H  H532  1  0.724400  0.749900  0.681900  1
  H  H533  1  0.749900  0.724400  0.318100  1
  H  H534  1  0.250100  0.275600  0.818100  1
  H  H535  1  0.224400  0.750100  0.068100  1
  H  H536  1  0.775600  0.249900  0.568100  1
  H  H537  1  0.715800  0.245900  0.957500  1
  H  H538  1  0.284200  0.754100  0.457500  1
  H  H539  1  0.254100  0.215800  0.207500  1
  H  H540  1  0.745900  0.784200  0.707500  1
  H  H541  1  0.784200  0.745900  0.292500  1
  H  H542  1  0.215800  0.254100  0.792500  1
  H  H543  1  0.245900  0.715800  0.042500  1
  H  H544  1  0.754100  0.284200  0.542500  1
  H  H545  1  0.766800  0.221900  0.885000  1
  H  H546  1  0.233200  0.778100  0.385000  1
  H  H547  1  0.278100  0.266800  0.135000  1
  H  H548  1  0.721900  0.733200  0.635000  1
  H  H549  1  0.733200  0.721900  0.365000  1
  H  H550  1  0.266800  0.278100  0.865000  1
  H  H551  1  0.221900  0.766800  0.115000  1
  H  H552  1  0.778100  0.233200  0.615000  1
  H  H553  1  0.818300  0.253500  0.849800  1
  H  H554  1  0.181700  0.746500  0.349800  1
  H  H555  1  0.246500  0.318300  0.099800  1
  H  H556  1  0.753500  0.681700  0.599800  1
  H  H557  1  0.681700  0.753500  0.400200  1
  H  H558  1  0.318300  0.246500  0.900200  1
  H  H559  1  0.253500  0.818300  0.150200  1
  H  H560  1  0.746500  0.181700  0.650200  1
  H  H561  1  0.841000  0.228100  0.816100  1
  H  H562  1  0.159000  0.771900  0.316100  1
  H  H563  1  0.271900  0.341000  0.066100  1
  H  H564  1  0.728100  0.659000  0.566100  1
  H  H565  1  0.659000  0.728100  0.433900  1
  H  H566  1  0.341000  0.271900  0.933900  1
  H  H567  1  0.228100  0.841000  0.183900  1
  H  H568  1  0.771900  0.159000  0.683900  1
  H  H569  1  0.757100  0.193700  0.796600  1
  H  H570  1  0.242900  0.806300  0.296600  1
  H  H571  1  0.306300  0.257100  0.046600  1
  H  H572  1  0.693700  0.742900  0.546600  1
  H  H573  1  0.742900  0.693700  0.453400  1
  H  H574  1  0.257100  0.306300  0.953400  1
  H  H575  1  0.193700  0.757100  0.203400  1
  H  H576  1  0.806300  0.242900  0.703400  1
  H  H577  1  0.734400  0.219000  0.830300  1
  H  H578  1  0.265600  0.781000  0.330300  1
  H  H579  1  0.281000  0.234400  0.080300  1
  H  H580  1  0.719000  0.765600  0.580300  1
  H  H581  1  0.765600  0.719000  0.419700  1
  H  H582  1  0.234400  0.281000  0.919700  1
  H  H583  1  0.219000  0.734400  0.169700  1
  H  H584  1  0.781000  0.265600  0.669700  1
  H  H585  1  0.726300  0.465500  0.032200  1
  H  H586  1  0.273700  0.534500  0.532200  1
  H  H587  1  0.034500  0.226300  0.282200  1
  H  H588  1  0.965500  0.773700  0.782200  1
  H  H589  1  0.773700  0.965500  0.217800  1
  H  H590  1  0.226300  0.034500  0.717800  1
  H  H591  1  0.465500  0.726300  0.967800  1
  H  H592  1  0.534500  0.273700  0.467800  1
  H  H593  1  0.712500  0.505900  0.005600  1
  H  H594  1  0.287500  0.494100  0.505600  1
  H  H595  1  0.994100  0.212500  0.255600  1
  H  H596  1  0.005900  0.787500  0.755600  1
  H  H597  1  0.787500  0.005900  0.244400  1
  H  H598  1  0.212500  0.994100  0.744400  1
  H  H599  1  0.505900  0.712500  0.994400  1
  H  H600  1  0.494100  0.287500  0.494400  1
  H  H601  1  0.802800  0.531000  0.000100  1
  H  H602  1  0.197200  0.469000  0.500100  1
  H  H603  1  0.969000  0.302800  0.250100  1
  H  H604  1  0.031000  0.697200  0.750100  1
  H  H605  1  0.697200  0.031000  0.249900  1
  H  H606  1  0.302800  0.969000  0.749900  1
  H  H607  1  0.531000  0.802800  0.999900  1
  H  H608  1  0.469000  0.197200  0.499900  1
  H  H609  1  0.816500  0.490600  0.026700  1
  H  H610  1  0.183500  0.509400  0.526700  1
  H  H611  1  0.009400  0.316500  0.276700  1
  H  H612  1  0.990600  0.683500  0.776700  1
  H  H613  1  0.683500  0.990600  0.223300  1
  H  H614  1  0.316500  0.009400  0.723300  1
  H  H615  1  0.490600  0.816500  0.973300  1
  H  H616  1  0.509400  0.183500  0.473300  1
  H  H617  1  0.736100  0.567600  0.993100  1
  H  H618  1  0.263900  0.432400  0.493100  1
  H  H619  1  0.932400  0.236100  0.243100  1
  H  H620  1  0.067600  0.763900  0.743100  1
  H  H621  1  0.763900  0.067600  0.256900  1
  H  H622  1  0.236100  0.932400  0.756900  1
  H  H623  1  0.567600  0.736100  0.006900  1
  H  H624  1  0.432400  0.263900  0.506900  1
  H  H625  1  0.733700  0.545500  0.969400  1
  H  H626  1  0.266300  0.454500  0.469400  1
  H  H627  1  0.954500  0.233700  0.219400  1
  H  H628  1  0.045500  0.766300  0.719400  1
  H  H629  1  0.766300  0.045500  0.280600  1
  H  H630  1  0.233700  0.954500  0.780600  1
  H  H631  1  0.545500  0.733700  0.030600  1
  H  H632  1  0.454500  0.266300  0.530600  1
  H  H633  1  0.766000  0.561600  0.976300  1
  H  H634  1  0.234000  0.438400  0.476300  1
  H  H635  1  0.938400  0.266000  0.226300  1
  H  H636  1  0.061600  0.734000  0.726300  1
  H  H637  1  0.734000  0.061600  0.273700  1
  H  H638  1  0.266000  0.938400  0.773700  1
  H  H639  1  0.561600  0.766000  0.023700  1
  H  H640  1  0.438400  0.234000  0.523700  1
  H  H641  1  0.805600  0.472600  0.069800  1
  H  H642  1  0.194400  0.527400  0.569800  1
  H  H643  1  0.027400  0.305600  0.319800  1
  H  H644  1  0.972600  0.694400  0.819800  1
  H  H645  1  0.694400  0.972600  0.180200  1
  H  H646  1  0.305600  0.027400  0.680200  1
  H  H647  1  0.472600  0.805600  0.930200  1
  H  H648  1  0.527400  0.194400  0.430200  1
  H  H649  1  0.797800  0.351300  0.073000  1
  H  H650  1  0.202200  0.648700  0.573000  1
  H  H651  1  0.148700  0.297800  0.323000  1
  H  H652  1  0.851300  0.702200  0.823000  1
  H  H653  1  0.702200  0.851300  0.177000  1
  H  H654  1  0.297800  0.148700  0.677000  1
  H  H655  1  0.351300  0.797800  0.927000  1
  H  H656  1  0.648700  0.202200  0.427000  1
  H  H657  1  0.852500  0.397000  0.121500  1
  H  H658  1  0.147500  0.603000  0.621500  1
  H  H659  1  0.103000  0.352500  0.371500  1
  H  H660  1  0.897000  0.647500  0.871500  1
  H  H661  1  0.647500  0.897000  0.128500  1
  H  H662  1  0.352500  0.103000  0.628500  1
  H  H663  1  0.397000  0.852500  0.878500  1
  H  H664  1  0.603000  0.147500  0.378500  1
  H  H665  1  0.838900  0.444000  0.103800  1
  H  H666  1  0.161100  0.556000  0.603800  1
  H  H667  1  0.056000  0.338900  0.353800  1
  H  H668  1  0.944000  0.661100  0.853800  1
  H  H669  1  0.661100  0.944000  0.146200  1
  H  H670  1  0.338900  0.056000  0.646200  1
  H  H671  1  0.444000  0.838900  0.896200  1
  H  H672  1  0.556000  0.161100  0.396200  1
  H  H673  1  0.791200  0.321100  0.113100  1
  H  H674  1  0.208800  0.678900  0.613100  1
  H  H675  1  0.178900  0.291200  0.363100  1
  H  H676  1  0.821100  0.708800  0.863100  1
  H  H677  1  0.708800  0.821100  0.136900  1
  H  H678  1  0.291200  0.178900  0.636900  1
  H  H679  1  0.321100  0.791200  0.886900  1
  H  H680  1  0.678900  0.208800  0.386900  1
  H  H681  1  0.896600  0.300000  0.123200  1
  H  H682  1  0.103400  0.700000  0.623200  1
  H  H683  1  0.200000  0.396600  0.373200  1
  H  H684  1  0.800000  0.603400  0.873200  1
  H  H685  1  0.603400  0.800000  0.126800  1
  H  H686  1  0.396600  0.200000  0.626800  1
  H  H687  1  0.300000  0.896600  0.876800  1
  H  H688  1  0.700000  0.103400  0.376800  1
  H  H689  1  0.881400  0.346500  0.108500  1
  H  H690  1  0.118600  0.653500  0.608500  1
  H  H691  1  0.153500  0.381400  0.358500  1
  H  H692  1  0.846500  0.618600  0.858500  1
  H  H693  1  0.618600  0.846500  0.141500  1
  H  H694  1  0.381400  0.153500  0.641500  1
  H  H695  1  0.346500  0.881400  0.891500  1
  H  H696  1  0.653500  0.118600  0.391500  1
  H  H697  1  0.878500  0.247100  0.139400  1
  H  H698  1  0.121500  0.752900  0.639400  1
  H  H699  1  0.252900  0.378500  0.389400  1
  H  H700  1  0.747100  0.621500  0.889400  1
  H  H701  1  0.621500  0.747100  0.110600  1
  H  H702  1  0.378500  0.252900  0.610600  1
  H  H703  1  0.247100  0.878500  0.860600  1
  H  H704  1  0.752900  0.121500  0.360600  1
  H  H705  1  0.808400  0.182200  0.133000  1
  H  H706  1  0.191600  0.817800  0.633000  1
  H  H707  1  0.317800  0.308400  0.383000  1
  H  H708  1  0.682200  0.691600  0.883000  1
  H  H709  1  0.691600  0.682200  0.117000  1
  H  H710  1  0.308400  0.317800  0.617000  1
  H  H711  1  0.182200  0.808400  0.867000  1
  H  H712  1  0.817800  0.191600  0.367000  1
  H  H713  1  0.815000  0.137200  0.150800  1
  H  H714  1  0.185000  0.862800  0.650800  1
  H  H715  1  0.362800  0.315000  0.400800  1
  H  H716  1  0.637200  0.685000  0.900800  1
  H  H717  1  0.685000  0.637200  0.099200  1
  H  H718  1  0.315000  0.362800  0.599200  1
  H  H719  1  0.137200  0.815000  0.849200  1
  H  H720  1  0.862800  0.185000  0.349200  1
  H  H721  1  0.880500  0.173800  0.198200  1
  H  H722  1  0.119500  0.826200  0.698200  1
  H  H723  1  0.326200  0.380500  0.448200  1
  H  H724  1  0.673800  0.619500  0.948200  1
  H  H725  1  0.619500  0.673800  0.051800  1
  H  H726  1  0.380500  0.326200  0.551800  1
  H  H727  1  0.173800  0.880500  0.801800  1
  H  H728  1  0.826200  0.119500  0.301800  1
  H  H729  1  0.875200  0.221600  0.177500  1
  H  H730  1  0.124800  0.778400  0.677500  1
  H  H731  1  0.278400  0.375200  0.427500  1
  H  H732  1  0.721600  0.624800  0.927500  1
  H  H733  1  0.624800  0.721600  0.072500  1
  H  H734  1  0.375200  0.278400  0.572500  1
  H  H735  1  0.221600  0.875200  0.822500  1
  H  H736  1  0.778400  0.124800  0.322500  1
  H  H737  1  0.832100  0.113300  0.200300  1
  H  H738  1  0.167900  0.886700  0.700300  1
  H  H739  1  0.386700  0.332100  0.450300  1
  H  H740  1  0.613300  0.667900  0.950300  1
  H  H741  1  0.667900  0.613300  0.049700  1
  H  H742  1  0.332100  0.386700  0.549700  1
  H  H743  1  0.113300  0.832100  0.799700  1
  H  H744  1  0.886700  0.167900  0.299700  1
  H  H745  1  0.868200  0.120700  0.203500  1
  H  H746  1  0.131800  0.879300  0.703500  1
  H  H747  1  0.379300  0.368200  0.453500  1
  H  H748  1  0.620700  0.631800  0.953500  1
  H  H749  1  0.631800  0.620700  0.046500  1
  H  H750  1  0.368200  0.379300  0.546500  1
  H  H751  1  0.120700  0.868200  0.796500  1
  H  H752  1  0.879300  0.131800  0.296500  1
  H  H753  1  0.856500  0.100800  0.180400  1
  H  H754  1  0.143500  0.899200  0.680400  1
  H  H755  1  0.399200  0.356500  0.430400  1
  H  H756  1  0.600800  0.643500  0.930400  1
  H  H757  1  0.643500  0.600800  0.069600  1
  H  H758  1  0.356500  0.399200  0.569600  1
  H  H759  1  0.100800  0.856500  0.819600  1
  H  H760  1  0.899200  0.143500  0.319600  1
  H  H761  1  0.750900  0.414200  0.099400  1
  H  H762  1  0.249100  0.585800  0.599400  1
  H  H763  1  0.085800  0.250900  0.349400  1
  H  H764  1  0.914200  0.749100  0.849400  1
  H  H765  1  0.749100  0.914200  0.150600  1
  H  H766  1  0.250900  0.085800  0.650600  1
  H  H767  1  0.414200  0.750900  0.900600  1
  H  H768  1  0.585800  0.249100  0.400600  1
  H  H769  1  0.726000  0.448700  0.126200  1
  H  H770  1  0.274000  0.551300  0.626200  1
  H  H771  1  0.051300  0.226000  0.376200  1
  H  H772  1  0.948700  0.774000  0.876200  1
  H  H773  1  0.774000  0.948700  0.123800  1
  H  H774  1  0.226000  0.051300  0.623800  1
  H  H775  1  0.448700  0.726000  0.873800  1
  H  H776  1  0.551300  0.274000  0.373800  1
  H  H777  1  0.659300  0.463400  0.074800  1
  H  H778  1  0.340700  0.536600  0.574800  1
  H  H779  1  0.036600  0.159300  0.324800  1
  H  H780  1  0.963400  0.840700  0.824800  1
  H  H781  1  0.840700  0.963400  0.175200  1
  H  H782  1  0.159300  0.036600  0.675200  1
  H  H783  1  0.463400  0.659300  0.925200  1
  H  H784  1  0.536600  0.340700  0.425200  1
  H  H785  1  0.684200  0.428900  0.048000  1
  H  H786  1  0.315800  0.571100  0.548000  1
  H  H787  1  0.071100  0.184200  0.298000  1
  H  H788  1  0.928900  0.815800  0.798000  1
  H  H789  1  0.815800  0.928900  0.202000  1
  H  H790  1  0.184200  0.071100  0.702000  1
  H  H791  1  0.428900  0.684200  0.952000  1
  H  H792  1  0.571100  0.315800  0.452000  1
  H  H793  1  0.663900  0.500300  0.116500  1
  H  H794  1  0.336100  0.499700  0.616500  1
  H  H795  1  0.999700  0.163900  0.366500  1
  H  H796  1  0.000300  0.836100  0.866500  1
  H  H797  1  0.836100  0.000300  0.133500  1
  H  H798  1  0.163900  0.999700  0.633500  1
  H  H799  1  0.500300  0.663900  0.883500  1
  H  H800  1  0.499700  0.336100  0.383500  1
  H  H801  1  0.688800  0.489300  0.136600  1
  H  H802  1  0.311200  0.510700  0.636600  1
  H  H803  1  0.010700  0.188800  0.386600  1
  H  H804  1  0.989300  0.811200  0.886600  1
  H  H805  1  0.811200  0.989300  0.113400  1
  H  H806  1  0.188800  0.010700  0.613400  1
  H  H807  1  0.489300  0.688800  0.863400  1
  H  H808  1  0.510700  0.311200  0.363400  1
  H  H809  1  0.657100  0.470500  0.133300  1
  H  H810  1  0.342900  0.529500  0.633300  1
  H  H811  1  0.029500  0.157100  0.383300  1
  H  H812  1  0.970500  0.842900  0.883300  1
  H  H813  1  0.842900  0.970500  0.116700  1
  H  H814  1  0.157100  0.029500  0.616700  1
  H  H815  1  0.470500  0.657100  0.866700  1
  H  H816  1  0.529500  0.342900  0.366700  1
  H  H817  1  0.704300  0.364500  0.061900  1
  H  H818  1  0.295700  0.635500  0.561900  1
  H  H819  1  0.135500  0.204300  0.311900  1
  H  H820  1  0.864500  0.795700  0.811900  1
  H  H821  1  0.795700  0.864500  0.188100  1
  H  H822  1  0.204300  0.135500  0.688100  1
  H  H823  1  0.364500  0.704300  0.938100  1
  H  H824  1  0.635500  0.295700  0.438100  1
  H  H825  1  0.803500  0.351800  0.005100  1
  H  H826  1  0.196500  0.648200  0.505100  1
  H  H827  1  0.148200  0.303500  0.255100  1
  H  H828  1  0.851800  0.696500  0.755100  1
  H  H829  1  0.696500  0.851800  0.244900  1
  H  H830  1  0.303500  0.148200  0.744900  1
  H  H831  1  0.351800  0.803500  0.994900  1
  H  H832  1  0.648200  0.196500  0.494900  1
  H  H833  1  0.746800  0.278400  0.018200  1
  H  H834  1  0.253200  0.721600  0.518200  1
  H  H835  1  0.221600  0.246800  0.268200  1
  H  H836  1  0.778400  0.753200  0.768200  1
  H  H837  1  0.753200  0.778400  0.231800  1
  H  H838  1  0.246800  0.221600  0.731800  1
  H  H839  1  0.278400  0.746800  0.981800  1
  H  H840  1  0.721600  0.253200  0.481800  1
  H  H841  1  0.715000  0.308700  0.040800  1
  H  H842  1  0.285000  0.691300  0.540800  1
  H  H843  1  0.191300  0.215000  0.290800  1
  H  H844  1  0.808700  0.785000  0.790800  1
  H  H845  1  0.785000  0.808700  0.209200  1
  H  H846  1  0.215000  0.191300  0.709200  1
  H  H847  1  0.308700  0.715000  0.959200  1
  H  H848  1  0.691300  0.285000  0.459200  1
  H  H849  1  0.836600  0.321100  0.993000  1
  H  H850  1  0.163400  0.678900  0.493000  1
  H  H851  1  0.178900  0.336600  0.243000  1
  H  H852  1  0.821100  0.663400  0.743000  1
  H  H853  1  0.663400  0.821100  0.257000  1
  H  H854  1  0.336600  0.178900  0.757000  1
  H  H855  1  0.321100  0.836600  0.007000  1
  H  H856  1  0.678900  0.163400  0.507000  1
  H  H857  1  0.800000  0.227300  0.961600  1
  H  H858  1  0.200000  0.772700  0.461600  1
  H  H859  1  0.272700  0.300000  0.211600  1
  H  H860  1  0.727300  0.700000  0.711600  1
  H  H861  1  0.700000  0.727300  0.288400  1
  H  H862  1  0.300000  0.272700  0.788400  1
  H  H863  1  0.227300  0.800000  0.038400  1
  H  H864  1  0.772700  0.200000  0.538400  1
  H  H865  1  0.768700  0.255700  0.987600  1
  H  H866  1  0.231300  0.744300  0.487600  1
  H  H867  1  0.244300  0.268700  0.237600  1
  H  H868  1  0.755700  0.731300  0.737600  1
  H  H869  1  0.731300  0.755700  0.262400  1
  H  H870  1  0.268700  0.244300  0.762400  1
  H  H871  1  0.255700  0.768700  0.012400  1
  H  H872  1  0.744300  0.231300  0.512400  1
  H  H873  1  0.853500  0.222800  0.942100  1
  H  H874  1  0.146500  0.777200  0.442100  1
  H  H875  1  0.277200  0.353500  0.192100  1
  H  H876  1  0.722800  0.646500  0.692100  1
  H  H877  1  0.646500  0.722800  0.307900  1
  H  H878  1  0.353500  0.277200  0.807900  1
  H  H879  1  0.222800  0.853500  0.057900  1
  H  H880  1  0.777200  0.146500  0.557900  1
  H  H881  1  0.924500  0.217400  0.960200  1
  H  H882  1  0.075500  0.782600  0.460200  1
  H  H883  1  0.282600  0.424500  0.210200  1
  H  H884  1  0.717400  0.575500  0.710200  1
  H  H885  1  0.575500  0.717400  0.289800  1
  H  H886  1  0.424500  0.282600  0.789800  1
  H  H887  1  0.217400  0.924500  0.039800  1
  H  H888  1  0.782600  0.075500  0.539800  1
  H  H889  1  0.961400  0.188600  0.938400  1
  H  H890  1  0.038600  0.811400  0.438400  1
  H  H891  1  0.311400  0.461400  0.188400  1
  H  H892  1  0.688600  0.538600  0.688400  1
  H  H893  1  0.538600  0.688600  0.311600  1
  H  H894  1  0.461400  0.311400  0.811600  1
  H  H895  1  0.188600  0.961400  0.061600  1
  H  H896  1  0.811400  0.038600  0.561600  1
  H  H897  1  0.935600  0.231100  0.874900  1
  H  H898  1  0.064400  0.768900  0.374900  1
  H  H899  1  0.268900  0.435600  0.124900  1
  H  H900  1  0.731100  0.564400  0.624900  1
  H  H901  1  0.564400  0.731100  0.375100  1
  H  H902  1  0.435600  0.268900  0.875100  1
  H  H903  1  0.231100  0.935600  0.125100  1
  H  H904  1  0.768900  0.064400  0.625100  1
  H  H905  1  0.898700  0.259900  0.896700  1
  H  H906  1  0.101300  0.740100  0.396700  1
  H  H907  1  0.240100  0.398700  0.146700  1
  H  H908  1  0.759900  0.601300  0.646700  1
  H  H909  1  0.601300  0.759900  0.353300  1
  H  H910  1  0.398700  0.240100  0.853300  1
  H  H911  1  0.259900  0.898700  0.103300  1
  H  H912  1  0.740100  0.101300  0.603300  1
  H  H913  1  0.966600  0.178100  0.876400  1
  H  H914  1  0.033400  0.821900  0.376400  1
  H  H915  1  0.321900  0.466600  0.126400  1
  H  H916  1  0.678100  0.533400  0.626400  1
  H  H917  1  0.533400  0.678100  0.373600  1
  H  H918  1  0.466600  0.321900  0.873600  1
  H  H919  1  0.178100  0.966600  0.123600  1
  H  H920  1  0.821900  0.033400  0.623600  1
  H  H921  1  0.985100  0.172900  0.901000  1
  H  H922  1  0.014900  0.827100  0.401000  1
  H  H923  1  0.327100  0.485100  0.151000  1
  H  H924  1  0.672900  0.514900  0.651000  1
  H  H925  1  0.514900  0.672900  0.349000  1
  H  H926  1  0.485100  0.327100  0.849000  1
  H  H927  1  0.172900  0.985100  0.099000  1
  H  H928  1  0.827100  0.014900  0.599000  1
  H  H929  1  0.992300  0.201800  0.884300  1
  H  H930  1  0.007700  0.798200  0.384300  1
  H  H931  1  0.298200  0.492300  0.134300  1
  H  H932  1  0.701800  0.507700  0.634300  1
  H  H933  1  0.507700  0.701800  0.365700  1
  H  H934  1  0.492300  0.298200  0.865700  1
  H  H935  1  0.201800  0.992300  0.115700  1
  H  H936  1  0.798200  0.007700  0.615700  1
  H  H937  1  0.803200  0.331200  0.165300  1
  H  H938  1  0.196800  0.668800  0.665300  1
  H  H939  1  0.168800  0.303200  0.415300  1
  H  H940  1  0.831200  0.696800  0.915300  1
  H  H941  1  0.696800  0.831200  0.084700  1
  H  H942  1  0.303200  0.168800  0.584700  1
  H  H943  1  0.331200  0.803200  0.834700  1
  H  H944  1  0.668800  0.196800  0.334700  1
  H  H945  1  0.840300  0.372800  0.173100  1
  H  H946  1  0.159700  0.627200  0.673100  1
  H  H947  1  0.127200  0.340300  0.423100  1
  H  H948  1  0.872800  0.659700  0.923100  1
  H  H949  1  0.659700  0.872800  0.076900  1
  H  H950  1  0.340300  0.127200  0.576900  1
  H  H951  1  0.372800  0.840300  0.826900  1
  H  H952  1  0.627200  0.159700  0.326900  1
  H  H953  1  0.900800  0.309800  0.200400  1
  H  H954  1  0.099200  0.690200  0.700400  1
  H  H955  1  0.190200  0.400800  0.450400  1
  H  H956  1  0.809800  0.599200  0.950400  1
  H  H957  1  0.599200  0.809800  0.049600  1
  H  H958  1  0.400800  0.190200  0.549600  1
  H  H959  1  0.309800  0.900800  0.799600  1
  H  H960  1  0.690200  0.099200  0.299600  1
  H  H961  1  0.860800  0.270300  0.199200  1
  H  H962  1  0.139200  0.729700  0.699200  1
  H  H963  1  0.229700  0.360800  0.449200  1
  H  H964  1  0.770300  0.639200  0.949200  1
  H  H965  1  0.639200  0.770300  0.050800  1
  H  H966  1  0.360800  0.229700  0.550800  1
  H  H967  1  0.270300  0.860800  0.800800  1
  H  H968  1  0.729700  0.139200  0.300800  1
  H  H969  1  0.900100  0.377400  0.208300  1
  H  H970  1  0.099900  0.622600  0.708300  1
  H  H971  1  0.122600  0.400100  0.458300  1
  H  H972  1  0.877400  0.599900  0.958300  1
  H  H973  1  0.599900  0.877400  0.041700  1
  H  H974  1  0.400100  0.122600  0.541700  1
  H  H975  1  0.377400  0.900100  0.791700  1
  H  H976  1  0.622600  0.099900  0.291700  1
  H  H977  1  0.893200  0.388900  0.180800  1
  H  H978  1  0.106800  0.611100  0.680800  1
  H  H979  1  0.111100  0.393200  0.430800  1
  H  H980  1  0.888900  0.606800  0.930800  1
  H  H981  1  0.606800  0.888900  0.069200  1
  H  H982  1  0.393200  0.111100  0.569200  1
  H  H983  1  0.388900  0.893200  0.819200  1
  H  H984  1  0.611100  0.106800  0.319200  1
  H  H985  1  0.919100  0.363100  0.185600  1
  H  H986  1  0.080900  0.636900  0.685600  1
  H  H987  1  0.136900  0.419100  0.435600  1
  H  H988  1  0.863100  0.580900  0.935600  1
  H  H989  1  0.580900  0.863100  0.064400  1
  H  H990  1  0.419100  0.136900  0.564400  1
  H  H991  1  0.363100  0.919100  0.814400  1
  H  H992  1  0.636900  0.080900  0.314400  1
  H  H993  1  0.810800  0.258100  0.210100  1
  H  H994  1  0.189200  0.741900  0.710100  1
  H  H995  1  0.241900  0.310800  0.460100  1
  H  H996  1  0.758100  0.689200  0.960100  1
  H  H997  1  0.689200  0.758100  0.039900  1
  H  H998  1  0.310800  0.241900  0.539900  1
  H  H999  1  0.258100  0.810800  0.789900  1
  H  H1000  1  0.741900  0.189200  0.289900  1
  H  H1001  1  0.748300  0.205300  0.138100  1
  H  H1002  1  0.251700  0.794700  0.638100  1
  H  H1003  1  0.294700  0.248300  0.388100  1
  H  H1004  1  0.705300  0.751700  0.888100  1
  H  H1005  1  0.751700  0.705300  0.111900  1
  H  H1006  1  0.248300  0.294700  0.611900  1
  H  H1007  1  0.205300  0.748300  0.861900  1
  H  H1008  1  0.794700  0.251700  0.361900  1
  H  H1009  1  0.746000  0.165500  0.205900  1
  H  H1010  1  0.254000  0.834500  0.705900  1
  H  H1011  1  0.334500  0.246000  0.455900  1
  H  H1012  1  0.665500  0.754000  0.955900  1
  H  H1013  1  0.754000  0.665500  0.044100  1
  H  H1014  1  0.246000  0.334500  0.544100  1
  H  H1015  1  0.165500  0.746000  0.794100  1
  H  H1016  1  0.834500  0.254000  0.294100  1
  H  H1017  1  0.781500  0.205300  0.219500  1
  H  H1018  1  0.218500  0.794700  0.719500  1
  H  H1019  1  0.294700  0.281500  0.469500  1
  H  H1020  1  0.705300  0.718500  0.969500  1
  H  H1021  1  0.718500  0.705300  0.030500  1
  H  H1022  1  0.281500  0.294700  0.530500  1
  H  H1023  1  0.205300  0.781500  0.780500  1
  H  H1024  1  0.794700  0.218500  0.280500  1
  H  H1025  1  0.696700  0.182500  0.141000  1
  H  H1026  1  0.303300  0.817500  0.641000  1
  H  H1027  1  0.317500  0.196700  0.391000  1
  H  H1028  1  0.682500  0.803300  0.891000  1
  H  H1029  1  0.803300  0.682500  0.109000  1
  H  H1030  1  0.196700  0.317500  0.609000  1
  H  H1031  1  0.182500  0.696700  0.859000  1
  H  H1032  1  0.817500  0.303300  0.359000  1
  H  H1033  1  0.719200  0.079600  0.160900  1
  H  H1034  1  0.280800  0.920400  0.660900  1
  H  H1035  1  0.420400  0.219200  0.410900  1
  H  H1036  1  0.579600  0.780800  0.910900  1
  H  H1037  1  0.780800  0.579600  0.089100  1
  H  H1038  1  0.219200  0.420400  0.589100  1
  H  H1039  1  0.079600  0.719200  0.839100  1
  H  H1040  1  0.920400  0.280800  0.339100  1
  H  H1041  1  0.752200  0.120800  0.177700  1
  H  H1042  1  0.247800  0.879200  0.677700  1
  H  H1043  1  0.379200  0.252200  0.427700  1
  H  H1044  1  0.620800  0.747800  0.927700  1
  H  H1045  1  0.747800  0.620800  0.072300  1
  H  H1046  1  0.252200  0.379200  0.572300  1
  H  H1047  1  0.120800  0.752200  0.822300  1
  H  H1048  1  0.879200  0.247800  0.322300  1
  H  H1049  1  0.674300  0.065300  0.131600  1
  H  H1050  1  0.325700  0.934700  0.631600  1
  H  H1051  1  0.434700  0.174300  0.381600  1
  H  H1052  1  0.565300  0.825700  0.881600  1
  H  H1053  1  0.825700  0.565300  0.118400  1
  H  H1054  1  0.174300  0.434700  0.618400  1
  H  H1055  1  0.065300  0.674300  0.868400  1
  H  H1056  1  0.934700  0.325700  0.368400  1
  H  H1057  1  0.628600  0.094900  0.073100  1
  H  H1058  1  0.371400  0.905100  0.573100  1
  H  H1059  1  0.405100  0.128600  0.323100  1
  H  H1060  1  0.594900  0.871400  0.823100  1
  H  H1061  1  0.871400  0.594900  0.176900  1
  H  H1062  1  0.128600  0.405100  0.676900  1
  H  H1063  1  0.094900  0.628600  0.926900  1
  H  H1064  1  0.905100  0.371400  0.426900  1
  H  H1065  1  0.589100  0.060800  0.054600  1
  H  H1066  1  0.410900  0.939200  0.554600  1
  H  H1067  1  0.439200  0.089100  0.304600  1
  H  H1068  1  0.560800  0.910900  0.804600  1
  H  H1069  1  0.910900  0.560800  0.195400  1
  H  H1070  1  0.089100  0.439200  0.695400  1
  H  H1071  1  0.060800  0.589100  0.945400  1
  H  H1072  1  0.939200  0.410900  0.445400  1
  H  H1073  1  0.579000  0.019300  0.118800  1
  H  H1074  1  0.421000  0.980700  0.618800  1
  H  H1075  1  0.480700  0.079000  0.368800  1
  H  H1076  1  0.519300  0.921000  0.868800  1
  H  H1077  1  0.921000  0.519300  0.131200  1
  H  H1078  1  0.079000  0.480700  0.631200  1
  H  H1079  1  0.019300  0.579000  0.881200  1
  H  H1080  1  0.980700  0.421000  0.381200  1
  H  H1081  1  0.620600  0.052100  0.137000  1
  H  H1082  1  0.379400  0.947900  0.637000  1
  H  H1083  1  0.447900  0.120600  0.387000  1
  H  H1084  1  0.552100  0.879400  0.887000  1
  H  H1085  1  0.879400  0.552100  0.113000  1
  H  H1086  1  0.120600  0.447900  0.613000  1
  H  H1087  1  0.052100  0.620600  0.863000  1
  H  H1088  1  0.947900  0.379400  0.363000  1
  H  H1089  1  0.554900  0.997000  0.083100  1
  H  H1090  1  0.445100  0.003000  0.583100  1
  H  H1091  1  0.503000  0.054900  0.333100  1
  H  H1092  1  0.497000  0.945100  0.833100  1
  H  H1093  1  0.945100  0.497000  0.166900  1
  H  H1094  1  0.054900  0.503000  0.666900  1
  H  H1095  1  0.997000  0.554900  0.916900  1
  H  H1096  1  0.003000  0.445100  0.416900  1
  H  H1097  1  0.555900  0.016000  0.057700  1
  H  H1098  1  0.444100  0.984000  0.557700  1
  H  H1099  1  0.484000  0.055900  0.307700  1
  H  H1100  1  0.516000  0.944100  0.807700  1
  H  H1101  1  0.944100  0.516000  0.192300  1
  H  H1102  1  0.055900  0.484000  0.692300  1
  H  H1103  1  0.016000  0.555900  0.942300  1
  H  H1104  1  0.984000  0.444100  0.442300  1
  H  H1105  1  0.534000  0.027300  0.079800  1
  H  H1106  1  0.466000  0.972700  0.579800  1
  H  H1107  1  0.472700  0.034000  0.329800  1
  H  H1108  1  0.527300  0.966000  0.829800  1
  H  H1109  1  0.966000  0.527300  0.170200  1
  H  H1110  1  0.034000  0.472700  0.670200  1
  H  H1111  1  0.027300  0.534000  0.920200  1
  H  H1112  1  0.972700  0.466000  0.420200  1
  H  H1113  1  0.752000  0.340100  0.154900  1
  H  H1114  1  0.248000  0.659900  0.654900  1
  H  H1115  1  0.159900  0.252000  0.404900  1
  H  H1116  1  0.840100  0.748000  0.904900  1
  H  H1117  1  0.748000  0.840100  0.095100  1
  H  H1118  1  0.252000  0.159900  0.595100  1
  H  H1119  1  0.340100  0.752000  0.845100  1
  H  H1120  1  0.659900  0.248000  0.345100  1
  H  H1121  1  0.730500  0.362800  0.190200  1
  H  H1122  1  0.269500  0.637200  0.690200  1
  H  H1123  1  0.137200  0.230500  0.440200  1
  H  H1124  1  0.862800  0.769500  0.940200  1
  H  H1125  1  0.769500  0.862800  0.059800  1
  H  H1126  1  0.230500  0.137200  0.559800  1
  H  H1127  1  0.362800  0.730500  0.809800  1
  H  H1128  1  0.637200  0.269500  0.309800  1
  H  H1129  1  0.702300  0.278200  0.213800  1
  H  H1130  1  0.297700  0.721800  0.713800  1
  H  H1131  1  0.221800  0.202300  0.463800  1
  H  H1132  1  0.778200  0.797700  0.963800  1
  H  H1133  1  0.797700  0.778200  0.036200  1
  H  H1134  1  0.202300  0.221800  0.536200  1
  H  H1135  1  0.278200  0.702300  0.786200  1
  H  H1136  1  0.721800  0.297700  0.286200  1
  H  H1137  1  0.723700  0.255500  0.178400  1
  H  H1138  1  0.276300  0.744500  0.678400  1
  H  H1139  1  0.244500  0.223700  0.428400  1
  H  H1140  1  0.755500  0.776300  0.928400  1
  H  H1141  1  0.776300  0.755500  0.071600  1
  H  H1142  1  0.223700  0.244500  0.571600  1
  H  H1143  1  0.255500  0.723700  0.821600  1
  H  H1144  1  0.744500  0.276300  0.321600  1
  H  H1145  1  0.680500  0.345500  0.226000  1
  H  H1146  1  0.319500  0.654500  0.726000  1
  H  H1147  1  0.154500  0.180500  0.476000  1
  H  H1148  1  0.845500  0.819500  0.976000  1
  H  H1149  1  0.819500  0.845500  0.024000  1
  H  H1150  1  0.180500  0.154500  0.524000  1
  H  H1151  1  0.345500  0.680500  0.774000  1
  H  H1152  1  0.654500  0.319500  0.274000  1
  H  H1153  1  0.714900  0.354700  0.234200  1
  H  H1154  1  0.285100  0.645300  0.734200  1
  H  H1155  1  0.145300  0.214900  0.484200  1
  H  H1156  1  0.854700  0.785100  0.984200  1
  H  H1157  1  0.785100  0.854700  0.015800  1
  H  H1158  1  0.214900  0.145300  0.515800  1
  H  H1159  1  0.354700  0.714900  0.765800  1
  H  H1160  1  0.645300  0.285100  0.265800  1
  H  H1161  1  0.700600  0.322000  0.242300  1
  H  H1162  1  0.299400  0.678000  0.742300  1
  H  H1163  1  0.178000  0.200600  0.492300  1
  H  H1164  1  0.822000  0.799400  0.992300  1
  H  H1165  1  0.799400  0.822000  0.007700  1
  H  H1166  1  0.200600  0.178000  0.507700  1
  H  H1167  1  0.322000  0.700600  0.757700  1
  H  H1168  1  0.678000  0.299400  0.257700  1
  H  H1169  1  0.716900  0.283500  0.123800  1
  H  H1170  1  0.283100  0.716500  0.623800  1
  H  H1171  1  0.216500  0.216900  0.373800  1
  H  H1172  1  0.783500  0.783100  0.873800  1
  H  H1173  1  0.783100  0.783500  0.126200  1
  H  H1174  1  0.216900  0.216500  0.626200  1
  H  H1175  1  0.283500  0.716900  0.876200  1
  H  H1176  1  0.716500  0.283100  0.376200  1
  H  H1177  1  0.814100  0.221200  0.097100  1
  H  H1178  1  0.185900  0.778800  0.597100  1
  H  H1179  1  0.278800  0.314100  0.347100  1
  H  H1180  1  0.721200  0.685900  0.847100  1
  H  H1181  1  0.685900  0.721200  0.152900  1
  H  H1182  1  0.314100  0.278800  0.652900  1
  H  H1183  1  0.221200  0.814100  0.902900  1
  H  H1184  1  0.778800  0.185900  0.402900  1
  H  H1185  1  0.743400  0.229000  0.048900  1
  H  H1186  1  0.256600  0.771000  0.548900  1
  H  H1187  1  0.271000  0.243400  0.298900  1
  H  H1188  1  0.729000  0.756600  0.798900  1
  H  H1189  1  0.756600  0.729000  0.201100  1
  H  H1190  1  0.243400  0.271000  0.701100  1
  H  H1191  1  0.229000  0.743400  0.951100  1
  H  H1192  1  0.771000  0.256600  0.451100  1
  H  H1193  1  0.720000  0.261600  0.077100  1
  H  H1194  1  0.280000  0.738400  0.577100  1
  H  H1195  1  0.238400  0.220000  0.327100  1
  H  H1196  1  0.761600  0.780000  0.827100  1
  H  H1197  1  0.780000  0.761600  0.172900  1
  H  H1198  1  0.220000  0.238400  0.672900  1
  H  H1199  1  0.261600  0.720000  0.922900  1
  H  H1200  1  0.738400  0.280000  0.422900  1
  H  H1201  1  0.832300  0.184800  0.077700  1
  H  H1202  1  0.167700  0.815200  0.577700  1
  H  H1203  1  0.315200  0.332300  0.327700  1
  H  H1204  1  0.684800  0.667700  0.827700  1
  H  H1205  1  0.667700  0.684800  0.172300  1
  H  H1206  1  0.332300  0.315200  0.672300  1
  H  H1207  1  0.184800  0.832300  0.922300  1
  H  H1208  1  0.815200  0.167700  0.422300  1
  H  H1209  1  0.802800  0.178400  0.997100  1
  H  H1210  1  0.197200  0.821600  0.497100  1
  H  H1211  1  0.321600  0.302800  0.247100  1
  H  H1212  1  0.678400  0.697200  0.747100  1
  H  H1213  1  0.697200  0.678400  0.252900  1
  H  H1214  1  0.302800  0.321600  0.752900  1
  H  H1215  1  0.178400  0.802800  0.002900  1
  H  H1216  1  0.821600  0.197200  0.502900  1
  H  H1217  1  0.774500  0.208600  0.022600  1
  H  H1218  1  0.225500  0.791400  0.522600  1
  H  H1219  1  0.291400  0.274500  0.272600  1
  H  H1220  1  0.708600  0.725500  0.772600  1
  H  H1221  1  0.725500  0.708600  0.227400  1
  H  H1222  1  0.274500  0.291400  0.727400  1
  H  H1223  1  0.208600  0.774500  0.977400  1
  H  H1224  1  0.791400  0.225500  0.477400  1
  H  H1225  1  0.845100  0.138900  0.992700  1
  H  H1226  1  0.154900  0.861100  0.492700  1
  H  H1227  1  0.361100  0.345100  0.242700  1
  H  H1228  1  0.638900  0.654900  0.742700  1
  H  H1229  1  0.654900  0.638900  0.257300  1
  H  H1230  1  0.345100  0.361100  0.757300  1
  H  H1231  1  0.138900  0.845100  0.007300  1
  H  H1232  1  0.861100  0.154900  0.507300  1
  H  H1233  1  0.931300  0.132300  0.007900  1
  H  H1234  1  0.068700  0.867700  0.507900  1
  H  H1235  1  0.367700  0.431300  0.257900  1
  H  H1236  1  0.632300  0.568700  0.757900  1
  H  H1237  1  0.568700  0.632300  0.242100  1
  H  H1238  1  0.431300  0.367700  0.742100  1
  H  H1239  1  0.132300  0.931300  0.992100  1
  H  H1240  1  0.867700  0.068700  0.492100  1
  H  H1241  1  0.961200  0.097600  0.984800  1
  H  H1242  1  0.038800  0.902400  0.484800  1
  H  H1243  1  0.402400  0.461200  0.234800  1
  H  H1244  1  0.597600  0.538800  0.734800  1
  H  H1245  1  0.538800  0.597600  0.265200  1
  H  H1246  1  0.461200  0.402400  0.765200  1
  H  H1247  1  0.097600  0.961200  0.015200  1
  H  H1248  1  0.902400  0.038800  0.515200  1
  H  H1249  1  0.887200  0.040200  0.978800  1
  H  H1250  1  0.112800  0.959800  0.478800  1
  H  H1251  1  0.459800  0.387200  0.228800  1
  H  H1252  1  0.540200  0.612800  0.728800  1
  H  H1253  1  0.612800  0.540200  0.271200  1
  H  H1254  1  0.387200  0.459800  0.771200  1
  H  H1255  1  0.040200  0.887200  0.021200  1
  H  H1256  1  0.959800  0.112800  0.521200  1
  H  H1257  1  0.857300  0.074900  0.001900  1
  H  H1258  1  0.142700  0.925100  0.501900  1
  H  H1259  1  0.425100  0.357300  0.251900  1
  H  H1260  1  0.574900  0.642700  0.751900  1
  H  H1261  1  0.642700  0.574900  0.248100  1
  H  H1262  1  0.357300  0.425100  0.748100  1
  H  H1263  1  0.074900  0.857300  0.998100  1
  H  H1264  1  0.925100  0.142700  0.498100  1
  H  H1265  1  0.967900  0.043800  0.969500  1
  H  H1266  1  0.032100  0.956200  0.469500  1
  H  H1267  1  0.456200  0.467900  0.219500  1
  H  H1268  1  0.543800  0.532100  0.719500  1
  H  H1269  1  0.532100  0.543800  0.280500  1
  H  H1270  1  0.467900  0.456200  0.780500  1
  H  H1271  1  0.043800  0.967900  0.030500  1
  H  H1272  1  0.956200  0.032100  0.530500  1
  H  H1273  1  0.945000  0.048200  0.947300  1
  H  H1274  1  0.055000  0.951800  0.447300  1
  H  H1275  1  0.451800  0.445000  0.197300  1
  H  H1276  1  0.548200  0.555000  0.697300  1
  H  H1277  1  0.555000  0.548200  0.302700  1
  H  H1278  1  0.445000  0.451800  0.802700  1
  H  H1279  1  0.048200  0.945000  0.052700  1
  H  H1280  1  0.951800  0.055000  0.552700  1
  H  H1281  1  0.939100  0.021800  0.966700  1
  H  H1282  1  0.060900  0.978200  0.466700  1
  H  H1283  1  0.478200  0.439100  0.216700  1
  H  H1284  1  0.521800  0.560900  0.716700  1
  H  H1285  1  0.560900  0.521800  0.283300  1
  H  H1286  1  0.439100  0.478200  0.783300  1
  H  H1287  1  0.021800  0.939100  0.033300  1
  H  H1288  1  0.978200  0.060900  0.533300  1
  H  H1289  1  0.651700  0.166300  0.182800  1
  H  H1290  1  0.348300  0.833700  0.682800  1
  H  H1291  1  0.333700  0.151700  0.432800  1
  H  H1292  1  0.666300  0.848300  0.932800  1
  H  H1293  1  0.848300  0.666300  0.067200  1
  H  H1294  1  0.151700  0.333700  0.567200  1
  H  H1295  1  0.166300  0.651700  0.817200  1
  H  H1296  1  0.833700  0.348300  0.317200  1
  H  H1297  1  0.682400  0.155100  0.217000  1
  H  H1298  1  0.317600  0.844900  0.717000  1
  H  H1299  1  0.344900  0.182400  0.467000  1
  H  H1300  1  0.655100  0.817600  0.967000  1
  H  H1301  1  0.817600  0.655100  0.033000  1
  H  H1302  1  0.182400  0.344900  0.533000  1
  H  H1303  1  0.155100  0.682400  0.783000  1
  H  H1304  1  0.844900  0.317600  0.283000  1
  H  H1305  1  0.650300  0.067900  0.214800  1
  H  H1306  1  0.349700  0.932100  0.714800  1
  H  H1307  1  0.432100  0.150300  0.464800  1
  H  H1308  1  0.567900  0.849700  0.964800  1
  H  H1309  1  0.849700  0.567900  0.035200  1
  H  H1310  1  0.150300  0.432100  0.535200  1
  H  H1311  1  0.067900  0.650300  0.785200  1
  H  H1312  1  0.932100  0.349700  0.285200  1
  H  H1313  1  0.624200  0.077700  0.178000  1
  H  H1314  1  0.375800  0.922300  0.678000  1
  H  H1315  1  0.422300  0.124200  0.428000  1
  H  H1316  1  0.577700  0.875800  0.928000  1
  H  H1317  1  0.875800  0.577700  0.072000  1
  H  H1318  1  0.124200  0.422300  0.572000  1
  H  H1319  1  0.077700  0.624200  0.822000  1
  H  H1320  1  0.922300  0.375800  0.322000  1
  H  H1321  1  0.691700  0.121300  0.251600  1
  H  H1322  1  0.308300  0.878700  0.751600  1
  H  H1323  1  0.378700  0.191700  0.501600  1
  H  H1324  1  0.621300  0.808300  0.001600  1
  H  H1325  1  0.808300  0.621300  0.998400  1
  H  H1326  1  0.191700  0.378700  0.498400  1
  H  H1327  1  0.121300  0.691700  0.748400  1
  H  H1328  1  0.878700  0.308300  0.248400  1
  H  H1329  1  0.708400  0.093300  0.237600  1
  H  H1330  1  0.291600  0.906700  0.737600  1
  H  H1331  1  0.406700  0.208400  0.487600  1
  H  H1332  1  0.593300  0.791600  0.987600  1
  H  H1333  1  0.791600  0.593300  0.012400  1
  H  H1334  1  0.208400  0.406700  0.512400  1
  H  H1335  1  0.093300  0.708400  0.762400  1
  H  H1336  1  0.906700  0.291600  0.262400  1
  H  H1337  1  0.676700  0.087400  0.252200  1
  H  H1338  1  0.323300  0.912600  0.752200  1
  H  H1339  1  0.412600  0.176700  0.502200  1
  H  H1340  1  0.587400  0.823300  0.002200  1
  H  H1341  1  0.823300  0.587400  0.997800  1
  H  H1342  1  0.176700  0.412600  0.497800  1
  H  H1343  1  0.087400  0.676700  0.747800  1
  H  H1344  1  0.912600  0.323300  0.247800  1
  H  H1345  1  0.582600  0.110200  0.165400  1
  H  H1346  1  0.417400  0.889800  0.665400  1
  H  H1347  1  0.389800  0.082600  0.415400  1
  H  H1348  1  0.610200  0.917400  0.915400  1
  H  H1349  1  0.917400  0.610200  0.084600  1
  H  H1350  1  0.082600  0.389800  0.584600  1
  H  H1351  1  0.110200  0.582600  0.834600  1
  H  H1352  1  0.889800  0.417400  0.334600  1
  H  H1353  1  0.600100  0.156000  0.077700  1
  H  H1354  1  0.399900  0.844000  0.577700  1
  H  H1355  1  0.344000  0.100100  0.327700  1
  H  H1356  1  0.656000  0.899900  0.827700  1
  H  H1357  1  0.899900  0.656000  0.172300  1
  H  H1358  1  0.100100  0.344000  0.672300  1
  H  H1359  1  0.156000  0.600100  0.922300  1
  H  H1360  1  0.844000  0.399900  0.422300  1
  H  H1361  1  0.518000  0.110500  0.094400  1
  H  H1362  1  0.482000  0.889500  0.594400  1
  H  H1363  1  0.389500  0.018000  0.344400  1
  H  H1364  1  0.610500  0.982000  0.844400  1
  H  H1365  1  0.982000  0.610500  0.155600  1
  H  H1366  1  0.018000  0.389500  0.655600  1
  H  H1367  1  0.110500  0.518000  0.905600  1
  H  H1368  1  0.889500  0.482000  0.405600  1
  H  H1369  1  0.537200  0.106000  0.133700  1
  H  H1370  1  0.462800  0.894000  0.633700  1
  H  H1371  1  0.394000  0.037200  0.383700  1
  H  H1372  1  0.606000  0.962800  0.883700  1
  H  H1373  1  0.962800  0.606000  0.116300  1
  H  H1374  1  0.037200  0.394000  0.616300  1
  H  H1375  1  0.106000  0.537200  0.866300  1
  H  H1376  1  0.894000  0.462800  0.366300  1
  H  H1377  1  0.553800  0.183100  0.053000  1
  H  H1378  1  0.446200  0.816900  0.553000  1
  H  H1379  1  0.316900  0.053800  0.303000  1
  H  H1380  1  0.683100  0.946200  0.803000  1
  H  H1381  1  0.946200  0.683100  0.197000  1
  H  H1382  1  0.053800  0.316900  0.697000  1
  H  H1383  1  0.183100  0.553800  0.947000  1
  H  H1384  1  0.816900  0.446200  0.447000  1
  H  H1385  1  0.522400  0.095900  0.008900  1
  H  H1386  1  0.477600  0.904100  0.508900  1
  H  H1387  1  0.404100  0.022400  0.258900  1
  H  H1388  1  0.595900  0.977600  0.758900  1
  H  H1389  1  0.977600  0.595900  0.241100  1
  H  H1390  1  0.022400  0.404100  0.741100  1
  H  H1391  1  0.095900  0.522400  0.991100  1
  H  H1392  1  0.904100  0.477600  0.491100  1
  H  H1393  1  0.532900  0.092800  0.050500  1
  H  H1394  1  0.467100  0.907200  0.550500  1
  H  H1395  1  0.407200  0.032900  0.300500  1
  H  H1396  1  0.592800  0.967100  0.800500  1
  H  H1397  1  0.967100  0.592800  0.199500  1
  H  H1398  1  0.032900  0.407200  0.699500  1
  H  H1399  1  0.092800  0.532900  0.949500  1
  H  H1400  1  0.907200  0.467100  0.449500  1
  H  H1401  1  0.516500  0.135200  0.969700  1
  H  H1402  1  0.483500  0.864800  0.469700  1
  H  H1403  1  0.364800  0.016500  0.219700  1
  H  H1404  1  0.635200  0.983500  0.719700  1
  H  H1405  1  0.983500  0.635200  0.280300  1
  H  H1406  1  0.016500  0.364800  0.780300  1
  H  H1407  1  0.135200  0.516500  0.030300  1
  H  H1408  1  0.864800  0.483500  0.530300  1
  H  H1409  1  0.550100  0.214200  0.944100  1
  H  H1410  1  0.449900  0.785800  0.444100  1
  H  H1411  1  0.285800  0.050100  0.194100  1
  H  H1412  1  0.714200  0.949900  0.694100  1
  H  H1413  1  0.949900  0.714200  0.305900  1
  H  H1414  1  0.050100  0.285800  0.805900  1
  H  H1415  1  0.214200  0.550100  0.055900  1
  H  H1416  1  0.785800  0.449900  0.555900  1
  H  H1417  1  0.534700  0.227700  0.903500  1
  H  H1418  1  0.465300  0.772300  0.403500  1
  H  H1419  1  0.272300  0.034700  0.153500  1
  H  H1420  1  0.727700  0.965300  0.653500  1
  H  H1421  1  0.965300  0.727700  0.346500  1
  H  H1422  1  0.034700  0.272300  0.846500  1
  H  H1423  1  0.227700  0.534700  0.096500  1
  H  H1424  1  0.772300  0.465300  0.596500  1
  H  H1425  1  0.459500  0.175800  0.909200  1
  H  H1426  1  0.540500  0.824200  0.409200  1
  H  H1427  1  0.324200  0.959500  0.159200  1
  H  H1428  1  0.675800  0.040500  0.659200  1
  H  H1429  1  0.040500  0.675800  0.340800  1
  H  H1430  1  0.959500  0.324200  0.840800  1
  H  H1431  1  0.175800  0.459500  0.090800  1
  H  H1432  1  0.824200  0.540500  0.590800  1
  H  H1433  1  0.475100  0.155500  0.948300  1
  H  H1434  1  0.524900  0.844500  0.448300  1
  H  H1435  1  0.344500  0.975100  0.198300  1
  H  H1436  1  0.655500  0.024900  0.698300  1
  H  H1437  1  0.024900  0.655500  0.301700  1
  H  H1438  1  0.975100  0.344500  0.801700  1
  H  H1439  1  0.155500  0.475100  0.051700  1
  H  H1440  1  0.844500  0.524900  0.551700  1
  H  H1441  1  0.472700  0.195500  0.869000  1
  H  H1442  1  0.527300  0.804500  0.369000  1
  H  H1443  1  0.304500  0.972700  0.119000  1
  H  H1444  1  0.695500  0.027300  0.619000  1
  H  H1445  1  0.027300  0.695500  0.381000  1
  H  H1446  1  0.972700  0.304500  0.881000  1
  H  H1447  1  0.195500  0.472700  0.131000  1
  H  H1448  1  0.804500  0.527300  0.631000  1
  H  H1449  1  0.502100  0.217900  0.866900  1
  H  H1450  1  0.497900  0.782100  0.366900  1
  H  H1451  1  0.282100  0.002100  0.116900  1
  H  H1452  1  0.717900  0.997900  0.616900  1
  H  H1453  1  0.997900  0.717900  0.383100  1
  H  H1454  1  0.002100  0.282100  0.883100  1
  H  H1455  1  0.217900  0.502100  0.133100  1
  H  H1456  1  0.782100  0.497900  0.633100  1
  H  H1457  1  0.470100  0.230800  0.877800  1
  H  H1458  1  0.529900  0.769200  0.377800  1
  H  H1459  1  0.269200  0.970100  0.127800  1
  H  H1460  1  0.730800  0.029900  0.627800  1
  H  H1461  1  0.029900  0.730800  0.372200  1
  H  H1462  1  0.970100  0.269200  0.872200  1
  H  H1463  1  0.230800  0.470100  0.122200  1
  H  H1464  1  0.769200  0.529900  0.622200  1
  H  H1465  1  0.662300  0.226400  0.157200  1
  H  H1466  1  0.337700  0.773600  0.657200  1
  H  H1467  1  0.273600  0.162300  0.407200  1
  H  H1468  1  0.726400  0.837700  0.907200  1
  H  H1469  1  0.837700  0.726400  0.092800  1
  H  H1470  1  0.162300  0.273600  0.592800  1
  H  H1471  1  0.226400  0.662300  0.842800  1
  H  H1472  1  0.773600  0.337700  0.342800  1
  H  H1473  1  0.644800  0.249700  0.192300  1
  H  H1474  1  0.355200  0.750300  0.692300  1
  H  H1475  1  0.250300  0.144800  0.442300  1
  H  H1476  1  0.749700  0.855200  0.942300  1
  H  H1477  1  0.855200  0.749700  0.057700  1
  H  H1478  1  0.144800  0.250300  0.557700  1
  H  H1479  1  0.249700  0.644800  0.807700  1
  H  H1480  1  0.750300  0.355200  0.307700  1
  H  H1481  1  0.562000  0.207700  0.181400  1
  H  H1482  1  0.438000  0.792300  0.681400  1
  H  H1483  1  0.292300  0.062000  0.431400  1
  H  H1484  1  0.707700  0.938000  0.931400  1
  H  H1485  1  0.938000  0.707700  0.068600  1
  H  H1486  1  0.062000  0.292300  0.568600  1
  H  H1487  1  0.207700  0.562000  0.818600  1
  H  H1488  1  0.792300  0.438000  0.318600  1
  H  H1489  1  0.580400  0.183700  0.147800  1
  H  H1490  1  0.419600  0.816300  0.647800  1
  H  H1491  1  0.316300  0.080400  0.397800  1
  H  H1492  1  0.683700  0.919600  0.897800  1
  H  H1493  1  0.919600  0.683700  0.102200  1
  H  H1494  1  0.080400  0.316300  0.602200  1
  H  H1495  1  0.183700  0.580400  0.852200  1
  H  H1496  1  0.816300  0.419600  0.352200  1
  H  H1497  1  0.572300  0.254300  0.214400  1
  H  H1498  1  0.427700  0.745700  0.714400  1
  H  H1499  1  0.245700  0.072300  0.464400  1
  H  H1500  1  0.754300  0.927700  0.964400  1
  H  H1501  1  0.927700  0.754300  0.035600  1
  H  H1502  1  0.072300  0.245700  0.535600  1
  H  H1503  1  0.254300  0.572300  0.785600  1
  H  H1504  1  0.745700  0.427700  0.285600  1
  H  H1505  1  0.607400  0.253700  0.224000  1
  H  H1506  1  0.392600  0.746300  0.724000  1
  H  H1507  1  0.246300  0.107400  0.474000  1
  H  H1508  1  0.753700  0.892600  0.974000  1
  H  H1509  1  0.892600  0.753700  0.026000  1
  H  H1510  1  0.107400  0.246300  0.526000  1
  H  H1511  1  0.253700  0.607400  0.776000  1
  H  H1512  1  0.746300  0.392600  0.276000  1
  H  H1513  1  0.585100  0.224700  0.229000  1
  H  H1514  1  0.414900  0.775300  0.729000  1
  H  H1515  1  0.275300  0.085100  0.479000  1
  H  H1516  1  0.724700  0.914900  0.979000  1
  H  H1517  1  0.914900  0.724700  0.021000  1
  H  H1518  1  0.085100  0.275300  0.521000  1
  H  H1519  1  0.224700  0.585100  0.771000  1
  H  H1520  1  0.775300  0.414900  0.271000  1
  H  H1521  1  0.641500  0.227000  0.109500  1
  H  H1522  1  0.358500  0.773000  0.609500  1
  H  H1523  1  0.273000  0.141500  0.359500  1
  H  H1524  1  0.727000  0.858500  0.859500  1
  H  H1525  1  0.858500  0.727000  0.140500  1
  H  H1526  1  0.141500  0.273000  0.640500  1
  H  H1527  1  0.227000  0.641500  0.890500  1
  H  H1528  1  0.773000  0.358500  0.390500  1
  H  H1529  1  0.675200  0.121000  0.076500  1
  H  H1530  1  0.324800  0.879000  0.576500  1
  H  H1531  1  0.379000  0.175200  0.326500  1
  H  H1532  1  0.621000  0.824800  0.826500  1
  H  H1533  1  0.824800  0.621000  0.173500  1
  H  H1534  1  0.175200  0.379000  0.673500  1
  H  H1535  1  0.121000  0.675200  0.923500  1
  H  H1536  1  0.879000  0.324800  0.423500  1
  H  H1537  1  0.689500  0.195900  0.034700  1
  H  H1538  1  0.310500  0.804100  0.534700  1
  H  H1539  1  0.304100  0.189500  0.284700  1
  H  H1540  1  0.695900  0.810500  0.784700  1
  H  H1541  1  0.810500  0.695900  0.215300  1
  H  H1542  1  0.189500  0.304100  0.715300  1
  H  H1543  1  0.195900  0.689500  0.965300  1
  H  H1544  1  0.804100  0.310500  0.465300  1
  H  H1545  1  0.669400  0.223700  0.065200  1
  H  H1546  1  0.330600  0.776300  0.565200  1
  H  H1547  1  0.276300  0.169400  0.315200  1
  H  H1548  1  0.723700  0.830600  0.815200  1
  H  H1549  1  0.830600  0.723700  0.184800  1
  H  H1550  1  0.169400  0.276300  0.684800  1
  H  H1551  1  0.223700  0.669400  0.934800  1
  H  H1552  1  0.776300  0.330600  0.434800  1
  H  H1553  1  0.687100  0.092800  0.045800  1
  H  H1554  1  0.312900  0.907200  0.545800  1
  H  H1555  1  0.407200  0.187100  0.295800  1
  H  H1556  1  0.592800  0.812900  0.795800  1
  H  H1557  1  0.812900  0.592800  0.204200  1
  H  H1558  1  0.187100  0.407200  0.704200  1
  H  H1559  1  0.092800  0.687100  0.954200  1
  H  H1560  1  0.907200  0.312900  0.454200  1
  H  H1561  1  0.747800  0.139200  0.987100  1
  H  H1562  1  0.252200  0.860800  0.487100  1
  H  H1563  1  0.360800  0.247800  0.237100  1
  H  H1564  1  0.639200  0.752200  0.737100  1
  H  H1565  1  0.752200  0.639200  0.262900  1
  H  H1566  1  0.247800  0.360800  0.762900  1
  H  H1567  1  0.139200  0.747800  0.012900  1
  H  H1568  1  0.860800  0.252200  0.512900  1
  H  H1569  1  0.722400  0.170700  0.014500  1
  H  H1570  1  0.277600  0.829300  0.514500  1
  H  H1571  1  0.329300  0.222400  0.264500  1
  H  H1572  1  0.670700  0.777600  0.764500  1
  H  H1573  1  0.777600  0.670700  0.235500  1
  H  H1574  1  0.222400  0.329300  0.735500  1
  H  H1575  1  0.170700  0.722400  0.985500  1
  H  H1576  1  0.829300  0.277600  0.485500  1
  H  H1577  1  0.759400  0.082800  0.971200  1
  H  H1578  1  0.240600  0.917200  0.471200  1
  H  H1579  1  0.417200  0.259400  0.221200  1
  H  H1580  1  0.582800  0.740600  0.721200  1
  H  H1581  1  0.740600  0.582800  0.278800  1
  H  H1582  1  0.259400  0.417200  0.778800  1
  H  H1583  1  0.082800  0.759400  0.028800  1
  H  H1584  1  0.917200  0.240600  0.528800  1
  H  H1585  1  0.792100  0.015500  0.995200  1
  H  H1586  1  0.207900  0.984500  0.495200  1
  H  H1587  1  0.484500  0.292100  0.245200  1
  H  H1588  1  0.515500  0.707900  0.745200  1
  H  H1589  1  0.707900  0.515500  0.254800  1
  H  H1590  1  0.292100  0.484500  0.754800  1
  H  H1591  1  0.015500  0.792100  0.004800  1
  H  H1592  1  0.984500  0.207900  0.504800  1
  H  H1593  1  0.811400  0.971800  0.970500  1
  H  H1594  1  0.188600  0.028200  0.470500  1
  H  H1595  1  0.528200  0.311400  0.220500  1
  H  H1596  1  0.471800  0.688600  0.720500  1
  H  H1597  1  0.688600  0.471800  0.279500  1
  H  H1598  1  0.311400  0.528200  0.779500  1
  H  H1599  1  0.971800  0.811400  0.029500  1
  H  H1600  1  0.028200  0.188600  0.529500  1
  H  H1601  1  0.747000  0.992000  0.919000  1
  H  H1602  1  0.253000  0.008000  0.419000  1
  H  H1603  1  0.508000  0.247000  0.169000  1
  H  H1604  1  0.492000  0.753000  0.669000  1
  H  H1605  1  0.753000  0.492000  0.331000  1
  H  H1606  1  0.247000  0.508000  0.831000  1
  H  H1607  1  0.992000  0.747000  0.081000  1
  H  H1608  1  0.008000  0.253000  0.581000  1
  H  H1609  1  0.722900  0.025800  0.945100  1
  H  H1610  1  0.277100  0.974200  0.445100  1
  H  H1611  1  0.474200  0.222900  0.195100  1
  H  H1612  1  0.525800  0.777100  0.695100  1
  H  H1613  1  0.777100  0.525800  0.304900  1
  H  H1614  1  0.222900  0.474200  0.804900  1
  H  H1615  1  0.025800  0.722900  0.054900  1
  H  H1616  1  0.974200  0.277100  0.554900  1
  H  H1617  1  0.802400  0.965600  0.908200  1
  H  H1618  1  0.197600  0.034400  0.408200  1
  H  H1619  1  0.534400  0.302400  0.158200  1
  H  H1620  1  0.465600  0.697600  0.658200  1
  H  H1621  1  0.697600  0.465600  0.341800  1
  H  H1622  1  0.302400  0.534400  0.841800  1
  H  H1623  1  0.965600  0.802400  0.091800  1
  H  H1624  1  0.034400  0.197600  0.591800  1
  H  H1625  1  0.783900  0.938200  0.921700  1
  H  H1626  1  0.216100  0.061800  0.421700  1
  H  H1627  1  0.561800  0.283900  0.171700  1
  H  H1628  1  0.438200  0.716100  0.671700  1
  H  H1629  1  0.716100  0.438200  0.328300  1
  H  H1630  1  0.283900  0.561800  0.828300  1
  H  H1631  1  0.938200  0.783900  0.078300  1
  H  H1632  1  0.061800  0.216100  0.578300  1
  H  H1633  1  0.817400  0.948500  0.931500  1
  H  H1634  1  0.182600  0.051500  0.431500  1
  H  H1635  1  0.551500  0.317400  0.181500  1
  H  H1636  1  0.448500  0.682600  0.681500  1
  H  H1637  1  0.682600  0.448500  0.318500  1
  H  H1638  1  0.317400  0.551500  0.818500  1
  H  H1639  1  0.948500  0.817400  0.068500  1
  H  H1640  1  0.051500  0.182600  0.568500  1
  H  H1641  1  0.497200  0.285700  0.020000  1
  H  H1642  1  0.502800  0.714300  0.520000  1
  H  H1643  1  0.214300  0.997200  0.270000  1
  H  H1644  1  0.785700  0.002800  0.770000  1
  H  H1645  1  0.002800  0.785700  0.230000  1
  H  H1646  1  0.997200  0.214300  0.730000  1
  H  H1647  1  0.285700  0.497200  0.980000  1
  H  H1648  1  0.714300  0.502800  0.480000  1
  H  H1649  1  0.463500  0.308700  0.047700  1
  H  H1650  1  0.536500  0.691300  0.547700  1
  H  H1651  1  0.191300  0.963500  0.297700  1
  H  H1652  1  0.808700  0.036500  0.797700  1
  H  H1653  1  0.036500  0.808700  0.202300  1
  H  H1654  1  0.963500  0.191300  0.702300  1
  H  H1655  1  0.308700  0.463500  0.952300  1
  H  H1656  1  0.691300  0.536500  0.452300  1
  H  H1657  1  0.481100  0.247700  0.101000  1
  H  H1658  1  0.518900  0.752300  0.601000  1
  H  H1659  1  0.252300  0.981100  0.351000  1
  H  H1660  1  0.747700  0.018900  0.851000  1
  H  H1661  1  0.018900  0.747700  0.149000  1
  H  H1662  1  0.981100  0.252300  0.649000  1
  H  H1663  1  0.247700  0.481100  0.899000  1
  H  H1664  1  0.752300  0.518900  0.399000  1
  H  H1665  1  0.518800  0.224200  0.074800  1
  H  H1666  1  0.481200  0.775800  0.574800  1
  H  H1667  1  0.275800  0.018800  0.324800  1
  H  H1668  1  0.724200  0.981200  0.824800  1
  H  H1669  1  0.981200  0.724200  0.175200  1
  H  H1670  1  0.018800  0.275800  0.675200  1
  H  H1671  1  0.224200  0.518800  0.925200  1
  H  H1672  1  0.775800  0.481200  0.425200  1
  H  H1673  1  0.457600  0.311200  0.105500  1
  H  H1674  1  0.542400  0.688800  0.605500  1
  H  H1675  1  0.188800  0.957600  0.355500  1
  H  H1676  1  0.811200  0.042400  0.855500  1
  H  H1677  1  0.042400  0.811200  0.144500  1
  H  H1678  1  0.957600  0.188800  0.644500  1
  H  H1679  1  0.311200  0.457600  0.894500  1
  H  H1680  1  0.688800  0.542400  0.394500  1
  H  H1681  1  0.436500  0.280700  0.104200  1
  H  H1682  1  0.563500  0.719300  0.604200  1
  H  H1683  1  0.219300  0.936500  0.354200  1
  H  H1684  1  0.780700  0.063500  0.854200  1
  H  H1685  1  0.063500  0.780700  0.145800  1
  H  H1686  1  0.936500  0.219300  0.645800  1
  H  H1687  1  0.280700  0.436500  0.895800  1
  H  H1688  1  0.719300  0.563500  0.395800  1
  H  H1689  1  0.430300  0.308800  0.085600  1
  H  H1690  1  0.569700  0.691200  0.585600  1
  H  H1691  1  0.191200  0.930300  0.335600  1
  H  H1692  1  0.808800  0.069700  0.835600  1
  H  H1693  1  0.069700  0.808800  0.164400  1
  H  H1694  1  0.930300  0.191200  0.664400  1
  H  H1695  1  0.308800  0.430300  0.914400  1
  H  H1696  1  0.691200  0.569700  0.414400  1
  H  H1697  1  0.567000  0.262600  0.043800  1
  H  H1698  1  0.433000  0.737400  0.543800  1
  H  H1699  1  0.237400  0.067000  0.293800  1
  H  H1700  1  0.762600  0.933000  0.793800  1
  H  H1701  1  0.933000  0.762600  0.206200  1
  H  H1702  1  0.067000  0.237400  0.706200  1
  H  H1703  1  0.262600  0.567000  0.956200  1
  H  H1704  1  0.737400  0.433000  0.456200  1
  H  H1705  1  0.581900  0.184600  0.975600  1
  H  H1706  1  0.418100  0.815400  0.475600  1
  H  H1707  1  0.315400  0.081900  0.225600  1
  H  H1708  1  0.684600  0.918100  0.725600  1
  H  H1709  1  0.918100  0.684600  0.274400  1
  H  H1710  1  0.081900  0.315400  0.774400  1
  H  H1711  1  0.184600  0.581900  0.024400  1
  H  H1712  1  0.815400  0.418100  0.524400  1
  H  H1713  1  0.657500  0.225600  0.000600  1
  H  H1714  1  0.342500  0.774400  0.500600  1
  H  H1715  1  0.274400  0.157500  0.250600  1
  H  H1716  1  0.725600  0.842500  0.750600  1
  H  H1717  1  0.842500  0.725600  0.249400  1
  H  H1718  1  0.157500  0.274400  0.749400  1
  H  H1719  1  0.225600  0.657500  0.999400  1
  H  H1720  1  0.774400  0.342500  0.499400  1
  H  H1721  1  0.626200  0.254800  0.027300  1
  H  H1722  1  0.373800  0.745200  0.527300  1
  H  H1723  1  0.245200  0.126200  0.277300  1
  H  H1724  1  0.754800  0.873800  0.777300  1
  H  H1725  1  0.873800  0.754800  0.222700  1
  H  H1726  1  0.126200  0.245200  0.722700  1
  H  H1727  1  0.254800  0.626200  0.972700  1
  H  H1728  1  0.745200  0.373800  0.472700  1
  H  H1729  1  0.608300  0.169300  0.944700  1
  H  H1730  1  0.391700  0.830700  0.444700  1
  H  H1731  1  0.330700  0.108300  0.194700  1
  H  H1732  1  0.669300  0.891700  0.694700  1
  H  H1733  1  0.891700  0.669300  0.305300  1
  H  H1734  1  0.108300  0.330700  0.805300  1
  H  H1735  1  0.169300  0.608300  0.055300  1
  H  H1736  1  0.830700  0.391700  0.555300  1
  H  H1737  1  0.714200  0.171800  0.950600  1
  H  H1738  1  0.285800  0.828200  0.450600  1
  H  H1739  1  0.328200  0.214200  0.200600  1
  H  H1740  1  0.671800  0.785800  0.700600  1
  H  H1741  1  0.785800  0.671800  0.299400  1
  H  H1742  1  0.214200  0.328200  0.799400  1
  H  H1743  1  0.171800  0.714200  0.049400  1
  H  H1744  1  0.828200  0.285800  0.549400  1
  H  H1745  1  0.684700  0.196800  0.982000  1
  H  H1746  1  0.315300  0.803200  0.482000  1
  H  H1747  1  0.303200  0.184700  0.232000  1
  H  H1748  1  0.696800  0.815300  0.732000  1
  H  H1749  1  0.815300  0.696800  0.268000  1
  H  H1750  1  0.184700  0.303200  0.768000  1
  H  H1751  1  0.196800  0.684700  0.018000  1
  H  H1752  1  0.803200  0.315300  0.518000  1
  H  H1753  1  0.715600  0.145500  0.907600  1
  H  H1754  1  0.284400  0.854500  0.407600  1
  H  H1755  1  0.354500  0.215600  0.157600  1
  H  H1756  1  0.645500  0.784400  0.657600  1
  H  H1757  1  0.784400  0.645500  0.342400  1
  H  H1758  1  0.215600  0.354500  0.842400  1
  H  H1759  1  0.145500  0.715600  0.092400  1
  H  H1760  1  0.854500  0.284400  0.592400  1
  H  H1761  1  0.711300  0.160500  0.862100  1
  H  H1762  1  0.288700  0.839500  0.362100  1
  H  H1763  1  0.339500  0.211300  0.112100  1
  H  H1764  1  0.660500  0.788700  0.612100  1
  H  H1765  1  0.788700  0.660500  0.387900  1
  H  H1766  1  0.211300  0.339500  0.887900  1
  H  H1767  1  0.160500  0.711300  0.137900  1
  H  H1768  1  0.839500  0.288700  0.637900  1
  H  H1769  1  0.733600  0.142100  0.825000  1
  H  H1770  1  0.266400  0.857900  0.325000  1
  H  H1771  1  0.357900  0.233600  0.075000  1
  H  H1772  1  0.642100  0.766400  0.575000  1
  H  H1773  1  0.766400  0.642100  0.425000  1
  H  H1774  1  0.233600  0.357900  0.925000  1
  H  H1775  1  0.142100  0.733600  0.175000  1
  H  H1776  1  0.857900  0.266400  0.675000  1
  H  H1777  1  0.699100  0.060500  0.837000  1
  H  H1778  1  0.300900  0.939500  0.337000  1
  H  H1779  1  0.439500  0.199100  0.087000  1
  H  H1780  1  0.560500  0.800900  0.587000  1
  H  H1781  1  0.800900  0.560500  0.413000  1
  H  H1782  1  0.199100  0.439500  0.913000  1
  H  H1783  1  0.060500  0.699100  0.163000  1
  H  H1784  1  0.939500  0.300900  0.663000  1
  H  H1785  1  0.673600  0.077400  0.872500  1
  H  H1786  1  0.326400  0.922600  0.372500  1
  H  H1787  1  0.422600  0.173600  0.122500  1
  H  H1788  1  0.577400  0.826400  0.622500  1
  H  H1789  1  0.826400  0.577400  0.377500  1
  H  H1790  1  0.173600  0.422600  0.877500  1
  H  H1791  1  0.077400  0.673600  0.127500  1
  H  H1792  1  0.922600  0.326400  0.627500  1
  H  H1793  1  0.726500  0.103400  0.790300  1
  H  H1794  1  0.273500  0.896600  0.290300  1
  H  H1795  1  0.396600  0.226500  0.040300  1
  H  H1796  1  0.603400  0.773500  0.540300  1
  H  H1797  1  0.773500  0.603400  0.459700  1
  H  H1798  1  0.226500  0.396600  0.959700  1
  H  H1799  1  0.103400  0.726500  0.209700  1
  H  H1800  1  0.896600  0.273500  0.709700  1
  H  H1801  1  0.723200  0.068700  0.800500  1
  H  H1802  1  0.276800  0.931300  0.300500  1
  H  H1803  1  0.431300  0.223200  0.050500  1
  H  H1804  1  0.568700  0.776800  0.550500  1
  H  H1805  1  0.776800  0.568700  0.449500  1
  H  H1806  1  0.223200  0.431300  0.949500  1
  H  H1807  1  0.068700  0.723200  0.199500  1
  H  H1808  1  0.931300  0.276800  0.699500  1
  H  H1809  1  0.754200  0.088000  0.805700  1
  H  H1810  1  0.245800  0.912000  0.305700  1
  H  H1811  1  0.412000  0.254200  0.055700  1
  H  H1812  1  0.588000  0.745800  0.555700  1
  H  H1813  1  0.745800  0.588000  0.444300  1
  H  H1814  1  0.254200  0.412000  0.944300  1
  H  H1815  1  0.088000  0.754200  0.194300  1
  H  H1816  1  0.912000  0.245800  0.694300  1
  H  H1817  1  0.658800  0.300700  0.876300  1
  H  H1818  1  0.341200  0.699300  0.376300  1
  H  H1819  1  0.199300  0.158800  0.126300  1
  H  H1820  1  0.800700  0.841200  0.626300  1
  H  H1821  1  0.841200  0.800700  0.373700  1
  H  H1822  1  0.158800  0.199300  0.873700  1
  H  H1823  1  0.300700  0.658800  0.123700  1
  H  H1824  1  0.699300  0.341200  0.623700  1
  H  H1825  1  0.605800  0.306300  0.863000  1
  H  H1826  1  0.394200  0.693700  0.363000  1
  H  H1827  1  0.193700  0.105800  0.113000  1
  H  H1828  1  0.806300  0.894200  0.613000  1
  H  H1829  1  0.894200  0.806300  0.387000  1
  H  H1830  1  0.105800  0.193700  0.887000  1
  H  H1831  1  0.306300  0.605800  0.137000  1
  H  H1832  1  0.693700  0.394200  0.637000  1
  H  H1833  1  0.634700  0.363900  0.809800  1
  H  H1834  1  0.365300  0.636100  0.309800  1
  H  H1835  1  0.136100  0.134700  0.059800  1
  H  H1836  1  0.863900  0.865300  0.559800  1
  H  H1837  1  0.865300  0.863900  0.440200  1
  H  H1838  1  0.134700  0.136100  0.940200  1
  H  H1839  1  0.363900  0.634700  0.190200  1
  H  H1840  1  0.636100  0.365300  0.690200  1
  H  H1841  1  0.683700  0.362800  0.823500  1
  H  H1842  1  0.316300  0.637200  0.323500  1
  H  H1843  1  0.137200  0.183700  0.073500  1
  H  H1844  1  0.862800  0.816300  0.573500  1
  H  H1845  1  0.816300  0.862800  0.426500  1
  H  H1846  1  0.183700  0.137200  0.926500  1
  H  H1847  1  0.362800  0.683700  0.176500  1
  H  H1848  1  0.637200  0.316300  0.676500  1
  H  H1849  1  0.582200  0.353400  0.812400  1
  H  H1850  1  0.417800  0.646600  0.312400  1
  H  H1851  1  0.146600  0.082200  0.062400  1
  H  H1852  1  0.853400  0.917800  0.562400  1
  H  H1853  1  0.917800  0.853400  0.437600  1
  H  H1854  1  0.082200  0.146600  0.937600  1
  H  H1855  1  0.353400  0.582200  0.187600  1
  H  H1856  1  0.646600  0.417800  0.687600  1
  H  H1857  1  0.568600  0.335300  0.835800  1
  H  H1858  1  0.431400  0.664700  0.335800  1
  H  H1859  1  0.164700  0.068600  0.085800  1
  H  H1860  1  0.835300  0.931400  0.585800  1
  H  H1861  1  0.931400  0.835300  0.414200  1
  H  H1862  1  0.068600  0.164700  0.914200  1
  H  H1863  1  0.335300  0.568600  0.164200  1
  H  H1864  1  0.664700  0.431400  0.664200  1
  H  H1865  1  0.579000  0.316500  0.811700  1
  H  H1866  1  0.421000  0.683500  0.311700  1
  H  H1867  1  0.183500  0.079000  0.061700  1
  H  H1868  1  0.816500  0.921000  0.561700  1
  H  H1869  1  0.921000  0.816500  0.438300  1
  H  H1870  1  0.079000  0.183500  0.938300  1
  H  H1871  1  0.316500  0.579000  0.188300  1
  H  H1872  1  0.683500  0.421000  0.688300  1
  H  H1873  1  0.716000  0.375000  0.860600  1
  H  H1874  1  0.284000  0.625000  0.360600  1
  H  H1875  1  0.125000  0.216000  0.110600  1
  H  H1876  1  0.875000  0.784000  0.610600  1
  H  H1877  1  0.784000  0.875000  0.389400  1
  H  H1878  1  0.216000  0.125000  0.889400  1
  H  H1879  1  0.375000  0.716000  0.139400  1
  H  H1880  1  0.625000  0.284000  0.639400  1
  H  H1881  1  0.800400  0.295300  0.886700  1
  H  H1882  1  0.199600  0.704700  0.386700  1
  H  H1883  1  0.204700  0.300400  0.136700  1
  H  H1884  1  0.795300  0.699600  0.636700  1
  H  H1885  1  0.699600  0.795300  0.363300  1
  H  H1886  1  0.300400  0.204700  0.863300  1
  H  H1887  1  0.295300  0.800400  0.113300  1
  H  H1888  1  0.704700  0.199600  0.613300  1
  H  H1889  1  0.818600  0.389800  0.885400  1
  H  H1890  1  0.181400  0.610200  0.385400  1
  H  H1891  1  0.110200  0.318600  0.135400  1
  H  H1892  1  0.889800  0.681400  0.635400  1
  H  H1893  1  0.681400  0.889800  0.364600  1
  H  H1894  1  0.318600  0.110200  0.864600  1
  H  H1895  1  0.389800  0.818600  0.114600  1
  H  H1896  1  0.610200  0.181400  0.614600  1
  H  H1897  1  0.766700  0.398000  0.873500  1
  H  H1898  1  0.233300  0.602000  0.373500  1
  H  H1899  1  0.102000  0.266700  0.123500  1
  H  H1900  1  0.898000  0.733300  0.623500  1
  H  H1901  1  0.733300  0.898000  0.376500  1
  H  H1902  1  0.266700  0.102000  0.876500  1
  H  H1903  1  0.398000  0.766700  0.126500  1
  H  H1904  1  0.602000  0.233300  0.626500  1
  H  H1905  1  0.832000  0.309300  0.924500  1
  H  H1906  1  0.168000  0.690700  0.424500  1
  H  H1907  1  0.190700  0.332000  0.174500  1
  H  H1908  1  0.809300  0.668000  0.674500  1
  H  H1909  1  0.668000  0.809300  0.325500  1
  H  H1910  1  0.332000  0.190700  0.825500  1
  H  H1911  1  0.309300  0.832000  0.075500  1
  H  H1912  1  0.690700  0.168000  0.575500  1
  H  H1913  1  0.919000  0.350700  0.887300  1
  H  H1914  1  0.081000  0.649300  0.387300  1
  H  H1915  1  0.149300  0.419000  0.137300  1
  H  H1916  1  0.850700  0.581000  0.637300  1
  H  H1917  1  0.581000  0.850700  0.362700  1
  H  H1918  1  0.419000  0.149300  0.862700  1
  H  H1919  1  0.350700  0.919000  0.112700  1
  H  H1920  1  0.649300  0.081000  0.612700  1
  H  H1921  1  0.868700  0.358500  0.869600  1
  H  H1922  1  0.131300  0.641500  0.369600  1
  H  H1923  1  0.141500  0.368700  0.119600  1
  H  H1924  1  0.858500  0.631300  0.619600  1
  H  H1925  1  0.631300  0.858500  0.380400  1
  H  H1926  1  0.368700  0.141500  0.880400  1
  H  H1927  1  0.358500  0.868700  0.130400  1
  H  H1928  1  0.641500  0.131300  0.630400  1
  H  H1929  1  0.952800  0.327900  0.922000  1
  H  H1930  1  0.047200  0.672100  0.422000  1
  H  H1931  1  0.172100  0.452800  0.172000  1
  H  H1932  1  0.827900  0.547200  0.672000  1
  H  H1933  1  0.547200  0.827900  0.328000  1
  H  H1934  1  0.452800  0.172100  0.828000  1
  H  H1935  1  0.327900  0.952800  0.078000  1
  H  H1936  1  0.672100  0.047200  0.578000  1
  H  H1937  1  0.969100  0.351000  0.960400  1
  H  H1938  1  0.030900  0.649000  0.460400  1
  H  H1939  1  0.149000  0.469100  0.210400  1
  H  H1940  1  0.851000  0.530900  0.710400  1
  H  H1941  1  0.530900  0.851000  0.289600  1
  H  H1942  1  0.469100  0.149000  0.789600  1
  H  H1943  1  0.351000  0.969100  0.039600  1
  H  H1944  1  0.649000  0.030900  0.539600  1
  H  H1945  1  0.006500  0.349700  0.993300  1
  H  H1946  1  0.993500  0.650300  0.493300  1
  H  H1947  1  0.150300  0.506500  0.243300  1
  H  H1948  1  0.849700  0.493500  0.743300  1
  H  H1949  1  0.493500  0.849700  0.256700  1
  H  H1950  1  0.506500  0.150300  0.756700  1
  H  H1951  1  0.349700  0.006500  0.006700  1
  H  H1952  1  0.650300  0.993500  0.506700  1
  H  H1953  1  0.002500  0.258800  0.996100  1
  H  H1954  1  0.997500  0.741200  0.496100  1
  H  H1955  1  0.241200  0.502500  0.246100  1
  H  H1956  1  0.758800  0.497500  0.746100  1
  H  H1957  1  0.497500  0.758800  0.253900  1
  H  H1958  1  0.502500  0.241200  0.753900  1
  H  H1959  1  0.258800  0.002500  0.003900  1
  H  H1960  1  0.741200  0.997500  0.503900  1
  H  H1961  1  0.959700  0.260100  0.970400  1
  H  H1962  1  0.040300  0.739900  0.470400  1
  H  H1963  1  0.239900  0.459700  0.220400  1
  H  H1964  1  0.760100  0.540300  0.720400  1
  H  H1965  1  0.540300  0.760100  0.279600  1
  H  H1966  1  0.459700  0.239900  0.779600  1
  H  H1967  1  0.260100  0.959700  0.029600  1
  H  H1968  1  0.739900  0.040300  0.529600  1
  H  H1969  1  0.043000  0.322800  0.019000  1
  H  H1970  1  0.957000  0.677200  0.519000  1
  H  H1971  1  0.177200  0.543000  0.269000  1
  H  H1972  1  0.822800  0.457000  0.769000  1
  H  H1973  1  0.457000  0.822800  0.231000  1
  H  H1974  1  0.543000  0.177200  0.731000  1
  H  H1975  1  0.322800  0.043000  0.981000  1
  H  H1976  1  0.677200  0.957000  0.481000  1
  H  H1977  1  0.043600  0.286500  0.017300  1
  H  H1978  1  0.956400  0.713500  0.517300  1
  H  H1979  1  0.213500  0.543600  0.267300  1
  H  H1980  1  0.786500  0.456400  0.767300  1
  H  H1981  1  0.456400  0.786500  0.232700  1
  H  H1982  1  0.543600  0.213500  0.732700  1
  H  H1983  1  0.286500  0.043600  0.982700  1
  H  H1984  1  0.713500  0.956400  0.482700  1
  H  H1985  1  0.020500  0.303000  0.035300  1
  H  H1986  1  0.979500  0.697000  0.535300  1
  H  H1987  1  0.197000  0.520500  0.285300  1
  H  H1988  1  0.803000  0.479500  0.785300  1
  H  H1989  1  0.479500  0.803000  0.214700  1
  H  H1990  1  0.520500  0.197000  0.714700  1
  H  H1991  1  0.303000  0.020500  0.964700  1
  H  H1992  1  0.697000  0.979500  0.464700  1
  H  H1993  1  0.805400  0.302600  0.831300  1
  H  H1994  1  0.194600  0.697400  0.331300  1
  H  H1995  1  0.197400  0.305400  0.081300  1
  H  H1996  1  0.802600  0.694600  0.581300  1
  H  H1997  1  0.694600  0.802600  0.418700  1
  H  H1998  1  0.305400  0.197400  0.918700  1
  H  H1999  1  0.302600  0.805400  0.168700  1
  H  H2000  1  0.697400  0.194600  0.668700  1
  H  H2001  1  0.838100  0.338000  0.820500  1
  H  H2002  1  0.161900  0.662000  0.320500  1
  H  H2003  1  0.162000  0.338100  0.070500  1
  H  H2004  1  0.838000  0.661900  0.570500  1
  H  H2005  1  0.661900  0.838000  0.429500  1
  H  H2006  1  0.338100  0.162000  0.929500  1
  H  H2007  1  0.338000  0.838100  0.179500  1
  H  H2008  1  0.662000  0.161900  0.679500  1
  H  H2009  1  0.771300  0.388300  0.785400  1
  H  H2010  1  0.228700  0.611700  0.285400  1
  H  H2011  1  0.111700  0.271300  0.035400  1
  H  H2012  1  0.888300  0.728700  0.535400  1
  H  H2013  1  0.728700  0.888300  0.464600  1
  H  H2014  1  0.271300  0.111700  0.964600  1
  H  H2015  1  0.388300  0.771300  0.214600  1
  H  H2016  1  0.611700  0.228700  0.714600  1
  H  H2017  1  0.733900  0.354900  0.801000  1
  H  H2018  1  0.266100  0.645100  0.301000  1
  H  H2019  1  0.145100  0.233900  0.051000  1
  H  H2020  1  0.854900  0.766100  0.551000  1
  H  H2021  1  0.766100  0.854900  0.449000  1
  H  H2022  1  0.233900  0.145100  0.949000  1
  H  H2023  1  0.354900  0.733900  0.199000  1
  H  H2024  1  0.645100  0.266100  0.699000  1
  H  H2025  1  0.830300  0.405700  0.783900  1
  H  H2026  1  0.169700  0.594300  0.283900  1
  H  H2027  1  0.094300  0.330300  0.033900  1
  H  H2028  1  0.905700  0.669700  0.533900  1
  H  H2029  1  0.669700  0.905700  0.466100  1
  H  H2030  1  0.330300  0.094300  0.966100  1
  H  H2031  1  0.405700  0.830300  0.216100  1
  H  H2032  1  0.594300  0.169700  0.716100  1
  H  H2033  1  0.853900  0.388100  0.800900  1
  H  H2034  1  0.146100  0.611900  0.300900  1
  H  H2035  1  0.111900  0.353900  0.050900  1
  H  H2036  1  0.888100  0.646100  0.550900  1
  H  H2037  1  0.646100  0.888100  0.449100  1
  H  H2038  1  0.353900  0.111900  0.949100  1
  H  H2039  1  0.388100  0.853900  0.199100  1
  H  H2040  1  0.611900  0.146100  0.699100  1
  H  H2041  1  0.831300  0.412700  0.812300  1
  H  H2042  1  0.168700  0.587300  0.312300  1
  H  H2043  1  0.087300  0.331300  0.062300  1
  H  H2044  1  0.912700  0.668700  0.562300  1
  H  H2045  1  0.668700  0.912700  0.437700  1
  H  H2046  1  0.331300  0.087300  0.937700  1
  H  H2047  1  0.412700  0.831300  0.187700  1
  H  H2048  1  0.587300  0.168700  0.687700  1
  H  H2049  1  0.723500  0.298200  0.794000  1
  H  H2050  1  0.276500  0.701800  0.294000  1
  H  H2051  1  0.201800  0.223500  0.044000  1
  H  H2052  1  0.798200  0.776500  0.544000  1
  H  H2053  1  0.776500  0.798200  0.456000  1
  H  H2054  1  0.223500  0.201800  0.956000  1
  H  H2055  1  0.298200  0.723500  0.206000  1
  H  H2056  1  0.701800  0.276500  0.706000  1
  H  H2057  1  0.681200  0.248400  0.874200  1
  H  H2058  1  0.318800  0.751600  0.374200  1
  H  H2059  1  0.251600  0.181200  0.124200  1
  H  H2060  1  0.748400  0.818800  0.624200  1
  H  H2061  1  0.818800  0.748400  0.375800  1
  H  H2062  1  0.181200  0.251600  0.875800  1
  H  H2063  1  0.248400  0.681200  0.125800  1
  H  H2064  1  0.751600  0.318800  0.625800  1
  H  H2065  1  0.640300  0.229600  0.810100  1
  H  H2066  1  0.359700  0.770400  0.310100  1
  H  H2067  1  0.270400  0.140300  0.060100  1
  H  H2068  1  0.729600  0.859700  0.560100  1
  H  H2069  1  0.859700  0.729600  0.439900  1
  H  H2070  1  0.140300  0.270400  0.939900  1
  H  H2071  1  0.229600  0.640300  0.189900  1
  H  H2072  1  0.770400  0.359700  0.689900  1
  H  H2073  1  0.673600  0.265200  0.791000  1
  H  H2074  1  0.326400  0.734800  0.291000  1
  H  H2075  1  0.234800  0.173600  0.041000  1
  H  H2076  1  0.765200  0.826400  0.541000  1
  H  H2077  1  0.826400  0.765200  0.459000  1
  H  H2078  1  0.173600  0.234800  0.959000  1
  H  H2079  1  0.265200  0.673600  0.209000  1
  H  H2080  1  0.734800  0.326400  0.709000  1
  H  H2081  1  0.664100  0.189400  0.874800  1
  H  H2082  1  0.335900  0.810600  0.374800  1
  H  H2083  1  0.310600  0.164100  0.124800  1
  H  H2084  1  0.689400  0.835900  0.624800  1
  H  H2085  1  0.835900  0.689400  0.375200  1
  H  H2086  1  0.164100  0.310600  0.875200  1
  H  H2087  1  0.189400  0.664100  0.125200  1
  H  H2088  1  0.810600  0.335900  0.625200  1
  H  H2089  1  0.560000  0.207400  0.864500  1
  H  H2090  1  0.440000  0.792600  0.364500  1
  H  H2091  1  0.292600  0.060000  0.114500  1
  H  H2092  1  0.707400  0.940000  0.614500  1
  H  H2093  1  0.940000  0.707400  0.385500  1
  H  H2094  1  0.060000  0.292600  0.885500  1
  H  H2095  1  0.207400  0.560000  0.135500  1
  H  H2096  1  0.792600  0.440000  0.635500  1
  H  H2097  1  0.594200  0.237800  0.843500  1
  H  H2098  1  0.405800  0.762200  0.343500  1
  H  H2099  1  0.262200  0.094200  0.093500  1
  H  H2100  1  0.737800  0.905800  0.593500  1
  H  H2101  1  0.905800  0.737800  0.406500  1
  H  H2102  1  0.094200  0.262200  0.906500  1
  H  H2103  1  0.237800  0.594200  0.156500  1
  H  H2104  1  0.762200  0.405800  0.656500  1
  H  H2105  1  0.550800  0.162300  0.892400  1
  H  H2106  1  0.449200  0.837700  0.392400  1
  H  H2107  1  0.337700  0.050800  0.142400  1
  H  H2108  1  0.662300  0.949200  0.642400  1
  H  H2109  1  0.949200  0.662300  0.357600  1
  H  H2110  1  0.050800  0.337700  0.857600  1
  H  H2111  1  0.162300  0.550800  0.107600  1
  H  H2112  1  0.837700  0.449200  0.607600  1
  H  H2113  1  0.590200  0.118200  0.951600  1
  H  H2114  1  0.409800  0.881800  0.451600  1
  H  H2115  1  0.381800  0.090200  0.201600  1
  H  H2116  1  0.618200  0.909800  0.701600  1
  H  H2117  1  0.909800  0.618200  0.298400  1
  H  H2118  1  0.090200  0.381800  0.798400  1
  H  H2119  1  0.118200  0.590200  0.048400  1
  H  H2120  1  0.881800  0.409800  0.548400  1
  H  H2121  1  0.558500  0.080600  0.972400  1
  H  H2122  1  0.441500  0.919400  0.472400  1
  H  H2123  1  0.419400  0.058500  0.222400  1
  H  H2124  1  0.580600  0.941500  0.722400  1
  H  H2125  1  0.941500  0.580600  0.277600  1
  H  H2126  1  0.058500  0.419400  0.777600  1
  H  H2127  1  0.080600  0.558500  0.027600  1
  H  H2128  1  0.919400  0.441500  0.527600  1
  H  H2129  1  0.502900  0.075600  0.915900  1
  H  H2130  1  0.497100  0.924400  0.415900  1
  H  H2131  1  0.424400  0.002900  0.165900  1
  H  H2132  1  0.575600  0.997100  0.665900  1
  H  H2133  1  0.997100  0.575600  0.334100  1
  H  H2134  1  0.002900  0.424400  0.834100  1
  H  H2135  1  0.075600  0.502900  0.084100  1
  H  H2136  1  0.924400  0.497100  0.584100  1
  H  H2137  1  0.536500  0.106100  0.890900  1
  H  H2138  1  0.463500  0.893900  0.390900  1
  H  H2139  1  0.393900  0.036500  0.140900  1
  H  H2140  1  0.606100  0.963500  0.640900  1
  H  H2141  1  0.963500  0.606100  0.359100  1
  H  H2142  1  0.036500  0.393900  0.859100  1
  H  H2143  1  0.106100  0.536500  0.109100  1
  H  H2144  1  0.893900  0.463500  0.609100  1
  H  H2145  1  0.500600  0.064300  0.973600  1
  H  H2146  1  0.499400  0.935700  0.473600  1
  H  H2147  1  0.435700  0.000600  0.223600  1
  H  H2148  1  0.564300  0.999400  0.723600  1
  H  H2149  1  0.999400  0.564300  0.276400  1
  H  H2150  1  0.000600  0.435700  0.776400  1
  H  H2151  1  0.064300  0.500600  0.026400  1
  H  H2152  1  0.935700  0.499400  0.526400  1
  H  H2153  1  0.522300  0.035800  0.965800  1
  H  H2154  1  0.477700  0.964200  0.465800  1
  H  H2155  1  0.464200  0.022300  0.215800  1
  H  H2156  1  0.535800  0.977700  0.715800  1
  H  H2157  1  0.977700  0.535800  0.284200  1
  H  H2158  1  0.022300  0.464200  0.784200  1
  H  H2159  1  0.035800  0.522300  0.034200  1
  H  H2160  1  0.964200  0.477700  0.534200  1
  H  H2161  1  0.492500  0.044300  0.949600  1
  H  H2162  1  0.507500  0.955700  0.449600  1
  H  H2163  1  0.455700  0.992500  0.199600  1
  H  H2164  1  0.544300  0.007500  0.699600  1
  H  H2165  1  0.007500  0.544300  0.300400  1
  H  H2166  1  0.992500  0.455700  0.800400  1
  H  H2167  1  0.044300  0.492500  0.050400  1
  H  H2168  1  0.955700  0.507500  0.550400  1
  H  H2169  1  0.839000  0.355800  0.956200  1
  H  H2170  1  0.161000  0.644200  0.456200  1
  H  H2171  1  0.144200  0.339000  0.206200  1
  H  H2172  1  0.855800  0.661000  0.706200  1
  H  H2173  1  0.661000  0.855800  0.293800  1
  H  H2174  1  0.339000  0.144200  0.793800  1
  H  H2175  1  0.355800  0.839000  0.043800  1
  H  H2176  1  0.644200  0.161000  0.543800  1
  H  H2177  1  0.826600  0.401000  0.935000  1
  H  H2178  1  0.173400  0.599000  0.435000  1
  H  H2179  1  0.099000  0.326600  0.185000  1
  H  H2180  1  0.901000  0.673400  0.685000  1
  H  H2181  1  0.673400  0.901000  0.315000  1
  H  H2182  1  0.326600  0.099000  0.815000  1
  H  H2183  1  0.401000  0.826600  0.065000  1
  H  H2184  1  0.599000  0.173400  0.565000  1
  H  H2185  1  0.910000  0.435900  0.953500  1
  H  H2186  1  0.090000  0.564100  0.453500  1
  H  H2187  1  0.064100  0.410000  0.203500  1
  H  H2188  1  0.935900  0.590000  0.703500  1
  H  H2189  1  0.590000  0.935900  0.296500  1
  H  H2190  1  0.410000  0.064100  0.796500  1
  H  H2191  1  0.435900  0.910000  0.046500  1
  H  H2192  1  0.564100  0.090000  0.546500  1
  H  H2193  1  0.926000  0.388800  0.969100  1
  H  H2194  1  0.074000  0.611200  0.469100  1
  H  H2195  1  0.111200  0.426000  0.219100  1
  H  H2196  1  0.888800  0.574000  0.719100  1
  H  H2197  1  0.574000  0.888800  0.280900  1
  H  H2198  1  0.426000  0.111200  0.780900  1
  H  H2199  1  0.388800  0.926000  0.030900  1
  H  H2200  1  0.611200  0.074000  0.530900  1
  H  H2201  1  0.838800  0.461200  0.932800  1
  H  H2202  1  0.161200  0.538800  0.432800  1
  H  H2203  1  0.038800  0.338800  0.182800  1
  H  H2204  1  0.961200  0.661200  0.682800  1
  H  H2205  1  0.661200  0.961200  0.317200  1
  H  H2206  1  0.338800  0.038800  0.817200  1
  H  H2207  1  0.461200  0.838800  0.067200  1
  H  H2208  1  0.538800  0.161200  0.567200  1
  H  H2209  1  0.859200  0.450800  0.909600  1
  H  H2210  1  0.140800  0.549200  0.409600  1
  H  H2211  1  0.049200  0.359200  0.159600  1
  H  H2212  1  0.950800  0.640800  0.659600  1
  H  H2213  1  0.640800  0.950800  0.340400  1
  H  H2214  1  0.359200  0.049200  0.840400  1
  H  H2215  1  0.450800  0.859200  0.090400  1
  H  H2216  1  0.549200  0.140800  0.590400  1
  H  H2217  1  0.874500  0.470900  0.931200  1
  H  H2218  1  0.125500  0.529100  0.431200  1
  H  H2219  1  0.029100  0.374500  0.181200  1
  H  H2220  1  0.970900  0.625500  0.681200  1
  H  H2221  1  0.625500  0.970900  0.318800  1
  H  H2222  1  0.374500  0.029100  0.818800  1
  H  H2223  1  0.470900  0.874500  0.068800  1
  H  H2224  1  0.529100  0.125500  0.568800  1
  H  H2225  1  0.906900  0.359800  0.006400  1
  H  H2226  1  0.093100  0.640200  0.506400  1
  H  H2227  1  0.140200  0.406900  0.256400  1
  H  H2228  1  0.859800  0.593100  0.756400  1
  H  H2229  1  0.593100  0.859800  0.243600  1
  H  H2230  1  0.406900  0.140200  0.743600  1
  H  H2231  1  0.359800  0.906900  0.993600  1
  H  H2232  1  0.640200  0.093100  0.493600  1
  H  H2233  1  0.901400  0.239200  0.995100  1
  H  H2234  1  0.098600  0.760800  0.495100  1
  H  H2235  1  0.260800  0.401400  0.245100  1
  H  H2236  1  0.739200  0.598600  0.745100  1
  H  H2237  1  0.598600  0.739200  0.254900  1
  H  H2238  1  0.401400  0.260800  0.754900  1
  H  H2239  1  0.239200  0.901400  0.004900  1
  H  H2240  1  0.760800  0.098600  0.504900  1
  H  H2241  1  0.945600  0.274900  0.054400  1
  H  H2242  1  0.054400  0.725100  0.554400  1
  H  H2243  1  0.225100  0.445600  0.304400  1
  H  H2244  1  0.774900  0.554400  0.804400  1
  H  H2245  1  0.554400  0.774900  0.195600  1
  H  H2246  1  0.445600  0.225100  0.695600  1
  H  H2247  1  0.274900  0.945600  0.945600  1
  H  H2248  1  0.725100  0.054400  0.445600  1
  H  H2249  1  0.938700  0.324700  0.037100  1
  H  H2250  1  0.061300  0.675300  0.537100  1
  H  H2251  1  0.175300  0.438700  0.287100  1
  H  H2252  1  0.824700  0.561300  0.787100  1
  H  H2253  1  0.561300  0.824700  0.212900  1
  H  H2254  1  0.438700  0.175300  0.712900  1
  H  H2255  1  0.324700  0.938700  0.962900  1
  H  H2256  1  0.675300  0.061300  0.462900  1
  H  H2257  1  0.886300  0.205600  0.030700  1
  H  H2258  1  0.113700  0.794400  0.530700  1
  H  H2259  1  0.294400  0.386300  0.280700  1
  H  H2260  1  0.705600  0.613700  0.780700  1
  H  H2261  1  0.613700  0.705600  0.219300  1
  H  H2262  1  0.386300  0.294400  0.719300  1
  H  H2263  1  0.205600  0.886300  0.969300  1
  H  H2264  1  0.794400  0.113700  0.469300  1
  H  H2265  1  0.985400  0.175800  0.055400  1
  H  H2266  1  0.014600  0.824200  0.555400  1
  H  H2267  1  0.324200  0.485400  0.305400  1
  H  H2268  1  0.675800  0.514600  0.805400  1
  H  H2269  1  0.514600  0.675800  0.194600  1
  H  H2270  1  0.485400  0.324200  0.694600  1
  H  H2271  1  0.175800  0.985400  0.944600  1
  H  H2272  1  0.824200  0.014600  0.444600  1
  H  H2273  1  0.976900  0.224300  0.043400  1
  H  H2274  1  0.023100  0.775700  0.543400  1
  H  H2275  1  0.275700  0.476900  0.293400  1
  H  H2276  1  0.724300  0.523100  0.793400  1
  H  H2277  1  0.523100  0.724300  0.206600  1
  H  H2278  1  0.476900  0.275700  0.706600  1
  H  H2279  1  0.224300  0.976900  0.956600  1
  H  H2280  1  0.775700  0.023100  0.456600  1
  H  H2281  1  0.962700  0.123400  0.065100  1
  H  H2282  1  0.037300  0.876600  0.565100  1
  H  H2283  1  0.376600  0.462700  0.315100  1
  H  H2284  1  0.623400  0.537300  0.815100  1
  H  H2285  1  0.537300  0.623400  0.184900  1
  H  H2286  1  0.462700  0.376600  0.684900  1
  H  H2287  1  0.123400  0.962700  0.934900  1
  H  H2288  1  0.876600  0.037300  0.434900  1
  H  H2289  1  0.890400  0.064900  0.046600  1
  H  H2290  1  0.109600  0.935100  0.546600  1
  H  H2291  1  0.435100  0.390400  0.296600  1
  H  H2292  1  0.564900  0.609600  0.796600  1
  H  H2293  1  0.609600  0.564900  0.203400  1
  H  H2294  1  0.390400  0.435100  0.703400  1
  H  H2295  1  0.064900  0.890400  0.953400  1
  H  H2296  1  0.935100  0.109600  0.453400  1
  H  H2297  1  0.889100  0.016300  0.065600  1
  H  H2298  1  0.110900  0.983700  0.565600  1
  H  H2299  1  0.483700  0.389100  0.315600  1
  H  H2300  1  0.516300  0.610900  0.815600  1
  H  H2301  1  0.610900  0.516300  0.184400  1
  H  H2302  1  0.389100  0.483700  0.684400  1
  H  H2303  1  0.016300  0.889100  0.934400  1
  H  H2304  1  0.983700  0.110900  0.434400  1
  H  H2305  1  0.943900  0.048700  0.120700  1
  H  H2306  1  0.056100  0.951300  0.620700  1
  H  H2307  1  0.451300  0.443900  0.370700  1
  H  H2308  1  0.548700  0.556100  0.870700  1
  H  H2309  1  0.556100  0.548700  0.129300  1
  H  H2310  1  0.443900  0.451300  0.629300  1
  H  H2311  1  0.048700  0.943900  0.879300  1
  H  H2312  1  0.951300  0.056100  0.379300  1
  H  H2313  1  0.945200  0.097300  0.101600  1
  H  H2314  1  0.054800  0.902700  0.601600  1
  H  H2315  1  0.402700  0.445200  0.351600  1
  H  H2316  1  0.597300  0.554800  0.851600  1
  H  H2317  1  0.554800  0.597300  0.148400  1
  H  H2318  1  0.445200  0.402700  0.648400  1
  H  H2319  1  0.097300  0.945200  0.898400  1
  H  H2320  1  0.902700  0.054800  0.398400  1
  H  H2321  1  0.899700  0.986100  0.110600  1
  H  H2322  1  0.100300  0.013900  0.610600  1
  H  H2323  1  0.513900  0.399700  0.360600  1
  H  H2324  1  0.486100  0.600300  0.860600  1
  H  H2325  1  0.600300  0.486100  0.139400  1
  H  H2326  1  0.399700  0.513900  0.639400  1
  H  H2327  1  0.986100  0.899700  0.889400  1
  H  H2328  1  0.013900  0.100300  0.389400  1
  H  H2329  1  0.934000  0.994200  0.119700  1
  H  H2330  1  0.066000  0.005800  0.619700  1
  H  H2331  1  0.505800  0.434000  0.369700  1
  H  H2332  1  0.494200  0.566000  0.869700  1
  H  H2333  1  0.566000  0.494200  0.130300  1
  H  H2334  1  0.434000  0.505800  0.630300  1
  H  H2335  1  0.994200  0.934000  0.880300  1
  H  H2336  1  0.005800  0.066000  0.380300  1
  H  H2337  1  0.928600  0.980400  0.092600  1
  H  H2338  1  0.071400  0.019600  0.592600  1
  H  H2339  1  0.519600  0.428600  0.342600  1
  H  H2340  1  0.480400  0.571400  0.842600  1
  H  H2341  1  0.571400  0.480400  0.157400  1
  H  H2342  1  0.428600  0.519600  0.657400  1
  H  H2343  1  0.980400  0.928600  0.907400  1
  H  H2344  1  0.019600  0.071400  0.407400  1
  H  H2345  1  0.879600  0.216000  0.082400  1
  H  H2346  1  0.120400  0.784000  0.582400  1
  H  H2347  1  0.284000  0.379600  0.332400  1
  H  H2348  1  0.716000  0.620400  0.832400  1
  H  H2349  1  0.620400  0.716000  0.167600  1
  H  H2350  1  0.379600  0.284000  0.667600  1
  H  H2351  1  0.216000  0.879600  0.917600  1
  H  H2352  1  0.784000  0.120400  0.417600  1
  H  H2353  1  0.914200  0.253200  0.095900  1
  H  H2354  1  0.085800  0.746800  0.595900  1
  H  H2355  1  0.246800  0.414200  0.345900  1
  H  H2356  1  0.753200  0.585800  0.845900  1
  H  H2357  1  0.585800  0.753200  0.154100  1
  H  H2358  1  0.414200  0.246800  0.654100  1
  H  H2359  1  0.253200  0.914200  0.904100  1
  H  H2360  1  0.746800  0.085800  0.404100  1
  H  H2361  1  0.971500  0.190800  0.125100  1
  H  H2362  1  0.028500  0.809200  0.625100  1
  H  H2363  1  0.309200  0.471500  0.375100  1
  H  H2364  1  0.690800  0.528500  0.875100  1
  H  H2365  1  0.528500  0.690800  0.124900  1
  H  H2366  1  0.471500  0.309200  0.624900  1
  H  H2367  1  0.190800  0.971500  0.874900  1
  H  H2368  1  0.809200  0.028500  0.374900  1
  H  H2369  1  0.930800  0.153500  0.121300  1
  H  H2370  1  0.069200  0.846500  0.621300  1
  H  H2371  1  0.346500  0.430800  0.371300  1
  H  H2372  1  0.653500  0.569200  0.871300  1
  H  H2373  1  0.569200  0.653500  0.128700  1
  H  H2374  1  0.430800  0.346500  0.628700  1
  H  H2375  1  0.153500  0.930800  0.878700  1
  H  H2376  1  0.846500  0.069200  0.378700  1
  H  H2377  1  0.971300  0.256400  0.131200  1
  H  H2378  1  0.028700  0.743600  0.631200  1
  H  H2379  1  0.243600  0.471300  0.381200  1
  H  H2380  1  0.756400  0.528700  0.881200  1
  H  H2381  1  0.528700  0.756400  0.118800  1
  H  H2382  1  0.471300  0.243600  0.618800  1
  H  H2383  1  0.256400  0.971300  0.868800  1
  H  H2384  1  0.743600  0.028700  0.368800  1
  H  H2385  1  0.963600  0.268700  0.104000  1
  H  H2386  1  0.036400  0.731300  0.604000  1
  H  H2387  1  0.231300  0.463600  0.354000  1
  H  H2388  1  0.768700  0.536400  0.854000  1
  H  H2389  1  0.536400  0.768700  0.146000  1
  H  H2390  1  0.463600  0.231300  0.646000  1
  H  H2391  1  0.268700  0.963600  0.896000  1
  H  H2392  1  0.731300  0.036400  0.396000  1
  H  H2393  1  0.990000  0.243100  0.108000  1
  H  H2394  1  0.010000  0.756900  0.608000  1
  H  H2395  1  0.256900  0.490000  0.358000  1
  H  H2396  1  0.743100  0.510000  0.858000  1
  H  H2397  1  0.510000  0.743100  0.142000  1
  H  H2398  1  0.490000  0.256900  0.642000  1
  H  H2399  1  0.243100  0.990000  0.892000  1
  H  H2400  1  0.756900  0.010000  0.392000  1
  H  H2401  1  0.878300  0.138600  0.122400  1
  H  H2402  1  0.121700  0.861400  0.622400  1
  H  H2403  1  0.361400  0.378300  0.372400  1
  H  H2404  1  0.638600  0.621700  0.872400  1
  H  H2405  1  0.621700  0.638600  0.127600  1
  H  H2406  1  0.378300  0.361400  0.627600  1
  H  H2407  1  0.138600  0.878300  0.877600  1
  H  H2408  1  0.861400  0.121700  0.377600  1
  H  H2409  1  0.828400  0.092100  0.042900  1
  H  H2410  1  0.171600  0.907900  0.542900  1
  H  H2411  1  0.407900  0.328400  0.292900  1
  H  H2412  1  0.592100  0.671600  0.792900  1
  H  H2413  1  0.671600  0.592100  0.207100  1
  H  H2414  1  0.328400  0.407900  0.707100  1
  H  H2415  1  0.092100  0.828400  0.957100  1
  H  H2416  1  0.907900  0.171600  0.457100  1
  H  H2417  1  0.810000  0.050300  0.108200  1
  H  H2418  1  0.190000  0.949700  0.608200  1
  H  H2419  1  0.449700  0.310000  0.358200  1
  H  H2420  1  0.550300  0.690000  0.858200  1
  H  H2421  1  0.690000  0.550300  0.141800  1
  H  H2422  1  0.310000  0.449700  0.641800  1
  H  H2423  1  0.050300  0.810000  0.891800  1
  H  H2424  1  0.949700  0.190000  0.391800  1
  H  H2425  1  0.843900  0.086600  0.126700  1
  H  H2426  1  0.156100  0.913400  0.626700  1
  H  H2427  1  0.413400  0.343900  0.376700  1
  H  H2428  1  0.586600  0.656100  0.876700  1
  H  H2429  1  0.656100  0.586600  0.123300  1
  H  H2430  1  0.343900  0.413400  0.623300  1
  H  H2431  1  0.086600  0.843900  0.873300  1
  H  H2432  1  0.913400  0.156100  0.373300  1
  H  H2433  1  0.770000  0.073200  0.044400  1
  H  H2434  1  0.230000  0.926800  0.544400  1
  H  H2435  1  0.426800  0.270000  0.294400  1
  H  H2436  1  0.573200  0.730000  0.794400  1
  H  H2437  1  0.730000  0.573200  0.205600  1
  H  H2438  1  0.270000  0.426800  0.705600  1
  H  H2439  1  0.073200  0.770000  0.955600  1
  H  H2440  1  0.926800  0.230000  0.455600  1
  H  H2441  1  0.780700  0.969900  0.062200  1
  H  H2442  1  0.219300  0.030100  0.562200  1
  H  H2443  1  0.530100  0.280700  0.312200  1
  H  H2444  1  0.469900  0.719300  0.812200  1
  H  H2445  1  0.719300  0.469900  0.187800  1
  H  H2446  1  0.280700  0.530100  0.687800  1
  H  H2447  1  0.969900  0.780700  0.937800  1
  H  H2448  1  0.030100  0.219300  0.437800  1
  H  H2449  1  0.822400  0.004400  0.074300  1
  H  H2450  1  0.177600  0.995600  0.574300  1
  H  H2451  1  0.495600  0.322400  0.324300  1
  H  H2452  1  0.504400  0.677600  0.824300  1
  H  H2453  1  0.677600  0.504400  0.175700  1
  H  H2454  1  0.322400  0.495600  0.675700  1
  H  H2455  1  0.004400  0.822400  0.925700  1
  H  H2456  1  0.995600  0.177600  0.425700  1
  H  H2457  1  0.736000  0.959100  0.033700  1
  H  H2458  1  0.264000  0.040900  0.533700  1
  H  H2459  1  0.540900  0.236000  0.283700  1
  H  H2460  1  0.459100  0.764000  0.783700  1
  H  H2461  1  0.764000  0.459100  0.216300  1
  H  H2462  1  0.236000  0.540900  0.716300  1
  H  H2463  1  0.959100  0.736000  0.966300  1
  H  H2464  1  0.040900  0.264000  0.466300  1
  H  H2465  1  0.694900  0.986900  0.973500  1
  H  H2466  1  0.305100  0.013100  0.473500  1
  H  H2467  1  0.513100  0.194900  0.223500  1
  H  H2468  1  0.486900  0.805100  0.723500  1
  H  H2469  1  0.805100  0.486900  0.276500  1
  H  H2470  1  0.194900  0.513100  0.776500  1
  H  H2471  1  0.986900  0.694900  0.026500  1
  H  H2472  1  0.013100  0.305100  0.526500  1
  H  H2473  1  0.653300  0.958100  0.957500  1
  H  H2474  1  0.346700  0.041900  0.457500  1
  H  H2475  1  0.541900  0.153300  0.207500  1
  H  H2476  1  0.458100  0.846700  0.707500  1
  H  H2477  1  0.846700  0.458100  0.292500  1
  H  H2478  1  0.153300  0.541900  0.792500  1
  H  H2479  1  0.958100  0.653300  0.042500  1
  H  H2480  1  0.041900  0.346700  0.542500  1
  H  H2481  1  0.644700  0.918200  0.023500  1
  H  H2482  1  0.355300  0.081800  0.523500  1
  H  H2483  1  0.581800  0.144700  0.273500  1
  H  H2484  1  0.418200  0.855300  0.773500  1
  H  H2485  1  0.855300  0.418200  0.226500  1
  H  H2486  1  0.144700  0.581800  0.726500  1
  H  H2487  1  0.918200  0.644700  0.976500  1
  H  H2488  1  0.081800  0.355300  0.476500  1
  H  H2489  1  0.688000  0.951100  0.039600  1
  H  H2490  1  0.312000  0.048900  0.539600  1
  H  H2491  1  0.548900  0.188000  0.289600  1
  H  H2492  1  0.451100  0.812000  0.789600  1
  H  H2493  1  0.812000  0.451100  0.210400  1
  H  H2494  1  0.188000  0.548900  0.710400  1
  H  H2495  1  0.951100  0.688000  0.960400  1
  H  H2496  1  0.048900  0.312000  0.460400  1
  H  H2497  1  0.601100  0.923800  0.990700  1
  H  H2498  1  0.398900  0.076200  0.490700  1
  H  H2499  1  0.576200  0.101100  0.240700  1
  H  H2500  1  0.423800  0.898900  0.740700  1
  H  H2501  1  0.898900  0.423800  0.259300  1
  H  H2502  1  0.101100  0.576200  0.759300  1
  H  H2503  1  0.923800  0.601100  0.009300  1
  H  H2504  1  0.076200  0.398900  0.509300  1
  H  H2505  1  0.625000  0.895500  0.990400  1
  H  H2506  1  0.375000  0.104500  0.490400  1
  H  H2507  1  0.604500  0.125000  0.240400  1
  H  H2508  1  0.395500  0.875000  0.740400  1
  H  H2509  1  0.875000  0.395500  0.259600  1
  H  H2510  1  0.125000  0.604500  0.759600  1
  H  H2511  1  0.895500  0.625000  0.009600  1
  H  H2512  1  0.104500  0.375000  0.509600  1
  H  H2513  1  0.617800  0.914000  0.965500  1
  H  H2514  1  0.382200  0.086000  0.465500  1
  H  H2515  1  0.586000  0.117800  0.215500  1
  H  H2516  1  0.414000  0.882200  0.715500  1
  H  H2517  1  0.882200  0.414000  0.284500  1
  H  H2518  1  0.117800  0.586000  0.784500  1
  H  H2519  1  0.914000  0.617800  0.034500  1
  H  H2520  1  0.086000  0.382200  0.534500  1
  H  H2521  1  0.679100  0.985500  0.080600  1
  H  H2522  1  0.320900  0.014500  0.580600  1
  H  H2523  1  0.514500  0.179100  0.330600  1
  H  H2524  1  0.485500  0.820900  0.830600  1
  H  H2525  1  0.820900  0.485500  0.169400  1
  H  H2526  1  0.179100  0.514500  0.669400  1
  H  H2527  1  0.985500  0.679100  0.919400  1
  H  H2528  1  0.014500  0.320900  0.419400  1
  H  H2529  1  0.694400  0.979600  0.119400  1
  H  H2530  1  0.305600  0.020400  0.619400  1
  H  H2531  1  0.520400  0.194400  0.369400  1
  H  H2532  1  0.479600  0.805600  0.869400  1
  H  H2533  1  0.805600  0.479600  0.130600  1
  H  H2534  1  0.194400  0.520400  0.630600  1
  H  H2535  1  0.979600  0.694400  0.880600  1
  H  H2536  1  0.020400  0.305600  0.380600  1
  H  H2537  1  0.743400  0.060500  0.114700  1
  H  H2538  1  0.256600  0.939500  0.614700  1
  H  H2539  1  0.439500  0.243400  0.364700  1
  H  H2540  1  0.560500  0.756600  0.864700  1
  H  H2541  1  0.756600  0.560500  0.135300  1
  H  H2542  1  0.243400  0.439500  0.635300  1
  H  H2543  1  0.060500  0.743400  0.885300  1
  H  H2544  1  0.939500  0.256600  0.385300  1
  H  H2545  1  0.724400  0.067300  0.074900  1
  H  H2546  1  0.275600  0.932700  0.574900  1
  H  H2547  1  0.432700  0.224400  0.324900  1
  H  H2548  1  0.567300  0.775600  0.824900  1
  H  H2549  1  0.775600  0.567300  0.175100  1
  H  H2550  1  0.224400  0.432700  0.675100  1
  H  H2551  1  0.067300  0.724400  0.925100  1
  H  H2552  1  0.932700  0.275600  0.425100  1
  H  H2553  1  0.731200  0.991300  0.152200  1
  H  H2554  1  0.268800  0.008700  0.652200  1
  H  H2555  1  0.508700  0.231200  0.402200  1
  H  H2556  1  0.491300  0.768800  0.902200  1
  H  H2557  1  0.768800  0.491300  0.097800  1
  H  H2558  1  0.231200  0.508700  0.597800  1
  H  H2559  1  0.991300  0.731200  0.847800  1
  H  H2560  1  0.008700  0.268800  0.347800  1
  H  H2561  1  0.720200  0.025800  0.158600  1
  H  H2562  1  0.279800  0.974200  0.658600  1
  H  H2563  1  0.474200  0.220200  0.408600  1
  H  H2564  1  0.525800  0.779800  0.908600  1
  H  H2565  1  0.779800  0.525800  0.091400  1
  H  H2566  1  0.220200  0.474200  0.591400  1
  H  H2567  1  0.025800  0.720200  0.841400  1
  H  H2568  1  0.974200  0.279800  0.341400  1
  H  H2569  1  0.754800  0.019700  0.149300  1
  H  H2570  1  0.245200  0.980300  0.649300  1
  H  H2571  1  0.480300  0.254800  0.399300  1
  H  H2572  1  0.519700  0.745200  0.899300  1
  H  H2573  1  0.745200  0.519700  0.100700  1
  H  H2574  1  0.254800  0.480300  0.600700  1
  H  H2575  1  0.019700  0.754800  0.850700  1
  H  H2576  1  0.980300  0.245200  0.350700  1
  H  H2577  1  0.647800  0.019600  0.055300  1
  H  H2578  1  0.352200  0.980400  0.555300  1
  H  H2579  1  0.480400  0.147800  0.305300  1
  H  H2580  1  0.519600  0.852200  0.805300  1
  H  H2581  1  0.852200  0.519600  0.194700  1
  H  H2582  1  0.147800  0.480400  0.694700  1
  H  H2583  1  0.019600  0.647800  0.944700  1
  H  H2584  1  0.980400  0.352200  0.444700  1
  H  H2585  1  0.683500  0.059000  0.969200  1
  H  H2586  1  0.316500  0.941000  0.469200  1
  H  H2587  1  0.441000  0.183500  0.219200  1
  H  H2588  1  0.559000  0.816500  0.719200  1
  H  H2589  1  0.816500  0.559000  0.280800  1
  H  H2590  1  0.183500  0.441000  0.780800  1
  H  H2591  1  0.059000  0.683500  0.030800  1
  H  H2592  1  0.941000  0.316500  0.530800  1
  H  H2593  1  0.598000  0.023600  0.978200  1
  H  H2594  1  0.402000  0.976400  0.478200  1
  H  H2595  1  0.476400  0.098000  0.228200  1
  H  H2596  1  0.523600  0.902000  0.728200  1
  H  H2597  1  0.902000  0.523600  0.271800  1
  H  H2598  1  0.098000  0.476400  0.771800  1
  H  H2599  1  0.023600  0.598000  0.021800  1
  H  H2600  1  0.976400  0.402000  0.521800  1
  H  H2601  1  0.608100  0.018500  0.021300  1
  H  H2602  1  0.391900  0.981500  0.521300  1
  H  H2603  1  0.481500  0.108100  0.271300  1
  H  H2604  1  0.518500  0.891900  0.771300  1
  H  H2605  1  0.891900  0.518500  0.228700  1
  H  H2606  1  0.108100  0.481500  0.728700  1
  H  H2607  1  0.018500  0.608100  0.978700  1
  H  H2608  1  0.981500  0.391900  0.478700  1
  H  H2609  1  0.648500  0.097300  0.946800  1
  H  H2610  1  0.351500  0.902700  0.446800  1
  H  H2611  1  0.402700  0.148500  0.196800  1
  H  H2612  1  0.597300  0.851500  0.696800  1
  H  H2613  1  0.851500  0.597300  0.303200  1
  H  H2614  1  0.148500  0.402700  0.803200  1
  H  H2615  1  0.097300  0.648500  0.053200  1
  H  H2616  1  0.902700  0.351500  0.553200  1
  H  H2617  1  0.599800  0.028600  0.894000  1
  H  H2618  1  0.400200  0.971400  0.394000  1
  H  H2619  1  0.471400  0.099800  0.144000  1
  H  H2620  1  0.528600  0.900200  0.644000  1
  H  H2621  1  0.900200  0.528600  0.356000  1
  H  H2622  1  0.099800  0.471400  0.856000  1
  H  H2623  1  0.028600  0.599800  0.106000  1
  H  H2624  1  0.971400  0.400200  0.606000  1
  H  H2625  1  0.612400  0.012100  0.933200  1
  H  H2626  1  0.387600  0.987900  0.433200  1
  H  H2627  1  0.487900  0.112400  0.183200  1
  H  H2628  1  0.512100  0.887600  0.683200  1
  H  H2629  1  0.887600  0.512100  0.316800  1
  H  H2630  1  0.112400  0.487900  0.816800  1
  H  H2631  1  0.012100  0.612400  0.066800  1
  H  H2632  1  0.987900  0.387600  0.566800  1
  H  H2633  1  0.602200  0.072700  0.860700  1
  H  H2634  1  0.397800  0.927300  0.360700  1
  H  H2635  1  0.427300  0.102200  0.110700  1
  H  H2636  1  0.572700  0.897800  0.610700  1
  H  H2637  1  0.897800  0.572700  0.389300  1
  H  H2638  1  0.102200  0.427300  0.889300  1
  H  H2639  1  0.072700  0.602200  0.139300  1
  H  H2640  1  0.927300  0.397800  0.639300  1
  H  H2641  1  0.650200  0.134400  0.836100  1
  H  H2642  1  0.349800  0.865600  0.336100  1
  H  H2643  1  0.365600  0.150200  0.086100  1
  H  H2644  1  0.634400  0.849800  0.586100  1
  H  H2645  1  0.849800  0.634400  0.413900  1
  H  H2646  1  0.150200  0.365600  0.913900  1
  H  H2647  1  0.134400  0.650200  0.163900  1
  H  H2648  1  0.865600  0.349800  0.663900  1
  H  H2649  1  0.635100  0.168000  0.803500  1
  H  H2650  1  0.364900  0.832000  0.303500  1
  H  H2651  1  0.332000  0.135100  0.053500  1
  H  H2652  1  0.668000  0.864900  0.553500  1
  H  H2653  1  0.864900  0.668000  0.446500  1
  H  H2654  1  0.135100  0.332000  0.946500  1
  H  H2655  1  0.168000  0.635100  0.196500  1
  H  H2656  1  0.832000  0.364900  0.696500  1
  H  H2657  1  0.546000  0.142400  0.816900  1
  H  H2658  1  0.454000  0.857600  0.316900  1
  H  H2659  1  0.357600  0.046000  0.066900  1
  H  H2660  1  0.642400  0.954000  0.566900  1
  H  H2661  1  0.954000  0.642400  0.433100  1
  H  H2662  1  0.046000  0.357600  0.933100  1
  H  H2663  1  0.142400  0.546000  0.183100  1
  H  H2664  1  0.857600  0.454000  0.683100  1
  H  H2665  1  0.560400  0.116600  0.848900  1
  H  H2666  1  0.439600  0.883400  0.348900  1
  H  H2667  1  0.383400  0.060400  0.098900  1
  H  H2668  1  0.616600  0.939600  0.598900  1
  H  H2669  1  0.939600  0.616600  0.401100  1
  H  H2670  1  0.060400  0.383400  0.901100  1
  H  H2671  1  0.116600  0.560400  0.151100  1
  H  H2672  1  0.883400  0.439600  0.651100  1
  H  H2673  1  0.596100  0.184700  0.775100  1
  H  H2674  1  0.403900  0.815300  0.275100  1
  H  H2675  1  0.315300  0.096100  0.025100  1
  H  H2676  1  0.684700  0.903900  0.525100  1
  H  H2677  1  0.903900  0.684700  0.474900  1
  H  H2678  1  0.096100  0.315300  0.974900  1
  H  H2679  1  0.184700  0.596100  0.224900  1
  H  H2680  1  0.815300  0.403900  0.724900  1
  H  H2681  1  0.560100  0.179900  0.781000  1
  H  H2682  1  0.439900  0.820100  0.281000  1
  H  H2683  1  0.320100  0.060100  0.031000  1
  H  H2684  1  0.679900  0.939900  0.531000  1
  H  H2685  1  0.939900  0.679900  0.469000  1
  H  H2686  1  0.060100  0.320100  0.969000  1
  H  H2687  1  0.179900  0.560100  0.219000  1
  H  H2688  1  0.820100  0.439900  0.719000  1
  H  H2689  1  0.578700  0.154200  0.765700  1
  H  H2690  1  0.421300  0.845800  0.265700  1
  H  H2691  1  0.345800  0.078700  0.015700  1
  H  H2692  1  0.654200  0.921300  0.515700  1
  H  H2693  1  0.921300  0.654200  0.484300  1
  H  H2694  1  0.078700  0.345800  0.984300  1
  H  H2695  1  0.154200  0.578700  0.234300  1
  H  H2696  1  0.845800  0.421300  0.734300  1
  H  H2697  1  0.823800  0.201800  0.764200  1
  H  H2698  1  0.176200  0.798200  0.264200  1
  H  H2699  1  0.298200  0.323800  0.014200  1
  H  H2700  1  0.701800  0.676200  0.514200  1
  H  H2701  1  0.676200  0.701800  0.485800  1
  H  H2702  1  0.323800  0.298200  0.985800  1
  H  H2703  1  0.201800  0.823800  0.235800  1
  H  H2704  1  0.798200  0.176200  0.735800  1
  H  H2705  1  0.821900  0.169300  0.778200  1
  H  H2706  1  0.178100  0.830700  0.278200  1
  H  H2707  1  0.330700  0.321900  0.028200  1
  H  H2708  1  0.669300  0.678100  0.528200  1
  H  H2709  1  0.678100  0.669300  0.471800  1
  H  H2710  1  0.321900  0.330700  0.971800  1
  H  H2711  1  0.169300  0.821900  0.221800  1
  H  H2712  1  0.830700  0.178100  0.721800  1
  H  H2713  1  0.848400  0.193600  0.785300  1
  H  H2714  1  0.151600  0.806400  0.285300  1
  H  H2715  1  0.306400  0.348400  0.035300  1
  H  H2716  1  0.693600  0.651600  0.535300  1
  H  H2717  1  0.651600  0.693600  0.464700  1
  H  H2718  1  0.348400  0.306400  0.964700  1
  H  H2719  1  0.193600  0.848400  0.214700  1
  H  H2720  1  0.806400  0.151600  0.714700  1
  H  H2721  1  0.578500  0.279300  0.109200  1
  H  H2722  1  0.421500  0.720700  0.609200  1
  H  H2723  1  0.220700  0.078500  0.359200  1
  H  H2724  1  0.779300  0.921500  0.859200  1
  H  H2725  1  0.921500  0.779300  0.140800  1
  H  H2726  1  0.078500  0.220700  0.640800  1
  H  H2727  1  0.279300  0.578500  0.890800  1
  H  H2728  1  0.720700  0.421500  0.390800  1
  H  H2729  1  0.582400  0.253500  0.130200  1
  H  H2730  1  0.417600  0.746500  0.630200  1
  H  H2731  1  0.246500  0.082400  0.380200  1
  H  H2732  1  0.753500  0.917600  0.880200  1
  H  H2733  1  0.917600  0.753500  0.119800  1
  H  H2734  1  0.082400  0.246500  0.619800  1
  H  H2735  1  0.253500  0.582400  0.869800  1
  H  H2736  1  0.746500  0.417600  0.369800  1
  H  H2737  1  0.549100  0.259900  0.118200  1
  H  H2738  1  0.450900  0.740100  0.618200  1
  H  H2739  1  0.240100  0.049100  0.368200  1
  H  H2740  1  0.759900  0.950900  0.868200  1
  H  H2741  1  0.950900  0.759900  0.131800  1
  H  H2742  1  0.049100  0.240100  0.631800  1
  H  H2743  1  0.259900  0.549100  0.881800  1
  H  H2744  1  0.740100  0.450900  0.381800  1
  H  H2745  1  0.609700  0.371000  0.063900  1
  H  H2746  1  0.390300  0.629000  0.563900  1
  H  H2747  1  0.129000  0.109700  0.313900  1
  H  H2748  1  0.871000  0.890300  0.813900  1
  H  H2749  1  0.890300  0.871000  0.186100  1
  H  H2750  1  0.109700  0.129000  0.686100  1
  H  H2751  1  0.371000  0.609700  0.936100  1
  H  H2752  1  0.629000  0.390300  0.436100  1
  H  H2753  1  0.604400  0.404700  0.052300  1
  H  H2754  1  0.395600  0.595300  0.552300  1
  H  H2755  1  0.095300  0.104400  0.302300  1
  H  H2756  1  0.904700  0.895600  0.802300  1
  H  H2757  1  0.895600  0.904700  0.197700  1
  H  H2758  1  0.104400  0.095300  0.697700  1
  H  H2759  1  0.404700  0.604400  0.947700  1
  H  H2760  1  0.595300  0.395600  0.447700  1
  H  H2761  1  0.629400  0.399900  0.073800  1
  H  H2762  1  0.370600  0.600100  0.573800  1
  H  H2763  1  0.100100  0.129400  0.323800  1
  H  H2764  1  0.899900  0.870600  0.823800  1
  H  H2765  1  0.870600  0.899900  0.176200  1
  H  H2766  1  0.129400  0.100100  0.676200  1
  H  H2767  1  0.399900  0.629400  0.926200  1
  H  H2768  1  0.600100  0.370600  0.426200  1
  C  C2769  1  0.551400  0.400400  0.934000  1
  C  C2770  1  0.448600  0.599600  0.434000  1
  C  C2771  1  0.099600  0.051400  0.184000  1
  C  C2772  1  0.900400  0.948600  0.684000  1
  C  C2773  1  0.948600  0.900400  0.316000  1
  C  C2774  1  0.051400  0.099600  0.816000  1
  C  C2775  1  0.400400  0.551400  0.066000  1
  C  C2776  1  0.599600  0.448600  0.566000  1
  C  C2777  1  0.528600  0.383200  0.945930  1
  C  C2778  1  0.471400  0.616800  0.445930  1
  C  C2779  1  0.116800  0.028600  0.195930  1
  C  C2780  1  0.883200  0.971400  0.695930  1
  C  C2781  1  0.971400  0.883200  0.304070  1
  C  C2782  1  0.028600  0.116800  0.804070  1
  C  C2783  1  0.383200  0.528600  0.054070  1
  C  C2784  1  0.616800  0.471400  0.554070  1
  C  C2785  1  0.499500  0.380000  0.935300  1
  C  C2786  1  0.500500  0.620000  0.435300  1
  C  C2787  1  0.120000  0.999500  0.185300  1
  C  C2788  1  0.880000  0.000500  0.685300  1
  C  C2789  1  0.000500  0.880000  0.314700  1
  C  C2790  1  0.999500  0.120000  0.814700  1
  C  C2791  1  0.380000  0.499500  0.064700  1
  C  C2792  1  0.620000  0.500500  0.564700  1
  C  C2793  1  0.493100  0.394200  0.912800  1
  C  C2794  1  0.506900  0.605800  0.412800  1
  C  C2795  1  0.105800  0.993100  0.162800  1
  C  C2796  1  0.894200  0.006900  0.662800  1
  C  C2797  1  0.006900  0.894200  0.337200  1
  C  C2798  1  0.993100  0.105800  0.837200  1
  C  C2799  1  0.394200  0.493100  0.087200  1
  C  C2800  1  0.605800  0.506900  0.587200  1
  C  C2801  1  0.515800  0.411400  0.900900  1
  C  C2802  1  0.484200  0.588600  0.400900  1
  C  C2803  1  0.088600  0.015800  0.150900  1
  C  C2804  1  0.911400  0.984200  0.650900  1
  C  C2805  1  0.984200  0.911400  0.349100  1
  C  C2806  1  0.015800  0.088600  0.849100  1
  C  C2807  1  0.411400  0.515800  0.099100  1
  C  C2808  1  0.588600  0.484200  0.599100  1
  C  C2809  1  0.545000  0.414600  0.911500  1
  C  C2810  1  0.455000  0.585400  0.411500  1
  C  C2811  1  0.085400  0.045000  0.161500  1
  C  C2812  1  0.914600  0.955000  0.661500  1
  C  C2813  1  0.955000  0.914600  0.338500  1
  C  C2814  1  0.045000  0.085400  0.838500  1
  C  C2815  1  0.414600  0.545000  0.088500  1
  C  C2816  1  0.585400  0.455000  0.588500  1
  C  C2817  1  0.461400  0.389200  0.897300  1
  C  C2818  1  0.538600  0.610800  0.397300  1
  C  C2819  1  0.110800  0.961400  0.147300  1
  C  C2820  1  0.889200  0.038600  0.647300  1
  C  C2821  1  0.038600  0.889200  0.352700  1
  C  C2822  1  0.961400  0.110800  0.852700  1
  C  C2823  1  0.389200  0.461400  0.102700  1
  C  C2824  1  0.610800  0.538600  0.602700  1
  C  C2825  1  0.595100  0.432200  0.945100  1
  C  C2826  1  0.404900  0.567800  0.445100  1
  C  C2827  1  0.067800  0.095100  0.195100  1
  C  C2828  1  0.932200  0.904900  0.695100  1
  C  C2829  1  0.904900  0.932200  0.304900  1
  C  C2830  1  0.095100  0.067800  0.804900  1
  C  C2831  1  0.432200  0.595100  0.054900  1
  C  C2832  1  0.567800  0.404900  0.554900  1
  C  C2833  1  0.623000  0.433300  0.955900  1
  C  C2834  1  0.377000  0.566700  0.455900  1
  C  C2835  1  0.066700  0.123000  0.205900  1
  C  C2836  1  0.933300  0.877000  0.705900  1
  C  C2837  1  0.877000  0.933300  0.294100  1
  C  C2838  1  0.123000  0.066700  0.794100  1
  C  C2839  1  0.433300  0.623000  0.044100  1
  C  C2840  1  0.566700  0.377000  0.544100  1
  C  C2841  1  0.666500  0.403700  0.968300  1
  C  C2842  1  0.333500  0.596300  0.468300  1
  C  C2843  1  0.096300  0.166500  0.218300  1
  C  C2844  1  0.903700  0.833500  0.718300  1
  C  C2845  1  0.833500  0.903700  0.281700  1
  C  C2846  1  0.166500  0.096300  0.781700  1
  C  C2847  1  0.403700  0.666500  0.031700  1
  C  C2848  1  0.596300  0.333500  0.531700  1
  C  C2849  1  0.683700  0.430100  0.970000  1
  C  C2850  1  0.316300  0.569900  0.470000  1
  C  C2851  1  0.069900  0.183700  0.220000  1
  C  C2852  1  0.930100  0.816300  0.720000  1
  C  C2853  1  0.816300  0.930100  0.280000  1
  C  C2854  1  0.183700  0.069900  0.780000  1
  C  C2855  1  0.430100  0.683700  0.030000  1
  C  C2856  1  0.569900  0.316300  0.530000  1
  C  C2857  1  0.673900  0.457200  0.961600  1
  C  C2858  1  0.326100  0.542800  0.461600  1
  C  C2859  1  0.042800  0.173900  0.211600  1
  C  C2860  1  0.957200  0.826100  0.711600  1
  C  C2861  1  0.826100  0.957200  0.288400  1
  C  C2862  1  0.173900  0.042800  0.788400  1
  C  C2863  1  0.457200  0.673900  0.038400  1
  C  C2864  1  0.542800  0.326100  0.538400  1
  C  C2865  1  0.642000  0.458900  0.953800  1
  C  C2866  1  0.358000  0.541100  0.453800  1
  C  C2867  1  0.041100  0.142000  0.203800  1
  C  C2868  1  0.958900  0.858000  0.703800  1
  C  C2869  1  0.858000  0.958900  0.296200  1
  C  C2870  1  0.142000  0.041100  0.796200  1
  C  C2871  1  0.458900  0.642000  0.046200  1
  C  C2872  1  0.541100  0.358000  0.546200  1
  C  C2873  1  0.717200  0.427100  0.975400  1
  C  C2874  1  0.282800  0.572900  0.475400  1
  C  C2875  1  0.072900  0.217200  0.225400  1
  C  C2876  1  0.927100  0.782800  0.725400  1
  C  C2877  1  0.782800  0.927100  0.274600  1
  C  C2878  1  0.217200  0.072900  0.774600  1
  C  C2879  1  0.427100  0.717200  0.024600  1
  C  C2880  1  0.572900  0.282800  0.524600  1
  C  C2881  1  0.727400  0.415300  0.997700  1
  C  C2882  1  0.272600  0.584700  0.497700  1
  C  C2883  1  0.084700  0.227400  0.247700  1
  C  C2884  1  0.915300  0.772600  0.747700  1
  C  C2885  1  0.772600  0.915300  0.252300  1
  C  C2886  1  0.227400  0.084700  0.752300  1
  C  C2887  1  0.415300  0.727400  0.002300  1
  C  C2888  1  0.584700  0.272600  0.502300  1
  C  C2889  1  0.780200  0.426200  0.987700  1
  C  C2890  1  0.219800  0.573800  0.487700  1
  C  C2891  1  0.073800  0.280200  0.237700  1
  C  C2892  1  0.926200  0.719800  0.737700  1
  C  C2893  1  0.719800  0.926200  0.262300  1
  C  C2894  1  0.280200  0.073800  0.762300  1
  C  C2895  1  0.426200  0.780200  0.012300  1
  C  C2896  1  0.573800  0.219800  0.512300  1
  C  C2897  1  0.773600  0.438000  0.966500  1
  C  C2898  1  0.226400  0.562000  0.466500  1
  C  C2899  1  0.062000  0.273600  0.216500  1
  C  C2900  1  0.938000  0.726400  0.716500  1
  C  C2901  1  0.726400  0.938000  0.283500  1
  C  C2902  1  0.273600  0.062000  0.783500  1
  C  C2903  1  0.438000  0.773600  0.033500  1
  C  C2904  1  0.562000  0.226400  0.533500  1
  C  C2905  1  0.743400  0.442100  0.958700  1
  C  C2906  1  0.256600  0.557900  0.458700  1
  C  C2907  1  0.057900  0.243400  0.208700  1
  C  C2908  1  0.942100  0.756600  0.708700  1
  C  C2909  1  0.756600  0.942100  0.291300  1
  C  C2910  1  0.243400  0.057900  0.791300  1
  C  C2911  1  0.442100  0.743400  0.041300  1
  C  C2912  1  0.557900  0.256600  0.541300  1
  C  C2913  1  0.810400  0.422400  0.996700  1
  C  C2914  1  0.189600  0.577600  0.496700  1
  C  C2915  1  0.077600  0.310400  0.246700  1
  C  C2916  1  0.922400  0.689600  0.746700  1
  C  C2917  1  0.689600  0.922400  0.253300  1
  C  C2918  1  0.310400  0.077600  0.753300  1
  C  C2919  1  0.422400  0.810400  0.003300  1
  C  C2920  1  0.577600  0.189600  0.503300  1
  C  C2921  1  0.844920  0.406900  0.026800  1
  C  C2922  1  0.155080  0.593100  0.526800  1
  C  C2923  1  0.093100  0.344920  0.276800  1
  C  C2924  1  0.906900  0.655080  0.776800  1
  C  C2925  1  0.655080  0.906900  0.223200  1
  C  C2926  1  0.344920  0.093100  0.723200  1
  C  C2927  1  0.406900  0.844920  0.973200  1
  C  C2928  1  0.593100  0.155080  0.473200  1
  C  C2929  1  0.854400  0.380600  0.039500  1
  C  C2930  1  0.145600  0.619400  0.539500  1
  C  C2931  1  0.119400  0.354400  0.289500  1
  C  C2932  1  0.880600  0.645600  0.789500  1
  C  C2933  1  0.645600  0.880600  0.210500  1
  C  C2934  1  0.354400  0.119400  0.710500  1
  C  C2935  1  0.380600  0.854400  0.960500  1
  C  C2936  1  0.619400  0.145600  0.460500  1
  C  C2937  1  0.884600  0.378200  0.048100  1
  C  C2938  1  0.115400  0.621800  0.548100  1
  C  C2939  1  0.121800  0.384600  0.298100  1
  C  C2940  1  0.878200  0.615400  0.798100  1
  C  C2941  1  0.615400  0.878200  0.201900  1
  C  C2942  1  0.384600  0.121800  0.701900  1
  C  C2943  1  0.378200  0.884600  0.951900  1
  C  C2944  1  0.621800  0.115400  0.451900  1
  C  C2945  1  0.905500  0.402200  0.043900  1
  C  C2946  1  0.094500  0.597800  0.543900  1
  C  C2947  1  0.097800  0.405500  0.293900  1
  C  C2948  1  0.902200  0.594500  0.793900  1
  C  C2949  1  0.594500  0.902200  0.206100  1
  C  C2950  1  0.405500  0.097800  0.706100  1
  C  C2951  1  0.402200  0.905500  0.956100  1
  C  C2952  1  0.597800  0.094500  0.456100  1
  C  C2953  1  0.896000  0.428500  0.031100  1
  C  C2954  1  0.104000  0.571500  0.531100  1
  C  C2955  1  0.071500  0.396000  0.281100  1
  C  C2956  1  0.928500  0.604000  0.781100  1
  C  C2957  1  0.604000  0.928500  0.218900  1
  C  C2958  1  0.396000  0.071500  0.718900  1
  C  C2959  1  0.428500  0.896000  0.968900  1
  C  C2960  1  0.571500  0.104000  0.468900  1
  C  C2961  1  0.865800  0.430800  0.022500  1
  C  C2962  1  0.134200  0.569200  0.522500  1
  C  C2963  1  0.069200  0.365800  0.272500  1
  C  C2964  1  0.930800  0.634200  0.772500  1
  C  C2965  1  0.634200  0.930800  0.227500  1
  C  C2966  1  0.365800  0.069200  0.727500  1
  C  C2967  1  0.430800  0.865800  0.977500  1
  C  C2968  1  0.569200  0.134200  0.477500  1
  C  C2969  1  0.939100  0.399400  0.052700  1
  C  C2970  1  0.060900  0.600600  0.552700  1
  C  C2971  1  0.100600  0.439100  0.302700  1
  C  C2972  1  0.899400  0.560900  0.802700  1
  C  C2973  1  0.560900  0.899400  0.197300  1
  C  C2974  1  0.439100  0.100600  0.697300  1
  C  C2975  1  0.399400  0.939100  0.947300  1
  C  C2976  1  0.600600  0.060900  0.447300  1
  C  C2977  1  0.647400  0.393400  0.906100  1
  C  C2978  1  0.352600  0.606600  0.406100  1
  C  C2979  1  0.106600  0.147400  0.156100  1
  C  C2980  1  0.893400  0.852600  0.656100  1
  C  C2981  1  0.852600  0.893400  0.343900  1
  C  C2982  1  0.147400  0.106600  0.843900  1
  C  C2983  1  0.393400  0.647400  0.093900  1
  C  C2984  1  0.606600  0.352600  0.593900  1
  C  C2985  1  0.635500  0.416100  0.889200  1
  C  C2986  1  0.364500  0.583900  0.389200  1
  C  C2987  1  0.083900  0.135500  0.139200  1
  C  C2988  1  0.916100  0.864500  0.639200  1
  C  C2989  1  0.864500  0.916100  0.360800  1
  C  C2990  1  0.135500  0.083900  0.860800  1
  C  C2991  1  0.416100  0.635500  0.110800  1
  C  C2992  1  0.583900  0.364500  0.610800  1
  C  C2993  1  0.656200  0.437000  0.881100  1
  C  C2994  1  0.343800  0.563000  0.381100  1
  C  C2995  1  0.063000  0.156200  0.131100  1
  C  C2996  1  0.937000  0.843800  0.631100  1
  C  C2997  1  0.843800  0.937000  0.368900  1
  C  C2998  1  0.156200  0.063000  0.868900  1
  C  C2999  1  0.437000  0.656200  0.118900  1
  C  C3000  1  0.563000  0.343800  0.618900  1
  C  C3001  1  0.685900  0.436300  0.887800  1
  C  C3002  1  0.314100  0.563700  0.387800  1
  C  C3003  1  0.063700  0.185900  0.137800  1
  C  C3004  1  0.936300  0.814100  0.637800  1
  C  C3005  1  0.814100  0.936300  0.362200  1
  C  C3006  1  0.185900  0.063700  0.862200  1
  C  C3007  1  0.436300  0.685900  0.112200  1
  C  C3008  1  0.563700  0.314100  0.612200  1
  C  C3009  1  0.697900  0.414300  0.905200  1
  C  C3010  1  0.302100  0.585700  0.405200  1
  C  C3011  1  0.085700  0.197900  0.155200  1
  C  C3012  1  0.914300  0.802100  0.655200  1
  C  C3013  1  0.802100  0.914300  0.344800  1
  C  C3014  1  0.197900  0.085700  0.844800  1
  C  C3015  1  0.414300  0.697900  0.094800  1
  C  C3016  1  0.585700  0.302100  0.594800  1
  C  C3017  1  0.677200  0.390600  0.912800  1
  C  C3018  1  0.322800  0.609400  0.412800  1
  C  C3019  1  0.109400  0.177200  0.162800  1
  C  C3020  1  0.890600  0.822800  0.662800  1
  C  C3021  1  0.822800  0.890600  0.337200  1
  C  C3022  1  0.177200  0.109400  0.837200  1
  C  C3023  1  0.390600  0.677200  0.087200  1
  C  C3024  1  0.609400  0.322800  0.587200  1
  C  C3025  1  0.712700  0.461100  0.879800  1
  C  C3026  1  0.287300  0.538900  0.379800  1
  C  C3027  1  0.038900  0.212700  0.129800  1
  C  C3028  1  0.961100  0.787300  0.629800  1
  C  C3029  1  0.787300  0.961100  0.370200  1
  C  C3030  1  0.212700  0.038900  0.870200  1
  C  C3031  1  0.461100  0.712700  0.120200  1
  C  C3032  1  0.538900  0.287300  0.620200  1
  C  C3033  1  0.604700  0.360100  0.900900  1
  C  C3034  1  0.395300  0.639900  0.400900  1
  C  C3035  1  0.139900  0.104700  0.150900  1
  C  C3036  1  0.860100  0.895300  0.650900  1
  C  C3037  1  0.895300  0.860100  0.349100  1
  C  C3038  1  0.104700  0.139900  0.849100  1
  C  C3039  1  0.360100  0.604700  0.099100  1
  C  C3040  1  0.639900  0.395300  0.599100  1
  C  C3041  1  0.578400  0.340800  0.912500  1
  C  C3042  1  0.421600  0.659200  0.412500  1
  C  C3043  1  0.159200  0.078400  0.162500  1
  C  C3044  1  0.840800  0.921600  0.662500  1
  C  C3045  1  0.921600  0.840800  0.337500  1
  C  C3046  1  0.078400  0.159200  0.837500  1
  C  C3047  1  0.340800  0.578400  0.087500  1
  C  C3048  1  0.659200  0.421600  0.587500  1
  C  C3049  1  0.563800  0.320300  0.948500  1
  C  C3050  1  0.436200  0.679700  0.448500  1
  C  C3051  1  0.179700  0.063800  0.198500  1
  C  C3052  1  0.820300  0.936200  0.698500  1
  C  C3053  1  0.936200  0.820300  0.301500  1
  C  C3054  1  0.063800  0.179700  0.801500  1
  C  C3055  1  0.320300  0.563800  0.051500  1
  C  C3056  1  0.679700  0.436200  0.551500  1
  C  C3057  1  0.541900  0.306200  0.938400  1
  C  C3058  1  0.458100  0.693800  0.438400  1
  C  C3059  1  0.193800  0.041900  0.188400  1
  C  C3060  1  0.806200  0.958100  0.688400  1
  C  C3061  1  0.958100  0.806200  0.311600  1
  C  C3062  1  0.041900  0.193800  0.811600  1
  C  C3063  1  0.306200  0.541900  0.061600  1
  C  C3064  1  0.693800  0.458100  0.561600  1
  C  C3065  1  0.537700  0.306300  0.911500  1
  C  C3066  1  0.462300  0.693700  0.411500  1
  C  C3067  1  0.193700  0.037700  0.161500  1
  C  C3068  1  0.806300  0.962300  0.661500  1
  C  C3069  1  0.962300  0.806300  0.338500  1
  C  C3070  1  0.037700  0.193700  0.838500  1
  C  C3071  1  0.306300  0.537700  0.088500  1
  C  C3072  1  0.693700  0.462300  0.588500  1
  C  C3073  1  0.556900  0.325600  0.900300  1
  C  C3074  1  0.443100  0.674400  0.400300  1
  C  C3075  1  0.174400  0.056900  0.150300  1
  C  C3076  1  0.825600  0.943100  0.650300  1
  C  C3077  1  0.943100  0.825600  0.349700  1
  C  C3078  1  0.056900  0.174400  0.849700  1
  C  C3079  1  0.325600  0.556900  0.099700  1
  C  C3080  1  0.674400  0.443100  0.599700  1
  C  C3081  1  0.519800  0.282600  0.952900  1
  C  C3082  1  0.480200  0.717400  0.452900  1
  C  C3083  1  0.217400  0.019800  0.202900  1
  C  C3084  1  0.782600  0.980200  0.702900  1
  C  C3085  1  0.980200  0.782600  0.297100  1
  C  C3086  1  0.019800  0.217400  0.797100  1
  C  C3087  1  0.282600  0.519800  0.047100  1
  C  C3088  1  0.717400  0.480200  0.547100  1
  C  C3089  1  0.531700  0.262700  0.970400  1
  C  C3090  1  0.468300  0.737300  0.470400  1
  C  C3091  1  0.237300  0.031700  0.220400  1
  C  C3092  1  0.762700  0.968300  0.720400  1
  C  C3093  1  0.968300  0.762700  0.279600  1
  C  C3094  1  0.031700  0.237300  0.779600  1
  C  C3095  1  0.262700  0.531700  0.029600  1
  C  C3096  1  0.737300  0.468300  0.529600  1
  C  C3097  1  0.481400  0.246100  0.979400  1
  C  C3098  1  0.518600  0.753900  0.479400  1
  C  C3099  1  0.253900  0.981400  0.229400  1
  C  C3100  1  0.746100  0.018600  0.729400  1
  C  C3101  1  0.018600  0.746100  0.270600  1
  C  C3102  1  0.981400  0.253900  0.770600  1
  C  C3103  1  0.246100  0.481400  0.020600  1
  C  C3104  1  0.753900  0.518600  0.520600  1
  C  C3105  1  0.469800  0.266000  0.963400  1
  C  C3106  1  0.530200  0.734000  0.463400  1
  C  C3107  1  0.234000  0.969800  0.213400  1
  C  C3108  1  0.766000  0.030200  0.713400  1
  C  C3109  1  0.030200  0.766000  0.286600  1
  C  C3110  1  0.969800  0.234000  0.786600  1
  C  C3111  1  0.266000  0.469800  0.036600  1
  C  C3112  1  0.734000  0.530200  0.536600  1
  C  C3113  1  0.490100  0.284400  0.950000  1
  C  C3114  1  0.509900  0.715600  0.450000  1
  C  C3115  1  0.215600  0.990100  0.200000  1
  C  C3116  1  0.784400  0.009900  0.700000  1
  C  C3117  1  0.009900  0.784400  0.300000  1
  C  C3118  1  0.990100  0.215600  0.800000  1
  C  C3119  1  0.284400  0.490100  0.050000  1
  C  C3120  1  0.715600  0.509900  0.550000  1
  C  C3121  1  0.467300  0.221300  0.994800  1
  C  C3122  1  0.532700  0.778700  0.494800  1
  C  C3123  1  0.278700  0.967300  0.244800  1
  C  C3124  1  0.721300  0.032700  0.744800  1
  C  C3125  1  0.032700  0.721300  0.255200  1
  C  C3126  1  0.967300  0.278700  0.755200  1
  C  C3127  1  0.221300  0.467300  0.005200  1
  C  C3128  1  0.778700  0.532700  0.505200  1
  C  C3129  1  0.466100  0.177200  0.019100  1
  C  C3130  1  0.533900  0.822800  0.519100  1
  C  C3131  1  0.322800  0.966100  0.269100  1
  C  C3132  1  0.677200  0.033900  0.769100  1
  C  C3133  1  0.033900  0.677200  0.230900  1
  C  C3134  1  0.966100  0.322800  0.730900  1
  C  C3135  1  0.177200  0.466100  0.980900  1
  C  C3136  1  0.822800  0.533900  0.480900  1
  C  C3137  1  0.471500  0.169700  0.043900  1
  C  C3138  1  0.528500  0.830300  0.543900  1
  C  C3139  1  0.330300  0.971500  0.293900  1
  C  C3140  1  0.669700  0.028500  0.793900  1
  C  C3141  1  0.028500  0.669700  0.206100  1
  C  C3142  1  0.971500  0.330300  0.706100  1
  C  C3143  1  0.169700  0.471500  0.956100  1
  C  C3144  1  0.830300  0.528500  0.456100  1
  C  C3145  1  0.461400  0.143100  0.050600  1
  C  C3146  1  0.538600  0.856900  0.550600  1
  C  C3147  1  0.356900  0.961400  0.300600  1
  C  C3148  1  0.643100  0.038600  0.800600  1
  C  C3149  1  0.038600  0.643100  0.199400  1
  C  C3150  1  0.961400  0.356900  0.699400  1
  C  C3151  1  0.143100  0.461400  0.949400  1
  C  C3152  1  0.856900  0.538600  0.449400  1
  C  C3153  1  0.443000  0.123200  0.038300  1
  C  C3154  1  0.557000  0.876800  0.538300  1
  C  C3155  1  0.376800  0.943000  0.288300  1
  C  C3156  1  0.623200  0.057000  0.788300  1
  C  C3157  1  0.057000  0.623200  0.211700  1
  C  C3158  1  0.943000  0.376800  0.711700  1
  C  C3159  1  0.123200  0.443000  0.961700  1
  C  C3160  1  0.876800  0.557000  0.461700  1
  C  C3161  1  0.436800  0.131900  0.013200  1
  C  C3162  1  0.563200  0.868100  0.513200  1
  C  C3163  1  0.368100  0.936800  0.263200  1
  C  C3164  1  0.631900  0.063200  0.763200  1
  C  C3165  1  0.063200  0.631900  0.236800  1
  C  C3166  1  0.936800  0.368100  0.736800  1
  C  C3167  1  0.131900  0.436800  0.986800  1
  C  C3168  1  0.868100  0.563200  0.486800  1
  C  C3169  1  0.449700  0.160300  0.004500  1
  C  C3170  1  0.550300  0.839700  0.504500  1
  C  C3171  1  0.339700  0.949700  0.254500  1
  C  C3172  1  0.660300  0.050300  0.754500  1
  C  C3173  1  0.050300  0.660300  0.245500  1
  C  C3174  1  0.949700  0.339700  0.745500  1
  C  C3175  1  0.160300  0.449700  0.995500  1
  C  C3176  1  0.839700  0.550300  0.495500  1
  C  C3177  1  0.432900  0.092700  0.049400  1
  C  C3178  1  0.567100  0.907300  0.549400  1
  C  C3179  1  0.407300  0.932900  0.299400  1
  C  C3180  1  0.592700  0.067100  0.799400  1
  C  C3181  1  0.067100  0.592700  0.200600  1
  C  C3182  1  0.932900  0.407300  0.700600  1
  C  C3183  1  0.092700  0.432900  0.950600  1
  C  C3184  1  0.907300  0.567100  0.450600  1
  C  C3185  1  0.575600  0.374700  0.000200  1
  C  C3186  1  0.424400  0.625300  0.500200  1
  C  C3187  1  0.125300  0.075600  0.250200  1
  C  C3188  1  0.874700  0.924400  0.750200  1
  C  C3189  1  0.924400  0.874700  0.249800  1
  C  C3190  1  0.075600  0.125300  0.749800  1
  C  C3191  1  0.374700  0.575600  0.999800  1
  C  C3192  1  0.625300  0.424400  0.499800  1
  C  C3193  1  0.574700  0.406600  0.004200  1
  C  C3194  1  0.425300  0.593400  0.504200  1
  C  C3195  1  0.093400  0.074700  0.254200  1
  C  C3196  1  0.906600  0.925300  0.754200  1
  C  C3197  1  0.925300  0.906600  0.245800  1
  C  C3198  1  0.074700  0.093400  0.745800  1
  C  C3199  1  0.406600  0.574700  0.995800  1
  C  C3200  1  0.593400  0.425300  0.495800  1
  C  C3201  1  0.550400  0.419600  0.017500  1
  C  C3202  1  0.449600  0.580400  0.517500  1
  C  C3203  1  0.080400  0.050400  0.267500  1
  C  C3204  1  0.919600  0.949600  0.767500  1
  C  C3205  1  0.949600  0.919600  0.232500  1
  C  C3206  1  0.050400  0.080400  0.732500  1
  C  C3207  1  0.419600  0.550400  0.982500  1
  C  C3208  1  0.580400  0.449600  0.482500  1
  C  C3209  1  0.527000  0.400800  0.026800  1
  C  C3210  1  0.473000  0.599200  0.526800  1
  C  C3211  1  0.099200  0.027000  0.276800  1
  C  C3212  1  0.900800  0.973000  0.776800  1
  C  C3213  1  0.973000  0.900800  0.223200  1
  C  C3214  1  0.027000  0.099200  0.723200  1
  C  C3215  1  0.400800  0.527000  0.973200  1
  C  C3216  1  0.599200  0.473000  0.473200  1
  C  C3217  1  0.527900  0.369000  0.022900  1
  C  C3218  1  0.472100  0.631000  0.522900  1
  C  C3219  1  0.131000  0.027900  0.272900  1
  C  C3220  1  0.869000  0.972100  0.772900  1
  C  C3221  1  0.972100  0.869000  0.227100  1
  C  C3222  1  0.027900  0.131000  0.727100  1
  C  C3223  1  0.369000  0.527900  0.977100  1
  C  C3224  1  0.631000  0.472100  0.477100  1
  C  C3225  1  0.552200  0.355900  0.009600  1
  C  C3226  1  0.447800  0.644100  0.509600  1
  C  C3227  1  0.144100  0.052200  0.259600  1
  C  C3228  1  0.855900  0.947800  0.759600  1
  C  C3229  1  0.947800  0.855900  0.240400  1
  C  C3230  1  0.052200  0.144100  0.740400  1
  C  C3231  1  0.355900  0.552200  0.990400  1
  C  C3232  1  0.644100  0.447800  0.490400  1
  C  C3233  1  0.496300  0.410300  0.045700  1
  C  C3234  1  0.503700  0.589700  0.545700  1
  C  C3235  1  0.089700  0.996300  0.295700  1
  C  C3236  1  0.910300  0.003700  0.795700  1
  C  C3237  1  0.003700  0.910300  0.204300  1
  C  C3238  1  0.996300  0.089700  0.704300  1
  C  C3239  1  0.410300  0.496300  0.954300  1
  C  C3240  1  0.589700  0.503700  0.454300  1
  C  C3241  1  0.618200  0.342600  0.998800  1
  C  C3242  1  0.381800  0.657400  0.498800  1
  C  C3243  1  0.157400  0.118200  0.248800  1
  C  C3244  1  0.842600  0.881800  0.748800  1
  C  C3245  1  0.881800  0.842600  0.251200  1
  C  C3246  1  0.118200  0.157400  0.751200  1
  C  C3247  1  0.342600  0.618200  0.001200  1
  C  C3248  1  0.657400  0.381800  0.501200  1
  C  C3249  1  0.642100  0.328700  0.984600  1
  C  C3250  1  0.357900  0.671300  0.484600  1
  C  C3251  1  0.171300  0.142100  0.234600  1
  C  C3252  1  0.828700  0.857900  0.734600  1
  C  C3253  1  0.857900  0.828700  0.265400  1
  C  C3254  1  0.142100  0.171300  0.765400  1
  C  C3255  1  0.328700  0.642100  0.015400  1
  C  C3256  1  0.671300  0.357900  0.515400  1
  C  C3257  1  0.660900  0.322400  0.946500  1
  C  C3258  1  0.339100  0.677600  0.446500  1
  C  C3259  1  0.177600  0.160900  0.196500  1
  C  C3260  1  0.822400  0.839100  0.696500  1
  C  C3261  1  0.839100  0.822400  0.303500  1
  C  C3262  1  0.160900  0.177600  0.803500  1
  C  C3263  1  0.322400  0.660900  0.053500  1
  C  C3264  1  0.677600  0.339100  0.553500  1
  C  C3265  1  0.682200  0.297900  0.953500  1
  C  C3266  1  0.317800  0.702100  0.453500  1
  C  C3267  1  0.202100  0.182200  0.203500  1
  C  C3268  1  0.797900  0.817800  0.703500  1
  C  C3269  1  0.817800  0.797900  0.296500  1
  C  C3270  1  0.182200  0.202100  0.796500  1
  C  C3271  1  0.297900  0.682200  0.046500  1
  C  C3272  1  0.702100  0.317800  0.546500  1
  C  C3273  1  0.681300  0.292400  0.979000  1
  C  C3274  1  0.318700  0.707600  0.479000  1
  C  C3275  1  0.207600  0.181300  0.229000  1
  C  C3276  1  0.792400  0.818700  0.729000  1
  C  C3277  1  0.818700  0.792400  0.271000  1
  C  C3278  1  0.181300  0.207600  0.771000  1
  C  C3279  1  0.292400  0.681300  0.021000  1
  C  C3280  1  0.707600  0.318700  0.521000  1
  C  C3281  1  0.662200  0.307900  0.994500  1
  C  C3282  1  0.337800  0.692100  0.494500  1
  C  C3283  1  0.192100  0.162200  0.244500  1
  C  C3284  1  0.807900  0.837800  0.744500  1
  C  C3285  1  0.837800  0.807900  0.255500  1
  C  C3286  1  0.162200  0.192100  0.755500  1
  C  C3287  1  0.307900  0.662200  0.005500  1
  C  C3288  1  0.692100  0.337800  0.505500  1
  C  C3289  1  0.702700  0.284100  0.936600  1
  C  C3290  1  0.297300  0.715900  0.436600  1
  C  C3291  1  0.215900  0.202700  0.186600  1
  C  C3292  1  0.784100  0.797300  0.686600  1
  C  C3293  1  0.797300  0.784100  0.313400  1
  C  C3294  1  0.202700  0.215900  0.813400  1
  C  C3295  1  0.284100  0.702700  0.063400  1
  C  C3296  1  0.715900  0.297300  0.563400  1
  C  C3297  1  0.707900  0.294300  0.911900  1
  C  C3298  1  0.292100  0.705700  0.411900  1
  C  C3299  1  0.205700  0.207900  0.161900  1
  C  C3300  1  0.794300  0.792100  0.661900  1
  C  C3301  1  0.792100  0.794300  0.338100  1
  C  C3302  1  0.207900  0.205700  0.838100  1
  C  C3303  1  0.294300  0.707900  0.088100  1
  C  C3304  1  0.705700  0.292100  0.588100  1
  C  C3305  1  0.740300  0.251000  0.901700  1
  C  C3306  1  0.259700  0.749000  0.401700  1
  C  C3307  1  0.249000  0.240300  0.151700  1
  C  C3308  1  0.751000  0.759700  0.651700  1
  C  C3309  1  0.759700  0.751000  0.348300  1
  C  C3310  1  0.240300  0.249000  0.848300  1
  C  C3311  1  0.251000  0.740300  0.098300  1
  C  C3312  1  0.749000  0.259700  0.598300  1
  C  C3313  1  0.737900  0.241300  0.926300  1
  C  C3314  1  0.262100  0.758700  0.426300  1
  C  C3315  1  0.258700  0.237900  0.176300  1
  C  C3316  1  0.741300  0.762100  0.676300  1
  C  C3317  1  0.762100  0.741300  0.323700  1
  C  C3318  1  0.237900  0.258700  0.823700  1
  C  C3319  1  0.241300  0.737900  0.073700  1
  C  C3320  1  0.758700  0.262100  0.573700  1
  C  C3321  1  0.719000  0.255200  0.941900  1
  C  C3322  1  0.281000  0.744800  0.441900  1
  C  C3323  1  0.244800  0.219000  0.191900  1
  C  C3324  1  0.755200  0.781000  0.691900  1
  C  C3325  1  0.781000  0.755200  0.308100  1
  C  C3326  1  0.219000  0.244800  0.808100  1
  C  C3327  1  0.255200  0.719000  0.058100  1
  C  C3328  1  0.744800  0.281000  0.558100  1
  C  C3329  1  0.756300  0.241000  0.883250  1
  C  C3330  1  0.243700  0.759000  0.383250  1
  C  C3331  1  0.259000  0.256300  0.133250  1
  C  C3332  1  0.741000  0.743700  0.633250  1
  C  C3333  1  0.743700  0.741000  0.366750  1
  C  C3334  1  0.256300  0.259000  0.866750  1
  C  C3335  1  0.241000  0.756300  0.116750  1
  C  C3336  1  0.759000  0.243700  0.616750  1
  C  C3337  1  0.774200  0.238600  0.843220  1
  C  C3338  1  0.225800  0.761400  0.343220  1
  C  C3339  1  0.261400  0.274200  0.093220  1
  C  C3340  1  0.738600  0.725800  0.593220  1
  C  C3341  1  0.725800  0.738600  0.406780  1
  C  C3342  1  0.274200  0.261400  0.906780  1
  C  C3343  1  0.238600  0.774200  0.156780  1
  C  C3344  1  0.761400  0.225800  0.656780  1
  C  C3345  1  0.805800  0.241300  0.839010  1
  C  C3346  1  0.194200  0.758700  0.339010  1
  C  C3347  1  0.258700  0.305800  0.089010  1
  C  C3348  1  0.741300  0.694200  0.589010  1
  C  C3349  1  0.694200  0.741300  0.410990  1
  C  C3350  1  0.305800  0.258700  0.910990  1
  C  C3351  1  0.241300  0.805800  0.160990  1
  C  C3352  1  0.758700  0.194200  0.660990  1
  C  C3353  1  0.819300  0.226300  0.819010  1
  C  C3354  1  0.180700  0.773700  0.319010  1
  C  C3355  1  0.273700  0.319300  0.069010  1
  C  C3356  1  0.726300  0.680700  0.569010  1
  C  C3357  1  0.680700  0.726300  0.430990  1
  C  C3358  1  0.319300  0.273700  0.930990  1
  C  C3359  1  0.226300  0.819300  0.180990  1
  C  C3360  1  0.773700  0.180700  0.680990  1
  C  C3361  1  0.801100  0.208500  0.803220  1
  C  C3362  1  0.198900  0.791500  0.303220  1
  C  C3363  1  0.291500  0.301100  0.053220  1
  C  C3364  1  0.708500  0.698900  0.553220  1
  C  C3365  1  0.698900  0.708500  0.446780  1
  C  C3366  1  0.301100  0.291500  0.946780  1
  C  C3367  1  0.208500  0.801100  0.196780  1
  C  C3368  1  0.791500  0.198900  0.696780  1
  C  C3369  1  0.769500  0.205800  0.807430  1
  C  C3370  1  0.230500  0.794200  0.307430  1
  C  C3371  1  0.294200  0.269500  0.057430  1
  C  C3372  1  0.705800  0.730500  0.557430  1
  C  C3373  1  0.730500  0.705800  0.442570  1
  C  C3374  1  0.269500  0.294200  0.942570  1
  C  C3375  1  0.205800  0.769500  0.192570  1
  C  C3376  1  0.794200  0.230500  0.692570  1
  C  C3377  1  0.756000  0.220900  0.827430  1
  C  C3378  1  0.244000  0.779100  0.327430  1
  C  C3379  1  0.279100  0.256000  0.077430  1
  C  C3380  1  0.720900  0.744000  0.577430  1
  C  C3381  1  0.744000  0.720900  0.422570  1
  C  C3382  1  0.256000  0.279100  0.922570  1
  C  C3383  1  0.220900  0.756000  0.172570  1
  C  C3384  1  0.779100  0.244000  0.672570  1
  C  C3385  1  0.772700  0.474200  0.032000  1
  C  C3386  1  0.227300  0.525800  0.532000  1
  C  C3387  1  0.025800  0.272700  0.282000  1
  C  C3388  1  0.974200  0.727300  0.782000  1
  C  C3389  1  0.727300  0.974200  0.218000  1
  C  C3390  1  0.272700  0.025800  0.718000  1
  C  C3391  1  0.474200  0.772700  0.968000  1
  C  C3392  1  0.525800  0.227300  0.468000  1
  C  C3393  1  0.741800  0.478800  0.025700  1
  C  C3394  1  0.258200  0.521200  0.525700  1
  C  C3395  1  0.021200  0.241800  0.275700  1
  C  C3396  1  0.978800  0.758200  0.775700  1
  C  C3397  1  0.758200  0.978800  0.224300  1
  C  C3398  1  0.241800  0.021200  0.724300  1
  C  C3399  1  0.478800  0.741800  0.974300  1
  C  C3400  1  0.521200  0.258200  0.474300  1
  C  C3401  1  0.733600  0.502800  0.009900  1
  C  C3402  1  0.266400  0.497200  0.509900  1
  C  C3403  1  0.997200  0.233600  0.259900  1
  C  C3404  1  0.002800  0.766400  0.759900  1
  C  C3405  1  0.766400  0.002800  0.240100  1
  C  C3406  1  0.233600  0.997200  0.740100  1
  C  C3407  1  0.502800  0.733600  0.990100  1
  C  C3408  1  0.497200  0.266400  0.490100  1
  C  C3409  1  0.756300  0.522200  0.000300  1
  C  C3410  1  0.243700  0.477800  0.500300  1
  C  C3411  1  0.977800  0.256300  0.250300  1
  C  C3412  1  0.022200  0.743700  0.750300  1
  C  C3413  1  0.743700  0.022200  0.249700  1
  C  C3414  1  0.256300  0.977800  0.749700  1
  C  C3415  1  0.522200  0.756300  0.999700  1
  C  C3416  1  0.477800  0.243700  0.499700  1
  C  C3417  1  0.787200  0.517700  0.006600  1
  C  C3418  1  0.212800  0.482300  0.506600  1
  C  C3419  1  0.982300  0.287200  0.256600  1
  C  C3420  1  0.017700  0.712800  0.756600  1
  C  C3421  1  0.712800  0.017700  0.243400  1
  C  C3422  1  0.287200  0.982300  0.743400  1
  C  C3423  1  0.517700  0.787200  0.993400  1
  C  C3424  1  0.482300  0.212800  0.493400  1
  C  C3425  1  0.795400  0.493700  0.022400  1
  C  C3426  1  0.204600  0.506300  0.522400  1
  C  C3427  1  0.006300  0.295400  0.272400  1
  C  C3428  1  0.993700  0.704600  0.772400  1
  C  C3429  1  0.704600  0.993700  0.227600  1
  C  C3430  1  0.295400  0.006300  0.727600  1
  C  C3431  1  0.493700  0.795400  0.977600  1
  C  C3432  1  0.506300  0.204600  0.477600  1
  C  C3433  1  0.747100  0.552300  0.983000  1
  C  C3434  1  0.252900  0.447700  0.483000  1
  C  C3435  1  0.947700  0.247100  0.233000  1
  C  C3436  1  0.052300  0.752900  0.733000  1
  C  C3437  1  0.752900  0.052300  0.267000  1
  C  C3438  1  0.247100  0.947700  0.767000  1
  C  C3439  1  0.552300  0.747100  0.017000  1
  C  C3440  1  0.447700  0.252900  0.517000  1
  C  C3441  1  0.799300  0.452500  0.064600  1
  C  C3442  1  0.200700  0.547500  0.564600  1
  C  C3443  1  0.047500  0.299300  0.314600  1
  C  C3444  1  0.952500  0.700700  0.814600  1
  C  C3445  1  0.700700  0.952500  0.185400  1
  C  C3446  1  0.299300  0.047500  0.685400  1
  C  C3447  1  0.452500  0.799300  0.935400  1
  C  C3448  1  0.547500  0.200700  0.435400  1
  C  C3449  1  0.808700  0.425300  0.077600  1
  C  C3450  1  0.191300  0.574700  0.577600  1
  C  C3451  1  0.074700  0.308700  0.327600  1
  C  C3452  1  0.925300  0.691300  0.827600  1
  C  C3453  1  0.691300  0.925300  0.172400  1
  C  C3454  1  0.308700  0.074700  0.672400  1
  C  C3455  1  0.425300  0.808700  0.922400  1
  C  C3456  1  0.574700  0.191300  0.422400  1
  C  C3457  1  0.805500  0.370400  0.079200  1
  C  C3458  1  0.194500  0.629600  0.579200  1
  C  C3459  1  0.129600  0.305500  0.329200  1
  C  C3460  1  0.870400  0.694500  0.829200  1
  C  C3461  1  0.694500  0.870400  0.170800  1
  C  C3462  1  0.305500  0.129600  0.670800  1
  C  C3463  1  0.370400  0.805500  0.920800  1
  C  C3464  1  0.629600  0.194500  0.420800  1
  C  C3465  1  0.825200  0.370900  0.099800  1
  C  C3466  1  0.174800  0.629100  0.599800  1
  C  C3467  1  0.129100  0.325200  0.349800  1
  C  C3468  1  0.870900  0.674800  0.849800  1
  C  C3469  1  0.674800  0.870900  0.150200  1
  C  C3470  1  0.325200  0.129100  0.650200  1
  C  C3471  1  0.370900  0.825200  0.900200  1
  C  C3472  1  0.629100  0.174800  0.400200  1
  C  C3473  1  0.838000  0.397600  0.108300  1
  C  C3474  1  0.162000  0.602400  0.608300  1
  C  C3475  1  0.102400  0.338000  0.358300  1
  C  C3476  1  0.897600  0.662000  0.858300  1
  C  C3477  1  0.662000  0.897600  0.141700  1
  C  C3478  1  0.338000  0.102400  0.641700  1
  C  C3479  1  0.397600  0.838000  0.891700  1
  C  C3480  1  0.602400  0.162000  0.391700  1
  C  C3481  1  0.830300  0.425200  0.097900  1
  C  C3482  1  0.169700  0.574800  0.597900  1
  C  C3483  1  0.074800  0.330300  0.347900  1
  C  C3484  1  0.925200  0.669700  0.847900  1
  C  C3485  1  0.669700  0.925200  0.152100  1
  C  C3486  1  0.330300  0.074800  0.652100  1
  C  C3487  1  0.425200  0.830300  0.902100  1
  C  C3488  1  0.574800  0.169700  0.402100  1
  C  C3489  1  0.833900  0.340800  0.110600  1
  C  C3490  1  0.166100  0.659200  0.610600  1
  C  C3491  1  0.159200  0.333900  0.360600  1
  C  C3492  1  0.840800  0.666100  0.860600  1
  C  C3493  1  0.666100  0.840800  0.139400  1
  C  C3494  1  0.333900  0.159200  0.639400  1
  C  C3495  1  0.340800  0.833900  0.889400  1
  C  C3496  1  0.659200  0.166100  0.389400  1
  C  C3497  1  0.812500  0.317800  0.116400  1
  C  C3498  1  0.187500  0.682200  0.616400  1
  C  C3499  1  0.182200  0.312500  0.366400  1
  C  C3500  1  0.817800  0.687500  0.866400  1
  C  C3501  1  0.687500  0.817800  0.133600  1
  C  C3502  1  0.312500  0.182200  0.633600  1
  C  C3503  1  0.317800  0.812500  0.883600  1
  C  C3504  1  0.682200  0.187500  0.383600  1
  C  C3505  1  0.852900  0.284200  0.128300  1
  C  C3506  1  0.147100  0.715800  0.628300  1
  C  C3507  1  0.215800  0.352900  0.378300  1
  C  C3508  1  0.784200  0.647100  0.878300  1
  C  C3509  1  0.647100  0.784200  0.121700  1
  C  C3510  1  0.352900  0.215800  0.621700  1
  C  C3511  1  0.284200  0.852900  0.871700  1
  C  C3512  1  0.715800  0.147100  0.371700  1
  C  C3513  1  0.875300  0.304900  0.121700  1
  C  C3514  1  0.124700  0.695100  0.621700  1
  C  C3515  1  0.195100  0.375300  0.371700  1
  C  C3516  1  0.804900  0.624700  0.871700  1
  C  C3517  1  0.624700  0.804900  0.128300  1
  C  C3518  1  0.375300  0.195100  0.628300  1
  C  C3519  1  0.304900  0.875300  0.878300  1
  C  C3520  1  0.695100  0.124700  0.378300  1
  C  C3521  1  0.866000  0.332000  0.113200  1
  C  C3522  1  0.134000  0.668000  0.613200  1
  C  C3523  1  0.168000  0.366000  0.363200  1
  C  C3524  1  0.832000  0.634000  0.863200  1
  C  C3525  1  0.634000  0.832000  0.136800  1
  C  C3526  1  0.366000  0.168000  0.636800  1
  C  C3527  1  0.332000  0.866000  0.886800  1
  C  C3528  1  0.668000  0.134000  0.386800  1
  C  C3529  1  0.858000  0.254700  0.137400  1
  C  C3530  1  0.142000  0.745300  0.637400  1
  C  C3531  1  0.245300  0.358000  0.387400  1
  C  C3532  1  0.754700  0.642000  0.887400  1
  C  C3533  1  0.642000  0.754700  0.112600  1
  C  C3534  1  0.358000  0.245300  0.612600  1
  C  C3535  1  0.254700  0.858000  0.862600  1
  C  C3536  1  0.745300  0.142000  0.362600  1
  C  C3537  1  0.839900  0.208000  0.153900  1
  C  C3538  1  0.160100  0.792000  0.653900  1
  C  C3539  1  0.292000  0.339900  0.403900  1
  C  C3540  1  0.708000  0.660100  0.903900  1
  C  C3541  1  0.660100  0.708000  0.096100  1
  C  C3542  1  0.339900  0.292000  0.596100  1
  C  C3543  1  0.208000  0.839900  0.846100  1
  C  C3544  1  0.792000  0.160100  0.346100  1
  C  C3545  1  0.822900  0.180600  0.146200  1
  C  C3546  1  0.177100  0.819400  0.646200  1
  C  C3547  1  0.319400  0.322900  0.396200  1
  C  C3548  1  0.680600  0.677100  0.896200  1
  C  C3549  1  0.677100  0.680600  0.103800  1
  C  C3550  1  0.322900  0.319400  0.603800  1
  C  C3551  1  0.180600  0.822900  0.853800  1
  C  C3552  1  0.819400  0.177100  0.353800  1
  C  C3553  1  0.826800  0.154400  0.156600  1
  C  C3554  1  0.173200  0.845600  0.656600  1
  C  C3555  1  0.345600  0.326800  0.406600  1
  C  C3556  1  0.654400  0.673200  0.906600  1
  C  C3557  1  0.673200  0.654400  0.093400  1
  C  C3558  1  0.326800  0.345600  0.593400  1
  C  C3559  1  0.154400  0.826800  0.843400  1
  C  C3560  1  0.845600  0.173200  0.343400  1
  C  C3561  1  0.847100  0.149700  0.175600  1
  C  C3562  1  0.152900  0.850300  0.675600  1
  C  C3563  1  0.350300  0.347100  0.425600  1
  C  C3564  1  0.649700  0.652900  0.925600  1
  C  C3565  1  0.652900  0.649700  0.074400  1
  C  C3566  1  0.347100  0.350300  0.574400  1
  C  C3567  1  0.149700  0.847100  0.824400  1
  C  C3568  1  0.850300  0.152900  0.324400  1
  C  C3569  1  0.866400  0.176200  0.184800  1
  C  C3570  1  0.133600  0.823800  0.684800  1
  C  C3571  1  0.323800  0.366400  0.434800  1
  C  C3572  1  0.676200  0.633600  0.934800  1
  C  C3573  1  0.633600  0.676200  0.065200  1
  C  C3574  1  0.366400  0.323800  0.565200  1
  C  C3575  1  0.176200  0.866400  0.815200  1
  C  C3576  1  0.823800  0.133600  0.315200  1
  C  C3577  1  0.862600  0.204500  0.172900  1
  C  C3578  1  0.137400  0.795500  0.672900  1
  C  C3579  1  0.295500  0.362600  0.422900  1
  C  C3580  1  0.704500  0.637400  0.922900  1
  C  C3581  1  0.637400  0.704500  0.077100  1
  C  C3582  1  0.362600  0.295500  0.577100  1
  C  C3583  1  0.204500  0.862600  0.827100  1
  C  C3584  1  0.795500  0.137400  0.327100  1
  C  C3585  1  0.851400  0.117900  0.191600  1
  C  C3586  1  0.148600  0.882100  0.691600  1
  C  C3587  1  0.382100  0.351400  0.441600  1
  C  C3588  1  0.617900  0.648600  0.941600  1
  C  C3589  1  0.648600  0.617900  0.058400  1
  C  C3590  1  0.351400  0.382100  0.558400  1
  C  C3591  1  0.117900  0.851400  0.808400  1
  C  C3592  1  0.882100  0.148600  0.308400  1
  C  C3593  1  0.719900  0.418300  0.071200  1
  C  C3594  1  0.280100  0.581700  0.571200  1
  C  C3595  1  0.081700  0.219900  0.321200  1
  C  C3596  1  0.918300  0.780100  0.821200  1
  C  C3597  1  0.780100  0.918300  0.178800  1
  C  C3598  1  0.219900  0.081700  0.678800  1
  C  C3599  1  0.418300  0.719900  0.928800  1
  C  C3600  1  0.581700  0.280100  0.428800  1
  C  C3601  1  0.732300  0.424200  0.094400  1
  C  C3602  1  0.267700  0.575800  0.594400  1
  C  C3603  1  0.075800  0.232300  0.344400  1
  C  C3604  1  0.924200  0.767700  0.844400  1
  C  C3605  1  0.767700  0.924200  0.155600  1
  C  C3606  1  0.232300  0.075800  0.655600  1
  C  C3607  1  0.424200  0.732300  0.905600  1
  C  C3608  1  0.575800  0.267700  0.405600  1
  C  C3609  1  0.717500  0.444700  0.110350  1
  C  C3610  1  0.282500  0.555300  0.610350  1
  C  C3611  1  0.055300  0.217500  0.360350  1
  C  C3612  1  0.944700  0.782500  0.860350  1
  C  C3613  1  0.782500  0.944700  0.139650  1
  C  C3614  1  0.217500  0.055300  0.639650  1
  C  C3615  1  0.444700  0.717500  0.889650  1
  C  C3616  1  0.555300  0.282500  0.389650  1
  C  C3617  1  0.690300  0.459300  0.103000  1
  C  C3618  1  0.309700  0.540700  0.603000  1
  C  C3619  1  0.040700  0.190300  0.353000  1
  C  C3620  1  0.959300  0.809700  0.853000  1
  C  C3621  1  0.809700  0.959300  0.147000  1
  C  C3622  1  0.190300  0.040700  0.647000  1
  C  C3623  1  0.459300  0.690300  0.897000  1
  C  C3624  1  0.540700  0.309700  0.397000  1
  C  C3625  1  0.677900  0.453400  0.079800  1
  C  C3626  1  0.322100  0.546600  0.579800  1
  C  C3627  1  0.046600  0.177900  0.329800  1
  C  C3628  1  0.953400  0.822100  0.829800  1
  C  C3629  1  0.822100  0.953400  0.170200  1
  C  C3630  1  0.177900  0.046600  0.670200  1
  C  C3631  1  0.453400  0.677900  0.920200  1
  C  C3632  1  0.546600  0.322100  0.420200  1
  C  C3633  1  0.692700  0.432900  0.063900  1
  C  C3634  1  0.307300  0.567100  0.563900  1
  C  C3635  1  0.067100  0.192700  0.313900  1
  C  C3636  1  0.932900  0.807300  0.813900  1
  C  C3637  1  0.807300  0.932900  0.186100  1
  C  C3638  1  0.192700  0.067100  0.686100  1
  C  C3639  1  0.432900  0.692700  0.936100  1
  C  C3640  1  0.567100  0.307300  0.436100  1
  C  C3641  1  0.673200  0.482300  0.124700  1
  C  C3642  1  0.326800  0.517700  0.624700  1
  C  C3643  1  0.017700  0.173200  0.374700  1
  C  C3644  1  0.982300  0.826800  0.874700  1
  C  C3645  1  0.826800  0.982300  0.125300  1
  C  C3646  1  0.173200  0.017700  0.625300  1
  C  C3647  1  0.482300  0.673200  0.875300  1
  C  C3648  1  0.517700  0.326800  0.375300  1
  C  C3649  1  0.723200  0.369700  0.054000  1
  C  C3650  1  0.276800  0.630300  0.554000  1
  C  C3651  1  0.130300  0.223200  0.304000  1
  C  C3652  1  0.869700  0.776800  0.804000  1
  C  C3653  1  0.776800  0.869700  0.196000  1
  C  C3654  1  0.223200  0.130300  0.696000  1
  C  C3655  1  0.369700  0.723200  0.946000  1
  C  C3656  1  0.630300  0.276800  0.446000  1
  C  C3657  1  0.740900  0.347600  0.039100  1
  C  C3658  1  0.259100  0.652400  0.539100  1
  C  C3659  1  0.152400  0.240900  0.289100  1
  C  C3660  1  0.847600  0.759100  0.789100  1
  C  C3661  1  0.759100  0.847600  0.210900  1
  C  C3662  1  0.240900  0.152400  0.710900  1
  C  C3663  1  0.347600  0.740900  0.960900  1
  C  C3664  1  0.652400  0.259100  0.460900  1
  C  C3665  1  0.786300  0.342900  0.013400  1
  C  C3666  1  0.213700  0.657100  0.513400  1
  C  C3667  1  0.157100  0.286300  0.263400  1
  C  C3668  1  0.842900  0.713700  0.763400  1
  C  C3669  1  0.713700  0.842900  0.236600  1
  C  C3670  1  0.286300  0.157100  0.736600  1
  C  C3671  1  0.342900  0.786300  0.986600  1
  C  C3672  1  0.657100  0.213700  0.486600  1
  C  C3673  1  0.778400  0.311200  0.009400  1
  C  C3674  1  0.221600  0.688800  0.509400  1
  C  C3675  1  0.188800  0.278400  0.259400  1
  C  C3676  1  0.811200  0.721600  0.759400  1
  C  C3677  1  0.721600  0.811200  0.240600  1
  C  C3678  1  0.278400  0.188800  0.740600  1
  C  C3679  1  0.311200  0.778400  0.990600  1
  C  C3680  1  0.688800  0.221600  0.490600  1
  C  C3681  1  0.751900  0.299600  0.020500  1
  C  C3682  1  0.248100  0.700400  0.520500  1
  C  C3683  1  0.200400  0.251900  0.270500  1
  C  C3684  1  0.799600  0.748100  0.770500  1
  C  C3685  1  0.748100  0.799600  0.229500  1
  C  C3686  1  0.251900  0.200400  0.729500  1
  C  C3687  1  0.299600  0.751900  0.979500  1
  C  C3688  1  0.700400  0.248100  0.479500  1
  C  C3689  1  0.733600  0.317200  0.034200  1
  C  C3690  1  0.266400  0.682800  0.534200  1
  C  C3691  1  0.182800  0.233600  0.284200  1
  C  C3692  1  0.817200  0.766400  0.784200  1
  C  C3693  1  0.766400  0.817200  0.215800  1
  C  C3694  1  0.233600  0.182800  0.715800  1
  C  C3695  1  0.317200  0.733600  0.965800  1
  C  C3696  1  0.682800  0.266400  0.465800  1
  C  C3697  1  0.798100  0.292400  0.992600  1
  C  C3698  1  0.201900  0.707600  0.492600  1
  C  C3699  1  0.207600  0.298100  0.242600  1
  C  C3700  1  0.792400  0.701900  0.742600  1
  C  C3701  1  0.701900  0.792400  0.257400  1
  C  C3702  1  0.298100  0.207600  0.757400  1
  C  C3703  1  0.292400  0.798100  0.007400  1
  C  C3704  1  0.707600  0.201900  0.507400  1
  C  C3705  1  0.828900  0.302300  0.986200  1
  C  C3706  1  0.171100  0.697700  0.486200  1
  C  C3707  1  0.197700  0.328900  0.236200  1
  C  C3708  1  0.802300  0.671100  0.736200  1
  C  C3709  1  0.671100  0.802300  0.263800  1
  C  C3710  1  0.328900  0.197700  0.763800  1
  C  C3711  1  0.302300  0.828900  0.013800  1
  C  C3712  1  0.697700  0.171100  0.513800  1
  C  C3713  1  0.835900  0.257400  0.966100  1
  C  C3714  1  0.164100  0.742600  0.466100  1
  C  C3715  1  0.242600  0.335900  0.216100  1
  C  C3716  1  0.757400  0.664100  0.716100  1
  C  C3717  1  0.664100  0.757400  0.283900  1
  C  C3718  1  0.335900  0.242600  0.783900  1
  C  C3719  1  0.257400  0.835900  0.033900  1
  C  C3720  1  0.742600  0.164100  0.533900  1
  C  C3721  1  0.806800  0.246000  0.969100  1
  C  C3722  1  0.193200  0.754000  0.469100  1
  C  C3723  1  0.254000  0.306800  0.219100  1
  C  C3724  1  0.746000  0.693200  0.719100  1
  C  C3725  1  0.693200  0.746000  0.280900  1
  C  C3726  1  0.306800  0.254000  0.780900  1
  C  C3727  1  0.246000  0.806800  0.030900  1
  C  C3728  1  0.754000  0.193200  0.530900  1
  C  C3729  1  0.788700  0.263300  0.983400  1
  C  C3730  1  0.211300  0.736700  0.483400  1
  C  C3731  1  0.236700  0.288700  0.233400  1
  C  C3732  1  0.763300  0.711300  0.733400  1
  C  C3733  1  0.711300  0.763300  0.266600  1
  C  C3734  1  0.288700  0.236700  0.766600  1
  C  C3735  1  0.263300  0.788700  0.016600  1
  C  C3736  1  0.736700  0.211300  0.516600  1
  C  C3737  1  0.858600  0.241600  0.950300  1
  C  C3738  1  0.141400  0.758400  0.450300  1
  C  C3739  1  0.258400  0.358600  0.200300  1
  C  C3740  1  0.741600  0.641400  0.700300  1
  C  C3741  1  0.641400  0.741600  0.299700  1
  C  C3742  1  0.358600  0.258400  0.799700  1
  C  C3743  1  0.241600  0.858600  0.049700  1
  C  C3744  1  0.758400  0.141400  0.549700  1
  C  C3745  1  0.908100  0.241400  0.930500  1
  C  C3746  1  0.091900  0.758600  0.430500  1
  C  C3747  1  0.258600  0.408100  0.180500  1
  C  C3748  1  0.741400  0.591900  0.680500  1
  C  C3749  1  0.591900  0.741400  0.319500  1
  C  C3750  1  0.408100  0.258600  0.819500  1
  C  C3751  1  0.241400  0.908100  0.069500  1
  C  C3752  1  0.758600  0.091900  0.569500  1
  C  C3753  1  0.926700  0.220200  0.942900  1
  C  C3754  1  0.073300  0.779800  0.442900  1
  C  C3755  1  0.279800  0.426700  0.192900  1
  C  C3756  1  0.720200  0.573300  0.692900  1
  C  C3757  1  0.573300  0.720200  0.307100  1
  C  C3758  1  0.426700  0.279800  0.807100  1
  C  C3759  1  0.220200  0.926700  0.057100  1
  C  C3760  1  0.779800  0.073300  0.557100  1
  C  C3761  1  0.948700  0.203100  0.930000  1
  C  C3762  1  0.051300  0.796900  0.430000  1
  C  C3763  1  0.296900  0.448700  0.180000  1
  C  C3764  1  0.703100  0.551300  0.680000  1
  C  C3765  1  0.551300  0.703100  0.320000  1
  C  C3766  1  0.448700  0.296900  0.820000  1
  C  C3767  1  0.203100  0.948700  0.070000  1
  C  C3768  1  0.796900  0.051300  0.570000  1
  C  C3769  1  0.952000  0.207200  0.904600  1
  C  C3770  1  0.048000  0.792800  0.404600  1
  C  C3771  1  0.292800  0.452000  0.154600  1
  C  C3772  1  0.707200  0.548000  0.654600  1
  C  C3773  1  0.548000  0.707200  0.345400  1
  C  C3774  1  0.452000  0.292800  0.845400  1
  C  C3775  1  0.207200  0.952000  0.095400  1
  C  C3776  1  0.792800  0.048000  0.595400  1
  C  C3777  1  0.933400  0.228400  0.892200  1
  C  C3778  1  0.066600  0.771600  0.392200  1
  C  C3779  1  0.271600  0.433400  0.142200  1
  C  C3780  1  0.728400  0.566600  0.642200  1
  C  C3781  1  0.566600  0.728400  0.357800  1
  C  C3782  1  0.433400  0.271600  0.857800  1
  C  C3783  1  0.228400  0.933400  0.107800  1
  C  C3784  1  0.771600  0.066600  0.607800  1
  C  C3785  1  0.911400  0.245500  0.905200  1
  C  C3786  1  0.088600  0.754500  0.405200  1
  C  C3787  1  0.254500  0.411400  0.155200  1
  C  C3788  1  0.745500  0.588600  0.655200  1
  C  C3789  1  0.588600  0.745500  0.344800  1
  C  C3790  1  0.411400  0.254500  0.844800  1
  C  C3791  1  0.245500  0.911400  0.094800  1
  C  C3792  1  0.754500  0.088600  0.594800  1
  C  C3793  1  0.976300  0.188200  0.890100  1
  C  C3794  1  0.023700  0.811800  0.390100  1
  C  C3795  1  0.311800  0.476300  0.140100  1
  C  C3796  1  0.688200  0.523700  0.640100  1
  C  C3797  1  0.523700  0.688200  0.359900  1
  C  C3798  1  0.476300  0.311800  0.859900  1
  C  C3799  1  0.188200  0.976300  0.109900  1
  C  C3800  1  0.811800  0.023700  0.609900  1
  C  C3801  1  0.829700  0.298400  0.181900  1
  C  C3802  1  0.170300  0.701600  0.681900  1
  C  C3803  1  0.201600  0.329700  0.431900  1
  C  C3804  1  0.798400  0.670300  0.931900  1
  C  C3805  1  0.670300  0.798400  0.068100  1
  C  C3806  1  0.329700  0.201600  0.568100  1
  C  C3807  1  0.298400  0.829700  0.818100  1
  C  C3808  1  0.701600  0.170300  0.318100  1
  C  C3809  1  0.822200  0.327300  0.173500  1
  C  C3810  1  0.177800  0.672700  0.673500  1
  C  C3811  1  0.172700  0.322200  0.423500  1
  C  C3812  1  0.827300  0.677800  0.923500  1
  C  C3813  1  0.677800  0.827300  0.076500  1
  C  C3814  1  0.322200  0.172700  0.576500  1
  C  C3815  1  0.327300  0.822200  0.826500  1
  C  C3816  1  0.672700  0.177800  0.326500  1
  C  C3817  1  0.844800  0.352000  0.177500  1
  C  C3818  1  0.155200  0.648000  0.677500  1
  C  C3819  1  0.148000  0.344800  0.427500  1
  C  C3820  1  0.852000  0.655200  0.927500  1
  C  C3821  1  0.655200  0.852000  0.072500  1
  C  C3822  1  0.344800  0.148000  0.572500  1
  C  C3823  1  0.352000  0.844800  0.822500  1
  C  C3824  1  0.648000  0.155200  0.322500  1
  C  C3825  1  0.872900  0.344000  0.188000  1
  C  C3826  1  0.127100  0.656000  0.688000  1
  C  C3827  1  0.156000  0.372900  0.438000  1
  C  C3828  1  0.844000  0.627100  0.938000  1
  C  C3829  1  0.627100  0.844000  0.062000  1
  C  C3830  1  0.372900  0.156000  0.562000  1
  C  C3831  1  0.344000  0.872900  0.812000  1
  C  C3832  1  0.656000  0.127100  0.312000  1
  C  C3833  1  0.880500  0.314500  0.194700  1
  C  C3834  1  0.119500  0.685500  0.694700  1
  C  C3835  1  0.185500  0.380500  0.444700  1
  C  C3836  1  0.814500  0.619500  0.944700  1
  C  C3837  1  0.619500  0.814500  0.055300  1
  C  C3838  1  0.380500  0.185500  0.555300  1
  C  C3839  1  0.314500  0.880500  0.805300  1
  C  C3840  1  0.685500  0.119500  0.305300  1
  C  C3841  1  0.857200  0.290500  0.193000  1
  C  C3842  1  0.142800  0.709500  0.693000  1
  C  C3843  1  0.209500  0.357200  0.443000  1
  C  C3844  1  0.790500  0.642800  0.943000  1
  C  C3845  1  0.642800  0.790500  0.057000  1
  C  C3846  1  0.357200  0.209500  0.557000  1
  C  C3847  1  0.290500  0.857200  0.807000  1
  C  C3848  1  0.709500  0.142800  0.307000  1
  C  C3849  1  0.898900  0.371000  0.191000  1
  C  C3850  1  0.101100  0.629000  0.691000  1
  C  C3851  1  0.129000  0.398900  0.441000  1
  C  C3852  1  0.871000  0.601100  0.941000  1
  C  C3853  1  0.601100  0.871000  0.059000  1
  C  C3854  1  0.398900  0.129000  0.559000  1
  C  C3855  1  0.371000  0.898900  0.809000  1
  C  C3856  1  0.629000  0.101100  0.309000  1
  C  C3857  1  0.802600  0.255000  0.194000  1
  C  C3858  1  0.197400  0.745000  0.694000  1
  C  C3859  1  0.245000  0.302600  0.444000  1
  C  C3860  1  0.755000  0.697400  0.944000  1
  C  C3861  1  0.697400  0.755000  0.056000  1
  C  C3862  1  0.302600  0.245000  0.556000  1
  C  C3863  1  0.255000  0.802600  0.806000  1
  C  C3864  1  0.745000  0.197400  0.306000  1
  C  C3865  1  0.781800  0.227400  0.186600  1
  C  C3866  1  0.218200  0.772600  0.686600  1
  C  C3867  1  0.272600  0.281800  0.436600  1
  C  C3868  1  0.727400  0.718200  0.936600  1
  C  C3869  1  0.718200  0.727400  0.063400  1
  C  C3870  1  0.281800  0.272600  0.563400  1
  C  C3871  1  0.227400  0.781800  0.813400  1
  C  C3872  1  0.772600  0.218200  0.313400  1
  C  C3873  1  0.755600  0.205500  0.154600  1
  C  C3874  1  0.244400  0.794500  0.654600  1
  C  C3875  1  0.294500  0.255600  0.404600  1
  C  C3876  1  0.705500  0.744400  0.904600  1
  C  C3877  1  0.744400  0.705500  0.095400  1
  C  C3878  1  0.255600  0.294500  0.595400  1
  C  C3879  1  0.205500  0.755600  0.845400  1
  C  C3880  1  0.794500  0.244400  0.345400  1
  C  C3881  1  0.746500  0.182300  0.170700  1
  C  C3882  1  0.253500  0.817700  0.670700  1
  C  C3883  1  0.317700  0.246500  0.420700  1
  C  C3884  1  0.682300  0.753500  0.920700  1
  C  C3885  1  0.753500  0.682300  0.079300  1
  C  C3886  1  0.246500  0.317700  0.579300  1
  C  C3887  1  0.182300  0.746500  0.829300  1
  C  C3888  1  0.817700  0.253500  0.329300  1
  C  C3889  1  0.753800  0.181100  0.195100  1
  C  C3890  1  0.246200  0.818900  0.695100  1
  C  C3891  1  0.318900  0.253800  0.445100  1
  C  C3892  1  0.681100  0.746200  0.945100  1
  C  C3893  1  0.746200  0.681100  0.054900  1
  C  C3894  1  0.253800  0.318900  0.554900  1
  C  C3895  1  0.181100  0.753800  0.804900  1
  C  C3896  1  0.818900  0.246200  0.304900  1
  C  C3897  1  0.773800  0.205000  0.203000  1
  C  C3898  1  0.226200  0.795000  0.703000  1
  C  C3899  1  0.295000  0.273800  0.453000  1
  C  C3900  1  0.705000  0.726200  0.953000  1
  C  C3901  1  0.726200  0.705000  0.047000  1
  C  C3902  1  0.273800  0.295000  0.547000  1
  C  C3903  1  0.205000  0.773800  0.797000  1
  C  C3904  1  0.795000  0.226200  0.297000  1
  C  C3905  1  0.727300  0.155500  0.159800  1
  C  C3906  1  0.272700  0.844500  0.659800  1
  C  C3907  1  0.344500  0.227300  0.409800  1
  C  C3908  1  0.655500  0.772700  0.909800  1
  C  C3909  1  0.772700  0.655500  0.090200  1
  C  C3910  1  0.227300  0.344500  0.590200  1
  C  C3911  1  0.155500  0.727300  0.840200  1
  C  C3912  1  0.844500  0.272700  0.340200  1
  C  C3913  1  0.701400  0.161700  0.145300  1
  C  C3914  1  0.298600  0.838300  0.645300  1
  C  C3915  1  0.338300  0.201400  0.395300  1
  C  C3916  1  0.661700  0.798600  0.895300  1
  C  C3917  1  0.798600  0.661700  0.104700  1
  C  C3918  1  0.201400  0.338300  0.604700  1
  C  C3919  1  0.161700  0.701400  0.854700  1
  C  C3920  1  0.838300  0.298600  0.354700  1
  C  C3921  1  0.691900  0.108300  0.141100  1
  C  C3922  1  0.308100  0.891700  0.641100  1
  C  C3923  1  0.391700  0.191900  0.391100  1
  C  C3924  1  0.608300  0.808100  0.891100  1
  C  C3925  1  0.808100  0.608300  0.108900  1
  C  C3926  1  0.191900  0.391700  0.608900  1
  C  C3927  1  0.108300  0.691900  0.858900  1
  C  C3928  1  0.891700  0.308100  0.358900  1
  C  C3929  1  0.715600  0.100600  0.156700  1
  C  C3930  1  0.284400  0.899400  0.656700  1
  C  C3931  1  0.399400  0.215600  0.406700  1
  C  C3932  1  0.600600  0.784400  0.906700  1
  C  C3933  1  0.784400  0.600600  0.093300  1
  C  C3934  1  0.215600  0.399400  0.593300  1
  C  C3935  1  0.100600  0.715600  0.843300  1
  C  C3936  1  0.899400  0.284400  0.343300  1
  C  C3937  1  0.735300  0.125100  0.167000  1
  C  C3938  1  0.264700  0.874900  0.667000  1
  C  C3939  1  0.374900  0.235300  0.417000  1
  C  C3940  1  0.625100  0.764700  0.917000  1
  C  C3941  1  0.764700  0.625100  0.083000  1
  C  C3942  1  0.235300  0.374900  0.583000  1
  C  C3943  1  0.125100  0.735300  0.833000  1
  C  C3944  1  0.874900  0.264700  0.333000  1
  C  C3945  1  0.671200  0.087000  0.129900  1
  C  C3946  1  0.328800  0.913000  0.629900  1
  C  C3947  1  0.413000  0.171200  0.379900  1
  C  C3948  1  0.587000  0.828800  0.879900  1
  C  C3949  1  0.828800  0.587000  0.120100  1
  C  C3950  1  0.171200  0.413000  0.620100  1
  C  C3951  1  0.087000  0.671200  0.870100  1
  C  C3952  1  0.913000  0.328800  0.370100  1
  C  C3953  1  0.627700  0.075900  0.105400  1
  C  C3954  1  0.372300  0.924100  0.605400  1
  C  C3955  1  0.424100  0.127700  0.355400  1
  C  C3956  1  0.575900  0.872300  0.855400  1
  C  C3957  1  0.872300  0.575900  0.144600  1
  C  C3958  1  0.127700  0.424100  0.644600  1
  C  C3959  1  0.075900  0.627700  0.894600  1
  C  C3960  1  0.924100  0.372300  0.394600  1
  C  C3961  1  0.619100  0.079200  0.082800  1
  C  C3962  1  0.380900  0.920800  0.582800  1
  C  C3963  1  0.420800  0.119100  0.332800  1
  C  C3964  1  0.579200  0.880900  0.832800  1
  C  C3965  1  0.880900  0.579200  0.167200  1
  C  C3966  1  0.119100  0.420800  0.667200  1
  C  C3967  1  0.079200  0.619100  0.917200  1
  C  C3968  1  0.920800  0.380900  0.417200  1
  C  C3969  1  0.595100  0.059300  0.071500  1
  C  C3970  1  0.404900  0.940700  0.571500  1
  C  C3971  1  0.440700  0.095100  0.321500  1
  C  C3972  1  0.559300  0.904900  0.821500  1
  C  C3973  1  0.904900  0.559300  0.178500  1
  C  C3974  1  0.095100  0.440700  0.678500  1
  C  C3975  1  0.059300  0.595100  0.928500  1
  C  C3976  1  0.940700  0.404900  0.428500  1
  C  C3977  1  0.582800  0.039400  0.086800  1
  C  C3978  1  0.417200  0.960600  0.586800  1
  C  C3979  1  0.460600  0.082800  0.336800  1
  C  C3980  1  0.539400  0.917200  0.836800  1
  C  C3981  1  0.917200  0.539400  0.163200  1
  C  C3982  1  0.082800  0.460600  0.663200  1
  C  C3983  1  0.039400  0.582800  0.913200  1
  C  C3984  1  0.960600  0.417200  0.413200  1
  C  C3985  1  0.589400  0.034700  0.109400  1
  C  C3986  1  0.410600  0.965300  0.609400  1
  C  C3987  1  0.465300  0.089400  0.359400  1
  C  C3988  1  0.534700  0.910600  0.859400  1
  C  C3989  1  0.910600  0.534700  0.140600  1
  C  C3990  1  0.089400  0.465300  0.640600  1
  C  C3991  1  0.034700  0.589400  0.890600  1
  C  C3992  1  0.965300  0.410600  0.390600  1
  C  C3993  1  0.614400  0.054500  0.120300  1
  C  C3994  1  0.385600  0.945500  0.620300  1
  C  C3995  1  0.445500  0.114400  0.370300  1
  C  C3996  1  0.554500  0.885600  0.870300  1
  C  C3997  1  0.885600  0.554500  0.129700  1
  C  C3998  1  0.114400  0.445500  0.629700  1
  C  C3999  1  0.054500  0.614400  0.879700  1
  C  C4000  1  0.945500  0.385600  0.379700  1
  C  C4001  1  0.553900  0.017700  0.075700  1
  C  C4002  1  0.446100  0.982300  0.575700  1
  C  C4003  1  0.482300  0.053900  0.325700  1
  C  C4004  1  0.517700  0.946100  0.825700  1
  C  C4005  1  0.946100  0.517700  0.174300  1
  C  C4006  1  0.053900  0.482300  0.674300  1
  C  C4007  1  0.017700  0.553900  0.924300  1
  C  C4008  1  0.982300  0.446100  0.424300  1
  C  C4009  1  0.739900  0.295700  0.163300  1
  C  C4010  1  0.260100  0.704300  0.663300  1
  C  C4011  1  0.204300  0.239900  0.413300  1
  C  C4012  1  0.795700  0.760100  0.913300  1
  C  C4013  1  0.760100  0.795700  0.086700  1
  C  C4014  1  0.239900  0.204300  0.586700  1
  C  C4015  1  0.295700  0.739900  0.836700  1
  C  C4016  1  0.704300  0.260100  0.336700  1
  C  C4017  1  0.741900  0.327500  0.166800  1
  C  C4018  1  0.258100  0.672500  0.666800  1
  C  C4019  1  0.172500  0.241900  0.416800  1
  C  C4020  1  0.827500  0.758100  0.916800  1
  C  C4021  1  0.758100  0.827500  0.083200  1
  C  C4022  1  0.241900  0.172500  0.583200  1
  C  C4023  1  0.327500  0.741900  0.833200  1
  C  C4024  1  0.672500  0.258100  0.333200  1
  C  C4025  1  0.729100  0.341000  0.187800  1
  C  C4026  1  0.270900  0.659000  0.687800  1
  C  C4027  1  0.159000  0.229100  0.437800  1
  C  C4028  1  0.841000  0.770900  0.937800  1
  C  C4029  1  0.770900  0.841000  0.062200  1
  C  C4030  1  0.229100  0.159000  0.562200  1
  C  C4031  1  0.341000  0.729100  0.812200  1
  C  C4032  1  0.659000  0.270900  0.312200  1
  C  C4033  1  0.714400  0.322600  0.205300  1
  C  C4034  1  0.285600  0.677400  0.705300  1
  C  C4035  1  0.177400  0.214400  0.455300  1
  C  C4036  1  0.822600  0.785600  0.955300  1
  C  C4037  1  0.785600  0.822600  0.044700  1
  C  C4038  1  0.214400  0.177400  0.544700  1
  C  C4039  1  0.322600  0.714400  0.794700  1
  C  C4040  1  0.677400  0.285600  0.294700  1
  C  C4041  1  0.712400  0.290800  0.201800  1
  C  C4042  1  0.287600  0.709200  0.701800  1
  C  C4043  1  0.209200  0.212400  0.451800  1
  C  C4044  1  0.790800  0.787600  0.951800  1
  C  C4045  1  0.787600  0.790800  0.048200  1
  C  C4046  1  0.212400  0.209200  0.548200  1
  C  C4047  1  0.290800  0.712400  0.798200  1
  C  C4048  1  0.709200  0.287600  0.298200  1
  C  C4049  1  0.725100  0.277300  0.180800  1
  C  C4050  1  0.274900  0.722700  0.680800  1
  C  C4051  1  0.222700  0.225100  0.430800  1
  C  C4052  1  0.777300  0.774900  0.930800  1
  C  C4053  1  0.774900  0.777300  0.069200  1
  C  C4054  1  0.225100  0.222700  0.569200  1
  C  C4055  1  0.277300  0.725100  0.819200  1
  C  C4056  1  0.722700  0.274900  0.319200  1
  C  C4057  1  0.701400  0.337600  0.229100  1
  C  C4058  1  0.298600  0.662400  0.729100  1
  C  C4059  1  0.162400  0.201400  0.479100  1
  C  C4060  1  0.837600  0.798600  0.979100  1
  C  C4061  1  0.798600  0.837600  0.020900  1
  C  C4062  1  0.201400  0.162400  0.520900  1
  C  C4063  1  0.337600  0.701400  0.770900  1
  C  C4064  1  0.662400  0.298600  0.270900  1
  C  C4065  1  0.737700  0.276400  0.124400  1
  C  C4066  1  0.262300  0.723600  0.624400  1
  C  C4067  1  0.223600  0.237700  0.374400  1
  C  C4068  1  0.776400  0.762300  0.874400  1
  C  C4069  1  0.762300  0.776400  0.125600  1
  C  C4070  1  0.237700  0.223600  0.625600  1
  C  C4071  1  0.276400  0.737700  0.875600  1
  C  C4072  1  0.723600  0.262300  0.375600  1
  C  C4073  1  0.751700  0.258800  0.104000  1
  C  C4074  1  0.248300  0.741200  0.604000  1
  C  C4075  1  0.241200  0.251700  0.354000  1
  C  C4076  1  0.758800  0.748300  0.854000  1
  C  C4077  1  0.748300  0.758800  0.146000  1
  C  C4078  1  0.251700  0.241200  0.646000  1
  C  C4079  1  0.258800  0.751700  0.896000  1
  C  C4080  1  0.741200  0.248300  0.396000  1
  C  C4081  1  0.794200  0.229400  0.093300  1
  C  C4082  1  0.205800  0.770600  0.593300  1
  C  C4083  1  0.270600  0.294200  0.343300  1
  C  C4084  1  0.729400  0.705800  0.843300  1
  C  C4085  1  0.705800  0.729400  0.156700  1
  C  C4086  1  0.294200  0.270600  0.656700  1
  C  C4087  1  0.229400  0.794200  0.906700  1
  C  C4088  1  0.770600  0.205800  0.406700  1
  C  C4089  1  0.782300  0.221600  0.070200  1
  C  C4090  1  0.217700  0.778400  0.570200  1
  C  C4091  1  0.278400  0.282300  0.320200  1
  C  C4092  1  0.721600  0.717700  0.820200  1
  C  C4093  1  0.717700  0.721600  0.179800  1
  C  C4094  1  0.282300  0.278400  0.679800  1
  C  C4095  1  0.221600  0.782300  0.929800  1
  C  C4096  1  0.778400  0.217700  0.429800  1
  C  C4097  1  0.753100  0.233700  0.064200  1
  C  C4098  1  0.246900  0.766300  0.564200  1
  C  C4099  1  0.266300  0.253100  0.314200  1
  C  C4100  1  0.733700  0.746900  0.814200  1
  C  C4101  1  0.746900  0.733700  0.185800  1
  C  C4102  1  0.253100  0.266300  0.685800  1
  C  C4103  1  0.233700  0.753100  0.935800  1
  C  C4104  1  0.766300  0.246900  0.435800  1
  C  C4105  1  0.739300  0.252400  0.081200  1
  C  C4106  1  0.260700  0.747600  0.581200  1
  C  C4107  1  0.247600  0.239300  0.331200  1
  C  C4108  1  0.752400  0.760700  0.831200  1
  C  C4109  1  0.760700  0.752400  0.168800  1
  C  C4110  1  0.239300  0.247600  0.668800  1
  C  C4111  1  0.252400  0.739300  0.918800  1
  C  C4112  1  0.747600  0.260700  0.418800  1
  C  C4113  1  0.798800  0.202500  0.053500  1
  C  C4114  1  0.201200  0.797500  0.553500  1
  C  C4115  1  0.297500  0.298800  0.303500  1
  C  C4116  1  0.702500  0.701200  0.803500  1
  C  C4117  1  0.701200  0.702500  0.196500  1
  C  C4118  1  0.298800  0.297500  0.696500  1
  C  C4119  1  0.202500  0.798800  0.946500  1
  C  C4120  1  0.797500  0.201200  0.446500  1
  C  C4121  1  0.826500  0.183700  0.060800  1
  C  C4122  1  0.173500  0.816300  0.560800  1
  C  C4123  1  0.316300  0.326500  0.310800  1
  C  C4124  1  0.683700  0.673500  0.810800  1
  C  C4125  1  0.673500  0.683700  0.189200  1
  C  C4126  1  0.326500  0.316300  0.689200  1
  C  C4127  1  0.183700  0.826500  0.939200  1
  C  C4128  1  0.816300  0.173500  0.439200  1
  C  C4129  1  0.833800  0.161100  0.022200  1
  C  C4130  1  0.166200  0.838900  0.522200  1
  C  C4131  1  0.338900  0.333800  0.272200  1
  C  C4132  1  0.661100  0.666200  0.772200  1
  C  C4133  1  0.666200  0.661100  0.227800  1
  C  C4134  1  0.333800  0.338900  0.727800  1
  C  C4135  1  0.161100  0.833800  0.977800  1
  C  C4136  1  0.838900  0.166200  0.477800  1
  C  C4137  1  0.808500  0.179300  0.014000  1
  C  C4138  1  0.191500  0.820700  0.514000  1
  C  C4139  1  0.320700  0.308500  0.264000  1
  C  C4140  1  0.679300  0.691500  0.764000  1
  C  C4141  1  0.691500  0.679300  0.236000  1
  C  C4142  1  0.308500  0.320700  0.736000  1
  C  C4143  1  0.179300  0.808500  0.986000  1
  C  C4144  1  0.820700  0.191500  0.486000  1
  C  C4145  1  0.791900  0.198000  0.029200  1
  C  C4146  1  0.208100  0.802000  0.529200  1
  C  C4147  1  0.302000  0.291900  0.279200  1
  C  C4148  1  0.698000  0.708100  0.779200  1
  C  C4149  1  0.708100  0.698000  0.220800  1
  C  C4150  1  0.291900  0.302000  0.720800  1
  C  C4151  1  0.198000  0.791900  0.970800  1
  C  C4152  1  0.802000  0.208100  0.470800  1
  C  C4153  1  0.849800  0.142700  0.009600  1
  C  C4154  1  0.150200  0.857300  0.509600  1
  C  C4155  1  0.357300  0.349800  0.259600  1
  C  C4156  1  0.642700  0.650200  0.759600  1
  C  C4157  1  0.650200  0.642700  0.240400  1
  C  C4158  1  0.349800  0.357300  0.740400  1
  C  C4159  1  0.142700  0.849800  0.990400  1
  C  C4160  1  0.857300  0.150200  0.490400  1
  C  C4161  1  0.891500  0.106900  0.007100  1
  C  C4162  1  0.108500  0.893100  0.507100  1
  C  C4163  1  0.393100  0.391500  0.257100  1
  C  C4164  1  0.606900  0.608500  0.757100  1
  C  C4165  1  0.608500  0.606900  0.242900  1
  C  C4166  1  0.391500  0.393100  0.742900  1
  C  C4167  1  0.106900  0.891500  0.992900  1
  C  C4168  1  0.893100  0.108500  0.492900  1
  C  C4169  1  0.922300  0.113600  0.002000  1
  C  C4170  1  0.077700  0.886400  0.502000  1
  C  C4171  1  0.386400  0.422300  0.252000  1
  C  C4172  1  0.613600  0.577700  0.752000  1
  C  C4173  1  0.577700  0.613600  0.248000  1
  C  C4174  1  0.422300  0.386400  0.748000  1
  C  C4175  1  0.113600  0.922300  0.998000  1
  C  C4176  1  0.886400  0.077700  0.498000  1
  C  C4177  1  0.940100  0.093000  0.988300  1
  C  C4178  1  0.059900  0.907000  0.488300  1
  C  C4179  1  0.407000  0.440100  0.238300  1
  C  C4180  1  0.593000  0.559900  0.738300  1
  C  C4181  1  0.559900  0.593000  0.261700  1
  C  C4182  1  0.440100  0.407000  0.761700  1
  C  C4183  1  0.093000  0.940100  0.011700  1
  C  C4184  1  0.907000  0.059900  0.511700  1
  C  C4185  1  0.927000  0.065600  0.979600  1
  C  C4186  1  0.073000  0.934400  0.479600  1
  C  C4187  1  0.434400  0.427000  0.229600  1
  C  C4188  1  0.565600  0.573000  0.729600  1
  C  C4189  1  0.573000  0.565600  0.270400  1
  C  C4190  1  0.427000  0.434400  0.770400  1
  C  C4191  1  0.065600  0.927000  0.020400  1
  C  C4192  1  0.934400  0.073000  0.520400  1
  C  C4193  1  0.896100  0.058900  0.984700  1
  C  C4194  1  0.103900  0.941100  0.484700  1
  C  C4195  1  0.441100  0.396100  0.234700  1
  C  C4196  1  0.558900  0.603900  0.734700  1
  C  C4197  1  0.603900  0.558900  0.265300  1
  C  C4198  1  0.396100  0.441100  0.765300  1
  C  C4199  1  0.058900  0.896100  0.015300  1
  C  C4200  1  0.941100  0.103900  0.515300  1
  C  C4201  1  0.878400  0.079500  0.998400  1
  C  C4202  1  0.121600  0.920500  0.498400  1
  C  C4203  1  0.420500  0.378400  0.248400  1
  C  C4204  1  0.579500  0.621600  0.748400  1
  C  C4205  1  0.621600  0.579500  0.251600  1
  C  C4206  1  0.378400  0.420500  0.751600  1
  C  C4207  1  0.079500  0.878400  0.001600  1
  C  C4208  1  0.920500  0.121600  0.501600  1
  C  C4209  1  0.946600  0.042600  0.964400  1
  C  C4210  1  0.053400  0.957400  0.464400  1
  C  C4211  1  0.457400  0.446600  0.214400  1
  C  C4212  1  0.542600  0.553400  0.714400  1
  C  C4213  1  0.553400  0.542600  0.285600  1
  C  C4214  1  0.446600  0.457400  0.785600  1
  C  C4215  1  0.042600  0.946600  0.035600  1
  C  C4216  1  0.957400  0.053400  0.535600  1
  C  C4217  1  0.637500  0.123200  0.176700  1
  C  C4218  1  0.362500  0.876800  0.676700  1
  C  C4219  1  0.376800  0.137500  0.426700  1
  C  C4220  1  0.623200  0.862500  0.926700  1
  C  C4221  1  0.862500  0.623200  0.073300  1
  C  C4222  1  0.137500  0.376800  0.573300  1
  C  C4223  1  0.123200  0.637500  0.823300  1
  C  C4224  1  0.876800  0.362500  0.323300  1
  C  C4225  1  0.652800  0.145600  0.188700  1
  C  C4226  1  0.347200  0.854400  0.688700  1
  C  C4227  1  0.354400  0.152800  0.438700  1
  C  C4228  1  0.645600  0.847200  0.938700  1
  C  C4229  1  0.847200  0.645600  0.061300  1
  C  C4230  1  0.152800  0.354400  0.561300  1
  C  C4231  1  0.145600  0.652800  0.811300  1
  C  C4232  1  0.854400  0.347200  0.311300  1
  C  C4233  1  0.670500  0.139100  0.209600  1
  C  C4234  1  0.329500  0.860900  0.709600  1
  C  C4235  1  0.360900  0.170500  0.459600  1
  C  C4236  1  0.639100  0.829500  0.959600  1
  C  C4237  1  0.829500  0.639100  0.040400  1
  C  C4238  1  0.170500  0.360900  0.540400  1
  C  C4239  1  0.139100  0.670500  0.790400  1
  C  C4240  1  0.860900  0.329500  0.290400  1
  C  C4241  1  0.670900  0.109400  0.219900  1
  C  C4242  1  0.329100  0.890600  0.719900  1
  C  C4243  1  0.390600  0.170900  0.469900  1
  C  C4244  1  0.609400  0.829100  0.969900  1
  C  C4245  1  0.829100  0.609400  0.030100  1
  C  C4246  1  0.170900  0.390600  0.530100  1
  C  C4247  1  0.109400  0.670900  0.780100  1
  C  C4248  1  0.890600  0.329100  0.280100  1
  C  C4249  1  0.652100  0.088000  0.207700  1
  C  C4250  1  0.347900  0.912000  0.707700  1
  C  C4251  1  0.412000  0.152100  0.457700  1
  C  C4252  1  0.588000  0.847900  0.957700  1
  C  C4253  1  0.847900  0.588000  0.042300  1
  C  C4254  1  0.152100  0.412000  0.542300  1
  C  C4255  1  0.088000  0.652100  0.792300  1
  C  C4256  1  0.912000  0.347900  0.292300  1
  C  C4257  1  0.635800  0.093500  0.186000  1
  C  C4258  1  0.364200  0.906500  0.686000  1
  C  C4259  1  0.406500  0.135800  0.436000  1
  C  C4260  1  0.593500  0.864200  0.936000  1
  C  C4261  1  0.864200  0.593500  0.064000  1
  C  C4262  1  0.135800  0.406500  0.564000  1
  C  C4263  1  0.093500  0.635800  0.814000  1
  C  C4264  1  0.906500  0.364200  0.314000  1
  C  C4265  1  0.688300  0.102300  0.242100  1
  C  C4266  1  0.311700  0.897700  0.742100  1
  C  C4267  1  0.397700  0.188300  0.492100  1
  C  C4268  1  0.602300  0.811700  0.992100  1
  C  C4269  1  0.811700  0.602300  0.007900  1
  C  C4270  1  0.188300  0.397700  0.507900  1
  C  C4271  1  0.102300  0.688300  0.757900  1
  C  C4272  1  0.897700  0.311700  0.257900  1
  C  C4273  1  0.593500  0.119600  0.152100  1
  C  C4274  1  0.406500  0.880400  0.652100  1
  C  C4275  1  0.380400  0.093500  0.402100  1
  C  C4276  1  0.619600  0.906500  0.902100  1
  C  C4277  1  0.906500  0.619600  0.097900  1
  C  C4278  1  0.093500  0.380400  0.597900  1
  C  C4279  1  0.119600  0.593500  0.847900  1
  C  C4280  1  0.880400  0.406500  0.347900  1
  C  C4281  1  0.579700  0.124000  0.126700  1
  C  C4282  1  0.420300  0.876000  0.626700  1
  C  C4283  1  0.376000  0.079700  0.376700  1
  C  C4284  1  0.624000  0.920300  0.876700  1
  C  C4285  1  0.920300  0.624000  0.123300  1
  C  C4286  1  0.079700  0.376000  0.623300  1
  C  C4287  1  0.124000  0.579700  0.873300  1
  C  C4288  1  0.876000  0.420300  0.373300  1
  C  C4289  1  0.587400  0.144400  0.088700  1
  C  C4290  1  0.412600  0.855600  0.588700  1
  C  C4291  1  0.355600  0.087400  0.338700  1
  C  C4292  1  0.644400  0.912600  0.838700  1
  C  C4293  1  0.912600  0.644400  0.161300  1
  C  C4294  1  0.087400  0.355600  0.661300  1
  C  C4295  1  0.144400  0.587400  0.911300  1
  C  C4296  1  0.855600  0.412600  0.411300  1
  C  C4297  1  0.558600  0.134000  0.080700  1
  C  C4298  1  0.441400  0.866000  0.580700  1
  C  C4299  1  0.366000  0.058600  0.330700  1
  C  C4300  1  0.634000  0.941400  0.830700  1
  C  C4301  1  0.941400  0.634000  0.169300  1
  C  C4302  1  0.058600  0.366000  0.669300  1
  C  C4303  1  0.134000  0.558600  0.919300  1
  C  C4304  1  0.866000  0.441400  0.419300  1
  C  C4305  1  0.538000  0.117900  0.098700  1
  C  C4306  1  0.462000  0.882100  0.598700  1
  C  C4307  1  0.382100  0.038000  0.348700  1
  C  C4308  1  0.617900  0.962000  0.848700  1
  C  C4309  1  0.962000  0.617900  0.151300  1
  C  C4310  1  0.038000  0.382100  0.651300  1
  C  C4311  1  0.117900  0.538000  0.901300  1
  C  C4312  1  0.882100  0.462000  0.401300  1
  C  C4313  1  0.549700  0.114800  0.121000  1
  C  C4314  1  0.450300  0.885200  0.621000  1
  C  C4315  1  0.385200  0.049700  0.371000  1
  C  C4316  1  0.614800  0.950300  0.871000  1
  C  C4317  1  0.950300  0.614800  0.129000  1
  C  C4318  1  0.049700  0.385200  0.629000  1
  C  C4319  1  0.114800  0.549700  0.879000  1
  C  C4320  1  0.885200  0.450300  0.379000  1
  C  C4321  1  0.547200  0.136300  0.055200  1
  C  C4322  1  0.452800  0.863700  0.555200  1
  C  C4323  1  0.363700  0.047200  0.305200  1
  C  C4324  1  0.636300  0.952800  0.805200  1
  C  C4325  1  0.952800  0.636300  0.194800  1
  C  C4326  1  0.047200  0.363700  0.694800  1
  C  C4327  1  0.136300  0.547200  0.944800  1
  C  C4328  1  0.863700  0.452800  0.444800  1
  C  C4329  1  0.547000  0.165500  0.043900  1
  C  C4330  1  0.453000  0.834500  0.543900  1
  C  C4331  1  0.334500  0.047000  0.293900  1
  C  C4332  1  0.665500  0.953000  0.793900  1
  C  C4333  1  0.953000  0.665500  0.206100  1
  C  C4334  1  0.047000  0.334500  0.706100  1
  C  C4335  1  0.165500  0.547000  0.956100  1
  C  C4336  1  0.834500  0.453000  0.456100  1
  C  C4337  1  0.527000  0.144000  0.007700  1
  C  C4338  1  0.473000  0.856000  0.507700  1
  C  C4339  1  0.356000  0.027000  0.257700  1
  C  C4340  1  0.644000  0.973000  0.757700  1
  C  C4341  1  0.973000  0.644000  0.242300  1
  C  C4342  1  0.027000  0.356000  0.742300  1
  C  C4343  1  0.144000  0.527000  0.992300  1
  C  C4344  1  0.856000  0.473000  0.492300  1
  C  C4345  1  0.527500  0.113800  0.018300  1
  C  C4346  1  0.472500  0.886200  0.518300  1
  C  C4347  1  0.386200  0.027500  0.268300  1
  C  C4348  1  0.613800  0.972500  0.768300  1
  C  C4349  1  0.972500  0.613800  0.231700  1
  C  C4350  1  0.027500  0.386200  0.731700  1
  C  C4351  1  0.113800  0.527500  0.981700  1
  C  C4352  1  0.886200  0.472500  0.481700  1
  C  C4353  1  0.535500  0.112000  0.042300  1
  C  C4354  1  0.464500  0.888000  0.542300  1
  C  C4355  1  0.388000  0.035500  0.292300  1
  C  C4356  1  0.612000  0.964500  0.792300  1
  C  C4357  1  0.964500  0.612000  0.207700  1
  C  C4358  1  0.035500  0.388000  0.707700  1
  C  C4359  1  0.112000  0.535500  0.957700  1
  C  C4360  1  0.888000  0.464500  0.457700  1
  C  C4361  1  0.521000  0.151200  0.981200  1
  C  C4362  1  0.479000  0.848800  0.481200  1
  C  C4363  1  0.348800  0.021000  0.231200  1
  C  C4364  1  0.651200  0.979000  0.731200  1
  C  C4365  1  0.979000  0.651200  0.268800  1
  C  C4366  1  0.021000  0.348800  0.768800  1
  C  C4367  1  0.151200  0.521000  0.018800  1
  C  C4368  1  0.848800  0.479000  0.518800  1
  C  C4369  1  0.513600  0.185900  0.950200  1
  C  C4370  1  0.486400  0.814100  0.450200  1
  C  C4371  1  0.314100  0.013600  0.200200  1
  C  C4372  1  0.685900  0.986400  0.700200  1
  C  C4373  1  0.986400  0.685900  0.299800  1
  C  C4374  1  0.013600  0.314100  0.799800  1
  C  C4375  1  0.185900  0.513600  0.049800  1
  C  C4376  1  0.814100  0.486400  0.549800  1
  C  C4377  1  0.531600  0.206000  0.937200  1
  C  C4378  1  0.468400  0.794000  0.437200  1
  C  C4379  1  0.294000  0.031600  0.187200  1
  C  C4380  1  0.706000  0.968400  0.687200  1
  C  C4381  1  0.968400  0.706000  0.312800  1
  C  C4382  1  0.031600  0.294000  0.812800  1
  C  C4383  1  0.206000  0.531600  0.062800  1
  C  C4384  1  0.794000  0.468400  0.562800  1
  C  C4385  1  0.522100  0.214300  0.913200  1
  C  C4386  1  0.477900  0.785700  0.413200  1
  C  C4387  1  0.285700  0.022100  0.163200  1
  C  C4388  1  0.714300  0.977900  0.663200  1
  C  C4389  1  0.977900  0.714300  0.336800  1
  C  C4390  1  0.022100  0.285700  0.836800  1
  C  C4391  1  0.214300  0.522100  0.086800  1
  C  C4392  1  0.785700  0.477900  0.586800  1
  C  C4393  1  0.494200  0.203100  0.903400  1
  C  C4394  1  0.505800  0.796900  0.403400  1
  C  C4395  1  0.296900  0.994200  0.153400  1
  C  C4396  1  0.703100  0.005800  0.653400  1
  C  C4397  1  0.005800  0.703100  0.346600  1
  C  C4398  1  0.994200  0.296900  0.846600  1
  C  C4399  1  0.203100  0.494200  0.096600  1
  C  C4400  1  0.796900  0.505800  0.596600  1
  C  C4401  1  0.478300  0.183100  0.916300  1
  C  C4402  1  0.521700  0.816900  0.416300  1
  C  C4403  1  0.316900  0.978300  0.166300  1
  C  C4404  1  0.683100  0.021700  0.666300  1
  C  C4405  1  0.021700  0.683100  0.333700  1
  C  C4406  1  0.978300  0.316900  0.833700  1
  C  C4407  1  0.183100  0.478300  0.083700  1
  C  C4408  1  0.816900  0.521700  0.583700  1
  C  C4409  1  0.486400  0.171300  0.940000  1
  C  C4410  1  0.513600  0.828700  0.440000  1
  C  C4411  1  0.328700  0.986400  0.190000  1
  C  C4412  1  0.671300  0.013600  0.690000  1
  C  C4413  1  0.013600  0.671300  0.310000  1
  C  C4414  1  0.986400  0.328700  0.810000  1
  C  C4415  1  0.171300  0.486400  0.060000  1
  C  C4416  1  0.828700  0.513600  0.560000  1
  C  C4417  1  0.483800  0.212700  0.876800  1
  C  C4418  1  0.516200  0.787300  0.376800  1
  C  C4419  1  0.287300  0.983800  0.126800  1
  C  C4420  1  0.712700  0.016200  0.626800  1
  C  C4421  1  0.016200  0.712700  0.373200  1
  C  C4422  1  0.983800  0.287300  0.873200  1
  C  C4423  1  0.212700  0.483800  0.123200  1
  C  C4424  1  0.787300  0.516200  0.623200  1
  C  C4425  1  0.624200  0.201800  0.148400  1
  C  C4426  1  0.375800  0.798200  0.648400  1
  C  C4427  1  0.298200  0.124200  0.398400  1
  C  C4428  1  0.701800  0.875800  0.898400  1
  C  C4429  1  0.875800  0.701800  0.101600  1
  C  C4430  1  0.124200  0.298200  0.601600  1
  C  C4431  1  0.201800  0.624200  0.851600  1
  C  C4432  1  0.798200  0.375800  0.351600  1
  C  C4433  1  0.641900  0.221900  0.162700  1
  C  C4434  1  0.358100  0.778100  0.662700  1
  C  C4435  1  0.278100  0.141900  0.412700  1
  C  C4436  1  0.721900  0.858100  0.912700  1
  C  C4437  1  0.858100  0.721900  0.087300  1
  C  C4438  1  0.141900  0.278100  0.587300  1
  C  C4439  1  0.221900  0.641900  0.837300  1
  C  C4440  1  0.778100  0.358100  0.337300  1
  C  C4441  1  0.632100  0.235300  0.183700  1
  C  C4442  1  0.367900  0.764700  0.683700  1
  C  C4443  1  0.264700  0.132100  0.433700  1
  C  C4444  1  0.735300  0.867900  0.933700  1
  C  C4445  1  0.867900  0.735300  0.066300  1
  C  C4446  1  0.132100  0.264700  0.566300  1
  C  C4447  1  0.235300  0.632100  0.816300  1
  C  C4448  1  0.764700  0.367900  0.316300  1
  C  C4449  1  0.600600  0.226900  0.193200  1
  C  C4450  1  0.399400  0.773100  0.693200  1
  C  C4451  1  0.273100  0.100600  0.443200  1
  C  C4452  1  0.726900  0.899400  0.943200  1
  C  C4453  1  0.899400  0.726900  0.056800  1
  C  C4454  1  0.100600  0.273100  0.556800  1
  C  C4455  1  0.226900  0.600600  0.806800  1
  C  C4456  1  0.773100  0.399400  0.306800  1
  C  C4457  1  0.583300  0.210300  0.177600  1
  C  C4458  1  0.416700  0.789700  0.677600  1
  C  C4459  1  0.289700  0.083300  0.427600  1
  C  C4460  1  0.710300  0.916700  0.927600  1
  C  C4461  1  0.916700  0.710300  0.072400  1
  C  C4462  1  0.083300  0.289700  0.572400  1
  C  C4463  1  0.210300  0.583300  0.822400  1
  C  C4464  1  0.789700  0.416700  0.322400  1
  C  C4465  1  0.593800  0.196800  0.156900  1
  C  C4466  1  0.406200  0.803200  0.656900  1
  C  C4467  1  0.303200  0.093800  0.406900  1
  C  C4468  1  0.696800  0.906200  0.906900  1
  C  C4469  1  0.906200  0.696800  0.093100  1
  C  C4470  1  0.093800  0.303200  0.593100  1
  C  C4471  1  0.196800  0.593800  0.843100  1
  C  C4472  1  0.803200  0.406200  0.343100  1
  C  C4473  1  0.590500  0.241200  0.217300  1
  C  C4474  1  0.409500  0.758800  0.717300  1
  C  C4475  1  0.258800  0.090500  0.467300  1
  C  C4476  1  0.741200  0.909500  0.967300  1
  C  C4477  1  0.909500  0.741200  0.032700  1
  C  C4478  1  0.090500  0.258800  0.532700  1
  C  C4479  1  0.241200  0.590500  0.782700  1
  C  C4480  1  0.758800  0.409500  0.282700  1
  C  C4481  1  0.644500  0.205200  0.109200  1
  C  C4482  1  0.355500  0.794800  0.609200  1
  C  C4483  1  0.294800  0.144500  0.359200  1
  C  C4484  1  0.705200  0.855500  0.859200  1
  C  C4485  1  0.855500  0.705200  0.140800  1
  C  C4486  1  0.144500  0.294800  0.640800  1
  C  C4487  1  0.205200  0.644500  0.890800  1
  C  C4488  1  0.794800  0.355500  0.390800  1
  C  C4489  1  0.658100  0.189400  0.087800  1
  C  C4490  1  0.341900  0.810600  0.587800  1
  C  C4491  1  0.310600  0.158100  0.337800  1
  C  C4492  1  0.689400  0.841900  0.837800  1
  C  C4493  1  0.841900  0.689400  0.162200  1
  C  C4494  1  0.158100  0.310600  0.662200  1
  C  C4495  1  0.189400  0.658100  0.912200  1
  C  C4496  1  0.810600  0.341900  0.412200  1
  C  C4497  1  0.673800  0.142700  0.074200  1
  C  C4498  1  0.326200  0.857300  0.574200  1
  C  C4499  1  0.357300  0.173800  0.324200  1
  C  C4500  1  0.642700  0.826200  0.824200  1
  C  C4501  1  0.826200  0.642700  0.175800  1
  C  C4502  1  0.173800  0.357300  0.675800  1
  C  C4503  1  0.142700  0.673800  0.925800  1
  C  C4504  1  0.857300  0.326200  0.425800  1
  C  C4505  1  0.686800  0.153300  0.053300  1
  C  C4506  1  0.313200  0.846700  0.553300  1
  C  C4507  1  0.346700  0.186800  0.303300  1
  C  C4508  1  0.653300  0.813200  0.803300  1
  C  C4509  1  0.813200  0.653300  0.196700  1
  C  C4510  1  0.186800  0.346700  0.696700  1
  C  C4511  1  0.153300  0.686800  0.946700  1
  C  C4512  1  0.846700  0.313200  0.446700  1
  C  C4513  1  0.682900  0.186200  0.049500  1
  C  C4514  1  0.317100  0.813800  0.549500  1
  C  C4515  1  0.313800  0.182900  0.299500  1
  C  C4516  1  0.686200  0.817100  0.799500  1
  C  C4517  1  0.817100  0.686200  0.200500  1
  C  C4518  1  0.182900  0.313800  0.700500  1
  C  C4519  1  0.186200  0.682900  0.950500  1
  C  C4520  1  0.813800  0.317100  0.450500  1
  C  C4521  1  0.670300  0.201900  0.067000  1
  C  C4522  1  0.329700  0.798100  0.567000  1
  C  C4523  1  0.298100  0.170300  0.317000  1
  C  C4524  1  0.701900  0.829700  0.817000  1
  C  C4525  1  0.829700  0.701900  0.183000  1
  C  C4526  1  0.170300  0.298100  0.683000  1
  C  C4527  1  0.201900  0.670300  0.933000  1
  C  C4528  1  0.798100  0.329700  0.433000  1
  C  C4529  1  0.705000  0.136600  0.035600  1
  C  C4530  1  0.295000  0.863400  0.535600  1
  C  C4531  1  0.363400  0.205000  0.285600  1
  C  C4532  1  0.636600  0.795000  0.785600  1
  C  C4533  1  0.795000  0.636600  0.214400  1
  C  C4534  1  0.205000  0.363400  0.714400  1
  C  C4535  1  0.136600  0.705000  0.964400  1
  C  C4536  1  0.863400  0.295000  0.464400  1
  C  C4537  1  0.701500  0.102200  0.034900  1
  C  C4538  1  0.298500  0.897800  0.534900  1
  C  C4539  1  0.397800  0.201500  0.284900  1
  C  C4540  1  0.602200  0.798500  0.784900  1
  C  C4541  1  0.798500  0.602200  0.215100  1
  C  C4542  1  0.201500  0.397800  0.715100  1
  C  C4543  1  0.102200  0.701500  0.965100  1
  C  C4544  1  0.897800  0.298500  0.465100  1
  C  C4545  1  0.732800  0.097400  0.001400  1
  C  C4546  1  0.267200  0.902600  0.501400  1
  C  C4547  1  0.402600  0.232800  0.251400  1
  C  C4548  1  0.597400  0.767200  0.751400  1
  C  C4549  1  0.767200  0.597400  0.248600  1
  C  C4550  1  0.232800  0.402600  0.748600  1
  C  C4551  1  0.097400  0.732800  0.998600  1
  C  C4552  1  0.902600  0.267200  0.498600  1
  C  C4553  1  0.735600  0.130200  0.999800  1
  C  C4554  1  0.264400  0.869800  0.499800  1
  C  C4555  1  0.369800  0.235600  0.249800  1
  C  C4556  1  0.630200  0.764400  0.749800  1
  C  C4557  1  0.764400  0.630200  0.250200  1
  C  C4558  1  0.235600  0.369800  0.750200  1
  C  C4559  1  0.130200  0.735600  0.000200  1
  C  C4560  1  0.869800  0.264400  0.500200  1
  C  C4561  1  0.721200  0.148800  0.016400  1
  C  C4562  1  0.278800  0.851200  0.516400  1
  C  C4563  1  0.351200  0.221200  0.266400  1
  C  C4564  1  0.648800  0.778800  0.766400  1
  C  C4565  1  0.778800  0.648800  0.233600  1
  C  C4566  1  0.221200  0.351200  0.733600  1
  C  C4567  1  0.148800  0.721200  0.983600  1
  C  C4568  1  0.851200  0.278800  0.483600  1
  C  C4569  1  0.746600  0.076400  0.984500  1
  C  C4570  1  0.253400  0.923600  0.484500  1
  C  C4571  1  0.423600  0.246600  0.234500  1
  C  C4572  1  0.576400  0.753400  0.734500  1
  C  C4573  1  0.753400  0.576400  0.265500  1
  C  C4574  1  0.246600  0.423600  0.765500  1
  C  C4575  1  0.076400  0.746600  0.015500  1
  C  C4576  1  0.923600  0.253400  0.515500  1
  C  C4577  1  0.753900  0.023500  0.971900  1
  C  C4578  1  0.246100  0.976500  0.471900  1
  C  C4579  1  0.476500  0.253900  0.221900  1
  C  C4580  1  0.523500  0.746100  0.721900  1
  C  C4581  1  0.746100  0.523500  0.278100  1
  C  C4582  1  0.253900  0.476500  0.778100  1
  C  C4583  1  0.023500  0.753900  0.028100  1
  C  C4584  1  0.976500  0.246100  0.528100  1
  C  C4585  1  0.782200  0.009200  0.980300  1
  C  C4586  1  0.217800  0.990800  0.480300  1
  C  C4587  1  0.490800  0.282200  0.230300  1
  C  C4588  1  0.509200  0.717800  0.730300  1
  C  C4589  1  0.717800  0.509200  0.269700  1
  C  C4590  1  0.282200  0.490800  0.769700  1
  C  C4591  1  0.009200  0.782200  0.019700  1
  C  C4592  1  0.990800  0.217800  0.519700  1
  C  C4593  1  0.794900  0.984500  0.964800  1
  C  C4594  1  0.205100  0.015500  0.464800  1
  C  C4595  1  0.515500  0.294900  0.214800  1
  C  C4596  1  0.484500  0.705100  0.714800  1
  C  C4597  1  0.705100  0.484500  0.285200  1
  C  C4598  1  0.294900  0.515500  0.785200  1
  C  C4599  1  0.984500  0.794900  0.035200  1
  C  C4600  1  0.015500  0.205100  0.535200  1
  C  C4601  1  0.782300  0.980100  0.941900  1
  C  C4602  1  0.217700  0.019900  0.441900  1
  C  C4603  1  0.519900  0.282300  0.191900  1
  C  C4604  1  0.480100  0.717700  0.691900  1
  C  C4605  1  0.717700  0.480100  0.308100  1
  C  C4606  1  0.282300  0.519900  0.808100  1
  C  C4607  1  0.980100  0.782300  0.058100  1
  C  C4608  1  0.019900  0.217700  0.558100  1
  C  C4609  1  0.755700  0.995800  0.934900  1
  C  C4610  1  0.244300  0.004200  0.434900  1
  C  C4611  1  0.504200  0.255700  0.184900  1
  C  C4612  1  0.495800  0.744300  0.684900  1
  C  C4613  1  0.744300  0.495800  0.315100  1
  C  C4614  1  0.255700  0.504200  0.815100  1
  C  C4615  1  0.995800  0.755700  0.065100  1
  C  C4616  1  0.004200  0.244300  0.565100  1
  C  C4617  1  0.741800  0.016300  0.950100  1
  C  C4618  1  0.258200  0.983700  0.450100  1
  C  C4619  1  0.483700  0.241800  0.200100  1
  C  C4620  1  0.516300  0.758200  0.700100  1
  C  C4621  1  0.758200  0.516300  0.299900  1
  C  C4622  1  0.241800  0.483700  0.799900  1
  C  C4623  1  0.016300  0.741800  0.049900  1
  C  C4624  1  0.983700  0.258200  0.549900  1
  C  C4625  1  0.798000  0.955800  0.924100  1
  C  C4626  1  0.202000  0.044200  0.424100  1
  C  C4627  1  0.544200  0.298000  0.174100  1
  C  C4628  1  0.455800  0.702000  0.674100  1
  C  C4629  1  0.702000  0.455800  0.325900  1
  C  C4630  1  0.298000  0.544200  0.825900  1
  C  C4631  1  0.955800  0.798000  0.075900  1
  C  C4632  1  0.044200  0.202000  0.575900  1
  C  C4633  1  0.510600  0.252500  0.046400  1
  C  C4634  1  0.489400  0.747500  0.546400  1
  C  C4635  1  0.247500  0.010600  0.296400  1
  C  C4636  1  0.752500  0.989400  0.796400  1
  C  C4637  1  0.989400  0.752500  0.203600  1
  C  C4638  1  0.010600  0.247500  0.703600  1
  C  C4639  1  0.252500  0.510600  0.953600  1
  C  C4640  1  0.747500  0.489400  0.453600  1
  C  C4641  1  0.494500  0.278300  0.036400  1
  C  C4642  1  0.505500  0.721700  0.536400  1
  C  C4643  1  0.221700  0.994500  0.286400  1
  C  C4644  1  0.778300  0.005500  0.786400  1
  C  C4645  1  0.005500  0.778300  0.213600  1
  C  C4646  1  0.994500  0.221700  0.713600  1
  C  C4647  1  0.278300  0.494500  0.963600  1
  C  C4648  1  0.721700  0.505500  0.463600  1
  C  C4649  1  0.474800  0.291100  0.053200  1
  C  C4650  1  0.525200  0.708900  0.553200  1
  C  C4651  1  0.208900  0.974800  0.303200  1
  C  C4652  1  0.791100  0.025200  0.803200  1
  C  C4653  1  0.025200  0.791100  0.196800  1
  C  C4654  1  0.974800  0.208900  0.696800  1
  C  C4655  1  0.291100  0.474800  0.946800  1
  C  C4656  1  0.708900  0.525200  0.446800  1
  C  C4657  1  0.469700  0.282300  0.075300  1
  C  C4658  1  0.530300  0.717700  0.575300  1
  C  C4659  1  0.217700  0.969700  0.325300  1
  C  C4660  1  0.782300  0.030300  0.825300  1
  C  C4661  1  0.030300  0.782300  0.174700  1
  C  C4662  1  0.969700  0.217700  0.674700  1
  C  C4663  1  0.282300  0.469700  0.924700  1
  C  C4664  1  0.717700  0.530300  0.424700  1
  C  C4665  1  0.485200  0.255500  0.084900  1
  C  C4666  1  0.514800  0.744500  0.584900  1
  C  C4667  1  0.244500  0.985200  0.334900  1
  C  C4668  1  0.755500  0.014800  0.834900  1
  C  C4669  1  0.014800  0.755500  0.165100  1
  C  C4670  1  0.985200  0.244500  0.665100  1
  C  C4671  1  0.255500  0.485200  0.915100  1
  C  C4672  1  0.744500  0.514800  0.415100  1
  C  C4673  1  0.506900  0.241400  0.069200  1
  C  C4674  1  0.493100  0.758600  0.569200  1
  C  C4675  1  0.258600  0.006900  0.319200  1
  C  C4676  1  0.741400  0.993100  0.819200  1
  C  C4677  1  0.993100  0.741400  0.180800  1
  C  C4678  1  0.006900  0.258600  0.680800  1
  C  C4679  1  0.241400  0.506900  0.930800  1
  C  C4680  1  0.758600  0.493100  0.430800  1
  C  C4681  1  0.446300  0.297100  0.094500  1
  C  C4682  1  0.553700  0.702900  0.594500  1
  C  C4683  1  0.202900  0.946300  0.344500  1
  C  C4684  1  0.797100  0.053700  0.844500  1
  C  C4685  1  0.053700  0.797100  0.155500  1
  C  C4686  1  0.946300  0.202900  0.655500  1
  C  C4687  1  0.297100  0.446300  0.905500  1
  C  C4688  1  0.702900  0.553700  0.405500  1
  C  C4689  1  0.561700  0.247200  0.032100  1
  C  C4690  1  0.438300  0.752800  0.532100  1
  C  C4691  1  0.252800  0.061700  0.282100  1
  C  C4692  1  0.747200  0.938300  0.782100  1
  C  C4693  1  0.938300  0.747200  0.217900  1
  C  C4694  1  0.061700  0.252800  0.717900  1
  C  C4695  1  0.247200  0.561700  0.967900  1
  C  C4696  1  0.752800  0.438300  0.467900  1
  C  C4697  1  0.584200  0.234300  0.015600  1
  C  C4698  1  0.415800  0.765700  0.515600  1
  C  C4699  1  0.265700  0.084200  0.265600  1
  C  C4700  1  0.734300  0.915800  0.765600  1
  C  C4701  1  0.915800  0.734300  0.234400  1
  C  C4702  1  0.084200  0.265700  0.734400  1
  C  C4703  1  0.234300  0.584200  0.984400  1
  C  C4704  1  0.765700  0.415800  0.484400  1
  C  C4705  1  0.591000  0.200400  0.985500  1
  C  C4706  1  0.409000  0.799600  0.485500  1
  C  C4707  1  0.299600  0.091000  0.235500  1
  C  C4708  1  0.700400  0.909000  0.735500  1
  C  C4709  1  0.909000  0.700400  0.264500  1
  C  C4710  1  0.091000  0.299600  0.764500  1
  C  C4711  1  0.200400  0.591000  0.014500  1
  C  C4712  1  0.799600  0.409000  0.514500  1
  C  C4713  1  0.623700  0.204100  0.982700  1
  C  C4714  1  0.376300  0.795900  0.482700  1
  C  C4715  1  0.295900  0.123700  0.232700  1
  C  C4716  1  0.704100  0.876300  0.732700  1
  C  C4717  1  0.876300  0.704100  0.267300  1
  C  C4718  1  0.123700  0.295900  0.767300  1
  C  C4719  1  0.204100  0.623700  0.017300  1
  C  C4720  1  0.795900  0.376300  0.517300  1
  C  C4721  1  0.635600  0.223400  0.999800  1
  C  C4722  1  0.364400  0.776600  0.499800  1
  C  C4723  1  0.276600  0.135600  0.249800  1
  C  C4724  1  0.723400  0.864400  0.749800  1
  C  C4725  1  0.864400  0.723400  0.250200  1
  C  C4726  1  0.135600  0.276600  0.750200  1
  C  C4727  1  0.223400  0.635600  0.000200  1
  C  C4728  1  0.776600  0.364400  0.500200  1
  C  C4729  1  0.617400  0.240200  0.016200  1
  C  C4730  1  0.382600  0.759800  0.516200  1
  C  C4731  1  0.259800  0.117400  0.266200  1
  C  C4732  1  0.740200  0.882600  0.766200  1
  C  C4733  1  0.882600  0.740200  0.233800  1
  C  C4734  1  0.117400  0.259800  0.733800  1
  C  C4735  1  0.240200  0.617400  0.983800  1
  C  C4736  1  0.759800  0.382600  0.483800  1
  C  C4737  1  0.642100  0.187600  0.965400  1
  C  C4738  1  0.357900  0.812400  0.465400  1
  C  C4739  1  0.312400  0.142100  0.215400  1
  C  C4740  1  0.687600  0.857900  0.715400  1
  C  C4741  1  0.857900  0.687600  0.284600  1
  C  C4742  1  0.142100  0.312400  0.784600  1
  C  C4743  1  0.187600  0.642100  0.034600  1
  C  C4744  1  0.812400  0.357900  0.534600  1
  C  C4745  1  0.630200  0.170700  0.945500  1
  C  C4746  1  0.369800  0.829300  0.445500  1
  C  C4747  1  0.329300  0.130200  0.195500  1
  C  C4748  1  0.670700  0.869800  0.695500  1
  C  C4749  1  0.869800  0.670700  0.304500  1
  C  C4750  1  0.130200  0.329300  0.804500  1
  C  C4751  1  0.170700  0.630200  0.054500  1
  C  C4752  1  0.829300  0.369800  0.554500  1
  C  C4753  1  0.679100  0.158000  0.930200  1
  C  C4754  1  0.320900  0.842000  0.430200  1
  C  C4755  1  0.342000  0.179100  0.180200  1
  C  C4756  1  0.658000  0.820900  0.680200  1
  C  C4757  1  0.820900  0.658000  0.319800  1
  C  C4758  1  0.179100  0.342000  0.819800  1
  C  C4759  1  0.158000  0.679100  0.069800  1
  C  C4760  1  0.842000  0.320900  0.569800  1
  C  C4761  1  0.692200  0.172000  0.949400  1
  C  C4762  1  0.307800  0.828000  0.449400  1
  C  C4763  1  0.328000  0.192200  0.199400  1
  C  C4764  1  0.672000  0.807800  0.699400  1
  C  C4765  1  0.807800  0.672000  0.300600  1
  C  C4766  1  0.192200  0.328000  0.800600  1
  C  C4767  1  0.172000  0.692200  0.050600  1
  C  C4768  1  0.828000  0.307800  0.550600  1
  C  C4769  1  0.674900  0.187300  0.968200  1
  C  C4770  1  0.325100  0.812700  0.468200  1
  C  C4771  1  0.312700  0.174900  0.218200  1
  C  C4772  1  0.687300  0.825100  0.718200  1
  C  C4773  1  0.825100  0.687300  0.281800  1
  C  C4774  1  0.174900  0.312700  0.781800  1
  C  C4775  1  0.187300  0.674900  0.031800  1
  C  C4776  1  0.812700  0.325100  0.531800  1
  C  C4777  1  0.693700  0.145500  0.909200  1
  C  C4778  1  0.306300  0.854500  0.409200  1
  C  C4779  1  0.354500  0.193700  0.159200  1
  C  C4780  1  0.645500  0.806300  0.659200  1
  C  C4781  1  0.806300  0.645500  0.340800  1
  C  C4782  1  0.193700  0.354500  0.840800  1
  C  C4783  1  0.145500  0.693700  0.090800  1
  C  C4784  1  0.854500  0.306300  0.590800  1
  C  C4785  1  0.690800  0.121900  0.871300  1
  C  C4786  1  0.309200  0.878100  0.371300  1
  C  C4787  1  0.378100  0.190800  0.121300  1
  C  C4788  1  0.621900  0.809200  0.621300  1
  C  C4789  1  0.809200  0.621900  0.378700  1
  C  C4790  1  0.190800  0.378100  0.878700  1
  C  C4791  1  0.121900  0.690800  0.128700  1
  C  C4792  1  0.878100  0.309200  0.628700  1
  C  C4793  1  0.707800  0.139600  0.857300  1
  C  C4794  1  0.292200  0.860400  0.357300  1
  C  C4795  1  0.360400  0.207800  0.107300  1
  C  C4796  1  0.639600  0.792200  0.607300  1
  C  C4797  1  0.792200  0.639600  0.392700  1
  C  C4798  1  0.207800  0.360400  0.892700  1
  C  C4799  1  0.139600  0.707800  0.142700  1
  C  C4800  1  0.860400  0.292200  0.642700  1
  C  C4801  1  0.721400  0.128500  0.834800  1
  C  C4802  1  0.278600  0.871500  0.334800  1
  C  C4803  1  0.371500  0.221400  0.084800  1
  C  C4804  1  0.628500  0.778600  0.584800  1
  C  C4805  1  0.778600  0.628500  0.415200  1
  C  C4806  1  0.221400  0.371500  0.915200  1
  C  C4807  1  0.128500  0.721400  0.165200  1
  C  C4808  1  0.871500  0.278600  0.665200  1
  C  C4809  1  0.717400  0.101800  0.828000  1
  C  C4810  1  0.282600  0.898200  0.328000  1
  C  C4811  1  0.398200  0.217400  0.078000  1
  C  C4812  1  0.601800  0.782600  0.578000  1
  C  C4813  1  0.782600  0.601800  0.422000  1
  C  C4814  1  0.217400  0.398200  0.922000  1
  C  C4815  1  0.101800  0.717400  0.172000  1
  C  C4816  1  0.898200  0.282600  0.672000  1
  C  C4817  1  0.700800  0.081500  0.842000  1
  C  C4818  1  0.299200  0.918500  0.342000  1
  C  C4819  1  0.418500  0.200800  0.092000  1
  C  C4820  1  0.581500  0.799200  0.592000  1
  C  C4821  1  0.799200  0.581500  0.408000  1
  C  C4822  1  0.200800  0.418500  0.908000  1
  C  C4823  1  0.081500  0.700800  0.158000  1
  C  C4824  1  0.918500  0.299200  0.658000  1
  C  C4825  1  0.686300  0.091200  0.863300  1
  C  C4826  1  0.313700  0.908800  0.363300  1
  C  C4827  1  0.408800  0.186300  0.113300  1
  C  C4828  1  0.591200  0.813700  0.613300  1
  C  C4829  1  0.813700  0.591200  0.386700  1
  C  C4830  1  0.186300  0.408800  0.886700  1
  C  C4831  1  0.091200  0.686300  0.136700  1
  C  C4832  1  0.908800  0.313700  0.636700  1
  C  C4833  1  0.731600  0.089400  0.804000  1
  C  C4834  1  0.268400  0.910600  0.304000  1
  C  C4835  1  0.410600  0.231600  0.054000  1
  C  C4836  1  0.589400  0.768400  0.554000  1
  C  C4837  1  0.768400  0.589400  0.446000  1
  C  C4838  1  0.231600  0.410600  0.946000  1
  C  C4839  1  0.089400  0.731600  0.196000  1
  C  C4840  1  0.910600  0.268400  0.696000  1
  C  C4841  1  0.677500  0.332700  0.852900  1
  C  C4842  1  0.322500  0.667300  0.352900  1
  C  C4843  1  0.167300  0.177500  0.102900  1
  C  C4844  1  0.832700  0.822500  0.602900  1
  C  C4845  1  0.822500  0.832700  0.397100  1
  C  C4846  1  0.177500  0.167300  0.897100  1
  C  C4847  1  0.332700  0.677500  0.147100  1
  C  C4848  1  0.667300  0.322500  0.647100  1
  C  C4849  1  0.653900  0.314400  0.863100  1
  C  C4850  1  0.346100  0.685600  0.363100  1
  C  C4851  1  0.185600  0.153900  0.113100  1
  C  C4852  1  0.814400  0.846100  0.613100  1
  C  C4853  1  0.846100  0.814400  0.386900  1
  C  C4854  1  0.153900  0.185600  0.886900  1
  C  C4855  1  0.314400  0.653900  0.136900  1
  C  C4856  1  0.685600  0.346100  0.636900  1
  C  C4857  1  0.622500  0.315800  0.854300  1
  C  C4858  1  0.377500  0.684200  0.354300  1
  C  C4859  1  0.184200  0.122500  0.104300  1
  C  C4860  1  0.815800  0.877500  0.604300  1
  C  C4861  1  0.877500  0.815800  0.395700  1
  C  C4862  1  0.122500  0.184200  0.895700  1
  C  C4863  1  0.315800  0.622500  0.145700  1
  C  C4864  1  0.684200  0.377500  0.645700  1
  C  C4865  1  0.618400  0.331200  0.833300  1
  C  C4866  1  0.381600  0.668800  0.333300  1
  C  C4867  1  0.168800  0.118400  0.083300  1
  C  C4868  1  0.831200  0.881600  0.583300  1
  C  C4869  1  0.881600  0.831200  0.416700  1
  C  C4870  1  0.118400  0.168800  0.916700  1
  C  C4871  1  0.331200  0.618400  0.166700  1
  C  C4872  1  0.668800  0.381600  0.666700  1
  C  C4873  1  0.640200  0.350500  0.823100  1
  C  C4874  1  0.359800  0.649500  0.323100  1
  C  C4875  1  0.149500  0.140200  0.073100  1
  C  C4876  1  0.850500  0.859800  0.573100  1
  C  C4877  1  0.859800  0.850500  0.426900  1
  C  C4878  1  0.140200  0.149500  0.926900  1
  C  C4879  1  0.350500  0.640200  0.176900  1
  C  C4880  1  0.649500  0.359800  0.676900  1
  C  C4881  1  0.668500  0.350500  0.831700  1
  C  C4882  1  0.331500  0.649500  0.331700  1
  C  C4883  1  0.149500  0.168500  0.081700  1
  C  C4884  1  0.850500  0.831500  0.581700  1
  C  C4885  1  0.831500  0.850500  0.418300  1
  C  C4886  1  0.168500  0.149500  0.918300  1
  C  C4887  1  0.350500  0.668500  0.168300  1
  C  C4888  1  0.649500  0.331500  0.668300  1
  C  C4889  1  0.583600  0.334400  0.822200  1
  C  C4890  1  0.416400  0.665600  0.322200  1
  C  C4891  1  0.165600  0.083600  0.072200  1
  C  C4892  1  0.834400  0.916400  0.572200  1
  C  C4893  1  0.916400  0.834400  0.427800  1
  C  C4894  1  0.083600  0.165600  0.927800  1
  C  C4895  1  0.334400  0.583600  0.177800  1
  C  C4896  1  0.665600  0.416400  0.677800  1
  C  C4897  1  0.725200  0.355300  0.863600  1
  C  C4898  1  0.274800  0.644700  0.363600  1
  C  C4899  1  0.144700  0.225200  0.113600  1
  C  C4900  1  0.855300  0.774800  0.613600  1
  C  C4901  1  0.774800  0.855300  0.386400  1
  C  C4902  1  0.225200  0.144700  0.886400  1
  C  C4903  1  0.355300  0.725200  0.136400  1
  C  C4904  1  0.644700  0.274800  0.636400  1
  C  C4905  1  0.756700  0.353300  0.871200  1
  C  C4906  1  0.243300  0.646700  0.371200  1
  C  C4907  1  0.146700  0.256700  0.121200  1
  C  C4908  1  0.853300  0.743300  0.621200  1
  C  C4909  1  0.743300  0.853300  0.378800  1
  C  C4910  1  0.256700  0.146700  0.878800  1
  C  C4911  1  0.353300  0.756700  0.128800  1
  C  C4912  1  0.646700  0.243300  0.628800  1
  C  C4913  1  0.793800  0.315800  0.883100  1
  C  C4914  1  0.206200  0.684200  0.383100  1
  C  C4915  1  0.184200  0.293800  0.133100  1
  C  C4916  1  0.815800  0.706200  0.633100  1
  C  C4917  1  0.706200  0.815800  0.366900  1
  C  C4918  1  0.293800  0.184200  0.866900  1
  C  C4919  1  0.315800  0.793800  0.116900  1
  C  C4920  1  0.684200  0.206200  0.616900  1
  C  C4921  1  0.814000  0.342100  0.886600  1
  C  C4922  1  0.186000  0.657900  0.386600  1
  C  C4923  1  0.157900  0.314000  0.136600  1
  C  C4924  1  0.842100  0.686000  0.636600  1
  C  C4925  1  0.686000  0.842100  0.363400  1
  C  C4926  1  0.314000  0.157900  0.863400  1
  C  C4927  1  0.342100  0.814000  0.113400  1
  C  C4928  1  0.657900  0.186000  0.613400  1
  C  C4929  1  0.804800  0.372900  0.882900  1
  C  C4930  1  0.195200  0.627100  0.382900  1
  C  C4931  1  0.127100  0.304800  0.132900  1
  C  C4932  1  0.872900  0.695200  0.632900  1
  C  C4933  1  0.695200  0.872900  0.367100  1
  C  C4934  1  0.304800  0.127100  0.867100  1
  C  C4935  1  0.372900  0.804800  0.117100  1
  C  C4936  1  0.627100  0.195200  0.617100  1
  C  C4937  1  0.774600  0.377600  0.875500  1
  C  C4938  1  0.225400  0.622400  0.375500  1
  C  C4939  1  0.122400  0.274600  0.125500  1
  C  C4940  1  0.877600  0.725400  0.625500  1
  C  C4941  1  0.725400  0.877600  0.374500  1
  C  C4942  1  0.274600  0.122400  0.874500  1
  C  C4943  1  0.377600  0.774600  0.124500  1
  C  C4944  1  0.622400  0.225400  0.624500  1
  C  C4945  1  0.846200  0.334600  0.897400  1
  C  C4946  1  0.153800  0.665400  0.397400  1
  C  C4947  1  0.165400  0.346200  0.147400  1
  C  C4948  1  0.834600  0.653800  0.647400  1
  C  C4949  1  0.653800  0.834600  0.352600  1
  C  C4950  1  0.346200  0.165400  0.852600  1
  C  C4951  1  0.334600  0.846200  0.102600  1
  C  C4952  1  0.665400  0.153800  0.602600  1
  C  C4953  1  0.849900  0.318300  0.917300  1
  C  C4954  1  0.150100  0.681700  0.417300  1
  C  C4955  1  0.181700  0.349900  0.167300  1
  C  C4956  1  0.818300  0.650100  0.667300  1
  C  C4957  1  0.650100  0.818300  0.332700  1
  C  C4958  1  0.349900  0.181700  0.832700  1
  C  C4959  1  0.318300  0.849900  0.082700  1
  C  C4960  1  0.681700  0.150100  0.582700  1
  C  C4961  1  0.903800  0.326700  0.915600  1
  C  C4962  1  0.096200  0.673300  0.415600  1
  C  C4963  1  0.173300  0.403800  0.165600  1
  C  C4964  1  0.826700  0.596200  0.665600  1
  C  C4965  1  0.596200  0.826700  0.334400  1
  C  C4966  1  0.403800  0.173300  0.834400  1
  C  C4967  1  0.326700  0.903800  0.084400  1
  C  C4968  1  0.673300  0.096200  0.584400  1
  C  C4969  1  0.901100  0.342400  0.895100  1
  C  C4970  1  0.098900  0.657600  0.395100  1
  C  C4971  1  0.157600  0.401100  0.145100  1
  C  C4972  1  0.842400  0.598900  0.645100  1
  C  C4973  1  0.598900  0.842400  0.354900  1
  C  C4974  1  0.401100  0.157600  0.854900  1
  C  C4975  1  0.342400  0.901100  0.104900  1
  C  C4976  1  0.657600  0.098900  0.604900  1
  C  C4977  1  0.871400  0.347300  0.884600  1
  C  C4978  1  0.128600  0.652700  0.384600  1
  C  C4979  1  0.152700  0.371400  0.134600  1
  C  C4980  1  0.847300  0.628600  0.634600  1
  C  C4981  1  0.628600  0.847300  0.365400  1
  C  C4982  1  0.371400  0.152700  0.865400  1
  C  C4983  1  0.347300  0.871400  0.115400  1
  C  C4984  1  0.652700  0.128600  0.615400  1
  C  C4985  1  0.933400  0.321300  0.928600  1
  C  C4986  1  0.066600  0.678700  0.428600  1
  C  C4987  1  0.178700  0.433400  0.178600  1
  C  C4988  1  0.821300  0.566600  0.678600  1
  C  C4989  1  0.566600  0.821300  0.321400  1
  C  C4990  1  0.433400  0.178700  0.821400  1
  C  C4991  1  0.321300  0.933400  0.071400  1
  C  C4992  1  0.678700  0.066600  0.571400  1
  C  C4993  1  0.958700  0.305100  0.964700  1
  C  C4994  1  0.041300  0.694900  0.464700  1
  C  C4995  1  0.194900  0.458700  0.214700  1
  C  C4996  1  0.805100  0.541300  0.714700  1
  C  C4997  1  0.541300  0.805100  0.285300  1
  C  C4998  1  0.458700  0.194900  0.785300  1
  C  C4999  1  0.305100  0.958700  0.035300  1
  C  C5000  1  0.694900  0.041300  0.535300  1
  C  C5001  1  0.973700  0.332400  0.969200  1
  C  C5002  1  0.026300  0.667600  0.469200  1
  C  C5003  1  0.167600  0.473700  0.219200  1
  C  C5004  1  0.832400  0.526300  0.719200  1
  C  C5005  1  0.526300  0.832400  0.280800  1
  C  C5006  1  0.473700  0.167600  0.780800  1
  C  C5007  1  0.332400  0.973700  0.030800  1
  C  C5008  1  0.667600  0.026300  0.530800  1
  C  C5009  1  0.997000  0.330900  0.988100  1
  C  C5010  1  0.003000  0.669100  0.488100  1
  C  C5011  1  0.169100  0.497000  0.238100  1
  C  C5012  1  0.830900  0.503000  0.738100  1
  C  C5013  1  0.503000  0.830900  0.261900  1
  C  C5014  1  0.497000  0.169100  0.761900  1
  C  C5015  1  0.330900  0.997000  0.011900  1
  C  C5016  1  0.669100  0.003000  0.511900  1
  C  C5017  1  0.005500  0.305500  0.998200  1
  C  C5018  1  0.994500  0.694500  0.498200  1
  C  C5019  1  0.194500  0.505500  0.248200  1
  C  C5020  1  0.805500  0.494500  0.748200  1
  C  C5021  1  0.494500  0.805500  0.251800  1
  C  C5022  1  0.505500  0.194500  0.751800  1
  C  C5023  1  0.305500  0.005500  0.001800  1
  C  C5024  1  0.694500  0.994500  0.501800  1
  C  C5025  1  0.994000  0.277900  0.990600  1
  C  C5026  1  0.006000  0.722100  0.490600  1
  C  C5027  1  0.222100  0.494000  0.240600  1
  C  C5028  1  0.777900  0.506000  0.740600  1
  C  C5029  1  0.506000  0.777900  0.259400  1
  C  C5030  1  0.494000  0.222100  0.759400  1
  C  C5031  1  0.277900  0.994000  0.009400  1
  C  C5032  1  0.722100  0.006000  0.509400  1
  C  C5033  1  0.969600  0.279100  0.974700  1
  C  C5034  1  0.030400  0.720900  0.474700  1
  C  C5035  1  0.220900  0.469600  0.224700  1
  C  C5036  1  0.779100  0.530400  0.724700  1
  C  C5037  1  0.530400  0.779100  0.275300  1
  C  C5038  1  0.469600  0.220900  0.775300  1
  C  C5039  1  0.279100  0.969600  0.025300  1
  C  C5040  1  0.720900  0.030400  0.525300  1
  C  C5041  1  0.030600  0.304300  0.019600  1
  C  C5042  1  0.969400  0.695700  0.519600  1
  C  C5043  1  0.195700  0.530600  0.269600  1
  C  C5044  1  0.804300  0.469400  0.769600  1
  C  C5045  1  0.469400  0.804300  0.230400  1
  C  C5046  1  0.530600  0.195700  0.730400  1
  C  C5047  1  0.304300  0.030600  0.980400  1
  C  C5048  1  0.695700  0.969400  0.480400  1
  C  C5049  1  0.766700  0.324000  0.818100  1
  C  C5050  1  0.233300  0.676000  0.318100  1
  C  C5051  1  0.176000  0.266700  0.068100  1
  C  C5052  1  0.824000  0.733300  0.568100  1
  C  C5053  1  0.733300  0.824000  0.431900  1
  C  C5054  1  0.266700  0.176000  0.931900  1
  C  C5055  1  0.324000  0.766700  0.181900  1
  C  C5056  1  0.676000  0.233300  0.681900  1
  C  C5057  1  0.798100  0.320600  0.823100  1
  C  C5058  1  0.201900  0.679400  0.323100  1
  C  C5059  1  0.179400  0.298100  0.073100  1
  C  C5060  1  0.820600  0.701900  0.573100  1
  C  C5061  1  0.701900  0.820600  0.426900  1
  C  C5062  1  0.298100  0.179400  0.926900  1
  C  C5063  1  0.320600  0.798100  0.176900  1
  C  C5064  1  0.679400  0.201900  0.676900  1
  C  C5065  1  0.816900  0.341600  0.816800  1
  C  C5066  1  0.183100  0.658400  0.316800  1
  C  C5067  1  0.158400  0.316900  0.066800  1
  C  C5068  1  0.841600  0.683100  0.566800  1
  C  C5069  1  0.683100  0.841600  0.433200  1
  C  C5070  1  0.316900  0.158400  0.933200  1
  C  C5071  1  0.341600  0.816900  0.183200  1
  C  C5072  1  0.658400  0.183100  0.683200  1
  C  C5073  1  0.809500  0.371300  0.804200  1
  C  C5074  1  0.190500  0.628700  0.304200  1
  C  C5075  1  0.128700  0.309500  0.054200  1
  C  C5076  1  0.871300  0.690500  0.554200  1
  C  C5077  1  0.690500  0.871300  0.445800  1
  C  C5078  1  0.309500  0.128700  0.945800  1
  C  C5079  1  0.371300  0.809500  0.195800  1
  C  C5080  1  0.628700  0.190500  0.695800  1
  C  C5081  1  0.777400  0.372400  0.796500  1
  C  C5082  1  0.222600  0.627600  0.296500  1
  C  C5083  1  0.127600  0.277400  0.046500  1
  C  C5084  1  0.872400  0.722600  0.546500  1
  C  C5085  1  0.722600  0.872400  0.453500  1
  C  C5086  1  0.277400  0.127600  0.953500  1
  C  C5087  1  0.372400  0.777400  0.203500  1
  C  C5088  1  0.627600  0.222600  0.703500  1
  C  C5089  1  0.755300  0.351700  0.804300  1
  C  C5090  1  0.244700  0.648300  0.304300  1
  C  C5091  1  0.148300  0.255300  0.054300  1
  C  C5092  1  0.851700  0.744700  0.554300  1
  C  C5093  1  0.744700  0.851700  0.445700  1
  C  C5094  1  0.255300  0.148300  0.945700  1
  C  C5095  1  0.351700  0.755300  0.195700  1
  C  C5096  1  0.648300  0.244700  0.695700  1
  C  C5097  1  0.833500  0.396900  0.800000  1
  C  C5098  1  0.166500  0.603100  0.300000  1
  C  C5099  1  0.103100  0.333500  0.050000  1
  C  C5100  1  0.896900  0.666500  0.550000  1
  C  C5101  1  0.666500  0.896900  0.450000  1
  C  C5102  1  0.333500  0.103100  0.950000  1
  C  C5103  1  0.396900  0.833500  0.200000  1
  C  C5104  1  0.603100  0.166500  0.700000  1
  C  C5105  1  0.722400  0.292500  0.810900  1
  C  C5106  1  0.277600  0.707500  0.310900  1
  C  C5107  1  0.207500  0.222400  0.060900  1
  C  C5108  1  0.792500  0.777600  0.560900  1
  C  C5109  1  0.777600  0.792500  0.439100  1
  C  C5110  1  0.222400  0.207500  0.939100  1
  C  C5111  1  0.292500  0.722400  0.189100  1
  C  C5112  1  0.707500  0.277600  0.689100  1
  C  C5113  1  0.698700  0.273000  0.819700  1
  C  C5114  1  0.301300  0.727000  0.319700  1
  C  C5115  1  0.227000  0.198700  0.069700  1
  C  C5116  1  0.773000  0.801300  0.569700  1
  C  C5117  1  0.801300  0.773000  0.430300  1
  C  C5118  1  0.198700  0.227000  0.930300  1
  C  C5119  1  0.273000  0.698700  0.180300  1
  C  C5120  1  0.727000  0.301300  0.680300  1
  C  C5121  1  0.680100  0.250500  0.856800  1
  C  C5122  1  0.319900  0.749500  0.356800  1
  C  C5123  1  0.249500  0.180100  0.106800  1
  C  C5124  1  0.750500  0.819900  0.606800  1
  C  C5125  1  0.819900  0.750500  0.393200  1
  C  C5126  1  0.180100  0.249500  0.893200  1
  C  C5127  1  0.250500  0.680100  0.143200  1
  C  C5128  1  0.749500  0.319900  0.643200  1
  C  C5129  1  0.655600  0.235200  0.843800  1
  C  C5130  1  0.344400  0.764800  0.343800  1
  C  C5131  1  0.264800  0.155600  0.093800  1
  C  C5132  1  0.735200  0.844400  0.593800  1
  C  C5133  1  0.844400  0.735200  0.406200  1
  C  C5134  1  0.155600  0.264800  0.906200  1
  C  C5135  1  0.235200  0.655600  0.156200  1
  C  C5136  1  0.764800  0.344400  0.656200  1
  C  C5137  1  0.655200  0.240100  0.819900  1
  C  C5138  1  0.344800  0.759900  0.319900  1
  C  C5139  1  0.259900  0.155200  0.069900  1
  C  C5140  1  0.740100  0.844800  0.569900  1
  C  C5141  1  0.844800  0.740100  0.430100  1
  C  C5142  1  0.155200  0.259900  0.930100  1
  C  C5143  1  0.240100  0.655200  0.180100  1
  C  C5144  1  0.759900  0.344800  0.680100  1
  C  C5145  1  0.676300  0.260600  0.808000  1
  C  C5146  1  0.323700  0.739400  0.308000  1
  C  C5147  1  0.239400  0.176300  0.058000  1
  C  C5148  1  0.760600  0.823700  0.558000  1
  C  C5149  1  0.823700  0.760600  0.442000  1
  C  C5150  1  0.176300  0.239400  0.942000  1
  C  C5151  1  0.260600  0.676300  0.192000  1
  C  C5152  1  0.739400  0.323700  0.692000  1
  C  C5153  1  0.633500  0.217600  0.857500  1
  C  C5154  1  0.366500  0.782400  0.357500  1
  C  C5155  1  0.282400  0.133500  0.107500  1
  C  C5156  1  0.717600  0.866500  0.607500  1
  C  C5157  1  0.866500  0.717600  0.392500  1
  C  C5158  1  0.133500  0.282400  0.892500  1
  C  C5159  1  0.217600  0.633500  0.142500  1
  C  C5160  1  0.782400  0.366500  0.642500  1
  C  C5161  1  0.642600  0.192700  0.872100  1
  C  C5162  1  0.357400  0.807300  0.372100  1
  C  C5163  1  0.307300  0.142600  0.122100  1
  C  C5164  1  0.692700  0.857400  0.622100  1
  C  C5165  1  0.857400  0.692700  0.377900  1
  C  C5166  1  0.142600  0.307300  0.877900  1
  C  C5167  1  0.192700  0.642600  0.127900  1
  C  C5168  1  0.807300  0.357400  0.627900  1
  C  C5169  1  0.590000  0.181000  0.880500  1
  C  C5170  1  0.410000  0.819000  0.380500  1
  C  C5171  1  0.319000  0.090000  0.130500  1
  C  C5172  1  0.681000  0.910000  0.630500  1
  C  C5173  1  0.910000  0.681000  0.369500  1
  C  C5174  1  0.090000  0.319000  0.869500  1
  C  C5175  1  0.181000  0.590000  0.119500  1
  C  C5176  1  0.819000  0.410000  0.619500  1
  C  C5177  1  0.581500  0.203600  0.866400  1
  C  C5178  1  0.418500  0.796400  0.366400  1
  C  C5179  1  0.296400  0.081500  0.116400  1
  C  C5180  1  0.703600  0.918500  0.616400  1
  C  C5181  1  0.918500  0.703600  0.383600  1
  C  C5182  1  0.081500  0.296400  0.883600  1
  C  C5183  1  0.203600  0.581500  0.133600  1
  C  C5184  1  0.796400  0.418500  0.633600  1
  C  C5185  1  0.601600  0.222000  0.854200  1
  C  C5186  1  0.398400  0.778000  0.354200  1
  C  C5187  1  0.278000  0.101600  0.104200  1
  C  C5188  1  0.722000  0.898400  0.604200  1
  C  C5189  1  0.898400  0.722000  0.395800  1
  C  C5190  1  0.101600  0.278000  0.895800  1
  C  C5191  1  0.222000  0.601600  0.145800  1
  C  C5192  1  0.778000  0.398400  0.645800  1
  C  C5193  1  0.572700  0.160800  0.893300  1
  C  C5194  1  0.427300  0.839200  0.393300  1
  C  C5195  1  0.339200  0.072700  0.143300  1
  C  C5196  1  0.660800  0.927300  0.643300  1
  C  C5197  1  0.927300  0.660800  0.356700  1
  C  C5198  1  0.072700  0.339200  0.856700  1
  C  C5199  1  0.160800  0.572700  0.106700  1
  C  C5200  1  0.839200  0.427300  0.606700  1
  C  C5201  1  0.565300  0.116500  0.921300  1
  C  C5202  1  0.434700  0.883500  0.421300  1
  C  C5203  1  0.383500  0.065300  0.171300  1
  C  C5204  1  0.616500  0.934700  0.671300  1
  C  C5205  1  0.934700  0.616500  0.328700  1
  C  C5206  1  0.065300  0.383500  0.828700  1
  C  C5207  1  0.116500  0.565300  0.078700  1
  C  C5208  1  0.883500  0.434700  0.578700  1
  C  C5209  1  0.572800  0.109100  0.943700  1
  C  C5210  1  0.427200  0.890900  0.443700  1
  C  C5211  1  0.390900  0.072800  0.193700  1
  C  C5212  1  0.609100  0.927200  0.693700  1
  C  C5213  1  0.927200  0.609100  0.306300  1
  C  C5214  1  0.072800  0.390900  0.806300  1
  C  C5215  1  0.109100  0.572800  0.056300  1
  C  C5216  1  0.890900  0.427200  0.556300  1
  C  C5217  1  0.554000  0.086900  0.956000  1
  C  C5218  1  0.446000  0.913100  0.456000  1
  C  C5219  1  0.413100  0.054000  0.206000  1
  C  C5220  1  0.586900  0.946000  0.706000  1
  C  C5221  1  0.946000  0.586900  0.294000  1
  C  C5222  1  0.054000  0.413100  0.794000  1
  C  C5223  1  0.086900  0.554000  0.044000  1
  C  C5224  1  0.913100  0.446000  0.544000  1
  C  C5225  1  0.529400  0.074900  0.943600  1
  C  C5226  1  0.470600  0.925100  0.443600  1
  C  C5227  1  0.425100  0.029400  0.193600  1
  C  C5228  1  0.574900  0.970600  0.693600  1
  C  C5229  1  0.970600  0.574900  0.306400  1
  C  C5230  1  0.029400  0.425100  0.806400  1
  C  C5231  1  0.074900  0.529400  0.056400  1
  C  C5232  1  0.925100  0.470600  0.556400  1
  C  C5233  1  0.521900  0.082900  0.922500  1
  C  C5234  1  0.478100  0.917100  0.422500  1
  C  C5235  1  0.417100  0.021900  0.172500  1
  C  C5236  1  0.582900  0.978100  0.672500  1
  C  C5237  1  0.978100  0.582900  0.327500  1
  C  C5238  1  0.021900  0.417100  0.827500  1
  C  C5239  1  0.082900  0.521900  0.077500  1
  C  C5240  1  0.917100  0.478100  0.577500  1
  C  C5241  1  0.540300  0.102500  0.908000  1
  C  C5242  1  0.459700  0.897500  0.408000  1
  C  C5243  1  0.397500  0.040300  0.158000  1
  C  C5244  1  0.602500  0.959700  0.658000  1
  C  C5245  1  0.959700  0.602500  0.342000  1
  C  C5246  1  0.040300  0.397500  0.842000  1
  C  C5247  1  0.102500  0.540300  0.092000  1
  C  C5248  1  0.897500  0.459700  0.592000  1
  C  C5249  1  0.509300  0.052800  0.959600  1
  C  C5250  1  0.490700  0.947200  0.459600  1
  C  C5251  1  0.447200  0.009300  0.209600  1
  C  C5252  1  0.552800  0.990700  0.709600  1
  C  C5253  1  0.990700  0.552800  0.290400  1
  C  C5254  1  0.009300  0.447200  0.790400  1
  C  C5255  1  0.052800  0.509300  0.040400  1
  C  C5256  1  0.947200  0.490700  0.540400  1
  C  C5257  1  0.882100  0.368700  0.965400  1
  C  C5258  1  0.117900  0.631300  0.465400  1
  C  C5259  1  0.131300  0.382100  0.215400  1
  C  C5260  1  0.868700  0.617900  0.715400  1
  C  C5261  1  0.617900  0.868700  0.284600  1
  C  C5262  1  0.382100  0.131300  0.784600  1
  C  C5263  1  0.368700  0.882100  0.034600  1
  C  C5264  1  0.631300  0.117900  0.534600  1
  C  C5265  1  0.853800  0.372000  0.954900  1
  C  C5266  1  0.146200  0.628000  0.454900  1
  C  C5267  1  0.128000  0.353800  0.204900  1
  C  C5268  1  0.872000  0.646200  0.704900  1
  C  C5269  1  0.646200  0.872000  0.295100  1
  C  C5270  1  0.353800  0.128000  0.795100  1
  C  C5271  1  0.372000  0.853800  0.045100  1
  C  C5272  1  0.628000  0.146200  0.545100  1
  C  C5273  1  0.846300  0.398700  0.942700  1
  C  C5274  1  0.153700  0.601300  0.442700  1
  C  C5275  1  0.101300  0.346300  0.192700  1
  C  C5276  1  0.898700  0.653700  0.692700  1
  C  C5277  1  0.653700  0.898700  0.307300  1
  C  C5278  1  0.346300  0.101300  0.807300  1
  C  C5279  1  0.398700  0.846300  0.057300  1
  C  C5280  1  0.601300  0.153700  0.557300  1
  C  C5281  1  0.869000  0.423300  0.941600  1
  C  C5282  1  0.131000  0.576700  0.441600  1
  C  C5283  1  0.076700  0.369000  0.191600  1
  C  C5284  1  0.923300  0.631000  0.691600  1
  C  C5285  1  0.631000  0.923300  0.308400  1
  C  C5286  1  0.369000  0.076700  0.808400  1
  C  C5287  1  0.423300  0.869000  0.058400  1
  C  C5288  1  0.576700  0.131000  0.558400  1
  C  C5289  1  0.896100  0.418800  0.952900  1
  C  C5290  1  0.103900  0.581200  0.452900  1
  C  C5291  1  0.081200  0.396100  0.202900  1
  C  C5292  1  0.918800  0.603900  0.702900  1
  C  C5293  1  0.603900  0.918800  0.297100  1
  C  C5294  1  0.396100  0.081200  0.797100  1
  C  C5295  1  0.418800  0.896100  0.047100  1
  C  C5296  1  0.581200  0.103900  0.547100  1
  C  C5297  1  0.905500  0.391900  0.963400  1
  C  C5298  1  0.094500  0.608100  0.463400  1
  C  C5299  1  0.108100  0.405500  0.213400  1
  C  C5300  1  0.891900  0.594500  0.713400  1
  C  C5301  1  0.594500  0.891900  0.286600  1
  C  C5302  1  0.405500  0.108100  0.786600  1
  C  C5303  1  0.391900  0.905500  0.036600  1
  C  C5304  1  0.608100  0.094500  0.536600  1
  C  C5305  1  0.859500  0.454600  0.927400  1
  C  C5306  1  0.140500  0.545400  0.427400  1
  C  C5307  1  0.045400  0.359500  0.177400  1
  C  C5308  1  0.954600  0.640500  0.677400  1
  C  C5309  1  0.640500  0.954600  0.322600  1
  C  C5310  1  0.359500  0.045400  0.822600  1
  C  C5311  1  0.454600  0.859500  0.072600  1
  C  C5312  1  0.545400  0.140500  0.572600  1
  C  C5313  1  0.904100  0.341000  0.997600  1
  C  C5314  1  0.095900  0.659000  0.497600  1
  C  C5315  1  0.159000  0.404100  0.247600  1
  C  C5316  1  0.841000  0.595900  0.747600  1
  C  C5317  1  0.595900  0.841000  0.252400  1
  C  C5318  1  0.404100  0.159000  0.752400  1
  C  C5319  1  0.341000  0.904100  0.002400  1
  C  C5320  1  0.659000  0.095900  0.502400  1
  C  C5321  1  0.913900  0.310300  0.007200  1
  C  C5322  1  0.086100  0.689700  0.507200  1
  C  C5323  1  0.189700  0.413900  0.257200  1
  C  C5324  1  0.810300  0.586100  0.757200  1
  C  C5325  1  0.586100  0.810300  0.242800  1
  C  C5326  1  0.413900  0.189700  0.742800  1
  C  C5327  1  0.310300  0.913900  0.992800  1
  C  C5328  1  0.689700  0.086100  0.492800  1
  C  C5329  1  0.909200  0.256700  0.003600  1
  C  C5330  1  0.090800  0.743300  0.503600  1
  C  C5331  1  0.243300  0.409200  0.253600  1
  C  C5332  1  0.756700  0.590800  0.753600  1
  C  C5333  1  0.590800  0.756700  0.246400  1
  C  C5334  1  0.409200  0.243300  0.746400  1
  C  C5335  1  0.256700  0.909200  0.996400  1
  C  C5336  1  0.743300  0.090800  0.496400  1
  C  C5337  1  0.925100  0.252000  0.026200  1
  C  C5338  1  0.074900  0.748000  0.526200  1
  C  C5339  1  0.248000  0.425100  0.276200  1
  C  C5340  1  0.752000  0.574900  0.776200  1
  C  C5341  1  0.574900  0.752000  0.223800  1
  C  C5342  1  0.425100  0.248000  0.723800  1
  C  C5343  1  0.252000  0.925100  0.973800  1
  C  C5344  1  0.748000  0.074900  0.473800  1
  C  C5345  1  0.935400  0.277300  0.039000  1
  C  C5346  1  0.064600  0.722700  0.539000  1
  C  C5347  1  0.222700  0.435400  0.289000  1
  C  C5348  1  0.777300  0.564600  0.789000  1
  C  C5349  1  0.564600  0.777300  0.211000  1
  C  C5350  1  0.435400  0.222700  0.711000  1
  C  C5351  1  0.277300  0.935400  0.961000  1
  C  C5352  1  0.722700  0.064600  0.461000  1
  C  C5353  1  0.930500  0.307000  0.029000  1
  C  C5354  1  0.069500  0.693000  0.529000  1
  C  C5355  1  0.193000  0.430500  0.279000  1
  C  C5356  1  0.807000  0.569500  0.779000  1
  C  C5357  1  0.569500  0.807000  0.221000  1
  C  C5358  1  0.430500  0.193000  0.721000  1
  C  C5359  1  0.307000  0.930500  0.971000  1
  C  C5360  1  0.693000  0.069500  0.471000  1
  C  C5361  1  0.931800  0.222000  0.033700  1
  C  C5362  1  0.068200  0.778000  0.533700  1
  C  C5363  1  0.278000  0.431800  0.283700  1
  C  C5364  1  0.722000  0.568200  0.783700  1
  C  C5365  1  0.568200  0.722000  0.216300  1
  C  C5366  1  0.431800  0.278000  0.716300  1
  C  C5367  1  0.222000  0.931800  0.966300  1
  C  C5368  1  0.778000  0.068200  0.466300  1
  C  C5369  1  0.906400  0.199500  0.036000  1
  C  C5370  1  0.093600  0.800500  0.536000  1
  C  C5371  1  0.300500  0.406400  0.286000  1
  C  C5372  1  0.699500  0.593600  0.786000  1
  C  C5373  1  0.593600  0.699500  0.214000  1
  C  C5374  1  0.406400  0.300500  0.714000  1
  C  C5375  1  0.199500  0.906400  0.964000  1
  C  C5376  1  0.800500  0.093600  0.464000  1
  C  C5377  1  0.940400  0.163000  0.050800  1
  C  C5378  1  0.059600  0.837000  0.550800  1
  C  C5379  1  0.337000  0.440400  0.300800  1
  C  C5380  1  0.663000  0.559600  0.800800  1
  C  C5381  1  0.559600  0.663000  0.199200  1
  C  C5382  1  0.440400  0.337000  0.699200  1
  C  C5383  1  0.163000  0.940400  0.949200  1
  C  C5384  1  0.837000  0.059600  0.449200  1
  C  C5385  1  0.965300  0.182400  0.050400  1
  C  C5386  1  0.034700  0.817600  0.550400  1
  C  C5387  1  0.317600  0.465300  0.300400  1
  C  C5388  1  0.682400  0.534700  0.800400  1
  C  C5389  1  0.534700  0.682400  0.199600  1
  C  C5390  1  0.465300  0.317600  0.699600  1
  C  C5391  1  0.182400  0.965300  0.949600  1
  C  C5392  1  0.817600  0.034700  0.449600  1
  C  C5393  1  0.960000  0.210200  0.042800  1
  C  C5394  1  0.040000  0.789800  0.542800  1
  C  C5395  1  0.289800  0.460000  0.292800  1
  C  C5396  1  0.710200  0.540000  0.792800  1
  C  C5397  1  0.540000  0.710200  0.207200  1
  C  C5398  1  0.460000  0.289800  0.707200  1
  C  C5399  1  0.210200  0.960000  0.957200  1
  C  C5400  1  0.789800  0.040000  0.457200  1
  C  C5401  1  0.943300  0.131900  0.060200  1
  C  C5402  1  0.056700  0.868100  0.560200  1
  C  C5403  1  0.368100  0.443300  0.310200  1
  C  C5404  1  0.631900  0.556700  0.810200  1
  C  C5405  1  0.556700  0.631900  0.189800  1
  C  C5406  1  0.443300  0.368100  0.689800  1
  C  C5407  1  0.131900  0.943300  0.939800  1
  C  C5408  1  0.868100  0.056700  0.439800  1
  C  C5409  1  0.918000  0.085700  0.072300  1
  C  C5410  1  0.082000  0.914300  0.572300  1
  C  C5411  1  0.414300  0.418000  0.322300  1
  C  C5412  1  0.585700  0.582000  0.822300  1
  C  C5413  1  0.582000  0.585700  0.177700  1
  C  C5414  1  0.418000  0.414300  0.677700  1
  C  C5415  1  0.085700  0.918000  0.927700  1
  C  C5416  1  0.914300  0.082000  0.427700  1
  C  C5417  1  0.901300  0.061600  0.061600  1
  C  C5418  1  0.098700  0.938400  0.561600  1
  C  C5419  1  0.438400  0.401300  0.311600  1
  C  C5420  1  0.561600  0.598700  0.811600  1
  C  C5421  1  0.598700  0.561600  0.188400  1
  C  C5422  1  0.401300  0.438400  0.688400  1
  C  C5423  1  0.061600  0.901300  0.938400  1
  C  C5424  1  0.938400  0.098700  0.438400  1
  C  C5425  1  0.900500  0.032700  0.072900  1
  C  C5426  1  0.099500  0.967300  0.572900  1
  C  C5427  1  0.467300  0.400500  0.322900  1
  C  C5428  1  0.532700  0.599500  0.822900  1
  C  C5429  1  0.599500  0.532700  0.177100  1
  C  C5430  1  0.400500  0.467300  0.677100  1
  C  C5431  1  0.032700  0.900500  0.927100  1
  C  C5432  1  0.967300  0.099500  0.427100  1
  C  C5433  1  0.916400  0.027900  0.094900  1
  C  C5434  1  0.083600  0.972100  0.594900  1
  C  C5435  1  0.472100  0.416400  0.344900  1
  C  C5436  1  0.527900  0.583600  0.844900  1
  C  C5437  1  0.583600  0.527900  0.155100  1
  C  C5438  1  0.416400  0.472100  0.655100  1
  C  C5439  1  0.027900  0.916400  0.905100  1
  C  C5440  1  0.972100  0.083600  0.405100  1
  C  C5441  1  0.933100  0.052000  0.105620  1
  C  C5442  1  0.066900  0.948000  0.605620  1
  C  C5443  1  0.448000  0.433100  0.355620  1
  C  C5444  1  0.552000  0.566900  0.855620  1
  C  C5445  1  0.566900  0.552000  0.144380  1
  C  C5446  1  0.433100  0.448000  0.644380  1
  C  C5447  1  0.052000  0.933100  0.894380  1
  C  C5448  1  0.948000  0.066900  0.394380  1
  C  C5449  1  0.933800  0.080900  0.094300  1
  C  C5450  1  0.066200  0.919100  0.594300  1
  C  C5451  1  0.419100  0.433800  0.344300  1
  C  C5452  1  0.580900  0.566200  0.844300  1
  C  C5453  1  0.566200  0.580900  0.155700  1
  C  C5454  1  0.433800  0.419100  0.655700  1
  C  C5455  1  0.080900  0.933800  0.905700  1
  C  C5456  1  0.919100  0.066200  0.405700  1
  C  C5457  1  0.920000  0.993900  0.105500  1
  C  C5458  1  0.080000  0.006100  0.605500  1
  C  C5459  1  0.506100  0.420000  0.355500  1
  C  C5460  1  0.493900  0.580000  0.855500  1
  C  C5461  1  0.580000  0.493900  0.144500  1
  C  C5462  1  0.420000  0.506100  0.644500  1
  C  C5463  1  0.993900  0.920000  0.894500  1
  C  C5464  1  0.006100  0.080000  0.394500  1
  C  C5465  1  0.902800  0.179100  0.099300  1
  C  C5466  1  0.097200  0.820900  0.599300  1
  C  C5467  1  0.320900  0.402800  0.349300  1
  C  C5468  1  0.679100  0.597200  0.849300  1
  C  C5469  1  0.597200  0.679100  0.150700  1
  C  C5470  1  0.402800  0.320900  0.650700  1
  C  C5471  1  0.179100  0.902800  0.900700  1
  C  C5472  1  0.820900  0.097200  0.400700  1
  C  C5473  1  0.897200  0.210500  0.091900  1
  C  C5474  1  0.102800  0.789500  0.591900  1
  C  C5475  1  0.289500  0.397200  0.341900  1
  C  C5476  1  0.710500  0.602800  0.841900  1
  C  C5477  1  0.602800  0.710500  0.158100  1
  C  C5478  1  0.397200  0.289500  0.658100  1
  C  C5479  1  0.210500  0.897200  0.908100  1
  C  C5480  1  0.789500  0.102800  0.408100  1
  C  C5481  1  0.918500  0.231900  0.099100  1
  C  C5482  1  0.081500  0.768100  0.599100  1
  C  C5483  1  0.268100  0.418500  0.349100  1
  C  C5484  1  0.731900  0.581500  0.849100  1
  C  C5485  1  0.581500  0.731900  0.150900  1
  C  C5486  1  0.418500  0.268100  0.650900  1
  C  C5487  1  0.231900  0.918500  0.900900  1
  C  C5488  1  0.768100  0.081500  0.400900  1
  C  C5489  1  0.945500  0.224600  0.110700  1
  C  C5490  1  0.054500  0.775400  0.610700  1
  C  C5491  1  0.275400  0.445500  0.360700  1
  C  C5492  1  0.724600  0.554500  0.860700  1
  C  C5493  1  0.554500  0.724600  0.139300  1
  C  C5494  1  0.445500  0.275400  0.639300  1
  C  C5495  1  0.224600  0.945500  0.889300  1
  C  C5496  1  0.775400  0.054500  0.389300  1
  C  C5497  1  0.952200  0.195900  0.117800  1
  C  C5498  1  0.047800  0.804100  0.617800  1
  C  C5499  1  0.304100  0.452200  0.367800  1
  C  C5500  1  0.695900  0.547800  0.867800  1
  C  C5501  1  0.547800  0.695900  0.132200  1
  C  C5502  1  0.452200  0.304100  0.632200  1
  C  C5503  1  0.195900  0.952200  0.882200  1
  C  C5504  1  0.804100  0.047800  0.382200  1
  C  C5505  1  0.928700  0.173300  0.113800  1
  C  C5506  1  0.071300  0.826700  0.613800  1
  C  C5507  1  0.326700  0.428700  0.363800  1
  C  C5508  1  0.673300  0.571300  0.863800  1
  C  C5509  1  0.571300  0.673300  0.136200  1
  C  C5510  1  0.428700  0.326700  0.636200  1
  C  C5511  1  0.173300  0.928700  0.886200  1
  C  C5512  1  0.826700  0.071300  0.386200  1
  C  C5513  1  0.969800  0.250600  0.113800  1
  C  C5514  1  0.030200  0.749400  0.613800  1
  C  C5515  1  0.249400  0.469800  0.363800  1
  C  C5516  1  0.750600  0.530200  0.863800  1
  C  C5517  1  0.530200  0.750600  0.136200  1
  C  C5518  1  0.469800  0.249400  0.636200  1
  C  C5519  1  0.250600  0.969800  0.886200  1
  C  C5520  1  0.749400  0.030200  0.386200  1
  C  C5521  1  0.873900  0.136400  0.105300  1
  C  C5522  1  0.126100  0.863600  0.605300  1
  C  C5523  1  0.363600  0.373900  0.355300  1
  C  C5524  1  0.636400  0.626100  0.855300  1
  C  C5525  1  0.626100  0.636400  0.144700  1
  C  C5526  1  0.373900  0.363600  0.644700  1
  C  C5527  1  0.136400  0.873900  0.894700  1
  C  C5528  1  0.863600  0.126100  0.394700  1
  C  C5529  1  0.855100  0.110000  0.096100  1
  C  C5530  1  0.144900  0.890000  0.596100  1
  C  C5531  1  0.390000  0.355100  0.346100  1
  C  C5532  1  0.610000  0.644900  0.846100  1
  C  C5533  1  0.644900  0.610000  0.153900  1
  C  C5534  1  0.355100  0.390000  0.653900  1
  C  C5535  1  0.110000  0.855100  0.903900  1
  C  C5536  1  0.890000  0.144900  0.403900  1
  C  C5537  1  0.832500  0.090300  0.060100  1
  C  C5538  1  0.167500  0.909700  0.560100  1
  C  C5539  1  0.409700  0.332500  0.310100  1
  C  C5540  1  0.590300  0.667500  0.810100  1
  C  C5541  1  0.667500  0.590300  0.189900  1
  C  C5542  1  0.332500  0.409700  0.689900  1
  C  C5543  1  0.090300  0.832500  0.939900  1
  C  C5544  1  0.909700  0.167500  0.439900  1
  C  C5545  1  0.819600  0.067700  0.074100  1
  C  C5546  1  0.180400  0.932300  0.574100  1
  C  C5547  1  0.432300  0.319600  0.324100  1
  C  C5548  1  0.567700  0.680400  0.824100  1
  C  C5549  1  0.680400  0.567700  0.175900  1
  C  C5550  1  0.319600  0.432300  0.675900  1
  C  C5551  1  0.067700  0.819600  0.925900  1
  C  C5552  1  0.932300  0.180400  0.425900  1
  C  C5553  1  0.821100  0.065300  0.098900  1
  C  C5554  1  0.178900  0.934700  0.598900  1
  C  C5555  1  0.434700  0.321100  0.348900  1
  C  C5556  1  0.565300  0.678900  0.848900  1
  C  C5557  1  0.678900  0.565300  0.151100  1
  C  C5558  1  0.321100  0.434700  0.651100  1
  C  C5559  1  0.065300  0.821100  0.901100  1
  C  C5560  1  0.934700  0.178900  0.401100  1
  C  C5561  1  0.840600  0.087300  0.109400  1
  C  C5562  1  0.159400  0.912700  0.609400  1
  C  C5563  1  0.412700  0.340600  0.359400  1
  C  C5564  1  0.587300  0.659400  0.859400  1
  C  C5565  1  0.659400  0.587300  0.140600  1
  C  C5566  1  0.340600  0.412700  0.640600  1
  C  C5567  1  0.087300  0.840600  0.890600  1
  C  C5568  1  0.912700  0.159400  0.390600  1
  C  C5569  1  0.798400  0.044100  0.061200  1
  C  C5570  1  0.201600  0.955900  0.561200  1
  C  C5571  1  0.455900  0.298400  0.311200  1
  C  C5572  1  0.544100  0.701600  0.811200  1
  C  C5573  1  0.701600  0.544100  0.188800  1
  C  C5574  1  0.298400  0.455900  0.688800  1
  C  C5575  1  0.044100  0.798400  0.938800  1
  C  C5576  1  0.955900  0.201600  0.438800  1
  C  C5577  1  0.773700  0.051900  0.047300  1
  C  C5578  1  0.226300  0.948100  0.547300  1
  C  C5579  1  0.448100  0.273700  0.297300  1
  C  C5580  1  0.551900  0.726300  0.797300  1
  C  C5581  1  0.726300  0.551900  0.202700  1
  C  C5582  1  0.273700  0.448100  0.702700  1
  C  C5583  1  0.051900  0.773700  0.952700  1
  C  C5584  1  0.948100  0.226300  0.452700  1
  C  C5585  1  0.760500  0.000000  0.041200  1
  C  C5586  1  0.239500  0.000000  0.541200  1
  C  C5587  1  0.500000  0.260500  0.291200  1
  C  C5588  1  0.500000  0.739500  0.791200  1
  C  C5589  1  0.739500  0.500000  0.208800  1
  C  C5590  1  0.260500  0.500000  0.708800  1
  C  C5591  1  0.000000  0.760500  0.958800  1
  C  C5592  1  0.000000  0.239500  0.458800  1
  C  C5593  1  0.781000  0.990800  0.056700  1
  C  C5594  1  0.219000  0.009200  0.556700  1
  C  C5595  1  0.509200  0.281000  0.306700  1
  C  C5596  1  0.490800  0.719000  0.806700  1
  C  C5597  1  0.719000  0.490800  0.193300  1
  C  C5598  1  0.281000  0.509200  0.693300  1
  C  C5599  1  0.990800  0.781000  0.943300  1
  C  C5600  1  0.009200  0.219000  0.443300  1
  C  C5601  1  0.804500  0.011500  0.065900  1
  C  C5602  1  0.195500  0.988500  0.565900  1
  C  C5603  1  0.488500  0.304500  0.315900  1
  C  C5604  1  0.511500  0.695500  0.815900  1
  C  C5605  1  0.695500  0.511500  0.184100  1
  C  C5606  1  0.304500  0.488500  0.684100  1
  C  C5607  1  0.011500  0.804500  0.934100  1
  C  C5608  1  0.988500  0.195500  0.434100  1
  C  C5609  1  0.736500  0.980700  0.030200  1
  C  C5610  1  0.263500  0.019300  0.530200  1
  C  C5611  1  0.519300  0.236500  0.280200  1
  C  C5612  1  0.480700  0.763500  0.780200  1
  C  C5613  1  0.763500  0.480700  0.219800  1
  C  C5614  1  0.236500  0.519300  0.719800  1
  C  C5615  1  0.980700  0.736500  0.969800  1
  C  C5616  1  0.019300  0.263500  0.469800  1
  C  C5617  1  0.691900  0.972700  0.006800  1
  C  C5618  1  0.308100  0.027300  0.506800  1
  C  C5619  1  0.527300  0.191900  0.256800  1
  C  C5620  1  0.472700  0.808100  0.756800  1
  C  C5621  1  0.808100  0.472700  0.243200  1
  C  C5622  1  0.191900  0.527300  0.743200  1
  C  C5623  1  0.972700  0.691900  0.993200  1
  C  C5624  1  0.027300  0.308100  0.493200  1
  C  C5625  1  0.683800  0.973500  0.984300  1
  C  C5626  1  0.316200  0.026500  0.484300  1
  C  C5627  1  0.526500  0.183800  0.234300  1
  C  C5628  1  0.473500  0.816200  0.734300  1
  C  C5629  1  0.816200  0.473500  0.265700  1
  C  C5630  1  0.183800  0.526500  0.765700  1
  C  C5631  1  0.973500  0.683800  0.015700  1
  C  C5632  1  0.026500  0.316200  0.515700  1
  C  C5633  1  0.659400  0.956100  0.974300  1
  C  C5634  1  0.340600  0.043900  0.474300  1
  C  C5635  1  0.543900  0.159400  0.224300  1
  C  C5636  1  0.456100  0.840600  0.724300  1
  C  C5637  1  0.840600  0.456100  0.275700  1
  C  C5638  1  0.159400  0.543900  0.775700  1
  C  C5639  1  0.956100  0.659400  0.025700  1
  C  C5640  1  0.043900  0.340600  0.525700  1
  C  C5641  1  0.645900  0.937400  0.988900  1
  C  C5642  1  0.354100  0.062600  0.488900  1
  C  C5643  1  0.562600  0.145900  0.238900  1
  C  C5644  1  0.437400  0.854100  0.738900  1
  C  C5645  1  0.854100  0.437400  0.261100  1
  C  C5646  1  0.145900  0.562600  0.761100  1
  C  C5647  1  0.937400  0.645900  0.011100  1
  C  C5648  1  0.062600  0.354100  0.511100  1
  C  C5649  1  0.654700  0.933100  0.013400  1
  C  C5650  1  0.345300  0.066900  0.513400  1
  C  C5651  1  0.566900  0.154700  0.263400  1
  C  C5652  1  0.433100  0.845300  0.763400  1
  C  C5653  1  0.845300  0.433100  0.236600  1
  C  C5654  1  0.154700  0.566900  0.736600  1
  C  C5655  1  0.933100  0.654700  0.986600  1
  C  C5656  1  0.066900  0.345300  0.486600  1
  C  C5657  1  0.680500  0.952700  0.023200  1
  C  C5658  1  0.319500  0.047300  0.523200  1
  C  C5659  1  0.547300  0.180500  0.273200  1
  C  C5660  1  0.452700  0.819500  0.773200  1
  C  C5661  1  0.819500  0.452700  0.226800  1
  C  C5662  1  0.180500  0.547300  0.726800  1
  C  C5663  1  0.952700  0.680500  0.976800  1
  C  C5664  1  0.047300  0.319500  0.476800  1
  C  C5665  1  0.620300  0.915900  0.983400  1
  C  C5666  1  0.379700  0.084100  0.483400  1
  C  C5667  1  0.584100  0.120300  0.233400  1
  C  C5668  1  0.415900  0.879700  0.733400  1
  C  C5669  1  0.879700  0.415900  0.266600  1
  C  C5670  1  0.120300  0.584100  0.766600  1
  C  C5671  1  0.915900  0.620300  0.016600  1
  C  C5672  1  0.084100  0.379700  0.516600  1
  C  C5673  1  0.700200  0.028600  0.073000  1
  C  C5674  1  0.299800  0.971400  0.573000  1
  C  C5675  1  0.471400  0.200200  0.323000  1
  C  C5676  1  0.528600  0.799800  0.823000  1
  C  C5677  1  0.799800  0.528600  0.177000  1
  C  C5678  1  0.200200  0.471400  0.677000  1
  C  C5679  1  0.028600  0.700200  0.927000  1
  C  C5680  1  0.971400  0.299800  0.427000  1
  C  C5681  1  0.692000  0.000800  0.087800  1
  C  C5682  1  0.308000  0.999200  0.587800  1
  C  C5683  1  0.499200  0.192000  0.337800  1
  C  C5684  1  0.500800  0.808000  0.837800  1
  C  C5685  1  0.808000  0.500800  0.162200  1
  C  C5686  1  0.192000  0.499200  0.662200  1
  C  C5687  1  0.000800  0.692000  0.912200  1
  C  C5688  1  0.999200  0.308000  0.412200  1
  C  C5689  1  0.701600  0.996800  0.110100  1
  C  C5690  1  0.298400  0.003200  0.610100  1
  C  C5691  1  0.503200  0.201600  0.360100  1
  C  C5692  1  0.496800  0.798400  0.860100  1
  C  C5693  1  0.798400  0.496800  0.139900  1
  C  C5694  1  0.201600  0.503200  0.639900  1
  C  C5695  1  0.996800  0.701600  0.889900  1
  C  C5696  1  0.003200  0.298400  0.389900  1
  C  C5697  1  0.722600  0.017600  0.120800  1
  C  C5698  1  0.277400  0.982400  0.620800  1
  C  C5699  1  0.482400  0.222600  0.370800  1
  C  C5700  1  0.517600  0.777400  0.870800  1
  C  C5701  1  0.777400  0.517600  0.129200  1
  C  C5702  1  0.222600  0.482400  0.629200  1
  C  C5703  1  0.017600  0.722600  0.879200  1
  C  C5704  1  0.982400  0.277400  0.379200  1
  C  C5705  1  0.730500  0.045200  0.107500  1
  C  C5706  1  0.269500  0.954800  0.607500  1
  C  C5707  1  0.454800  0.230500  0.357500  1
  C  C5708  1  0.545200  0.769500  0.857500  1
  C  C5709  1  0.769500  0.545200  0.142500  1
  C  C5710  1  0.230500  0.454800  0.642500  1
  C  C5711  1  0.045200  0.730500  0.892500  1
  C  C5712  1  0.954800  0.269500  0.392500  1
  C  C5713  1  0.718900  0.049200  0.083800  1
  C  C5714  1  0.281100  0.950800  0.583800  1
  C  C5715  1  0.450800  0.218900  0.333800  1
  C  C5716  1  0.549200  0.781100  0.833800  1
  C  C5717  1  0.781100  0.549200  0.166200  1
  C  C5718  1  0.218900  0.450800  0.666200  1
  C  C5719  1  0.049200  0.718900  0.916200  1
  C  C5720  1  0.950800  0.281100  0.416200  1
  C  C5721  1  0.733100  0.013200  0.147600  1
  C  C5722  1  0.266900  0.986800  0.647600  1
  C  C5723  1  0.486800  0.233100  0.397600  1
  C  C5724  1  0.513200  0.766900  0.897600  1
  C  C5725  1  0.766900  0.513200  0.102400  1
  C  C5726  1  0.233100  0.486800  0.602400  1
  C  C5727  1  0.013200  0.733100  0.852400  1
  C  C5728  1  0.986800  0.266900  0.352400  1
  C  C5729  1  0.662000  0.026900  0.043200  1
  C  C5730  1  0.338000  0.973100  0.543200  1
  C  C5731  1  0.473100  0.162000  0.293200  1
  C  C5732  1  0.526900  0.838000  0.793200  1
  C  C5733  1  0.838000  0.526900  0.206800  1
  C  C5734  1  0.162000  0.473100  0.706800  1
  C  C5735  1  0.026900  0.662000  0.956800  1
  C  C5736  1  0.973100  0.338000  0.456800  1
  C  C5737  1  0.652500  0.031500  0.018200  1
  C  C5738  1  0.347500  0.968500  0.518200  1
  C  C5739  1  0.468500  0.152500  0.268200  1
  C  C5740  1  0.531500  0.847500  0.768200  1
  C  C5741  1  0.847500  0.531500  0.231800  1
  C  C5742  1  0.152500  0.468500  0.731800  1
  C  C5743  1  0.031500  0.652500  0.981800  1
  C  C5744  1  0.968500  0.347500  0.481800  1
  C  C5745  1  0.668000  0.050200  0.979500  1
  C  C5746  1  0.332000  0.949800  0.479500  1
  C  C5747  1  0.449800  0.168000  0.229500  1
  C  C5748  1  0.550200  0.832000  0.729500  1
  C  C5749  1  0.832000  0.550200  0.270500  1
  C  C5750  1  0.168000  0.449800  0.770500  1
  C  C5751  1  0.050200  0.668000  0.020500  1
  C  C5752  1  0.949800  0.332000  0.520500  1
  C  C5753  1  0.636600  0.044600  0.970800  1
  C  C5754  1  0.363400  0.955400  0.470800  1
  C  C5755  1  0.455400  0.136600  0.220800  1
  C  C5756  1  0.544600  0.863400  0.720800  1
  C  C5757  1  0.863400  0.544600  0.279200  1
  C  C5758  1  0.136600  0.455400  0.779200  1
  C  C5759  1  0.044600  0.636600  0.029200  1
  C  C5760  1  0.955400  0.363400  0.529200  1
  C  C5761  1  0.617100  0.030700  0.984900  1
  C  C5762  1  0.382900  0.969300  0.484900  1
  C  C5763  1  0.469300  0.117100  0.234900  1
  C  C5764  1  0.530700  0.882900  0.734900  1
  C  C5765  1  0.882900  0.530700  0.265100  1
  C  C5766  1  0.117100  0.469300  0.765100  1
  C  C5767  1  0.030700  0.617100  0.015100  1
  C  C5768  1  0.969300  0.382900  0.515100  1
  C  C5769  1  0.623600  0.025700  0.010300  1
  C  C5770  1  0.376400  0.974300  0.510300  1
  C  C5771  1  0.474300  0.123600  0.260300  1
  C  C5772  1  0.525700  0.876400  0.760300  1
  C  C5773  1  0.876400  0.525700  0.239700  1
  C  C5774  1  0.123600  0.474300  0.739700  1
  C  C5775  1  0.025700  0.623600  0.989700  1
  C  C5776  1  0.974300  0.376400  0.489700  1
  C  C5777  1  0.633400  0.053200  0.944000  1
  C  C5778  1  0.366600  0.946800  0.444000  1
  C  C5779  1  0.446800  0.133400  0.194000  1
  C  C5780  1  0.553200  0.866600  0.694000  1
  C  C5781  1  0.866600  0.553200  0.306000  1
  C  C5782  1  0.133400  0.446800  0.806000  1
  C  C5783  1  0.053200  0.633400  0.056000  1
  C  C5784  1  0.946800  0.366600  0.556000  1
  C  C5785  1  0.638900  0.082700  0.936100  1
  C  C5786  1  0.361100  0.917300  0.436100  1
  C  C5787  1  0.417300  0.138900  0.186100  1
  C  C5788  1  0.582700  0.861100  0.686100  1
  C  C5789  1  0.861100  0.582700  0.313900  1
  C  C5790  1  0.138900  0.417300  0.813900  1
  C  C5791  1  0.082700  0.638900  0.063900  1
  C  C5792  1  0.917300  0.361100  0.563900  1
  C  C5793  1  0.616700  0.069900  0.897400  1
  C  C5794  1  0.383300  0.930100  0.397400  1
  C  C5795  1  0.430100  0.116700  0.147400  1
  C  C5796  1  0.569900  0.883300  0.647400  1
  C  C5797  1  0.883300  0.569900  0.352600  1
  C  C5798  1  0.116700  0.430100  0.852600  1
  C  C5799  1  0.069900  0.616700  0.102600  1
  C  C5800  1  0.930100  0.383300  0.602600  1
  C  C5801  1  0.610200  0.042400  0.904900  1
  C  C5802  1  0.389800  0.957600  0.404900  1
  C  C5803  1  0.457600  0.110200  0.154900  1
  C  C5804  1  0.542400  0.889800  0.654900  1
  C  C5805  1  0.889800  0.542400  0.345100  1
  C  C5806  1  0.110200  0.457600  0.845100  1
  C  C5807  1  0.042400  0.610200  0.095100  1
  C  C5808  1  0.957600  0.389800  0.595100  1
  C  C5809  1  0.617600  0.032400  0.927900  1
  C  C5810  1  0.382400  0.967600  0.427900  1
  C  C5811  1  0.467600  0.117600  0.177900  1
  C  C5812  1  0.532400  0.882400  0.677900  1
  C  C5813  1  0.882400  0.532400  0.322100  1
  C  C5814  1  0.117600  0.467600  0.822100  1
  C  C5815  1  0.032400  0.617600  0.072100  1
  C  C5816  1  0.967600  0.382400  0.572100  1
  C  C5817  1  0.610900  0.084600  0.873700  1
  C  C5818  1  0.389100  0.915400  0.373700  1
  C  C5819  1  0.415400  0.110900  0.123700  1
  C  C5820  1  0.584600  0.889100  0.623700  1
  C  C5821  1  0.889100  0.584600  0.376300  1
  C  C5822  1  0.110900  0.415400  0.876300  1
  C  C5823  1  0.084600  0.610900  0.126300  1
  C  C5824  1  0.915400  0.389100  0.626300  1
  C  C5825  1  0.608300  0.124400  0.846500  1
  C  C5826  1  0.391700  0.875600  0.346500  1
  C  C5827  1  0.375600  0.108300  0.096500  1
  C  C5828  1  0.624400  0.891700  0.596500  1
  C  C5829  1  0.891700  0.624400  0.403500  1
  C  C5830  1  0.108300  0.375600  0.903500  1
  C  C5831  1  0.124400  0.608300  0.153500  1
  C  C5832  1  0.875600  0.391700  0.653500  1
  C  C5833  1  0.628900  0.137100  0.832400  1
  C  C5834  1  0.371100  0.862900  0.332400  1
  C  C5835  1  0.362900  0.128900  0.082400  1
  C  C5836  1  0.637100  0.871100  0.582400  1
  C  C5837  1  0.871100  0.637100  0.417600  1
  C  C5838  1  0.128900  0.362900  0.917600  1
  C  C5839  1  0.137100  0.628900  0.167600  1
  C  C5840  1  0.862900  0.371100  0.667600  1
  C  C5841  1  0.620200  0.155100  0.811500  1
  C  C5842  1  0.379800  0.844900  0.311500  1
  C  C5843  1  0.344900  0.120200  0.061500  1
  C  C5844  1  0.655100  0.879800  0.561500  1
  C  C5845  1  0.879800  0.655100  0.438500  1
  C  C5846  1  0.120200  0.344900  0.938500  1
  C  C5847  1  0.155100  0.620200  0.188500  1
  C  C5848  1  0.844900  0.379800  0.688500  1
  C  C5849  1  0.588200  0.153700  0.802000  1
  C  C5850  1  0.411800  0.846300  0.302000  1
  C  C5851  1  0.346300  0.088200  0.052000  1
  C  C5852  1  0.653700  0.911800  0.552000  1
  C  C5853  1  0.911800  0.653700  0.448000  1
  C  C5854  1  0.088200  0.346300  0.948000  1
  C  C5855  1  0.153700  0.588200  0.198000  1
  C  C5856  1  0.846300  0.411800  0.698000  1
  C  C5857  1  0.567600  0.140400  0.819800  1
  C  C5858  1  0.432400  0.859600  0.319800  1
  C  C5859  1  0.359600  0.067600  0.069800  1
  C  C5860  1  0.640400  0.932400  0.569800  1
  C  C5861  1  0.932400  0.640400  0.430200  1
  C  C5862  1  0.067600  0.359600  0.930200  1
  C  C5863  1  0.140400  0.567600  0.180200  1
  C  C5864  1  0.859600  0.432400  0.680200  1
  C  C5865  1  0.575800  0.126300  0.839000  1
  C  C5866  1  0.424200  0.873700  0.339000  1
  C  C5867  1  0.373700  0.075800  0.089000  1
  C  C5868  1  0.626300  0.924200  0.589000  1
  C  C5869  1  0.924200  0.626300  0.411000  1
  C  C5870  1  0.075800  0.373700  0.911000  1
  C  C5871  1  0.126300  0.575800  0.161000  1
  C  C5872  1  0.873700  0.424200  0.661000  1
  C  C5873  1  0.580100  0.169400  0.779100  1
  C  C5874  1  0.419900  0.830600  0.279100  1
  C  C5875  1  0.330600  0.080100  0.029100  1
  C  C5876  1  0.669400  0.919900  0.529100  1
  C  C5877  1  0.919900  0.669400  0.470900  1
  C  C5878  1  0.080100  0.330600  0.970900  1
  C  C5879  1  0.169400  0.580100  0.220900  1
  C  C5880  1  0.830600  0.419900  0.720900  1
  C  C5881  1  0.826800  0.191300  0.780010  1
  C  C5882  1  0.173200  0.808700  0.280010  1
  C  C5883  1  0.308700  0.326800  0.030010  1
  C  C5884  1  0.691300  0.673200  0.530010  1
  C  C5885  1  0.673200  0.691300  0.469990  1
  C  C5886  1  0.326800  0.308700  0.969990  1
  C  C5887  1  0.191300  0.826800  0.219990  1
  C  C5888  1  0.808700  0.173200  0.719990  1
  C  C5889  1  0.577800  0.235200  0.095600  1
  C  C5890  1  0.422200  0.764800  0.595600  1
  C  C5891  1  0.264800  0.077800  0.345600  1
  C  C5892  1  0.735200  0.922200  0.845600  1
  C  C5893  1  0.922200  0.735200  0.154400  1
  C  C5894  1  0.077800  0.264800  0.654400  1
  C  C5895  1  0.235200  0.577800  0.904400  1
  C  C5896  1  0.764800  0.422200  0.404400  1
  C  C5897  1  0.571400  0.259000  0.115000  1
  C  C5898  1  0.428600  0.741000  0.615000  1
  C  C5899  1  0.241000  0.071400  0.365000  1
  C  C5900  1  0.759000  0.928600  0.865000  1
  C  C5901  1  0.928600  0.759000  0.135000  1
  C  C5902  1  0.071400  0.241000  0.635000  1
  C  C5903  1  0.259000  0.571400  0.885000  1
  C  C5904  1  0.741000  0.428600  0.385000  1
  C  C5905  1  0.644700  0.383900  0.040100  1
  C  C5906  1  0.355300  0.616100  0.540100  1
  C  C5907  1  0.116100  0.144700  0.290100  1
  C  C5908  1  0.883900  0.855300  0.790100  1
  C  C5909  1  0.855300  0.883900  0.209900  1
  C  C5910  1  0.144700  0.116100  0.709900  1
  C  C5911  1  0.383900  0.644700  0.959900  1
  C  C5912  1  0.616100  0.355300  0.459900  1
  C  C5913  1  0.619900  0.390500  0.059200  1
  C  C5914  1  0.380100  0.609500  0.559200  1
  C  C5915  1  0.109500  0.119900  0.309200  1
  C  C5916  1  0.890500  0.880100  0.809200  1
  C  C5917  1  0.880100  0.890500  0.190800  1
  C  C5918  1  0.119900  0.109500  0.690800  1
  C  C5919  1  0.390500  0.619900  0.940800  1
  C  C5920  1  0.609500  0.380100  0.440800  1
  N  N5921  1  0.583300  0.403200  0.944200  1
  N  N5922  1  0.416700  0.596800  0.444200  1
  N  N5923  1  0.096800  0.083300  0.194200  1
  N  N5924  1  0.903200  0.916700  0.694200  1
  N  N5925  1  0.916700  0.903200  0.305800  1
  N  N5926  1  0.083300  0.096800  0.805800  1
  N  N5927  1  0.403200  0.583300  0.055800  1
  N  N5928  1  0.596800  0.416700  0.555800  1
  N  N5929  1  0.638100  0.404200  0.960400  1
  N  N5930  1  0.361900  0.595800  0.460400  1
  N  N5931  1  0.095800  0.138100  0.210400  1
  N  N5932  1  0.904200  0.861900  0.710400  1
  N  N5933  1  0.861900  0.904200  0.289600  1
  N  N5934  1  0.138100  0.095800  0.789600  1
  N  N5935  1  0.404200  0.638100  0.039600  1
  N  N5936  1  0.595800  0.361900  0.539600  1
  N  N5937  1  0.759000  0.414100  0.005000  1
  N  N5938  1  0.241000  0.585900  0.505000  1
  N  N5939  1  0.085900  0.259000  0.255000  1
  N  N5940  1  0.914100  0.741000  0.755000  1
  N  N5941  1  0.741000  0.914100  0.245000  1
  N  N5942  1  0.259000  0.085900  0.745000  1
  N  N5943  1  0.414100  0.759000  0.995000  1
  N  N5944  1  0.585900  0.241000  0.495000  1
  N  N5945  1  0.814500  0.410600  0.017700  1
  N  N5946  1  0.185500  0.589400  0.517700  1
  N  N5947  1  0.089400  0.314500  0.267700  1
  N  N5948  1  0.910600  0.685500  0.767700  1
  N  N5949  1  0.685500  0.910600  0.232300  1
  N  N5950  1  0.314500  0.089400  0.732300  1
  N  N5951  1  0.410600  0.814500  0.982300  1
  N  N5952  1  0.589400  0.185500  0.482300  1
  N  N5953  1  0.623400  0.371900  0.916600  1
  N  N5954  1  0.376600  0.628100  0.416600  1
  N  N5955  1  0.128100  0.123400  0.166600  1
  N  N5956  1  0.871900  0.876600  0.666600  1
  N  N5957  1  0.876600  0.871900  0.333400  1
  N  N5958  1  0.123400  0.128100  0.833400  1
  N  N5959  1  0.371900  0.623400  0.083400  1
  N  N5960  1  0.628100  0.376600  0.583400  1
  N  N5961  1  0.583400  0.338800  0.938600  1
  N  N5962  1  0.416600  0.661200  0.438600  1
  N  N5963  1  0.161200  0.083400  0.188600  1
  N  N5964  1  0.838800  0.916600  0.688600  1
  N  N5965  1  0.916600  0.838800  0.311400  1
  N  N5966  1  0.083400  0.161200  0.811400  1
  N  N5967  1  0.338800  0.583400  0.061400  1
  N  N5968  1  0.661200  0.416600  0.561400  1
  N  N5969  1  0.513400  0.243600  0.982400  1
  N  N5970  1  0.486600  0.756400  0.482400  1
  N  N5971  1  0.256400  0.013400  0.232400  1
  N  N5972  1  0.743600  0.986600  0.732400  1
  N  N5973  1  0.986600  0.743600  0.267600  1
  N  N5974  1  0.013400  0.256400  0.767600  1
  N  N5975  1  0.243600  0.513400  0.017600  1
  N  N5976  1  0.756400  0.486600  0.517600  1
  N  N5977  1  0.481300  0.203300  0.006600  1
  N  N5978  1  0.518700  0.796700  0.506600  1
  N  N5979  1  0.296700  0.981300  0.256600  1
  N  N5980  1  0.703300  0.018700  0.756600  1
  N  N5981  1  0.018700  0.703300  0.243400  1
  N  N5982  1  0.981300  0.296700  0.743400  1
  N  N5983  1  0.203300  0.481300  0.993400  1
  N  N5984  1  0.796700  0.518700  0.493400  1
  N  N5985  1  0.600200  0.361700  0.986500  1
  N  N5986  1  0.399800  0.638300  0.486500  1
  N  N5987  1  0.138300  0.100200  0.236500  1
  N  N5988  1  0.861700  0.899800  0.736500  1
  N  N5989  1  0.899800  0.861700  0.263500  1
  N  N5990  1  0.100200  0.138300  0.763500  1
  N  N5991  1  0.361700  0.600200  0.013500  1
  N  N5992  1  0.638300  0.399800  0.513500  1
  N  N5993  1  0.642000  0.337100  0.960000  1
  N  N5994  1  0.358000  0.662900  0.460000  1
  N  N5995  1  0.162900  0.142000  0.210000  1
  N  N5996  1  0.837100  0.858000  0.710000  1
  N  N5997  1  0.858000  0.837100  0.290000  1
  N  N5998  1  0.142000  0.162900  0.790000  1
  N  N5999  1  0.337100  0.642000  0.040000  1
  N  N6000  1  0.662900  0.358000  0.540000  1
  N  N6001  1  0.724900  0.280600  0.895600  1
  N  N6002  1  0.275100  0.719400  0.395600  1
  N  N6003  1  0.219400  0.224900  0.145600  1
  N  N6004  1  0.780600  0.775100  0.645600  1
  N  N6005  1  0.775100  0.780600  0.354400  1
  N  N6006  1  0.224900  0.219400  0.854400  1
  N  N6007  1  0.280600  0.724900  0.104400  1
  N  N6008  1  0.719400  0.275100  0.604400  1
  N  N6009  1  0.758700  0.255300  0.862700  1
  N  N6010  1  0.241300  0.744700  0.362700  1
  N  N6011  1  0.244700  0.258700  0.112700  1
  N  N6012  1  0.755300  0.741300  0.612700  1
  N  N6013  1  0.741300  0.755300  0.387300  1
  N  N6014  1  0.258700  0.244700  0.887300  1
  N  N6015  1  0.255300  0.758700  0.137300  1
  N  N6016  1  0.744700  0.241300  0.637300  1
  N  N6017  1  0.781900  0.448500  0.045500  1
  N  N6018  1  0.218100  0.551500  0.545500  1
  N  N6019  1  0.051500  0.281900  0.295500  1
  N  N6020  1  0.948500  0.718100  0.795500  1
  N  N6021  1  0.718100  0.948500  0.204500  1
  N  N6022  1  0.281900  0.051500  0.704500  1
  N  N6023  1  0.448500  0.781900  0.954500  1
  N  N6024  1  0.551500  0.218100  0.454500  1
  N  N6025  1  0.797400  0.397900  0.067900  1
  N  N6026  1  0.202600  0.602100  0.567900  1
  N  N6027  1  0.102100  0.297400  0.317900  1
  N  N6028  1  0.897900  0.702600  0.817900  1
  N  N6029  1  0.702600  0.897900  0.182100  1
  N  N6030  1  0.297400  0.102100  0.682100  1
  N  N6031  1  0.397900  0.797400  0.932100  1
  N  N6032  1  0.602100  0.202600  0.432100  1
  N  N6033  1  0.821800  0.290400  0.126900  1
  N  N6034  1  0.178200  0.709600  0.626900  1
  N  N6035  1  0.209600  0.321800  0.376900  1
  N  N6036  1  0.790400  0.678200  0.876900  1
  N  N6037  1  0.678200  0.790400  0.123100  1
  N  N6038  1  0.321800  0.209600  0.623100  1
  N  N6039  1  0.290400  0.821800  0.873100  1
  N  N6040  1  0.709600  0.178200  0.373100  1
  N  N6041  1  0.834000  0.237300  0.143000  1
  N  N6042  1  0.166000  0.762700  0.643000  1
  N  N6043  1  0.262700  0.334000  0.393000  1
  N  N6044  1  0.737300  0.666000  0.893000  1
  N  N6045  1  0.666000  0.737300  0.107000  1
  N  N6046  1  0.334000  0.262700  0.607000  1
  N  N6047  1  0.237300  0.834000  0.857000  1
  N  N6048  1  0.762700  0.166000  0.357000  1
  N  N6049  1  0.735600  0.397000  0.055300  1
  N  N6050  1  0.264400  0.603000  0.555300  1
  N  N6051  1  0.103000  0.235600  0.305300  1
  N  N6052  1  0.897000  0.764400  0.805300  1
  N  N6053  1  0.764400  0.897000  0.194700  1
  N  N6054  1  0.235600  0.103000  0.694700  1
  N  N6055  1  0.397000  0.735600  0.944700  1
  N  N6056  1  0.603000  0.264400  0.444700  1
  N  N6057  1  0.768900  0.360300  0.029400  1
  N  N6058  1  0.231100  0.639700  0.529400  1
  N  N6059  1  0.139700  0.268900  0.279400  1
  N  N6060  1  0.860300  0.731100  0.779400  1
  N  N6061  1  0.731100  0.860300  0.220600  1
  N  N6062  1  0.268900  0.139700  0.720600  1
  N  N6063  1  0.360300  0.768900  0.970600  1
  N  N6064  1  0.639700  0.231100  0.470600  1
  N  N6065  1  0.846700  0.286600  0.971500  1
  N  N6066  1  0.153300  0.713400  0.471500  1
  N  N6067  1  0.213400  0.346700  0.221500  1
  N  N6068  1  0.786600  0.653300  0.721500  1
  N  N6069  1  0.653300  0.786600  0.278500  1
  N  N6070  1  0.346700  0.213400  0.778500  1
  N  N6071  1  0.286600  0.846700  0.028500  1
  N  N6072  1  0.713400  0.153300  0.528500  1
  N  N6073  1  0.887900  0.254800  0.947700  1
  N  N6074  1  0.112100  0.745200  0.447700  1
  N  N6075  1  0.245200  0.387900  0.197700  1
  N  N6076  1  0.754800  0.612100  0.697700  1
  N  N6077  1  0.612100  0.754800  0.302300  1
  N  N6078  1  0.387900  0.245200  0.802300  1
  N  N6079  1  0.254800  0.887900  0.052300  1
  N  N6080  1  0.745200  0.112100  0.552300  1
  N  N6081  1  0.807100  0.272800  0.176200  1
  N  N6082  1  0.192900  0.727200  0.676200  1
  N  N6083  1  0.227200  0.307100  0.426200  1
  N  N6084  1  0.772800  0.692900  0.926200  1
  N  N6085  1  0.692900  0.772800  0.073800  1
  N  N6086  1  0.307100  0.227200  0.573800  1
  N  N6087  1  0.272800  0.807100  0.823800  1
  N  N6088  1  0.727200  0.192900  0.323800  1
  N  N6089  1  0.774400  0.228000  0.162100  1
  N  N6090  1  0.225600  0.772000  0.662100  1
  N  N6091  1  0.272000  0.274400  0.412100  1
  N  N6092  1  0.728000  0.725600  0.912100  1
  N  N6093  1  0.725600  0.728000  0.087900  1
  N  N6094  1  0.274400  0.272000  0.587900  1
  N  N6095  1  0.228000  0.774400  0.837900  1
  N  N6096  1  0.772000  0.225600  0.337900  1
  N  N6097  1  0.682700  0.138400  0.137300  1
  N  N6098  1  0.317300  0.861600  0.637300  1
  N  N6099  1  0.361600  0.182700  0.387300  1
  N  N6100  1  0.638400  0.817300  0.887300  1
  N  N6101  1  0.817300  0.638400  0.112700  1
  N  N6102  1  0.182700  0.361600  0.612700  1
  N  N6103  1  0.138400  0.682700  0.862700  1
  N  N6104  1  0.861600  0.317300  0.362700  1
  N  N6105  1  0.647700  0.097700  0.117400  1
  N  N6106  1  0.352300  0.902300  0.617400  1
  N  N6107  1  0.402300  0.147700  0.367400  1
  N  N6108  1  0.597700  0.852300  0.867400  1
  N  N6109  1  0.852300  0.597700  0.132600  1
  N  N6110  1  0.147700  0.402300  0.632600  1
  N  N6111  1  0.097700  0.647700  0.882600  1
  N  N6112  1  0.902300  0.352300  0.382600  1
  N  N6113  1  0.754900  0.281300  0.142700  1
  N  N6114  1  0.245100  0.718700  0.642700  1
  N  N6115  1  0.218700  0.254900  0.392700  1
  N  N6116  1  0.781300  0.745100  0.892700  1
  N  N6117  1  0.745100  0.781300  0.107300  1
  N  N6118  1  0.254900  0.218700  0.607300  1
  N  N6119  1  0.281300  0.754900  0.857300  1
  N  N6120  1  0.718700  0.245100  0.357300  1
  N  N6121  1  0.781500  0.246600  0.110000  1
  N  N6122  1  0.218500  0.753400  0.610000  1
  N  N6123  1  0.253400  0.281500  0.360000  1
  N  N6124  1  0.746600  0.718500  0.860000  1
  N  N6125  1  0.718500  0.746600  0.140000  1
  N  N6126  1  0.281500  0.253400  0.640000  1
  N  N6127  1  0.246600  0.781500  0.890000  1
  N  N6128  1  0.753400  0.218500  0.390000  1
  N  N6129  1  0.843100  0.166400  0.047100  1
  N  N6130  1  0.156900  0.833600  0.547100  1
  N  N6131  1  0.333600  0.343100  0.297100  1
  N  N6132  1  0.666400  0.656900  0.797100  1
  N  N6133  1  0.656900  0.666400  0.202900  1
  N  N6134  1  0.343100  0.333600  0.702900  1
  N  N6135  1  0.166400  0.843100  0.952900  1
  N  N6136  1  0.833600  0.156900  0.452900  1
  N  N6137  1  0.874300  0.128300  0.020900  1
  N  N6138  1  0.125700  0.871700  0.520900  1
  N  N6139  1  0.371700  0.374300  0.270900  1
  N  N6140  1  0.628300  0.625700  0.770900  1
  N  N6141  1  0.625700  0.628300  0.229100  1
  N  N6142  1  0.374300  0.371700  0.729100  1
  N  N6143  1  0.128300  0.874300  0.979100  1
  N  N6144  1  0.871700  0.125700  0.479100  1
  N  N6145  1  0.621900  0.129900  0.153970  1
  N  N6146  1  0.378100  0.870100  0.653970  1
  N  N6147  1  0.370100  0.121900  0.403970  1
  N  N6148  1  0.629900  0.878100  0.903970  1
  N  N6149  1  0.878100  0.629900  0.096030  1
  N  N6150  1  0.121900  0.370100  0.596030  1
  N  N6151  1  0.129900  0.621900  0.846030  1
  N  N6152  1  0.870100  0.378100  0.346030  1
  N  N6153  1  0.597000  0.138400  0.110500  1
  N  N6154  1  0.403000  0.861600  0.610500  1
  N  N6155  1  0.361600  0.097000  0.360500  1
  N  N6156  1  0.638400  0.903000  0.860500  1
  N  N6157  1  0.903000  0.638400  0.139500  1
  N  N6158  1  0.097000  0.361600  0.639500  1
  N  N6159  1  0.138400  0.597000  0.889500  1
  N  N6160  1  0.861600  0.403000  0.389500  1
  N  N6161  1  0.537100  0.169100  0.019700  1
  N  N6162  1  0.462900  0.830900  0.519700  1
  N  N6163  1  0.330900  0.037100  0.269700  1
  N  N6164  1  0.669100  0.962900  0.769700  1
  N  N6165  1  0.962900  0.669100  0.230300  1
  N  N6166  1  0.037100  0.330900  0.730300  1
  N  N6167  1  0.169100  0.537100  0.980300  1
  N  N6168  1  0.830900  0.462900  0.480300  1
  N  N6169  1  0.522200  0.179400  0.974500  1
  N  N6170  1  0.477800  0.820600  0.474500  1
  N  N6171  1  0.320600  0.022200  0.224500  1
  N  N6172  1  0.679400  0.977800  0.724500  1
  N  N6173  1  0.977800  0.679400  0.275500  1
  N  N6174  1  0.022200  0.320600  0.775500  1
  N  N6175  1  0.179400  0.522200  0.025500  1
  N  N6176  1  0.820600  0.477800  0.525500  1
  N  N6177  1  0.636800  0.188000  0.127780  1
  N  N6178  1  0.363200  0.812000  0.627780  1
  N  N6179  1  0.312000  0.136800  0.377780  1
  N  N6180  1  0.688000  0.863200  0.877780  1
  N  N6181  1  0.863200  0.688000  0.122220  1
  N  N6182  1  0.136800  0.312000  0.622220  1
  N  N6183  1  0.188000  0.636800  0.872220  1
  N  N6184  1  0.812000  0.363200  0.372220  1
  N  N6185  1  0.659800  0.157300  0.091400  1
  N  N6186  1  0.340200  0.842700  0.591400  1
  N  N6187  1  0.342700  0.159800  0.341400  1
  N  N6188  1  0.657300  0.840200  0.841400  1
  N  N6189  1  0.840200  0.657300  0.158600  1
  N  N6190  1  0.159800  0.342700  0.658600  1
  N  N6191  1  0.157300  0.659800  0.908600  1
  N  N6192  1  0.842700  0.340200  0.408600  1
  N  N6193  1  0.717800  0.084000  0.019490  1
  N  N6194  1  0.282200  0.916000  0.519490  1
  N  N6195  1  0.416000  0.217800  0.269490  1
  N  N6196  1  0.584000  0.782200  0.769490  1
  N  N6197  1  0.782200  0.584000  0.230510  1
  N  N6198  1  0.217800  0.416000  0.730510  1
  N  N6199  1  0.084000  0.717800  0.980510  1
  N  N6200  1  0.916000  0.282200  0.480510  1
  N  N6201  1  0.739800  0.046300  0.989240  1
  N  N6202  1  0.260200  0.953700  0.489240  1
  N  N6203  1  0.453700  0.239800  0.239240  1
  N  N6204  1  0.546300  0.760200  0.739240  1
  N  N6205  1  0.760200  0.546300  0.260760  1
  N  N6206  1  0.239800  0.453700  0.760760  1
  N  N6207  1  0.046300  0.739800  0.010760  1
  N  N6208  1  0.953700  0.260200  0.510760  1
  N  N6209  1  0.533700  0.236700  0.030200  1
  N  N6210  1  0.466300  0.763300  0.530200  1
  N  N6211  1  0.263300  0.033700  0.280200  1
  N  N6212  1  0.736700  0.966300  0.780200  1
  N  N6213  1  0.966300  0.736700  0.219800  1
  N  N6214  1  0.033700  0.263300  0.719800  1
  N  N6215  1  0.236700  0.533700  0.969800  1
  N  N6216  1  0.763300  0.466300  0.469800  1
  N  N6217  1  0.572100  0.215200  0.999280  1
  N  N6218  1  0.427900  0.784800  0.499280  1
  N  N6219  1  0.284800  0.072100  0.249280  1
  N  N6220  1  0.715200  0.927900  0.749280  1
  N  N6221  1  0.927900  0.715200  0.250720  1
  N  N6222  1  0.072100  0.284800  0.750720  1
  N  N6223  1  0.215200  0.572100  0.000720  1
  N  N6224  1  0.784800  0.427900  0.500720  1
  N  N6225  1  0.644800  0.157400  0.928800  1
  N  N6226  1  0.355200  0.842600  0.428800  1
  N  N6227  1  0.342600  0.144800  0.178800  1
  N  N6228  1  0.657400  0.855200  0.678800  1
  N  N6229  1  0.855200  0.657400  0.321200  1
  N  N6230  1  0.144800  0.342600  0.821200  1
  N  N6231  1  0.157400  0.644800  0.071200  1
  N  N6232  1  0.842600  0.355200  0.571200  1
  N  N6233  1  0.675700  0.133900  0.892000  1
  N  N6234  1  0.324300  0.866100  0.392000  1
  N  N6235  1  0.366100  0.175700  0.142000  1
  N  N6236  1  0.633900  0.824300  0.642000  1
  N  N6237  1  0.824300  0.633900  0.358000  1
  N  N6238  1  0.175700  0.366100  0.858000  1
  N  N6239  1  0.133900  0.675700  0.108000  1
  N  N6240  1  0.866100  0.324300  0.608000  1
  N  N6241  1  0.708900  0.329800  0.860700  1
  N  N6242  1  0.291100  0.670200  0.360700  1
  N  N6243  1  0.170200  0.208900  0.110700  1
  N  N6244  1  0.829800  0.791100  0.610700  1
  N  N6245  1  0.791100  0.829800  0.389300  1
  N  N6246  1  0.208900  0.170200  0.889300  1
  N  N6247  1  0.329800  0.708900  0.139300  1
  N  N6248  1  0.670200  0.291100  0.639300  1
  N  N6249  1  0.764900  0.321400  0.874300  1
  N  N6250  1  0.235100  0.678600  0.374300  1
  N  N6251  1  0.178600  0.264900  0.124300  1
  N  N6252  1  0.821400  0.735100  0.624300  1
  N  N6253  1  0.735100  0.821400  0.375700  1
  N  N6254  1  0.264900  0.178600  0.875700  1
  N  N6255  1  0.321400  0.764900  0.125700  1
  N  N6256  1  0.678600  0.235100  0.625700  1
  N  N6257  1  0.877900  0.313200  0.928900  1
  N  N6258  1  0.122100  0.686800  0.428900  1
  N  N6259  1  0.186800  0.377900  0.178900  1
  N  N6260  1  0.813200  0.622100  0.678900  1
  N  N6261  1  0.622100  0.813200  0.321100  1
  N  N6262  1  0.377900  0.186800  0.821100  1
  N  N6263  1  0.313200  0.877900  0.071100  1
  N  N6264  1  0.686800  0.122100  0.571100  1
  N  N6265  1  0.931200  0.306900  0.949700  1
  N  N6266  1  0.068800  0.693100  0.449700  1
  N  N6267  1  0.193100  0.431200  0.199700  1
  N  N6268  1  0.806900  0.568800  0.699700  1
  N  N6269  1  0.568800  0.806900  0.300300  1
  N  N6270  1  0.431200  0.193100  0.800300  1
  N  N6271  1  0.306900  0.931200  0.050300  1
  N  N6272  1  0.693100  0.068800  0.550300  1
  N  N6273  1  0.742400  0.302200  0.826800  1
  N  N6274  1  0.257600  0.697800  0.326800  1
  N  N6275  1  0.197800  0.242400  0.076800  1
  N  N6276  1  0.802200  0.757600  0.576800  1
  N  N6277  1  0.757600  0.802200  0.423200  1
  N  N6278  1  0.242400  0.197800  0.923200  1
  N  N6279  1  0.302200  0.742400  0.173200  1
  N  N6280  1  0.697800  0.257600  0.673200  1
  N  N6281  1  0.700900  0.267500  0.845600  1
  N  N6282  1  0.299100  0.732500  0.345600  1
  N  N6283  1  0.232500  0.200900  0.095600  1
  N  N6284  1  0.767500  0.799100  0.595600  1
  N  N6285  1  0.799100  0.767500  0.404400  1
  N  N6286  1  0.200900  0.232500  0.904400  1
  N  N6287  1  0.267500  0.700900  0.154400  1
  N  N6288  1  0.732500  0.299100  0.654400  1
  N  N6289  1  0.623200  0.173800  0.882100  1
  N  N6290  1  0.376800  0.826200  0.382100  1
  N  N6291  1  0.326200  0.123200  0.132100  1
  N  N6292  1  0.673800  0.876800  0.632100  1
  N  N6293  1  0.876800  0.673800  0.367900  1
  N  N6294  1  0.123200  0.326200  0.867900  1
  N  N6295  1  0.173800  0.623200  0.117900  1
  N  N6296  1  0.826200  0.376800  0.617900  1
  N  N6297  1  0.585400  0.138800  0.907200  1
  N  N6298  1  0.414600  0.861200  0.407200  1
  N  N6299  1  0.361200  0.085400  0.157200  1
  N  N6300  1  0.638800  0.914600  0.657200  1
  N  N6301  1  0.914600  0.638800  0.342800  1
  N  N6302  1  0.085400  0.361200  0.842800  1
  N  N6303  1  0.138800  0.585400  0.092800  1
  N  N6304  1  0.861200  0.414600  0.592800  1
  N  N6305  1  0.891100  0.339500  0.975900  1
  N  N6306  1  0.108900  0.660500  0.475900  1
  N  N6307  1  0.160500  0.391100  0.225900  1
  N  N6308  1  0.839500  0.608900  0.725900  1
  N  N6309  1  0.608900  0.839500  0.274100  1
  N  N6310  1  0.391100  0.160500  0.774100  1
  N  N6311  1  0.339500  0.891100  0.024100  1
  N  N6312  1  0.660500  0.108900  0.524100  1
  N  N6313  1  0.904700  0.285200  0.993500  1
  N  N6314  1  0.095300  0.714800  0.493500  1
  N  N6315  1  0.214800  0.404700  0.243500  1
  N  N6316  1  0.785200  0.595300  0.743500  1
  N  N6317  1  0.595300  0.785200  0.256500  1
  N  N6318  1  0.404700  0.214800  0.756500  1
  N  N6319  1  0.285200  0.904700  0.006500  1
  N  N6320  1  0.714800  0.095300  0.506500  1
  N  N6321  1  0.910000  0.171400  0.045000  1
  N  N6322  1  0.090000  0.828600  0.545000  1
  N  N6323  1  0.328600  0.410000  0.295000  1
  N  N6324  1  0.671400  0.590000  0.795000  1
  N  N6325  1  0.590000  0.671400  0.205000  1
  N  N6326  1  0.410000  0.328600  0.705000  1
  N  N6327  1  0.171400  0.910000  0.955000  1
  N  N6328  1  0.828600  0.090000  0.455000  1
  N  N6329  1  0.917000  0.115800  0.061700  1
  N  N6330  1  0.083000  0.884200  0.561700  1
  N  N6331  1  0.384200  0.417000  0.311700  1
  N  N6332  1  0.615800  0.583000  0.811700  1
  N  N6333  1  0.583000  0.615800  0.188300  1
  N  N6334  1  0.417000  0.384200  0.688300  1
  N  N6335  1  0.115800  0.917000  0.938300  1
  N  N6336  1  0.884200  0.083000  0.438300  1
  N  N6337  1  0.883700  0.155500  0.090400  1
  N  N6338  1  0.116300  0.844500  0.590400  1
  N  N6339  1  0.344500  0.383700  0.340400  1
  N  N6340  1  0.655500  0.616300  0.840400  1
  N  N6341  1  0.616300  0.655500  0.159600  1
  N  N6342  1  0.383700  0.344500  0.659600  1
  N  N6343  1  0.155500  0.883700  0.909600  1
  N  N6344  1  0.844500  0.116300  0.409600  1
  N  N6345  1  0.851700  0.110500  0.072300  1
  N  N6346  1  0.148300  0.889500  0.572300  1
  N  N6347  1  0.389500  0.351700  0.322300  1
  N  N6348  1  0.610500  0.648300  0.822300  1
  N  N6349  1  0.648300  0.610500  0.177700  1
  N  N6350  1  0.351700  0.389500  0.677700  1
  N  N6351  1  0.110500  0.851700  0.927700  1
  N  N6352  1  0.889500  0.148300  0.427700  1
  N  N6353  1  0.754300  0.031400  0.037400  1
  N  N6354  1  0.245700  0.968600  0.537400  1
  N  N6355  1  0.468600  0.254300  0.287400  1
  N  N6356  1  0.531400  0.745700  0.787400  1
  N  N6357  1  0.745700  0.531400  0.212600  1
  N  N6358  1  0.254300  0.468600  0.712600  1
  N  N6359  1  0.031400  0.754300  0.962600  1
  N  N6360  1  0.968600  0.245700  0.462600  1
  N  N6361  1  0.716800  0.992200  0.016410  1
  N  N6362  1  0.283200  0.007800  0.516410  1
  N  N6363  1  0.507800  0.216800  0.266410  1
  N  N6364  1  0.492200  0.783200  0.766410  1
  N  N6365  1  0.783200  0.492200  0.233590  1
  N  N6366  1  0.216800  0.507800  0.733590  1
  N  N6367  1  0.992200  0.716800  0.983590  1
  N  N6368  1  0.007800  0.283200  0.483590  1
  N  N6369  1  0.689700  0.032800  0.048700  1
  N  N6370  1  0.310300  0.967200  0.548700  1
  N  N6371  1  0.467200  0.189700  0.298700  1
  N  N6372  1  0.532800  0.810300  0.798700  1
  N  N6373  1  0.810300  0.532800  0.201300  1
  N  N6374  1  0.189700  0.467200  0.701300  1
  N  N6375  1  0.032800  0.689700  0.951300  1
  N  N6376  1  0.967200  0.310300  0.451300  1
  N  N6377  1  0.673900  0.041800  0.003900  1
  N  N6378  1  0.326100  0.958200  0.503900  1
  N  N6379  1  0.458200  0.173900  0.253900  1
  N  N6380  1  0.541800  0.826100  0.753900  1
  N  N6381  1  0.826100  0.541800  0.246100  1
  N  N6382  1  0.173900  0.458200  0.746100  1
  N  N6383  1  0.041800  0.673900  0.996100  1
  N  N6384  1  0.958200  0.326100  0.496100  1
  N  N6385  1  0.631000  0.090900  0.913700  1
  N  N6386  1  0.369000  0.909100  0.413700  1
  N  N6387  1  0.409100  0.131000  0.163700  1
  N  N6388  1  0.590900  0.869000  0.663700  1
  N  N6389  1  0.869000  0.590900  0.336300  1
  N  N6390  1  0.131000  0.409100  0.836300  1
  N  N6391  1  0.090900  0.631000  0.086300  1
  N  N6392  1  0.909100  0.369000  0.586300  1
  N  N6393  1  0.616800  0.111300  0.870100  1
  N  N6394  1  0.383200  0.888700  0.370100  1
  N  N6395  1  0.388700  0.116800  0.120100  1
  N  N6396  1  0.611300  0.883200  0.620100  1
  N  N6397  1  0.883200  0.611300  0.379900  1
  N  N6398  1  0.116800  0.388700  0.879900  1
  N  N6399  1  0.111300  0.616800  0.129900  1
  N  N6400  1  0.888700  0.383200  0.629900  1
  N  N6401  1  0.584100  0.220300  0.080700  1
  N  N6402  1  0.415900  0.779700  0.580700  1
  N  N6403  1  0.279700  0.084100  0.330700  1
  N  N6404  1  0.720300  0.915900  0.830700  1
  N  N6405  1  0.915900  0.720300  0.169300  1
  N  N6406  1  0.084100  0.279700  0.669300  1
  N  N6407  1  0.220300  0.584100  0.919300  1
  N  N6408  1  0.779700  0.415900  0.419300  1
  N  N6409  1  0.665300  0.376200  0.026800  1
  N  N6410  1  0.334700  0.623800  0.526800  1
  N  N6411  1  0.123800  0.165300  0.276800  1
  N  N6412  1  0.876200  0.834700  0.776800  1
  N  N6413  1  0.834700  0.876200  0.223200  1
  N  N6414  1  0.165300  0.123800  0.723200  1
  N  N6415  1  0.376200  0.665300  0.973200  1
  N  N6416  1  0.623800  0.334700  0.473200  1
  Cl  Cl6417  1  0.622210  0.122070  0.010610  1
  Cl  Cl6418  1  0.377790  0.877930  0.510610  1
  Cl  Cl6419  1  0.377930  0.122210  0.260610  1
  Cl  Cl6420  1  0.622070  0.877790  0.760610  1
  Cl  Cl6421  1  0.877790  0.622070  0.239390  1
  Cl  Cl6422  1  0.122210  0.377930  0.739390  1
  Cl  Cl6423  1  0.122070  0.622210  0.989390  1
  Cl  Cl6424  1  0.877930  0.377790  0.489390  1
  Cl  Cl6425  1  0.760400  0.140790  0.092660  1
  Cl  Cl6426  1  0.239600  0.859210  0.592660  1
  Cl  Cl6427  1  0.359210  0.260400  0.342660  1
  Cl  Cl6428  1  0.640790  0.739600  0.842660  1
  Cl  Cl6429  1  0.739600  0.640790  0.157340  1
  Cl  Cl6430  1  0.260400  0.359210  0.657340  1
  Cl  Cl6431  1  0.140790  0.760400  0.907340  1
  Cl  Cl6432  1  0.859210  0.239600  0.407340  1
  Cl  Cl6433  1  0.842060  0.279530  0.052490  1
  Cl  Cl6434  1  0.157940  0.720470  0.552490  1
  Cl  Cl6435  1  0.220470  0.342060  0.302490  1
  Cl  Cl6436  1  0.779530  0.657940  0.802490  1
  Cl  Cl6437  1  0.657940  0.779530  0.197510  1
  Cl  Cl6438  1  0.342060  0.220470  0.697510  1
  Cl  Cl6439  1  0.279530  0.842060  0.947510  1
  Cl  Cl6440  1  0.720470  0.157940  0.447510  1
  Cl  Cl6441  1  0.757550  0.348980  0.947890  1
  Cl  Cl6442  1  0.242450  0.651020  0.447890  1
  Cl  Cl6443  1  0.151020  0.257550  0.197890  1
  Cl  Cl6444  1  0.848980  0.742450  0.697890  1
  Cl  Cl6445  1  0.742450  0.848980  0.302110  1
  Cl  Cl6446  1  0.257550  0.151020  0.802110  1
  Cl  Cl6447  1  0.348980  0.757550  0.052110  1
  Cl  Cl6448  1  0.651020  0.242450  0.552110  1
  Cl  Cl6449  1  0.618680  0.253680  0.924720  1
  Cl  Cl6450  1  0.381320  0.746320  0.424720  1
  Cl  Cl6451  1  0.246320  0.118680  0.174720  1
  Cl  Cl6452  1  0.753680  0.881320  0.674720  1
  Cl  Cl6453  1  0.881320  0.753680  0.325280  1
  Cl  Cl6454  1  0.118680  0.246320  0.825280  1
  Cl  Cl6455  1  0.253680  0.618680  0.075280  1
  Cl  Cl6456  1  0.746320  0.381320  0.575280  1
  Cl  Cl6457  1  0.718650  0.914920  0.084910  1
  Cl  Cl6458  1  0.281350  0.085080  0.584910  1
  Cl  Cl6459  1  0.585080  0.218650  0.334910  1
  Cl  Cl6460  1  0.414920  0.781350  0.834910  1
  Cl  Cl6461  1  0.781350  0.414920  0.165090  1
  Cl  Cl6462  1  0.218650  0.585080  0.665090  1
  Cl  Cl6463  1  0.914920  0.718650  0.915090  1
  Cl  Cl6464  1  0.085080  0.281350  0.415090  1
  Cl  Cl6465  1  0.649900  0.299100  0.074300  1
  Cl  Cl6466  1  0.350100  0.700900  0.574300  1
  Cl  Cl6467  1  0.200900  0.149900  0.324300  1
  Cl  Cl6468  1  0.799100  0.850100  0.824300  1
  Cl  Cl6469  1  0.850100  0.799100  0.175700  1
  Cl  Cl6470  1  0.149900  0.200900  0.675700  1
  Cl  Cl6471  1  0.299100  0.649900  0.925700  1
  Cl  Cl6472  1  0.700900  0.350100  0.425700  1
  Cl  Cl6473  1  0.382450  0.985560  0.101840  1
  Cl  Cl6474  1  0.617550  0.014440  0.601840  1
  Cl  Cl6475  1  0.514440  0.882450  0.351840  1
  Cl  Cl6476  1  0.485560  0.117550  0.851840  1
  Cl  Cl6477  1  0.117550  0.485560  0.148160  1
  Cl  Cl6478  1  0.882450  0.514440  0.648160  1
  Cl  Cl6479  1  0.985560  0.382450  0.898160  1
  Cl  Cl6480  1  0.014440  0.617550  0.398160  1
  Cl  Cl6481  1  0.966450  0.553560  0.069680  1
  Cl  Cl6482  1  0.033550  0.446440  0.569680  1
  Cl  Cl6483  1  0.946440  0.466450  0.319680  1
  Cl  Cl6484  1  0.053560  0.533550  0.819680  1
  Cl  Cl6485  1  0.533550  0.053560  0.180320  1
  Cl  Cl6486  1  0.466450  0.946440  0.680320  1
  Cl  Cl6487  1  0.553560  0.966450  0.930320  1
  Cl  Cl6488  1  0.446440  0.033550  0.430320  1
  Cl  Cl6489  1  0.998960  0.683600  0.115210  1
  Cl  Cl6490  1  0.001040  0.316400  0.615210  1
  Cl  Cl6491  1  0.816400  0.498960  0.365210  1
  Cl  Cl6492  1  0.183600  0.501040  0.865210  1
  Cl  Cl6493  1  0.501040  0.183600  0.134790  1
  Cl  Cl6494  1  0.498960  0.816400  0.634790  1
  Cl  Cl6495  1  0.683600  0.998960  0.884790  1
  Cl  Cl6496  1  0.316400  0.001040  0.384790  1
  Cl  Cl6497  1  0.789400  0.155200  0.938950  1
  Cl  Cl6498  1  0.210600  0.844800  0.438950  1
  Cl  Cl6499  1  0.344800  0.289400  0.188950  1
  Cl  Cl6500  1  0.655200  0.710600  0.688950  1
  Cl  Cl6501  1  0.710600  0.655200  0.311050  1
  Cl  Cl6502  1  0.289400  0.344800  0.811050  1
  Cl  Cl6503  1  0.155200  0.789400  0.061050  1
  Cl  Cl6504  1  0.844800  0.210600  0.561050  1
  Cl  Cl6505  1  0.184510  0.184510  0.000000  1
  Cl  Cl6506  1  0.815490  0.815490  0.500000  1
  Cl  Cl6507  1  0.315490  0.684510  0.250000  1
  Cl  Cl6508  1  0.684510  0.315490  0.750000  1
  Cl  Cl6509  1  0.720690  0.228620  0.005450  1
  Cl  Cl6510  1  0.279310  0.771380  0.505450  1
  Cl  Cl6511  1  0.271380  0.220690  0.255450  1
  Cl  Cl6512  1  0.728620  0.779310  0.755450  1
  Cl  Cl6513  1  0.779310  0.728620  0.244550  1
  Cl  Cl6514  1  0.220690  0.271380  0.744550  1
  Cl  Cl6515  1  0.228620  0.720690  0.994550  1
  Cl  Cl6516  1  0.771380  0.279310  0.494550  1
  O  O6517  1  0.623400  0.148600  0.027800  1
  O  O6518  1  0.376600  0.851400  0.527800  1
  O  O6519  1  0.351400  0.123400  0.277800  1
  O  O6520  1  0.648600  0.876600  0.777800  1
  O  O6521  1  0.876600  0.648600  0.222200  1
  O  O6522  1  0.123400  0.351400  0.722200  1
  O  O6523  1  0.148600  0.623400  0.972200  1
  O  O6524  1  0.851400  0.376600  0.472200  1
  O  O6525  1  0.647800  0.121600  0.992800  1
  O  O6526  1  0.352200  0.878400  0.492800  1
  O  O6527  1  0.378400  0.147800  0.242800  1
  O  O6528  1  0.621600  0.852200  0.742800  1
  O  O6529  1  0.852200  0.621600  0.257200  1
  O  O6530  1  0.147800  0.378400  0.757200  1
  O  O6531  1  0.121600  0.647800  0.007200  1
  O  O6532  1  0.878400  0.352200  0.507200  1
  O  O6533  1  0.594500  0.121800  0.997700  1
  O  O6534  1  0.405500  0.878200  0.497700  1
  O  O6535  1  0.378200  0.094500  0.247700  1
  O  O6536  1  0.621800  0.905500  0.747700  1
  O  O6537  1  0.905500  0.621800  0.252300  1
  O  O6538  1  0.094500  0.378200  0.752300  1
  O  O6539  1  0.121800  0.594500  0.002300  1
  O  O6540  1  0.878200  0.405500  0.502300  1
  O  O6541  1  0.626200  0.096600  0.026300  1
  O  O6542  1  0.373800  0.903400  0.526300  1
  O  O6543  1  0.403400  0.126200  0.276300  1
  O  O6544  1  0.596600  0.873800  0.776300  1
  O  O6545  1  0.873800  0.596600  0.223700  1
  O  O6546  1  0.126200  0.403400  0.723700  1
  O  O6547  1  0.096600  0.626200  0.973700  1
  O  O6548  1  0.903400  0.373800  0.473700  1
  O  O6549  1  0.739800  0.115900  0.100900  1
  O  O6550  1  0.260200  0.884100  0.600900  1
  O  O6551  1  0.384100  0.239800  0.350900  1
  O  O6552  1  0.615900  0.760200  0.850900  1
  O  O6553  1  0.760200  0.615900  0.149100  1
  O  O6554  1  0.239800  0.384100  0.649100  1
  O  O6555  1  0.115900  0.739800  0.899100  1
  O  O6556  1  0.884100  0.260200  0.399100  1
  O  O6557  1  0.788600  0.146100  0.103700  1
  O  O6558  1  0.211400  0.853900  0.603700  1
  O  O6559  1  0.353900  0.288600  0.353700  1
  O  O6560  1  0.646100  0.711400  0.853700  1
  O  O6561  1  0.711400  0.646100  0.146300  1
  O  O6562  1  0.288600  0.353900  0.646300  1
  O  O6563  1  0.146100  0.788600  0.896300  1
  O  O6564  1  0.853900  0.211400  0.396300  1
  O  O6565  1  0.740700  0.168700  0.097000  1
  O  O6566  1  0.259300  0.831300  0.597000  1
  O  O6567  1  0.331300  0.240700  0.347000  1
  O  O6568  1  0.668700  0.759300  0.847000  1
  O  O6569  1  0.759300  0.668700  0.153000  1
  O  O6570  1  0.240700  0.331300  0.653000  1
  O  O6571  1  0.168700  0.740700  0.903000  1
  O  O6572  1  0.831300  0.259300  0.403000  1
  O  O6573  1  0.765700  0.134600  0.066700  1
  O  O6574  1  0.234300  0.865400  0.566700  1
  O  O6575  1  0.365400  0.265700  0.316700  1
  O  O6576  1  0.634600  0.734300  0.816700  1
  O  O6577  1  0.734300  0.634600  0.183300  1
  O  O6578  1  0.265700  0.365400  0.683300  1
  O  O6579  1  0.134600  0.765700  0.933300  1
  O  O6580  1  0.865400  0.234300  0.433300  1
  O  O6581  1  0.811400  0.290000  0.059200  1
  O  O6582  1  0.188600  0.710000  0.559200  1
  O  O6583  1  0.210000  0.311400  0.309200  1
  O  O6584  1  0.790000  0.688600  0.809200  1
  O  O6585  1  0.688600  0.790000  0.190800  1
  O  O6586  1  0.311400  0.210000  0.690800  1
  O  O6587  1  0.290000  0.811400  0.940800  1
  O  O6588  1  0.710000  0.188600  0.440800  1
  O  O6589  1  0.840700  0.256100  0.033600  1
  O  O6590  1  0.159300  0.743900  0.533600  1
  O  O6591  1  0.243900  0.340700  0.283600  1
  O  O6592  1  0.756100  0.659300  0.783600  1
  O  O6593  1  0.659300  0.756100  0.216400  1
  O  O6594  1  0.340700  0.243900  0.716400  1
  O  O6595  1  0.256100  0.840700  0.966400  1
  O  O6596  1  0.743900  0.159300  0.466400  1
  O  O6597  1  0.859300  0.306600  0.045000  1
  O  O6598  1  0.140700  0.693400  0.545000  1
  O  O6599  1  0.193400  0.359300  0.295000  1
  O  O6600  1  0.806600  0.640700  0.795000  1
  O  O6601  1  0.640700  0.806600  0.205000  1
  O  O6602  1  0.359300  0.193400  0.705000  1
  O  O6603  1  0.306600  0.859300  0.955000  1
  O  O6604  1  0.693400  0.140700  0.455000  1
  O  O6605  1  0.855500  0.265600  0.073300  1
  O  O6606  1  0.144500  0.734400  0.573300  1
  O  O6607  1  0.234400  0.355500  0.323300  1
  O  O6608  1  0.765600  0.644500  0.823300  1
  O  O6609  1  0.644500  0.765600  0.176700  1
  O  O6610  1  0.355500  0.234400  0.676700  1
  O  O6611  1  0.265600  0.855500  0.926700  1
  O  O6612  1  0.734400  0.144500  0.426700  1
  O  O6613  1  0.735100  0.346200  0.966900  1
  O  O6614  1  0.264900  0.653800  0.466900  1
  O  O6615  1  0.153800  0.235100  0.216900  1
  O  O6616  1  0.846200  0.764900  0.716900  1
  O  O6617  1  0.764900  0.846200  0.283100  1
  O  O6618  1  0.235100  0.153800  0.783100  1
  O  O6619  1  0.346200  0.735100  0.033100  1
  O  O6620  1  0.653800  0.264900  0.533100  1
  O  O6621  1  0.780800  0.367600  0.956700  1
  O  O6622  1  0.219200  0.632400  0.456700  1
  O  O6623  1  0.132400  0.280800  0.206700  1
  O  O6624  1  0.867600  0.719200  0.706700  1
  O  O6625  1  0.719200  0.867600  0.293300  1
  O  O6626  1  0.280800  0.132400  0.793300  1
  O  O6627  1  0.367600  0.780800  0.043300  1
  O  O6628  1  0.632400  0.219200  0.543300  1
  O  O6629  1  0.741500  0.359900  0.926900  1
  O  O6630  1  0.258500  0.640100  0.426900  1
  O  O6631  1  0.140100  0.241500  0.176900  1
  O  O6632  1  0.859900  0.758500  0.676900  1
  O  O6633  1  0.758500  0.859900  0.323100  1
  O  O6634  1  0.241500  0.140100  0.823100  1
  O  O6635  1  0.359900  0.741500  0.073100  1
  O  O6636  1  0.640100  0.258500  0.573100  1
  O  O6637  1  0.770100  0.318400  0.941500  1
  O  O6638  1  0.229900  0.681600  0.441500  1
  O  O6639  1  0.181600  0.270100  0.191500  1
  O  O6640  1  0.818400  0.729900  0.691500  1
  O  O6641  1  0.729900  0.818400  0.308500  1
  O  O6642  1  0.270100  0.181600  0.808500  1
  O  O6643  1  0.318400  0.770100  0.058500  1
  O  O6644  1  0.681600  0.229900  0.558500  1
  O  O6645  1  0.648500  0.238400  0.921600  1
  O  O6646  1  0.351500  0.761600  0.421600  1
  O  O6647  1  0.261600  0.148500  0.171600  1
  O  O6648  1  0.738400  0.851500  0.671600  1
  O  O6649  1  0.851500  0.738400  0.328400  1
  O  O6650  1  0.148500  0.261600  0.828400  1
  O  O6651  1  0.238400  0.648500  0.078400  1
  O  O6652  1  0.761600  0.351500  0.578400  1
  O  O6653  1  0.614200  0.264000  0.950100  1
  O  O6654  1  0.385800  0.736000  0.450100  1
  O  O6655  1  0.236000  0.114200  0.200100  1
  O  O6656  1  0.764000  0.885800  0.700100  1
  O  O6657  1  0.885800  0.764000  0.299900  1
  O  O6658  1  0.114200  0.236000  0.799900  1
  O  O6659  1  0.264000  0.614200  0.049900  1
  O  O6660  1  0.736000  0.385800  0.549900  1
  O  O6661  1  0.594200  0.231000  0.919400  1
  O  O6662  1  0.405800  0.769000  0.419400  1
  O  O6663  1  0.269000  0.094200  0.169400  1
  O  O6664  1  0.731000  0.905800  0.669400  1
  O  O6665  1  0.905800  0.731000  0.330600  1
  O  O6666  1  0.094200  0.269000  0.830600  1
  O  O6667  1  0.231000  0.594200  0.080600  1
  O  O6668  1  0.769000  0.405800  0.580600  1
  O  O6669  1  0.618500  0.280400  0.907100  1
  O  O6670  1  0.381500  0.719600  0.407100  1
  O  O6671  1  0.219600  0.118500  0.157100  1
  O  O6672  1  0.780400  0.881500  0.657100  1
  O  O6673  1  0.881500  0.780400  0.342900  1
  O  O6674  1  0.118500  0.219600  0.842900  1
  O  O6675  1  0.280400  0.618500  0.092900  1
  O  O6676  1  0.719600  0.381500  0.592900  1
  O  O6677  1  0.742800  0.937500  0.078100  1
  O  O6678  1  0.257200  0.062500  0.578100  1
  O  O6679  1  0.562500  0.242800  0.328100  1
  O  O6680  1  0.437500  0.757200  0.828100  1
  O  O6681  1  0.757200  0.437500  0.171900  1
  O  O6682  1  0.242800  0.562500  0.671900  1
  O  O6683  1  0.937500  0.742800  0.921900  1
  O  O6684  1  0.062500  0.257200  0.421900  1
  O  O6685  1  0.720200  0.896800  0.058500  1
  O  O6686  1  0.279800  0.103200  0.558500  1
  O  O6687  1  0.603200  0.220200  0.308500  1
  O  O6688  1  0.396800  0.779800  0.808500  1
  O  O6689  1  0.779800  0.396800  0.191500  1
  O  O6690  1  0.220200  0.603200  0.691500  1
  O  O6691  1  0.896800  0.720200  0.941500  1
  O  O6692  1  0.103200  0.279800  0.441500  1
  O  O6693  1  0.722200  0.892600  0.105400  1
  O  O6694  1  0.277800  0.107400  0.605400  1
  O  O6695  1  0.607400  0.222200  0.355400  1
  O  O6696  1  0.392600  0.777800  0.855400  1
  O  O6697  1  0.777800  0.392600  0.144600  1
  O  O6698  1  0.222200  0.607400  0.644600  1
  O  O6699  1  0.892600  0.722200  0.894600  1
  O  O6700  1  0.107400  0.277800  0.394600  1
  O  O6701  1  0.683900  0.927300  0.086500  1
  O  O6702  1  0.316100  0.072700  0.586500  1
  O  O6703  1  0.572700  0.183900  0.336500  1
  O  O6704  1  0.427300  0.816100  0.836500  1
  O  O6705  1  0.816100  0.427300  0.163500  1
  O  O6706  1  0.183900  0.572700  0.663500  1
  O  O6707  1  0.927300  0.683900  0.913500  1
  O  O6708  1  0.072700  0.316100  0.413500  1
  O  O6709  1  0.668900  0.329600  0.073100  1
  O  O6710  1  0.331100  0.670400  0.573100  1
  O  O6711  1  0.170400  0.168900  0.323100  1
  O  O6712  1  0.829600  0.831100  0.823100  1
  O  O6713  1  0.831100  0.829600  0.176900  1
  O  O6714  1  0.168900  0.170400  0.676900  1
  O  O6715  1  0.329600  0.668900  0.926900  1
  O  O6716  1  0.670400  0.331100  0.426900  1
  O  O6717  1  0.622800  0.306000  0.066000  1
  O  O6718  1  0.377200  0.694000  0.566000  1
  O  O6719  1  0.194000  0.122800  0.316000  1
  O  O6720  1  0.806000  0.877200  0.816000  1
  O  O6721  1  0.877200  0.806000  0.184000  1
  O  O6722  1  0.122800  0.194000  0.684000  1
  O  O6723  1  0.306000  0.622800  0.934000  1
  O  O6724  1  0.694000  0.377200  0.434000  1
  O  O6725  1  0.667200  0.282200  0.054500  1
  O  O6726  1  0.332800  0.717800  0.554500  1
  O  O6727  1  0.217800  0.167200  0.304500  1
  O  O6728  1  0.782200  0.832800  0.804500  1
  O  O6729  1  0.832800  0.782200  0.195500  1
  O  O6730  1  0.167200  0.217800  0.695500  1
  O  O6731  1  0.282200  0.667200  0.945500  1
  O  O6732  1  0.717800  0.332800  0.445500  1
  O  O6733  1  0.655800  0.287200  0.095300  1
  O  O6734  1  0.344200  0.712800  0.595300  1
  O  O6735  1  0.212800  0.155800  0.345300  1
  O  O6736  1  0.787200  0.844200  0.845300  1
  O  O6737  1  0.844200  0.787200  0.154700  1
  O  O6738  1  0.155800  0.212800  0.654700  1
  O  O6739  1  0.287200  0.655800  0.904700  1
  O  O6740  1  0.712800  0.344200  0.404700  1
  O  O6741  1  0.388200  0.966600  0.080300  1
  O  O6742  1  0.611800  0.033400  0.580300  1
  O  O6743  1  0.533400  0.888200  0.330300  1
  O  O6744  1  0.466600  0.111800  0.830300  1
  O  O6745  1  0.111800  0.466600  0.169700  1
  O  O6746  1  0.888200  0.533400  0.669700  1
  O  O6747  1  0.966600  0.388200  0.919700  1
  O  O6748  1  0.033400  0.611800  0.419700  1
  O  O6749  1  0.377600  0.966700  0.125400  1
  O  O6750  1  0.622400  0.033300  0.625400  1
  O  O6751  1  0.533300  0.877600  0.375400  1
  O  O6752  1  0.466700  0.122400  0.875400  1
  O  O6753  1  0.122400  0.466700  0.124600  1
  O  O6754  1  0.877600  0.533300  0.624600  1
  O  O6755  1  0.966700  0.377600  0.874600  1
  O  O6756  1  0.033300  0.622400  0.374600  1
  O  O6757  1  0.356500  0.001100  0.100400  1
  O  O6758  1  0.643500  0.998900  0.600400  1
  O  O6759  1  0.498900  0.856500  0.350400  1
  O  O6760  1  0.501100  0.143500  0.850400  1
  O  O6761  1  0.143500  0.501100  0.149600  1
  O  O6762  1  0.856500  0.498900  0.649600  1
  O  O6763  1  0.001100  0.356500  0.899600  1
  O  O6764  1  0.998900  0.643500  0.399600  1
  O  O6765  1  0.408200  0.008000  0.104600  1
  O  O6766  1  0.591800  0.992000  0.604600  1
  O  O6767  1  0.492000  0.908200  0.354600  1
  O  O6768  1  0.508000  0.091800  0.854600  1
  O  O6769  1  0.091800  0.508000  0.145400  1
  O  O6770  1  0.908200  0.492000  0.645400  1
  O  O6771  1  0.008000  0.408200  0.895400  1
  O  O6772  1  0.992000  0.591800  0.395400  1
  O  O6773  1  0.989200  0.560300  0.091300  1
  O  O6774  1  0.010800  0.439700  0.591300  1
  O  O6775  1  0.939700  0.489200  0.341300  1
  O  O6776  1  0.060300  0.510800  0.841300  1
  O  O6777  1  0.510800  0.060300  0.158700  1
  O  O6778  1  0.489200  0.939700  0.658700  1
  O  O6779  1  0.560300  0.989200  0.908700  1
  O  O6780  1  0.439700  0.010800  0.408700  1
  O  O6781  1  0.933800  0.555800  0.079700  1
  O  O6782  1  0.066200  0.444200  0.579700  1
  O  O6783  1  0.944200  0.433800  0.329700  1
  O  O6784  1  0.055800  0.566200  0.829700  1
  O  O6785  1  0.566200  0.055800  0.170300  1
  O  O6786  1  0.433800  0.944200  0.670300  1
  O  O6787  1  0.555800  0.933800  0.920300  1
  O  O6788  1  0.444200  0.066200  0.420300  1
  O  O6789  1  0.970500  0.516300  0.068700  1
  O  O6790  1  0.029500  0.483700  0.568700  1
  O  O6791  1  0.983700  0.470500  0.318700  1
  O  O6792  1  0.016300  0.529500  0.818700  1
  O  O6793  1  0.529500  0.016300  0.181300  1
  O  O6794  1  0.470500  0.983700  0.681300  1
  O  O6795  1  0.516300  0.970500  0.931300  1
  O  O6796  1  0.483700  0.029500  0.431300  1
  O  O6797  1  0.981100  0.562300  0.044800  1
  O  O6798  1  0.018900  0.437700  0.544800  1
  O  O6799  1  0.937700  0.481100  0.294800  1
  O  O6800  1  0.062300  0.518900  0.794800  1
  O  O6801  1  0.518900  0.062300  0.205200  1
  O  O6802  1  0.481100  0.937700  0.705200  1
  O  O6803  1  0.562300  0.981100  0.955200  1
  O  O6804  1  0.437700  0.018900  0.455200  1
  O  O6805  1  0.013700  0.662800  0.133400  1
  O  O6806  1  0.986300  0.337200  0.633400  1
  O  O6807  1  0.837200  0.513700  0.383400  1
  O  O6808  1  0.162800  0.486300  0.883400  1
  O  O6809  1  0.486300  0.162800  0.116600  1
  O  O6810  1  0.513700  0.837200  0.616600  1
  O  O6811  1  0.662800  0.013700  0.866600  1
  O  O6812  1  0.337200  0.986300  0.366600  1
  O  O6813  1  0.984000  0.668100  0.096000  1
  O  O6814  1  0.016000  0.331900  0.596000  1
  O  O6815  1  0.831900  0.484000  0.346000  1
  O  O6816  1  0.168100  0.516000  0.846000  1
  O  O6817  1  0.516000  0.168100  0.154000  1
  O  O6818  1  0.484000  0.831900  0.654000  1
  O  O6819  1  0.668100  0.984000  0.904000  1
  O  O6820  1  0.331900  0.016000  0.404000  1
  O  O6821  1  0.975000  0.696700  0.131900  1
  O  O6822  1  0.025000  0.303300  0.631900  1
  O  O6823  1  0.803300  0.475000  0.381900  1
  O  O6824  1  0.196700  0.525000  0.881900  1
  O  O6825  1  0.525000  0.196700  0.118100  1
  O  O6826  1  0.475000  0.803300  0.618100  1
  O  O6827  1  0.696700  0.975000  0.868100  1
  O  O6828  1  0.303300  0.025000  0.368100  1
  O  O6829  1  0.024000  0.696000  0.100000  1
  O  O6830  1  0.976000  0.304000  0.600000  1
  O  O6831  1  0.804000  0.524000  0.350000  1
  O  O6832  1  0.196000  0.476000  0.850000  1
  O  O6833  1  0.476000  0.196000  0.150000  1
  O  O6834  1  0.524000  0.804000  0.650000  1
  O  O6835  1  0.696000  0.024000  0.900000  1
  O  O6836  1  0.304000  0.976000  0.400000  1
  O  O6837  1  0.777500  0.174800  0.956300  1
  O  O6838  1  0.222500  0.825200  0.456300  1
  O  O6839  1  0.325200  0.277500  0.206300  1
  O  O6840  1  0.674800  0.722500  0.706300  1
  O  O6841  1  0.722500  0.674800  0.293700  1
  O  O6842  1  0.277500  0.325200  0.793700  1
  O  O6843  1  0.174800  0.777500  0.043700  1
  O  O6844  1  0.825200  0.222500  0.543700  1
  O  O6845  1  0.786000  0.167300  0.916900  1
  O  O6846  1  0.214000  0.832700  0.416900  1
  O  O6847  1  0.332700  0.286000  0.166900  1
  O  O6848  1  0.667300  0.714000  0.666900  1
  O  O6849  1  0.714000  0.667300  0.333100  1
  O  O6850  1  0.286000  0.332700  0.833100  1
  O  O6851  1  0.167300  0.786000  0.083100  1
  O  O6852  1  0.832700  0.214000  0.583100  1
  O  O6853  1  0.771100  0.129100  0.940500  1
  O  O6854  1  0.228900  0.870900  0.440500  1
  O  O6855  1  0.370900  0.271100  0.190500  1
  O  O6856  1  0.629100  0.728900  0.690500  1
  O  O6857  1  0.728900  0.629100  0.309500  1
  O  O6858  1  0.271100  0.370900  0.809500  1
  O  O6859  1  0.129100  0.771100  0.059500  1
  O  O6860  1  0.870900  0.228900  0.559500  1
  O  O6861  1  0.817800  0.147500  0.944800  1
  O  O6862  1  0.182200  0.852500  0.444800  1
  O  O6863  1  0.352500  0.317800  0.194800  1
  O  O6864  1  0.647500  0.682200  0.694800  1
  O  O6865  1  0.682200  0.647500  0.305200  1
  O  O6866  1  0.317800  0.352500  0.805200  1
  O  O6867  1  0.147500  0.817800  0.055200  1
  O  O6868  1  0.852500  0.182200  0.555200  1
  O  O6869  1  0.169900  0.174200  0.023700  1.0
  O  O6870  1  0.830100  0.825800  0.523700  1.0
  O  O6871  1  0.325800  0.669900  0.273700  1.0
  O  O6872  1  0.674200  0.330100  0.773700  1.0
  O  O6873  1  0.330100  0.674200  0.226300  1.0
  O  O6874  1  0.669900  0.325800  0.726300  1.0
  O  O6875  1  0.174200  0.169900  0.976300  1.0
  O  O6876  1  0.825800  0.830100  0.476300  1.0
  O  O6877  1  0.176000  0.220800  0.001600  1.0
  O  O6878  1  0.824000  0.779200  0.501600  1.0
  O  O6879  1  0.279200  0.676000  0.251600  1.0
  O  O6880  1  0.720800  0.324000  0.751600  1.0
  O  O6881  1  0.324000  0.720800  0.248400  1.0
  O  O6882  1  0.676000  0.279200  0.748400  1.0
  O  O6883  1  0.220800  0.176000  0.998400  1.0
  O  O6884  1  0.779200  0.824000  0.498400  1.0
