
#######################################################################
#
#                 Cambridge Crystallographic Data Centre
#                                CCDC 
#
#######################################################################
#
# If this CIF has been generated from an entry in the Cambridge 
# Structural Database, then it will include bibliographic, chemical, 
# crystal, experimental, refinement or atomic coordinate data resulting 
# from the CCDC's data processing and validation procedures.
#
#######################################################################

data_XEXJIV
_chemical_formula_moiety         
'C144 H108 Fe4 N24 8+,4(C2 F6 N1 O4 S2 1-),10(C6 H14 O1),10(C2 H3 N1),4(Cl1 O4 1-)'
_chemical_name_systematic        
"hexakis(\m~2~-N,N'-(3,3'-Bipyridine-6,6'-diyldimethylylidene)dianiline)-tetra-iron tetraperchlorate tetrakis(bis(trifluoromethanesulfonyl)amide) acetonitrile diethyl ether solvate"
_symmetry_cell_setting           monoclinic
_symmetry_space_group_name_H-M   'C 2/c'
_symmetry_Int_Tables_number      15
_space_group_name_Hall           '-C 2yn'
loop_
_symmetry_equiv_pos_site_id
_symmetry_equiv_pos_as_xyz
1 x,y,z
2 -x,y,1/2-z
3 1/2+x,1/2+y,z
4 1/2-x,1/2+y,1/2-z
5 -x,-y,-z
6 x,-y,1/2+z
7 1/2-x,1/2-y,-z
8 1/2+x,1/2-y,1/2+z
_cell_length_a                   26.8277(5)
_cell_length_b                   37.9763(16)
_cell_length_c                   22.2878(5)
_cell_angle_alpha                90
_cell_angle_beta                 94.230(2)
_cell_angle_gamma                90
_cell_volume                     22645.3
_exptl_crystal_colour            purple
_exptl_crystal_description       plate
_cell_formula_units_Z            4
loop_
_atom_site_label
_atom_site_type_symbol
_atom_site_fract_x
_atom_site_fract_y
_atom_site_fract_z
Cl1 Cl 0.47916(18) 0.28925(15) 0.2476(2)
O1 O 0.4391(4) 0.2669(3) 0.2350(5)
O2 O 0.4616(4) 0.3229(3) 0.2391(4)
O3 O 0.4958(2) 0.28312(18) 0.3014(2)
Cl1A Cl 0.52084(18) 0.28925(15) 0.2524(2)
O1A O 0.5609(4) 0.2669(3) 0.2650(5)
O2A O 0.5384(4) 0.3229(3) 0.2609(4)
O3A O 0.5042(2) 0.28312(18) 0.1986(2)
C1 C 0.7753(2) 0.38225(19) 0.2193(3)
C2 C 0.8152(3) 0.4017(2) 0.2452(3)
H1 H 0.8185 0.4052 0.2875
C3 C 0.8502(2) 0.41608(19) 0.2092(3)
H2 H 0.8774 0.4294 0.2270
C4 C 0.8453(2) 0.41099(19) 0.1473(3)
H3 H 0.8692 0.4208 0.1227
C5 C 0.8055(3) 0.3915(2) 0.1214(3)
H4 H 0.8021 0.3881 0.0791
C6 C 0.7705(2) 0.37716(19) 0.1573(3)
H5 H 0.7432 0.3639 0.1396
C7 C 0.7430(2) 0.3358(2) 0.2715(3)
H6 H 0.7706 0.3216 0.2622
C8 C 0.7019(3) 0.3232(2) 0.3078(3)
C9 C 0.6314(2) 0.3391(2) 0.3546(3)
H7 H 0.6079 0.3565 0.3642
C10 C 0.6295(3) 0.3058(3) 0.3800(3)
C11 C 0.6640(3) 0.2807(2) 0.3647(3)
H8 H 0.6609 0.2573 0.3793
C12 C 0.7012(3) 0.2880(2) 0.3305(4)
H9 H 0.7257 0.2711 0.3217
C13 C 0.5918(3) 0.2979(3) 0.4250(3)
C14 C 0.5660(3) 0.2689(3) 0.4200(3)
H10 H 0.5689 0.2550 0.3850
C15 C 0.5316(3) 0.2785(3) 0.5108(3)
C16 C 0.5539(3) 0.3102(3) 0.5159(3)
H11 H 0.5478 0.3257 0.5481
C17 C 0.5870(3) 0.3199(3) 0.4717(4)
H12 H 0.6053 0.3414 0.4749
C18 C 0.4976(3) 0.2602(3) 0.5532(3)
H13 H 0.4901 0.2713 0.5897
C19 C 0.44971(15) 0.21678(17) 0.58301(19)
C20 C 0.39864(16) 0.21324(17) 0.56874(17)
H14 H 0.3840 0.2226 0.5320
C21 C 0.36905(12) 0.19605(17) 0.60819(19)
H15 H 0.3341 0.1936 0.5984
C22 C 0.39053(15) 0.18241(16) 0.66191(18)
H16 H 0.3703 0.1707 0.6889
C23 C 0.44160(15) 0.18596(17) 0.67618(16)
H17 H 0.4563 0.1766 0.7129
C24 C 0.47119(12) 0.20314(18) 0.63673(19)
H18 H 0.5061 0.2056 0.6465
C25 C 0.6973(4) 0.46445(18) 0.2318(4)
C26 C 0.6638(3) 0.4864(3) 0.2584(4)
H19 H 0.6315 0.4780 0.2659
C27 C 0.6776(3) 0.5206(2) 0.2741(4)
H20 H 0.6547 0.5356 0.2923
C28 C 0.7248(4) 0.53295(18) 0.2633(4)
H21 H 0.7343 0.5564 0.2740
C29 C 0.7583(3) 0.5110(3) 0.2366(4)
H22 H 0.7907 0.5194 0.2292
C30 C 0.7446(3) 0.4768(2) 0.2209(4)
H23 H 0.7675 0.4618 0.2027
C31 C 0.6615(3) 0.4239(3) 0.1603(4)
H24 H 0.6600 0.4420 0.1308
C32 C 0.6454(3) 0.3902(2) 0.1455(3)
C33 C 0.6348(2) 0.3328(2) 0.1874(3)
H25 H 0.6361 0.3173 0.2208
C34 C 0.6217(2) 0.3207(2) 0.1292(3)
C35 C 0.6207(3) 0.3403(3) 0.0807(3)
H26 H 0.6143 0.3304 0.0417
C36 C 0.6298(3) 0.3778(3) 0.0893(3)
H27 H 0.6249 0.3936 0.0563
C37 C 0.6150(2) 0.2818(2) 0.1209(3)
C38 C 0.5714(2) 0.2680(3) 0.0899(3)
H28 H 0.5452 0.2841 0.0786
C39 C 0.6008(2) 0.2115(3) 0.0917(3)
C40 C 0.6439(3) 0.2214(2) 0.1283(3)
H29 H 0.6678 0.2045 0.1431
C41 C 0.6497(3) 0.2568(3) 0.1417(3)
H30 H 0.6785 0.2641 0.1660
C42 C 0.5909(3) 0.1766(2) 0.0711(3)
H31 H 0.6141 0.1580 0.0793
C43 C 0.5369(2) 0.13688(16) 0.0178(3)
C44 C 0.5528(2) 0.1269(2) -0.0377(3)
H32 H 0.5737 0.1421 -0.0585
C45 C 0.5382(3) 0.0946(2) -0.0626(3)
H33 H 0.5491 0.0878 -0.1005
C46 C 0.5077(3) 0.07233(17) -0.0320(4)
H34 H 0.4977 0.0503 -0.0491
C47 C 0.4918(3) 0.08232(18) 0.0234(4)
H35 H 0.4709 0.0671 0.0443
C48 C 0.5064(2) 0.1146(2) 0.0483(2)
H36 H 0.4955 0.1214 0.0862
C49 C 0.74423(15) 0.41715(18) 0.3733(3)
C50 C 0.7714(2) 0.44833(15) 0.3737(3)
H37 H 0.7570 0.4688 0.3552
C51 C 0.81958(19) 0.44950(15) 0.4012(3)
H38 H 0.8381 0.4708 0.4014
C52 C 0.84062(15) 0.41948(18) 0.4282(3)
H39 H 0.8736 0.4203 0.4470
C53 C 0.8135(2) 0.38830(15) 0.4278(3)
H40 H 0.8279 0.3678 0.4463
C54 C 0.76527(19) 0.38713(15) 0.4003(3)
H41 H 0.7467 0.3658 0.4001
C55 C 0.6602(3) 0.4317(2) 0.3733(4)
H42 H 0.6667 0.4429 0.4112
C56 C 0.6105(3) 0.4305(3) 0.3418(4)
C57 C 0.5648(3) 0.4097(2) 0.2558(3)
H43 H 0.5624 0.3965 0.2194
C58 C 0.5244(3) 0.4274(3) 0.2721(4)
C59 C 0.5256(3) 0.4466(3) 0.3240(4)
H44 H 0.4961 0.4566 0.3380
C60 C 0.5699(3) 0.4507(3) 0.3538(5)
H45 H 0.5736 0.4681 0.3843
C61 C 0.5782(2) 0.18711(19) 0.55325(17)
C62 C 0.56975(19) 0.15767(17) 0.5882(2)
H46 H 0.5506 0.1385 0.5714
C63 C 0.5893(2) 0.15622(16) 0.6476(2)
H47 H 0.5835 0.1361 0.6715
C64 C 0.6172(2) 0.18421(19) 0.67221(17)
H48 H 0.6306 0.1832 0.7129
C65 C 0.62571(19) 0.21364(16) 0.6373(2)
H49 H 0.6448 0.2328 0.6541
C66 C 0.6062(2) 0.21509(17) 0.5778(2)
H50 H 0.6120 0.2352 0.5540
C67 C 0.5847(3) 0.1789(3) 0.4535(3)
H51 H 0.6175 0.1702 0.4632
C68 C 0.5643(3) 0.1810(2) 0.3906(3)
C69 C 0.4949(3) 0.1977(2) 0.3302(3)
H52 H 0.4623 0.2076 0.3265
C70 C 0.5147(3) 0.1859(3) 0.2799(3)
C71 C 0.5647(4) 0.1734(3) 0.2846(4)
H53 H 0.5811 0.1677 0.2495
C72 C 0.5887(3) 0.1698(3) 0.3400(3)
H54 H 0.6213 0.1599 0.3447
N1 N 0.73714(19) 0.36763(18) 0.2545(2)
N2 N 0.6665(2) 0.34697(18) 0.3166(3)
N3 N 0.53471(18) 0.25701(17) 0.4621(2)
N4 N 0.4807(2) 0.2321(2) 0.5404(2)
N5 N 0.6786(2) 0.43042(18) 0.2151(3)
N6 N 0.64582(19) 0.3685(2) 0.1948(3)
N7 N 0.56402(19) 0.23457(19) 0.0754(2)
N8 N 0.54766(18) 0.17137(17) 0.0398(2)
N9 N 0.6956(2) 0.41587(19) 0.3446(3)
N10 N 0.6092(2) 0.41024(16) 0.2902(3)
N11 N 0.55885(19) 0.18843(19) 0.4927(2)
N12 N 0.5192(2) 0.19611(16) 0.3854(2)
Fe1 Fe 0.67359(4) 0.39055(3) 0.27016(5)
Fe2 Fe 0.49605(4) 0.21299(3) 0.46270(4)
C49A C 0.25577(15) 0.41715(18) 0.1267(3)
C50A C 0.2286(2) 0.44833(15) 0.1263(3)
H37A H 0.2430 0.4688 0.1448
C51A C 0.18042(19) 0.44950(15) 0.0988(3)
H38A H 0.1619 0.4708 0.0986
C52A C 0.15938(15) 0.41948(18) 0.0718(3)
H39A H 0.1264 0.4203 0.0530
C53A C 0.1865(2) 0.38830(15) 0.0722(3)
H40A H 0.1721 0.3678 0.0537
C54A C 0.23473(19) 0.38713(15) 0.0997(3)
H41A H 0.2533 0.3658 0.0999
C55A C 0.3398(3) 0.4317(2) 0.1267(4)
H42A H 0.3333 0.4429 0.0888
C56A C 0.3895(3) 0.4305(3) 0.1582(4)
C57A C 0.4352(3) 0.4097(2) 0.2442(3)
H43A H 0.4376 0.3965 0.2806
C58A C 0.4756(3) 0.4274(3) 0.2279(4)
C59A C 0.4744(3) 0.4466(3) 0.1760(4)
H44A H 0.5039 0.4566 0.1620
C60A C 0.4301(3) 0.4507(3) 0.1462(5)
H45A H 0.4264 0.4681 0.1157
N9A N 0.3044(2) 0.41587(19) 0.1554(3)
N10A N 0.3908(2) 0.41024(16) 0.2098(3)
C61A C 0.4218(2) 0.18711(19) -0.05325(17)
C62A C 0.43025(19) 0.15767(17) -0.0882(2)
H46A H 0.4494 0.1385 -0.0714
C63A C 0.4107(2) 0.15622(16) -0.1476(2)
H47A H 0.4165 0.1361 -0.1715
C64A C 0.3828(2) 0.18421(19) -0.17221(17)
H48A H 0.3694 0.1832 -0.2129
C65A C 0.37429(19) 0.21364(16) -0.1373(2)
H49A H 0.3552 0.2328 -0.1541
C66A C 0.3938(2) 0.21509(17) -0.0778(2)
H50A H 0.3880 0.2352 -0.0540
C67A C 0.4153(3) 0.1789(3) 0.0465(3)
H51A H 0.3825 0.1702 0.0368
C68A C 0.4357(3) 0.1810(2) 0.1094(3)
C69A C 0.5051(3) 0.1977(2) 0.1698(3)
H52A H 0.5377 0.2076 0.1735
C70A C 0.4853(3) 0.1859(3) 0.2201(3)
C71A C 0.4353(4) 0.1734(3) 0.2154(4)
H53A H 0.4189 0.1677 0.2505
C72A C 0.4113(3) 0.1698(3) 0.1600(3)
H54A H 0.3787 0.1599 0.1553
N11A N 0.44115(19) 0.18843(19) 0.0073(2)
N12A N 0.4808(2) 0.19611(16) 0.1146(2)
C1A C 0.2247(2) 0.38225(19) 0.2807(3)
C2A C 0.1848(3) 0.4017(2) 0.2548(3)
H1A H 0.1815 0.4052 0.2125
C3A C 0.1498(2) 0.41608(19) 0.2908(3)
H2A H 0.1226 0.4294 0.2730
C4A C 0.1547(2) 0.41099(19) 0.3527(3)
H3A H 0.1308 0.4208 0.3773
C5A C 0.1945(3) 0.3915(2) 0.3786(3)
H4A H 0.1979 0.3881 0.4209
C6A C 0.2295(2) 0.37716(19) 0.3427(3)
H5A H 0.2568 0.3639 0.3604
C7A C 0.2570(2) 0.3358(2) 0.2285(3)
H6A H 0.2294 0.3216 0.2378
C8A C 0.2981(3) 0.3232(2) 0.1922(3)
C9A C 0.3686(2) 0.3391(2) 0.1454(3)
H7A H 0.3921 0.3565 0.1358
C10A C 0.3705(3) 0.3058(3) 0.1200(3)
C11A C 0.3360(3) 0.2807(2) 0.1353(3)
H8A H 0.3391 0.2573 0.1207
C12A C 0.2988(3) 0.2880(2) 0.1695(4)
H9A H 0.2743 0.2711 0.1783
C13A C 0.4082(3) 0.2979(3) 0.0750(3)
C14A C 0.4340(3) 0.2689(3) 0.0800(3)
H10A H 0.4311 0.2550 0.1150
C15A C 0.4684(3) 0.2785(3) -0.0108(3)
C16A C 0.4461(3) 0.3102(3) -0.0159(3)
H11A H 0.4522 0.3257 -0.0481
C17A C 0.4130(3) 0.3199(3) 0.0283(4)
H12A H 0.3947 0.3414 0.0251
C18A C 0.5024(3) 0.2602(3) -0.0532(3)
H13A H 0.5099 0.2713 -0.0897
C19A C 0.55029(15) 0.21678(17) -0.08301(19)
C20A C 0.60136(16) 0.21324(17) -0.06874(17)
H14A H 0.6160 0.2226 -0.0320
C21A C 0.63095(12) 0.19605(17) -0.10819(19)
H15A H 0.6659 0.1936 -0.0984
C22A C 0.60947(15) 0.18241(16) -0.16191(18)
H16A H 0.6297 0.1707 -0.1889
C23A C 0.55840(15) 0.18596(17) -0.17618(16)
H17A H 0.5437 0.1766 -0.2129
C24A C 0.52881(12) 0.20314(18) -0.13673(19)
H18A H 0.4939 0.2056 -0.1465
C25A C 0.3027(4) 0.46445(18) 0.2682(4)
C26A C 0.3362(3) 0.4864(3) 0.2416(4)
H19A H 0.3685 0.4780 0.2341
C27A C 0.3224(3) 0.5206(2) 0.2259(4)
H20A H 0.3453 0.5356 0.2077
C28A C 0.2752(4) 0.53295(18) 0.2367(4)
H21A H 0.2657 0.5564 0.2260
C29A C 0.2417(3) 0.5110(3) 0.2634(4)
H22A H 0.2093 0.5194 0.2708
C30A C 0.2554(3) 0.4768(2) 0.2791(4)
H23A H 0.2325 0.4618 0.2973
C31A C 0.3385(3) 0.4239(3) 0.3397(4)
H24A H 0.3400 0.4420 0.3692
C32A C 0.3546(3) 0.3902(2) 0.3545(3)
C33A C 0.3652(2) 0.3328(2) 0.3126(3)
H25A H 0.3639 0.3173 0.2792
C34A C 0.3783(2) 0.3207(2) 0.3708(3)
C35A C 0.3793(3) 0.3403(3) 0.4193(3)
H26A H 0.3857 0.3304 0.4583
C36A C 0.3702(3) 0.3778(3) 0.4107(3)
H27A H 0.3751 0.3936 0.4437
C37A C 0.3850(2) 0.2818(2) 0.3791(3)
C38A C 0.4286(2) 0.2680(3) 0.4101(3)
H28A H 0.4548 0.2841 0.4214
C39A C 0.3992(2) 0.2115(3) 0.4083(3)
C40A C 0.3561(3) 0.2214(2) 0.3717(3)
H29A H 0.3322 0.2045 0.3569
C41A C 0.3503(3) 0.2568(3) 0.3583(3)
H30A H 0.3215 0.2641 0.3340
C42A C 0.4091(3) 0.1766(2) 0.4289(3)
H31A H 0.3859 0.1580 0.4207
C43A C 0.4631(2) 0.13688(16) 0.4822(3)
C44A C 0.4472(2) 0.1269(2) 0.5377(3)
H32A H 0.4263 0.1421 0.5585
C45A C 0.4618(3) 0.0946(2) 0.5626(3)
H33A H 0.4509 0.0878 0.6005
C46A C 0.4923(3) 0.07233(17) 0.5320(4)
H34A H 0.5023 0.0503 0.5491
C47A C 0.5082(3) 0.08232(18) 0.4766(4)
H35A H 0.5291 0.0671 0.4557
C48A C 0.4936(2) 0.1146(2) 0.4517(2)
H36A H 0.5045 0.1214 0.4138
N1A N 0.26286(19) 0.36763(18) 0.2455(2)
N2A N 0.3335(2) 0.34697(18) 0.1834(3)
N3A N 0.46529(18) 0.25701(17) 0.0379(2)
N4A N 0.5193(2) 0.2321(2) -0.0404(2)
N5A N 0.3214(2) 0.43042(18) 0.2849(3)
N6A N 0.35418(19) 0.3685(2) 0.3052(3)
N7A N 0.43598(19) 0.23457(19) 0.4246(2)
N8A N 0.45234(18) 0.17137(17) 0.4602(2)
Fe1A Fe 0.32641(4) 0.39055(3) 0.22984(5)
Fe2A Fe 0.50395(4) 0.21299(3) 0.03730(4)
loop_
_geom_bond_atom_site_label_1
_geom_bond_atom_site_label_2
_geom_bond_site_symmetry_1
_geom_bond_site_symmetry_2
C1 C2 1_555 1_555
C2 H1 1_555 1_555
C3 C2 1_555 1_555
H2 C3 1_555 1_555
C4 C3 1_555 1_555
H3 C4 1_555 1_555
C5 C4 1_555 1_555
H4 C5 1_555 1_555
C6 C1 1_555 1_555
H5 C6 1_555 1_555
C7 H6 1_555 1_555
C8 C7 1_555 1_555
C9 H7 1_555 1_555
C10 C9 1_555 1_555
C11 C10 1_555 1_555
H8 C11 1_555 1_555
C12 C8 1_555 1_555
H9 C12 1_555 1_555
C13 C10 1_555 1_555
C14 C13 1_555 1_555
H10 C14 1_555 1_555
C15 C16 1_555 1_555
C16 H11 1_555 1_555
C17 C13 1_555 1_555
H12 C17 1_555 1_555
C18 C15 1_555 1_555
H13 C18 1_555 1_555
C19 C20 1_555 1_555
C20 H14 1_555 1_555
C21 C20 1_555 1_555
H15 C21 1_555 1_555
C22 C21 1_555 1_555
H16 C22 1_555 1_555
C23 C22 1_555 1_555
H17 C23 1_555 1_555
C24 C19 1_555 1_555
H18 C24 1_555 1_555
C25 C26 1_555 1_555
C26 H19 1_555 1_555
C27 C26 1_555 1_555
H20 C27 1_555 1_555
C28 C27 1_555 1_555
H21 C28 1_555 1_555
C29 C28 1_555 1_555
H22 C29 1_555 1_555
C30 C25 1_555 1_555
H23 C30 1_555 1_555
C31 H24 1_555 1_555
C32 C31 1_555 1_555
C33 H25 1_555 1_555
C34 C33 1_555 1_555
C35 C34 1_555 1_555
H26 C35 1_555 1_555
C36 C32 1_555 1_555
H27 C36 1_555 1_555
C37 C34 1_555 1_555
C38 C37 1_555 1_555
H28 C38 1_555 1_555
C39 C40 1_555 1_555
C40 H29 1_555 1_555
C41 C37 1_555 1_555
H30 C41 1_555 1_555
C42 C39 1_555 1_555
H31 C42 1_555 1_555
C43 C44 1_555 1_555
C44 H32 1_555 1_555
C45 C44 1_555 1_555
H33 C45 1_555 1_555
C46 C45 1_555 1_555
H34 C46 1_555 1_555
C47 C46 1_555 1_555
H35 C47 1_555 1_555
C48 C43 1_555 1_555
H36 C48 1_555 1_555
C49 C50 1_555 1_555
C50 H37 1_555 1_555
C51 C50 1_555 1_555
H38 C51 1_555 1_555
C52 C51 1_555 1_555
H39 C52 1_555 1_555
C53 C52 1_555 1_555
H40 C53 1_555 1_555
C54 C49 1_555 1_555
H41 C54 1_555 1_555
C55 H42 1_555 1_555
C56 C55 1_555 1_555
C57 H43 1_555 1_555
C58 C57 1_555 1_555
C59 C58 1_555 1_555
H44 C59 1_555 1_555
C60 C56 1_555 1_555
H45 C60 1_555 1_555
C61 C62 1_555 1_555
C62 H46 1_555 1_555
C63 C62 1_555 1_555
H47 C63 1_555 1_555
C64 C63 1_555 1_555
H48 C64 1_555 1_555
C65 C64 1_555 1_555
H49 C65 1_555 1_555
C66 C61 1_555 1_555
H50 C66 1_555 1_555
C67 H51 1_555 1_555
C68 C67 1_555 1_555
C69 H52 1_555 1_555
C70 C69 1_555 1_555
C71 C70 1_555 1_555
H53 C71 1_555 1_555
C72 C68 1_555 1_555
H54 C72 1_555 1_555
N1 C1 1_555 1_555
N2 C8 1_555 1_555
N3 C14 1_555 1_555
N4 C18 1_555 1_555
N5 C25 1_555 1_555
N6 C32 1_555 1_555
N7 C38 1_555 1_555
N8 C42 1_555 1_555
N9 C49 1_555 1_555
N10 C56 1_555 1_555
N11 C61 1_555 1_555
N12 C68 1_555 1_555
Fe1 N1 1_555 1_555
Fe2 N3 1_555 1_555
Cl1 O1 1_555 1_555
O2 Cl1 1_555 1_555
O3 Cl1 1_555 1_555
C49A C50A 1_555 1_555
C50A H37A 1_555 1_555
C51A C50A 1_555 1_555
H38A C51A 1_555 1_555
C52A C51A 1_555 1_555
H39A C52A 1_555 1_555
C53A C52A 1_555 1_555
H40A C53A 1_555 1_555
C54A C49A 1_555 1_555
H41A C54A 1_555 1_555
C55A H42A 1_555 1_555
C56A C55A 1_555 1_555
C57A H43A 1_555 1_555
C58A C58 1_555 1_555
C59A C58A 1_555 1_555
H44A C59A 1_555 1_555
C60A C56A 1_555 1_555
H45A C60A 1_555 1_555
N9A C49A 1_555 1_555
N10A C56A 1_555 1_555
C61A C62A 1_555 1_555
C62A H46A 1_555 1_555
C63A C62A 1_555 1_555
H47A C63A 1_555 1_555
C64A C63A 1_555 1_555
H48A C64A 1_555 1_555
C65A C64A 1_555 1_555
H49A C65A 1_555 1_555
C66A C61A 1_555 1_555
H50A C66A 1_555 1_555
C67A H51A 1_555 1_555
C68A C67A 1_555 1_555
C69A H52A 1_555 1_555
C70A C70 1_555 1_555
C71A C70A 1_555 1_555
H53A C71A 1_555 1_555
C72A C68A 1_555 1_555
H54A C72A 1_555 1_555
N11A C61A 1_555 1_555
N12A C68A 1_555 1_555
C1A C2A 1_555 1_555
C2A H1A 1_555 1_555
C3A C2A 1_555 1_555
H2A C3A 1_555 1_555
C4A C3A 1_555 1_555
H3A C4A 1_555 1_555
C5A C4A 1_555 1_555
H4A C5A 1_555 1_555
C6A C1A 1_555 1_555
H5A C6A 1_555 1_555
C7A H6A 1_555 1_555
C8A C7A 1_555 1_555
C9A H7A 1_555 1_555
C10A C9A 1_555 1_555
C11A C10A 1_555 1_555
H8A C11A 1_555 1_555
C12A C8A 1_555 1_555
H9A C12A 1_555 1_555
C13A C10A 1_555 1_555
C14A C13A 1_555 1_555
H10A C14A 1_555 1_555
C15A C16A 1_555 1_555
C16A H11A 1_555 1_555
C17A C13A 1_555 1_555
H12A C17A 1_555 1_555
C18A C15A 1_555 1_555
H13A C18A 1_555 1_555
C19A C20A 1_555 1_555
C20A H14A 1_555 1_555
C21A C20A 1_555 1_555
H15A C21A 1_555 1_555
C22A C21A 1_555 1_555
H16A C22A 1_555 1_555
C23A C22A 1_555 1_555
H17A C23A 1_555 1_555
C24A C19A 1_555 1_555
H18A C24A 1_555 1_555
C25A C26A 1_555 1_555
C26A H19A 1_555 1_555
C27A C26A 1_555 1_555
H20A C27A 1_555 1_555
C28A C27A 1_555 1_555
H21A C28A 1_555 1_555
C29A C28A 1_555 1_555
H22A C29A 1_555 1_555
C30A C25A 1_555 1_555
H23A C30A 1_555 1_555
C31A H24A 1_555 1_555
C32A C31A 1_555 1_555
C33A H25A 1_555 1_555
C34A C33A 1_555 1_555
C35A C34A 1_555 1_555
H26A C35A 1_555 1_555
C36A C32A 1_555 1_555
H27A C36A 1_555 1_555
C37A C34A 1_555 1_555
C38A C37A 1_555 1_555
H28A C38A 1_555 1_555
C39A C40A 1_555 1_555
C40A H29A 1_555 1_555
C41A C37A 1_555 1_555
H30A C41A 1_555 1_555
C42A C39A 1_555 1_555
H31A C42A 1_555 1_555
C43A C44A 1_555 1_555
C44A H32A 1_555 1_555
C45A C44A 1_555 1_555
H33A C45A 1_555 1_555
C46A C45A 1_555 1_555
H34A C46A 1_555 1_555
C47A C46A 1_555 1_555
H35A C47A 1_555 1_555
C48A C43A 1_555 1_555
H36A C48A 1_555 1_555
N1A C1A 1_555 1_555
N2A C8A 1_555 1_555
N3A C14A 1_555 1_555
N4A C18A 1_555 1_555
N5A C25A 1_555 1_555
N6A C32A 1_555 1_555
N7A Fe2 1_555 1_555
N8A Fe2 1_555 1_555
Fe1A N9A 1_555 1_555
Fe2A N7 1_555 1_555
Cl1A Cl1 1_555 1_555
O1A Cl1A 1_555 1_555
O2A Cl1 1_555 1_555
O3A Cl1 1_555 1_555
C5 C6 1_555 1_555
C7 N1 1_555 1_555
C9 N2 1_555 1_555
C11 C12 1_555 1_555
C15 N3 1_555 1_555
C16 C17 1_555 1_555
C19 N4 1_555 1_555
C23 C24 1_555 1_555
C29 C30 1_555 1_555
C31 N5 1_555 1_555
C33 N6 1_555 1_555
C35 C36 1_555 1_555
C39 N7 1_555 1_555
C40 C41 1_555 1_555
C43 N8 1_555 1_555
C47 C48 1_555 1_555
C53 C54 1_555 1_555
C55 N9 1_555 1_555
C57 N10 1_555 1_555
C59 C60 1_555 1_555
C65 C66 1_555 1_555
C67 N11 1_555 1_555
C69 N12 1_555 1_555
C71 C72 1_555 1_555
N2 Fe1 1_555 1_555
N4 Fe2 1_555 1_555
N5 Fe1 1_555 1_555
N6 Fe1 1_555 1_555
N8 Fe2A 1_555 1_555
N9 Fe1 1_555 1_555
N10 Fe1 1_555 1_555
N11 Fe2 1_555 1_555
N12 Fe2 1_555 1_555
O2 Cl1A 1_555 1_555
O3 Cl1A 1_555 1_555
C53A C54A 1_555 1_555
C55A N9A 1_555 1_555
C57A C58A 1_555 1_555
C57A N10A 1_555 1_555
C59A C60A 1_555 1_555
N10A Fe1A 1_555 1_555
C65A C66A 1_555 1_555
C67A N11A 1_555 1_555
C69A C70A 1_555 1_555
C69A N12A 1_555 1_555
C71A C72A 1_555 1_555
N11A Fe2A 1_555 1_555
N12A Fe2A 1_555 1_555
C5A C6A 1_555 1_555
C7A N1A 1_555 1_555
C9A N2A 1_555 1_555
C11A C12A 1_555 1_555
C15A N3A 1_555 1_555
C16A C17A 1_555 1_555
C19A N4A 1_555 1_555
C23A C24A 1_555 1_555
C29A C30A 1_555 1_555
C31A N5A 1_555 1_555
C33A N6A 1_555 1_555
C35A C36A 1_555 1_555
C38A N7A 1_555 1_555
C39A N7A 1_555 1_555
C40A C41A 1_555 1_555
C42A N8A 1_555 1_555
C43A N8A 1_555 1_555
C47A C48A 1_555 1_555
N1A Fe1A 1_555 1_555
N2A Fe1A 1_555 1_555
N3A Fe2A 1_555 1_555
N4A Fe2A 1_555 1_555
N5A Fe1A 1_555 1_555
N6A Fe1A 1_555 1_555
Cl1A O2A 1_555 1_555
Cl1A O3A 1_555 1_555

#END
