
#######################################################################
#
#                 Cambridge Crystallographic Data Centre
#                                CCDC 
#
#######################################################################
#
# If this CIF has been generated from an entry in the Cambridge 
# Structural Database, then it will include bibliographic, chemical, 
# crystal, experimental, refinement or atomic coordinate data resulting 
# from the CCDC's data processing and validation procedures.
#
#######################################################################

data_XEXJAN
_chemical_formula_moiety         
'C390 H330 Fe10 N60 20+,19(Cl1 O4 1-),Cl1 1-,15(C2 H3 N1),13(C4 H10 O1)'
_chemical_name_systematic        
"pentadecakis(\m~2~-N,N'-(3,3'-Bipyridine-6,6'-diyldimethylylidene)bis(4-methylaniline))-deca-iron chloride nonadecaperchlorate acetonitrile diethyl ether solvate"
_symmetry_cell_setting           tetragonal
_symmetry_space_group_name_H-M   'P 41 21 2'
_symmetry_Int_Tables_number      92
_space_group_name_Hall           'P 4abw 2nw'
loop_
_symmetry_equiv_pos_site_id
_symmetry_equiv_pos_as_xyz
1 x,y,z
2 -x,-y,1/2+z
3 1/2-y,1/2+x,1/4+z
4 1/2+y,1/2-x,3/4+z
5 1/2-x,1/2+y,1/4-z
6 1/2+x,1/2-y,3/4-z
7 y,x,-z
8 -y,-x,1/2-z
_cell_length_a                   43.1549(6)
_cell_length_b                   43.1549(6)
_cell_length_c                   54.1365(11)
_cell_angle_alpha                90
_cell_angle_beta                 90
_cell_angle_gamma                90
_cell_volume                     100821
_exptl_crystal_colour            purple
_exptl_crystal_description       block
_cell_formula_units_Z            8
loop_
_atom_site_label
_atom_site_type_symbol
_atom_site_fract_x
_atom_site_fract_y
_atom_site_fract_z
C1 C 0.5514(2) 0.4004(3) -0.0660(3)
C2 C 0.5286(3) 0.3832(3) -0.05407(19)
H1 H 0.5330 0.3735 -0.0387
C3 C 0.4995(3) 0.3800(3) -0.0647(2)
H2 H 0.4839 0.3683 -0.0566
C4 C 0.4931(3) 0.3942(3) -0.0872(2)
C5 C 0.5158(3) 0.4114(3) -0.0991(2)
H3 H 0.5114 0.4211 -0.1145
C6 C 0.5450(3) 0.4146(3) -0.0885(3)
H4 H 0.5605 0.4263 -0.0966
C7 C 0.4614(6) 0.3892(6) -0.1027(5)
H5 H 0.4617 0.4025 -0.1174
H6 H 0.4436 0.3946 -0.0923
H7 H 0.4598 0.3675 -0.1078
C8 C 0.5951(4) 0.4322(4) -0.0549(3)
H8 H 0.5847 0.4499 -0.0612
C9 C 0.6230(5) 0.4333(5) -0.0441(3)
C10 C 0.6665(4) 0.4037(5) -0.0317(3)
H9 H 0.6755 0.3844 -0.0270
C11 C 0.6837(4) 0.4301(4) -0.0300(3)
C12 C 0.6739(6) 0.4572(6) -0.0384(4)
H10 H 0.6873 0.4747 -0.0392
C13 C 0.6420(5) 0.4589(5) -0.0462(4)
H11 H 0.6340 0.4776 -0.0529
C14 C 0.7172(4) 0.4271(4) -0.0246(3)
C15 C 0.7274(4) 0.4153(3) -0.0023(3)
H12 H 0.7123 0.4075 0.0088
C16 C 0.7802(4) 0.4262(4) -0.0123(3)
C17 C 0.7736(5) 0.4380(5) -0.0335(4)
H13 H 0.7901 0.4440 -0.0442
C18 C 0.7434(6) 0.4421(5) -0.0413(4)
H14 H 0.7386 0.4533 -0.0558
C19 C 0.8104(4) 0.4224(4) -0.0033(3)
H15 H 0.8276 0.4287 -0.0130
C20 C 0.84492(18) 0.4069(4) 0.0268(2)
C21 C 0.8544(2) 0.3806(3) 0.0395(3)
H16 H 0.8401 0.3642 0.0424
C22 C 0.8846(3) 0.3782(3) 0.0481(2)
H17 H 0.8911 0.3603 0.0568
C23 C 0.9055(2) 0.4022(3) 0.0439(2)
C24 C 0.8960(2) 0.4285(3) 0.0311(2)
H18 H 0.9103 0.4449 0.0282
C25 C 0.8658(3) 0.4308(3) 0.0225(2)
H19 H 0.8593 0.4488 0.0138
C26 C 0.9391(3) 0.3994(4) 0.0527(4)
H20 H 0.9515 0.4163 0.0457
H21 H 0.9477 0.3795 0.0473
H22 H 0.9398 0.4005 0.0708
C27 C 0.6474(5) 0.3934(5) -0.0939(4)
C28 C 0.6355(6) 0.4161(5) -0.1108(4)
H23 H 0.6144 0.4163 -0.1159
C29 C 0.6562(8) 0.4370(7) -0.1189(6)
H24 H 0.6495 0.4528 -0.1299
C30 C 0.6859(6) 0.4363(6) -0.1122(4)
C31 C 0.6979(5) 0.4143(5) -0.0948(4)
H25 H 0.7185 0.4155 -0.0887
C32 C 0.6772(4) 0.3906(4) -0.0872(3)
H26 H 0.6842 0.3734 -0.0777
C33 C 0.7127(6) 0.4611(6) -0.1202(4)
H27 H 0.7327 0.4504 -0.1214
H28 H 0.7140 0.4775 -0.1077
H29 H 0.7075 0.4701 -0.1362
C34 C 0.6047(4) 0.3601(4) -0.0991(3)
H30 H 0.6067 0.3630 -0.1165
C35 C 0.5784(4) 0.3408(4) -0.0875(3)
C36 C 0.5638(5) 0.3203(4) -0.0515(4)
H31 H 0.5662 0.3170 -0.0343
C37 C 0.5419(4) 0.3062(4) -0.0616(3)
C38 C 0.5377(5) 0.3063(5) -0.0885(3)
H32 H 0.5229 0.2939 -0.0969
C39 C 0.5569(4) 0.3256(4) -0.0997(3)
H33 H 0.5550 0.3286 -0.1170
C40 C 0.5198(4) 0.2826(4) -0.0471(3)
C41 C 0.5317(4) 0.2627(4) -0.0296(3)
H34 H 0.5533 0.2628 -0.0262
C42 C 0.4814(5) 0.2461(5) -0.0206(4)
C43 C 0.4698(5) 0.2660(4) -0.0366(3)
H35 H 0.4481 0.2677 -0.0390
C44 C 0.4901(5) 0.2844(5) -0.0500(4)
H36 H 0.4819 0.2988 -0.0615
C45 C 0.4673(5) 0.2213(4) -0.0052(3)
H37 H 0.4453 0.2200 -0.0049
C46 C 0.4661(4) 0.1772(4) 0.0191(3)
C47 C 0.4715(4) 0.1697(4) 0.0439(3)
H38 H 0.4818 0.1833 0.0550
C48 C 0.4614(4) 0.1431(4) 0.0506(4)
H39 H 0.4678 0.1364 0.0665
C49 C 0.4430(4) 0.1232(4) 0.0383(3)
C50 C 0.4368(5) 0.1319(5) 0.0132(4)
H40 H 0.4246 0.1192 0.0027
C51 C 0.4497(4) 0.1603(4) 0.0045(3)
H41 H 0.4461 0.1668 -0.0121
C52 C 0.4329(5) 0.0927(5) 0.0494(4)
H42 H 0.4466 0.0761 0.0435
H43 H 0.4115 0.0882 0.0443
H44 H 0.4340 0.0940 0.0674
C53 C 0.5756(3) 0.3747(4) 0.0002(2)
C54 C 0.5747(3) 0.4066(3) 0.0042(3)
H45 H 0.5906 0.4194 -0.0022
C55 C 0.5504(4) 0.4196(3) 0.0175(3)
H46 H 0.5498 0.4413 0.0202
C56 C 0.5270(3) 0.4008(4) 0.0268(3)
C57 C 0.5279(3) 0.3690(4) 0.0229(3)
H47 H 0.5119 0.3561 0.0293
C58 C 0.5522(4) 0.3559(3) 0.0096(3)
H48 H 0.5528 0.3342 0.0069
C59 C 0.4963(9) 0.4103(9) 0.0457(7)
H49 H 0.4773 0.4066 0.0369
H50 H 0.4973 0.4317 0.0504
H51 H 0.4969 0.3975 0.0601
C60 C 0.6182(5) 0.3426(5) -0.0012(4)
H52 H 0.6154 0.3384 0.0158
C61 C 0.6421(4) 0.3287(4) -0.0154(3)
C62 C 0.6609(4) 0.3224(4) -0.0535(4)
H53 H 0.6612 0.3282 -0.0704
C63 C 0.6822(4) 0.2979(4) -0.0465(3)
C64 C 0.6813(4) 0.2924(4) -0.0210(3)
H54 H 0.6946 0.2771 -0.0143
C65 C 0.6622(4) 0.3079(4) -0.0055(3)
H55 H 0.6628 0.3044 0.0118
C66 C 0.7027(4) 0.2841(4) -0.0634(3)
C67 C 0.7079(3) 0.2943(3) -0.0881(3)
H56 H 0.6979 0.3129 -0.0930
C68 C 0.7403(4) 0.2510(4) -0.0983(3)
C69 C 0.7379(4) 0.2413(4) -0.0737(3)
H57 H 0.7501 0.2244 -0.0681
C70 C 0.7190(4) 0.2552(4) -0.0581(3)
H58 H 0.7158 0.2459 -0.0425
C71 C 0.7563(2) 0.2410(2) -0.11675(16)
H59 H 0.7668 0.2219 -0.1150
C72 C 0.7742(2) 0.2386(2) -0.15678(16)
C73 C 0.8058(2) 0.2413(2) -0.16099(16)
H60 H 0.8183 0.2535 -0.1502
C74 C 0.8193(2) 0.2263(2) -0.18099(16)
H61 H 0.8410 0.2281 -0.1839
C75 C 0.8011(2) 0.2085(2) -0.19678(16)
C76 C 0.7695(2) 0.2058(2) -0.19257(16)
H62 H 0.7571 0.1937 -0.2034
C77 C 0.7560(2) 0.2209(2) -0.17257(16)
H63 H 0.7344 0.2190 -0.1697
C78 C 0.7727(3) 0.4742(3) 0.0320(2)
C79 C 0.7418(3) 0.4788(3) 0.0257(3)
H64 H 0.7263 0.4655 0.0322
C80 C 0.7336(3) 0.5028(4) 0.0099(3)
H65 H 0.7125 0.5059 0.0056
C81 C 0.7563(4) 0.5222(3) 0.0003(3)
C82 C 0.7872(4) 0.5177(3) 0.0066(3)
H66 H 0.8028 0.5310 0.0001
C83 C 0.7954(3) 0.4937(4) 0.0224(3)
H67 H 0.8165 0.4906 0.0267
C84 C 0.7471(9) 0.5523(8) -0.0170(6)
H68 H 0.7361 0.5676 -0.0069
H69 H 0.7337 0.5455 -0.0306
H70 H 0.7660 0.5616 -0.0237
C85 C 0.7993(4) 0.4525(4) 0.0646(3)
H71 H 0.8056 0.4726 0.0698
C86 C 0.8087(3) 0.4253(3) 0.0776(3)
C87 C 0.8055(4) 0.3704(4) 0.0792(3)
H72 H 0.7978 0.3513 0.0730
C88 C 0.8252(4) 0.3709(4) 0.0998(3)
C89 C 0.8380(5) 0.3976(5) 0.1083(4)
H73 H 0.8525 0.3970 0.1215
C90 C 0.8303(4) 0.4252(5) 0.0979(3)
H74 H 0.8389 0.4440 0.1038
C91 C 0.8339(4) 0.3408(4) 0.1106(3)
C92 C 0.8125(5) 0.3178(4) 0.1164(3)
H75 H 0.7912 0.3211 0.1131
C93 C 0.8529(4) 0.2842(4) 0.1283(3)
C94 C 0.8753(4) 0.3049(4) 0.1217(3)
H76 H 0.8966 0.3000 0.1232
C95 C 0.8660(4) 0.3320(4) 0.1132(3)
H77 H 0.8814 0.3465 0.1085
C96 C 0.8580(4) 0.2547(4) 0.1374(3)
H78 H 0.8785 0.2471 0.1394
C97 C 0.8399(4) 0.2080(4) 0.1539(3)
C98 C 0.8229(4) 0.1806(4) 0.1462(3)
H79 H 0.8084 0.1822 0.1330
C99 C 0.8268(4) 0.1544(5) 0.1566(3)
H80 H 0.8150 0.1372 0.1508
C100 C 0.8471(6) 0.1497(6) 0.1756(4)
C101 C 0.8664(4) 0.1762(4) 0.1848(3)
H81 H 0.8805 0.1738 0.1982
C102 C 0.8626(4) 0.2045(5) 0.1729(3)
H82 H 0.8752 0.2216 0.1775
C103 C 0.8514(6) 0.1179(6) 0.1916(4)
H83 H 0.8321 0.1133 0.2003
H84 H 0.8682 0.1207 0.2035
H85 H 0.8565 0.1008 0.1804
C104 C 0.7199(3) 0.4183(3) 0.0712(2)
C105 C 0.7323(3) 0.4242(3) 0.0944(2)
H86 H 0.7509 0.4142 0.0994
C106 C 0.7175(4) 0.4447(3) 0.11035(19)
H87 H 0.7260 0.4487 0.1262
C107 C 0.6903(4) 0.4593(3) 0.1030(3)
C108 C 0.6779(3) 0.4534(3) 0.0798(3)
H88 H 0.6593 0.4634 0.0748
C109 C 0.6927(3) 0.4329(3) 0.0639(2)
H89 H 0.6842 0.4289 0.0480
C110 C 0.6732(6) 0.4823(6) 0.1247(5)
H90 H 0.6639 0.5003 0.1165
H91 H 0.6888 0.4893 0.1366
H92 H 0.6571 0.4705 0.1333
C111 C 0.7232(4) 0.3697(3) 0.0540(3)
H93 H 0.7043 0.3645 0.0619
C112 C 0.7409(3) 0.3476(3) 0.0391(3)
C113 C 0.7863(4) 0.3429(3) 0.0134(3)
H94 H 0.8035 0.3518 0.0051
C114 C 0.7784(3) 0.3112(3) 0.0094(2)
C115 C 0.7519(3) 0.2996(4) 0.0205(3)
H95 H 0.7468 0.2784 0.0182
C116 C 0.7336(4) 0.3172(4) 0.0342(3)
H96 H 0.7150 0.3087 0.0408
C117 C 0.7981(3) 0.2924(3) -0.0074(3)
C118 C 0.8289(4) 0.3023(4) -0.0138(3)
H97 H 0.8366 0.3211 -0.0070
C119 C 0.8359(4) 0.2574(4) -0.0339(3)
C120 C 0.8068(3) 0.2460(4) -0.0309(3)
H98 H 0.8000 0.2273 -0.0384
C121 C 0.7887(3) 0.2633(3) -0.0166(2)
H99 H 0.7687 0.2557 -0.0124
C122 C 0.8586(4) 0.2416(4) -0.0497(3)
H100 H 0.8535 0.2228 -0.0579
C123 C 0.9081(4) 0.2414(4) -0.0695(3)
C124 C 0.9267(5) 0.2202(5) -0.0571(3)
H101 H 0.9245 0.2174 -0.0398
C125 C 0.9487(5) 0.2031(5) -0.0700(4)
H102 H 0.9614 0.1886 -0.0616
C126 C 0.9520(4) 0.2072(5) -0.0954(4)
C127 C 0.9334(5) 0.2284(6) -0.1078(3)
H103 H 0.9356 0.2311 -0.1251
C128 C 0.9114(5) 0.2455(5) -0.0948(4)
H104 H 0.8987 0.2599 -0.1033
C129 C 0.9763(7) 0.1882(8) -0.1099(7)
H105 H 0.9666 0.1781 -0.1236
H106 H 0.9851 0.1729 -0.0990
H107 H 0.9923 0.2018 -0.1157
C130 C 0.8297(4) 0.2984(4) 0.1819(3)
C131 C 0.8222(4) 0.3273(4) 0.1735(3)
H108 H 0.8032 0.3312 0.1653
C132 C 0.8448(4) 0.3520(4) 0.1775(3)
H109 H 0.8403 0.3728 0.1731
C133 C 0.8729(5) 0.3440(5) 0.1880(3)
C134 C 0.8805(4) 0.3145(4) 0.1947(3)
H110 H 0.9008 0.3098 0.2004
C135 C 0.8572(4) 0.2905(4) 0.1930(3)
H111 H 0.8608 0.2703 0.1992
C136 C 0.8989(5) 0.3710(5) 0.1910(4)
H112 H 0.9001 0.3774 0.2083
H113 H 0.8932 0.3889 0.1808
H114 H 0.9191 0.3631 0.1856
C137 C 0.8026(4) 0.2550(4) 0.1940(3)
H115 H 0.8108 0.2581 0.2101
C138 C 0.7818(4) 0.2274(4) 0.1866(3)
C139 C 0.7556(4) 0.2055(4) 0.1546(3)
H116 H 0.7483 0.2053 0.1381
C140 C 0.7465(4) 0.1823(4) 0.1707(3)
C141 C 0.7538(4) 0.1811(4) 0.1951(3)
H117 H 0.7460 0.1655 0.2059
C142 C 0.7738(5) 0.2050(5) 0.2030(4)
H118 H 0.7815 0.2053 0.2195
C143 C 0.7273(4) 0.1555(4) 0.1598(3)
C144 C 0.7014(4) 0.1617(4) 0.1453(3)
H119 H 0.6967 0.1825 0.1410
C145 C 0.6919(3) 0.1083(4) 0.1411(3)
C146 C 0.7156(4) 0.1006(4) 0.1567(3)
H120 H 0.7192 0.0796 0.1609
C147 C 0.7353(5) 0.1251(4) 0.1670(3)
H121 H 0.7522 0.1208 0.1777
C148 C 0.6712(4) 0.0870(4) 0.1299(3)
H122 H 0.6743 0.0653 0.1316
C149 C 0.6277(3) 0.0759(3) 0.1054(3)
C150 C 0.6191(4) 0.0792(4) 0.0828(3)
H123 H 0.6286 0.0949 0.0731
C151 C 0.5951(4) 0.0593(4) 0.0715(3)
H124 H 0.5891 0.0608 0.0546
C152 C 0.5828(4) 0.0394(4) 0.0868(3)
C153 C 0.5894(5) 0.0347(5) 0.1094(4)
H125 H 0.5790 0.0193 0.1188
C154 C 0.6144(4) 0.0545(4) 0.1203(3)
H126 H 0.6206 0.0521 0.1370
C155 C 0.5539(4) 0.0177(4) 0.0757(3)
H127 H 0.5549 -0.0030 0.0831
H128 H 0.5559 0.0160 0.0577
H129 H 0.5340 0.0273 0.0798
C156 C 0.7399(4) 0.2957(4) 0.1633(3)
C157 C 0.7419(4) 0.3275(4) 0.1668(3)
H130 H 0.7520 0.3401 0.1549
C158 C 0.7291(4) 0.3410(3) 0.1878(3)
H131 H 0.7305 0.3628 0.1902
C159 C 0.7144(5) 0.3226(4) 0.2053(3)
C160 C 0.7124(5) 0.2908(4) 0.2018(4)
H132 H 0.7023 0.2782 0.2138
C161 C 0.7251(5) 0.2773(3) 0.1808(4)
H133 H 0.7237 0.2555 0.1784
C162 C 0.7014(9) 0.3376(7) 0.2291(4)
H134 H 0.6805 0.3455 0.2260
H135 H 0.7149 0.3547 0.2342
H136 H 0.7006 0.3220 0.2423
C163 C 0.7377(4) 0.2764(4) 0.1244(3)
H137 H 0.7169 0.2835 0.1238
C164 C 0.7517(4) 0.2588(4) 0.1040(4)
C165 C 0.7942(4) 0.2294(3) 0.0933(3)
H138 H 0.8141 0.2212 0.0971
C166 C 0.7823(3) 0.2216(3) 0.0702(3)
C167 C 0.7531(4) 0.2337(4) 0.0642(3)
H139 H 0.7434 0.2290 0.0489
C168 C 0.7393(4) 0.2524(4) 0.0812(3)
H140 H 0.7200 0.2616 0.0771
C169 C 0.7988(3) 0.2025(3) 0.0535(3)
C170 C 0.8265(3) 0.1837(3) 0.0608(3)
H141 H 0.8323 0.1848 0.0777
C171 C 0.8338(4) 0.1611(4) 0.0222(3)
C172 C 0.8085(4) 0.1793(4) 0.0140(3)
H142 H 0.8028 0.1784 -0.0029
C173 C 0.7919(4) 0.1980(4) 0.0292(3)
H143 H 0.7745 0.2086 0.0226
C174 C 0.8498(4) 0.1427(4) 0.0096(3)
H144 H 0.8451 0.1389 -0.0073
C175 C 0.8915(6) 0.1069(5) 0.0071(4)
C176 C 0.9223(6) 0.1136(4) 0.0020(4)
H145 H 0.9313 0.1323 0.0079
C177 C 0.9401(4) 0.0930(4) -0.0117(4)
H146 H 0.9612 0.0976 -0.0152
C178 C 0.9270(4) 0.0656(4) -0.0204(3)
C179 C 0.8961(4) 0.0589(4) -0.0153(4)
H147 H 0.8872 0.0402 -0.0212
C180 C 0.8784(4) 0.0795(6) -0.0016(4)
H148 H 0.8573 0.0749 0.0019
C181 C 0.9466(6) 0.0426(6) -0.0356(5)
H149 H 0.9679 0.0438 -0.0305
H150 H 0.9450 0.0482 -0.0527
H151 H 0.9391 0.0218 -0.0333
C182 C 0.6375(3) 0.1232(3) 0.1767(3)
C183 C 0.6528(3) 0.1456(4) 0.1887(3)
H152 H 0.6517 0.1663 0.1828
C184 C 0.6705(4) 0.1391(4) 0.2096(3)
H153 H 0.6824 0.1551 0.2170
C185 C 0.6709(4) 0.1094(4) 0.2199(3)
C186 C 0.6521(4) 0.0880(4) 0.2077(3)
H154 H 0.6503 0.0679 0.2148
C187 C 0.6358(4) 0.0935(4) 0.1860(3)
H155 H 0.6242 0.0777 0.1780
C188 C 0.6883(5) 0.1023(5) 0.2421(3)
H156 H 0.6917 0.1213 0.2516
H157 H 0.7084 0.0933 0.2376
H158 H 0.6767 0.0874 0.2522
C189 C 0.5935(4) 0.1196(4) 0.1521(3)
H159 H 0.5826 0.1102 0.1654
C190 C 0.5797(4) 0.1240(4) 0.1267(3)
C191 C 0.5874(3) 0.1444(3) 0.0887(3)
H160 H 0.6001 0.1560 0.0777
C192 C 0.5586(4) 0.1340(4) 0.0807(3)
C193 C 0.5380(4) 0.1179(3) 0.0987(3)
H161 H 0.5180 0.1105 0.0944
C194 C 0.5497(4) 0.1148(3) 0.1210(3)
H162 H 0.5372 0.1060 0.1337
C195 C 0.5472(4) 0.1363(4) 0.0552(3)
C196 C 0.5470(3) 0.1655(3) 0.0439(3)
H163 H 0.5538 0.1831 0.0530
C197 C 0.5270(4) 0.1440(4) 0.0077(3)
C198 C 0.5275(4) 0.1138(4) 0.0183(3)
H164 H 0.5224 0.0959 0.0089
C199 C 0.5355(4) 0.1120(4) 0.0423(3)
H165 H 0.5329 0.0928 0.0505
C200 C 0.5210(3) 0.1512(4) -0.0188(3)
H166 H 0.5165 0.1352 -0.0303
C201 C 0.5136(3) 0.1859(3) -0.0498(3)
C202 C 0.5316(4) 0.2060(4) -0.0628(3)
H167 H 0.5501 0.2142 -0.0559
C203 C 0.5221(4) 0.2143(4) -0.0868(3)
H168 H 0.5347 0.2277 -0.0965
C204 C 0.4942(5) 0.2031(5) -0.0966(4)
C205 C 0.4783(4) 0.1831(4) -0.0837(3)
H169 H 0.4595 0.1758 -0.0908
C206 C 0.4864(5) 0.1713(5) -0.0600(3)
H170 H 0.4751 0.1555 -0.0517
C207 C 0.4838(5) 0.2127(5) -0.1232(3)
H171 H 0.4727 0.1955 -0.1310
H172 H 0.5021 0.2179 -0.1331
H173 H 0.4701 0.2308 -0.1222
C208 C 0.6242(4) 0.2018(4) 0.1484(3)
C209 C 0.6419(4) 0.2219(4) 0.1627(3)
H174 H 0.6623 0.2264 0.1572
C210 C 0.6321(4) 0.2353(4) 0.1837(3)
H175 H 0.6448 0.2497 0.1923
C211 C 0.6006(4) 0.2269(4) 0.1932(3)
C212 C 0.5833(4) 0.2103(4) 0.1776(3)
H176 H 0.5620 0.2077 0.1814
C213 C 0.5938(4) 0.1968(4) 0.1569(3)
H177 H 0.5804 0.1837 0.1478
C214 C 0.5905(5) 0.2412(5) 0.2173(4)
H178 H 0.5723 0.2543 0.2144
H179 H 0.6074 0.2537 0.2240
H180 H 0.5851 0.2247 0.2290
C215 C 0.6445(3) 0.2052(3) 0.1092(2)
H181 H 0.6415 0.2270 0.1095
C216 C 0.6581(4) 0.1894(4) 0.0878(3)
C217 C 0.6738(3) 0.1427(4) 0.0742(3)
H182 H 0.6752 0.1210 0.0765
C218 C 0.6868(3) 0.1533(3) 0.0533(3)
C219 C 0.6829(3) 0.1862(3) 0.0495(2)
H183 H 0.6895 0.1959 0.0347
C220 C 0.6703(3) 0.2019(4) 0.0670(3)
H184 H 0.6694 0.2237 0.0652
C221 C 0.7050(3) 0.1366(3) 0.0356(3)
C222 C 0.7015(3) 0.1022(3) 0.0349(3)
H185 H 0.6871 0.0928 0.0458
C223 C 0.7328(3) 0.0974(3) 0.0014(3)
C224 C 0.7356(3) 0.1302(3) -0.0002(3)
H186 H 0.7478 0.1392 -0.0129
C225 C 0.7212(3) 0.1488(4) 0.0164(3)
H187 H 0.7224 0.1707 0.0145
C226 C 0.7466(4) 0.0764(4) -0.0155(3)
H188 H 0.7594 0.0828 -0.0288
C227 C 0.7539(4) 0.0235(4) -0.0281(3)
C228 C 0.7822(5) 0.0092(5) -0.0197(4)
H189 H 0.7921 0.0155 -0.0048
C229 C 0.7949(4) -0.0155(4) -0.0352(3)
H190 H 0.8114 -0.0282 -0.0295
C230 C 0.7823(4) -0.0199(4) -0.0581(3)
C231 C 0.7557(4) -0.0042(4) -0.0651(3)
H191 H 0.7470 -0.0080 -0.0810
C232 C 0.7418(4) 0.0163(4) -0.0499(3)
H192 H 0.7229 0.0258 -0.0549
C233 C 0.7980(6) -0.0442(5) -0.0759(4)
H193 H 0.8024 -0.0344 -0.0918
H194 H 0.7839 -0.0618 -0.0783
H195 H 0.8174 -0.0515 -0.0685
C234 C 0.5106(4) 0.2525(4) 0.0464(3)
C235 C 0.4945(4) 0.2783(4) 0.0364(4)
H196 H 0.4972 0.2857 0.0200
C236 C 0.4748(4) 0.2911(4) 0.0532(3)
H197 H 0.4635 0.3087 0.0477
C237 C 0.4697(5) 0.2823(5) 0.0753(4)
C238 C 0.4852(5) 0.2555(5) 0.0849(4)
H198 H 0.4811 0.2477 0.1010
C239 C 0.5069(4) 0.2414(4) 0.0692(3)
H199 H 0.5188 0.2242 0.0748
C240 C 0.4463(5) 0.2971(5) 0.0945(4)
H200 H 0.4576 0.3112 0.1055
H201 H 0.4365 0.2807 0.1042
H202 H 0.4303 0.3088 0.0856
C241 C 0.5617(4) 0.2472(4) 0.0321(3)
H203 H 0.5670 0.2626 0.0438
C242 C 0.5842(3) 0.2343(3) 0.0156(2)
C243 C 0.5910(3) 0.2004(3) -0.0145(3)
H204 H 0.5819 0.1846 -0.0244
C244 C 0.6237(3) 0.2041(3) -0.0173(2)
C245 C 0.6356(4) 0.2234(3) -0.0002(3)
H205 H 0.6575 0.2256 0.0006
C246 C 0.6174(4) 0.2402(4) 0.0162(3)
H206 H 0.6262 0.2548 0.0273
C247 C 0.6421(3) 0.1876(3) -0.0346(3)
C248 C 0.6302(4) 0.1707(3) -0.0545(3)
H207 H 0.6083 0.1693 -0.0553
C249 C 0.6791(3) 0.1580(3) -0.0698(3)
C250 C 0.6922(4) 0.1720(3) -0.0506(3)
H208 H 0.7142 0.1718 -0.0494
C251 C 0.6749(3) 0.1873(3) -0.0318(3)
H209 H 0.6847 0.1968 -0.0180
C252 C 0.6937(4) 0.1455(3) -0.0908(3)
H210 H 0.7156 0.1455 -0.0924
C253 C 0.6908(4) 0.1219(4) -0.1287(3)
C254 C 0.7078(3) 0.1396(4) -0.1427(3)
H211 H 0.7113 0.1605 -0.1379
C255 C 0.7214(4) 0.1285(4) -0.1652(3)
H212 H 0.7336 0.1421 -0.1750
C256 C 0.7174(4) 0.1018(4) -0.1720(3)
C257 C 0.7008(5) 0.0815(5) -0.1580(4)
H213 H 0.6991 0.0605 -0.1630
C258 C 0.6863(4) 0.0912(4) -0.1367(3)
H214 H 0.6736 0.0774 -0.1275
C259 C 0.7316(5) 0.0894(5) -0.1960(3)
H215 H 0.7265 0.1034 -0.2097
H216 H 0.7232 0.0687 -0.1995
H217 H 0.7542 0.0880 -0.1943
C260 C 0.6775(4) 0.3327(4) -0.1471(3)
C261 C 0.6539(4) 0.3144(4) -0.1369(3)
H218 H 0.6588 0.3007 -0.1237
C262 C 0.6225(5) 0.3158(5) -0.1457(4)
H219 H 0.6058 0.3063 -0.1370
C263 C 0.6184(5) 0.3312(5) -0.1667(4)
C264 C 0.6402(5) 0.3505(5) -0.1769(3)
H220 H 0.6347 0.3639 -0.1902
C265 C 0.6685(5) 0.3505(5) -0.1683(3)
H221 H 0.6837 0.3628 -0.1765
C266 C 0.5836(5) 0.3344(6) -0.1778(4)
H222 H 0.5822 0.3534 -0.1876
H223 H 0.5686 0.3353 -0.1642
H224 H 0.5790 0.3165 -0.1883
C267 C 0.7252(4) 0.3553(4) -0.1364(3)
H225 H 0.7160 0.3750 -0.1394
C268 C 0.7567(4) 0.3533(4) -0.1288(3)
C269 C 0.7938(4) 0.3158(4) -0.1169(3)
H226 H 0.8004 0.2953 -0.1133
C270 C 0.8140(4) 0.3421(4) -0.1134(3)
C271 C 0.8048(4) 0.3729(4) -0.1171(3)
H227 H 0.8186 0.3898 -0.1146
C272 C 0.7746(4) 0.3776(5) -0.1245(3)
H228 H 0.7667 0.3980 -0.1265
C273 C 0.8462(4) 0.3346(4) -0.1026(3)
C274 C 0.8499(4) 0.3183(3) -0.0827(3)
H229 H 0.8320 0.3093 -0.0755
C275 C 0.9038(4) 0.3267(4) -0.0844(3)
C276 C 0.9011(4) 0.3424(4) -0.1049(3)
H230 H 0.9190 0.3507 -0.1127
C277 C 0.8714(5) 0.3473(5) -0.1154(4)
H231 H 0.8687 0.3585 -0.1304
C278 C 0.9334(4) 0.3213(4) -0.0714(3)
H232 H 0.9528 0.3279 -0.0780
C279 C 0.9587(4) 0.3051(4) -0.0353(3)
C280 C 0.9737(4) 0.3324(5) -0.0308(3)
H233 H 0.9691 0.3510 -0.0396
C281 C 0.9970(4) 0.3309(5) -0.0119(3)
H234 H 1.0065 0.3497 -0.0067
C282 C 1.0055(5) 0.3055(5) -0.0018(4)
C283 C 0.9940(4) 0.2779(5) -0.0094(3)
H235 H 1.0025 0.2588 -0.0039
C284 C 0.9696(4) 0.2791(5) -0.0253(3)
H236 H 0.9597 0.2601 -0.0296
C285 C 1.0306(6) 0.3043(6) 0.0196(5)
H237 H 1.0430 0.3228 0.0190
H238 H 1.0436 0.2865 0.0173
H239 H 1.0205 0.3030 0.0353
C286 C 0.7667(4) 0.3240(4) -0.1819(3)
C287 C 0.7981(4) 0.3206(4) -0.1769(3)
H240 H 0.8054 0.3026 -0.1687
C288 C 0.8169(7) 0.3416(6) -0.1832(4)
H241 H 0.8381 0.3380 -0.1795
C289 C 0.8095(5) 0.3713(5) -0.1958(4)
C290 C 0.7774(5) 0.3724(6) -0.2035(4)
H242 H 0.7713 0.3883 -0.2146
C291 C 0.7553(5) 0.3517(5) -0.1957(3)
H243 H 0.7339 0.3549 -0.1990
C292 C 0.8335(8) 0.3969(8) -0.2000(6)
H244 H 0.8303 0.4057 -0.2161
H245 H 0.8539 0.3881 -0.1991
H246 H 0.8313 0.4127 -0.1877
C293 C 0.7224(4) 0.2925(4) -0.1891(4)
H247 H 0.7235 0.2982 -0.2060
C294 C 0.6987(4) 0.2730(4) -0.1803(3)
C295 C 0.6801(4) 0.2505(4) -0.1432(3)
H248 H 0.6812 0.2484 -0.1258
C296 C 0.6556(4) 0.2352(4) -0.1562(3)
C297 C 0.6552(5) 0.2401(5) -0.1801(4)
H249 H 0.6403 0.2296 -0.1899
C298 C 0.6763(4) 0.2606(4) -0.1920(4)
H250 H 0.6736 0.2652 -0.2090
C299 C 0.6335(4) 0.2176(4) -0.1425(3)
C300 C 0.6426(4) 0.1927(4) -0.1279(3)
H251 H 0.6641 0.1894 -0.1252
C301 C 0.5900(4) 0.1810(4) -0.1195(3)
C302 C 0.5815(5) 0.2036(4) -0.1336(3)
H252 H 0.5600 0.2074 -0.1355
C303 C 0.6016(4) 0.2220(4) -0.1458(3)
H253 H 0.5942 0.2378 -0.1565
C304 C 0.5727(4) 0.1608(4) -0.1067(3)
H254 H 0.5508 0.1623 -0.1076
C305 C 0.5653(4) 0.1165(4) -0.0787(3)
C306 C 0.5728(4) 0.1091(4) -0.0563(3)
H255 H 0.5902 0.1182 -0.0484
C307 C 0.5540(4) 0.0869(4) -0.0440(3)
H256 H 0.5585 0.0806 -0.0276
C308 C 0.5294(4) 0.0749(4) -0.0564(4)
C309 C 0.5219(5) 0.0829(5) -0.0775(4)
H257 H 0.5029 0.0756 -0.0841
C310 C 0.5403(5) 0.1025(5) -0.0920(4)
H258 H 0.5365 0.1061 -0.1091
C311 C 0.5093(6) 0.0528(6) -0.0404(4)
H259 H 0.5006 0.0643 -0.0264
H260 H 0.5223 0.0358 -0.0342
H261 H 0.4925 0.0443 -0.0504
C312 C 0.8821(4) 0.3687(4) -0.0346(3)
C313 C 0.8538(4) 0.3720(4) -0.0451(3)
H262 H 0.8390 0.3558 -0.0438
C314 C 0.8463(4) 0.3987(4) -0.0573(3)
H263 H 0.8266 0.4010 -0.0650
C315 C 0.8690(5) 0.4233(5) -0.0584(3)
C316 C 0.8961(5) 0.4188(5) -0.0471(3)
H264 H 0.9100 0.4359 -0.0465
C317 C 0.9055(4) 0.3919(4) -0.0366(3)
H265 H 0.9260 0.3888 -0.0309
C318 C 0.8595(5) 0.4546(5) -0.0726(4)
H266 H 0.8388 0.4612 -0.0672
H267 H 0.8592 0.4508 -0.0904
H268 H 0.8745 0.4709 -0.0688
C319 C 0.9041(4) 0.3410(4) -0.0024(3)
H269 H 0.9069 0.3598 0.0064
C320 C 0.9139(4) 0.3103(4) 0.0072(3)
C321 C 0.9092(4) 0.2567(4) 0.0036(3)
H270 H 0.9014 0.2392 -0.0049
C322 C 0.9251(4) 0.2520(4) 0.0262(3)
C323 C 0.9354(4) 0.2773(4) 0.0390(3)
H271 H 0.9456 0.2749 0.0544
C324 C 0.9305(4) 0.3070(4) 0.0290(3)
H272 H 0.9387 0.3247 0.0371
C325 C 0.9318(4) 0.2220(4) 0.0337(3)
C326 C 0.9064(4) 0.1995(4) 0.0360(3)
H273 H 0.8863 0.2056 0.0307
C327 C 0.9404(4) 0.1630(4) 0.0508(3)
C328 C 0.9653(4) 0.1824(4) 0.0504(3)
H274 H 0.9854 0.1758 0.0554
C329 C 0.9600(4) 0.2102(4) 0.0428(3)
H275 H 0.9769 0.2243 0.0434
C330 C 0.9433(4) 0.1319(4) 0.0602(3)
H276 H 0.9627 0.1234 0.0651
C331 C 0.9180(3) 0.0857(2) 0.0723(2)
C332 C 0.9013(3) 0.0616(3) 0.0616(2)
H277 H 0.8904 0.0649 0.0466
C333 C 0.9005(3) 0.0327(2) 0.0729(2)
H278 H 0.8891 0.0163 0.0656
C334 C 0.9164(3) 0.0279(2) 0.0949(2)
C335 C 0.9331(3) 0.0520(3) 0.10562(19)
H279 H 0.9439 0.0487 0.1207
C336 C 0.9338(3) 0.0809(2) 0.0943(2)
H280 H 0.9452 0.0973 0.1016
C337 C 0.9200(5) -0.0061(3) 0.1055(3)
H281 H 0.8997 -0.0139 0.1106
H282 H 0.9340 -0.0058 0.1197
H283 H 0.9286 -0.0196 0.0926
C338 C 0.9028(4) 0.1791(4) 0.0993(3)
C339 C 0.8972(4) 0.2105(4) 0.0919(3)
H284 H 0.8796 0.2160 0.0824
C340 C 0.9185(4) 0.2319(4) 0.0991(3)
H285 H 0.9142 0.2532 0.0959
C341 C 0.9455(5) 0.2246(5) 0.1107(3)
C342 C 0.9522(7) 0.1959(7) 0.1178(5)
H286 H 0.9715 0.1908 0.1251
C343 C 0.9287(5) 0.1733(5) 0.1138(4)
H287 H 0.9308 0.1535 0.1213
C344 C 0.9698(6) 0.2506(6) 0.1138(4)
H288 H 0.9713 0.2564 0.1312
H289 H 0.9636 0.2687 0.1040
H290 H 0.9900 0.2431 0.1080
C345 C 0.8739(4) 0.1364(4) 0.1053(4)
H291 H 0.8783 0.1386 0.1224
C346 C 0.8551(4) 0.1100(4) 0.0961(3)
C347 C 0.8325(3) 0.0903(4) 0.0601(3)
H292 H 0.8284 0.0921 0.0429
C348 C 0.8196(4) 0.0677(4) 0.0741(3)
C349 C 0.8211(5) 0.0653(5) 0.0989(4)
H293 H 0.8100 0.0503 0.1082
C350 C 0.8406(5) 0.0873(5) 0.1094(4)
H294 H 0.8439 0.0866 0.1267
C351 C 0.7984(5) 0.0441(5) 0.0612(4)
C352 C 0.7737(4) 0.0519(4) 0.0473(3)
H295 H 0.7700 0.0732 0.0444
C353 C 0.7605(4) 0.0000(4) 0.0412(3)
C354 C 0.7810(5) -0.0092(5) 0.0567(4)
H296 H 0.7807 -0.0301 0.0622
C355 C 0.8045(5) 0.0115(5) 0.0659(4)
H297 H 0.8224 0.0044 0.0743
C356 C 0.7365(4) -0.0193(5) 0.0302(3)
H298 H 0.7360 -0.0409 0.0337
C357 C 0.6919(4) -0.0273(4) 0.0068(3)
C358 C 0.6838(4) -0.0265(4) -0.0157(3)
H299 H 0.6949 -0.0131 -0.0265
C359 C 0.6594(4) -0.0439(4) -0.0257(4)
H300 H 0.6533 -0.0419 -0.0425
C360 C 0.6459(5) -0.0626(5) -0.0111(4)
C361 C 0.6547(4) -0.0669(4) 0.0134(3)
H301 H 0.6447 -0.0818 0.0235
C362 C 0.6805(4) -0.0473(4) 0.0232(3)
H302 H 0.6880 -0.0489 0.0396
C363 C 0.6203(6) -0.0841(6) -0.0166(4)
H303 H 0.6011 -0.0762 -0.0093
H304 H 0.6250 -0.1045 -0.0096
H305 H 0.6178 -0.0860 -0.0345
C364 C 0.7002(3) 0.0286(3) 0.0730(3)
C365 C 0.6920(4) 0.0008(4) 0.0878(3)
H306 H 0.6791 -0.0145 0.0806
C366 C 0.7016(4) -0.0032(4) 0.1101(3)
H307 H 0.6944 -0.0204 0.1194
C367 C 0.7226(4) 0.0176(4) 0.1208(3)
C368 C 0.7305(4) 0.0452(4) 0.1075(3)
H308 H 0.7434 0.0605 0.1147
C369 C 0.7189(3) 0.0492(4) 0.0838(3)
H309 H 0.7244 0.0673 0.0749
C370 C 0.7331(5) 0.0132(5) 0.1476(3)
H310 H 0.7312 -0.0087 0.1522
H311 H 0.7202 0.0258 0.1586
H312 H 0.7548 0.0197 0.1493
C371 C 0.6620(4) 0.0269(4) 0.0432(3)
H313 H 0.6478 0.0196 0.0553
C372 C 0.6525(3) 0.0315(3) 0.0182(3)
C373 C 0.6680(4) 0.0502(4) -0.0205(3)
H314 H 0.6835 0.0590 -0.0308
C374 C 0.6366(4) 0.0446(4) -0.0292(3)
C375 C 0.6171(5) 0.0307(4) -0.0151(3)
H315 H 0.5980 0.0236 -0.0218
C376 C 0.6236(4) 0.0257(3) 0.0103(3)
H316 H 0.6081 0.0185 0.0213
C377 C 0.6334(3) 0.0532(3) -0.0560(3)
C378 C 0.6389(4) 0.0827(4) -0.0639(3)
H317 H 0.6485 0.0973 -0.0532
C379 C 0.6167(4) 0.0699(4) -0.1026(3)
C380 C 0.6102(3) 0.0424(4) -0.0951(3)
H318 H 0.5998 0.0286 -0.1060
C381 C 0.6176(3) 0.0324(3) -0.0721(2)
H319 H 0.6124 0.0121 -0.0668
C382 C 0.6109(4) 0.0846(4) -0.1263(3)
H320 H 0.6022 0.0727 -0.1393
C383 C 0.6083(4) 0.1244(4) -0.1535(3)
C384 C 0.6289(4) 0.1371(4) -0.1676(3)
H321 H 0.6502 0.1344 -0.1639
C385 C 0.6202(5) 0.1551(5) -0.1885(4)
H322 H 0.6351 0.1680 -0.1965
C386 C 0.5882(5) 0.1537(5) -0.1980(4)
C387 C 0.5676(4) 0.1404(4) -0.1802(3)
H323 H 0.5460 0.1424 -0.1831
C388 C 0.5758(4) 0.1263(4) -0.1610(3)
H324 H 0.5604 0.1166 -0.1511
C389 C 0.5801(5) 0.1694(5) -0.2209(4)
H325 H 0.5961 0.1847 -0.2249
H326 H 0.5601 0.1799 -0.2190
H327 H 0.5787 0.1542 -0.2343
N1 N 0.5833(3) 0.4032(3) -0.0558(2)
N2 N 0.6381(4) 0.4042(4) -0.0396(3)
N3 N 0.7590(3) 0.4141(3) 0.0050(2)
N4 N 0.8145(2) 0.4106(3) 0.0177(2)
N5 N 0.6234(3) 0.3719(3) -0.0834(3)
N6 N 0.5834(3) 0.3388(3) -0.0614(2)
N7 N 0.5134(3) 0.2436(3) -0.0176(2)
N8 N 0.4813(3) 0.2033(3) 0.0066(2)
N9 N 0.6002(3) 0.3617(3) -0.0135(2)
N10 N 0.6420(3) 0.3371(3) -0.0400(2)
N11 N 0.7249(3) 0.2806(3) -0.1044(2)
N12 N 0.7587(3) 0.2553(3) -0.1373(2)
N13 N 0.7819(3) 0.4485(3) 0.0455(2)
N14 N 0.7974(3) 0.3979(3) 0.0679(2)
N15 N 0.8218(3) 0.2904(3) 0.1269(2)
N16 N 0.8340(3) 0.2373(3) 0.1430(2)
N17 N 0.7356(3) 0.3970(3) 0.0553(2)
N18 N 0.7689(3) 0.3603(3) 0.0294(2)
N19 N 0.8467(3) 0.2866(3) -0.0285(2)
N20 N 0.8879(3) 0.2548(3) -0.0523(3)
N21 N 0.8071(3) 0.2728(3) 0.1762(2)
N22 N 0.7744(3) 0.2280(3) 0.1621(2)
N23 N 0.6827(3) 0.1384(3) 0.1373(2)
N24 N 0.6477(3) 0.0977(3) 0.1174(2)
N25 N 0.7549(3) 0.2813(3) 0.1427(2)
N26 N 0.7815(3) 0.2466(3) 0.1100(2)
N27 N 0.8431(3) 0.1664(3) 0.0471(2)
N28 N 0.8743(3) 0.1283(3) 0.0209(2)
N29 N 0.6219(2) 0.1299(2) 0.15397(19)
N30 N 0.5970(3) 0.1384(3) 0.1105(2)
N31 N 0.5371(3) 0.1691(3) 0.0197(2)
N32 N 0.5222(3) 0.1794(3) -0.0255(2)
N33 N 0.6368(2) 0.1880(2) 0.12778(19)
N34 N 0.6598(3) 0.1573(3) 0.0914(2)
N35 N 0.7178(2) 0.0840(2) 0.01949(19)
N36 N 0.7398(2) 0.0463(2) -0.01076(18)
N37 N 0.5337(3) 0.2367(3) 0.0302(2)
N38 N 0.5721(2) 0.2152(2) -0.00072(19)
N39 N 0.6448(3) 0.1574(3) -0.0712(2)
N40 N 0.6757(3) 0.1339(3) -0.1080(2)
N41 N 0.7089(3) 0.3298(3) -0.1393(2)
N42 N 0.7649(3) 0.3214(3) -0.1257(2)
N43 N 0.8779(3) 0.3132(3) -0.0711(2)
N44 N 0.9312(3) 0.3069(3) -0.0503(3)
N45 N 0.7424(3) 0.3022(3) -0.1732(3)
N46 N 0.7009(3) 0.2675(3) -0.1544(2)
N47 N 0.6232(3) 0.1738(3) -0.1179(2)
N48 N 0.5854(3) 0.1388(3) -0.0928(2)
N49 N 0.8911(3) 0.3395(3) -0.0241(2)
N50 N 0.9047(3) 0.2852(3) -0.0065(2)
N51 N 0.9100(3) 0.1714(3) 0.0450(2)
N52 N 0.9170(3) 0.1158(2) 0.0617(2)
N53 N 0.8837(3) 0.1555(3) 0.0904(2)
N54 N 0.8517(3) 0.1105(3) 0.0723(2)
N55 N 0.7543(3) 0.0314(3) 0.0374(2)
N56 N 0.7168(3) -0.0078(2) 0.01641(19)
N57 N 0.6897(3) 0.0328(3) 0.0487(2)
N58 N 0.6739(3) 0.0418(3) 0.0039(2)
N59 N 0.6310(3) 0.0909(3) -0.0863(2)
N60 N 0.6168(3) 0.1113(3) -0.1299(2)
Fe1 Fe 0.61135(6) 0.36886(6) -0.04846(5)
Fe2 Fe 0.77476(6) 0.40417(5) 0.03714(5)
Fe3 Fe 0.79460(5) 0.26015(5) 0.14291(5)
Fe4 Fe 0.64149(5) 0.14257(5) 0.12256(4)
Fe5 Fe 0.52749(5) 0.20827(5) 0.00295(5)
Fe6 Fe 0.73395(5) 0.29243(6) -0.13819(5)
Fe7 Fe 0.88906(5) 0.29686(6) -0.03875(5)
Fe8 Fe 0.87951(5) 0.14126(5) 0.05522(5)
Fe9 Fe 0.71559(5) 0.03894(5) 0.01883(5)
Fe10 Fe 0.63043(5) 0.13478(5) -0.10066(4)
C390 C 0.8268(2) 0.1913(2) -0.21999(16)
H328 H 0.8238 0.2018 -0.2358
H329 H 0.8219 0.1693 -0.2218
H330 H 0.8484 0.1936 -0.2147
C391 C 0.5778(4) 0.2352(4) 0.0956(4)
C392 C 0.5714(4) 0.2590(4) 0.1150(3)
H331 H 0.5785 0.2793 0.1092
H332 H 0.5824 0.2535 0.1302
H333 H 0.5491 0.2599 0.1182
N61 N 0.5841(3) 0.2203(4) 0.0807(3)
C393 C 0.6447(8) 0.3839(9) 0.0401(6)
C394 C 0.6199(6) 0.3905(6) 0.0592(5)
H334 H 0.6097 0.3710 0.0639
H335 H 0.6044 0.4047 0.0523
H336 H 0.6294 0.3999 0.0738
N62 N 0.6653(7) 0.3762(7) 0.0268(5)
O1 O 0.6234(4) 0.1486(4) 0.0278(3)
O2 O 0.6478(3) 0.1216(3) -0.0072(2)
O3 O 0.5945(4) 0.1218(4) -0.0023(3)
O4 O 0.6262(4) 0.0966(4) 0.0263(3)
Cl1 Cl 0.62221(10) 0.12207(9) 0.01061(8)
O5 O 0.7398(4) 0.1159(4) 0.1009(3)
O6 O 0.7886(5) 0.1461(5) 0.1037(3)
O7 O 0.7407(3) 0.1687(3) 0.0970(2)
O8 O 0.7657(3) 0.1346(3) 0.0667(3)
Cl2 Cl 0.76040(10) 0.14079(11) 0.09266(10)
O9 O 0.8114(3) 0.2900(3) 0.0592(2)
O10 O 0.8407(3) 0.2561(3) 0.0336(3)
O11 O 0.8593(3) 0.3066(3) 0.0450(2)
O12 O 0.8555(3) 0.2656(3) 0.0733(2)
Cl3 Cl 0.84206(9) 0.27953(10) 0.05249(9)
O13 O 0.7351(4) 0.3462(4) -0.0331(3)
O14 O 0.7808(3) 0.3676(3) -0.0433(2)
O15 O 0.7415(3) 0.3599(3) -0.0731(3)
O16 O 0.7701(3) 0.3184(3) -0.0585(2)
Cl4 Cl 0.75755(11) 0.34898(10) -0.05211(10)
O17 O 0.6485(3) 0.2384(3) -0.0784(2)
O18 O 0.6142(3) 0.2640(3) -0.0499(2)
O19 O 0.5942(3) 0.2310(3) -0.0806(2)
O20 O 0.6185(3) 0.2804(3) -0.0929(2)
Cl5 Cl 0.61868(10) 0.25368(9) -0.07528(9)
O21 O 0.7428(6) -0.0625(6) 0.0781(4)
O22 O 0.7202(5) -0.1032(5) 0.0585(4)
O23 O 0.7222(5) -0.1074(5) 0.1054(4)
O24 O 0.6839(4) -0.0727(4) 0.0865(3)
Cl6 Cl 0.71865(17) -0.08508(18) 0.08491(13)
O25 O 0.6689(7) 0.3296(5) 0.0731(5)
O26 O 0.6228(6) 0.3060(7) 0.0660(5)
O27 O 0.6672(4) 0.2822(3) 0.0545(3)
O28 O 0.6558(6) 0.2872(5) 0.0953(4)
Cl7 Cl 0.6499(2) 0.2991(2) 0.07430(16)
O29 O 0.3882(5) -0.0334(5) 0.0803(4)
O30 O 0.3776(5) -0.0333(5) 0.1254(4)
O31 O 0.3565(5) 0.0011(5) 0.1004(4)
O32 O 0.4082(3) 0.0080(3) 0.1046(3)
Cl8 Cl 0.38245(18) -0.01444(18) 0.10184(14)
O33 O 0.9892(4) 0.5603(4) 0.0913(3)
O34 O 0.9338(7) 0.5558(7) 0.0797(5)
O35 O 0.9705(5) 0.5163(6) 0.0687(4)
O36 O 0.9811(7) 0.5623(7) 0.0448(5)
Cl9 Cl 0.96645(16) 0.55356(15) 0.06968(12)
O37 O 1.0137(3) -0.3372(3) 0.1334(2)
O38 O 0.9840(3) -0.3319(3) 0.0960(2)
O39 O 0.9750(5) -0.3033(5) 0.1319(4)
O40 O 1.0240(5) -0.3040(5) 0.1000(4)
Cl10 Cl 0.99896(12) -0.31640(12) 0.11521(9)
O41 O 0.7775(6) 0.1748(5) -0.0437(4)
O42 O 0.7860(6) 0.1673(6) -0.0831(4)
O43 O 0.7711(6) 0.1291(5) -0.0595(5)
O44 O 0.8178(5) 0.1475(6) -0.0552(4)
Cl11 Cl 0.7894(2) 0.1552(2) -0.06105(16)
O45 O 0.1699(4) 0.1742(4) 0.0237(3)
O46 O 0.1760(8) 0.2208(8) 0.0016(6)
Cl12 Cl 0.18451(18) 0.18451(18) 0.0000
O45F O 0.1742(4) 0.1699(4) -0.0237(3)
O46F O 0.2208(8) 0.1760(8) -0.0016(6)
Cl13 Cl 0.72069(16) 0.22862(15) 0.00545(14)
loop_
_geom_bond_atom_site_label_1
_geom_bond_atom_site_label_2
_geom_bond_site_symmetry_1
_geom_bond_site_symmetry_2
C1 C2 1_555 1_555
C2 H1 1_555 1_555
C3 C2 1_555 1_555
H2 C3 1_555 1_555
C4 C3 1_555 1_555
C5 C4 1_555 1_555
H3 C5 1_555 1_555
C6 C1 1_555 1_555
H4 C6 1_555 1_555
C7 C4 1_555 1_555
H5 C7 1_555 1_555
H6 C7 1_555 1_555
H7 C7 1_555 1_555
C8 H8 1_555 1_555
C9 C8 1_555 1_555
C10 H9 1_555 1_555
C11 C10 1_555 1_555
C12 C11 1_555 1_555
H10 C12 1_555 1_555
C13 C9 1_555 1_555
H11 C13 1_555 1_555
C14 C11 1_555 1_555
C15 C14 1_555 1_555
H12 C15 1_555 1_555
C16 C17 1_555 1_555
C17 H13 1_555 1_555
C18 C14 1_555 1_555
H14 C18 1_555 1_555
C19 C16 1_555 1_555
H15 C19 1_555 1_555
C20 C21 1_555 1_555
C21 H16 1_555 1_555
C22 C21 1_555 1_555
H17 C22 1_555 1_555
C23 C22 1_555 1_555
C24 C23 1_555 1_555
H18 C24 1_555 1_555
C25 C20 1_555 1_555
H19 C25 1_555 1_555
C26 C23 1_555 1_555
H20 C26 1_555 1_555
H21 C26 1_555 1_555
H22 C26 1_555 1_555
C27 C28 1_555 1_555
C28 H23 1_555 1_555
C29 C28 1_555 1_555
H24 C29 1_555 1_555
C30 C29 1_555 1_555
C31 C30 1_555 1_555
H25 C31 1_555 1_555
C32 C27 1_555 1_555
H26 C32 1_555 1_555
C33 C30 1_555 1_555
H27 C33 1_555 1_555
H28 C33 1_555 1_555
H29 C33 1_555 1_555
C34 H30 1_555 1_555
C35 C34 1_555 1_555
C36 H31 1_555 1_555
C37 C36 1_555 1_555
C38 C37 1_555 1_555
H32 C38 1_555 1_555
C39 C35 1_555 1_555
H33 C39 1_555 1_555
C40 C37 1_555 1_555
C41 C40 1_555 1_555
H34 C41 1_555 1_555
C42 C43 1_555 1_555
C43 H35 1_555 1_555
C44 C40 1_555 1_555
H36 C44 1_555 1_555
C45 C42 1_555 1_555
H37 C45 1_555 1_555
C46 C47 1_555 1_555
C47 H38 1_555 1_555
C48 C47 1_555 1_555
H39 C48 1_555 1_555
C49 C48 1_555 1_555
C50 C49 1_555 1_555
H40 C50 1_555 1_555
C51 C46 1_555 1_555
H41 C51 1_555 1_555
C52 C49 1_555 1_555
H42 C52 1_555 1_555
H43 C52 1_555 1_555
H44 C52 1_555 1_555
C53 C54 1_555 1_555
C54 H45 1_555 1_555
C55 C54 1_555 1_555
H46 C55 1_555 1_555
C56 C55 1_555 1_555
C57 C56 1_555 1_555
H47 C57 1_555 1_555
C58 C53 1_555 1_555
H48 C58 1_555 1_555
C59 C56 1_555 1_555
H49 C59 1_555 1_555
H50 C59 1_555 1_555
H51 C59 1_555 1_555
C60 H52 1_555 1_555
C61 C60 1_555 1_555
C62 H53 1_555 1_555
C63 C62 1_555 1_555
C64 C63 1_555 1_555
H54 C64 1_555 1_555
C65 C61 1_555 1_555
H55 C65 1_555 1_555
C66 C63 1_555 1_555
C67 C66 1_555 1_555
H56 C67 1_555 1_555
C68 C69 1_555 1_555
C69 H57 1_555 1_555
C70 C66 1_555 1_555
H58 C70 1_555 1_555
C71 C68 1_555 1_555
H59 C71 1_555 1_555
C72 C73 1_555 1_555
C73 H60 1_555 1_555
C74 C73 1_555 1_555
H61 C74 1_555 1_555
C75 C74 1_555 1_555
C76 C75 1_555 1_555
H62 C76 1_555 1_555
C77 C72 1_555 1_555
H63 C77 1_555 1_555
C78 C79 1_555 1_555
C79 H64 1_555 1_555
C80 C79 1_555 1_555
H65 C80 1_555 1_555
C81 C80 1_555 1_555
C82 C81 1_555 1_555
H66 C82 1_555 1_555
C83 C78 1_555 1_555
H67 C83 1_555 1_555
C84 C81 1_555 1_555
H68 C84 1_555 1_555
H69 C84 1_555 1_555
H70 C84 1_555 1_555
C85 H71 1_555 1_555
C86 C85 1_555 1_555
C87 H72 1_555 1_555
C88 C87 1_555 1_555
C89 C88 1_555 1_555
H73 C89 1_555 1_555
C90 C86 1_555 1_555
H74 C90 1_555 1_555
C91 C88 1_555 1_555
C92 C91 1_555 1_555
H75 C92 1_555 1_555
C93 C94 1_555 1_555
C94 H76 1_555 1_555
C95 C91 1_555 1_555
H77 C95 1_555 1_555
C96 C93 1_555 1_555
H78 C96 1_555 1_555
C97 C98 1_555 1_555
C98 H79 1_555 1_555
C99 C98 1_555 1_555
H80 C99 1_555 1_555
C100 C99 1_555 1_555
C101 C100 1_555 1_555
H81 C101 1_555 1_555
C102 C97 1_555 1_555
H82 C102 1_555 1_555
C103 C100 1_555 1_555
H83 C103 1_555 1_555
H84 C103 1_555 1_555
H85 C103 1_555 1_555
C104 C105 1_555 1_555
C105 H86 1_555 1_555
C106 C105 1_555 1_555
H87 C106 1_555 1_555
C107 C106 1_555 1_555
C108 C107 1_555 1_555
H88 C108 1_555 1_555
C109 C104 1_555 1_555
H89 C109 1_555 1_555
C110 C107 1_555 1_555
H90 C110 1_555 1_555
H91 C110 1_555 1_555
H92 C110 1_555 1_555
C111 H93 1_555 1_555
C112 C111 1_555 1_555
C113 H94 1_555 1_555
C114 C113 1_555 1_555
C115 C114 1_555 1_555
H95 C115 1_555 1_555
C116 C112 1_555 1_555
H96 C116 1_555 1_555
C117 C114 1_555 1_555
C118 C117 1_555 1_555
H97 C118 1_555 1_555
C119 C120 1_555 1_555
C120 H98 1_555 1_555
C121 C117 1_555 1_555
H99 C121 1_555 1_555
C122 C119 1_555 1_555
H100 C122 1_555 1_555
C123 C124 1_555 1_555
C124 H101 1_555 1_555
C125 C124 1_555 1_555
H102 C125 1_555 1_555
C126 C125 1_555 1_555
C127 C126 1_555 1_555
H103 C127 1_555 1_555
C128 C123 1_555 1_555
H104 C128 1_555 1_555
C129 C126 1_555 1_555
H105 C129 1_555 1_555
H106 C129 1_555 1_555
H107 C129 1_555 1_555
C130 C131 1_555 1_555
C131 H108 1_555 1_555
C132 C131 1_555 1_555
H109 C132 1_555 1_555
C133 C132 1_555 1_555
C134 C133 1_555 1_555
H110 C134 1_555 1_555
C135 C130 1_555 1_555
H111 C135 1_555 1_555
C136 C133 1_555 1_555
H112 C136 1_555 1_555
H113 C136 1_555 1_555
H114 C136 1_555 1_555
C137 H115 1_555 1_555
C138 C137 1_555 1_555
C139 H116 1_555 1_555
C140 C139 1_555 1_555
C141 C140 1_555 1_555
H117 C141 1_555 1_555
C142 C138 1_555 1_555
H118 C142 1_555 1_555
C143 C140 1_555 1_555
C144 C143 1_555 1_555
H119 C144 1_555 1_555
C145 C146 1_555 1_555
C146 H120 1_555 1_555
C147 C143 1_555 1_555
H121 C147 1_555 1_555
C148 C145 1_555 1_555
H122 C148 1_555 1_555
C149 C150 1_555 1_555
C150 H123 1_555 1_555
C151 C150 1_555 1_555
H124 C151 1_555 1_555
C152 C151 1_555 1_555
C153 C152 1_555 1_555
H125 C153 1_555 1_555
C154 C149 1_555 1_555
H126 C154 1_555 1_555
C155 C152 1_555 1_555
H127 C155 1_555 1_555
H128 C155 1_555 1_555
H129 C155 1_555 1_555
C156 C157 1_555 1_555
C157 H130 1_555 1_555
C158 C157 1_555 1_555
H131 C158 1_555 1_555
C159 C158 1_555 1_555
C160 C159 1_555 1_555
H132 C160 1_555 1_555
C161 C156 1_555 1_555
H133 C161 1_555 1_555
C162 C159 1_555 1_555
H134 C162 1_555 1_555
H135 C162 1_555 1_555
H136 C162 1_555 1_555
C163 H137 1_555 1_555
C164 C163 1_555 1_555
C165 H138 1_555 1_555
C166 C165 1_555 1_555
C167 C166 1_555 1_555
H139 C167 1_555 1_555
C168 C164 1_555 1_555
H140 C168 1_555 1_555
C169 C166 1_555 1_555
C170 C169 1_555 1_555
H141 C170 1_555 1_555
C171 C172 1_555 1_555
C172 H142 1_555 1_555
C173 C169 1_555 1_555
H143 C173 1_555 1_555
C174 C171 1_555 1_555
H144 C174 1_555 1_555
C175 C176 1_555 1_555
C176 H145 1_555 1_555
C177 C176 1_555 1_555
H146 C177 1_555 1_555
C178 C177 1_555 1_555
C179 C178 1_555 1_555
H147 C179 1_555 1_555
C180 C175 1_555 1_555
H148 C180 1_555 1_555
C181 C178 1_555 1_555
H149 C181 1_555 1_555
H150 C181 1_555 1_555
H151 C181 1_555 1_555
C182 C183 1_555 1_555
C183 H152 1_555 1_555
C184 C183 1_555 1_555
H153 C184 1_555 1_555
C185 C184 1_555 1_555
C186 C185 1_555 1_555
H154 C186 1_555 1_555
C187 C182 1_555 1_555
H155 C187 1_555 1_555
C188 C185 1_555 1_555
H156 C188 1_555 1_555
H157 C188 1_555 1_555
H158 C188 1_555 1_555
C189 H159 1_555 1_555
C190 C189 1_555 1_555
C191 H160 1_555 1_555
C192 C191 1_555 1_555
C193 C192 1_555 1_555
H161 C193 1_555 1_555
C194 C190 1_555 1_555
H162 C194 1_555 1_555
C195 C192 1_555 1_555
C196 C195 1_555 1_555
H163 C196 1_555 1_555
C197 C198 1_555 1_555
C198 H164 1_555 1_555
C199 C195 1_555 1_555
H165 C199 1_555 1_555
C200 C197 1_555 1_555
H166 C200 1_555 1_555
C201 C202 1_555 1_555
C202 H167 1_555 1_555
C203 C202 1_555 1_555
H168 C203 1_555 1_555
C204 C203 1_555 1_555
C205 C204 1_555 1_555
H169 C205 1_555 1_555
C206 C201 1_555 1_555
H170 C206 1_555 1_555
C207 C204 1_555 1_555
H171 C207 1_555 1_555
H172 C207 1_555 1_555
H173 C207 1_555 1_555
C208 C209 1_555 1_555
C209 H174 1_555 1_555
C210 C209 1_555 1_555
H175 C210 1_555 1_555
C211 C210 1_555 1_555
C212 C211 1_555 1_555
H176 C212 1_555 1_555
C213 C208 1_555 1_555
H177 C213 1_555 1_555
C214 C211 1_555 1_555
H178 C214 1_555 1_555
H179 C214 1_555 1_555
H180 C214 1_555 1_555
C215 H181 1_555 1_555
C216 C215 1_555 1_555
C217 H182 1_555 1_555
C218 C217 1_555 1_555
C219 C218 1_555 1_555
H183 C219 1_555 1_555
C220 C216 1_555 1_555
H184 C220 1_555 1_555
C221 C218 1_555 1_555
C222 C221 1_555 1_555
H185 C222 1_555 1_555
C223 C224 1_555 1_555
C224 H186 1_555 1_555
C225 C221 1_555 1_555
H187 C225 1_555 1_555
C226 C223 1_555 1_555
H188 C226 1_555 1_555
C227 C228 1_555 1_555
C228 H189 1_555 1_555
C229 C228 1_555 1_555
H190 C229 1_555 1_555
C230 C229 1_555 1_555
C231 C230 1_555 1_555
H191 C231 1_555 1_555
C232 C227 1_555 1_555
H192 C232 1_555 1_555
C233 C230 1_555 1_555
H193 C233 1_555 1_555
H194 C233 1_555 1_555
H195 C233 1_555 1_555
C234 C235 1_555 1_555
C235 H196 1_555 1_555
C236 C235 1_555 1_555
H197 C236 1_555 1_555
C237 C236 1_555 1_555
C238 C237 1_555 1_555
H198 C238 1_555 1_555
C239 C234 1_555 1_555
H199 C239 1_555 1_555
C240 C237 1_555 1_555
H200 C240 1_555 1_555
H201 C240 1_555 1_555
H202 C240 1_555 1_555
C241 H203 1_555 1_555
C242 C241 1_555 1_555
C243 H204 1_555 1_555
C244 C243 1_555 1_555
C245 C244 1_555 1_555
H205 C245 1_555 1_555
C246 C242 1_555 1_555
H206 C246 1_555 1_555
C247 C244 1_555 1_555
C248 C247 1_555 1_555
H207 C248 1_555 1_555
C249 C250 1_555 1_555
C250 H208 1_555 1_555
C251 C247 1_555 1_555
H209 C251 1_555 1_555
C252 C249 1_555 1_555
H210 C252 1_555 1_555
C253 C254 1_555 1_555
C254 H211 1_555 1_555
C255 C254 1_555 1_555
H212 C255 1_555 1_555
C256 C255 1_555 1_555
C257 C256 1_555 1_555
H213 C257 1_555 1_555
C258 C253 1_555 1_555
H214 C258 1_555 1_555
C259 C256 1_555 1_555
H215 C259 1_555 1_555
H216 C259 1_555 1_555
H217 C259 1_555 1_555
C260 C261 1_555 1_555
C261 H218 1_555 1_555
C262 C261 1_555 1_555
H219 C262 1_555 1_555
C263 C262 1_555 1_555
C264 C263 1_555 1_555
H220 C264 1_555 1_555
C265 C260 1_555 1_555
H221 C265 1_555 1_555
C266 C263 1_555 1_555
H222 C266 1_555 1_555
H223 C266 1_555 1_555
H224 C266 1_555 1_555
C267 H225 1_555 1_555
C268 C267 1_555 1_555
C269 H226 1_555 1_555
C270 C269 1_555 1_555
C271 C270 1_555 1_555
H227 C271 1_555 1_555
C272 C268 1_555 1_555
H228 C272 1_555 1_555
C273 C270 1_555 1_555
C274 C273 1_555 1_555
H229 C274 1_555 1_555
C275 C276 1_555 1_555
C276 H230 1_555 1_555
C277 C273 1_555 1_555
H231 C277 1_555 1_555
C278 C275 1_555 1_555
H232 C278 1_555 1_555
C279 C280 1_555 1_555
C280 H233 1_555 1_555
C281 C280 1_555 1_555
H234 C281 1_555 1_555
C282 C281 1_555 1_555
C283 C282 1_555 1_555
H235 C283 1_555 1_555
C284 C279 1_555 1_555
H236 C284 1_555 1_555
C285 C282 1_555 1_555
H237 C285 1_555 1_555
H238 C285 1_555 1_555
H239 C285 1_555 1_555
C286 C287 1_555 1_555
C287 H240 1_555 1_555
C288 C287 1_555 1_555
H241 C288 1_555 1_555
C289 C288 1_555 1_555
C290 C289 1_555 1_555
H242 C290 1_555 1_555
C291 C286 1_555 1_555
H243 C291 1_555 1_555
C292 C289 1_555 1_555
H244 C292 1_555 1_555
H245 C292 1_555 1_555
H246 C292 1_555 1_555
C293 H247 1_555 1_555
C294 C293 1_555 1_555
C295 H248 1_555 1_555
C296 C295 1_555 1_555
C297 C296 1_555 1_555
H249 C297 1_555 1_555
C298 C294 1_555 1_555
H250 C298 1_555 1_555
C299 C296 1_555 1_555
C300 C299 1_555 1_555
H251 C300 1_555 1_555
C301 C302 1_555 1_555
C302 H252 1_555 1_555
C303 C299 1_555 1_555
H253 C303 1_555 1_555
C304 C301 1_555 1_555
H254 C304 1_555 1_555
C305 C306 1_555 1_555
C306 H255 1_555 1_555
C307 C306 1_555 1_555
H256 C307 1_555 1_555
C308 C307 1_555 1_555
C309 C308 1_555 1_555
H257 C309 1_555 1_555
C310 C305 1_555 1_555
H258 C310 1_555 1_555
C311 C308 1_555 1_555
H259 C311 1_555 1_555
H260 C311 1_555 1_555
H261 C311 1_555 1_555
C312 C313 1_555 1_555
C313 H262 1_555 1_555
C314 C313 1_555 1_555
H263 C314 1_555 1_555
C315 C314 1_555 1_555
C316 C315 1_555 1_555
H264 C316 1_555 1_555
C317 C312 1_555 1_555
H265 C317 1_555 1_555
C318 C315 1_555 1_555
H266 C318 1_555 1_555
H267 C318 1_555 1_555
H268 C318 1_555 1_555
C319 H269 1_555 1_555
C320 C319 1_555 1_555
C321 H270 1_555 1_555
C322 C321 1_555 1_555
C323 C322 1_555 1_555
H271 C323 1_555 1_555
C324 C320 1_555 1_555
H272 C324 1_555 1_555
C325 C322 1_555 1_555
C326 C325 1_555 1_555
H273 C326 1_555 1_555
C327 C328 1_555 1_555
C328 H274 1_555 1_555
C329 C325 1_555 1_555
H275 C329 1_555 1_555
C330 C327 1_555 1_555
H276 C330 1_555 1_555
C331 C332 1_555 1_555
C332 H277 1_555 1_555
C333 C332 1_555 1_555
H278 C333 1_555 1_555
C334 C333 1_555 1_555
C335 C334 1_555 1_555
H279 C335 1_555 1_555
C336 C331 1_555 1_555
H280 C336 1_555 1_555
C337 C334 1_555 1_555
H281 C337 1_555 1_555
H282 C337 1_555 1_555
H283 C337 1_555 1_555
C338 C339 1_555 1_555
C339 H284 1_555 1_555
C340 C339 1_555 1_555
H285 C340 1_555 1_555
C341 C340 1_555 1_555
C342 C341 1_555 1_555
H286 C342 1_555 1_555
C343 C338 1_555 1_555
H287 C343 1_555 1_555
C344 C341 1_555 1_555
H288 C344 1_555 1_555
H289 C344 1_555 1_555
H290 C344 1_555 1_555
C345 H291 1_555 1_555
C346 C345 1_555 1_555
C347 H292 1_555 1_555
C348 C347 1_555 1_555
C349 C348 1_555 1_555
H293 C349 1_555 1_555
C350 C346 1_555 1_555
H294 C350 1_555 1_555
C351 C348 1_555 1_555
C352 C351 1_555 1_555
H295 C352 1_555 1_555
C353 C354 1_555 1_555
C354 H296 1_555 1_555
C355 C351 1_555 1_555
H297 C355 1_555 1_555
C356 C353 1_555 1_555
H298 C356 1_555 1_555
C357 C358 1_555 1_555
C358 H299 1_555 1_555
C359 C358 1_555 1_555
H300 C359 1_555 1_555
C360 C359 1_555 1_555
C361 C360 1_555 1_555
H301 C361 1_555 1_555
C362 C357 1_555 1_555
H302 C362 1_555 1_555
C363 C360 1_555 1_555
H303 C363 1_555 1_555
H304 C363 1_555 1_555
H305 C363 1_555 1_555
C364 C365 1_555 1_555
C365 H306 1_555 1_555
C366 C365 1_555 1_555
H307 C366 1_555 1_555
C367 C366 1_555 1_555
C368 C367 1_555 1_555
H308 C368 1_555 1_555
C369 C364 1_555 1_555
H309 C369 1_555 1_555
C370 C367 1_555 1_555
H310 C370 1_555 1_555
H311 C370 1_555 1_555
H312 C370 1_555 1_555
C371 H313 1_555 1_555
C372 C371 1_555 1_555
C373 H314 1_555 1_555
C374 C373 1_555 1_555
C375 C374 1_555 1_555
H315 C375 1_555 1_555
C376 C372 1_555 1_555
H316 C376 1_555 1_555
C377 C374 1_555 1_555
C378 C377 1_555 1_555
H317 C378 1_555 1_555
C379 C380 1_555 1_555
C380 H318 1_555 1_555
C381 C377 1_555 1_555
H319 C381 1_555 1_555
C382 C379 1_555 1_555
H320 C382 1_555 1_555
C383 C384 1_555 1_555
C384 H321 1_555 1_555
C385 C384 1_555 1_555
H322 C385 1_555 1_555
C386 C385 1_555 1_555
C387 C386 1_555 1_555
H323 C387 1_555 1_555
C388 C383 1_555 1_555
H324 C388 1_555 1_555
C389 C386 1_555 1_555
H325 C389 1_555 1_555
H326 C389 1_555 1_555
H327 C389 1_555 1_555
N1 C1 1_555 1_555
N2 C9 1_555 1_555
N3 C15 1_555 1_555
N4 C19 1_555 1_555
N5 C27 1_555 1_555
N6 C35 1_555 1_555
N7 C41 1_555 1_555
N8 C45 1_555 1_555
N9 C53 1_555 1_555
N10 C61 1_555 1_555
N11 C67 1_555 1_555
N12 C71 1_555 1_555
N13 C78 1_555 1_555
N14 C86 1_555 1_555
N15 C92 1_555 1_555
N16 C96 1_555 1_555
N17 C104 1_555 1_555
N18 C112 1_555 1_555
N19 C118 1_555 1_555
N20 C122 1_555 1_555
N21 C130 1_555 1_555
N22 C138 1_555 1_555
N23 C144 1_555 1_555
N24 C148 1_555 1_555
N25 C156 1_555 1_555
N26 C164 1_555 1_555
N27 C170 1_555 1_555
N28 C174 1_555 1_555
N29 C182 1_555 1_555
N30 C190 1_555 1_555
N31 C196 1_555 1_555
N32 C200 1_555 1_555
N33 C208 1_555 1_555
N34 C216 1_555 1_555
N35 C222 1_555 1_555
N36 C226 1_555 1_555
N37 C234 1_555 1_555
N38 C242 1_555 1_555
N39 C248 1_555 1_555
N40 C252 1_555 1_555
N41 C260 1_555 1_555
N42 C268 1_555 1_555
N43 C274 1_555 1_555
N44 C278 1_555 1_555
N45 C286 1_555 1_555
N46 C294 1_555 1_555
N47 C300 1_555 1_555
N48 C304 1_555 1_555
N49 C312 1_555 1_555
N50 C320 1_555 1_555
N51 C326 1_555 1_555
N52 C330 1_555 1_555
N53 C338 1_555 1_555
N54 C346 1_555 1_555
N55 C352 1_555 1_555
N56 C356 1_555 1_555
N57 C364 1_555 1_555
N58 C372 1_555 1_555
N59 C378 1_555 1_555
N60 C382 1_555 1_555
Fe1 N1 1_555 1_555
Fe2 N3 1_555 1_555
Fe3 N15 1_555 1_555
Fe4 N23 1_555 1_555
Fe5 N7 1_555 1_555
Fe6 N11 1_555 1_555
Fe7 N19 1_555 1_555
Fe8 N27 1_555 1_555
Fe9 N35 1_555 1_555
Fe10 N39 1_555 1_555
C390 C75 1_555 1_555
H328 C390 1_555 1_555
H329 C390 1_555 1_555
H330 C390 1_555 1_555
C391 C392 1_555 1_555
C392 H331 1_555 1_555
H332 C392 1_555 1_555
H333 C392 1_555 1_555
N61 C391 1_555 1_555
C393 C394 1_555 1_555
C394 H334 1_555 1_555
H335 C394 1_555 1_555
H336 C394 1_555 1_555
N62 C393 1_555 1_555
O1 Cl1 1_555 1_555
O2 Cl1 1_555 1_555
O3 Cl1 1_555 1_555
O4 Cl1 1_555 1_555
O5 Cl2 1_555 1_555
O6 Cl2 1_555 1_555
O7 Cl2 1_555 1_555
O8 Cl2 1_555 1_555
O9 Cl3 1_555 1_555
O10 Cl3 1_555 1_555
O11 Cl3 1_555 1_555
O12 Cl3 1_555 1_555
O13 Cl4 1_555 1_555
O14 Cl4 1_555 1_555
O15 Cl4 1_555 1_555
O16 Cl4 1_555 1_555
O17 Cl5 1_555 1_555
O18 Cl5 1_555 1_555
O19 Cl5 1_555 1_555
O20 Cl5 1_555 1_555
O21 Cl6 1_555 1_555
O22 Cl6 1_555 1_555
O23 Cl6 1_555 1_555
O24 Cl6 1_555 1_555
O25 Cl7 1_555 1_555
O26 Cl7 1_555 1_555
O27 Cl7 1_555 1_555
O28 Cl7 1_555 1_555
O29 Cl8 1_555 1_555
O30 Cl8 1_555 1_555
O31 Cl8 1_555 1_555
O32 Cl8 1_555 1_555
O33 Cl9 1_555 1_555
O34 Cl9 1_555 1_555
O35 Cl9 1_555 1_555
O36 Cl9 1_555 1_555
O37 Cl10 1_555 1_555
O38 Cl10 1_555 1_555
O39 Cl10 1_555 1_555
O40 Cl10 1_555 1_555
O41 Cl11 1_555 1_555
O42 Cl11 1_555 1_555
O43 Cl11 1_555 1_555
O44 Cl11 1_555 1_555
O45 Cl12 1_555 1_555
O46 Cl12 1_555 1_555
Cl12 O45F 1_555 1_555
O46F Cl12 1_555 1_555
C5 C6 1_555 1_555
C8 N1 1_555 1_555
C10 N2 1_555 1_555
C12 C13 1_555 1_555
C16 N3 1_555 1_555
C17 C18 1_555 1_555
C20 N4 1_555 1_555
C24 C25 1_555 1_555
C31 C32 1_555 1_555
C34 N5 1_555 1_555
C36 N6 1_555 1_555
C38 C39 1_555 1_555
C42 N7 1_555 1_555
C43 C44 1_555 1_555
C46 N8 1_555 1_555
C50 C51 1_555 1_555
C57 C58 1_555 1_555
C60 N9 1_555 1_555
C62 N10 1_555 1_555
C64 C65 1_555 1_555
C68 N11 1_555 1_555
C69 C70 1_555 1_555
C72 N12 1_555 1_555
C76 C77 1_555 1_555
C82 C83 1_555 1_555
C85 N13 1_555 1_555
C87 N14 1_555 1_555
C89 C90 1_555 1_555
C93 N15 1_555 1_555
C94 C95 1_555 1_555
C97 N16 1_555 1_555
C101 C102 1_555 1_555
C108 C109 1_555 1_555
C111 N17 1_555 1_555
C113 N18 1_555 1_555
C115 C116 1_555 1_555
C119 N19 1_555 1_555
C120 C121 1_555 1_555
C123 N20 1_555 1_555
C127 C128 1_555 1_555
C134 C135 1_555 1_555
C137 N21 1_555 1_555
C139 N22 1_555 1_555
C141 C142 1_555 1_555
C145 N23 1_555 1_555
C146 C147 1_555 1_555
C149 N24 1_555 1_555
C153 C154 1_555 1_555
C160 C161 1_555 1_555
C163 N25 1_555 1_555
C165 N26 1_555 1_555
C167 C168 1_555 1_555
C171 N27 1_555 1_555
C172 C173 1_555 1_555
C175 N28 1_555 1_555
C179 C180 1_555 1_555
C186 C187 1_555 1_555
C189 N29 1_555 1_555
C191 N30 1_555 1_555
C193 C194 1_555 1_555
C197 N31 1_555 1_555
C198 C199 1_555 1_555
C201 N32 1_555 1_555
C205 C206 1_555 1_555
C212 C213 1_555 1_555
C215 N33 1_555 1_555
C217 N34 1_555 1_555
C219 C220 1_555 1_555
C223 N35 1_555 1_555
C224 C225 1_555 1_555
C227 N36 1_555 1_555
C231 C232 1_555 1_555
C238 C239 1_555 1_555
C241 N37 1_555 1_555
C243 N38 1_555 1_555
C245 C246 1_555 1_555
C249 N39 1_555 1_555
C250 C251 1_555 1_555
C253 N40 1_555 1_555
C257 C258 1_555 1_555
C264 C265 1_555 1_555
C267 N41 1_555 1_555
C269 N42 1_555 1_555
C271 C272 1_555 1_555
C275 N43 1_555 1_555
C276 C277 1_555 1_555
C279 N44 1_555 1_555
C283 C284 1_555 1_555
C290 C291 1_555 1_555
C293 N45 1_555 1_555
C295 N46 1_555 1_555
C297 C298 1_555 1_555
C301 N47 1_555 1_555
C302 C303 1_555 1_555
C305 N48 1_555 1_555
C309 C310 1_555 1_555
C316 C317 1_555 1_555
C319 N49 1_555 1_555
C321 N50 1_555 1_555
C323 C324 1_555 1_555
C327 N51 1_555 1_555
C328 C329 1_555 1_555
C331 N52 1_555 1_555
C335 C336 1_555 1_555
C342 C343 1_555 1_555
C345 N53 1_555 1_555
C347 N54 1_555 1_555
C349 C350 1_555 1_555
C353 N55 1_555 1_555
C354 C355 1_555 1_555
C357 N56 1_555 1_555
C361 C362 1_555 1_555
C368 C369 1_555 1_555
C371 N57 1_555 1_555
C373 N58 1_555 1_555
C375 C376 1_555 1_555
C379 N59 1_555 1_555
C380 C381 1_555 1_555
C383 N60 1_555 1_555
C387 C388 1_555 1_555
N2 Fe1 1_555 1_555
N4 Fe2 1_555 1_555
N5 Fe1 1_555 1_555
N6 Fe1 1_555 1_555
N8 Fe5 1_555 1_555
N9 Fe1 1_555 1_555
N10 Fe1 1_555 1_555
N12 Fe6 1_555 1_555
N13 Fe2 1_555 1_555
N14 Fe2 1_555 1_555
N16 Fe3 1_555 1_555
N17 Fe2 1_555 1_555
N18 Fe2 1_555 1_555
N20 Fe7 1_555 1_555
N21 Fe3 1_555 1_555
N22 Fe3 1_555 1_555
N24 Fe4 1_555 1_555
N25 Fe3 1_555 1_555
N26 Fe3 1_555 1_555
N28 Fe8 1_555 1_555
N29 Fe4 1_555 1_555
N30 Fe4 1_555 1_555
N31 Fe5 1_555 1_555
N32 Fe5 1_555 1_555
N33 Fe4 1_555 1_555
N34 Fe4 1_555 1_555
N36 Fe9 1_555 1_555
N37 Fe5 1_555 1_555
N38 Fe5 1_555 1_555
N40 Fe10 1_555 1_555
N41 Fe6 1_555 1_555
N42 Fe6 1_555 1_555
N43 Fe7 1_555 1_555
N44 Fe7 1_555 1_555
N45 Fe6 1_555 1_555
N46 Fe6 1_555 1_555
N47 Fe10 1_555 1_555
N48 Fe10 1_555 1_555
N49 Fe7 1_555 1_555
N50 Fe7 1_555 1_555
N51 Fe8 1_555 1_555
N52 Fe8 1_555 1_555
N53 Fe8 1_555 1_555
N54 Fe8 1_555 1_555
N55 Fe9 1_555 1_555
N56 Fe9 1_555 1_555
N57 Fe9 1_555 1_555
N58 Fe9 1_555 1_555
N59 Fe10 1_555 1_555
N60 Fe10 1_555 1_555

#END
