
#######################################################################
#
#                 Cambridge Crystallographic Data Centre
#                                CCDC 
#
#######################################################################
#
# If this CIF has been generated from an entry in the Cambridge 
# Structural Database, then it will include bibliographic, chemical, 
# crystal, experimental, refinement or atomic coordinate data resulting 
# from the CCDC's data processing and validation procedures.
#
#######################################################################

data_XEXLUI
_chemical_formula_moiety         'C122 H106 Co2 N6 O8,C4 H8 O1,3(H2 O1)'
_chemical_name_systematic        
'bis(\m~2~-2,12-bis(3-(4,4-dimethyloxazolin-2-yl)-4-hydroxyphenylethynyl)-7-(3,5-di-t-butylphenyl)dibenzo(c,h)acridine)-di-cobalt(ii) tetrahydrofuran solvate trihydrate'
_symmetry_cell_setting           monoclinic
_symmetry_space_group_name_H-M   'P c'
_symmetry_Int_Tables_number      7
_space_group_name_Hall           'P -2yc'
loop_
_symmetry_equiv_pos_site_id
_symmetry_equiv_pos_as_xyz
1 x,y,z
2 x,-y,1/2+z
_cell_length_a                   16.7029(14)
_cell_length_b                   20.4681(18)
_cell_length_c                   22.1430(19)
_cell_angle_alpha                90
_cell_angle_beta                 100.151(2)
_cell_angle_gamma                90
_cell_volume                     7451.68
_exptl_crystal_colour            red
_exptl_crystal_description       block
_chemical_melting_point          'above 400deg.C'
_cell_formula_units_Z            2
_exptl_crystal_recrystallization_method THF/hexane
loop_
_atom_site_label
_atom_site_type_symbol
_atom_site_fract_x
_atom_site_fract_y
_atom_site_fract_z
Co1 Co 0.74391(13) 0.13049(13) 0.08521(9)
Co2 Co 0.52435(13) 0.36807(13) 0.10857(9)
N1 N 0.4746(8) 0.2864(7) 0.0688(6)
N2 N 0.4648(11) 0.4256(8) 0.1595(7)
N3 N 0.7962(11) 0.0756(8) 0.0329(6)
N4 N 0.7938(12) 0.2059(10) 0.1239(6)
N5 N 0.3498(9) 0.1767(8) -0.4244(6)
N6 N 0.9190(9) 0.3223(7) 0.6176(5)
O1 O 0.5352(9) 0.4078(8) 0.0317(5)
O2 O 0.6132(8) 0.3484(8) 0.1748(6)
O3 O 0.6566(8) 0.1482(8) 0.0220(5)
O4 O 0.7334(8) 0.0915(7) 0.1596(5)
O5 O 0.4586(12) 0.4826(9) 0.2427(6)
O6 O 0.4170(9) 0.2244(6) -0.0086(5)
O7 O 0.8200(9) 0.0259(8) -0.0543(6)
O8 O 0.8498(8) 0.2745(7) 0.2021(7)
C1 C 0.8544(10) 0.1402(8) 0.3349(8)
C2 C 0.6158(12) 0.3674(11) 0.2304(9)
C3 C 0.1502(11) 0.2920(10) -0.4920(8)
H1 H 0.1031 0.3157 -0.5063
C4 C 0.4540(11) 0.3304(9) -0.0361(8)
C5 C 0.2420(11) 0.2033(9) -0.5087(8)
C6 C 0.8472(13) 0.1768(10) 0.2921(9)
H2 H 0.8656 0.2191 0.3017
C7 C 0.4384(10) 0.0871(8) -0.4311(7)
C8 C 0.6845(14) 0.3348(12) 0.2714(9)
H3 H 0.7187 0.3046 0.2574
C9 C 1.1548(11) 0.3783(9) 0.9105(7)
H4 H 1.1876 0.3866 0.9482
C10 C 0.2118(12) 0.1377(9) -0.6056(8)
C11 C 0.9829(12) 0.1694(9) 0.5090(8)
C12 C 0.3751(11) 0.1269(9) -0.4574(7)
C13 C 0.8237(13) 0.4075(10) 0.6253(8)
C14 C 1.0972(13) 0.2549(9) 0.7205(9)
H5 H 1.1284 0.2621 0.7591
C15 C 0.4544(13) 0.2832(11) 0.0170(9)
C16 C 1.0045(11) 0.2307(8) 0.6030(7)
C17 C 0.5686(9) 0.4089(9) 0.2574(7)
C18 C 0.8994(12) 0.3684(9) 0.6526(7)
C19 C 0.6937(14) 0.3551(14) 0.3373(9)
H6 H 0.7355 0.3355 0.3646
C20 C 0.2863(10) 0.2167(9) -0.4475(8)
C21 C 0.9844(11) 0.2860(9) 0.6411(6)
C22 C 0.9556(10) 0.2209(8) 0.5459(7)
H7 H 0.9091 0.2455 0.5323
C23 C 1.0301(11) 0.2944(9) 0.6991(8)
C24 C 0.4664(11) 0.0390(9) -0.4639(7)
C25 C 0.3684(13) 0.3509(10) -0.2056(10)
C26 C 0.5378(12) 0.0071(11) -0.4373(9)
H8 H 0.5624 -0.0198 -0.4626
C27 C 0.3304(11) 0.3407(9) -0.2551(8)
C29 C 0.7936(13) 0.4606(10) 0.6612(8)
C30 C 0.1975(11) 0.3092(10) -0.4313(9)
C31 C 0.7725(13) 0.1095(10) 0.2158(8)
C32 C 0.2196(13) 0.3707(9) -0.3393(8)
H11 H 0.2058 0.4057 -0.3164
C33 C 0.6048(14) 0.0877(11) -0.2308(8)
C34 C 1.0424(13) 0.1321(10) 0.5296(9)
H12 H 1.0561 0.0982 0.5055
C35 C 0.9377(13) 0.3811(11) 0.7136(7)
C36 C 0.3322(11) 0.1134(9) -0.5193(8)
C37 C 0.4832(12) 0.0993(11) -0.3730(8)
H13 H 0.4693 0.1358 -0.3521
C38 C 0.2630(11) 0.1552(10) -0.5429(8)
C39 C 1.0515(11) 0.3580(9) 0.7993(8)
C40 C 0.5739(14) 0.0121(12) -0.3784(9)
H14 H 0.6154 -0.0161 -0.3611
C41 C 0.4996(11) 0.3907(10) -0.0230(8)
C42 C 0.1192(14) 0.1214(13) -0.7184(10)
H15 H 0.0858 0.1155 -0.7563
C43 C 0.8994(13) 0.4342(10) 0.7466(8)
H16 H 0.9206 0.4408 0.7879
C44 C 0.3079(11) 0.2804(10) -0.3475(8)
H17 H 0.3511 0.2534 -0.3312
C45 C 0.9488(12) 0.0764(11) 0.0837(9)
H18 H 0.9343 0.0995 0.1179
H19 H 0.9668 0.1070 0.0561
H20 H 0.9918 0.0461 0.0981
C46 C 1.0056(11) 0.3470(8) 0.7368(7)
C47 C 0.8925(12) 0.1519(9) 0.3952(8)
C48 C 0.3561(12) 0.0658(10) -0.5531(8)
H21 H 0.3272 0.0563 -0.5919
C49 C 0.8036(11) 0.0845(10) 0.3214(9)
H22 H 0.7952 0.0571 0.3532
C50 C 0.2069(11) 0.1870(10) -0.6537(8)
H23 H 0.2364 0.2255 -0.6454
C51 C 0.5455(12) 0.0619(10) -0.3445(8)
C52 C 1.0673(12) 0.1948(9) 0.6254(7)
C53 C 1.1492(12) 0.4261(11) 0.8648(9)
C54 C 0.6701(12) 0.4156(11) 0.4191(9)
C55 C 0.839(2) 0.3126(11) 0.1517(12)
H24 H 0.8913 0.3323 0.1482
H25 H 0.8023 0.3477 0.1571
C56 C 0.5833(11) 0.4241(9) 0.3195(8)
H26 H 0.5482 0.4530 0.3341
C57 C 0.1228(12) 0.0701(10) -0.6743(8)
C58 C 0.4613(13) 0.4220(10) -0.1321(7)
H27 H 0.4590 0.4529 -0.1630
C59 C 0.6479(11) 0.3984(12) 0.3607(9)
C60 C 0.7704(12) 0.0624(10) -0.0233(9)
C62 C 0.4228(14) 0.3621(10) -0.1447(7)
C63 C 0.7357(12) 0.5032(9) 0.6327(8)
H30 H 0.7218 0.5402 0.6529
C64 C 1.1000(13) 0.4190(11) 0.8095(8)
H31 H 1.0969 0.4509 0.7792
C65 C 0.8375(13) 0.4725(10) 0.7212(8)
H32 H 0.8229 0.5077 0.7434
C66 C 0.6172(13) 0.1022(10) -0.1638(7)
C67 C 0.7904(12) 0.4001(9) 0.5631(7)
H33 H 0.8104 0.3692 0.5387
C68 C 0.4251(12) 0.0306(12) -0.5287(8)
H34 H 0.4462 0.0009 -0.5535
C69 C 1.0887(15) 0.1423(9) 0.5904(8)
H35 H 1.1316 0.1148 0.6060
C70 C 0.2911(12) 0.3287(10) -0.3135(8)
C71 C 0.5788(14) 0.0756(11) -0.2843(9)
C72 C 0.4976(15) 0.4370(12) 0.2173(8)
C73 C 0.1620(12) 0.1787(8) -0.7086(7)
C74 C 0.4611(17) 0.2258(12) 0.1022(10)
C75 C 0.1705(12) 0.2453(9) -0.5267(7)
H36 H 0.1379 0.2384 -0.5647
C76 C 0.7674(13) 0.0705(10) 0.2640(7)
H37 H 0.7375 0.0320 0.2570
C77 C 1.1143(14) 0.3198(13) 0.9025(8)
C78 C 0.7230(13) 0.4428(11) 0.5381(7)
C79 C 1.0554(13) 0.3106(10) 0.8430(7)
H38 H 1.0226 0.2737 0.8363
C80 C 0.3967(14) 0.4711(14) 0.1402(11)
C81 C 0.8083(13) 0.2788(9) 0.0954(8)
C82 C 0.8151(11) 0.1661(10) 0.2290(8)
C83 C 0.6854(11) 0.4261(10) 0.4712(9)
C84 C 0.1773(11) 0.3595(9) -0.3920(10)
H39 H 0.1315 0.3850 -0.4053
C85 C 0.4115(11) 0.3143(9) -0.0927(7)
H40 H 0.3785 0.2775 -0.0994
C86 C 0.7044(14) 0.0901(10) -0.0596(8)
C87 C 0.9298(13) 0.1609(9) 0.4460(8)
C88 C 1.125(2) 0.2601(16) 0.9478(12)
C89 C 0.8624(15) 0.2682(17) 0.0418(13)
H41 H 0.8310 0.2446 0.0083
H42 H 0.9105 0.2438 0.0580
H43 H 0.8775 0.3099 0.0276
C90 C 0.1481(14) 0.2294(9) -0.7569(7)
C91 C 1.1168(14) 0.2050(11) 0.6839(9)
H44 H 1.1617 0.1784 0.6971
C92 C 0.3335(17) 0.4185(15) 0.120(2)
H45 H 0.3420 0.3999 0.0821
H46 H 0.2801 0.4373 0.1151
H47 H 0.3384 0.3849 0.1510
C93 C 0.6854(15) 0.0742(12) -0.1222(9)
H48 H 0.7181 0.0441 -0.1378
C94 C 0.5025(13) 0.4358(10) -0.0744(8)
H49 H 0.5326 0.4741 -0.0677
C95 C 0.8195(10) 0.2155(9) 0.1875(7)
C96 C 0.6432(13) 0.1357(9) -0.0387(8)
C97 C 0.7287(16) 0.3032(11) 0.0630(14)
H50 H 0.7101 0.2763 0.0279
H51 H 0.7345 0.3474 0.0500
H52 H 0.6899 0.3018 0.0903
C98 C 0.8805(15) 0.0420(11) 0.0527(9)
C99 C 0.3835(17) 0.4967(16) 0.1981(10)
H53 H 0.3369 0.4757 0.2105
H54 H 0.3736 0.5434 0.1951
C100 C 0.6983(13) 0.4894(11) 0.5727(10)
H55 H 0.6533 0.5142 0.5557
C102 C 0.5830(14) 0.1584(14) -0.0811(9)
H58 H 0.5456 0.1850 -0.0664
C103 C 0.417(2) 0.5194(14) 0.0843(11)
H59 H 0.4599 0.5494 0.1007
H60 H 0.3695 0.5434 0.0669
H61 H 0.4348 0.4932 0.0530
C104 C 0.4024(15) 0.2372(9) 0.1438(7)
H62 H 0.3538 0.2565 0.1213
H63 H 0.4260 0.2661 0.1762
H64 H 0.3892 0.1963 0.1610
C105 C 0.5697(13) 0.1490(10) -0.1375(9)
H65 H 0.5289 0.1723 -0.1625
C106 C 0.4077(17) 0.1817(12) 0.0476(9)
H66 H 0.4308 0.1385 0.0451
H67 H 0.3514 0.1778 0.0525
C107 C 1.2026(18) 0.4928(12) 0.8777(12)
C108 C 0.5406(13) 0.1917(11) 0.1322(8)
H68 H 0.5761 0.1877 0.1026
H69 H 0.5284 0.1491 0.1462
H70 H 0.5670 0.2172 0.1664
C109 C 0.887(2) 0.0036(19) -0.0117(11)
H71 H 0.9380 0.0145 -0.0252
H72 H 0.8850 -0.0433 -0.0064
C110 C 0.1731(11) 0.0836(9) -0.6190(8)
H73 H 0.1794 0.0511 -0.5891
C111 C 0.863(2) -0.0179(15) 0.0903(12)
H74 H 0.8200 -0.0430 0.0672
H75 H 0.8483 -0.0038 0.1280
H76 H 0.9116 -0.0444 0.0991
C113 C 0.0757(11) 0.0127(10) -0.6858(8)
C114 C 0.2644(11) 0.2651(10) -0.4095(8)
C115 C 1.183(3) 0.2889(17) 1.0129(16)
H79 H 1.2321 0.3076 1.0033
H80 H 1.1967 0.2537 1.0415
H81 H 1.1535 0.3217 1.0307
C116 C 1.188(4) 0.5173(17) 0.952(2)
H82 H 1.1944 0.4802 0.9784
H83 H 1.1350 0.5354 0.9491
H84 H 1.2283 0.5497 0.9672
C117 C 1.194(4) 0.5349(19) 0.828(2)
H85 H 1.1372 0.5456 0.8160
H86 H 1.2134 0.5143 0.7950
H87 H 1.2241 0.5741 0.8400
C118 C 1.189(5) 0.200(3) 0.933(2)
H88 H 1.2402 0.2188 0.9279
H89 H 1.1657 0.1771 0.8965
H90 H 1.1983 0.1699 0.9671
C119 C 1.060(2) 0.2213(18) 0.9482(15)
H91 H 1.0133 0.2477 0.9509
H92 H 1.0706 0.1925 0.9829
H93 H 1.0498 0.1960 0.9111
C120 C 0.0788(15) 0.2175(17) -0.8072(11)
H94 H 0.0290 0.2179 -0.7911
H95 H 0.0852 0.1757 -0.8255
H96 H 0.0770 0.2511 -0.8376
C121 C 0.0244(13) -0.0036(10) -0.6295(9)
H97 H -0.0065 -0.0430 -0.6390
H98 H -0.0117 0.0319 -0.6255
H99 H 0.0620 -0.0092 -0.5917
C122 C 0.109(2) 0.2889(12) -0.7252(13)
H100 H 0.0630 0.2735 -0.7087
H101 H 0.0917 0.3221 -0.7553
H102 H 0.1488 0.3066 -0.6928
C123 C 0.209(2) 0.218(2) -0.795(2)
H103 H 0.2032 0.2493 -0.8279
H104 H 0.2027 0.1746 -0.8124
H105 H 0.2627 0.2218 -0.7709
C124 C -0.0006(15) 0.0183(13) -0.7371(10)
H106 H -0.0295 -0.0224 -0.7408
H107 H 0.0160 0.0287 -0.7753
H108 H -0.0355 0.0523 -0.7267
C125 C 1.289(2) 0.4701(19) 0.889(3)
H109 H 1.3005 0.4471 0.9275
H110 H 1.3248 0.5072 0.8909
H111 H 1.2982 0.4416 0.8566
C126 C 0.1278(13) -0.0470(10) -0.6882(15)
H112 H 0.0938 -0.0850 -0.6950
H113 H 0.1650 -0.0515 -0.6501
H114 H 0.1579 -0.0425 -0.7212
O9 O 0.932(2) 0.6376(16) 0.9372(10)
C28 C 0.9528(13) 0.6647(8) 0.8892(11)
H9 H 1.0111 0.6721 0.8965
H10 H 0.9257 0.7065 0.8812
C61 C 0.9074(11) 0.5640(8) 0.8610(8)
H28 H 0.9452 0.5288 0.8575
H29 H 0.8531 0.5500 0.8424
C101 C 0.9286(10) 0.6187(11) 0.8328(8)
H56 H 0.8833 0.6361 0.8038
H57 H 0.9741 0.6107 0.8119
C112 C 0.9100(17) 0.581(2) 0.9243(12)
H77 H 0.8564 0.5745 0.9344
H78 H 0.9471 0.5515 0.9496
O10 O 0.885(3) 0.1535(13) 0.8075(13)
O11 O 0.2630(18) 0.060(3) 0.0624(17)
O12 O 0.392(3) 0.356(2) 0.310(3)
loop_
_geom_bond_atom_site_label_1
_geom_bond_atom_site_label_2
_geom_bond_site_symmetry_1
_geom_bond_site_symmetry_2
Co1 N3 1_555 1_555
Co2 N1 1_555 1_555
N1 C15 1_555 1_555
N2 Co2 1_555 1_555
N3 C60 1_555 1_555
N4 Co1 1_555 1_555
N5 C12 1_555 1_555
N6 C18 1_555 1_555
O1 Co2 1_555 1_555
O2 Co2 1_555 1_555
O3 Co1 1_555 1_555
O4 Co1 1_555 1_555
O5 C72 1_555 1_555
O6 C15 1_555 1_555
O7 C60 1_555 1_555
O8 C55 1_555 1_555
O9 C28 1_555 1_555
C1 C6 1_555 1_555
C2 O2 1_555 1_555
C3 H1 1_555 1_555
C4 C15 1_555 1_555
C5 C20 1_555 1_555
C6 H2 1_555 1_555
C7 C12 1_555 1_555
C8 C2 1_555 1_555
H3 C8 1_555 1_555
C9 H4 1_555 1_555
C10 C38 1_555 1_555
C11 C22 1_555 1_555
C12 C36 1_555 1_555
C13 C18 1_555 1_555
C14 H5 1_555 1_555
C16 C21 1_555 1_555
C17 C2 1_555 1_555
C18 C35 1_555 1_555
C19 C8 1_555 1_555
H6 C19 1_555 1_555
C20 N5 1_555 1_555
C21 N6 1_555 1_555
C22 C16 1_555 1_555
H7 C22 1_555 1_555
C23 C14 1_555 1_555
C24 C7 1_555 1_555
C25 C27 1_555 1_555
C26 C24 1_555 1_555
H8 C26 1_555 1_555
C27 C70 1_555 1_555
C28 H9 1_555 1_555
H10 C28 1_555 1_555
C29 C13 1_555 1_555
C30 C3 1_555 1_555
C31 O4 1_555 1_555
C32 H11 1_555 1_555
C33 C66 1_555 1_555
C34 C11 1_555 1_555
H12 C34 1_555 1_555
C35 C43 1_555 1_555
C36 C38 1_555 1_555
C37 C7 1_555 1_555
H13 C37 1_555 1_555
C38 C5 1_555 1_555
C39 C46 1_555 1_555
C40 C26 1_555 1_555
H14 C40 1_555 1_555
C41 O1 1_555 1_555
C42 H15 1_555 1_555
C43 H16 1_555 1_555
C44 H17 1_555 1_555
C45 H18 1_555 1_555
H19 C45 1_555 1_555
H20 C45 1_555 1_555
C46 C23 1_555 1_555
C47 C1 1_555 1_555
C48 C36 1_555 1_555
H21 C48 1_555 1_555
C49 C1 1_555 1_555
H22 C49 1_555 1_555
C50 C10 1_555 1_555
H23 C50 1_555 1_555
C51 C37 1_555 1_555
C52 C16 1_555 1_555
C53 C9 1_555 1_555
C54 C59 1_555 1_555
C55 H24 1_555 1_555
H25 C55 1_555 1_555
C56 C17 1_555 1_555
H26 C56 1_555 1_555
C57 C42 1_555 1_555
C58 H27 1_555 1_555
C59 C19 1_555 1_555
C60 C86 1_555 1_555
C61 H28 1_555 1_555
H29 C61 1_555 1_555
C62 C25 1_555 1_555
C63 C29 1_555 1_555
H30 C63 1_555 1_555
C64 C39 1_555 1_555
H31 C64 1_555 1_555
C65 C29 1_555 1_555
H32 C65 1_555 1_555
C66 C93 1_555 1_555
C67 C13 1_555 1_555
H33 C67 1_555 1_555
C68 C24 1_555 1_555
H34 C68 1_555 1_555
C69 C34 1_555 1_555
H35 C69 1_555 1_555
C70 C32 1_555 1_555
C71 C33 1_555 1_555
C72 N2 1_555 1_555
C73 C42 1_555 1_555
C74 N1 1_555 1_555
C75 C3 1_555 1_555
H36 C75 1_555 1_555
C76 C31 1_555 1_555
H37 C76 1_555 1_555
C77 C9 1_555 1_555
C78 C67 1_555 1_555
C79 C39 1_555 1_555
H38 C79 1_555 1_555
C80 N2 1_555 1_555
C81 N4 1_555 1_555
C82 C6 1_555 1_555
C83 C54 1_555 1_555
C84 C30 1_555 1_555
H39 C84 1_555 1_555
C85 C4 1_555 1_555
H40 C85 1_555 1_555
C86 C93 1_555 1_555
C87 C11 1_555 1_555
C88 C77 1_555 1_555
C89 C81 1_555 1_555
H41 C89 1_555 1_555
H42 C89 1_555 1_555
H43 C89 1_555 1_555
C90 C73 1_555 1_555
C91 C14 1_555 1_555
H44 C91 1_555 1_555
C92 C80 1_555 1_555
H45 C92 1_555 1_555
H46 C92 1_555 1_555
H47 C92 1_555 1_555
C93 H48 1_555 1_555
C94 C41 1_555 1_555
H49 C94 1_555 1_555
C95 N4 1_555 1_555
C96 O3 1_555 1_555
C97 C81 1_555 1_555
H50 C97 1_555 1_555
H51 C97 1_555 1_555
H52 C97 1_555 1_555
C98 N3 1_555 1_555
C99 O5 1_555 1_555
H53 C99 1_555 1_555
H54 C99 1_555 1_555
C100 C63 1_555 1_555
H55 C100 1_555 1_555
C101 C28 1_555 1_555
H56 C101 1_555 1_555
H57 C101 1_555 1_555
C102 C96 1_555 1_555
H58 C102 1_555 1_555
C103 C80 1_555 1_555
H59 C103 1_555 1_555
H60 C103 1_555 1_555
H61 C103 1_555 1_555
C104 C74 1_555 1_555
H62 C104 1_555 1_555
H63 C104 1_555 1_555
H64 C104 1_555 1_555
C105 C66 1_555 1_555
H65 C105 1_555 1_555
C106 O6 1_555 1_555
H66 C106 1_555 1_555
H67 C106 1_555 1_555
C107 C53 1_555 1_555
C108 C74 1_555 1_555
H68 C108 1_555 1_555
H69 C108 1_555 1_555
H70 C108 1_555 1_555
C109 O7 1_555 1_555
H71 C109 1_555 1_555
H72 C109 1_555 1_555
C110 C10 1_555 1_555
H73 C110 1_555 1_555
C111 C98 1_555 1_555
H74 C111 1_555 1_555
H75 C111 1_555 1_555
H76 C111 1_555 1_555
C112 O9 1_555 1_555
H77 C112 1_555 1_555
H78 C112 1_555 1_555
C113 C57 1_555 1_555
C114 C20 1_555 1_555
C115 C88 1_555 1_555
H79 C115 1_555 1_555
H80 C115 1_555 1_555
H81 C115 1_555 1_555
C116 C107 1_555 1_555
H82 C116 1_555 1_555
H83 C116 1_555 1_555
H84 C116 1_555 1_555
C117 C107 1_555 1_555
H85 C117 1_555 1_555
H86 C117 1_555 1_555
H87 C117 1_555 1_555
C118 C88 1_555 1_555
H88 C118 1_555 1_555
H89 C118 1_555 1_555
H90 C118 1_555 1_555
C119 C88 1_555 1_555
H91 C119 1_555 1_555
H92 C119 1_555 1_555
H93 C119 1_555 1_555
C120 C90 1_555 1_555
H94 C120 1_555 1_555
H95 C120 1_555 1_555
H96 C120 1_555 1_555
C121 C113 1_555 1_555
H97 C121 1_555 1_555
H98 C121 1_555 1_555
H99 C121 1_555 1_555
C122 C90 1_555 1_555
H100 C122 1_555 1_555
H101 C122 1_555 1_555
H102 C122 1_555 1_555
C123 C90 1_555 1_555
H103 C123 1_555 1_555
H104 C123 1_555 1_555
H105 C123 1_555 1_555
C124 C113 1_555 1_555
H106 C124 1_555 1_555
H107 C124 1_555 1_555
H108 C124 1_555 1_555
C125 C107 1_555 1_555
H109 C125 1_555 1_555
H110 C125 1_555 1_555
H111 C125 1_555 1_555
C126 C113 1_555 1_555
H112 C126 1_555 1_555
H113 C126 1_555 1_555
H114 C126 1_555 1_555
O8 C95 1_555 1_555
C4 C41 1_555 1_555
C5 C75 1_555 1_555
C17 C72 1_555 1_555
C21 C23 1_555 1_555
C30 C114 1_555 1_555
C31 C82 1_555 1_555
C32 C84 1_555 1_555
C35 C46 1_555 1_555
C40 C51 1_555 1_555
C43 C65 1_555 1_555
C44 C70 1_555 1_555
C44 C114 1_555 1_555
C45 C98 1_555 1_555
C47 C87 1_555 1_555
C48 C68 1_555 1_555
C49 C76 1_555 1_555
C50 C73 1_555 1_555
C51 C71 1_555 1_555
C52 C69 1_555 1_555
C52 C91 1_555 1_555
C53 C64 1_555 1_555
C55 C81 1_555 1_555
C56 C59 1_555 1_555
C57 C110 1_555 1_555
C58 C62 1_555 1_555
C58 C94 1_555 1_555
C61 C101 1_555 1_555
C61 C112 1_555 1_555
C62 C85 1_555 1_555
C74 C106 1_555 1_555
C77 C79 1_555 1_555
C78 C83 1_555 1_555
C78 C100 1_555 1_555
C80 C99 1_555 1_555
C82 C95 1_555 1_555
C86 C96 1_555 1_555
C98 C109 1_555 1_555
C102 C105 1_555 1_555

#END
