# generated using pymatgen
data_Cu24C313(NO4)24
_symmetry_space_group_name_H-M   'P 1'
_cell_length_a   26.20200000
_cell_length_b   27.75600000
_cell_length_c   28.40700000
_cell_angle_alpha   92.58300000
_cell_angle_beta   96.39300000
_cell_angle_gamma   92.64300000
_symmetry_Int_Tables_number   1
_chemical_formula_structural   Cu24C313(NO4)24
_chemical_formula_sum   'Cu48 C626 N48 O192'
_cell_volume   20482.80252091
_cell_formula_units_Z   2
loop_
 _symmetry_equiv_pos_site_id
 _symmetry_equiv_pos_as_xyz
  1  'x, y, z'
loop_
 _atom_site_type_symbol
 _atom_site_label
 _atom_site_symmetry_multiplicity
 _atom_site_fract_x
 _atom_site_fract_y
 _atom_site_fract_z
 _atom_site_occupancy
  Cu  Cu1  1  0.002430  0.622220  0.952390  1.0
  Cu  Cu2  1  0.997570  0.377780  0.047610  1.0
  Cu  Cu3  1  0.999190  0.716340  0.960820  1.0
  Cu  Cu4  1  0.000810  0.283660  0.039180  1.0
  Cu  Cu5  1  0.293230  0.845350  0.829980  1.0
  Cu  Cu6  1  0.706770  0.154650  0.170020  1.0
  Cu  Cu7  1  0.221650  0.885290  0.873340  1.0
  Cu  Cu8  1  0.778350  0.114710  0.126660  1.0
  Cu  Cu9  1  0.295470  0.224420  0.881540  1.0
  Cu  Cu10  1  0.704530  0.775580  0.118460  1.0
  Cu  Cu11  1  0.225150  0.168350  0.913420  1.0
  Cu  Cu12  1  0.774850  0.831650  0.086580  1.0
  Cu  Cu13  1  0.916330  0.204270  0.705100  1.0
  Cu  Cu14  1  0.083670  0.795730  0.294900  1.0
  Cu  Cu15  1  0.937120  0.151620  0.778060  1.0
  Cu  Cu16  1  0.062880  0.848380  0.221940  1.0
  Cu  Cu17  1  0.617600  0.989340  0.826960  1.0
  Cu  Cu18  1  0.382400  0.010660  0.173040  1.0
  Cu  Cu19  1  0.710070  0.989820  0.871940  1.0
  Cu  Cu20  1  0.289930  0.010180  0.128060  1.0
  Cu  Cu21  1  0.913850  0.829000  0.658020  1.0
  Cu  Cu22  1  0.086150  0.171000  0.341980  1.0
  Cu  Cu23  1  0.935130  0.869650  0.742730  1.0
  Cu  Cu24  1  0.064870  0.130350  0.257270  1.0
  Cu  Cu25  1  0.178500  0.277700  0.573810  1.0
  Cu  Cu26  1  0.821500  0.722300  0.426190  1.0
  Cu  Cu27  1  0.256670  0.331660  0.553260  1.0
  Cu  Cu28  1  0.743330  0.668340  0.446740  1.0
  Cu  Cu29  1  0.213110  0.651390  0.679950  1.0
  Cu  Cu30  1  0.786890  0.348610  0.320050  1.0
  Cu  Cu31  1  0.284590  0.614060  0.634260  1.0
  Cu  Cu32  1  0.715410  0.385940  0.365740  1.0
  Cu  Cu33  1  0.531600  0.872870  0.607360  1.0
  Cu  Cu34  1  0.468400  0.127130  0.392640  1.0
  Cu  Cu35  1  0.525270  0.780770  0.580830  1.0
  Cu  Cu36  1  0.474730  0.219230  0.419170  1.0
  Cu  Cu37  1  0.578190  0.607210  0.864860  1.0
  Cu  Cu38  1  0.421810  0.392790  0.135140  1.0
  Cu  Cu39  1  0.561120  0.581280  0.775000  1.0
  Cu  Cu40  1  0.438880  0.418720  0.225000  1.0
  Cu  Cu41  1  0.549550  0.236840  0.753680  1.0
  Cu  Cu42  1  0.450450  0.763160  0.246320  1.0
  Cu  Cu43  1  0.536400  0.302020  0.691100  1.0
  Cu  Cu44  1  0.463600  0.697980  0.308900  1.0
  Cu  Cu45  1  0.868730  0.460500  0.683290  1.0
  Cu  Cu46  1  0.131270  0.539500  0.316710  1.0
  Cu  Cu47  1  0.778740  0.472700  0.638040  1.0
  Cu  Cu48  1  0.221260  0.527300  0.361960  1.0
  C  C49  1  0.994800  0.829400  0.870500  1
  C  C50  1  0.005200  0.170600  0.129500  1
  C  C51  1  0.040000  0.812500  0.849400  1
  C  C52  1  0.960000  0.187500  0.150600  1
  C  C53  1  0.429000  0.736700  0.893200  1
  C  C54  1  0.571000  0.263300  0.106800  1
  C  C55  1  0.398300  0.752800  0.964000  1
  C  C56  1  0.601700  0.247200  0.036000  1
  C  C57  1  0.502000  0.736900  0.054000  1
  C  C58  1  0.498000  0.263100  0.946000  1
  C  C59  1  0.483900  0.716000  0.955600  1
  C  C60  1  0.516100  0.284000  0.044400  1
  C  C61  1  0.426000  0.751600  0.066200  1
  C  C62  1  0.574000  0.248400  0.933800  1
  C  C63  1  0.389100  0.745800  0.916800  1
  C  C64  1  0.610900  0.254200  0.083200  1
  C  C65  1  0.448300  0.734100  0.981500  1
  C  C66  1  0.551700  0.265900  0.018500  1
  C  C67  1  0.471100  0.719000  0.911100  1
  C  C68  1  0.528900  0.281000  0.088900  1
  C  C69  1  0.456000  0.740400  0.037200  1
  C  C70  1  0.544000  0.259600  0.962800  1
  C  C71  1  0.729500  0.728500  0.920800  1
  C  C72  1  0.270500  0.271500  0.079200  1
  C  C73  1  0.286800  0.790200  0.996200  1
  C  C74  1  0.713200  0.209800  0.003800  1
  C  C75  1  0.323700  0.817000  0.062400  1
  C  C76  1  0.676300  0.183000  0.937600  1
  C  C77  1  0.792700  0.717100  0.615200  1
  C  C78  1  0.207300  0.282900  0.384800  1
  C  C79  1  0.649000  0.698000  0.645000  1
  C  C80  1  0.351000  0.302000  0.355000  1
  C  C81  1  0.728000  0.970000  0.029000  1
  C  C82  1  0.272000  0.030000  0.971000  1
  C  C83  1  0.651000  0.658000  0.678000  1
  C  C84  1  0.349000  0.342000  0.322000  1
  C  C85  1  0.866000  0.804000  0.881000  1
  C  C86  1  0.134000  0.196000  0.119000  1
  C  C87  1  0.216000  0.562700  0.161400  1
  C  C88  1  0.784000  0.437300  0.838600  1
  C  C89  1  0.144000  0.794000  0.064000  1
  C  C90  1  0.856000  0.206000  0.936000  1
  C  C91  1  0.287000  0.537000  0.103000  1
  C  C92  1  0.713000  0.463000  0.897000  1
  C  C93  1  0.148000  0.517000  0.101000  1
  C  C94  1  0.852000  0.483000  0.899000  1
  C  C95  1  0.314400  0.567500  0.141800  1
  C  C96  1  0.685600  0.432500  0.858200  1
  C  C97  1  0.832400  0.433900  0.204000  1
  C  C98  1  0.167600  0.566100  0.796000  1
  C  C99  1  0.538000  0.329300  0.327300  1
  C  C100  1  0.462000  0.670700  0.672700  1
  C  C101  1  0.729000  0.733000  0.850000  1
  C  C102  1  0.271000  0.267000  0.150000  1
  C  C103  1  0.552000  0.868000  0.124000  1
  C  C104  1  0.448000  0.132000  0.876000  1
  C  C105  1  0.301000  0.681000  0.073000  1
  C  C106  1  0.699000  0.319000  0.927000  1
  C  C107  1  0.569700  0.503100  0.090300  1
  C  C108  1  0.430300  0.496900  0.909700  1
  C  C109  1  0.174000  0.826000  0.110000  1
  C  C110  1  0.826000  0.174000  0.890000  1
  C  C111  1  0.238000  0.808300  0.053000  1
  C  C112  1  0.762000  0.191700  0.947000  1
  C  C113  1  0.195000  0.783500  0.024000  1
  C  C114  1  0.805000  0.216500  0.976000  1
  C  C115  1  0.793000  0.472000  0.176000  1
  C  C116  1  0.207000  0.528000  0.824000  1
  C  C117  1  0.769700  0.940000  0.000500  1
  C  C118  1  0.230300  0.060000  0.999500  1
  C  C119  1  0.196000  0.119000  0.732000  1
  C  C120  1  0.804000  0.881000  0.268000  1
  C  C121  1  0.163000  0.500000  0.070000  1
  C  C122  1  0.837000  0.500000  0.930000  1
  C  C123  1  0.274000  0.582000  0.180700  1
  C  C124  1  0.726000  0.418000  0.819300  1
  C  C125  1  0.577000  0.483000  0.029000  1
  C  C126  1  0.423000  0.517000  0.971000  1
  C  C127  1  0.231000  0.824000  0.097000  1
  C  C128  1  0.769000  0.176000  0.903000  1
  C  C129  1  0.933000  0.785000  0.081000  1
  C  C130  1  0.067000  0.215000  0.919000  1
  C  C131  1  0.291500  0.807300  0.038300  1
  C  C132  1  0.708500  0.192700  0.961700  1
  C  C133  1  0.642000  0.517000  0.073000  1
  C  C134  1  0.358000  0.483000  0.927000  1
  C  C135  1  0.139000  0.359000  0.872000  1
  C  C136  1  0.861000  0.641000  0.128000  1
  C  C137  1  0.706200  0.758500  0.762800  1
  C  C138  1  0.293800  0.241500  0.237200  1
  C  C139  1  0.215600  0.534400  0.115100  1
  C  C140  1  0.784400  0.465600  0.884900  1
  C  C141  1  0.860000  0.793000  0.929000  1
  C  C142  1  0.140000  0.207000  0.071000  1
  C  C143  1  0.052000  0.573000  0.612000  1
  C  C144  1  0.948000  0.427000  0.388000  1
  C  C145  1  0.843000  0.841000  0.859000  1
  C  C146  1  0.157000  0.159000  0.141000  1
  C  C147  1  0.040000  0.545000  0.647000  1
  C  C148  1  0.960000  0.455000  0.353000  1
  C  C149  1  0.454000  0.014000  0.979000  1
  C  C150  1  0.546000  0.986000  0.021000  1
  C  C151  1  0.220000  0.674000  0.087000  1
  C  C152  1  0.780000  0.326000  0.913000  1
  C  C153  1  0.724000  0.807000  0.853000  1
  C  C154  1  0.276000  0.193000  0.147000  1
  C  C155  1  0.252000  0.639000  0.037000  1
  C  C156  1  0.748000  0.361000  0.963000  1
  C  C157  1  0.695000  0.705000  0.782000  1
  C  C158  1  0.305000  0.295000  0.218000  1
  C  C159  1  0.133000  0.523100  0.134600  1
  C  C160  1  0.867000  0.476900  0.865400  1
  C  C161  1  0.073000  0.347000  0.844000  1
  C  C162  1  0.927000  0.653000  0.156000  1
  C  C163  1  0.709000  0.764000  0.904000  1
  C  C164  1  0.291000  0.236000  0.096000  1
  C  C165  1  0.804000  0.700000  0.799000  1
  C  C166  1  0.196000  0.300000  0.201000  1
  C  C167  1  0.074000  0.495000  0.508000  1
  C  C168  1  0.926000  0.505000  0.492000  1
  C  C169  1  0.676000  0.232000  0.597000  1
  C  C170  1  0.324000  0.768000  0.403000  1
  C  C171  1  0.061000  0.441000  0.538000  1
  C  C172  1  0.939000  0.559000  0.462000  1
  C  C173  1  0.641000  0.498000  0.699000  1
  C  C174  1  0.359000  0.502000  0.301000  1
  C  C175  1  0.712300  0.758000  0.818000  1
  C  C176  1  0.287700  0.242000  0.182000  1
  C  C177  1  0.046000  0.493000  0.586000  1
  C  C178  1  0.954000  0.507000  0.414000  1
  C  C179  1  0.845000  0.475000  0.126000  1
  C  C180  1  0.155000  0.525000  0.874000  1
  C  C181  1  0.226000  0.994000  0.343000  1
  C  C182  1  0.774000  0.006000  0.657000  1
  C  C183  1  0.011000  0.440000  0.596000  1
  C  C184  1  0.989000  0.560000  0.404000  1
  C  C185  1  0.799000  0.722000  0.751000  1
  C  C186  1  0.201000  0.278000  0.249000  1
  C  C187  1  0.708000  0.634000  0.678000  1
  C  C188  1  0.292000  0.366000  0.322000  1
  C  C189  1  0.703000  0.719000  0.886000  1
  C  C190  1  0.297000  0.281000  0.114000  1
  C  C191  1  0.087000  0.946000  0.952000  1
  C  C192  1  0.913000  0.054000  0.048000  1
  C  C193  1  0.169000  0.379000  0.825000  1
  C  C194  1  0.831000  0.621000  0.175000  1
  C  C195  1  0.623000  0.442000  0.720000  1
  C  C196  1  0.377000  0.558000  0.280000  1
  C  C197  1  0.930000  0.830000  0.130000  1
  C  C198  1  0.070000  0.170000  0.870000  1
  C  C199  1  0.483000  0.398300  0.564600  1
  C  C200  1  0.517000  0.601700  0.435400  1
  C  C201  1  0.946900  0.672400  0.818600  1.0
  C  C202  1  0.053100  0.327600  0.181400  1.0
  C  C203  1  0.937600  0.627700  0.791900  1.0
  C  C204  1  0.062400  0.372300  0.208100  1.0
  C  C205  1  0.920400  0.631800  0.742800  1.0
  C  C206  1  0.079600  0.368200  0.257200  1.0
  C  C207  1  0.917200  0.675500  0.724500  1.0
  C  C208  1  0.082800  0.324500  0.275500  1.0
  C  C209  1  0.927500  0.720400  0.752100  1.0
  C  C210  1  0.072500  0.279600  0.247900  1.0
  C  C211  1  0.944900  0.716400  0.802400  1.0
  C  C212  1  0.055100  0.283600  0.197600  1.0
  C  C213  1  0.965100  0.668700  0.869700  1.0
  C  C214  1  0.034900  0.331300  0.130300  1.0
  C  C215  1  0.924100  0.767900  0.731800  1.0
  C  C216  1  0.075900  0.232100  0.268200  1.0
  C  C217  1  0.144400  0.690600  0.919700  1.0
  C  C218  1  0.855600  0.309400  0.080300  1.0
  C  C219  1  0.173400  0.645200  0.919900  1.0
  C  C220  1  0.826600  0.354800  0.080100  1.0
  C  C221  1  0.222100  0.652000  0.904200  1.0
  C  C222  1  0.777900  0.348000  0.095800  1.0
  C  C223  1  0.238800  0.697500  0.893200  1.0
  C  C224  1  0.761200  0.302500  0.106800  1.0
  C  C225  1  0.211500  0.741000  0.893300  1.0
  C  C226  1  0.788500  0.259000  0.106700  1.0
  C  C227  1  0.160400  0.733500  0.911600  1.0
  C  C228  1  0.839600  0.266500  0.088400  1.0
  C  C229  1  0.088000  0.686400  0.932300  1.0
  C  C230  1  0.912000  0.313600  0.067700  1.0
  C  C231  1  0.230100  0.788000  0.878100  1.0
  C  C232  1  0.769900  0.212000  0.121900  1.0
  C  C233  1  0.300600  0.995600  0.814800  1.0
  C  C234  1  0.699400  0.004400  0.185200  1.0
  C  C235  1  0.335200  0.002300  0.779300  1.0
  C  C236  1  0.664800  0.997700  0.220700  1.0
  C  C237  1  0.350800  0.048000  0.770900  1.0
  C  C238  1  0.649200  0.952000  0.229100  1.0
  C  C239  1  0.338400  0.090500  0.788000  1.0
  C  C240  1  0.661600  0.909500  0.212000  1.0
  C  C241  1  0.304800  0.076700  0.826700  1.0
  C  C242  1  0.695200  0.923300  0.173300  1.0
  C  C243  1  0.284200  0.035800  0.835200  1.0
  C  C244  1  0.715800  0.964200  0.164800  1.0
  C  C245  1  0.286100  0.950500  0.825600  1.0
  C  C246  1  0.713900  0.049500  0.174400  1.0
  C  C247  1  0.287700  0.124000  0.853000  1.0
  C  C248  1  0.712300  0.876000  0.147000  1.0
  C  C249  1  0.075200  0.829900  0.701400  1.0
  C  C250  1  0.924800  0.170100  0.298600  1.0
  C  C251  1  0.082000  0.800000  0.662000  1.0
  C  C252  1  0.918000  0.200000  0.338000  1.0
  C  C253  1  0.137000  0.783000  0.659000  1.0
  C  C254  1  0.863000  0.217000  0.341000  1.0
  C  C255  1  0.166000  0.793000  0.697000  1.0
  C  C256  1  0.834000  0.207000  0.303000  1.0
  C  C257  1  0.160000  0.836800  0.735600  1.0
  C  C258  1  0.840000  0.163200  0.264400  1.0
  C  C259  1  0.105900  0.853000  0.738100  1.0
  C  C260  1  0.894100  0.147000  0.261900  1.0
  C  C261  1  0.015800  0.842200  0.698100  1.0
  C  C262  1  0.984200  0.157800  0.301900  1.0
  C  C263  1  0.198600  0.846600  0.778900  1.0
  C  C264  1  0.801400  0.153400  0.221100  1.0
  C  C265  1  0.075900  0.221800  0.748900  1.0
  C  C266  1  0.924100  0.778200  0.251100  1.0
  C  C267  1  0.089100  0.250100  0.708700  1.0
  C  C268  1  0.910900  0.749900  0.291300  1.0
  C  C269  1  0.143300  0.271600  0.716100  1.0
  C  C270  1  0.856700  0.728400  0.283900  1.0
  C  C271  1  0.176000  0.256200  0.756200  1.0
  C  C272  1  0.824000  0.743800  0.243800  1.0
  C  C273  1  0.160900  0.225500  0.788100  1.0
  C  C274  1  0.839100  0.774500  0.211900  1.0
  C  C275  1  0.108100  0.204100  0.786800  1.0
  C  C276  1  0.891900  0.795900  0.213200  1.0
  C  C277  1  0.019600  0.205700  0.745300  1.0
  C  C278  1  0.980400  0.794300  0.254700  1.0
  C  C279  1  0.193500  0.213500  0.829300  1.0
  C  C280  1  0.806500  0.786500  0.170700  1.0
  C  C281  1  0.710900  0.097100  0.773000  1.0
  C  C282  1  0.289100  0.902900  0.227000  1.0
  C  C283  1  0.674400  0.120300  0.740400  1.0
  C  C284  1  0.325600  0.879700  0.259600  1.0
  C  C285  1  0.690500  0.151600  0.711800  1.0
  C  C286  1  0.309500  0.848400  0.288200  1.0
  C  C287  1  0.743900  0.165600  0.712800  1.0
  C  C288  1  0.256100  0.834400  0.287200  1.0
  C  C289  1  0.774800  0.140700  0.743300  1.0
  C  C290  1  0.225200  0.859300  0.256700  1.0
  C  C291  1  0.762900  0.107900  0.773200  1.0
  C  C292  1  0.237100  0.892100  0.226800  1.0
  C  C293  1  0.691500  0.057900  0.798900  1.0
  C  C294  1  0.308500  0.942100  0.201100  1.0
  C  C295  1  0.835800  0.153700  0.744300  1.0
  C  C296  1  0.164200  0.846300  0.255700  1.0
  C  C297  1  0.361500  0.163800  0.003600  1.0
  C  C298  1  0.638500  0.836200  0.996400  1.0
  C  C299  1  0.415200  0.185000  0.009300  1.0
  C  C300  1  0.584800  0.815000  0.990700  1.0
  C  C301  1  0.450000  0.170300  0.046300  1.0
  C  C302  1  0.550000  0.829700  0.953700  1.0
  C  C303  1  0.434200  0.132700  0.076500  1.0
  C  C304  1  0.565800  0.867300  0.923500  1.0
  C  C305  1  0.382600  0.115300  0.071000  1.0
  C  C306  1  0.617400  0.884700  0.929000  1.0
  C  C307  1  0.347100  0.130100  0.034000  1.0
  C  C308  1  0.652900  0.869900  0.966000  1.0
  C  C309  1  0.320600  0.175000  0.964000  1.0
  C  C310  1  0.679400  0.825000  0.036000  1.0
  C  C311  1  0.633400  0.924200  0.898400  1.0
  C  C312  1  0.366600  0.075800  0.101600  1.0
  C  C313  1  0.927000  0.973600  0.644900  1.0
  C  C314  1  0.073000  0.026400  0.355100  1.0
  C  C315  1  0.917000  0.991900  0.586000  1.0
  C  C316  1  0.083000  0.008100  0.414000  1.0
  C  C317  1  0.923000  0.075000  0.604800  1.0
  C  C318  1  0.077000  0.925000  0.395200  1.0
  C  C319  1  0.930700  0.061000  0.654400  1.0
  C  C320  1  0.069300  0.939000  0.345600  1.0
  C  C321  1  0.933000  0.015700  0.672000  1.0
  C  C322  1  0.067000  0.984300  0.328000  1.0
  C  C323  1  0.927300  0.929800  0.668500  1.0
  C  C324  1  0.072700  0.070200  0.331500  1.0
  C  C325  1  0.930500  0.104900  0.681900  1.0
  C  C326  1  0.069500  0.895100  0.318100  1.0
  C  C327  1  0.853400  0.654700  0.992800  1.0
  C  C328  1  0.146600  0.345300  0.007200  1.0
  C  C329  1  0.832600  0.613300  0.984900  1.0
  C  C330  1  0.167400  0.386700  0.015100  1.0
  C  C331  1  0.783600  0.608800  0.003700  1.0
  C  C332  1  0.216400  0.391200  0.996300  1.0
  C  C333  1  0.762200  0.648500  0.025600  1.0
  C  C334  1  0.237800  0.351500  0.974400  1.0
  C  C335  1  0.790300  0.691200  0.028700  1.0
  C  C336  1  0.209700  0.308800  0.971300  1.0
  C  C337  1  0.839800  0.698700  0.015300  1.0
  C  C338  1  0.160200  0.301300  0.984700  1.0
  C  C339  1  0.910000  0.657900  0.979900  1.0
  C  C340  1  0.090000  0.342100  0.020100  1.0
  C  C341  1  0.229600  0.266300  0.945100  1.0
  C  C342  1  0.770400  0.733700  0.054900  1.0
  C  C343  1  0.709400  0.902600  0.751600  1.0
  C  C344  1  0.290600  0.097400  0.248400  1.0
  C  C345  1  0.676100  0.880000  0.716300  1.0
  C  C346  1  0.323900  0.120000  0.283700  1.0
  C  C347  1  0.686600  0.849600  0.676400  1.0
  C  C348  1  0.313400  0.150400  0.323600  1.0
  C  C349  1  0.743800  0.842400  0.677100  1.0
  C  C350  1  0.256200  0.157600  0.322900  1.0
  C  C351  1  0.775500  0.866300  0.714100  1.0
  C  C352  1  0.224500  0.133700  0.285900  1.0
  C  C353  1  0.763900  0.894300  0.753900  1.0
  C  C354  1  0.236100  0.105700  0.246100  1.0
  C  C355  1  0.691500  0.934600  0.790000  1.0
  C  C356  1  0.308500  0.065400  0.210000  1.0
  C  C357  1  0.831800  0.852600  0.705100  1.0
  C  C358  1  0.168200  0.147400  0.294900  1.0
  C  C359  1  0.624000  0.075900  0.953500  1.0
  C  C360  1  0.376000  0.924100  0.046500  1.0
  C  C361  1  0.573400  0.091100  0.952000  1.0
  C  C362  1  0.426600  0.908900  0.048000  1.0
  C  C363  1  0.558500  0.116700  0.991500  1.0
  C  C364  1  0.441500  0.883300  0.008500  1.0
  C  C365  1  0.593400  0.125700  0.031000  1.0
  C  C366  1  0.406600  0.874300  0.969000  1.0
  C  C367  1  0.643700  0.111800  0.034000  1.0
  C  C368  1  0.356300  0.888200  0.966000  1.0
  C  C369  1  0.657700  0.084700  0.994700  1.0
  C  C370  1  0.342300  0.915300  0.005300  1.0
  C  C371  1  0.640800  0.048300  0.913900  1.0
  C  C372  1  0.359200  0.951700  0.086100  1.0
  C  C373  1  0.319200  0.878100  0.925100  1.0
  C  C374  1  0.680800  0.121900  0.074900  1.0
  C  C375  1  0.056800  0.665500  0.097400  1.0
  C  C376  1  0.943200  0.334500  0.902600  1.0
  C  C377  1  0.071400  0.621400  0.109000  1.0
  C  C378  1  0.928600  0.378600  0.891000  1.0
  C  C379  1  0.082300  0.623500  0.159900  1.0
  C  C380  1  0.917700  0.376500  0.840100  1.0
  C  C381  1  0.091100  0.663800  0.189500  1.0
  C  C382  1  0.908900  0.336200  0.810500  1.0
  C  C383  1  0.077500  0.703300  0.170900  1.0
  C  C384  1  0.922500  0.296700  0.829100  1.0
  C  C385  1  0.058200  0.711200  0.118600  1.0
  C  C386  1  0.941800  0.288800  0.881400  1.0
  C  C387  1  0.038600  0.670800  0.049100  1.0
  C  C388  1  0.961400  0.329200  0.950900  1.0
  C  C389  1  0.921700  0.247000  0.798500  1.0
  C  C390  1  0.078300  0.753000  0.201500  1.0
  C  C391  1  0.806000  0.033800  0.928300  1.0
  C  C392  1  0.194000  0.966200  0.071700  1.0
  C  C393  1  0.523000  0.947800  0.766800  1.0
  C  C394  1  0.477000  0.052200  0.233200  1.0
  C  C395  1  0.471000  0.938000  0.737000  1.0
  C  C396  1  0.529000  0.062000  0.263000  1.0
  C  C397  1  0.418700  0.334400  0.819300  1.0
  C  C398  1  0.581300  0.665600  0.180700  1.0
  C  C399  1  0.983000  0.936000  0.816000  1.0
  C  C400  1  0.017000  0.064000  0.184000  1.0
  C  C401  1  0.432100  0.294800  0.841200  1.0
  C  C402  1  0.567900  0.705200  0.158800  1.0
  C  C403  1  0.145000  0.898000  0.953000  1.0
  C  C404  1  0.855000  0.102000  0.047000  1.0
  C  C405  1  0.140000  0.949000  0.897000  1.0
  C  C406  1  0.860000  0.051000  0.103000  1.0
  C  C407  1  0.141000  0.095000  0.920000  1.0
  C  C408  1  0.859000  0.905000  0.080000  1.0
  C  C409  1  0.994800  0.519000  0.914700  1.0
  C  C410  1  0.005200  0.481000  0.085300  1.0
  C  C411  1  0.005200  0.472000  0.906300  1.0
  C  C412  1  0.994800  0.528000  0.093700  1.0
  C  C413  1  0.041800  0.453400  0.939300  1.0
  C  C414  1  0.958200  0.546600  0.060700  1.0
  C  C415  1  0.069300  0.481400  0.978800  1.0
  C  C416  1  0.930700  0.518600  0.021200  1.0
  C  C417  1  0.056600  0.523700  0.981400  1.0
  C  C418  1  0.943400  0.476300  0.018600  1.0
  C  C419  1  0.347100  0.766100  0.778800  1.0
  C  C420  1  0.652900  0.233900  0.221200  1.0
  C  C421  1  0.384500  0.740300  0.756100  1.0
  C  C422  1  0.615500  0.259700  0.243900  1.0
  C  C423  1  0.429100  0.765400  0.761000  1.0
  C  C424  1  0.570900  0.234600  0.239000  1.0
  C  C425  1  0.438000  0.813000  0.783200  1.0
  C  C426  1  0.562000  0.187000  0.216800  1.0
  C  C427  1  0.396600  0.837000  0.798900  1.0
  C  C428  1  0.603400  0.163000  0.201100  1.0
  C  C429  1  0.331700  0.309000  0.830800  1.0
  C  C430  1  0.668300  0.691000  0.169200  1.0
  C  C431  1  0.363000  0.347600  0.811900  1.0
  C  C432  1  0.637000  0.652400  0.188100  1.0
  C  C433  1  0.397800  0.265100  0.860500  1.0
  C  C434  1  0.602200  0.734900  0.139500  1.0
  C  C435  1  0.175000  0.419500  0.639700  1.0
  C  C436  1  0.825000  0.580500  0.360300  1.0
  C  C437  1  0.129200  0.404700  0.663600  1.0
  C  C438  1  0.870800  0.595300  0.336400  1.0
  C  C439  1  0.113100  0.447000  0.682200  1.0
  C  C440  1  0.886900  0.553000  0.317800  1.0
  C  C441  1  0.138000  0.496600  0.686800  1.0
  C  C442  1  0.862000  0.503400  0.313200  1.0
  C  C443  1  0.184600  0.502500  0.661700  1.0
  C  C444  1  0.815400  0.497500  0.338300  1.0
  C  C445  1  0.198300  0.463500  0.639100  1.0
  C  C446  1  0.801700  0.536500  0.360900  1.0
  C  C447  1  0.192600  0.379100  0.613500  1.0
  C  C448  1  0.807400  0.620900  0.386500  1.0
  C  C449  1  0.213200  0.549300  0.660100  1.0
  C  C450  1  0.786800  0.450700  0.339900  1.0
  C  C451  1  0.315600  0.761100  0.652600  1.0
  C  C452  1  0.684400  0.238900  0.347400  1.0
  C  C453  1  0.300700  0.802000  0.672100  1.0
  C  C454  1  0.699300  0.198000  0.327900  1.0
  C  C455  1  0.328000  0.846700  0.684300  1.0
  C  C456  1  0.672000  0.153300  0.315700  1.0
  C  C457  1  0.371100  0.855500  0.648800  1.0
  C  C458  1  0.628900  0.144500  0.351200  1.0
  C  C459  1  0.388600  0.813000  0.636500  1.0
  C  C460  1  0.611400  0.187000  0.363500  1.0
  C  C461  1  0.363200  0.771000  0.633900  1.0
  C  C462  1  0.636800  0.229000  0.366100  1.0
  C  C463  1  0.290900  0.717500  0.650900  1.0
  C  C464  1  0.709100  0.282500  0.349100  1.0
  C  C465  1  0.434500  0.822900  0.616600  1.0
  C  C466  1  0.565500  0.177100  0.383400  1.0
  C  C467  1  0.388700  0.247700  0.712200  1.0
  C  C468  1  0.611300  0.752300  0.287800  1.0
  C  C469  1  0.370200  0.216400  0.743200  1.0
  C  C470  1  0.629800  0.783600  0.256800  1.0
  C  C471  1  0.317200  0.205000  0.739800  1.0
  C  C472  1  0.682800  0.795000  0.260200  1.0
  C  C473  1  0.284100  0.227000  0.704000  1.0
  C  C474  1  0.715900  0.773000  0.296000  1.0
  C  C475  1  0.307300  0.258600  0.671100  1.0
  C  C476  1  0.692700  0.741400  0.328900  1.0
  C  C477  1  0.361100  0.268800  0.675600  1.0
  C  C478  1  0.638900  0.731200  0.324400  1.0
  C  C479  1  0.447100  0.258700  0.716600  1.0
  C  C480  1  0.552900  0.741300  0.283400  1.0
  C  C481  1  0.272900  0.271000  0.634200  1.0
  C  C482  1  0.727100  0.729000  0.365800  1.0
  C  C483  1  0.418300  0.609400  0.819800  1.0
  C  C484  1  0.581700  0.390600  0.180200  1.0
  C  C485  1  0.401700  0.615400  0.866300  1.0
  C  C486  1  0.598300  0.384600  0.133700  1.0
  C  C487  1  0.348100  0.621200  0.864500  1.0
  C  C488  1  0.651900  0.378800  0.135500  1.0
  C  C489  1  0.312800  0.625100  0.823000  1.0
  C  C490  1  0.687200  0.374900  0.177000  1.0
  C  C491  1  0.338100  0.617300  0.780200  1.0
  C  C492  1  0.661900  0.382700  0.219800  1.0
  C  C493  1  0.388300  0.606300  0.777300  1.0
  C  C494  1  0.611700  0.393700  0.222700  1.0
  C  C495  1  0.476300  0.602800  0.820200  1.0
  C  C496  1  0.523700  0.397200  0.179800  1.0
  C  C497  1  0.300100  0.623400  0.735300  1.0
  C  C498  1  0.699900  0.376600  0.264700  1.0
  C  C499  1  0.575700  0.733100  0.786900  1.0
  C  C500  1  0.424300  0.266900  0.213100  1.0
  C  C501  1  0.583500  0.771500  0.823700  1.0
  C  C502  1  0.416500  0.228500  0.176300  1.0
  C  C503  1  0.584600  0.816400  0.809800  1.0
  C  C504  1  0.415400  0.183600  0.190200  1.0
  C  C505  1  0.575500  0.830800  0.764700  1.0
  C  C506  1  0.424500  0.169200  0.235300  1.0
  C  C507  1  0.567500  0.791500  0.729300  1.0
  C  C508  1  0.432500  0.208500  0.270700  1.0
  C  C509  1  0.566700  0.743400  0.738300  1.0
  C  C510  1  0.433300  0.256600  0.261700  1.0
  C  C511  1  0.578000  0.682500  0.798500  1.0
  C  C512  1  0.422000  0.317500  0.201500  1.0
  C  C513  1  0.556900  0.804400  0.675600  1.0
  C  C514  1  0.443100  0.195600  0.324400  1.0
  C  C515  1  0.550100  0.373500  0.825900  1.0
  C  C516  1  0.449900  0.626500  0.174100  1.0
  C  C517  1  0.554800  0.358300  0.873200  1.0
  C  C518  1  0.445200  0.641700  0.126800  1.0
  C  C519  1  0.562700  0.398400  0.913300  1.0
  C  C520  1  0.437300  0.601600  0.086700  1.0
  C  C521  1  0.561900  0.443700  0.896600  1.0
  C  C522  1  0.438100  0.556300  0.103400  1.0
  C  C523  1  0.557400  0.457900  0.849200  1.0
  C  C524  1  0.442600  0.542100  0.150800  1.0
  C  C525  1  0.547500  0.421500  0.811800  1.0
  C  C526  1  0.452500  0.578500  0.188200  1.0
  C  C527  1  0.546100  0.328200  0.791300  1.0
  C  C528  1  0.453900  0.671800  0.208700  1.0
  C  C529  1  0.560800  0.507400  0.840400  1.0
  C  C530  1  0.439200  0.492600  0.159600  1.0
  C  C531  1  0.785800  0.544800  0.774200  1.0
  C  C532  1  0.214200  0.455200  0.225800  1.0
  C  C533  1  0.825400  0.556800  0.810900  1.0
  C  C534  1  0.174600  0.443200  0.189100  1.0
  C  C535  1  0.808100  0.577300  0.852000  1.0
  C  C536  1  0.191900  0.422700  0.148000  1.0
  C  C537  1  0.755600  0.592200  0.854000  1.0
  C  C538  1  0.244400  0.407800  0.146000  1.0
  C  C539  1  0.718400  0.576600  0.813500  1.0
  C  C540  1  0.281600  0.423400  0.186500  1.0
  C  C541  1  0.730700  0.552900  0.771700  1.0
  C  C542  1  0.269300  0.447100  0.228300  1.0
  C  C543  1  0.800000  0.514800  0.727500  1.0
  C  C544  1  0.200000  0.485200  0.272500  1.0
  C  C545  1  0.661700  0.583100  0.812600  1.0
  C  C546  1  0.338300  0.416900  0.187400  1.0
  C  C547  1  0.769300  0.348600  0.714100  1.0
  C  C548  1  0.230700  0.651400  0.285900  1.0
  C  C549  1  0.799000  0.315100  0.744500  1.0
  C  C550  1  0.201000  0.684900  0.255500  1.0
  C  C551  1  0.784000  0.284000  0.771200  1.0
  C  C552  1  0.216000  0.716000  0.228800  1.0
  C  C553  1  0.726000  0.269300  0.758900  1.0
  C  C554  1  0.274000  0.730700  0.241100  1.0
  C  C555  1  0.697200  0.298700  0.727800  1.0
  C  C556  1  0.302800  0.701300  0.272200  1.0
  C  C557  1  0.709900  0.339400  0.708400  1.0
  C  C558  1  0.290100  0.660600  0.291600  1.0
  C  C559  1  0.781400  0.393900  0.693300  1.0
  C  C560  1  0.218600  0.606100  0.306700  1.0
  C  C561  1  0.641400  0.286100  0.728000  1.0
  C  C562  1  0.358600  0.713900  0.272000  1.0
  C  C563  1  0.855000  0.387000  0.551000  1.0
  C  C564  1  0.145000  0.613000  0.449000  1.0
  C  C565  1  0.894000  0.351000  0.554000  1.0
  C  C566  1  0.106000  0.649000  0.446000  1.0
  C  C567  1  0.914000  0.333000  0.506000  1.0
  C  C568  1  0.086000  0.667000  0.494000  1.0
  C  C569  1  0.879000  0.322000  0.471000  1.0
  C  C570  1  0.121000  0.678000  0.529000  1.0
  C  C571  1  0.840000  0.357000  0.468000  1.0
  C  C572  1  0.160000  0.643000  0.532000  1.0
  C  C573  1  0.823800  0.383300  0.506000  1.0
  C  C574  1  0.176200  0.616700  0.494000  1.0
  C  C575  1  0.833000  0.411800  0.589400  1.0
  C  C576  1  0.167000  0.588200  0.410600  1.0
  C  C577  1  0.198500  0.638400  0.578400  1.0
  C  C578  1  0.801500  0.361600  0.421600  1.0
  C  C579  1  0.475900  0.860300  0.463700  1.0
  C  C580  1  0.524100  0.139700  0.536300  1.0
  C  C581  1  0.464200  0.904500  0.454700  1.0
  C  C582  1  0.535800  0.095500  0.545300  1.0
  C  C583  1  0.446000  0.922000  0.410000  1.0
  C  C584  1  0.554000  0.078000  0.590000  1.0
  C  C585  1  0.438000  0.874700  0.372000  1.0
  C  C586  1  0.562000  0.125300  0.628000  1.0
  C  C587  1  0.457700  0.831800  0.378200  1.0
  C  C588  1  0.542300  0.168200  0.621800  1.0
  C  C589  1  0.473200  0.820000  0.429600  1.0
  C  C590  1  0.526800  0.180000  0.570400  1.0
  C  C591  1  0.494600  0.840500  0.511800  1.0
  C  C592  1  0.505400  0.159500  0.488200  1.0
  C  C593  1  0.541500  0.203200  0.663400  1.0
  C  C594  1  0.458500  0.796800  0.336600  1.0
  C  C595  1  0.883600  0.587100  0.601300  1.0
  C  C596  1  0.116400  0.412900  0.398700  1.0
  C  C597  1  0.934300  0.600800  0.617900  1.0
  C  C598  1  0.065700  0.399200  0.382100  1.0
  C  C599  1  0.945200  0.639500  0.594700  1.0
  C  C600  1  0.054800  0.360500  0.405300  1.0
  C  C601  1  0.916600  0.663400  0.555400  1.0
  C  C602  1  0.083400  0.336600  0.444600  1.0
  C  C603  1  0.866200  0.639900  0.544500  1.0
  C  C604  1  0.133800  0.360100  0.455500  1.0
  C  C605  1  0.849400  0.600000  0.565900  1.0
  C  C606  1  0.150600  0.400000  0.434100  1.0
  C  C607  1  0.857000  0.543000  0.622400  1.0
  C  C608  1  0.143000  0.457000  0.377600  1.0
  C  C609  1  0.160200  0.333500  0.494800  1.0
  C  C610  1  0.839800  0.666500  0.505200  1.0
  C  C611  1  0.667700  0.837800  0.551200  1.0
  C  C612  1  0.332300  0.162200  0.448800  1.0
  C  C613  1  0.693000  0.888000  0.561000  1.0
  C  C614  1  0.307000  0.112000  0.439000  1.0
  C  C615  1  0.737000  0.891000  0.538000  1.0
  C  C616  1  0.263000  0.109000  0.462000  1.0
  C  C617  1  0.763000  0.849000  0.512000  1.0
  C  C618  1  0.237000  0.151000  0.488000  1.0
  C  C619  1  0.733000  0.799000  0.511000  1.0
  C  C620  1  0.267000  0.201000  0.489000  1.0
  C  C621  1  0.686400  0.798400  0.527800  1.0
  C  C622  1  0.313600  0.201600  0.472200  1.0
  C  C623  1  0.613000  0.833300  0.569700  1.0
  C  C624  1  0.387000  0.166700  0.430300  1.0
  C  C625  1  0.244700  0.235700  0.514000  1.0
  C  C626  1  0.755300  0.764300  0.486000  1.0
  C  C627  1  0.065000  0.263800  0.575500  1.0
  C  C628  1  0.935000  0.736200  0.424500  1.0
  C  C629  1  0.020000  0.233300  0.587100  1.0
  C  C630  1  0.980000  0.766700  0.412900  1.0
  C  C631  1  0.021000  0.192200  0.599000  1.0
  C  C632  1  0.979000  0.807800  0.401000  1.0
  C  C633  1  0.063000  0.169800  0.611300  1.0
  C  C634  1  0.937000  0.830200  0.388700  1.0
  C  C635  1  0.116400  0.192900  0.598800  1.0
  C  C636  1  0.883600  0.807100  0.401200  1.0
  C  C637  1  0.348000  0.402900  0.564000  1.0
  C  C638  1  0.652000  0.597100  0.436000  1.0
  C  C639  1  0.334100  0.372000  0.493200  1.0
  C  C640  1  0.665900  0.628000  0.506800  1.0
  C  C641  1  0.162000  0.700900  0.754600  1.0
  C  C642  1  0.838000  0.299100  0.245400  1.0
  C  C643  1  0.123000  0.725500  0.782200  1.0
  C  C644  1  0.877000  0.274500  0.217800  1.0
  C  C645  1  0.077000  0.708100  0.764000  1.0
  C  C646  1  0.923000  0.291900  0.236000  1.0
  C  C647  1  0.063000  0.680200  0.724000  1.0
  C  C648  1  0.937000  0.319800  0.276000  1.0
  C  C649  1  0.109000  0.666300  0.699900  1.0
  C  C650  1  0.891000  0.333700  0.300100  1.0
  C  C651  1  0.485100  0.974200  0.620000  1.0
  C  C652  1  0.514900  0.025800  0.380000  1.0
  C  C653  1  0.586000  0.992000  0.685400  1.0
  C  C654  1  0.414000  0.008000  0.314600  1.0
  C  C655  1  0.568000  0.950000  0.647000  1.0
  C  C656  1  0.432000  0.050000  0.353000  1.0
  C  C657  1  0.461500  0.689100  0.522600  1.0
  C  C658  1  0.538500  0.310900  0.477400  1.0
  C  C659  1  0.563100  0.603000  0.965600  1.0
  C  C660  1  0.436900  0.397000  0.034400  1.0
  C  C661  1  0.567800  0.620200  0.018900  1.0
  C  C662  1  0.432200  0.379800  0.981100  1.0
  C  C663  1  0.606000  0.654900  0.030500  1.0
  C  C664  1  0.394000  0.345100  0.969500  1.0
  C  C665  1  0.628300  0.684200  0.002800  1.0
  C  C666  1  0.371700  0.315800  0.997200  1.0
  C  C667  1  0.616000  0.668300  0.954400  1.0
  C  C668  1  0.384000  0.331700  0.045600  1.0
  C  C669  1  0.596000  0.174000  0.834000  1.0
  C  C670  1  0.404000  0.826000  0.166000  1.0
  C  C671  1  0.974000  0.490000  0.741000  1.0
  C  C672  1  0.026000  0.510000  0.259000  1.0
  C  C673  1  0.954700  0.408000  0.709100  1.0
  C  C674  1  0.045300  0.592000  0.290900  1.0
  N  N675  1  0.540100  0.992900  0.788700  1.0
  N  N676  1  0.459900  0.007100  0.211300  1.0
  N  N677  1  0.991400  0.795400  0.963300  1.0
  N  N678  1  0.008600  0.204600  0.036700  1.0
  N  N679  1  0.785700  0.989500  0.912700  1.0
  N  N680  1  0.214300  0.010500  0.087300  1.0
  N  N681  1  0.170800  0.122500  0.944900  1.0
  N  N682  1  0.829200  0.877500  0.055100  1.0
  N  N683  1  0.957700  0.104100  0.837200  1.0
  N  N684  1  0.042300  0.895900  0.162800  1.0
  N  N685  1  0.953100  0.899700  0.815300  1.0
  N  N686  1  0.046900  0.100300  0.184700  1.0
  N  N687  1  0.161700  0.914900  0.911000  1.0
  N  N688  1  0.838300  0.085100  0.089000  1.0
  N  N689  1  0.887600  0.250700  0.646500  1.0
  N  N690  1  0.112400  0.749300  0.353500  1.0
  N  N691  1  0.018500  0.549800  0.951600  1.0
  N  N692  1  0.981500  0.450200  0.048400  1.0
  N  N693  1  0.353600  0.809500  0.798400  1.0
  N  N694  1  0.646400  0.190500  0.201600  1.0
  N  N695  1  0.349600  0.273400  0.854900  1.0
  N  N696  1  0.650400  0.726600  0.145100  1.0
  N  N697  1  0.892300  0.792200  0.589000  1.0
  N  N698  1  0.107700  0.207800  0.411000  1.0
  N  N699  1  0.109400  0.235100  0.587900  1.0
  N  N700  1  0.890600  0.764900  0.412100  1.0
  N  N701  1  0.317700  0.378100  0.535900  1.0
  N  N702  1  0.682300  0.621900  0.464100  1.0
  N  N703  1  0.154800  0.674800  0.717000  1.0
  N  N704  1  0.845200  0.325200  0.283000  1.0
  N  N705  1  0.346300  0.577100  0.597600  1.0
  N  N706  1  0.653700  0.422900  0.402400  1.0
  N  N707  1  0.533500  0.943200  0.630600  1.0
  N  N708  1  0.466500  0.056800  0.369400  1.0
  N  N709  1  0.514500  0.704800  0.557400  1.0
  N  N710  1  0.485500  0.295200  0.442600  1.0
  N  N711  1  0.588600  0.630700  0.938800  1.0
  N  N712  1  0.411400  0.369300  0.061200  1.0
  N  N713  1  0.548000  0.562700  0.694100  1.0
  N  N714  1  0.452000  0.437300  0.305900  1.0
  N  N715  1  0.554900  0.184400  0.804200  1.0
  N  N716  1  0.445100  0.815600  0.195800  1.0
  N  N717  1  0.528100  0.354600  0.636000  1.0
  N  N718  1  0.471900  0.645400  0.364000  1.0
  N  N719  1  0.942000  0.449200  0.728500  1.0
  N  N720  1  0.058000  0.550800  0.271500  1.0
  N  N721  1  0.700900  0.487500  0.602900  1.0
  N  N722  1  0.299100  0.512500  0.397100  1.0
  O  O723  1  0.974800  0.628900  0.884900  1.0
  O  O724  1  0.025200  0.371100  0.115100  1.0
  O  O725  1  0.970300  0.708400  0.892800  1.0
  O  O726  1  0.029700  0.291600  0.107200  1.0
  O  O727  1  0.913700  0.768500  0.687400  1.0
  O  O728  1  0.086300  0.231500  0.312600  1.0
  O  O729  1  0.933100  0.805000  0.761600  1.0
  O  O730  1  0.066900  0.195000  0.238400  1.0
  O  O731  1  0.073600  0.642500  0.938200  1.0
  O  O732  1  0.926400  0.357500  0.061800  1.0
  O  O733  1  0.068300  0.720500  0.943500  1.0
  O  O734  1  0.931700  0.279500  0.056500  1.0
  O  O735  1  0.268800  0.790400  0.856300  1.0
  O  O736  1  0.731200  0.209600  0.143700  1.0
  O  O737  1  0.203600  0.821700  0.888300  1.0
  O  O738  1  0.796400  0.178300  0.111700  1.0
  O  O739  1  0.305800  0.911300  0.809000  1.0
  O  O740  1  0.694200  0.088700  0.191000  1.0
  O  O741  1  0.249200  0.945400  0.850000  1.0
  O  O742  1  0.750800  0.054600  0.150000  1.0
  O  O743  1  0.311600  0.164700  0.849700  1.0
  O  O744  1  0.688400  0.835300  0.150300  1.0
  O  O745  1  0.250700  0.116500  0.878100  1.0
  O  O746  1  0.749300  0.883500  0.121900  1.0
  O  O747  1  0.988600  0.827600  0.660700  1.0
  O  O748  1  0.011400  0.172400  0.339300  1.0
  O  O749  1  0.007700  0.865800  0.732300  1.0
  O  O750  1  0.992300  0.134200  0.267700  1.0
  O  O751  1  0.240700  0.831100  0.779000  1.0
  O  O752  1  0.759300  0.168900  0.221000  1.0
  O  O753  1  0.179700  0.870800  0.810000  1.0
  O  O754  1  0.820300  0.129200  0.190000  1.0
  O  O755  1  0.990100  0.218600  0.712300  1.0
  O  O756  1  0.009900  0.781400  0.287700  1.0
  O  O757  1  0.009800  0.171900  0.769500  1.0
  O  O758  1  0.990200  0.828100  0.230500  1.0
  O  O759  1  0.239600  0.234700  0.829700  1.0
  O  O760  1  0.760400  0.765300  0.170300  1.0
  O  O761  1  0.180400  0.183900  0.856800  1.0
  O  O762  1  0.819600  0.816100  0.143200  1.0
  O  O763  1  0.644900  0.044000  0.793800  1.0
  O  O764  1  0.355100  0.956000  0.206200  1.0
  O  O765  1  0.725000  0.044100  0.832100  1.0
  O  O766  1  0.275000  0.955900  0.167900  1.0
  O  O767  1  0.844600  0.181500  0.712500  1.0
  O  O768  1  0.155400  0.818500  0.287500  1.0
  O  O769  1  0.863500  0.140000  0.776500  1.0
  O  O770  1  0.136500  0.860000  0.223500  1.0
  O  O771  1  0.343500  0.205400  0.936200  1.0
  O  O772  1  0.656500  0.794600  0.063800  1.0
  O  O773  1  0.280300  0.160000  0.964300  1.0
  O  O774  1  0.719700  0.840000  0.035700  1.0
  O  O775  1  0.602400  0.936500  0.865800  1.0
  O  O776  1  0.397600  0.063500  0.134200  1.0
  O  O777  1  0.679900  0.935800  0.906000  1.0
  O  O778  1  0.320100  0.064200  0.094000  1.0
  O  O779  1  0.916600  0.890200  0.635900  1.0
  O  O780  1  0.083400  0.109800  0.364100  1.0
  O  O781  1  0.935200  0.927900  0.708000  1.0
  O  O782  1  0.064800  0.072100  0.292000  1.0
  O  O783  1  0.927900  0.146500  0.667300  1.0
  O  O784  1  0.072100  0.853500  0.332700  1.0
  O  O785  1  0.936100  0.099700  0.727000  1.0
  O  O786  1  0.063900  0.900300  0.273000  1.0
  O  O787  1  0.930700  0.623300  0.967700  1.0
  O  O788  1  0.069300  0.376700  0.032300  1.0
  O  O789  1  0.930100  0.702900  0.978400  1.0
  O  O790  1  0.069900  0.297100  0.021600  1.0
  O  O791  1  0.268300  0.273800  0.923600  1.0
  O  O792  1  0.731700  0.726200  0.076400  1.0
  O  O793  1  0.205300  0.224600  0.947400  1.0
  O  O794  1  0.794700  0.775400  0.052600  1.0
  O  O795  1  0.647700  0.944400  0.782000  1.0
  O  O796  1  0.352300  0.055600  0.218000  1.0
  O  O797  1  0.725700  0.945400  0.822800  1.0
  O  O798  1  0.274300  0.054600  0.177200  1.0
  O  O799  1  0.845000  0.837400  0.671000  1.0
  O  O800  1  0.155000  0.162600  0.329000  1.0
  O  O801  1  0.861500  0.871400  0.744200  1.0
  O  O802  1  0.138500  0.128600  0.255800  1.0
  O  O803  1  0.605200  0.035000  0.879700  1.0
  O  O804  1  0.394800  0.965000  0.120300  1.0
  O  O805  1  0.686000  0.035100  0.916100  1.0
  O  O806  1  0.314000  0.964900  0.083900  1.0
  O  O807  1  0.339500  0.860900  0.888300  1.0
  O  O808  1  0.660500  0.139100  0.111700  1.0
  O  O809  1  0.275900  0.891500  0.926800  1.0
  O  O810  1  0.724100  0.108500  0.073200  1.0
  O  O811  1  0.027700  0.631800  0.022200  1.0
  O  O812  1  0.972300  0.368200  0.977800  1.0
  O  O813  1  0.028500  0.708000  0.027500  1.0
  O  O814  1  0.971500  0.292000  0.972500  1.0
  O  O815  1  0.912300  0.254900  0.752700  1.0
  O  O816  1  0.087700  0.745100  0.247300  1.0
  O  O817  1  0.934300  0.207500  0.815000  1.0
  O  O818  1  0.065700  0.792500  0.185000  1.0
  O  O819  1  0.165600  0.336600  0.611000  1.0
  O  O820  1  0.834400  0.663400  0.389000  1.0
  O  O821  1  0.232000  0.379200  0.593800  1.0
  O  O822  1  0.768000  0.620800  0.406200  1.0
  O  O823  1  0.186500  0.584000  0.677300  1.0
  O  O824  1  0.813500  0.416000  0.322700  1.0
  O  O825  1  0.250000  0.552200  0.642300  1.0
  O  O826  1  0.750000  0.447800  0.357700  1.0
  O  O827  1  0.253200  0.713500  0.673900  1.0
  O  O828  1  0.746800  0.286500  0.326100  1.0
  O  O829  1  0.310100  0.682200  0.631500  1.0
  O  O830  1  0.689900  0.317800  0.368500  1.0
  O  O831  1  0.462100  0.860600  0.623300  1.0
  O  O832  1  0.537900  0.139400  0.376700  1.0
  O  O833  1  0.456300  0.783300  0.599100  1.0
  O  O834  1  0.543700  0.216700  0.400900  1.0
  O  O835  1  0.473500  0.230900  0.743400  1.0
  O  O836  1  0.526500  0.769100  0.256600  1.0
  O  O837  1  0.462700  0.289100  0.692400  1.0
  O  O838  1  0.537300  0.710900  0.307600  1.0
  O  O839  1  0.228700  0.259800  0.626500  1.0
  O  O840  1  0.771300  0.740200  0.373500  1.0
  O  O841  1  0.293800  0.304500  0.610900  1.0
  O  O842  1  0.706200  0.695500  0.389100  1.0
  O  O843  1  0.502900  0.606000  0.860100  1.0
  O  O844  1  0.497100  0.394000  0.139900  1.0
  O  O845  1  0.489600  0.591000  0.779900  1.0
  O  O846  1  0.510400  0.409000  0.220100  1.0
  O  O847  1  0.259700  0.639300  0.736000  1.0
  O  O848  1  0.740300  0.360700  0.264000  1.0
  O  O849  1  0.321700  0.610300  0.696600  1.0
  O  O850  1  0.678300  0.389700  0.303400  1.0
  O  O851  1  0.580400  0.672700  0.840600  1.0
  O  O852  1  0.419600  0.327300  0.159400  1.0
  O  O853  1  0.569200  0.649800  0.765600  1.0
  O  O854  1  0.430800  0.350200  0.234400  1.0
  O  O855  1  0.557400  0.849500  0.669200  1.0
  O  O856  1  0.442600  0.150500  0.330800  1.0
  O  O857  1  0.549700  0.769300  0.646400  1.0
  O  O858  1  0.450300  0.230700  0.353600  1.0
  O  O859  1  0.548500  0.288000  0.799700  1.0
  O  O860  1  0.451500  0.712000  0.200300  1.0
  O  O861  1  0.538300  0.348400  0.747300  1.0
  O  O862  1  0.461700  0.651600  0.252700  1.0
  O  O863  1  0.571700  0.540100  0.874000  1.0
  O  O864  1  0.428300  0.459900  0.126000  1.0
  O  O865  1  0.553100  0.514200  0.796900  1.0
  O  O866  1  0.446900  0.485800  0.203100  1.0
  O  O867  1  0.844300  0.497700  0.733800  1.0
  O  O868  1  0.155700  0.502300  0.266200  1.0
  O  O869  1  0.766500  0.506300  0.695100  1.0
  O  O870  1  0.233500  0.493700  0.304900  1.0
  O  O871  1  0.650700  0.601600  0.854900  1.0
  O  O872  1  0.349300  0.398400  0.145100  1.0
  O  O873  1  0.635100  0.574200  0.777400  1.0
  O  O874  1  0.364900  0.425800  0.222600  1.0
  O  O875  1  0.833600  0.404200  0.705600  1.0
  O  O876  1  0.166400  0.595800  0.294400  1.0
  O  O877  1  0.755800  0.418500  0.666300  1.0
  O  O878  1  0.244200  0.581500  0.333700  1.0
  O  O879  1  0.623500  0.254800  0.751400  1.0
  O  O880  1  0.376500  0.745200  0.248600  1.0
  O  O881  1  0.612100  0.308300  0.697000  1.0
  O  O882  1  0.387900  0.691700  0.303000  1.0
  O  O883  1  0.878600  0.422900  0.622500  1.0
  O  O884  1  0.121400  0.577100  0.377500  1.0
  O  O885  1  0.801400  0.435800  0.586400  1.0
  O  O886  1  0.198600  0.564200  0.413600  1.0
  O  O887  1  0.176700  0.654700  0.616500  1.0
  O  O888  1  0.823300  0.345300  0.383500  1.0
  O  O889  1  0.239800  0.619300  0.577200  1.0
  O  O890  1  0.760200  0.380700  0.422800  1.0
  O  O891  1  0.503200  0.880200  0.540300  1.0
  O  O892  1  0.496800  0.119800  0.459700  1.0
  O  O893  1  0.502100  0.802900  0.519100  1.0
  O  O894  1  0.497900  0.197100  0.480900  1.0
  O  O895  1  0.552200  0.191200  0.700800  1.0
  O  O896  1  0.447800  0.808800  0.299200  1.0
  O  O897  1  0.537800  0.246200  0.647900  1.0
  O  O898  1  0.462200  0.753800  0.352100  1.0
  O  O899  1  0.890100  0.519000  0.654200  1.0
  O  O900  1  0.109900  0.481000  0.345800  1.0
  O  O901  1  0.812500  0.527000  0.614600  1.0
  O  O902  1  0.187500  0.473000  0.385400  1.0
  O  O903  1  0.141900  0.302300  0.517800  1.0
  O  O904  1  0.858100  0.697700  0.482200  1.0
  O  O905  1  0.208100  0.352500  0.500300  1.0
  O  O906  1  0.791900  0.647500  0.499700  1.0
  O  O907  1  0.599100  0.870400  0.584700  1.0
  O  O908  1  0.400900  0.129600  0.415300  1.0
  O  O909  1  0.595800  0.792100  0.566900  1.0
  O  O910  1  0.404200  0.207900  0.433100  1.0
  O  O911  1  0.206600  0.227300  0.535400  1.0
  O  O912  1  0.793400  0.772700  0.464600  1.0
  O  O913  1  0.271100  0.275400  0.515400  1.0
  O  O914  1  0.728900  0.724600  0.484600  1.0
