
#######################################################################
#
#                 Cambridge Crystallographic Data Centre
#                                CCDC 
#
#######################################################################
#
# If this CIF has been generated from an entry in the Cambridge 
# Structural Database, then it will include bibliographic, chemical, 
# crystal, experimental, refinement or atomic coordinate data resulting 
# from the CCDC's data processing and validation procedures.
#
#######################################################################

data_XEXZUV
_chemical_formula_moiety         'C1 H4 O1,C264 H204 Cu24 N12 O60'
_chemical_name_systematic        
'tetracosakis(\m~4~-benzene-1,3-dicarboxylato)-dodecakis(methanol)-dodecakis(pyridine)-tetracosa-copper methanol clathrate'
_symmetry_cell_setting           triclinic
_symmetry_space_group_name_H-M   'P -1'
_symmetry_Int_Tables_number      2
_space_group_name_Hall           '-P 1'
loop_
_symmetry_equiv_pos_site_id
_symmetry_equiv_pos_as_xyz
1 x,y,z
2 -x,-y,-z
_cell_length_a                   26.202(9)
_cell_length_b                   27.756(10)
_cell_length_c                   28.407(10)
_cell_angle_alpha                92.583(5)
_cell_angle_beta                 96.393(5)
_cell_angle_gamma                92.643(5)
_cell_volume                     20482.8
_exptl_crystal_colour            blue
_exptl_crystal_description       block
_cell_formula_units_Z            2
loop_
_atom_site_label
_atom_site_type_symbol
_atom_site_fract_x
_atom_site_fract_y
_atom_site_fract_z
Cu1 Cu 0.00243(16) 0.62222(17) 0.95239(15)
Cu2 Cu -0.00081(16) 0.71634(17) 0.96082(15)
Cu3 Cu 0.29323(15) 0.84535(18) 0.82998(15)
Cu4 Cu 0.22165(15) 0.88529(18) 0.87334(15)
Cu5 Cu 0.29547(14) 1.22442(17) 0.88154(15)
Cu6 Cu 0.22515(14) 1.16835(17) 0.91342(15)
Cu7 Cu -0.08367(15) 1.20427(18) 0.70510(15)
Cu8 Cu -0.06288(14) 1.15162(18) 0.77806(14)
Cu9 Cu -0.38240(13) 0.98934(17) 0.82696(13)
Cu10 Cu -0.28993(14) 0.98982(18) 0.87194(14)
Cu11 Cu -0.08615(15) 0.8290(2) 0.65802(15)
Cu12 Cu -0.06487(15) 0.86965(19) 0.74273(14)
O1 O -0.0252(8) 0.6289(9) 0.8849(7)
O2 O -0.0297(8) 0.7084(10) 0.8928(7)
O3 O -0.0863(9) 0.7685(9) 0.6874(8)
O4 O -0.0669(7) 0.8050(9) 0.7616(7)
C1 C -0.0531(12) 0.6724(15) 0.8186(13)
C2 C -0.0624(14) 0.6277(15) 0.7919(15)
C3 C -0.0796(13) 0.6318(14) 0.7428(14)
C4 C -0.0828(13) 0.6755(15) 0.7245(13)
C5 C -0.0725(12) 0.7204(14) 0.7521(13)
C6 C -0.0551(12) 0.7164(14) 0.8024(13)
C7 C -0.0349(13) 0.6687(15) 0.8697(14)
C8 C -0.0759(14) 0.7679(16) 0.7318(16)
O5 O 0.0736(7) 0.6425(10) 0.9382(7)
O6 O 0.0683(8) 0.7205(8) 0.9435(7)
O7 O 0.2688(7) 0.7904(8) 0.8563(8)
O8 O 0.2036(7) 0.8217(9) 0.8883(7)
C9 C 0.1444(14) 0.6906(14) 0.9197(12)
C10 C 0.1734(17) 0.6452(15) 0.9199(14)
C11 C 0.2221(17) 0.6520(17) 0.9042(15)
C12 C 0.2388(14) 0.6975(16) 0.8932(13)
C13 C 0.2115(13) 0.7410(13) 0.8933(11)
C14 C 0.1604(13) 0.7335(14) 0.9116(12)
C15 C 0.0880(14) 0.6864(15) 0.9323(12)
C16 C 0.2301(13) 0.7880(13) 0.8781(11)
O9 O 0.3058(8) 0.9113(8) 0.8090(8)
O10 O 0.2492(7) 0.9454(8) 0.8500(8)
O11 O 0.3116(8) 1.1647(8) 0.8497(7)
O12 O 0.2507(7) 1.1165(8) 0.8781(7)
C17 C 0.3006(13) 0.9956(15) 0.8148(13)
C18 C 0.3352(14) 1.0023(14) 0.7793(13)
C19 C 0.3508(17) 1.048(2) 0.7709(16)
C20 C 0.3384(16) 1.0905(16) 0.7880(15)
C21 C 0.3048(15) 1.0767(16) 0.8267(14)
C22 C 0.2842(12) 1.0358(15) 0.8352(12)
C23 C 0.2861(14) 0.9505(15) 0.8256(12)
C24 C 0.2877(14) 1.1240(14) 0.8530(13)
O13 O -0.0114(8) 0.8276(10) 0.6607(8)
O14 O 0.0077(8) 0.8658(10) 0.7323(8)
O15 O 0.2407(7) 0.8311(10) 0.7790(8)
O16 O 0.1797(7) 0.8708(9) 0.8100(9)
C25 C 0.0752(18) 0.8299(17) 0.7014(18)
C26 C 0.082(2) 0.800(2) 0.662(2)
C27 C 0.137(4) 0.783(3) 0.659(3)
C28 C 0.166(3) 0.793(3) 0.697(3)
C29 C 0.160(2) 0.8368(18) 0.7356(19)
C30 C 0.1059(15) 0.8530(13) 0.7381(13)
C31 C 0.0158(16) 0.8422(14) 0.6981(16)
C32 C 0.1986(15) 0.8466(13) 0.7789(14)
O17 O -0.0099(7) 1.2186(9) 0.7123(9)
O18 O 0.0098(6) 1.1719(8) 0.7695(7)
O19 O 0.2396(8) 1.2347(8) 0.8297(7)
O20 O 0.1804(7) 1.1839(7) 0.8568(7)
C33 C 0.0759(14) 1.2218(12) 0.7489(13)
C34 C 0.0891(14) 1.2501(13) 0.7087(13)
C35 C 0.1433(14) 1.2716(12) 0.7161(12)
C36 C 0.1760(12) 1.2562(12) 0.7562(12)
C37 C 0.1609(13) 1.2255(12) 0.7881(13)
C38 C 0.1081(13) 1.2041(11) 0.7868(11)
C39 C 0.0196(15) 1.2057(13) 0.7453(13)
C40 C 0.1935(11) 1.2135(11) 0.8293(11)
O21 O -0.3551(7) 1.0440(9) 0.7938(7)
O22 O -0.2750(7) 1.0441(8) 0.8321(7)
O23 O -0.1554(7) 1.1815(9) 0.7125(8)
O24 O -0.1365(7) 1.1400(9) 0.7765(7)
C41 C -0.2891(13) 1.0971(12) 0.7730(11)
C42 C -0.3256(12) 1.1203(12) 0.7404(12)
C43 C -0.3095(13) 1.1516(12) 0.7118(12)
C44 C -0.2561(15) 1.1656(13) 0.7128(13)
C45 C -0.2252(13) 1.1407(12) 0.7433(12)
C46 C -0.2371(11) 1.1079(11) 0.7732(10)
C47 C -0.3085(13) 1.0579(11) 0.7989(11)
C48 C -0.1642(14) 1.1537(13) 0.7443(14)
O25 O 0.3435(7) 1.2054(9) 0.9362(8)
O26 O 0.2803(8) 1.1600(9) 0.9643(8)
O27 O -0.3976(7) 0.9365(9) 0.8658(7)
O28 O -0.3201(9) 0.9358(8) 0.9060(7)
C49 C 0.3615(13) 1.1638(12) 1.0036(12)
C50 C 0.4152(13) 1.1850(11) 1.0093(12)
C51 C 0.4500(11) 1.1703(11) 1.0463(11)
C52 C 0.4342(12) 1.1327(11) 1.0765(11)
C53 C 0.3826(14) 1.1153(13) 1.0710(13)
C54 C 0.3471(13) 1.1301(12) 1.0340(12)
C55 C 0.3206(15) 1.1750(12) 0.9640(13)
C56 C -0.3666(15) 0.9242(13) 0.8984(13)
O29 O -0.0834(8) 0.8902(10) 0.6359(8)
O30 O -0.0648(8) 0.9279(9) 0.7080(7)
O31 O -0.0721(8) 1.1465(8) 0.6673(7)
O32 O -0.0639(7) 1.0997(8) 0.7270(8)
C57 C -0.0730(14) 0.9736(17) 0.6449(16)
C58 C -0.083(2) 0.9919(19) 0.586(2)
C59 C -0.0770(16) 1.0750(15) 0.6048(17)
C60 C -0.0693(12) 1.0610(15) 0.6544(14)
C61 C -0.0670(12) 1.0157(15) 0.6720(12)
C62 C -0.0727(14) 0.9298(16) 0.6685(16)
C63 C -0.0695(12) 1.1049(14) 0.6819(13)
O33 O -0.0693(8) 0.6233(8) 0.9677(8)
O34 O -0.0699(7) 0.7029(9) 0.9784(7)
O35 O 0.2683(7) 1.2738(8) 0.9236(7)
O36 O 0.2053(8) 1.2246(9) 0.9474(7)
C64 C -0.1466(14) 0.6547(15) 0.9928(13)
C65 C -0.1674(14) 0.6133(14) 0.9849(12)
C66 C -0.2164(15) 0.6088(14) 1.0037(13)
C67 C -0.2378(12) 0.6485(13) 1.0256(11)
C68 C -0.2097(12) 0.6912(12) 1.0287(10)
C69 C -0.1602(11) 0.6987(11) 1.0153(10)
C70 C -0.0900(15) 0.6579(15) 0.9799(13)
C71 C 0.2296(13) 1.2663(13) 0.9451(12)
O37 O -0.3523(7) 0.9444(8) 0.7820(6)
O38 O -0.2743(7) 0.9454(8) 0.8228(7)
O39 O -0.1550(8) 0.8374(10) 0.6710(7)
O40 O -0.1385(7) 0.8714(8) 0.7442(7)
C72 C -0.2906(13) 0.9026(12) 0.7516(12)
C73 C -0.3239(14) 0.8800(14) 0.7163(15)
C74 C -0.3134(15) 0.8496(14) 0.6764(14)
C75 C -0.2562(14) 0.8424(12) 0.6771(13)
C76 C -0.2245(13) 0.8663(12) 0.7141(13)
C77 C -0.2361(11) 0.8943(10) 0.7539(11)
C78 C -0.3085(12) 0.9346(10) 0.7900(11)
C79 C -0.1682(14) 0.8526(13) 0.7051(15)
O41 O -0.3948(8) 1.0350(8) 0.8797(8)
O42 O -0.3140(8) 1.0351(8) 0.9161(7)
O43 O 0.3395(8) 0.8609(9) 0.8883(7)
O44 O 0.2759(7) 0.8915(8) 0.9268(7)
C80 C -0.3760(14) 1.0759(12) 0.9535(13)
C81 C -0.4266(15) 1.0911(13) 0.9520(14)
C82 C -0.4415(16) 1.1167(14) 0.9915(16)
C83 C -0.4066(14) 1.1257(12) 1.0310(13)
C84 C -0.3563(13) 1.1118(11) 1.0340(12)
C85 C -0.3423(11) 1.0847(11) 0.9947(12)
C86 C -0.3592(13) 1.0483(11) 0.9139(12)
C87 C 0.3192(13) 0.8781(11) 0.9251(12)
O45 O 0.0277(8) 0.6318(10) 1.0222(7)
O46 O 0.0285(8) 0.7080(10) 1.0275(7)
O47 O -0.0877(8) 1.2549(10) 0.7527(8)
O48 O -0.0657(7) 1.2075(10) 0.8150(7)
C88 C 0.0568(12) 0.6655(14) 1.0974(13)
C89 C 0.0714(14) 0.6214(15) 1.1090(14)
C90 C 0.0823(16) 0.6235(16) 1.1599(17)
C91 C 0.0911(17) 0.6638(19) 1.1895(17)
C92 C 0.0775(14) 0.7033(15) 1.1709(15)
C93 C 0.0582(12) 0.7112(13) 1.1186(12)
C94 C 0.0386(15) 0.6708(16) 1.0491(18)
C95 C -0.0783(12) 1.2470(13) 0.7985(13)
N1 N -0.4599(9) 0.9929(13) 0.7887(10)
N2 N -0.0086(10) 0.7954(9) 0.9633(9)
N3 N -0.2143(9) 0.9895(11) 0.9127(9)
N4 N 0.1708(11) 1.1225(10) 0.9449(10)
N5 N -0.0423(11) 1.1041(11) 0.8372(8)
N6 N -0.0469(11) 0.8997(11) 0.8153(9)
N7 N 0.1617(11) 0.9149(13) 0.9110(11)
N8 N -0.1124(12) 1.2507(11) 0.6465(9)
N9 N 0.0185(15) 0.5498(10) 0.9516(14)
N12 N 0.3536(10) 0.8095(11) 0.7984(8)
N16 N 0.3496(12) 1.2734(10) 0.8549(10)
N23 N -0.1077(9) 0.7922(12) 0.5890(9)
C196 C -0.194(2) 1.0338(19) 0.9283(18)
C205 C -0.477(2) 0.9478(18) 0.7668(19)
C207 C -0.529(3) 0.938(3) 0.737(3)
C224 C 0.4187(16) 1.3344(15) 0.8193(14)
C237 C -0.017(2) 0.936(2) 0.8160(19)
C238 C 0.4321(13) 1.2948(14) 0.8412(13)
C246 C 0.145(3) 0.898(3) 0.953(3)
C270 C 0.140(3) 0.949(2) 0.897(2)
C273 C 0.141(3) 1.095(2) 0.920(2)
C276 C -0.0052(16) 0.519(2) 0.9147(16)
C277 C 0.0052(17) 0.4720(18) 0.9063(15)
C278 C 0.0418(17) 0.4534(15) 0.9393(16)
C279 C 0.0693(13) 0.4814(15) 0.9788(13)
C280 C 0.0566(17) 0.5237(19) 0.9814(15)
C288 C 0.3471(12) 0.7661(13) 0.7788(12)
C289 C 0.3845(19) 0.7403(15) 0.7561(14)
C290 C 0.4291(17) 0.7654(18) 0.7610(15)
C291 C 0.438(2) 0.813(2) 0.7832(18)
C292 C 0.3966(19) 0.8370(15) 0.7989(14)
C299 C 0.3317(15) 1.3090(16) 0.8308(14)
C300 C 0.363(2) 1.3476(17) 0.8119(16)
C303 C 0.3978(15) 1.2651(12) 0.8605(11)
C84A C 0.3563(13) 0.8882(11) 0.9660(12)
C83A C 0.4066(14) 0.8743(12) 0.9690(13)
C82A C 0.4415(16) 0.8833(14) 1.0085(16)
C81A C 0.4266(15) 0.9089(13) 1.0480(14)
C80A C 0.3760(14) 0.9241(12) 1.0465(13)
C85A C 0.3423(11) 0.9153(11) 1.0053(12)
C86A C 0.3592(13) 0.9517(11) 1.0861(12)
O41A O 0.3948(8) 0.9650(8) 1.1203(8)
Cu9A Cu 0.38240(13) 1.01066(17) 1.17304(13)
Cu10A Cu 0.28993(14) 1.01018(18) 1.12806(14)
O22A O 0.2750(7) 0.9559(8) 1.1679(7)
C47A C 0.3085(13) 0.9421(11) 1.2011(11)
O21A O 0.3551(7) 0.9560(9) 1.2062(7)
O27A O 0.3976(7) 1.0635(9) 1.1342(7)
C56A C 0.3666(15) 1.0758(13) 1.1016(13)
O28A O 0.3201(9) 1.0642(8) 1.0940(7)
O38A O 0.2743(7) 1.0546(8) 1.1772(7)
C78A C 0.3085(12) 1.0654(10) 1.2100(11)
O42A O 0.3140(8) 0.9649(8) 1.0839(7)
N3A N 0.2143(9) 1.0105(11) 1.0873(9)
C196A C 0.194(2) 0.9662(19) 1.0717(18)
O37A O 0.3523(7) 1.0556(8) 1.2180(6)
N1A N 0.4599(9) 1.0071(13) 1.2113(10)
C205A C 0.477(2) 1.0522(18) 1.2332(19)
C207A C 0.529(3) 1.062(3) 1.263(3)
C72A C 0.2906(13) 1.0974(12) 1.2484(12)
C73A C 0.3239(14) 1.1200(14) 1.2837(15)
C74A C 0.3134(15) 1.1504(14) 1.3236(14)
C75A C 0.2562(14) 1.1576(12) 1.3229(13)
C76A C 0.2245(13) 1.1337(12) 1.2859(13)
C77A C 0.2361(11) 1.1057(10) 1.2461(11)
C79A C 0.1682(14) 1.1474(13) 1.2949(15)
O39A O 0.1550(8) 1.1626(10) 1.3290(7)
Cu11A Cu 0.08615(15) 1.1710(2) 1.34198(15)
Cu12A Cu 0.06487(15) 1.13035(19) 1.25727(14)
O4A O 0.0669(7) 1.1950(9) 1.2384(7)
C8A C 0.0759(14) 1.2321(16) 1.2682(16)
O3A O 0.0863(9) 1.2315(9) 1.3126(8)
O13A O 0.0114(8) 1.1724(10) 1.3393(8)
C31A C -0.0158(16) 1.1578(14) 1.3019(16)
O14A O -0.0077(8) 1.1342(10) 1.2677(8)
C25A C -0.0752(18) 1.1701(17) 1.2986(18)
C26A C -0.082(2) 1.200(2) 1.338(2)
C27A C -0.137(4) 1.217(3) 1.341(3)
C28A C -0.166(3) 1.207(3) 1.303(3)
C29A C -0.160(2) 1.1632(18) 1.2644(19)
C30A C -0.1059(15) 1.1470(13) 1.2619(13)
C32A C -0.1986(15) 1.1534(13) 1.2211(14)
O15A O -0.2407(7) 1.1689(10) 1.2210(8)
Cu3A Cu -0.29323(15) 1.15465(18) 1.17002(15)
Cu4A Cu -0.22165(15) 1.11471(18) 1.12666(15)
O8A O -0.2036(7) 1.1783(9) 1.1117(7)
C16A C -0.2301(13) 1.2120(13) 1.1219(11)
O7A O -0.2688(7) 1.2096(8) 1.1437(8)
O9A O -0.3058(8) 1.0887(8) 1.1910(8)
C23A C -0.2861(14) 1.0495(15) 1.1744(12)
O10A O -0.2492(7) 1.0546(8) 1.1500(8)
O16A O -0.1797(7) 1.1292(9) 1.1900(9)
O44A O -0.2759(7) 1.1085(8) 1.0732(7)
C87A C -0.3192(13) 1.1219(11) 1.0749(12)
O43A O -0.3395(8) 1.1391(9) 1.1117(7)
N12A N -0.3536(10) 1.1905(11) 1.2016(8)
C288A C -0.3471(12) 1.2339(13) 1.2212(12)
C289A C -0.3845(19) 1.2597(15) 1.2439(14)
C290A C -0.4291(17) 1.2346(18) 1.2390(15)
C291A C -0.438(2) 1.187(2) 1.2168(18)
C292A C -0.3966(19) 1.1630(15) 1.2011(14)
C92A C -0.0775(14) 1.2967(15) 0.8291(15)
C91A C -0.0911(17) 1.3362(19) 0.8105(17)
C90A C -0.0823(16) 1.3765(16) 0.8401(17)
C89A C -0.0714(14) 1.3786(15) 0.8910(14)
C88A C -0.0568(12) 1.3345(14) 0.9026(13)
C93A C -0.0582(12) 1.2888(13) 0.8814(12)
C94A C -0.0386(15) 1.3292(16) 0.9509(18)
O45A O -0.0277(8) 1.3682(10) 0.9778(7)
Cu1A Cu -0.00243(16) 1.37778(17) 1.04761(15)
Cu2A Cu 0.00081(16) 1.28366(17) 1.03918(15)
O2A O 0.0297(8) 1.2916(10) 1.1072(7)
C7A C 0.0349(13) 1.3313(15) 1.1303(14)
O1A O 0.0252(8) 1.3711(9) 1.1151(7)
O5A O -0.0736(7) 1.3575(10) 1.0618(7)
C15A C -0.0880(14) 1.3136(15) 1.0677(12)
O6A O -0.0683(8) 1.2795(8) 1.0565(7)
C9A C -0.1444(14) 1.3094(14) 1.0803(12)
C10A C -0.1734(17) 1.3548(15) 1.0801(14)
C11A C -0.2221(17) 1.3480(17) 1.0958(15)
C12A C -0.2388(14) 1.3025(16) 1.1068(13)
C13A C -0.2115(13) 1.2590(13) 1.1067(11)
C14A C -0.1604(13) 1.2665(14) 1.0884(12)
O34A O 0.0699(7) 1.2971(9) 1.0216(7)
C70A C 0.0900(15) 1.3421(15) 1.0201(13)
O33A O 0.0693(8) 1.3767(8) 1.0323(8)
N9A N -0.0185(15) 1.4502(10) 1.0484(14)
C276A C 0.0052(16) 1.481(2) 1.0853(16)
C277A C -0.0052(17) 1.5280(18) 1.0937(15)
C278A C -0.0418(17) 1.5466(15) 1.0607(16)
C279A C -0.0693(13) 1.5186(15) 1.0212(13)
C280A C -0.0566(17) 1.4763(19) 1.0186(15)
C64A C 0.1466(14) 1.3453(15) 1.0072(13)
C65A C 0.1674(14) 1.3867(14) 1.0151(12)
C66A C 0.2164(15) 1.3912(14) 0.9963(13)
C67A C 0.2378(12) 1.3515(13) 0.9744(11)
C68A C 0.2097(12) 1.3088(12) 0.9713(10)
C69A C 0.1602(11) 1.3013(11) 0.9847(10)
O46A O -0.0285(8) 1.2920(10) 0.9725(7)
N2A N 0.0086(10) 1.2046(9) 1.0367(9)
C1A C 0.0531(12) 1.3276(15) 1.1814(13)
C2A C 0.0624(14) 1.3723(15) 1.2081(15)
C3A C 0.0796(13) 1.3682(14) 1.2572(14)
C4A C 0.0828(13) 1.3245(15) 1.2755(13)
C5A C 0.0725(12) 1.2796(14) 1.2479(13)
C6A C 0.0551(12) 1.2836(14) 1.1976(13)
C53A C -0.3826(14) 0.8847(13) 0.9290(13)
C52A C -0.4342(12) 0.8673(11) 0.9235(11)
C51A C -0.4500(11) 0.8297(11) 0.9537(11)
C50A C -0.4152(13) 0.8150(11) 0.9907(12)
C49A C -0.3615(13) 0.8362(12) 0.9964(12)
C54A C -0.3471(13) 0.8699(12) 0.9660(12)
C55A C -0.3206(15) 0.8250(12) 1.0360(13)
O25A O -0.3435(7) 0.7946(9) 1.0638(8)
Cu5A Cu -0.29547(14) 0.77558(17) 1.11846(15)
Cu6A Cu -0.22515(14) 0.83165(17) 1.08658(15)
O12A O -0.2507(7) 0.8835(8) 1.1219(7)
C24A C -0.2877(14) 0.8760(14) 1.1470(13)
O11A O -0.3116(8) 0.8353(8) 1.1503(7)
O19A O -0.2396(8) 0.7653(8) 1.1703(7)
C40A C -0.1935(11) 0.7865(11) 1.1707(11)
O20A O -0.1804(7) 0.8161(7) 1.1432(7)
O26A O -0.2803(8) 0.8400(9) 1.0357(8)
O36A O -0.2053(8) 0.7754(9) 1.0526(7)
C71A C -0.2296(13) 0.7337(13) 1.0549(12)
O35A O -0.2683(7) 0.7262(8) 1.0764(7)
N16A N -0.3496(12) 0.7266(10) 1.1451(10)
C299A C -0.3317(15) 0.6910(16) 1.1692(14)
C300A C -0.363(2) 0.6524(17) 1.1881(16)
C224A C -0.4187(16) 0.6656(15) 1.1807(14)
C238A C -0.4321(13) 0.7052(14) 1.1588(13)
C303A C -0.3978(15) 0.7349(12) 1.1395(11)
C95A C 0.0783(12) 0.7530(13) 1.2015(13)
O47A O 0.0877(8) 0.7451(10) 1.2473(8)
Cu7A Cu 0.08367(15) 0.79573(18) 1.29490(15)
Cu8A Cu 0.06288(14) 0.84838(18) 1.22194(14)
O18A O -0.0098(6) 0.8281(8) 1.2305(7)
C39A C -0.0196(15) 0.7943(13) 1.2547(13)
O17A O 0.0099(7) 0.7814(9) 1.2877(9)
O23A O 0.1554(7) 0.8185(9) 1.2875(8)
C48A C 0.1642(14) 0.8463(13) 1.2557(14)
O24A O 0.1365(7) 0.8600(9) 1.2235(7)
O32A O 0.0639(7) 0.9003(8) 1.2730(8)
C63A C 0.0695(12) 0.8951(14) 1.3181(13)
O31A O 0.0721(8) 0.8535(8) 1.3327(7)
N8A N 0.1124(12) 0.7493(11) 1.3535(9)
C60A C 0.0693(12) 0.9390(15) 1.3456(14)
C59A C 0.0770(16) 0.9250(15) 1.3952(17)
C61A C 0.0670(12) 0.9843(15) 1.3280(12)
C57A C 0.0730(14) 1.0264(17) 1.3551(16)
C58A C 0.083(2) 1.0081(19) 1.414(2)
C62A C 0.0727(14) 1.0702(16) 1.3315(16)
O29A O 0.0834(8) 1.1098(10) 1.3641(8)
N23A N 0.1077(9) 1.2078(12) 1.4110(9)
O30A O 0.0648(8) 1.0721(9) 1.2920(7)
O40A O 0.1385(7) 1.1286(8) 1.2558(7)
N6A N 0.0469(11) 1.1003(11) 1.1847(9)
C237A C 0.017(2) 1.064(2) 1.1840(19)
O48A O 0.0657(7) 0.7925(10) 1.1850(7)
N5A N 0.0423(11) 0.8959(11) 1.1628(8)
C45A C 0.2252(13) 0.8593(12) 1.2567(12)
C44A C 0.2561(15) 0.8344(13) 1.2872(13)
C43A C 0.3095(13) 0.8484(12) 1.2882(12)
C42A C 0.3256(12) 0.8797(12) 1.2596(12)
C41A C 0.2891(13) 0.9029(12) 1.2270(11)
C46A C 0.2371(11) 0.8921(11) 1.2268(10)
C33A C -0.0759(14) 0.7782(12) 1.2511(13)
C34A C -0.0891(14) 0.7499(13) 1.2913(13)
C35A C -0.1433(14) 0.7284(12) 1.2839(12)
C36A C -0.1760(12) 0.7438(12) 1.2438(12)
C37A C -0.1609(13) 0.7745(12) 1.2119(13)
C38A C -0.1081(13) 0.7959(11) 1.2132(11)
N4A N -0.1708(11) 0.8775(10) 1.0551(10)
C273A C -0.141(3) 0.905(2) 1.080(2)
C21A C -0.3048(15) 0.9233(16) 1.1733(14)
C20A C -0.3384(16) 0.9095(16) 1.2120(15)
C19A C -0.3508(17) 0.952(2) 1.2291(16)
C18A C -0.3352(14) 0.9977(14) 1.2207(13)
C17A C -0.3006(13) 1.0044(15) 1.1852(13)
C22A C -0.2842(12) 0.9642(15) 1.1648(12)
N7A N -0.1617(11) 1.0851(13) 1.0890(11)
C246A C -0.145(3) 1.102(3) 1.047(3)
C270A C -0.140(3) 1.051(2) 1.103(2)
Cu13 Cu 0.17850(16) 0.2777(2) 0.57381(17)
Cu14 Cu 0.25667(15) 0.33166(19) 0.55326(17)
Cu15 Cu 0.21311(15) 0.65139(19) 0.67995(15)
Cu16 Cu 0.28459(15) 0.61406(18) 0.63426(14)
Cu17 Cu 0.53160(16) 0.87287(16) 0.60736(14)
Cu18 Cu 0.52527(15) 0.78077(15) 0.58083(14)
Cu19 Cu 0.57819(14) 0.60721(17) 0.86486(13)
Cu20 Cu 0.56112(15) 0.58128(18) 0.77500(14)
Cu21 Cu 0.54955(16) 0.23684(17) 0.75368(14)
Cu22 Cu 0.53640(14) 0.30202(16) 0.69110(14)
Cu23 Cu 0.86873(15) 0.4605(2) 0.68329(15)
Cu24 Cu 0.77874(15) 0.4727(2) 0.63804(16)
O49 O 0.1656(9) 0.3366(10) 0.6110(7)
O50 O 0.2320(9) 0.3792(9) 0.5938(8)
O51 O 0.1865(8) 0.5840(11) 0.6773(8)
O52 O 0.2500(8) 0.5522(9) 0.6423(8)
C96 C 0.1750(15) 0.4195(16) 0.6397(14)
C97 C 0.1292(16) 0.4047(15) 0.6636(15)
C98 C 0.1131(18) 0.447(2) 0.6822(17)
C99 C 0.1380(17) 0.4966(16) 0.6868(14)
C100 C 0.1846(14) 0.5025(14) 0.6617(12)
C101 C 0.1983(13) 0.4635(15) 0.6391(12)
C102 C 0.1926(15) 0.3791(15) 0.6135(13)
C103 C 0.2132(16) 0.5493(14) 0.6601(13)
O53 O 0.2532(8) 0.7135(9) 0.6739(9)
O54 O 0.3101(8) 0.6822(8) 0.6315(8)
O55 O 0.4621(7) 0.8606(9) 0.6233(7)
O56 O 0.4563(7) 0.7833(8) 0.5991(7)
C104 C 0.3156(14) 0.7611(15) 0.6526(12)
C105 C 0.3007(17) 0.802(2) 0.6721(16)
C106 C 0.328(2) 0.8467(19) 0.6843(17)
C107 C 0.3711(18) 0.8555(17) 0.6488(17)
C108 C 0.3886(14) 0.8130(15) 0.6365(12)
C109 C 0.3632(13) 0.7710(12) 0.6339(11)
C110 C 0.2909(14) 0.7175(15) 0.6509(13)
C111 C 0.4345(15) 0.8229(14) 0.6166(12)
O57 O 0.4735(8) 0.2309(9) 0.7434(8)
O58 O 0.4627(7) 0.2891(9) 0.6924(8)
O59 O 0.2287(8) 0.2598(10) 0.6265(9)
O60 O 0.2938(7) 0.3045(10) 0.6109(8)
C112 C 0.3887(15) 0.2477(14) 0.7122(14)
C113 C 0.3702(13) 0.2164(12) 0.7432(12)
C114 C 0.3172(16) 0.2050(14) 0.7398(14)
C115 C 0.2841(14) 0.2270(14) 0.7040(14)
C116 C 0.3073(15) 0.2586(12) 0.6711(13)
C117 C 0.3611(13) 0.2688(11) 0.6756(12)
C118 C 0.4471(14) 0.2587(13) 0.7166(13)
C119 C 0.2729(16) 0.2710(13) 0.6342(13)
O61 O 0.5029(7) 0.6060(8) 0.8601(7)
O62 O 0.4896(7) 0.5910(8) 0.7799(7)
O63 O 0.2597(8) 0.6393(9) 0.7360(8)
O64 O 0.3217(7) 0.6103(9) 0.6966(8)
C120 C 0.4183(13) 0.6094(11) 0.8198(13)
C121 C 0.4017(13) 0.6154(11) 0.8663(12)
C122 C 0.3481(15) 0.6212(12) 0.8645(13)
C123 C 0.3128(13) 0.6251(12) 0.8230(13)
C124 C 0.3381(13) 0.6173(11) 0.7802(12)
C125 C 0.3883(12) 0.6063(11) 0.7773(11)
C126 C 0.4763(13) 0.6028(11) 0.8202(13)
C127 C 0.3001(14) 0.6234(12) 0.7353(13)
O65 O 0.5804(9) 0.6727(8) 0.8406(8)
O66 O 0.5692(9) 0.6498(8) 0.7656(8)
O67 O 0.5574(7) 0.8495(9) 0.6692(7)
O68 O 0.5497(7) 0.7693(8) 0.6464(8)
C128 C 0.5757(12) 0.7331(13) 0.7869(13)
C129 C 0.5835(11) 0.7715(13) 0.8237(11)
C130 C 0.5846(12) 0.8164(13) 0.8098(12)
C131 C 0.5755(11) 0.8308(11) 0.7647(12)
C132 C 0.5675(11) 0.7915(12) 0.7293(11)
C133 C 0.5667(10) 0.7434(12) 0.7383(11)
C134 C 0.5780(12) 0.6825(14) 0.7985(14)
C135 C 0.5569(11) 0.8044(13) 0.6756(11)
O69 O 0.5485(8) 0.2880(9) 0.7997(7)
O70 O 0.5383(7) 0.3484(8) 0.7473(8)
O71 O 0.5717(7) 0.5401(8) 0.8740(7)
O72 O 0.5531(7) 0.5142(8) 0.7969(8)
C136 C 0.5501(11) 0.3735(12) 0.8259(11)
C137 C 0.5548(13) 0.3583(13) 0.8732(14)
C138 C 0.5627(12) 0.3984(14) 0.9133(12)
C139 C 0.5619(12) 0.4437(13) 0.8966(13)
C140 C 0.5574(11) 0.4579(12) 0.8492(12)
C141 C 0.5475(11) 0.4215(12) 0.8118(11)
C142 C 0.5461(12) 0.3282(13) 0.7913(13)
C143 C 0.5608(11) 0.5074(13) 0.8404(13)
O73 O 0.8443(8) 0.4977(10) 0.7338(7)
O74 O 0.7665(8) 0.5063(10) 0.6951(7)
O75 O 0.6507(7) 0.6016(8) 0.8549(7)
O76 O 0.6351(7) 0.5742(9) 0.7774(7)
C144 C 0.7858(13) 0.5448(11) 0.7742(12)
C145 C 0.8254(13) 0.5568(12) 0.8109(14)
C146 C 0.8081(15) 0.5773(13) 0.8520(14)
C147 C 0.7556(16) 0.5922(13) 0.8540(14)
C148 C 0.7184(14) 0.5766(12) 0.8135(13)
C149 C 0.7307(12) 0.5529(11) 0.7717(11)
C150 C 0.8000(15) 0.5148(12) 0.7275(13)
C151 C 0.6617(12) 0.5831(11) 0.8126(12)
O77 O 0.8336(9) 0.4042(10) 0.7056(8)
O78 O 0.7558(8) 0.4185(11) 0.6663(8)
O79 O 0.6235(7) 0.2548(9) 0.7514(8)
O80 O 0.6121(8) 0.3083(9) 0.6970(7)
C152 C 0.7693(15) 0.3486(15) 0.7141(14)
C153 C 0.799(2) 0.3151(19) 0.7445(19)
C154 C 0.784(2) 0.2840(18) 0.7712(17)
C155 C 0.726(2) 0.2693(17) 0.7589(17)
C156 C 0.6972(14) 0.2987(13) 0.7278(12)
C157 C 0.7099(13) 0.3394(13) 0.7084(11)
C158 C 0.7814(14) 0.3939(13) 0.6933(13)
C159 C 0.6414(18) 0.2861(15) 0.7280(15)
O81 O 0.8786(10) 0.4229(12) 0.6225(10)
O82 O 0.8014(9) 0.4358(11) 0.5864(8)
O83 O 0.1767(8) 0.6547(11) 0.6165(7)
O84 O 0.2398(8) 0.6193(10) 0.5772(7)
C160 C 0.855(2) 0.387(2) 0.551(2)
C161 C 0.894(2) 0.351(2) 0.554(2)
C162 C 0.914(3) 0.333(2) 0.506(3)
C163 C 0.879(3) 0.322(2) 0.471(2)
C164 C 0.840(2) 0.357(2) 0.468(2)
C165 C 0.8238(17) 0.3833(16) 0.506(2)
C166 C 0.833(2) 0.4118(18) 0.5894(19)
C167 C 0.1985(18) 0.6384(15) 0.5784(17)
O85 O 0.5032(9) 0.8802(8) 0.5403(7)
O86 O 0.5021(8) 0.8029(8) 0.5191(6)
O87 O 0.5522(9) 0.1912(8) 0.7008(8)
O88 O 0.5378(8) 0.2462(9) 0.6479(7)
C168 C 0.4759(14) 0.8603(17) 0.4637(15)
C169 C 0.4642(16) 0.9045(18) 0.4547(16)
C170 C 0.446(2) 0.922(2) 0.410(2)
C171 C 0.4380(17) 0.8747(19) 0.3720(16)
C172 C 0.4577(12) 0.8318(14) 0.3782(13)
C173 C 0.4732(13) 0.8200(14) 0.4296(14)
C174 C 0.4946(12) 0.8405(14) 0.5118(13)
C175 C 0.5415(13) 0.2032(15) 0.6634(15)
O89 O 0.8901(9) 0.5190(12) 0.6542(9)
O90 O 0.8125(8) 0.5270(11) 0.6146(8)
O91 O 0.1419(9) 0.3023(11) 0.5178(8)
O92 O 0.2081(9) 0.3525(11) 0.5003(8)
C176 C 0.8836(17) 0.5871(14) 0.6013(14)
C177 C 0.9343(16) 0.6008(15) 0.6179(13)
C178 C 0.9452(15) 0.6395(16) 0.5947(16)
C179 C 0.9166(19) 0.6634(15) 0.5554(16)
C180 C 0.8662(17) 0.6399(16) 0.5445(15)
C181 C 0.8494(13) 0.6000(13) 0.5659(13)
C182 C 0.857(2) 0.5430(18) 0.6224(17)
C183 C 0.1602(17) 0.3335(15) 0.4948(15)
O93 O 0.5991(8) 0.8704(8) 0.5847(8)
O94 O 0.5958(7) 0.7921(8) 0.5669(7)
O95 O 0.2066(9) 0.2273(10) 0.5354(9)
O96 O 0.2711(9) 0.2754(10) 0.5154(8)
C184 C 0.6677(18) 0.8378(18) 0.5512(16)
C185 C 0.693(2) 0.888(2) 0.561(2)
C186 C 0.737(2) 0.891(2) 0.538(2)
C187 C 0.763(3) 0.849(3) 0.512(2)
C188 C 0.733(2) 0.799(2) 0.511(2)
C189 C 0.6864(14) 0.7984(13) 0.5278(12)
C190 C 0.6130(13) 0.8333(14) 0.5697(12)
C191 C 0.2447(17) 0.2357(18) 0.5140(16)
N10 N 0.1094(11) 0.2351(12) 0.5879(10)
N11 N 0.3177(10) 0.3781(14) 0.5359(10)
N13 N 0.1548(10) 0.6748(11) 0.7170(9)
N14 N 0.3463(10) 0.5771(12) 0.5976(10)
N15 N 0.5335(14) 0.9432(14) 0.6306(12)
N17 N 0.5145(10) 0.7048(8) 0.5574(9)
N18 N 0.5886(9) 0.6307(10) 0.9388(8)
N19 N 0.5480(12) 0.5627(11) 0.6941(12)
N20 N 0.5549(12) 0.1844(11) 0.8042(9)
N21 N 0.5281(10) 0.3546(9) 0.6360(8)
N22 N 0.9420(9) 0.4492(12) 0.7285(12)
N24 N 0.7009(11) 0.4875(11) 0.6029(11)
C281 C 0.065(2) 0.2638(18) 0.5755(18)
C282 C 0.0200(16) 0.2333(18) 0.5871(15)
C283 C 0.0210(15) 0.1922(17) 0.5990(14)
C284 C 0.063(2) 0.1698(19) 0.6113(18)
C285 C 0.1164(16) 0.1929(17) 0.5988(15)
C286 C 0.348(2) 0.4029(19) 0.564(2)
C287 C 0.3341(13) 0.3720(13) 0.4932(14)
C293 C 0.1620(14) 0.7009(13) 0.7546(14)
C294 C 0.123(2) 0.7255(17) 0.7822(18)
C295 C 0.077(2) 0.7081(19) 0.764(2)
C296 C 0.063(2) 0.6802(19) 0.724(2)
C297 C 0.109(2) 0.6663(15) 0.6999(16)
C298 C 0.4851(13) 0.9742(12) 0.6200(12)
C301 C 0.5860(14) 0.9920(14) 0.6854(14)
C302 C 0.568(2) 0.950(2) 0.647(2)
C304 C 0.4615(13) 0.6891(12) 0.5226(12)
C305 C 0.5631(14) 0.6030(12) 0.9656(14)
C306 C 0.5678(18) 0.6202(17) 1.0189(16)
C307 C 0.6060(15) 0.6549(15) 1.0305(13)
C308 C 0.6283(14) 0.6842(13) 1.0028(14)
C309 C 0.6160(13) 0.6683(13) 0.9544(13)
C310 C 0.596(2) 0.174(2) 0.834(2)
C312 C 0.974(3) 0.490(3) 0.741(3)
C313 C 0.9547(14) 0.4080(14) 0.7091(14)
C188A C 0.267(2) 0.201(2) 0.489(2)
C187A C 0.237(3) 0.151(3) 0.488(2)
C186A C 0.263(2) 0.109(2) 0.462(2)
C185A C 0.307(2) 0.112(2) 0.439(2)
C184A C 0.3323(18) 0.1622(18) 0.4488(16)
C189A C 0.3136(14) 0.2016(13) 0.4722(12)
C190A C 0.3870(13) 0.1667(14) 0.4303(12)
O93A O 0.4009(8) 0.1296(8) 0.4153(8)
Cu17A Cu 0.46840(16) 0.12713(16) 0.39264(14)
Cu18A Cu 0.47473(15) 0.21923(15) 0.41917(14)
O56A O 0.5437(7) 0.2167(8) 0.4009(7)
C111A C 0.5655(15) 0.1771(14) 0.3834(12)
O55A O 0.5379(7) 0.1394(9) 0.3767(7)
O67A O 0.4426(7) 0.1505(9) 0.3308(7)
C135A C 0.4431(11) 0.1956(13) 0.3244(11)
O68A O 0.4503(7) 0.2307(8) 0.3536(8)
O86A O 0.4979(8) 0.1971(8) 0.4809(6)
C174A C 0.5054(12) 0.1595(14) 0.4882(13)
O94A O 0.4042(7) 0.2079(8) 0.4331(7)
N17A N 0.4855(10) 0.2952(8) 0.4426(9)
C304A C 0.5385(13) 0.3109(12) 0.4774(12)
O85A O 0.4968(9) 0.1198(8) 0.4597(7)
N15A N 0.4665(14) 0.0568(14) 0.3694(12)
C298A C 0.5149(13) 0.0258(12) 0.3800(12)
C302A C 0.432(2) 0.050(2) 0.353(2)
C301A C 0.4140(14) 0.0080(14) 0.3146(14)
C168A C 0.5241(14) 0.1397(17) 0.5363(15)
C169A C 0.5358(16) 0.0955(18) 0.5453(16)
C170A C 0.554(2) 0.078(2) 0.590(2)
C171A C 0.5620(17) 0.1253(19) 0.6280(16)
C172A C 0.5423(12) 0.1682(14) 0.6218(13)
C173A C 0.5268(13) 0.1800(14) 0.5704(14)
C167A C 0.8015(18) 0.3616(15) 0.4216(17)
O83A O 0.8233(8) 0.3453(11) 0.3835(7)
Cu15A Cu 0.78689(15) 0.34861(19) 0.32005(15)
Cu16A Cu 0.71541(15) 0.38594(18) 0.36574(14)
O52A O 0.7500(8) 0.4478(9) 0.3577(8)
C103A C 0.7868(16) 0.4507(14) 0.3399(13)
O54A O 0.6899(8) 0.3178(8) 0.3685(8)
C110A C 0.7091(14) 0.2825(15) 0.3491(13)
O53A O 0.7468(8) 0.2865(9) 0.3261(9)
O51A O 0.8135(8) 0.4160(11) 0.3227(8)
C100A C 0.8154(14) 0.4975(14) 0.3383(12)
C99A C 0.8620(17) 0.5034(16) 0.3132(14)
C98A C 0.8869(18) 0.553(2) 0.3178(17)
C97A C 0.8708(16) 0.5953(15) 0.3364(15)
C96A C 0.8250(15) 0.5805(16) 0.3603(14)
C101A C 0.8017(13) 0.5365(15) 0.3609(12)
C102A C 0.8074(15) 0.6209(15) 0.3865(13)
O49A O 0.8344(9) 0.6634(10) 0.3890(7)
Cu13A Cu 0.82150(16) 0.7223(2) 0.42619(17)
Cu14A Cu 0.74333(15) 0.66834(19) 0.44674(17)
O50A O 0.7680(9) 0.6208(9) 0.4062(8)
O60A O 0.7062(7) 0.6955(10) 0.3891(8)
C119A C 0.7271(16) 0.7290(13) 0.3658(13)
O59A O 0.7713(8) 0.7402(10) 0.3735(9)
O91A O 0.8581(9) 0.6977(11) 0.4822(8)
C183A C 0.8398(17) 0.6665(15) 0.5052(15)
O92A O 0.7919(9) 0.6475(11) 0.4997(8)
O96A O 0.7289(9) 0.7246(10) 0.4846(8)
C191A C 0.7553(17) 0.7643(18) 0.4860(16)
O95A O 0.7934(9) 0.7727(10) 0.4646(9)
N10A N 0.8906(11) 0.7649(12) 0.4121(10)
C281A C 0.935(2) 0.7362(18) 0.4245(18)
C282A C 0.9800(16) 0.7667(18) 0.4129(15)
C283A C 0.9790(15) 0.8078(17) 0.4010(14)
C284A C 0.937(2) 0.8302(19) 0.3887(18)
C285A C 0.8836(16) 0.8071(17) 0.4012(15)
C175A C 0.4585(13) 0.7968(15) 0.3366(15)
Cu21A Cu 0.45045(16) 0.76316(17) 0.24632(14)
Cu22A Cu 0.46360(14) 0.69798(16) 0.30890(14)
O58A O 0.5373(7) 0.7109(9) 0.3076(8)
C118A C 0.5529(14) 0.7413(13) 0.2834(13)
O57A O 0.5265(8) 0.7691(9) 0.2566(8)
O69A O 0.4515(8) 0.7120(9) 0.2003(7)
C142A C 0.4539(12) 0.6718(13) 0.2087(13)
O79A O 0.3765(7) 0.7452(9) 0.2486(8)
C159A C 0.3586(18) 0.7139(15) 0.2720(15)
O80A O 0.3879(8) 0.6917(9) 0.3030(7)
O70A O 0.4617(7) 0.6516(8) 0.2527(8)
C136A C 0.4499(11) 0.6265(12) 0.1741(11)
C137A C 0.4452(13) 0.6417(13) 0.1268(14)
C138A C 0.4373(12) 0.6016(14) 0.0867(12)
C139A C 0.4381(12) 0.5563(13) 0.1034(13)
C140A C 0.4426(11) 0.5421(12) 0.1508(12)
C141A C 0.4525(11) 0.5785(12) 0.1882(11)
C143A C 0.4392(11) 0.4926(13) 0.1596(13)
O71A O 0.4283(7) 0.4599(8) 0.1260(7)
Cu19A Cu 0.42181(14) 0.39279(17) 0.13514(13)
Cu20A Cu 0.43888(15) 0.41872(18) 0.22500(14)
O62A O 0.5104(7) 0.4090(8) 0.2201(7)
C126A C 0.5237(13) 0.3972(11) 0.1798(13)
O61A O 0.4971(7) 0.3940(8) 0.1399(7)
O65A O 0.4196(9) 0.3273(8) 0.1594(8)
C134A C 0.4220(12) 0.3175(14) 0.2015(14)
O66A O 0.4308(9) 0.3502(8) 0.2344(8)
O72A O 0.4469(7) 0.4858(8) 0.2031(8)
O76A O 0.3649(7) 0.4258(9) 0.2226(7)
C151A C 0.3383(12) 0.4169(11) 0.1874(12)
O75A O 0.3493(7) 0.3984(8) 0.1451(7)
N18A N 0.4114(9) 0.3693(10) 0.0612(8)
C305A C 0.4369(14) 0.3970(12) 0.0344(14)
C306A C 0.4322(18) 0.3798(17) -0.0189(16)
C307A C 0.3940(15) 0.3451(15) -0.0305(13)
C308A C 0.3717(14) 0.3158(13) -0.0028(14)
C309A C 0.3840(13) 0.3317(13) 0.0456(13)
C148A C 0.2816(14) 0.4234(12) 0.1865(13)
C147A C 0.2444(16) 0.4078(13) 0.1460(14)
C146A C 0.1919(15) 0.4227(13) 0.1480(14)
C145A C 0.1746(13) 0.4432(12) 0.1891(14)
C144A C 0.2142(13) 0.4552(11) 0.2258(12)
C149A C 0.2693(12) 0.4471(11) 0.2283(11)
C150A C 0.2000(15) 0.4852(12) 0.2725(13)
O73A O 0.1557(8) 0.5023(10) 0.2662(7)
Cu23A Cu 0.13127(15) 0.5395(2) 0.31671(15)
Cu24A Cu 0.22126(15) 0.5273(2) 0.36196(16)
O74A O 0.2335(8) 0.4937(10) 0.3049(7)
O78A O 0.2442(8) 0.5815(11) 0.3337(8)
C158A C 0.2186(14) 0.6061(13) 0.3067(13)
O77A O 0.1664(9) 0.5958(10) 0.2944(8)
O81A O 0.1214(10) 0.5771(12) 0.3775(10)
C166A C 0.167(2) 0.5882(18) 0.4106(19)
O82A O 0.1986(9) 0.5642(11) 0.4136(8)
C160A C 0.145(2) 0.613(2) 0.449(2)
C161A C 0.106(2) 0.649(2) 0.446(2)
C162A C 0.086(3) 0.667(2) 0.494(3)
C163A C 0.121(3) 0.678(2) 0.529(2)
C164A C 0.160(2) 0.643(2) 0.532(2)
C165A C 0.1762(17) 0.6167(16) 0.494(2)
O90A O 0.1875(8) 0.4730(11) 0.3854(8)
C182A C 0.143(2) 0.4570(18) 0.3776(17)
O89A O 0.1099(9) 0.4810(12) 0.3458(9)
N22A N 0.0580(9) 0.5508(12) 0.2715(12)
C312A C 0.026(3) 0.510(3) 0.259(3)
C313A C 0.0453(14) 0.5920(14) 0.2909(14)
C176A C 0.1164(17) 0.4129(14) 0.3987(14)
C177A C 0.0657(16) 0.3992(15) 0.3821(13)
C178A C 0.0548(15) 0.3605(16) 0.4053(16)
C179A C 0.0834(19) 0.3366(15) 0.4446(16)
C180A C 0.1338(17) 0.3601(16) 0.4555(15)
C181A C 0.1506(13) 0.4000(13) 0.4341(13)
N24A N 0.2991(11) 0.5125(11) 0.3971(11)
C152A C 0.2307(15) 0.6514(15) 0.2859(14)
C153A C 0.201(2) 0.6849(19) 0.2555(19)
C154A C 0.216(2) 0.7160(18) 0.2288(17)
C155A C 0.274(2) 0.7307(17) 0.2411(17)
C156A C 0.3028(14) 0.7013(13) 0.2722(12)
C157A C 0.2901(13) 0.6606(13) 0.2916(11)
N19A N 0.4520(12) 0.4373(11) 0.3059(12)
C128A C 0.4243(12) 0.2669(13) 0.2131(13)
C129A C 0.4165(11) 0.2285(13) 0.1763(11)
C130A C 0.4154(12) 0.1836(13) 0.1902(12)
C131A C 0.4245(11) 0.1692(11) 0.2353(12)
C132A C 0.4325(11) 0.2085(12) 0.2707(11)
C133A C 0.4333(10) 0.2566(12) 0.2617(11)
C120A C 0.5817(13) 0.3906(11) 0.1802(13)
C121A C 0.5983(13) 0.3846(11) 0.1337(12)
C122A C 0.6519(15) 0.3788(12) 0.1355(13)
C123A C 0.6872(13) 0.3749(12) 0.1770(13)
C124A C 0.6619(13) 0.3827(11) 0.2198(12)
C125A C 0.6117(12) 0.3937(11) 0.2227(11)
C127A C 0.6999(14) 0.3766(12) 0.2647(13)
O63A O 0.7403(8) 0.3607(9) 0.2640(8)
N13A N 0.8452(10) 0.3252(11) 0.2830(9)
C293A C 0.8380(14) 0.2991(13) 0.2454(14)
C294A C 0.877(2) 0.2745(17) 0.2178(18)
C295A C 0.923(2) 0.2919(19) 0.236(2)
C296A C 0.937(2) 0.3198(19) 0.276(2)
C297A C 0.891(2) 0.3337(15) 0.3001(16)
O64A O 0.6783(7) 0.3897(9) 0.3034(8)
O84A O 0.7602(8) 0.3807(10) 0.4228(7)
N14A N 0.6537(10) 0.4229(12) 0.4024(10)
O88A O 0.4622(8) 0.7538(9) 0.3521(7)
O87A O 0.4478(9) 0.8088(8) 0.2992(8)
N20A N 0.4451(12) 0.8156(11) 0.1958(9)
C310A C 0.404(2) 0.826(2) 0.166(2)
N21A N 0.4719(10) 0.6454(9) 0.3640(8)
C112A C 0.6113(15) 0.7523(14) 0.2878(14)
C113A C 0.6298(13) 0.7836(12) 0.2568(12)
C114A C 0.6828(16) 0.7950(14) 0.2602(14)
C115A C 0.7159(14) 0.7730(14) 0.2960(14)
C116A C 0.6927(15) 0.7414(12) 0.3289(13)
C117A C 0.6389(13) 0.7312(11) 0.3244(12)
N11A N 0.6823(10) 0.6219(14) 0.4641(10)
C286A C 0.652(2) 0.5971(19) 0.436(2)
C287A C 0.6659(13) 0.6280(13) 0.5068(14)
C104A C 0.6844(14) 0.2389(15) 0.3474(12)
C105A C 0.6993(17) 0.198(2) 0.3279(16)
C106A C 0.672(2) 0.1533(19) 0.3157(17)
C107A C 0.6289(18) 0.1445(17) 0.3512(17)
C108A C 0.6114(14) 0.1870(15) 0.3635(12)
C109A C 0.6368(13) 0.2290(12) 0.3661(11)
C192 C -0.0052(17) 0.8294(15) 0.8705(15)
C206 C 0.040(2) 0.8125(18) 0.8494(18)
C195 C 0.429(2) 0.7367(17) 0.8932(17)
C197 C 0.3983(18) 0.7528(15) 0.9640(17)
C200 C 0.502(2) 0.7369(16) 1.0540(17)
C201 C 0.4839(16) 0.7160(14) 0.9556(17)
C203 C 0.4260(18) 0.7516(16) 1.0662(18)
C209 C 0.3891(18) 0.7458(16) 0.9168(19)
C222 C 0.4483(19) 0.7341(16) 0.9815(17)
C228 C 0.4711(17) 0.7190(15) 0.9111(17)
C248 C 0.456(2) 0.7404(16) 1.0372(19)
loop_
_geom_bond_atom_site_label_1
_geom_bond_atom_site_label_2
_geom_bond_site_symmetry_1
_geom_bond_site_symmetry_2
Cu1 Cu2 1_555 1_555
Cu2 O2 1_555 1_555
Cu3 Cu4 1_555 1_555
Cu4 O8 1_555 1_555
Cu5 Cu6 1_555 1_555
Cu6 O12 1_555 1_555
Cu7 Cu8 1_555 1_555
Cu8 O18 1_555 1_555
Cu9 Cu10 1_555 1_555
Cu10 O22 1_555 1_555
Cu11 Cu12 1_555 1_555
Cu12 O4 1_555 1_555
O1 Cu1 1_555 1_555
O2 C7 1_555 1_555
O3 Cu11 1_555 1_555
O4 C8 1_555 1_555
C1 C2 1_555 1_555
C2 C3 1_555 1_555
C3 C4 1_555 1_555
C4 C5 1_555 1_555
C5 C6 1_555 1_555
C6 C1 1_555 1_555
C7 O1 1_555 1_555
C8 O3 1_555 1_555
O5 Cu1 1_555 1_555
O6 Cu2 1_555 1_555
O7 Cu3 1_555 1_555
O8 C16 1_555 1_555
C9 C10 1_555 1_555
C10 C11 1_555 1_555
C11 C12 1_555 1_555
C12 C13 1_555 1_555
C13 C14 1_555 1_555
C14 C9 1_555 1_555
C15 Cu2 1_555 1_555
C16 O7 1_555 1_555
O9 Cu3 1_555 1_555
O10 Cu4 1_555 1_555
O11 Cu5 1_555 1_555
O12 C24 1_555 1_555
C17 C18 1_555 1_555
C18 C19 1_555 1_555
C19 C20 1_555 1_555
C20 C21 1_555 1_555
C21 C22 1_555 1_555
C22 C17 1_555 1_555
C23 O9 1_555 1_555
C24 O11 1_555 1_555
O13 Cu11 1_555 1_555
O14 Cu12 1_555 1_555
O15 Cu3 1_555 1_555
O16 Cu4 1_555 1_555
C25 C26 1_555 1_555
C26 C27 1_555 1_555
C27 C28 1_555 1_555
C28 C29 1_555 1_555
C29 C30 1_555 1_555
C30 C25 1_555 1_555
C31 Cu12 1_555 1_555
C32 O15 1_555 1_555
O17 Cu7 1_555 1_555
O18 C39 1_555 1_555
O19 Cu5 1_555 1_555
O20 Cu6 1_555 1_555
C33 C34 1_555 1_555
C34 C35 1_555 1_555
C35 C36 1_555 1_555
C36 C37 1_555 1_555
C37 C38 1_555 1_555
C38 C33 1_555 1_555
C39 O17 1_555 1_555
C40 O19 1_555 1_555
O21 Cu9 1_555 1_555
O22 C47 1_555 1_555
O23 Cu7 1_555 1_555
O24 Cu8 1_555 1_555
C41 C42 1_555 1_555
C42 C43 1_555 1_555
C43 C44 1_555 1_555
C44 C45 1_555 1_555
C45 C46 1_555 1_555
C46 C41 1_555 1_555
C47 O21 1_555 1_555
C48 O23 1_555 1_555
O25 Cu5 1_555 1_555
O26 Cu6 1_555 1_555
O27 Cu9 1_555 1_555
O28 Cu10 1_555 1_555
C49 C50 1_555 1_555
C50 C51 1_555 1_555
C51 C52 1_555 1_555
C52 C53 1_555 1_555
C53 C54 1_555 1_555
C54 C49 1_555 1_555
C55 O25 1_555 1_555
C56 O27 1_555 1_555
O29 Cu11 1_555 1_555
O30 Cu12 1_555 1_555
O31 Cu7 1_555 1_555
O32 Cu8 1_555 1_555
C57 C58 1_555 1_555
C59 C60 1_555 1_555
C60 C61 1_555 1_555
C61 C57 1_555 1_555
C62 O29 1_555 1_555
C63 O31 1_555 1_555
O33 Cu1 1_555 1_555
O34 Cu2 1_555 1_555
O35 Cu5 1_555 1_555
O36 Cu6 1_555 1_555
C64 C65 1_555 1_555
C65 C66 1_555 1_555
C66 C67 1_555 1_555
C67 C68 1_555 1_555
C68 C69 1_555 1_555
C69 C64 1_555 1_555
C70 O33 1_555 1_555
C71 O35 1_555 1_555
O37 Cu9 1_555 1_555
O38 Cu10 1_555 1_555
O39 Cu11 1_555 1_555
O40 Cu12 1_555 1_555
C72 C73 1_555 1_555
C73 C74 1_555 1_555
C74 C75 1_555 1_555
C75 C76 1_555 1_555
C76 C77 1_555 1_555
C77 C72 1_555 1_555
C78 Cu10 1_555 1_555
C79 O39 1_555 1_555
O41 Cu9 1_555 1_555
O42 Cu10 1_555 1_555
O43 Cu3 1_555 1_555
O44 Cu4 1_555 1_555
C80 C81 1_555 1_555
C81 C82 1_555 1_555
C82 C83 1_555 1_555
C83 C84 1_555 1_555
C84 C85 1_555 1_555
C85 C80 1_555 1_555
C86 O41 1_555 1_555
C87 O43 1_555 1_555
O45 Cu1 1_555 1_555
O46 Cu2 1_555 1_555
O47 Cu7 1_555 1_555
O48 Cu8 1_555 1_555
C88 C89 1_555 1_555
C89 C90 1_555 1_555
C90 C91 1_555 1_555
C91 C92 1_555 1_555
C92 C93 1_555 1_555
C93 C88 1_555 1_555
C94 O45 1_555 1_555
C95 O47 1_555 1_555
Cu13 Cu14 1_555 1_555
Cu14 O50 1_555 1_555
Cu15 Cu16 1_555 1_555
Cu16 O52 1_555 1_555
Cu17 Cu18 1_555 1_555
Cu18 O56 1_555 1_555
Cu19 Cu20 1_555 1_555
Cu20 O62 1_555 1_555
Cu21 Cu22 1_555 1_555
Cu22 O58 1_555 1_555
Cu23 Cu24 1_555 1_555
Cu24 O74 1_555 1_555
O49 Cu13 1_555 1_555
O50 C102 1_555 1_555
O51 Cu15 1_555 1_555
O52 C103 1_555 1_555
C96 C97 1_555 1_555
C97 C98 1_555 1_555
C98 C99 1_555 1_555
C99 C100 1_555 1_555
C100 C101 1_555 1_555
C101 C96 1_555 1_555
C102 O49 1_555 1_555
C103 Cu16 1_555 1_555
O53 Cu15 1_555 1_555
O54 Cu16 1_555 1_555
O55 Cu17 1_555 1_555
O56 C111 1_555 1_555
C104 C105 1_555 1_555
C105 C106 1_555 1_555
C106 C107 1_555 1_555
C107 C108 1_555 1_555
C108 C109 1_555 1_555
C109 C104 1_555 1_555
C110 O53 1_555 1_555
C111 O55 1_555 1_555
O57 Cu21 1_555 1_555
O58 C118 1_555 1_555
O59 Cu13 1_555 1_555
O60 Cu14 1_555 1_555
C112 C113 1_555 1_555
C113 C114 1_555 1_555
C114 C115 1_555 1_555
C115 C116 1_555 1_555
C116 C117 1_555 1_555
C117 C112 1_555 1_555
C118 O57 1_555 1_555
C119 O59 1_555 1_555
O61 Cu19 1_555 1_555
O62 C126 1_555 1_555
O63 Cu15 1_555 1_555
O64 Cu16 1_555 1_555
C120 C121 1_555 1_555
C121 C122 1_555 1_555
C122 C123 1_555 1_555
C123 C124 1_555 1_555
C124 C125 1_555 1_555
C125 C120 1_555 1_555
C126 O61 1_555 1_555
C127 O63 1_555 1_555
O65 Cu19 1_555 1_555
O66 Cu20 1_555 1_555
O67 Cu17 1_555 1_555
O68 Cu18 1_555 1_555
C128 C129 1_555 1_555
C129 C130 1_555 1_555
C130 C131 1_555 1_555
C131 C132 1_555 1_555
C132 C133 1_555 1_555
C133 C128 1_555 1_555
C134 O65 1_555 1_555
C135 O67 1_555 1_555
O69 Cu21 1_555 1_555
O70 Cu22 1_555 1_555
O71 Cu19 1_555 1_555
O72 Cu20 1_555 1_555
C136 C137 1_555 1_555
C137 C138 1_555 1_555
C138 C139 1_555 1_555
C139 C140 1_555 1_555
C140 C141 1_555 1_555
C141 C136 1_555 1_555
C142 Cu21 1_555 1_555
C143 O71 1_555 1_555
O73 Cu23 1_555 1_555
O74 C150 1_555 1_555
O75 Cu19 1_555 1_555
O76 Cu20 1_555 1_555
C144 C145 1_555 1_555
C145 C146 1_555 1_555
C146 C147 1_555 1_555
C147 C148 1_555 1_555
C148 C149 1_555 1_555
C149 C144 1_555 1_555
C150 O73 1_555 1_555
C151 O75 1_555 1_555
O77 Cu23 1_555 1_555
O78 Cu24 1_555 1_555
O79 Cu21 1_555 1_555
O80 Cu22 1_555 1_555
C152 C153 1_555 1_555
C153 C154 1_555 1_555
C154 C155 1_555 1_555
C155 C156 1_555 1_555
C156 C157 1_555 1_555
C157 C152 1_555 1_555
C158 O77 1_555 1_555
C159 O79 1_555 1_555
O81 Cu23 1_555 1_555
O82 Cu24 1_555 1_555
O83 Cu15 1_555 1_555
O84 Cu16 1_555 1_555
C160 C161 1_555 1_555
C161 C162 1_555 1_555
C162 C163 1_555 1_555
C163 C164 1_555 1_555
C164 C165 1_555 1_555
C165 C160 1_555 1_555
C166 Cu24 1_555 1_555
C167 O83 1_555 1_555
O85 Cu17 1_555 1_555
O86 Cu18 1_555 1_555
O87 Cu21 1_555 1_555
O88 Cu22 1_555 1_555
C168 C169 1_555 1_555
C169 C170 1_555 1_555
C170 C171 1_555 1_555
C171 C172 1_555 1_555
C172 C173 1_555 1_555
C173 C168 1_555 1_555
C174 Cu18 1_555 1_555
C175 Cu21 1_555 1_555
O89 Cu23 1_555 1_555
O90 Cu24 1_555 1_555
O91 Cu13 1_555 1_555
O92 Cu14 1_555 1_555
C176 C177 1_555 1_555
C177 C178 1_555 1_555
C178 C179 1_555 1_555
C179 C180 1_555 1_555
C180 C181 1_555 1_555
C181 C176 1_555 1_555
C182 O89 1_555 1_555
C183 O91 1_555 1_555
O93 Cu17 1_555 1_555
O94 Cu18 1_555 1_555
O95 Cu13 1_555 1_555
O96 Cu14 1_555 1_555
C184 C185 1_555 1_555
C185 C186 1_555 1_555
C186 C187 1_555 1_555
C187 C188 1_555 1_555
C188 C189 1_555 1_555
C189 C184 1_555 1_555
C190 O93 1_555 1_555
C191 O95 1_555 1_555
N1 Cu9 1_555 1_555
N2 Cu2 1_555 1_555
N3 Cu10 1_555 1_555
N4 Cu6 1_555 1_555
N5 Cu8 1_555 1_555
N6 Cu12 1_555 1_555
N7 Cu4 1_555 1_555
N8 Cu7 1_555 1_555
N9 Cu1 1_555 1_555
N10 Cu13 1_555 1_555
N11 Cu14 1_555 1_555
N12 Cu3 1_555 1_555
N13 Cu15 1_555 1_555
N14 Cu16 1_555 1_555
N15 Cu17 1_555 1_555
N16 Cu5 1_555 1_555
N17 Cu18 1_555 1_555
N18 Cu19 1_555 1_555
N19 Cu20 1_555 1_555
N20 Cu21 1_555 1_555
N21 Cu22 1_555 1_555
N22 Cu23 1_555 1_555
N23 Cu11 1_555 1_555
N24 Cu24 1_555 1_555
C192 C206 1_555 1_555
C195 C209 1_555 1_555
C196 N3 1_555 1_555
C197 C209 1_555 1_555
C200 C248 1_555 1_555
C201 C222 1_555 1_555
C203 C248 1_555 1_555
C205 N1 1_555 1_555
C207 C205 1_555 1_555
C222 C197 1_555 1_555
C224 C238 1_555 1_555
C228 C195 1_555 1_555
C237 N6 1_555 1_555
C238 C303 1_555 1_555
C246 N7 1_555 1_555
C248 C222 1_555 1_555
C270 N7 1_555 1_555
C273 N4 1_555 1_555
C276 N9 1_555 1_555
C277 C276 1_555 1_555
C278 C277 1_555 1_555
C279 C278 1_555 1_555
C280 N9 1_555 1_555
C281 N10 1_555 1_555
C282 C281 1_555 1_555
C283 C282 1_555 1_555
C284 C283 1_555 1_555
C285 N10 1_555 1_555
C286 N11 1_555 1_555
C287 N11 1_555 1_555
C288 N12 1_555 1_555
C289 C288 1_555 1_555
C290 C289 1_555 1_555
C291 C290 1_555 1_555
C292 N12 1_555 1_555
C293 N13 1_555 1_555
C294 C293 1_555 1_555
C295 C294 1_555 1_555
C296 C295 1_555 1_555
C297 N13 1_555 1_555
C298 N15 1_555 1_555
C299 N16 1_555 1_555
C300 C224 1_555 1_555
C301 C302 1_555 1_555
C302 Cu17 1_555 1_555
C303 N16 1_555 1_555
C304 N17 1_555 1_555
C305 N18 1_555 1_555
C306 C305 1_555 1_555
C307 C306 1_555 1_555
C308 C307 1_555 1_555
C309 N18 1_555 1_555
C310 N20 1_555 1_555
C312 N22 1_555 1_555
C313 N22 1_555 1_555
C84A C87 1_555 1_555
C83A C84A 1_555 1_555
C82A C83A 1_555 1_555
C81A C82A 1_555 1_555
C80A C81A 1_555 1_555
C85A C84A 1_555 1_555
C86A C80A 1_555 1_555
O41A C86A 1_555 1_555
Cu9A O41A 1_555 1_555
Cu10A Cu9A 1_555 1_555
O22A Cu10A 1_555 1_555
C47A O22A 1_555 1_555
O21A Cu9A 1_555 1_555
O27A Cu9A 1_555 1_555
C56A C53 1_555 1_555
O28A Cu10A 1_555 1_555
O38A Cu10A 1_555 1_555
C78A Cu10A 1_555 1_555
O42A C86A 1_555 1_555
N3A Cu10A 1_555 1_555
C196A N3A 1_555 1_555
O37A Cu9A 1_555 1_555
N1A Cu9A 1_555 1_555
C205A N1A 1_555 1_555
C207A C205A 1_555 1_555
C72A C78A 1_555 1_555
C73A C72A 1_555 1_555
C74A C73A 1_555 1_555
C75A C74A 1_555 1_555
C76A C75A 1_555 1_555
C77A C72A 1_555 1_555
C79A C76A 1_555 1_555
O39A C79A 1_555 1_555
Cu11A O39A 1_555 1_555
Cu12A Cu11A 1_555 1_555
O4A Cu12A 1_555 1_555
C8A O4A 1_555 1_555
O3A Cu11A 1_555 1_555
O13A Cu11A 1_555 1_555
C31A Cu12A 1_555 1_555
O14A Cu12A 1_555 1_555
C25A C31A 1_555 1_555
C26A C25A 1_555 1_555
C27A C26A 1_555 1_555
C28A C27A 1_555 1_555
C29A C28A 1_555 1_555
C30A C25A 1_555 1_555
C32A C29A 1_555 1_555
O15A C32A 1_555 1_555
Cu3A O15A 1_555 1_555
Cu4A Cu3A 1_555 1_555
O8A Cu4A 1_555 1_555
C16A O8A 1_555 1_555
O7A Cu3A 1_555 1_555
O9A Cu3A 1_555 1_555
C23A O9A 1_555 1_555
O10A Cu4A 1_555 1_555
O16A C32A 1_555 1_555
O44A Cu4A 1_555 1_555
C87A C84 1_555 1_555
O43A Cu3A 1_555 1_555
N12A Cu3A 1_555 1_555
C288A N12A 1_555 1_555
C289A C288A 1_555 1_555
C290A C289A 1_555 1_555
C291A C290A 1_555 1_555
C292A N12A 1_555 1_555
C92A C95 1_555 1_555
C91A C92A 1_555 1_555
C90A C91A 1_555 1_555
C89A C90A 1_555 1_555
C88A C89A 1_555 1_555
C93A C92A 1_555 1_555
C94A C88A 1_555 1_555
O45A C94A 1_555 1_555
Cu1A O45A 1_555 1_555
Cu2A Cu1A 1_555 1_555
O2A Cu2A 1_555 1_555
C7A O2A 1_555 1_555
O1A Cu1A 1_555 1_555
O5A Cu1A 1_555 1_555
C15A Cu2A 1_555 1_555
O6A Cu2A 1_555 1_555
C9A C15A 1_555 1_555
C10A C9A 1_555 1_555
C11A C10A 1_555 1_555
C12A C11A 1_555 1_555
C13A C16A 1_555 1_555
C14A C9A 1_555 1_555
O34A Cu2A 1_555 1_555
C70A O34A 1_555 1_555
O33A Cu1A 1_555 1_555
N9A Cu1A 1_555 1_555
C276A N9A 1_555 1_555
C277A C276A 1_555 1_555
C278A C277A 1_555 1_555
C279A C278A 1_555 1_555
C280A N9A 1_555 1_555
C64A C70A 1_555 1_555
C65A C64A 1_555 1_555
C66A C65A 1_555 1_555
C67A C66A 1_555 1_555
C68A C71 1_555 1_555
C69A C64A 1_555 1_555
O46A C94A 1_555 1_555
N2A Cu2A 1_555 1_555
C1A C7A 1_555 1_555
C2A C1A 1_555 1_555
C3A C2A 1_555 1_555
C4A C3A 1_555 1_555
C5A C8A 1_555 1_555
C6A C1A 1_555 1_555
C53A C56 1_555 1_555
C52A C53A 1_555 1_555
C51A C52A 1_555 1_555
C50A C51A 1_555 1_555
C49A C50A 1_555 1_555
C54A C53A 1_555 1_555
C55A C49A 1_555 1_555
O25A C55A 1_555 1_555
Cu5A O25A 1_555 1_555
Cu6A Cu5A 1_555 1_555
O12A Cu6A 1_555 1_555
C24A O12A 1_555 1_555
O11A Cu5A 1_555 1_555
O19A Cu5A 1_555 1_555
C40A O19A 1_555 1_555
O20A Cu6A 1_555 1_555
O26A C55A 1_555 1_555
O36A Cu6A 1_555 1_555
C71A C68 1_555 1_555
O35A Cu5A 1_555 1_555
N16A Cu5A 1_555 1_555
C299A N16A 1_555 1_555
C300A C299A 1_555 1_555
C224A C300A 1_555 1_555
C238A C224A 1_555 1_555
C303A N16A 1_555 1_555
C95A C92 1_555 1_555
O47A C95A 1_555 1_555
Cu7A O47A 1_555 1_555
Cu8A Cu7A 1_555 1_555
O18A Cu8A 1_555 1_555
C39A O18A 1_555 1_555
O17A Cu7A 1_555 1_555
O23A Cu7A 1_555 1_555
C48A O23A 1_555 1_555
O24A Cu8A 1_555 1_555
O32A Cu8A 1_555 1_555
C63A O32A 1_555 1_555
O31A Cu7A 1_555 1_555
N8A Cu7A 1_555 1_555
C60A C63A 1_555 1_555
C59A C60A 1_555 1_555
C61A C60A 1_555 1_555
C57A C61A 1_555 1_555
C58A C57A 1_555 1_555
C62A C57A 1_555 1_555
O29A Cu11A 1_555 1_555
N23A Cu11A 1_555 1_555
O30A Cu12A 1_555 1_555
O40A C79A 1_555 1_555
N6A Cu12A 1_555 1_555
C237A N6A 1_555 1_555
O48A C95A 1_555 1_555
N5A Cu8A 1_555 1_555
C45A C48A 1_555 1_555
C44A C45A 1_555 1_555
C43A C44A 1_555 1_555
C42A C43A 1_555 1_555
C41A C47A 1_555 1_555
C46A C45A 1_555 1_555
C33A C39A 1_555 1_555
C34A C33A 1_555 1_555
C35A C34A 1_555 1_555
C36A C35A 1_555 1_555
C37A C40A 1_555 1_555
C38A C33A 1_555 1_555
N4A Cu6A 1_555 1_555
C273A N4A 1_555 1_555
C21A C24A 1_555 1_555
C20A C21A 1_555 1_555
C19A C20A 1_555 1_555
C18A C19A 1_555 1_555
C17A C23A 1_555 1_555
C22A C21A 1_555 1_555
N7A Cu4A 1_555 1_555
C246A N7A 1_555 1_555
C270A N7A 1_555 1_555
C188A C191 1_555 1_555
C187A C188A 1_555 1_555
C186A C187A 1_555 1_555
C185A C186A 1_555 1_555
C184A C185A 1_555 1_555
C189A C188A 1_555 1_555
C190A C184A 1_555 1_555
O93A C190A 1_555 1_555
Cu17A O93A 1_555 1_555
Cu18A Cu17A 1_555 1_555
O56A Cu18A 1_555 1_555
C111A O56A 1_555 1_555
O55A Cu17A 1_555 1_555
O67A Cu17A 1_555 1_555
C135A O67A 1_555 1_555
O68A Cu18A 1_555 1_555
O86A Cu18A 1_555 1_555
C174A Cu18A 1_555 1_555
O94A C190A 1_555 1_555
N17A Cu18A 1_555 1_555
C304A N17A 1_555 1_555
O85A Cu17A 1_555 1_555
N15A Cu17A 1_555 1_555
C298A N15A 1_555 1_555
C302A Cu17A 1_555 1_555
C301A C302A 1_555 1_555
C168A C174A 1_555 1_555
C169A C168A 1_555 1_555
C170A C169A 1_555 1_555
C171A C170A 1_555 1_555
C172A C175 1_555 1_555
C173A C168A 1_555 1_555
C167A C164 1_555 1_555
O83A C167A 1_555 1_555
Cu15A O83A 1_555 1_555
Cu16A Cu15A 1_555 1_555
O52A Cu16A 1_555 1_555
C103A Cu16A 1_555 1_555
O54A Cu16A 1_555 1_555
C110A O54A 1_555 1_555
O53A Cu15A 1_555 1_555
O51A Cu15A 1_555 1_555
C100A C103A 1_555 1_555
C99A C100A 1_555 1_555
C98A C99A 1_555 1_555
C97A C98A 1_555 1_555
C96A C97A 1_555 1_555
C101A C100A 1_555 1_555
C102A C96A 1_555 1_555
O49A C102A 1_555 1_555
Cu13A O49A 1_555 1_555
Cu14A Cu13A 1_555 1_555
O50A C102A 1_555 1_555
O60A Cu14A 1_555 1_555
C119A O60A 1_555 1_555
O59A Cu13A 1_555 1_555
O91A Cu13A 1_555 1_555
C183A C180 1_555 1_555
O92A Cu14A 1_555 1_555
O96A Cu14A 1_555 1_555
C191A C188 1_555 1_555
O95A Cu13A 1_555 1_555
N10A Cu13A 1_555 1_555
C281A N10A 1_555 1_555
C282A C281A 1_555 1_555
C283A C282A 1_555 1_555
C284A C283A 1_555 1_555
C285A N10A 1_555 1_555
C175A C172 1_555 1_555
Cu21A C175A 1_555 1_555
Cu22A Cu21A 1_555 1_555
O58A Cu22A 1_555 1_555
C118A O58A 1_555 1_555
O57A Cu21A 1_555 1_555
O69A Cu21A 1_555 1_555
C142A Cu21A 1_555 1_555
O79A Cu21A 1_555 1_555
C159A O79A 1_555 1_555
O80A Cu22A 1_555 1_555
O70A Cu22A 1_555 1_555
C136A C142A 1_555 1_555
C137A C136A 1_555 1_555
C138A C137A 1_555 1_555
C139A C138A 1_555 1_555
C140A C139A 1_555 1_555
C141A C136A 1_555 1_555
C143A C140A 1_555 1_555
O71A C143A 1_555 1_555
Cu19A O71A 1_555 1_555
Cu20A Cu19A 1_555 1_555
O62A Cu20A 1_555 1_555
C126A O62A 1_555 1_555
O61A Cu19A 1_555 1_555
O65A Cu19A 1_555 1_555
C134A O65A 1_555 1_555
O66A Cu20A 1_555 1_555
O72A C143A 1_555 1_555
O76A Cu20A 1_555 1_555
C151A O76A 1_555 1_555
O75A Cu19A 1_555 1_555
N18A Cu19A 1_555 1_555
C305A N18A 1_555 1_555
C306A C305A 1_555 1_555
C307A C306A 1_555 1_555
C308A C307A 1_555 1_555
C309A N18A 1_555 1_555
C148A C151A 1_555 1_555
C147A C148A 1_555 1_555
C146A C147A 1_555 1_555
C145A C146A 1_555 1_555
C144A C145A 1_555 1_555
C149A C148A 1_555 1_555
C150A C144A 1_555 1_555
O73A C150A 1_555 1_555
Cu23A O73A 1_555 1_555
Cu24A Cu23A 1_555 1_555
O74A C150A 1_555 1_555
O78A Cu24A 1_555 1_555
C158A O78A 1_555 1_555
O77A Cu23A 1_555 1_555
O81A Cu23A 1_555 1_555
C166A Cu24A 1_555 1_555
O82A Cu24A 1_555 1_555
C160A C166A 1_555 1_555
C161A C160A 1_555 1_555
C162A C161A 1_555 1_555
C163A C162A 1_555 1_555
C164A C167 1_555 1_555
C165A C160A 1_555 1_555
O90A Cu24A 1_555 1_555
C182A O90A 1_555 1_555
O89A Cu23A 1_555 1_555
N22A Cu23A 1_555 1_555
C312A N22A 1_555 1_555
C313A N22A 1_555 1_555
C176A C182A 1_555 1_555
C177A C176A 1_555 1_555
C178A C177A 1_555 1_555
C179A C178A 1_555 1_555
C180A C183 1_555 1_555
C181A C176A 1_555 1_555
N24A Cu24A 1_555 1_555
C152A C158A 1_555 1_555
C153A C152A 1_555 1_555
C154A C153A 1_555 1_555
C155A C154A 1_555 1_555
C156A C159A 1_555 1_555
C157A C152A 1_555 1_555
N19A Cu20A 1_555 1_555
C128A C134A 1_555 1_555
C129A C128A 1_555 1_555
C130A C129A 1_555 1_555
C131A C130A 1_555 1_555
C132A C135A 1_555 1_555
C133A C128A 1_555 1_555
C120A C126A 1_555 1_555
C121A C120A 1_555 1_555
C122A C121A 1_555 1_555
C123A C122A 1_555 1_555
C124A C123A 1_555 1_555
C125A C120A 1_555 1_555
C127A C124A 1_555 1_555
O63A Cu15A 1_555 1_555
N13A Cu15A 1_555 1_555
C293A N13A 1_555 1_555
C294A C293A 1_555 1_555
C295A C294A 1_555 1_555
C296A C295A 1_555 1_555
C297A N13A 1_555 1_555
O64A Cu16A 1_555 1_555
O84A C167A 1_555 1_555
N14A Cu16A 1_555 1_555
O88A C175A 1_555 1_555
O87A C175A 1_555 1_555
N20A Cu21A 1_555 1_555
C310A N20A 1_555 1_555
N21A Cu22A 1_555 1_555
C112A C118A 1_555 1_555
C113A C112A 1_555 1_555
C114A C113A 1_555 1_555
C115A C114A 1_555 1_555
C116A C119A 1_555 1_555
C117A C112A 1_555 1_555
N11A Cu14A 1_555 1_555
C286A N11A 1_555 1_555
C287A N11A 1_555 1_555
C104A C110A 1_555 1_555
C105A C104A 1_555 1_555
C106A C105A 1_555 1_555
C107A C106A 1_555 1_555
C108A C111A 1_555 1_555
C109A C104A 1_555 1_555
C1 C7 1_555 1_555
C5 C8 1_555 1_555
O5 C15 1_555 1_555
O6 C15 1_555 1_555
C9 C15 1_555 1_555
C13 C16 1_555 1_555
O10 C23 1_555 1_555
C17 C23 1_555 1_555
C21 C24 1_555 1_555
O13 C31 1_555 1_555
O14 C31 1_555 1_555
O16 C32 1_555 1_555
C25 C31 1_555 1_555
C29 C32 1_555 1_555
O20 C40 1_555 1_555
C33 C39 1_555 1_555
C37 C40 1_555 1_555
O24 C48 1_555 1_555
C41 C47 1_555 1_555
C45 C48 1_555 1_555
O26 C55 1_555 1_555
O28 C56 1_555 1_555
C49 C55 1_555 1_555
O30 C62 1_555 1_555
O32 C63 1_555 1_555
C57 C62 1_555 1_555
C60 C63 1_555 1_555
O34 C70 1_555 1_555
O36 C71 1_555 1_555
C64 C70 1_555 1_555
O37 C78 1_555 1_555
O38 C78 1_555 1_555
O40 C79 1_555 1_555
C72 C78 1_555 1_555
C76 C79 1_555 1_555
O42 C86 1_555 1_555
O44 C87 1_555 1_555
C80 C86 1_555 1_555
O46 C94 1_555 1_555
O48 C95 1_555 1_555
C88 C94 1_555 1_555
O51 C103 1_555 1_555
C96 C102 1_555 1_555
C100 C103 1_555 1_555
O54 C110 1_555 1_555
C104 C110 1_555 1_555
C108 C111 1_555 1_555
O60 C119 1_555 1_555
C112 C118 1_555 1_555
C116 C119 1_555 1_555
O64 C127 1_555 1_555
C120 C126 1_555 1_555
C124 C127 1_555 1_555
O66 C134 1_555 1_555
O68 C135 1_555 1_555
C128 C134 1_555 1_555
C132 C135 1_555 1_555
O69 C142 1_555 1_555
O70 C142 1_555 1_555
O72 C143 1_555 1_555
C136 C142 1_555 1_555
C140 C143 1_555 1_555
O76 C151 1_555 1_555
C144 C150 1_555 1_555
C148 C151 1_555 1_555
O78 C158 1_555 1_555
O80 C159 1_555 1_555
C152 C158 1_555 1_555
C156 C159 1_555 1_555
O81 C166 1_555 1_555
O82 C166 1_555 1_555
O84 C167 1_555 1_555
C160 C166 1_555 1_555
O85 C174 1_555 1_555
O86 C174 1_555 1_555
O87 C175 1_555 1_555
O88 C175 1_555 1_555
C168 C174 1_555 1_555
O90 C182 1_555 1_555
O92 C183 1_555 1_555
C176 C182 1_555 1_555
O94 C190 1_555 1_555
O96 C191 1_555 1_555
C184 C190 1_555 1_555
N15 C302 1_555 1_555
C201 C228 1_555 1_555
C279 C280 1_555 1_555
C284 C285 1_555 1_555
C291 C292 1_555 1_555
C296 C297 1_555 1_555
C299 C300 1_555 1_555
C308 C309 1_555 1_555
C80A C85A 1_555 1_555
Cu10A O42A 1_555 1_555
C47A O21A 1_555 1_555
O27A C56A 1_555 1_555
C56A O28A 1_555 1_555
O38A C78A 1_555 1_555
C78A O37A 1_555 1_555
C76A C77A 1_555 1_555
Cu12A O40A 1_555 1_555
C8A O3A 1_555 1_555
O13A C31A 1_555 1_555
C31A O14A 1_555 1_555
C29A C30A 1_555 1_555
Cu4A O16A 1_555 1_555
C16A O7A 1_555 1_555
C23A O10A 1_555 1_555
O44A C87A 1_555 1_555
C87A O43A 1_555 1_555
C291A C292A 1_555 1_555
C88A C93A 1_555 1_555
Cu2A O46A 1_555 1_555
C7A O1A 1_555 1_555
O5A C15A 1_555 1_555
C15A O6A 1_555 1_555
C12A C13A 1_555 1_555
C13A C14A 1_555 1_555
C70A O33A 1_555 1_555
C279A C280A 1_555 1_555
C67A C68A 1_555 1_555
C68A C69A 1_555 1_555
C4A C5A 1_555 1_555
C5A C6A 1_555 1_555
C49A C54A 1_555 1_555
Cu6A O26A 1_555 1_555
C24A O11A 1_555 1_555
C40A O20A 1_555 1_555
O36A C71A 1_555 1_555
C71A O35A 1_555 1_555
C238A C303A 1_555 1_555
Cu8A O48A 1_555 1_555
C39A O17A 1_555 1_555
C48A O24A 1_555 1_555
C63A O31A 1_555 1_555
C62A O29A 1_555 1_555
C62A O30A 1_555 1_555
C42A C41A 1_555 1_555
C41A C46A 1_555 1_555
C36A C37A 1_555 1_555
C37A C38A 1_555 1_555
C18A C17A 1_555 1_555
C17A C22A 1_555 1_555
C184A C189A 1_555 1_555
Cu18A O94A 1_555 1_555
C111A O55A 1_555 1_555
C135A O68A 1_555 1_555
O86A C174A 1_555 1_555
C174A O85A 1_555 1_555
N15A C302A 1_555 1_555
C171A C172A 1_555 1_555
C172A C173A 1_555 1_555
Cu16A O84A 1_555 1_555
O52A C103A 1_555 1_555
C103A O51A 1_555 1_555
C110A O53A 1_555 1_555
C96A C101A 1_555 1_555
Cu14A O50A 1_555 1_555
C119A O59A 1_555 1_555
O91A C183A 1_555 1_555
C183A O92A 1_555 1_555
O96A C191A 1_555 1_555
C191A O95A 1_555 1_555
C284A C285A 1_555 1_555
Cu21A O87A 1_555 1_555
Cu22A O88A 1_555 1_555
C118A O57A 1_555 1_555
O69A C142A 1_555 1_555
C142A O70A 1_555 1_555
C159A O80A 1_555 1_555
C140A C141A 1_555 1_555
Cu20A O72A 1_555 1_555
C126A O61A 1_555 1_555
C134A O66A 1_555 1_555
C151A O75A 1_555 1_555
C308A C309A 1_555 1_555
C144A C149A 1_555 1_555
Cu24A O74A 1_555 1_555
C158A O77A 1_555 1_555
O81A C166A 1_555 1_555
C166A O82A 1_555 1_555
C163A C164A 1_555 1_555
C164A C165A 1_555 1_555
C182A O89A 1_555 1_555
C179A C180A 1_555 1_555
C180A C181A 1_555 1_555
C155A C156A 1_555 1_555
C156A C157A 1_555 1_555
C131A C132A 1_555 1_555
C132A C133A 1_555 1_555
C124A C125A 1_555 1_555
C127A O63A 1_555 1_555
C127A O64A 1_555 1_555
C296A C297A 1_555 1_555
C115A C116A 1_555 1_555
C116A C117A 1_555 1_555
C107A C108A 1_555 1_555
C108A C109A 1_555 1_555

#END
