
#######################################################################
#
#                 Cambridge Crystallographic Data Centre
#                                CCDC 
#
#######################################################################
#
# If this CIF has been generated from an entry in the Cambridge 
# Structural Database, then it will include bibliographic, chemical, 
# crystal, experimental, refinement or atomic coordinate data resulting 
# from the CCDC's data processing and validation procedures.
#
#######################################################################

data_XEYBEI
_chemical_formula_moiety         'C1 H4 O1,C216 H192 Cu24 O120'
_chemical_name_systematic        
'tetracosakis(\m~4~-benzene-1,3-dicarboxylato)-tetracosakis(methanol)-tetracosa-copper methanol clathrate'
_symmetry_cell_setting           cubic
_symmetry_space_group_name_H-M   'I m -3 m'
_symmetry_Int_Tables_number      229
_space_group_name_Hall           '-I 4 2 3'
loop_
_symmetry_equiv_pos_site_id
_symmetry_equiv_pos_as_xyz
1 x,y,z
2 z,x,y
3 y,z,x
4 y,x,-z
5 y,-x,z
6 -y,x,z
7 x,z,-y
8 -x,z,y
9 x,-z,y
10 z,y,-x
11 z,-y,x
12 -z,y,x
13 1/2+x,1/2+y,1/2+z
14 1/2+z,1/2+x,1/2+y
15 1/2+y,1/2+z,1/2+x
16 1/2+y,1/2+x,1/2-z
17 1/2+y,1/2-x,1/2+z
18 1/2-y,1/2+x,1/2+z
19 1/2+x,1/2+z,1/2-y
20 1/2-x,1/2+z,1/2+y
21 1/2+x,1/2-z,1/2+y
22 1/2+z,1/2+y,1/2-x
23 1/2+z,1/2-y,1/2+x
24 1/2-z,1/2+y,1/2+x
25 -x,-y,z
26 -x,y,-z
27 x,-y,-z
28 z,-x,-y
29 -z,-x,y
30 -z,x,-y
31 -y,z,-x
32 y,-z,-x
33 -y,-z,x
34 -y,-x,-z
35 -x,-z,-y
36 -z,-y,-x
37 1/2-x,1/2-y,1/2+z
38 1/2-x,1/2+y,1/2-z
39 1/2+x,1/2-y,1/2-z
40 1/2+z,1/2-x,1/2-y
41 1/2-z,1/2-x,1/2+y
42 1/2-z,1/2+x,1/2-y
43 1/2-y,1/2+z,1/2-x
44 1/2+y,1/2-z,1/2-x
45 1/2-y,1/2-z,1/2+x
46 1/2-y,1/2-x,1/2-z
47 1/2-x,1/2-z,1/2-y
48 1/2-z,1/2-y,1/2-x
49 -x,-y,-z
50 -z,-x,-y
51 -y,-z,-x
52 -y,-x,z
53 -y,x,-z
54 y,-x,-z
55 -x,-z,y
56 x,-z,-y
57 -x,z,-y
58 -z,-y,x
59 -z,y,-x
60 z,-y,-x
61 1/2-x,1/2-y,1/2-z
62 1/2-z,1/2-x,1/2-y
63 1/2-y,1/2-z,1/2-x
64 1/2-y,1/2-x,1/2+z
65 1/2-y,1/2+x,1/2-z
66 1/2+y,1/2-x,1/2-z
67 1/2-x,1/2-z,1/2+y
68 1/2+x,1/2-z,1/2-y
69 1/2-x,1/2+z,1/2-y
70 1/2-z,1/2-y,1/2+x
71 1/2-z,1/2+y,1/2-x
72 1/2+z,1/2-y,1/2-x
73 x,y,-z
74 x,-y,z
75 -x,y,z
76 -z,x,y
77 z,x,-y
78 z,-x,y
79 y,-z,x
80 -y,z,x
81 y,z,-x
82 y,x,z
83 x,z,y
84 z,y,x
85 1/2+x,1/2+y,1/2-z
86 1/2+x,1/2-y,1/2+z
87 1/2-x,1/2+y,1/2+z
88 1/2-z,1/2+x,1/2+y
89 1/2+z,1/2+x,1/2-y
90 1/2+z,1/2-x,1/2+y
91 1/2+y,1/2-z,1/2+x
92 1/2-y,1/2+z,1/2+x
93 1/2+y,1/2+z,1/2-x
94 1/2+y,1/2+x,1/2+z
95 1/2+x,1/2+z,1/2+y
96 1/2+z,1/2+y,1/2+x
_cell_length_a                   27.6895(17)
_cell_length_b                   27.6895(17)
_cell_length_c                   27.6895(17)
_cell_angle_alpha                90
_cell_angle_beta                 90
_cell_angle_gamma                90
_cell_volume                     21229.8
_exptl_crystal_colour            blue
_exptl_crystal_description       rod
_cell_formula_units_Z            2
loop_
_atom_site_label
_atom_site_type_symbol
_atom_site_fract_x
_atom_site_fract_y
_atom_site_fract_z
Cu1 Cu 0.27103(4) 0.27103(4) 0.0000
Cu2 Cu 0.20453(4) 0.20453(4) 0.0000
O1 O 0.23135(19) 0.3020(2) 0.0498(2)
O2 O 0.17381(19) 0.2441(2) 0.0496(2)
O3 O 0.3263(3) 0.3263(3) 0.0000
O4 O 0.1493(3) 0.1493(3) 0.0000
C1 C 0.1927(3) 0.2825(3) 0.0655(3)
C2 C 0.1675(3) 0.3077(3) 0.1059(3)
C3 C 0.1279(3) 0.2853(4) 0.1279(3)
H1 H 0.1162 0.2553 0.1162
C4 C 0.1630(4) 0.3726(5) 0.1630(4)
H2 H 0.1760 0.4015 0.1760
C5 C 0.1838(4) 0.3511(3) 0.1229(4)
H3 H 0.2098 0.3668 0.1069
C6 C 0.170(3) 0.102(3) 0.0000
O1EC O 0.0498(2) 0.3020(2) 0.23135(19)
O2EC O 0.0496(2) 0.2441(2) 0.17381(19)
C1EC C 0.0655(3) 0.2825(3) 0.1927(3)
C2EC C 0.1059(3) 0.3077(3) 0.1675(3)
C5EC C 0.1229(4) 0.3511(3) 0.1838(4)
H3EC H 0.1069 0.3668 0.2098
C6C C 0.102(3) 0.170(3) 0.0000
Cu1A Cu 0.0000 0.27103(4) 0.27103(4)
Cu2A Cu 0.0000 0.20453(4) 0.20453(4)
O1A O 0.0498(2) 0.23135(19) 0.3020(2)
O2A O 0.0496(2) 0.17381(19) 0.2441(2)
O3A O 0.0000 0.3263(3) 0.3263(3)
O4A O 0.0000 0.1493(3) 0.1493(3)
C1A C 0.0655(3) 0.1927(3) 0.2825(3)
C2A C 0.1059(3) 0.1675(3) 0.3077(3)
C3A C 0.1279(3) 0.1279(3) 0.2853(4)
H1A H 0.1162 0.1162 0.2553
C4A C 0.1630(4) 0.1630(4) 0.3726(5)
H2A H 0.1760 0.1760 0.4015
C5A C 0.1229(4) 0.1838(4) 0.3511(3)
H3A H 0.1069 0.2098 0.3668
C6A C 0.0000 0.170(3) 0.102(3)
O1DC O 0.23135(19) 0.0498(2) 0.3020(2)
O2DC O 0.17381(19) 0.0496(2) 0.2441(2)
C1DC C 0.1927(3) 0.0655(3) 0.2825(3)
C2DC C 0.1675(3) 0.1059(3) 0.3077(3)
C5DC C 0.1838(4) 0.1229(4) 0.3511(3)
H3DC H 0.2098 0.1069 0.3668
C6K C 0.0000 0.102(3) 0.170(3)
Cu1B Cu 0.27103(4) 0.0000 0.27103(4)
Cu2B Cu 0.20453(4) 0.0000 0.20453(4)
O1B O 0.3020(2) 0.0498(2) 0.23135(19)
O2B O 0.2441(2) 0.0496(2) 0.17381(19)
O3B O 0.3263(3) 0.0000 0.3263(3)
O4B O 0.1493(3) 0.0000 0.1493(3)
C1B C 0.2825(3) 0.0655(3) 0.1927(3)
C2B C 0.3077(3) 0.1059(3) 0.1675(3)
C3B C 0.2853(4) 0.1279(3) 0.1279(3)
H1B H 0.2553 0.1162 0.1162
C4B C 0.3726(5) 0.1630(4) 0.1630(4)
H2B H 0.4015 0.1760 0.1760
C5B C 0.3511(3) 0.1229(4) 0.1838(4)
H3B H 0.3668 0.1069 0.2098
C6B C 0.102(3) 0.0000 0.170(3)
O1CC O 0.3020(2) 0.23135(19) 0.0498(2)
O2CC O 0.2441(2) 0.17381(19) 0.0496(2)
C1CC C 0.2825(3) 0.1927(3) 0.0655(3)
C2CC C 0.3077(3) 0.1675(3) 0.1059(3)
C5CC C 0.3511(3) 0.1838(4) 0.1229(4)
H3CC H 0.3668 0.2098 0.1069
C6H C 0.170(3) 0.0000 0.102(3)
O1C O 0.3020(2) 0.23135(19) -0.0498(2)
O2C O 0.2441(2) 0.17381(19) -0.0496(2)
C1C C 0.2825(3) 0.1927(3) -0.0655(3)
C2C C 0.3077(3) 0.1675(3) -0.1059(3)
C3C C 0.2853(4) 0.1279(3) -0.1279(3)
H1C H 0.2553 0.1162 -0.1162
C4C C 0.3726(5) 0.1630(4) -0.1630(4)
H2C H 0.4015 0.1760 -0.1760
C5C C 0.3511(3) 0.1838(4) -0.1229(4)
H3C H 0.3668 0.2098 -0.1069
O1BC O 0.3020(2) 0.0498(2) -0.23135(19)
O2BC O 0.2441(2) 0.0496(2) -0.17381(19)
C1BC C 0.2825(3) 0.0655(3) -0.1927(3)
C2BC C 0.3077(3) 0.1059(3) -0.1675(3)
C5BC C 0.3511(3) 0.1229(4) -0.1838(4)
H3BC H 0.3668 0.1069 -0.2098
Cu1F Cu 0.27103(4) 0.0000 -0.27103(4)
Cu2F Cu 0.20453(4) 0.0000 -0.20453(4)
O1F O 0.23135(19) 0.0498(2) -0.3020(2)
O2F O 0.17381(19) 0.0496(2) -0.2441(2)
O3F O 0.3263(3) 0.0000 -0.3263(3)
O4F O 0.1493(3) 0.0000 -0.1493(3)
C1F C 0.1927(3) 0.0655(3) -0.2825(3)
C2F C 0.1675(3) 0.1059(3) -0.3077(3)
C3F C 0.1279(3) 0.1279(3) -0.2853(4)
H1F H 0.1162 0.1162 -0.2553
C4F C 0.1630(4) 0.1630(4) -0.3726(5)
H2F H 0.1760 0.1760 -0.4015
C5F C 0.1838(4) 0.1229(4) -0.3511(3)
H3F H 0.2098 0.1069 -0.3668
C6F C 0.170(3) 0.0000 -0.102(3)
O1XB O 0.0498(2) 0.23135(19) -0.3020(2)
O2XB O 0.0496(2) 0.17381(19) -0.2441(2)
C1XB C 0.0655(3) 0.1927(3) -0.2825(3)
C2XB C 0.1059(3) 0.1675(3) -0.3077(3)
C5XB C 0.1229(4) 0.1838(4) -0.3511(3)
H3XB H 0.1069 0.2098 -0.3668
C6BC C 0.102(3) 0.0000 -0.170(3)
Cu1G Cu -0.27103(4) 0.0000 0.27103(4)
Cu2G Cu -0.20453(4) 0.0000 0.20453(4)
O1G O -0.23135(19) 0.0498(2) 0.3020(2)
O2G O -0.17381(19) 0.0496(2) 0.2441(2)
O3G O -0.3263(3) 0.0000 0.3263(3)
O4G O -0.1493(3) 0.0000 0.1493(3)
C1G C -0.1927(3) 0.0655(3) 0.2825(3)
C2G C -0.1675(3) 0.1059(3) 0.3077(3)
C3G C -0.1279(3) 0.1279(3) 0.2853(4)
H1G H -0.1162 0.1162 0.2553
C4G C -0.1630(4) 0.1630(4) 0.3726(5)
H2G H -0.1760 0.1760 0.4015
C5G C -0.1838(4) 0.1229(4) 0.3511(3)
H3G H -0.2098 0.1069 0.3668
C6G C -0.170(3) 0.0000 0.102(3)
O1WB O -0.0498(2) 0.23135(19) 0.3020(2)
O2WB O -0.0496(2) 0.17381(19) 0.2441(2)
C1WB C -0.0655(3) 0.1927(3) 0.2825(3)
C2WB C -0.1059(3) 0.1675(3) 0.3077(3)
C5WB C -0.1229(4) 0.1838(4) 0.3511(3)
H3WB H -0.1069 0.2098 0.3668
C6AC C -0.102(3) 0.0000 0.170(3)
O1H O 0.23135(19) -0.0498(2) 0.3020(2)
O2H O 0.17381(19) -0.0496(2) 0.2441(2)
C1H C 0.1927(3) -0.0655(3) 0.2825(3)
C2H C 0.1675(3) -0.1059(3) 0.3077(3)
C3H C 0.1279(3) -0.1279(3) 0.2853(4)
H1H H 0.1162 -0.1162 0.2553
C4H C 0.1630(4) -0.1630(4) 0.3726(5)
H2H H 0.1760 -0.1760 0.4015
C5H C 0.1838(4) -0.1229(4) 0.3511(3)
H3H H 0.2098 -0.1069 0.3668
O1YB O 0.0498(2) -0.23135(19) 0.3020(2)
O2YB O 0.0496(2) -0.17381(19) 0.2441(2)
C1YB C 0.0655(3) -0.1927(3) 0.2825(3)
C2YB C 0.1059(3) -0.1675(3) 0.3077(3)
C5YB C 0.1229(4) -0.1838(4) 0.3511(3)
H3YB H 0.1069 -0.2098 0.3668
Cu1I Cu 0.0000 0.27103(4) -0.27103(4)
Cu2I Cu 0.0000 0.20453(4) -0.20453(4)
O1I O 0.0498(2) 0.3020(2) -0.23135(19)
O2I O 0.0496(2) 0.2441(2) -0.17381(19)
O3I O 0.0000 0.3263(3) -0.3263(3)
O4I O 0.0000 0.1493(3) -0.1493(3)
C1I C 0.0655(3) 0.2825(3) -0.1927(3)
C2I C 0.1059(3) 0.3077(3) -0.1675(3)
C3I C 0.1279(3) 0.2853(4) -0.1279(3)
H1I H 0.1162 0.2553 -0.1162
C4I C 0.1630(4) 0.3726(5) -0.1630(4)
H2I H 0.1760 0.4015 -0.1760
C5I C 0.1229(4) 0.3511(3) -0.1838(4)
H3I H 0.1069 0.3668 -0.2098
C6I C 0.0000 0.102(3) -0.170(3)
O1TB O 0.23135(19) 0.3020(2) -0.0498(2)
O2TB O 0.17381(19) 0.2441(2) -0.0496(2)
C1TB C 0.1927(3) 0.2825(3) -0.0655(3)
C2TB C 0.1675(3) 0.3077(3) -0.1059(3)
C5TB C 0.1838(4) 0.3511(3) -0.1229(4)
H3TB H 0.2098 0.3668 -0.1069
C6XB C 0.0000 0.170(3) -0.102(3)
O1K O -0.0498(2) 0.3020(2) 0.23135(19)
O2K O -0.0496(2) 0.2441(2) 0.17381(19)
C1K C -0.0655(3) 0.2825(3) 0.1927(3)
C2K C -0.1059(3) 0.3077(3) 0.1675(3)
C3K C -0.1279(3) 0.2853(4) 0.1279(3)
H1K H -0.1162 0.2553 0.1162
C4K C -0.1630(4) 0.3726(5) 0.1630(4)
H2K H -0.1760 0.4015 0.1760
C5K C -0.1229(4) 0.3511(3) 0.1838(4)
H3K H -0.1069 0.3668 0.2098
O1VB O -0.23135(19) 0.3020(2) 0.0498(2)
O2VB O -0.17381(19) 0.2441(2) 0.0496(2)
C1VB C -0.1927(3) 0.2825(3) 0.0655(3)
C2VB C -0.1675(3) 0.3077(3) 0.1059(3)
C5VB C -0.1838(4) 0.3511(3) 0.1229(4)
H3VB H -0.2098 0.3668 0.1069
Cu1E Cu -0.27103(4) 0.27103(4) 0.0000
Cu2E Cu -0.20453(4) 0.20453(4) 0.0000
O3E O -0.3263(3) 0.3263(3) 0.0000
O4E O -0.1493(3) 0.1493(3) 0.0000
C6VB C -0.170(3) 0.102(3) 0.0000
C6E C -0.102(3) 0.170(3) 0.0000
O1ZB O 0.3020(2) -0.0498(2) 0.23135(19)
O2ZB O 0.2441(2) -0.0496(2) 0.17381(19)
C1ZB C 0.2825(3) -0.0655(3) 0.1927(3)
C2ZB C 0.3077(3) -0.1059(3) 0.1675(3)
C3D C 0.2853(4) -0.1279(3) 0.1279(3)
H1D H 0.2553 -0.1162 0.1162
C4D C 0.3726(5) -0.1630(4) 0.1630(4)
H2D H 0.4015 -0.1760 0.1760
C5ZB C 0.3511(3) -0.1229(4) 0.1838(4)
H3ZB H 0.3668 -0.1069 0.2098
O1D O 0.3020(2) -0.23135(19) 0.0498(2)
O2D O 0.2441(2) -0.17381(19) 0.0496(2)
C1D C 0.2825(3) -0.1927(3) 0.0655(3)
C2D C 0.3077(3) -0.1675(3) 0.1059(3)
C5D C 0.3511(3) -0.1838(4) 0.1229(4)
H3D H 0.3668 -0.2098 0.1069
O1CB O 0.23135(19) -0.0498(2) -0.3020(2)
O2CB O 0.17381(19) -0.0496(2) -0.2441(2)
C1CB C 0.1927(3) -0.0655(3) -0.2825(3)
C2CB C 0.1675(3) -0.1059(3) -0.3077(3)
C3CB C 0.1279(3) -0.1279(3) -0.2853(4)
H1CB H 0.1162 -0.1162 -0.2553
C4CB C 0.1630(4) -0.1630(4) -0.3726(5)
H2CB H 0.1760 -0.1760 -0.4015
C5CB C 0.1838(4) -0.1229(4) -0.3511(3)
H3CB H 0.2098 -0.1069 -0.3668
O1AA O 0.0498(2) -0.23135(19) -0.3020(2)
O2AA O 0.0496(2) -0.17381(19) -0.2441(2)
C1AA C 0.0655(3) -0.1927(3) -0.2825(3)
C2AA C 0.1059(3) -0.1675(3) -0.3077(3)
C5AA C 0.1229(4) -0.1838(4) -0.3511(3)
H3AA H 0.1069 -0.2098 -0.3668
O1FB O -0.0498(2) 0.3020(2) -0.23135(19)
O2FB O -0.0496(2) 0.2441(2) -0.17381(19)
C1FB C -0.0655(3) 0.2825(3) -0.1927(3)
C2FB C -0.1059(3) 0.3077(3) -0.1675(3)
C3FB C -0.1279(3) 0.2853(4) -0.1279(3)
H1FB H -0.1162 0.2553 -0.1162
C4FB C -0.1630(4) 0.3726(5) -0.1630(4)
H2FB H -0.1760 0.4015 -0.1760
C5FB C -0.1229(4) 0.3511(3) -0.1838(4)
H3FB H -0.1069 0.3668 -0.2098
O1Y O -0.23135(19) 0.3020(2) -0.0498(2)
O2Y O -0.17381(19) 0.2441(2) -0.0496(2)
C1Y C -0.1927(3) 0.2825(3) -0.0655(3)
C2Y C -0.1675(3) 0.3077(3) -0.1059(3)
C5Y C -0.1838(4) 0.3511(3) -0.1229(4)
H3Y H -0.2098 0.3668 -0.1069
O1CA O -0.0498(2) 0.23135(19) -0.3020(2)
O2CA O -0.0496(2) 0.17381(19) -0.2441(2)
C1CA C -0.0655(3) 0.1927(3) -0.2825(3)
C2CA C -0.1059(3) 0.1675(3) -0.3077(3)
C3DB C -0.1279(3) 0.1279(3) -0.2853(4)
H1DB H -0.1162 0.1162 -0.2553
C4DB C -0.1630(4) 0.1630(4) -0.3726(5)
H2DB H -0.1760 0.1760 -0.4015
C5CA C -0.1229(4) 0.1838(4) -0.3511(3)
H3CA H -0.1069 0.2098 -0.3668
O1DB O -0.23135(19) 0.0498(2) -0.3020(2)
O2DB O -0.17381(19) 0.0496(2) -0.2441(2)
C1DB C -0.1927(3) 0.0655(3) -0.2825(3)
C2DB C -0.1675(3) 0.1059(3) -0.3077(3)
C5DB C -0.1838(4) 0.1229(4) -0.3511(3)
H3DB H -0.2098 0.1069 -0.3668
O1EA O 0.3020(2) -0.0498(2) -0.23135(19)
O2EA O 0.2441(2) -0.0496(2) -0.17381(19)
C1EA C 0.2825(3) -0.0655(3) -0.1927(3)
C2EA C 0.3077(3) -0.1059(3) -0.1675(3)
C3AB C 0.2853(4) -0.1279(3) -0.1279(3)
H1AB H 0.2553 -0.1162 -0.1162
C4AB C 0.3726(5) -0.1630(4) -0.1630(4)
H2AB H 0.4015 -0.1760 -0.1760
C5EA C 0.3511(3) -0.1229(4) -0.1838(4)
H3EA H 0.3668 -0.1069 -0.2098
O1AB O 0.3020(2) -0.23135(19) -0.0498(2)
O2AB O 0.2441(2) -0.17381(19) -0.0496(2)
C1AB C 0.2825(3) -0.1927(3) -0.0655(3)
C2AB C 0.3077(3) -0.1675(3) -0.1059(3)
C5AB C 0.3511(3) -0.1838(4) -0.1229(4)
H3AB H 0.3668 -0.2098 -0.1069
Cu1D Cu 0.27103(4) -0.27103(4) 0.0000
Cu2D Cu 0.20453(4) -0.20453(4) 0.0000
O3D O 0.3263(3) -0.3263(3) 0.0000
O4D O 0.1493(3) -0.1493(3) 0.0000
C6D C 0.102(3) -0.170(3) 0.0000
C6UB C 0.170(3) -0.102(3) 0.0000
O1E O -0.3020(2) 0.23135(19) 0.0498(2)
O2E O -0.2441(2) 0.17381(19) 0.0496(2)
C1E C -0.2825(3) 0.1927(3) 0.0655(3)
C2E C -0.3077(3) 0.1675(3) 0.1059(3)
C3E C -0.2853(4) 0.1279(3) 0.1279(3)
H1E H -0.2553 0.1162 0.1162
C4E C -0.3726(5) 0.1630(4) 0.1630(4)
H2E H -0.4015 0.1760 0.1760
C5E C -0.3511(3) 0.1838(4) 0.1229(4)
H3E H -0.3668 0.2098 0.1069
O1AC O -0.3020(2) 0.0498(2) 0.23135(19)
O2AC O -0.2441(2) 0.0496(2) 0.17381(19)
C1AC C -0.2825(3) 0.0655(3) 0.1927(3)
C2AC C -0.3077(3) 0.1059(3) 0.1675(3)
C5AC C -0.3511(3) 0.1229(4) 0.1838(4)
H3AC H -0.3668 0.1069 0.2098
Cu1J Cu 0.0000 -0.27103(4) 0.27103(4)
Cu2J Cu 0.0000 -0.20453(4) 0.20453(4)
O1J O 0.0498(2) -0.3020(2) 0.23135(19)
O2J O 0.0496(2) -0.2441(2) 0.17381(19)
O3J O 0.0000 -0.3263(3) 0.3263(3)
O4J O 0.0000 -0.1493(3) 0.1493(3)
C1J C 0.0655(3) -0.2825(3) 0.1927(3)
C2J C 0.1059(3) -0.3077(3) 0.1675(3)
C3J C 0.1279(3) -0.2853(4) 0.1279(3)
H1J H 0.1162 -0.2553 0.1162
C4J C 0.1630(4) -0.3726(5) 0.1630(4)
H2J H 0.1760 -0.4015 0.1760
C5J C 0.1229(4) -0.3511(3) 0.1838(4)
H3J H 0.1069 -0.3668 0.2098
C6J C 0.0000 -0.102(3) 0.170(3)
O1UB O 0.23135(19) -0.3020(2) 0.0498(2)
O2UB O 0.17381(19) -0.2441(2) 0.0496(2)
C1UB C 0.1927(3) -0.2825(3) 0.0655(3)
C2UB C 0.1675(3) -0.3077(3) 0.1059(3)
C5UB C 0.1838(4) -0.3511(3) 0.1229(4)
H3UB H 0.2098 -0.3668 0.1069
C6YB C 0.0000 -0.170(3) 0.102(3)
Cu1WA Cu 0.0000 -0.27103(4) -0.27103(4)
Cu2WA Cu 0.0000 -0.20453(4) -0.20453(4)
O1WA O -0.0498(2) -0.23135(19) -0.3020(2)
O2WA O -0.0496(2) -0.17381(19) -0.2441(2)
O3WA O 0.0000 -0.3263(3) -0.3263(3)
O4WA O 0.0000 -0.1493(3) -0.1493(3)
C1WA C -0.0655(3) -0.1927(3) -0.2825(3)
C2WA C -0.1059(3) -0.1675(3) -0.3077(3)
C3WA C -0.1279(3) -0.1279(3) -0.2853(4)
H1WA H -0.1162 -0.1162 -0.2553
C4WA C -0.1630(4) -0.1630(4) -0.3726(5)
H2WA H -0.1760 -0.1760 -0.4015
C5WA C -0.1229(4) -0.1838(4) -0.3511(3)
H3WA H -0.1069 -0.2098 -0.3668
C6WA C 0.0000 -0.170(3) -0.102(3)
O1HA O -0.23135(19) -0.0498(2) -0.3020(2)
O2HA O -0.17381(19) -0.0496(2) -0.2441(2)
C1HA C -0.1927(3) -0.0655(3) -0.2825(3)
C2HA C -0.1675(3) -0.1059(3) -0.3077(3)
C5HA C -0.1838(4) -0.1229(4) -0.3511(3)
H3HA H -0.2098 -0.1069 -0.3668
C6GB C 0.0000 -0.102(3) -0.170(3)
Cu1XA Cu -0.27103(4) 0.0000 -0.27103(4)
Cu2XA Cu -0.20453(4) 0.0000 -0.20453(4)
O1XA O -0.3020(2) -0.0498(2) -0.23135(19)
O2XA O -0.2441(2) -0.0496(2) -0.17381(19)
O3XA O -0.3263(3) 0.0000 -0.3263(3)
O4XA O -0.1493(3) 0.0000 -0.1493(3)
C1XA C -0.2825(3) -0.0655(3) -0.1927(3)
C2XA C -0.3077(3) -0.1059(3) -0.1675(3)
C3XA C -0.2853(4) -0.1279(3) -0.1279(3)
H1XA H -0.2553 -0.1162 -0.1162
C4XA C -0.3726(5) -0.1630(4) -0.1630(4)
H2XA H -0.4015 -0.1760 -0.1760
C5XA C -0.3511(3) -0.1229(4) -0.1838(4)
H3XA H -0.3668 -0.1069 -0.2098
C6XA C -0.102(3) 0.0000 -0.170(3)
O1GA O -0.3020(2) -0.23135(19) -0.0498(2)
O2GA O -0.2441(2) -0.17381(19) -0.0496(2)
C1GA C -0.2825(3) -0.1927(3) -0.0655(3)
C2GA C -0.3077(3) -0.1675(3) -0.1059(3)
C5GA C -0.3511(3) -0.1838(4) -0.1229(4)
H3GA H -0.3668 -0.2098 -0.1069
C6DB C -0.170(3) 0.0000 -0.102(3)
Cu1VA Cu -0.27103(4) -0.27103(4) 0.0000
Cu2VA Cu -0.20453(4) -0.20453(4) 0.0000
O1YA O -0.3020(2) -0.23135(19) 0.0498(2)
O2YA O -0.2441(2) -0.17381(19) 0.0496(2)
O3VA O -0.3263(3) -0.3263(3) 0.0000
O4VA O -0.1493(3) -0.1493(3) 0.0000
C1YA C -0.2825(3) -0.1927(3) 0.0655(3)
C2YA C -0.3077(3) -0.1675(3) 0.1059(3)
C3YA C -0.2853(4) -0.1279(3) 0.1279(3)
H1YA H -0.2553 -0.1162 0.1162
C4YA C -0.3726(5) -0.1630(4) 0.1630(4)
H2YA H -0.4015 -0.1760 0.1760
C5YA C -0.3511(3) -0.1838(4) 0.1229(4)
H3YA H -0.3668 -0.2098 0.1069
C6YA C -0.102(3) -0.170(3) 0.0000
O1FA O -0.3020(2) -0.0498(2) 0.23135(19)
O2FA O -0.2441(2) -0.0496(2) 0.17381(19)
C1FA C -0.2825(3) -0.0655(3) 0.1927(3)
C2FA C -0.3077(3) -0.1059(3) 0.1675(3)
C5FA C -0.3511(3) -0.1229(4) 0.1838(4)
H3FA H -0.3668 -0.1069 0.2098
C6VA C -0.170(3) -0.102(3) 0.0000
O1ZA O -0.3020(2) 0.23135(19) -0.0498(2)
O2ZA O -0.2441(2) 0.17381(19) -0.0496(2)
C1ZA C -0.2825(3) 0.1927(3) -0.0655(3)
C2ZA C -0.3077(3) 0.1675(3) -0.1059(3)
C3ZA C -0.2853(4) 0.1279(3) -0.1279(3)
H1ZA H -0.2553 0.1162 -0.1162
C4ZA C -0.3726(5) 0.1630(4) -0.1630(4)
H2ZA H -0.4015 0.1760 -0.1760
C5ZA C -0.3511(3) 0.1838(4) -0.1229(4)
H3ZA H -0.3668 0.2098 -0.1069
O1DA O -0.3020(2) 0.0498(2) -0.23135(19)
O2DA O -0.2441(2) 0.0496(2) -0.17381(19)
C1DA C -0.2825(3) 0.0655(3) -0.1927(3)
C2DA C -0.3077(3) 0.1059(3) -0.1675(3)
C5DA C -0.3511(3) 0.1229(4) -0.1838(4)
H3DA H -0.3668 0.1069 -0.2098
O1BB O -0.23135(19) -0.0498(2) 0.3020(2)
O2BB O -0.17381(19) -0.0496(2) 0.2441(2)
C1BB C -0.1927(3) -0.0655(3) 0.2825(3)
C2BB C -0.1675(3) -0.1059(3) 0.3077(3)
C3BB C -0.1279(3) -0.1279(3) 0.2853(4)
H1BB H -0.1162 -0.1162 0.2553
C4BB C -0.1630(4) -0.1630(4) 0.3726(5)
H2BB H -0.1760 -0.1760 0.4015
C5BB C -0.1838(4) -0.1229(4) 0.3511(3)
H3BB H -0.2098 -0.1069 0.3668
O1BA O -0.0498(2) -0.23135(19) 0.3020(2)
O2BA O -0.0496(2) -0.17381(19) 0.2441(2)
C1BA C -0.0655(3) -0.1927(3) 0.2825(3)
C2BA C -0.1059(3) -0.1675(3) 0.3077(3)
C5BA C -0.1229(4) -0.1838(4) 0.3511(3)
H3BA H -0.1069 -0.2098 0.3668
O1EB O -0.0498(2) -0.3020(2) 0.23135(19)
O2EB O -0.0496(2) -0.2441(2) 0.17381(19)
C1EB C -0.0655(3) -0.2825(3) 0.1927(3)
C2EB C -0.1059(3) -0.3077(3) 0.1675(3)
C3EB C -0.1279(3) -0.2853(4) 0.1279(3)
H1EB H -0.1162 -0.2553 0.1162
C4EB C -0.1630(4) -0.3726(5) 0.1630(4)
H2EB H -0.1760 -0.4015 0.1760
C5EB C -0.1229(4) -0.3511(3) 0.1838(4)
H3EB H -0.1069 -0.3668 0.2098
O1X O -0.23135(19) -0.3020(2) 0.0498(2)
O2X O -0.17381(19) -0.2441(2) 0.0496(2)
C1X C -0.1927(3) -0.2825(3) 0.0655(3)
C2X C -0.1675(3) -0.3077(3) 0.1059(3)
C5X C -0.1838(4) -0.3511(3) 0.1229(4)
H3X H -0.2098 -0.3668 0.1069
O1GB O 0.0498(2) -0.3020(2) -0.23135(19)
O2GB O 0.0496(2) -0.2441(2) -0.17381(19)
C1GB C 0.0655(3) -0.2825(3) -0.1927(3)
C2GB C 0.1059(3) -0.3077(3) -0.1675(3)
C3GB C 0.1279(3) -0.2853(4) -0.1279(3)
H1GB H 0.1162 -0.2553 -0.1162
C4GB C 0.1630(4) -0.3726(5) -0.1630(4)
H2GB H 0.1760 -0.4015 -0.1760
C5GB C 0.1229(4) -0.3511(3) -0.1838(4)
H3GB H 0.1069 -0.3668 -0.2098
O1Z O 0.23135(19) -0.3020(2) -0.0498(2)
O2Z O 0.17381(19) -0.2441(2) -0.0496(2)
C1Z C 0.1927(3) -0.2825(3) -0.0655(3)
C2Z C 0.1675(3) -0.3077(3) -0.1059(3)
C5Z C 0.1838(4) -0.3511(3) -0.1229(4)
H3Z H 0.2098 -0.3668 -0.1069
O1IA O -0.0498(2) -0.3020(2) -0.23135(19)
O2IA O -0.0496(2) -0.2441(2) -0.17381(19)
C1IA C -0.0655(3) -0.2825(3) -0.1927(3)
C2IA C -0.1059(3) -0.3077(3) -0.1675(3)
C3VA C -0.1279(3) -0.2853(4) -0.1279(3)
H1VA H -0.1162 -0.2553 -0.1162
C4VA C -0.1630(4) -0.3726(5) -0.1630(4)
H2VA H -0.1760 -0.4015 -0.1760
C5IA C -0.1229(4) -0.3511(3) -0.1838(4)
H3IA H -0.1069 -0.3668 -0.2098
O1VA O -0.23135(19) -0.3020(2) -0.0498(2)
O2VA O -0.17381(19) -0.2441(2) -0.0496(2)
C1VA C -0.1927(3) -0.2825(3) -0.0655(3)
C2VA C -0.1675(3) -0.3077(3) -0.1059(3)
C5VA C -0.1838(4) -0.3511(3) -0.1229(4)
H3VA H -0.2098 -0.3668 -0.1069
loop_
_geom_bond_atom_site_label_1
_geom_bond_atom_site_label_2
_geom_bond_site_symmetry_1
_geom_bond_site_symmetry_2
Cu1 Cu2 1_555 1_555
Cu2 O2 1_555 1_555
O1 Cu1 1_555 1_555
O2 C1 1_555 1_555
O3 Cu1 1_555 1_555
O4 Cu2 1_555 1_555
C1 O1 1_555 1_555
C2 C1 1_555 1_555
C3 C2 1_555 1_555
H1 C3 1_555 1_555
C4 H2 1_555 1_555
C5 C2 1_555 1_555
H3 C5 1_555 1_555
C6 O4 1_555 1_555
O1EC C1EC 1_555 1_555
O2EC C1EC 1_555 1_555
C1EC C2EC 1_555 1_555
C2EC C3 1_555 1_555
C5EC C4 1_555 1_555
H3EC C5EC 1_555 1_555
C6C O4 1_555 1_555
Cu1A O1EC 1_555 1_555
Cu2A O2EC 1_555 1_555
O1A Cu1A 1_555 1_555
O2A Cu2A 1_555 1_555
O3A Cu1A 1_555 1_555
O4A Cu2A 1_555 1_555
C1A O1A 1_555 1_555
C2A C1A 1_555 1_555
C3A C2A 1_555 1_555
H1A C3A 1_555 1_555
C4A H2A 1_555 1_555
C5A C2A 1_555 1_555
H3A C5A 1_555 1_555
C6A O4A 1_555 1_555
O1DC C1DC 1_555 1_555
O2DC C1DC 1_555 1_555
C1DC C2DC 1_555 1_555
C2DC C3A 1_555 1_555
C5DC C4A 1_555 1_555
H3DC C5DC 1_555 1_555
C6K O4A 1_555 1_555
Cu1B O1DC 1_555 1_555
Cu2B O2DC 1_555 1_555
O1B Cu1B 1_555 1_555
O2B Cu2B 1_555 1_555
O3B Cu1B 1_555 1_555
O4B Cu2B 1_555 1_555
C1B O1B 1_555 1_555
C2B C1B 1_555 1_555
C3B C2B 1_555 1_555
H1B C3B 1_555 1_555
C4B H2B 1_555 1_555
C5B C2B 1_555 1_555
H3B C5B 1_555 1_555
C6B O4B 1_555 1_555
O1CC Cu1 1_555 1_555
O2CC Cu2 1_555 1_555
C1CC O1CC 1_555 1_555
C2CC C3B 1_555 1_555
C5CC C4B 1_555 1_555
H3CC C5CC 1_555 1_555
C6H O4B 1_555 1_555
O1C Cu1 1_555 1_555
O2C Cu2 1_555 1_555
C1C O1C 1_555 1_555
C2C C1C 1_555 1_555
C3C C2C 1_555 1_555
H1C C3C 1_555 1_555
C4C H2C 1_555 1_555
C5C C2C 1_555 1_555
H3C C5C 1_555 1_555
O1BC C1BC 1_555 1_555
O2BC C1BC 1_555 1_555
C1BC C2BC 1_555 1_555
C2BC C3C 1_555 1_555
C5BC C4C 1_555 1_555
H3BC C5BC 1_555 1_555
Cu1F O1BC 1_555 1_555
Cu2F O2BC 1_555 1_555
O1F Cu1F 1_555 1_555
O2F Cu2F 1_555 1_555
O3F Cu1F 1_555 1_555
O4F Cu2F 1_555 1_555
C1F O1F 1_555 1_555
C2F C1F 1_555 1_555
C3F C2F 1_555 1_555
H1F C3F 1_555 1_555
C4F H2F 1_555 1_555
C5F C2F 1_555 1_555
H3F C5F 1_555 1_555
C6F O4F 1_555 1_555
O1XB C1XB 1_555 1_555
O2XB C1XB 1_555 1_555
C1XB C2XB 1_555 1_555
C2XB C3F 1_555 1_555
C5XB C4F 1_555 1_555
H3XB C5XB 1_555 1_555
C6BC O4F 1_555 1_555
Cu1G Cu2G 1_555 1_555
Cu2G O2G 1_555 1_555
O1G Cu1G 1_555 1_555
O2G C1G 1_555 1_555
O3G Cu1G 1_555 1_555
O4G Cu2G 1_555 1_555
C1G O1G 1_555 1_555
C2G C1G 1_555 1_555
C3G C2G 1_555 1_555
H1G C3G 1_555 1_555
C4G H2G 1_555 1_555
C5G C2G 1_555 1_555
H3G C5G 1_555 1_555
C6G O4G 1_555 1_555
O1WB Cu1A 1_555 1_555
O2WB Cu2A 1_555 1_555
C1WB O1WB 1_555 1_555
C2WB C3G 1_555 1_555
C5WB C4G 1_555 1_555
H3WB C5WB 1_555 1_555
C6AC O4G 1_555 1_555
O1H Cu1B 1_555 1_555
O2H Cu2B 1_555 1_555
C1H O1H 1_555 1_555
C2H C1H 1_555 1_555
C3H C2H 1_555 1_555
H1H C3H 1_555 1_555
C4H H2H 1_555 1_555
C5H C2H 1_555 1_555
H3H C5H 1_555 1_555
O1YB C1YB 1_555 1_555
O2YB C1YB 1_555 1_555
C1YB C2YB 1_555 1_555
C2YB C3H 1_555 1_555
C5YB C4H 1_555 1_555
H3YB C5YB 1_555 1_555
Cu1I O1XB 1_555 1_555
Cu2I O2XB 1_555 1_555
O1I Cu1I 1_555 1_555
O2I Cu2I 1_555 1_555
O3I Cu1I 1_555 1_555
O4I Cu2I 1_555 1_555
C1I O1I 1_555 1_555
C2I C1I 1_555 1_555
C3I C2I 1_555 1_555
H1I C3I 1_555 1_555
C4I H2I 1_555 1_555
C5I C2I 1_555 1_555
H3I C5I 1_555 1_555
C6I O4I 1_555 1_555
O1TB Cu1 1_555 1_555
O2TB Cu2 1_555 1_555
C1TB O1TB 1_555 1_555
C2TB C3I 1_555 1_555
C5TB C4I 1_555 1_555
H3TB C5TB 1_555 1_555
C6XB O4I 1_555 1_555
O1K Cu1A 1_555 1_555
O2K Cu2A 1_555 1_555
C1K O1K 1_555 1_555
C2K C1K 1_555 1_555
C3K C2K 1_555 1_555
H1K C3K 1_555 1_555
C4K H2K 1_555 1_555
C5K C2K 1_555 1_555
H3K C5K 1_555 1_555
O1VB C1VB 1_555 1_555
O2VB C1VB 1_555 1_555
C1VB C2VB 1_555 1_555
C2VB C3K 1_555 1_555
C5VB C4K 1_555 1_555
H3VB C5VB 1_555 1_555
Cu1E O1VB 1_555 1_555
Cu2E O2VB 1_555 1_555
O3E Cu1E 1_555 1_555
O4E Cu2E 1_555 1_555
C6VB O4E 1_555 1_555
C6E O4E 1_555 1_555
O1ZB Cu1B 1_555 1_555
O2ZB Cu2B 1_555 1_555
C1ZB O1ZB 1_555 1_555
C2ZB C1ZB 1_555 1_555
C3D C2ZB 1_555 1_555
H1D C3D 1_555 1_555
C4D H2D 1_555 1_555
C5ZB C2ZB 1_555 1_555
H3ZB C5ZB 1_555 1_555
O1D C1D 1_555 1_555
O2D C1D 1_555 1_555
C1D C2D 1_555 1_555
C2D C3D 1_555 1_555
C5D C4D 1_555 1_555
H3D C5D 1_555 1_555
O1CB Cu1F 1_555 1_555
O2CB Cu2F 1_555 1_555
C1CB O1CB 1_555 1_555
C2CB C1CB 1_555 1_555
C3CB C2CB 1_555 1_555
H1CB C3CB 1_555 1_555
C4CB H2CB 1_555 1_555
C5CB C2CB 1_555 1_555
H3CB C5CB 1_555 1_555
O1AA C1AA 1_555 1_555
O2AA C1AA 1_555 1_555
C1AA C2AA 1_555 1_555
C2AA C3CB 1_555 1_555
C5AA C4CB 1_555 1_555
H3AA C5AA 1_555 1_555
O1FB Cu1I 1_555 1_555
O2FB Cu2I 1_555 1_555
C1FB O1FB 1_555 1_555
C2FB C1FB 1_555 1_555
C3FB C2FB 1_555 1_555
H1FB C3FB 1_555 1_555
C4FB H2FB 1_555 1_555
C5FB C2FB 1_555 1_555
H3FB C5FB 1_555 1_555
O1Y Cu1E 1_555 1_555
O2Y Cu2E 1_555 1_555
C1Y O1Y 1_555 1_555
C2Y C3FB 1_555 1_555
C5Y C4FB 1_555 1_555
H3Y C5Y 1_555 1_555
O1CA Cu1I 1_555 1_555
O2CA Cu2I 1_555 1_555
C1CA O1CA 1_555 1_555
C2CA C1CA 1_555 1_555
C3DB C2CA 1_555 1_555
H1DB C3DB 1_555 1_555
C4DB H2DB 1_555 1_555
C5CA C2CA 1_555 1_555
H3CA C5CA 1_555 1_555
O1DB C1DB 1_555 1_555
O2DB C1DB 1_555 1_555
C1DB C2DB 1_555 1_555
C2DB C3DB 1_555 1_555
C5DB C4DB 1_555 1_555
H3DB C5DB 1_555 1_555
O1EA Cu1F 1_555 1_555
O2EA Cu2F 1_555 1_555
C1EA O1EA 1_555 1_555
C2EA C1EA 1_555 1_555
C3AB C2EA 1_555 1_555
H1AB C3AB 1_555 1_555
C4AB H2AB 1_555 1_555
C5EA C2EA 1_555 1_555
H3EA C5EA 1_555 1_555
O1AB C1AB 1_555 1_555
O2AB C1AB 1_555 1_555
C1AB C2AB 1_555 1_555
C2AB C3AB 1_555 1_555
C5AB C4AB 1_555 1_555
H3AB C5AB 1_555 1_555
Cu1D O1D 1_555 1_555
Cu2D O2D 1_555 1_555
O3D Cu1D 1_555 1_555
O4D Cu2D 1_555 1_555
C6D O4D 1_555 1_555
C6UB O4D 1_555 1_555
O1E Cu1E 1_555 1_555
O2E Cu2E 1_555 1_555
C1E O1E 1_555 1_555
C2E C1E 1_555 1_555
C3E C2E 1_555 1_555
H1E C3E 1_555 1_555
C4E H2E 1_555 1_555
C5E C2E 1_555 1_555
H3E C5E 1_555 1_555
O1AC Cu1G 1_555 1_555
O2AC Cu2G 1_555 1_555
C1AC O1AC 1_555 1_555
C2AC C3E 1_555 1_555
C5AC C4E 1_555 1_555
H3AC C5AC 1_555 1_555
Cu1J O1YB 1_555 1_555
Cu2J O2YB 1_555 1_555
O1J Cu1J 1_555 1_555
O2J Cu2J 1_555 1_555
O3J Cu1J 1_555 1_555
O4J Cu2J 1_555 1_555
C1J O1J 1_555 1_555
C2J C1J 1_555 1_555
C3J C2J 1_555 1_555
H1J C3J 1_555 1_555
C4J H2J 1_555 1_555
C5J C2J 1_555 1_555
H3J C5J 1_555 1_555
C6J O4J 1_555 1_555
O1UB Cu1D 1_555 1_555
O2UB Cu2D 1_555 1_555
C1UB O1UB 1_555 1_555
C2UB C3J 1_555 1_555
C5UB C4J 1_555 1_555
H3UB C5UB 1_555 1_555
C6YB O4J 1_555 1_555
Cu1WA O1AA 1_555 1_555
Cu2WA O2AA 1_555 1_555
O1WA Cu1WA 1_555 1_555
O2WA Cu2WA 1_555 1_555
O3WA Cu1WA 1_555 1_555
O4WA Cu2WA 1_555 1_555
C1WA O1WA 1_555 1_555
C2WA C1WA 1_555 1_555
C3WA C2WA 1_555 1_555
H1WA C3WA 1_555 1_555
C4WA H2WA 1_555 1_555
C5WA C2WA 1_555 1_555
H3WA C5WA 1_555 1_555
C6WA O4WA 1_555 1_555
O1HA C1HA 1_555 1_555
O2HA C1HA 1_555 1_555
C1HA C2HA 1_555 1_555
C2HA C3WA 1_555 1_555
C5HA C4WA 1_555 1_555
H3HA C5HA 1_555 1_555
C6GB O4WA 1_555 1_555
Cu1XA O1DB 1_555 1_555
Cu2XA O2DB 1_555 1_555
O1XA Cu1XA 1_555 1_555
O2XA Cu2XA 1_555 1_555
O3XA Cu1XA 1_555 1_555
O4XA Cu2XA 1_555 1_555
C1XA O1XA 1_555 1_555
C2XA C1XA 1_555 1_555
C3XA C2XA 1_555 1_555
H1XA C3XA 1_555 1_555
C4XA H2XA 1_555 1_555
C5XA C2XA 1_555 1_555
H3XA C5XA 1_555 1_555
C6XA O4XA 1_555 1_555
O1GA C1GA 1_555 1_555
O2GA C1GA 1_555 1_555
C1GA C2GA 1_555 1_555
C2GA C3XA 1_555 1_555
C5GA C4XA 1_555 1_555
H3GA C5GA 1_555 1_555
C6DB O4XA 1_555 1_555
Cu1VA O1GA 1_555 1_555
Cu2VA O2GA 1_555 1_555
O1YA Cu1VA 1_555 1_555
O2YA Cu2VA 1_555 1_555
O3VA Cu1VA 1_555 1_555
O4VA Cu2VA 1_555 1_555
C1YA O1YA 1_555 1_555
C2YA C1YA 1_555 1_555
C3YA C2YA 1_555 1_555
H1YA C3YA 1_555 1_555
C4YA H2YA 1_555 1_555
C5YA C2YA 1_555 1_555
H3YA C5YA 1_555 1_555
C6YA O4VA 1_555 1_555
O1FA Cu1G 1_555 1_555
O2FA Cu2G 1_555 1_555
C1FA O1FA 1_555 1_555
C2FA C3YA 1_555 1_555
C5FA C4YA 1_555 1_555
H3FA C5FA 1_555 1_555
C6VA O4VA 1_555 1_555
O1ZA Cu1E 1_555 1_555
O2ZA Cu2E 1_555 1_555
C1ZA O1ZA 1_555 1_555
C2ZA C1ZA 1_555 1_555
C3ZA C2ZA 1_555 1_555
H1ZA C3ZA 1_555 1_555
C4ZA H2ZA 1_555 1_555
C5ZA C2ZA 1_555 1_555
H3ZA C5ZA 1_555 1_555
O1DA Cu1XA 1_555 1_555
O2DA Cu2XA 1_555 1_555
C1DA O1DA 1_555 1_555
C2DA C3ZA 1_555 1_555
C5DA C4ZA 1_555 1_555
H3DA C5DA 1_555 1_555
O1BB Cu1G 1_555 1_555
O2BB Cu2G 1_555 1_555
C1BB O1BB 1_555 1_555
C2BB C1BB 1_555 1_555
C3BB C2BB 1_555 1_555
H1BB C3BB 1_555 1_555
C4BB H2BB 1_555 1_555
C5BB C2BB 1_555 1_555
H3BB C5BB 1_555 1_555
O1BA Cu1J 1_555 1_555
O2BA Cu2J 1_555 1_555
C1BA O1BA 1_555 1_555
C2BA C3BB 1_555 1_555
C5BA C4BB 1_555 1_555
H3BA C5BA 1_555 1_555
O1EB Cu1J 1_555 1_555
O2EB Cu2J 1_555 1_555
C1EB O1EB 1_555 1_555
C2EB C1EB 1_555 1_555
C3EB C2EB 1_555 1_555
H1EB C3EB 1_555 1_555
C4EB H2EB 1_555 1_555
C5EB C2EB 1_555 1_555
H3EB C5EB 1_555 1_555
O1X Cu1VA 1_555 1_555
O2X Cu2VA 1_555 1_555
C1X O1X 1_555 1_555
C2X C3EB 1_555 1_555
C5X C4EB 1_555 1_555
H3X C5X 1_555 1_555
O1GB Cu1WA 1_555 1_555
O2GB Cu2WA 1_555 1_555
C1GB O1GB 1_555 1_555
C2GB C1GB 1_555 1_555
C3GB C2GB 1_555 1_555
H1GB C3GB 1_555 1_555
C4GB H2GB 1_555 1_555
C5GB C2GB 1_555 1_555
H3GB C5GB 1_555 1_555
O1Z Cu1D 1_555 1_555
O2Z Cu2D 1_555 1_555
C1Z O1Z 1_555 1_555
C2Z C3GB 1_555 1_555
C5Z C4GB 1_555 1_555
H3Z C5Z 1_555 1_555
O1IA Cu1WA 1_555 1_555
O2IA Cu2WA 1_555 1_555
C1IA O1IA 1_555 1_555
C2IA C1IA 1_555 1_555
C3VA C2IA 1_555 1_555
H1VA C3VA 1_555 1_555
C4VA H2VA 1_555 1_555
C5IA C2IA 1_555 1_555
H3IA C5IA 1_555 1_555
O1VA Cu1VA 1_555 1_555
O2VA Cu2VA 1_555 1_555
C1VA O1VA 1_555 1_555
C2VA C3VA 1_555 1_555
C5VA C4VA 1_555 1_555
H3VA C5VA 1_555 1_555
C4 C5 1_555 1_555
C2EC C5EC 1_555 1_555
Cu1A Cu2A 1_555 1_555
O2A C1A 1_555 1_555
C4A C5A 1_555 1_555
C2DC C5DC 1_555 1_555
Cu1B Cu2B 1_555 1_555
O2B C1B 1_555 1_555
C4B C5B 1_555 1_555
O2CC C1CC 1_555 1_555
C1CC C2CC 1_555 1_555
C2CC C5CC 1_555 1_555
O2C C1C 1_555 1_555
C4C C5C 1_555 1_555
C2BC C5BC 1_555 1_555
Cu1F Cu2F 1_555 1_555
O2F C1F 1_555 1_555
C4F C5F 1_555 1_555
C2XB C5XB 1_555 1_555
C4G C5G 1_555 1_555
O2WB C1WB 1_555 1_555
C1WB C2WB 1_555 1_555
C2WB C5WB 1_555 1_555
O2H C1H 1_555 1_555
C4H C5H 1_555 1_555
C2YB C5YB 1_555 1_555
Cu1I Cu2I 1_555 1_555
O2I C1I 1_555 1_555
C4I C5I 1_555 1_555
O2TB C1TB 1_555 1_555
C1TB C2TB 1_555 1_555
C2TB C5TB 1_555 1_555
O2K C1K 1_555 1_555
C4K C5K 1_555 1_555
C2VB C5VB 1_555 1_555
Cu1E Cu2E 1_555 1_555
O2ZB C1ZB 1_555 1_555
C4D C5ZB 1_555 1_555
C2D C5D 1_555 1_555
O2CB C1CB 1_555 1_555
C4CB C5CB 1_555 1_555
C2AA C5AA 1_555 1_555
O2FB C1FB 1_555 1_555
C4FB C5FB 1_555 1_555
O2Y C1Y 1_555 1_555
C1Y C2Y 1_555 1_555
C2Y C5Y 1_555 1_555
O2CA C1CA 1_555 1_555
C4DB C5CA 1_555 1_555
C2DB C5DB 1_555 1_555
O2EA C1EA 1_555 1_555
C4AB C5EA 1_555 1_555
O1AB Cu1D 1_555 1_555
O2AB Cu2D 1_555 1_555
C2AB C5AB 1_555 1_555
Cu1D Cu2D 1_555 1_555
O2E C1E 1_555 1_555
C4E C5E 1_555 1_555
O2AC C1AC 1_555 1_555
C1AC C2AC 1_555 1_555
C2AC C5AC 1_555 1_555
Cu1J Cu2J 1_555 1_555
O2J C1J 1_555 1_555
C4J C5J 1_555 1_555
O2UB C1UB 1_555 1_555
C1UB C2UB 1_555 1_555
C2UB C5UB 1_555 1_555
Cu1WA Cu2WA 1_555 1_555
O2WA C1WA 1_555 1_555
C4WA C5WA 1_555 1_555
O1HA Cu1XA 1_555 1_555
O2HA Cu2XA 1_555 1_555
C2HA C5HA 1_555 1_555
Cu1XA Cu2XA 1_555 1_555
O2XA C1XA 1_555 1_555
C4XA C5XA 1_555 1_555
C2GA C5GA 1_555 1_555
Cu1VA Cu2VA 1_555 1_555
O2YA C1YA 1_555 1_555
C4YA C5YA 1_555 1_555
O2FA C1FA 1_555 1_555
C1FA C2FA 1_555 1_555
C2FA C5FA 1_555 1_555
O2ZA C1ZA 1_555 1_555
C4ZA C5ZA 1_555 1_555
O2DA C1DA 1_555 1_555
C1DA C2DA 1_555 1_555
C2DA C5DA 1_555 1_555
O2BB C1BB 1_555 1_555
C4BB C5BB 1_555 1_555
O2BA C1BA 1_555 1_555
C1BA C2BA 1_555 1_555
C2BA C5BA 1_555 1_555
O2EB C1EB 1_555 1_555
C4EB C5EB 1_555 1_555
O2X C1X 1_555 1_555
C1X C2X 1_555 1_555
C2X C5X 1_555 1_555
O2GB C1GB 1_555 1_555
C4GB C5GB 1_555 1_555
O2Z C1Z 1_555 1_555
C1Z C2Z 1_555 1_555
C2Z C5Z 1_555 1_555
O2IA C1IA 1_555 1_555
C4VA C5IA 1_555 1_555
O2VA C1VA 1_555 1_555
C1VA C2VA 1_555 1_555
C2VA C5VA 1_555 1_555

#END
