# generated using pymatgen
data_Cu3H12C46O15
_symmetry_space_group_name_H-M   'P 1'
_cell_length_a   27.68950000
_cell_length_b   27.68950000
_cell_length_c   27.68950000
_cell_angle_alpha   90.00000000
_cell_angle_beta   90.00000000
_cell_angle_gamma   90.00000000
_symmetry_Int_Tables_number   1
_chemical_formula_structural   Cu3H12C46O15
_chemical_formula_sum   'Cu48 H192 C736 O240'
_cell_volume   21229.77252562
_cell_formula_units_Z   16
loop_
 _symmetry_equiv_pos_site_id
 _symmetry_equiv_pos_as_xyz
  1  'x, y, z'
loop_
 _atom_site_type_symbol
 _atom_site_label
 _atom_site_symmetry_multiplicity
 _atom_site_fract_x
 _atom_site_fract_y
 _atom_site_fract_z
 _atom_site_occupancy
  Cu  Cu1  1  0.271030  0.271030  0.000000  1.0
  Cu  Cu2  1  0.000000  0.271030  0.271030  1.0
  Cu  Cu3  1  0.271030  0.000000  0.271030  1.0
  Cu  Cu4  1  0.271030  0.728970  0.000000  1.0
  Cu  Cu5  1  0.728970  0.271030  0.000000  1.0
  Cu  Cu6  1  0.271030  0.000000  0.728970  1.0
  Cu  Cu7  1  0.728970  0.000000  0.271030  1.0
  Cu  Cu8  1  0.000000  0.271030  0.728970  1.0
  Cu  Cu9  1  0.000000  0.728970  0.271030  1.0
  Cu  Cu10  1  0.771030  0.771030  0.500000  1.0
  Cu  Cu11  1  0.500000  0.771030  0.771030  1.0
  Cu  Cu12  1  0.771030  0.500000  0.771030  1.0
  Cu  Cu13  1  0.771030  0.228970  0.500000  1.0
  Cu  Cu14  1  0.228970  0.771030  0.500000  1.0
  Cu  Cu15  1  0.771030  0.500000  0.228970  1.0
  Cu  Cu16  1  0.228970  0.500000  0.771030  1.0
  Cu  Cu17  1  0.500000  0.771030  0.228970  1.0
  Cu  Cu18  1  0.500000  0.228970  0.771030  1.0
  Cu  Cu19  1  0.728970  0.728970  0.000000  1.0
  Cu  Cu20  1  0.000000  0.728970  0.728970  1.0
  Cu  Cu21  1  0.728970  0.000000  0.728970  1.0
  Cu  Cu22  1  0.228970  0.228970  0.500000  1.0
  Cu  Cu23  1  0.500000  0.228970  0.228970  1.0
  Cu  Cu24  1  0.228970  0.500000  0.228970  1.0
  Cu  Cu25  1  0.204530  0.204530  0.000000  1.0
  Cu  Cu26  1  0.000000  0.204530  0.204530  1.0
  Cu  Cu27  1  0.204530  0.000000  0.204530  1.0
  Cu  Cu28  1  0.204530  0.795470  0.000000  1.0
  Cu  Cu29  1  0.795470  0.204530  0.000000  1.0
  Cu  Cu30  1  0.204530  0.000000  0.795470  1.0
  Cu  Cu31  1  0.795470  0.000000  0.204530  1.0
  Cu  Cu32  1  0.000000  0.204530  0.795470  1.0
  Cu  Cu33  1  0.000000  0.795470  0.204530  1.0
  Cu  Cu34  1  0.704530  0.704530  0.500000  1.0
  Cu  Cu35  1  0.500000  0.704530  0.704530  1.0
  Cu  Cu36  1  0.704530  0.500000  0.704530  1.0
  Cu  Cu37  1  0.704530  0.295470  0.500000  1.0
  Cu  Cu38  1  0.295470  0.704530  0.500000  1.0
  Cu  Cu39  1  0.704530  0.500000  0.295470  1.0
  Cu  Cu40  1  0.295470  0.500000  0.704530  1.0
  Cu  Cu41  1  0.500000  0.704530  0.295470  1.0
  Cu  Cu42  1  0.500000  0.295470  0.704530  1.0
  Cu  Cu43  1  0.795470  0.795470  0.000000  1.0
  Cu  Cu44  1  0.000000  0.795470  0.795470  1.0
  Cu  Cu45  1  0.795470  0.000000  0.795470  1.0
  Cu  Cu46  1  0.295470  0.295470  0.500000  1.0
  Cu  Cu47  1  0.500000  0.295470  0.295470  1.0
  Cu  Cu48  1  0.295470  0.500000  0.295470  1.0
  H  H49  1  0.116200  0.255300  0.116200  1.0
  H  H50  1  0.116200  0.116200  0.255300  1.0
  H  H51  1  0.255300  0.116200  0.116200  1.0
  H  H52  1  0.255300  0.116200  0.883800  1.0
  H  H53  1  0.255300  0.883800  0.116200  1.0
  H  H54  1  0.744700  0.116200  0.116200  1.0
  H  H55  1  0.116200  0.116200  0.744700  1.0
  H  H56  1  0.883800  0.116200  0.255300  1.0
  H  H57  1  0.116200  0.883800  0.255300  1.0
  H  H58  1  0.116200  0.255300  0.883800  1.0
  H  H59  1  0.116200  0.744700  0.116200  1.0
  H  H60  1  0.883800  0.255300  0.116200  1.0
  H  H61  1  0.616200  0.755300  0.616200  1.0
  H  H62  1  0.616200  0.616200  0.755300  1.0
  H  H63  1  0.755300  0.616200  0.616200  1.0
  H  H64  1  0.755300  0.616200  0.383800  1.0
  H  H65  1  0.755300  0.383800  0.616200  1.0
  H  H66  1  0.244700  0.616200  0.616200  1.0
  H  H67  1  0.616200  0.616200  0.244700  1.0
  H  H68  1  0.383800  0.616200  0.755300  1.0
  H  H69  1  0.616200  0.383800  0.755300  1.0
  H  H70  1  0.616200  0.755300  0.383800  1.0
  H  H71  1  0.616200  0.244700  0.616200  1.0
  H  H72  1  0.383800  0.755300  0.616200  1.0
  H  H73  1  0.883800  0.744700  0.116200  1.0
  H  H74  1  0.883800  0.255300  0.883800  1.0
  H  H75  1  0.116200  0.744700  0.883800  1.0
  H  H76  1  0.116200  0.883800  0.744700  1.0
  H  H77  1  0.883800  0.883800  0.255300  1.0
  H  H78  1  0.883800  0.116200  0.744700  1.0
  H  H79  1  0.744700  0.116200  0.883800  1.0
  H  H80  1  0.255300  0.883800  0.883800  1.0
  H  H81  1  0.744700  0.883800  0.116200  1.0
  H  H82  1  0.744700  0.883800  0.883800  1.0
  H  H83  1  0.883800  0.883800  0.744700  1.0
  H  H84  1  0.883800  0.744700  0.883800  1.0
  H  H85  1  0.383800  0.244700  0.616200  1.0
  H  H86  1  0.383800  0.755300  0.383800  1.0
  H  H87  1  0.616200  0.244700  0.383800  1.0
  H  H88  1  0.616200  0.383800  0.244700  1.0
  H  H89  1  0.383800  0.383800  0.755300  1.0
  H  H90  1  0.383800  0.616200  0.244700  1.0
  H  H91  1  0.244700  0.616200  0.383800  1.0
  H  H92  1  0.755300  0.383800  0.383800  1.0
  H  H93  1  0.244700  0.383800  0.616200  1.0
  H  H94  1  0.244700  0.383800  0.383800  1.0
  H  H95  1  0.383800  0.383800  0.244700  1.0
  H  H96  1  0.383800  0.244700  0.383800  1.0
  H  H97  1  0.176000  0.401500  0.176000  1.0
  H  H98  1  0.176000  0.176000  0.401500  1.0
  H  H99  1  0.401500  0.176000  0.176000  1.0
  H  H100  1  0.401500  0.176000  0.824000  1.0
  H  H101  1  0.401500  0.824000  0.176000  1.0
  H  H102  1  0.598500  0.176000  0.176000  1.0
  H  H103  1  0.176000  0.176000  0.598500  1.0
  H  H104  1  0.824000  0.176000  0.401500  1.0
  H  H105  1  0.176000  0.824000  0.401500  1.0
  H  H106  1  0.176000  0.401500  0.824000  1.0
  H  H107  1  0.176000  0.598500  0.176000  1.0
  H  H108  1  0.824000  0.401500  0.176000  1.0
  H  H109  1  0.676000  0.901500  0.676000  1.0
  H  H110  1  0.676000  0.676000  0.901500  1.0
  H  H111  1  0.901500  0.676000  0.676000  1.0
  H  H112  1  0.901500  0.676000  0.324000  1.0
  H  H113  1  0.901500  0.324000  0.676000  1.0
  H  H114  1  0.098500  0.676000  0.676000  1.0
  H  H115  1  0.676000  0.676000  0.098500  1.0
  H  H116  1  0.324000  0.676000  0.901500  1.0
  H  H117  1  0.676000  0.324000  0.901500  1.0
  H  H118  1  0.676000  0.901500  0.324000  1.0
  H  H119  1  0.676000  0.098500  0.676000  1.0
  H  H120  1  0.324000  0.901500  0.676000  1.0
  H  H121  1  0.824000  0.598500  0.176000  1.0
  H  H122  1  0.824000  0.401500  0.824000  1.0
  H  H123  1  0.176000  0.598500  0.824000  1.0
  H  H124  1  0.176000  0.824000  0.598500  1.0
  H  H125  1  0.824000  0.824000  0.401500  1.0
  H  H126  1  0.824000  0.176000  0.598500  1.0
  H  H127  1  0.598500  0.176000  0.824000  1.0
  H  H128  1  0.401500  0.824000  0.824000  1.0
  H  H129  1  0.598500  0.824000  0.176000  1.0
  H  H130  1  0.598500  0.824000  0.824000  1.0
  H  H131  1  0.824000  0.824000  0.598500  1.0
  H  H132  1  0.824000  0.598500  0.824000  1.0
  H  H133  1  0.324000  0.098500  0.676000  1.0
  H  H134  1  0.324000  0.901500  0.324000  1.0
  H  H135  1  0.676000  0.098500  0.324000  1.0
  H  H136  1  0.676000  0.324000  0.098500  1.0
  H  H137  1  0.324000  0.324000  0.901500  1.0
  H  H138  1  0.324000  0.676000  0.098500  1.0
  H  H139  1  0.098500  0.676000  0.324000  1.0
  H  H140  1  0.901500  0.324000  0.324000  1.0
  H  H141  1  0.098500  0.324000  0.676000  1.0
  H  H142  1  0.098500  0.324000  0.324000  1.0
  H  H143  1  0.324000  0.324000  0.098500  1.0
  H  H144  1  0.324000  0.098500  0.324000  1.0
  H  H145  1  0.209800  0.366800  0.106900  1.0
  H  H146  1  0.106900  0.209800  0.366800  1.0
  H  H147  1  0.366800  0.106900  0.209800  1.0
  H  H148  1  0.366800  0.209800  0.893100  1.0
  H  H149  1  0.366800  0.790200  0.106900  1.0
  H  H150  1  0.633200  0.209800  0.106900  1.0
  H  H151  1  0.209800  0.106900  0.633200  1.0
  H  H152  1  0.790200  0.106900  0.366800  1.0
  H  H153  1  0.209800  0.893100  0.366800  1.0
  H  H154  1  0.106900  0.366800  0.790200  1.0
  H  H155  1  0.106900  0.633200  0.209800  1.0
  H  H156  1  0.893100  0.366800  0.209800  1.0
  H  H157  1  0.709800  0.866800  0.606900  1.0
  H  H158  1  0.606900  0.709800  0.866800  1.0
  H  H159  1  0.866800  0.606900  0.709800  1.0
  H  H160  1  0.866800  0.709800  0.393100  1.0
  H  H161  1  0.866800  0.290200  0.606900  1.0
  H  H162  1  0.133200  0.709800  0.606900  1.0
  H  H163  1  0.709800  0.606900  0.133200  1.0
  H  H164  1  0.290200  0.606900  0.866800  1.0
  H  H165  1  0.709800  0.393100  0.866800  1.0
  H  H166  1  0.606900  0.866800  0.290200  1.0
  H  H167  1  0.606900  0.133200  0.709800  1.0
  H  H168  1  0.393100  0.866800  0.709800  1.0
  H  H169  1  0.790200  0.633200  0.106900  1.0
  H  H170  1  0.790200  0.366800  0.893100  1.0
  H  H171  1  0.209800  0.633200  0.893100  1.0
  H  H172  1  0.106900  0.790200  0.633200  1.0
  H  H173  1  0.893100  0.790200  0.366800  1.0
  H  H174  1  0.893100  0.209800  0.633200  1.0
  H  H175  1  0.633200  0.106900  0.790200  1.0
  H  H176  1  0.366800  0.893100  0.790200  1.0
  H  H177  1  0.633200  0.893100  0.209800  1.0
  H  H178  1  0.633200  0.790200  0.893100  1.0
  H  H179  1  0.790200  0.893100  0.633200  1.0
  H  H180  1  0.893100  0.633200  0.790200  1.0
  H  H181  1  0.290200  0.133200  0.606900  1.0
  H  H182  1  0.290200  0.866800  0.393100  1.0
  H  H183  1  0.709800  0.133200  0.393100  1.0
  H  H184  1  0.606900  0.290200  0.133200  1.0
  H  H185  1  0.393100  0.290200  0.866800  1.0
  H  H186  1  0.393100  0.709800  0.133200  1.0
  H  H187  1  0.133200  0.606900  0.290200  1.0
  H  H188  1  0.866800  0.393100  0.290200  1.0
  H  H189  1  0.133200  0.393100  0.709800  1.0
  H  H190  1  0.133200  0.290200  0.393100  1.0
  H  H191  1  0.290200  0.393100  0.133200  1.0
  H  H192  1  0.393100  0.133200  0.290200  1.0
  H  H193  1  0.790200  0.633200  0.893100  1.0
  H  H194  1  0.893100  0.790200  0.633200  1.0
  H  H195  1  0.633200  0.893100  0.790200  1.0
  H  H196  1  0.633200  0.790200  0.106900  1.0
  H  H197  1  0.633200  0.209800  0.893100  1.0
  H  H198  1  0.366800  0.790200  0.893100  1.0
  H  H199  1  0.790200  0.893100  0.366800  1.0
  H  H200  1  0.209800  0.893100  0.633200  1.0
  H  H201  1  0.790200  0.106900  0.633200  1.0
  H  H202  1  0.893100  0.633200  0.209800  1.0
  H  H203  1  0.893100  0.366800  0.790200  1.0
  H  H204  1  0.106900  0.633200  0.790200  1.0
  H  H205  1  0.290200  0.133200  0.393100  1.0
  H  H206  1  0.393100  0.290200  0.133200  1.0
  H  H207  1  0.133200  0.393100  0.290200  1.0
  H  H208  1  0.133200  0.290200  0.606900  1.0
  H  H209  1  0.133200  0.709800  0.393100  1.0
  H  H210  1  0.866800  0.290200  0.393100  1.0
  H  H211  1  0.290200  0.393100  0.866800  1.0
  H  H212  1  0.709800  0.393100  0.133200  1.0
  H  H213  1  0.290200  0.606900  0.133200  1.0
  H  H214  1  0.393100  0.133200  0.709800  1.0
  H  H215  1  0.393100  0.866800  0.290200  1.0
  H  H216  1  0.606900  0.133200  0.290200  1.0
  H  H217  1  0.209800  0.366800  0.893100  1.0
  H  H218  1  0.209800  0.633200  0.106900  1.0
  H  H219  1  0.790200  0.366800  0.106900  1.0
  H  H220  1  0.893100  0.209800  0.366800  1.0
  H  H221  1  0.106900  0.209800  0.633200  1.0
  H  H222  1  0.106900  0.790200  0.366800  1.0
  H  H223  1  0.366800  0.893100  0.209800  1.0
  H  H224  1  0.633200  0.106900  0.209800  1.0
  H  H225  1  0.366800  0.106900  0.790200  1.0
  H  H226  1  0.366800  0.209800  0.106900  1.0
  H  H227  1  0.209800  0.106900  0.366800  1.0
  H  H228  1  0.106900  0.366800  0.209800  1.0
  H  H229  1  0.709800  0.866800  0.393100  1.0
  H  H230  1  0.709800  0.133200  0.606900  1.0
  H  H231  1  0.290200  0.866800  0.606900  1.0
  H  H232  1  0.393100  0.709800  0.866800  1.0
  H  H233  1  0.606900  0.709800  0.133200  1.0
  H  H234  1  0.606900  0.290200  0.866800  1.0
  H  H235  1  0.866800  0.393100  0.709800  1.0
  H  H236  1  0.133200  0.606900  0.709800  1.0
  H  H237  1  0.866800  0.606900  0.290200  1.0
  H  H238  1  0.866800  0.709800  0.606900  1.0
  H  H239  1  0.709800  0.606900  0.866800  1.0
  H  H240  1  0.606900  0.866800  0.709800  1.0
  C  C241  1  0.308000  0.397000  0.000000  1
  C  C242  1  0.000000  0.308000  0.397000  1
  C  C243  1  0.397000  0.000000  0.308000  1
  C  C244  1  0.397000  0.308000  0.000000  1
  C  C245  1  0.397000  0.692000  0.000000  1
  C  C246  1  0.603000  0.308000  0.000000  1
  C  C247  1  0.308000  0.000000  0.603000  1
  C  C248  1  0.692000  0.000000  0.397000  1
  C  C249  1  0.308000  0.000000  0.397000  1
  C  C250  1  0.000000  0.397000  0.692000  1
  C  C251  1  0.000000  0.603000  0.308000  1
  C  C252  1  0.000000  0.397000  0.308000  1
  C  C253  1  0.808000  0.897000  0.500000  1
  C  C254  1  0.500000  0.808000  0.897000  1
  C  C255  1  0.897000  0.500000  0.808000  1
  C  C256  1  0.897000  0.808000  0.500000  1
  C  C257  1  0.897000  0.192000  0.500000  1
  C  C258  1  0.103000  0.808000  0.500000  1
  C  C259  1  0.808000  0.500000  0.103000  1
  C  C260  1  0.192000  0.500000  0.897000  1
  C  C261  1  0.808000  0.500000  0.897000  1
  C  C262  1  0.500000  0.897000  0.192000  1
  C  C263  1  0.500000  0.103000  0.808000  1
  C  C264  1  0.500000  0.897000  0.808000  1
  C  C265  1  0.692000  0.603000  0.000000  1
  C  C266  1  0.692000  0.397000  0.000000  1
  C  C267  1  0.308000  0.603000  0.000000  1
  C  C268  1  0.000000  0.692000  0.603000  1
  C  C269  1  0.000000  0.692000  0.397000  1
  C  C270  1  0.000000  0.308000  0.603000  1
  C  C271  1  0.603000  0.000000  0.692000  1
  C  C272  1  0.397000  0.000000  0.692000  1
  C  C273  1  0.603000  0.000000  0.308000  1
  C  C274  1  0.603000  0.692000  0.000000  1
  C  C275  1  0.692000  0.000000  0.603000  1
  C  C276  1  0.000000  0.603000  0.692000  1
  C  C277  1  0.192000  0.103000  0.500000  1
  C  C278  1  0.192000  0.897000  0.500000  1
  C  C279  1  0.808000  0.103000  0.500000  1
  C  C280  1  0.500000  0.192000  0.103000  1
  C  C281  1  0.500000  0.192000  0.897000  1
  C  C282  1  0.500000  0.808000  0.103000  1
  C  C283  1  0.103000  0.500000  0.192000  1
  C  C284  1  0.897000  0.500000  0.192000  1
  C  C285  1  0.103000  0.500000  0.808000  1
  C  C286  1  0.103000  0.192000  0.500000  1
  C  C287  1  0.192000  0.500000  0.103000  1
  C  C288  1  0.500000  0.103000  0.192000  1
  C  C289  1  0.142000  0.142000  0.142000  1
  C  C290  1  0.142000  0.142000  0.858000  1
  C  C291  1  0.142000  0.858000  0.142000  1
  C  C292  1  0.858000  0.142000  0.142000  1
  C  C293  1  0.642000  0.642000  0.642000  1
  C  C294  1  0.642000  0.642000  0.358000  1
  C  C295  1  0.642000  0.358000  0.642000  1
  C  C296  1  0.358000  0.642000  0.642000  1
  C  C297  1  0.858000  0.858000  0.142000  1
  C  C298  1  0.858000  0.142000  0.858000  1
  C  C299  1  0.142000  0.858000  0.858000  1
  C  C300  1  0.858000  0.858000  0.858000  1
  C  C301  1  0.358000  0.358000  0.642000  1
  C  C302  1  0.358000  0.642000  0.358000  1
  C  C303  1  0.642000  0.358000  0.358000  1
  C  C304  1  0.358000  0.358000  0.358000  1
  C  C305  1  0.225000  0.225000  0.225000  1
  C  C306  1  0.225000  0.225000  0.775000  1
  C  C307  1  0.225000  0.775000  0.225000  1
  C  C308  1  0.775000  0.225000  0.225000  1
  C  C309  1  0.725000  0.725000  0.725000  1
  C  C310  1  0.725000  0.725000  0.275000  1
  C  C311  1  0.725000  0.275000  0.725000  1
  C  C312  1  0.275000  0.725000  0.725000  1
  C  C313  1  0.775000  0.775000  0.225000  1
  C  C314  1  0.775000  0.225000  0.775000  1
  C  C315  1  0.225000  0.775000  0.775000  1
  C  C316  1  0.775000  0.775000  0.775000  1
  C  C317  1  0.275000  0.275000  0.725000  1
  C  C318  1  0.275000  0.725000  0.275000  1
  C  C319  1  0.725000  0.275000  0.275000  1
  C  C320  1  0.275000  0.275000  0.275000  1
  C  C321  1  0.187000  0.187000  0.187000  1
  C  C322  1  0.187000  0.187000  0.813000  1
  C  C323  1  0.187000  0.813000  0.187000  1
  C  C324  1  0.813000  0.187000  0.187000  1
  C  C325  1  0.687000  0.687000  0.687000  1
  C  C326  1  0.687000  0.687000  0.313000  1
  C  C327  1  0.687000  0.313000  0.687000  1
  C  C328  1  0.313000  0.687000  0.687000  1
  C  C329  1  0.813000  0.813000  0.187000  1
  C  C330  1  0.813000  0.187000  0.813000  1
  C  C331  1  0.187000  0.813000  0.813000  1
  C  C332  1  0.813000  0.813000  0.813000  1
  C  C333  1  0.313000  0.313000  0.687000  1
  C  C334  1  0.313000  0.687000  0.313000  1
  C  C335  1  0.687000  0.313000  0.313000  1
  C  C336  1  0.313000  0.313000  0.313000  1
  C  C337  1  0.236000  0.418000  0.000000  1
  C  C338  1  0.000000  0.236000  0.418000  1
  C  C339  1  0.418000  0.000000  0.236000  1
  C  C340  1  0.418000  0.236000  0.000000  1
  C  C341  1  0.418000  0.764000  0.000000  1
  C  C342  1  0.582000  0.236000  0.000000  1
  C  C343  1  0.236000  0.000000  0.582000  1
  C  C344  1  0.764000  0.000000  0.418000  1
  C  C345  1  0.236000  0.000000  0.418000  1
  C  C346  1  0.000000  0.418000  0.764000  1
  C  C347  1  0.000000  0.582000  0.236000  1
  C  C348  1  0.000000  0.418000  0.236000  1
  C  C349  1  0.736000  0.918000  0.500000  1
  C  C350  1  0.500000  0.736000  0.918000  1
  C  C351  1  0.918000  0.500000  0.736000  1
  C  C352  1  0.918000  0.736000  0.500000  1
  C  C353  1  0.918000  0.264000  0.500000  1
  C  C354  1  0.082000  0.736000  0.500000  1
  C  C355  1  0.736000  0.500000  0.082000  1
  C  C356  1  0.264000  0.500000  0.918000  1
  C  C357  1  0.736000  0.500000  0.918000  1
  C  C358  1  0.500000  0.918000  0.264000  1
  C  C359  1  0.500000  0.082000  0.736000  1
  C  C360  1  0.500000  0.918000  0.736000  1
  C  C361  1  0.764000  0.582000  0.000000  1
  C  C362  1  0.764000  0.418000  0.000000  1
  C  C363  1  0.236000  0.582000  0.000000  1
  C  C364  1  0.000000  0.764000  0.582000  1
  C  C365  1  0.000000  0.764000  0.418000  1
  C  C366  1  0.000000  0.236000  0.582000  1
  C  C367  1  0.582000  0.000000  0.764000  1
  C  C368  1  0.418000  0.000000  0.764000  1
  C  C369  1  0.582000  0.000000  0.236000  1
  C  C370  1  0.582000  0.764000  0.000000  1
  C  C371  1  0.764000  0.000000  0.582000  1
  C  C372  1  0.000000  0.582000  0.764000  1
  C  C373  1  0.264000  0.082000  0.500000  1
  C  C374  1  0.264000  0.918000  0.500000  1
  C  C375  1  0.736000  0.082000  0.500000  1
  C  C376  1  0.500000  0.264000  0.082000  1
  C  C377  1  0.500000  0.264000  0.918000  1
  C  C378  1  0.500000  0.736000  0.082000  1
  C  C379  1  0.082000  0.500000  0.264000  1
  C  C380  1  0.918000  0.500000  0.264000  1
  C  C381  1  0.082000  0.500000  0.736000  1
  C  C382  1  0.082000  0.264000  0.500000  1
  C  C383  1  0.264000  0.500000  0.082000  1
  C  C384  1  0.500000  0.082000  0.264000  1
  C  C385  1  0.227000  0.227000  0.274000  1
  C  C386  1  0.274000  0.227000  0.227000  1
  C  C387  1  0.227000  0.274000  0.227000  1
  C  C388  1  0.227000  0.227000  0.726000  1
  C  C389  1  0.227000  0.773000  0.274000  1
  C  C390  1  0.773000  0.227000  0.274000  1
  C  C391  1  0.227000  0.274000  0.773000  1
  C  C392  1  0.773000  0.274000  0.227000  1
  C  C393  1  0.227000  0.726000  0.227000  1
  C  C394  1  0.274000  0.227000  0.773000  1
  C  C395  1  0.274000  0.773000  0.227000  1
  C  C396  1  0.726000  0.227000  0.227000  1
  C  C397  1  0.727000  0.727000  0.774000  1
  C  C398  1  0.774000  0.727000  0.727000  1
  C  C399  1  0.727000  0.774000  0.727000  1
  C  C400  1  0.727000  0.727000  0.226000  1
  C  C401  1  0.727000  0.273000  0.774000  1
  C  C402  1  0.273000  0.727000  0.774000  1
  C  C403  1  0.727000  0.774000  0.273000  1
  C  C404  1  0.273000  0.774000  0.727000  1
  C  C405  1  0.727000  0.226000  0.727000  1
  C  C406  1  0.774000  0.727000  0.273000  1
  C  C407  1  0.774000  0.273000  0.727000  1
  C  C408  1  0.226000  0.727000  0.727000  1
  C  C409  1  0.773000  0.773000  0.274000  1
  C  C410  1  0.773000  0.227000  0.726000  1
  C  C411  1  0.227000  0.773000  0.726000  1
  C  C412  1  0.274000  0.773000  0.773000  1
  C  C413  1  0.726000  0.773000  0.227000  1
  C  C414  1  0.726000  0.227000  0.773000  1
  C  C415  1  0.773000  0.274000  0.773000  1
  C  C416  1  0.227000  0.726000  0.773000  1
  C  C417  1  0.773000  0.726000  0.227000  1
  C  C418  1  0.773000  0.773000  0.726000  1
  C  C419  1  0.773000  0.726000  0.773000  1
  C  C420  1  0.726000  0.773000  0.773000  1
  C  C421  1  0.273000  0.273000  0.774000  1
  C  C422  1  0.273000  0.727000  0.226000  1
  C  C423  1  0.727000  0.273000  0.226000  1
  C  C424  1  0.774000  0.273000  0.273000  1
  C  C425  1  0.226000  0.273000  0.727000  1
  C  C426  1  0.226000  0.727000  0.273000  1
  C  C427  1  0.273000  0.774000  0.273000  1
  C  C428  1  0.727000  0.226000  0.273000  1
  C  C429  1  0.273000  0.226000  0.727000  1
  C  C430  1  0.273000  0.273000  0.226000  1
  C  C431  1  0.273000  0.226000  0.273000  1
  C  C432  1  0.226000  0.273000  0.273000  1
  C  C433  1  0.178000  0.214000  0.214000  1
  C  C434  1  0.214000  0.178000  0.214000  1
  C  C435  1  0.214000  0.214000  0.178000  1
  C  C436  1  0.214000  0.178000  0.786000  1
  C  C437  1  0.214000  0.822000  0.214000  1
  C  C438  1  0.786000  0.178000  0.214000  1
  C  C439  1  0.178000  0.214000  0.786000  1
  C  C440  1  0.822000  0.214000  0.214000  1
  C  C441  1  0.178000  0.786000  0.214000  1
  C  C442  1  0.214000  0.214000  0.822000  1
  C  C443  1  0.214000  0.786000  0.178000  1
  C  C444  1  0.786000  0.214000  0.178000  1
  C  C445  1  0.678000  0.714000  0.714000  1
  C  C446  1  0.714000  0.678000  0.714000  1
  C  C447  1  0.714000  0.714000  0.678000  1
  C  C448  1  0.714000  0.678000  0.286000  1
  C  C449  1  0.714000  0.322000  0.714000  1
  C  C450  1  0.286000  0.678000  0.714000  1
  C  C451  1  0.678000  0.714000  0.286000  1
  C  C452  1  0.322000  0.714000  0.714000  1
  C  C453  1  0.678000  0.286000  0.714000  1
  C  C454  1  0.714000  0.714000  0.322000  1
  C  C455  1  0.714000  0.286000  0.678000  1
  C  C456  1  0.286000  0.714000  0.678000  1
  C  C457  1  0.822000  0.786000  0.214000  1
  C  C458  1  0.822000  0.214000  0.786000  1
  C  C459  1  0.178000  0.786000  0.786000  1
  C  C460  1  0.214000  0.822000  0.786000  1
  C  C461  1  0.786000  0.822000  0.214000  1
  C  C462  1  0.786000  0.178000  0.786000  1
  C  C463  1  0.786000  0.214000  0.822000  1
  C  C464  1  0.214000  0.786000  0.822000  1
  C  C465  1  0.786000  0.786000  0.178000  1
  C  C466  1  0.786000  0.822000  0.786000  1
  C  C467  1  0.822000  0.786000  0.786000  1
  C  C468  1  0.786000  0.786000  0.822000  1
  C  C469  1  0.322000  0.286000  0.714000  1
  C  C470  1  0.322000  0.714000  0.286000  1
  C  C471  1  0.678000  0.286000  0.286000  1
  C  C472  1  0.714000  0.322000  0.286000  1
  C  C473  1  0.286000  0.322000  0.714000  1
  C  C474  1  0.286000  0.678000  0.286000  1
  C  C475  1  0.286000  0.714000  0.322000  1
  C  C476  1  0.714000  0.286000  0.322000  1
  C  C477  1  0.286000  0.286000  0.678000  1
  C  C478  1  0.286000  0.322000  0.286000  1
  C  C479  1  0.322000  0.286000  0.286000  1
  C  C480  1  0.286000  0.286000  0.322000  1
  C  C481  1  0.076000  0.355000  0.000000  1
  C  C482  1  0.000000  0.076000  0.355000  1
  C  C483  1  0.355000  0.000000  0.076000  1
  C  C484  1  0.355000  0.076000  0.000000  1
  C  C485  1  0.355000  0.924000  0.000000  1
  C  C486  1  0.645000  0.076000  0.000000  1
  C  C487  1  0.076000  0.000000  0.645000  1
  C  C488  1  0.924000  0.000000  0.355000  1
  C  C489  1  0.076000  0.000000  0.355000  1
  C  C490  1  0.000000  0.355000  0.924000  1
  C  C491  1  0.000000  0.645000  0.076000  1
  C  C492  1  0.000000  0.355000  0.076000  1
  C  C493  1  0.576000  0.855000  0.500000  1
  C  C494  1  0.500000  0.576000  0.855000  1
  C  C495  1  0.855000  0.500000  0.576000  1
  C  C496  1  0.855000  0.576000  0.500000  1
  C  C497  1  0.855000  0.424000  0.500000  1
  C  C498  1  0.145000  0.576000  0.500000  1
  C  C499  1  0.576000  0.500000  0.145000  1
  C  C500  1  0.424000  0.500000  0.855000  1
  C  C501  1  0.576000  0.500000  0.855000  1
  C  C502  1  0.500000  0.855000  0.424000  1
  C  C503  1  0.500000  0.145000  0.576000  1
  C  C504  1  0.500000  0.855000  0.576000  1
  C  C505  1  0.924000  0.645000  0.000000  1
  C  C506  1  0.924000  0.355000  0.000000  1
  C  C507  1  0.076000  0.645000  0.000000  1
  C  C508  1  0.000000  0.924000  0.645000  1
  C  C509  1  0.000000  0.924000  0.355000  1
  C  C510  1  0.000000  0.076000  0.645000  1
  C  C511  1  0.645000  0.000000  0.924000  1
  C  C512  1  0.355000  0.000000  0.924000  1
  C  C513  1  0.645000  0.000000  0.076000  1
  C  C514  1  0.645000  0.924000  0.000000  1
  C  C515  1  0.924000  0.000000  0.645000  1
  C  C516  1  0.000000  0.645000  0.924000  1
  C  C517  1  0.424000  0.145000  0.500000  1
  C  C518  1  0.424000  0.855000  0.500000  1
  C  C519  1  0.576000  0.145000  0.500000  1
  C  C520  1  0.500000  0.424000  0.145000  1
  C  C521  1  0.500000  0.424000  0.855000  1
  C  C522  1  0.500000  0.576000  0.145000  1
  C  C523  1  0.145000  0.500000  0.424000  1
  C  C524  1  0.855000  0.500000  0.424000  1
  C  C525  1  0.145000  0.500000  0.576000  1
  C  C526  1  0.145000  0.424000  0.500000  1
  C  C527  1  0.424000  0.500000  0.145000  1
  C  C528  1  0.500000  0.145000  0.424000  1
  C  C529  1  0.137000  0.137000  0.137000  1
  C  C530  1  0.137000  0.137000  0.863000  1
  C  C531  1  0.137000  0.863000  0.137000  1
  C  C532  1  0.863000  0.137000  0.137000  1
  C  C533  1  0.637000  0.637000  0.637000  1
  C  C534  1  0.637000  0.637000  0.363000  1
  C  C535  1  0.637000  0.363000  0.637000  1
  C  C536  1  0.363000  0.637000  0.637000  1
  C  C537  1  0.863000  0.863000  0.137000  1
  C  C538  1  0.863000  0.137000  0.863000  1
  C  C539  1  0.137000  0.863000  0.863000  1
  C  C540  1  0.863000  0.863000  0.863000  1
  C  C541  1  0.363000  0.363000  0.637000  1
  C  C542  1  0.363000  0.637000  0.363000  1
  C  C543  1  0.637000  0.363000  0.363000  1
  C  C544  1  0.363000  0.363000  0.363000  1
  C  C545  1  0.127900  0.285300  0.127900  1.0
  C  C546  1  0.127900  0.127900  0.285300  1.0
  C  C547  1  0.285300  0.127900  0.127900  1.0
  C  C548  1  0.285300  0.127900  0.872100  1.0
  C  C549  1  0.285300  0.872100  0.127900  1.0
  C  C550  1  0.714700  0.127900  0.127900  1.0
  C  C551  1  0.127900  0.127900  0.714700  1.0
  C  C552  1  0.872100  0.127900  0.285300  1.0
  C  C553  1  0.127900  0.872100  0.285300  1.0
  C  C554  1  0.127900  0.285300  0.872100  1.0
  C  C555  1  0.127900  0.714700  0.127900  1.0
  C  C556  1  0.872100  0.285300  0.127900  1.0
  C  C557  1  0.627900  0.785300  0.627900  1.0
  C  C558  1  0.627900  0.627900  0.785300  1.0
  C  C559  1  0.785300  0.627900  0.627900  1.0
  C  C560  1  0.785300  0.627900  0.372100  1.0
  C  C561  1  0.785300  0.372100  0.627900  1.0
  C  C562  1  0.214700  0.627900  0.627900  1.0
  C  C563  1  0.627900  0.627900  0.214700  1.0
  C  C564  1  0.372100  0.627900  0.785300  1.0
  C  C565  1  0.627900  0.372100  0.785300  1.0
  C  C566  1  0.627900  0.785300  0.372100  1.0
  C  C567  1  0.627900  0.214700  0.627900  1.0
  C  C568  1  0.372100  0.785300  0.627900  1.0
  C  C569  1  0.872100  0.714700  0.127900  1.0
  C  C570  1  0.872100  0.285300  0.872100  1.0
  C  C571  1  0.127900  0.714700  0.872100  1.0
  C  C572  1  0.127900  0.872100  0.714700  1.0
  C  C573  1  0.872100  0.872100  0.285300  1.0
  C  C574  1  0.872100  0.127900  0.714700  1.0
  C  C575  1  0.714700  0.127900  0.872100  1.0
  C  C576  1  0.285300  0.872100  0.872100  1.0
  C  C577  1  0.714700  0.872100  0.127900  1.0
  C  C578  1  0.714700  0.872100  0.872100  1.0
  C  C579  1  0.872100  0.872100  0.714700  1.0
  C  C580  1  0.872100  0.714700  0.872100  1.0
  C  C581  1  0.372100  0.214700  0.627900  1.0
  C  C582  1  0.372100  0.785300  0.372100  1.0
  C  C583  1  0.627900  0.214700  0.372100  1.0
  C  C584  1  0.627900  0.372100  0.214700  1.0
  C  C585  1  0.372100  0.372100  0.785300  1.0
  C  C586  1  0.372100  0.627900  0.214700  1.0
  C  C587  1  0.214700  0.627900  0.372100  1.0
  C  C588  1  0.785300  0.372100  0.372100  1.0
  C  C589  1  0.214700  0.372100  0.627900  1.0
  C  C590  1  0.214700  0.372100  0.372100  1.0
  C  C591  1  0.372100  0.372100  0.214700  1.0
  C  C592  1  0.372100  0.214700  0.372100  1.0
  C  C593  1  0.163000  0.372600  0.163000  1.0
  C  C594  1  0.163000  0.163000  0.372600  1.0
  C  C595  1  0.372600  0.163000  0.163000  1.0
  C  C596  1  0.372600  0.163000  0.837000  1.0
  C  C597  1  0.372600  0.837000  0.163000  1.0
  C  C598  1  0.627400  0.163000  0.163000  1.0
  C  C599  1  0.163000  0.163000  0.627400  1.0
  C  C600  1  0.837000  0.163000  0.372600  1.0
  C  C601  1  0.163000  0.837000  0.372600  1.0
  C  C602  1  0.163000  0.372600  0.837000  1.0
  C  C603  1  0.163000  0.627400  0.163000  1.0
  C  C604  1  0.837000  0.372600  0.163000  1.0
  C  C605  1  0.663000  0.872600  0.663000  1.0
  C  C606  1  0.663000  0.663000  0.872600  1.0
  C  C607  1  0.872600  0.663000  0.663000  1.0
  C  C608  1  0.872600  0.663000  0.337000  1.0
  C  C609  1  0.872600  0.337000  0.663000  1.0
  C  C610  1  0.127400  0.663000  0.663000  1.0
  C  C611  1  0.663000  0.663000  0.127400  1.0
  C  C612  1  0.337000  0.663000  0.872600  1.0
  C  C613  1  0.663000  0.337000  0.872600  1.0
  C  C614  1  0.663000  0.872600  0.337000  1.0
  C  C615  1  0.663000  0.127400  0.663000  1.0
  C  C616  1  0.337000  0.872600  0.663000  1.0
  C  C617  1  0.837000  0.627400  0.163000  1.0
  C  C618  1  0.837000  0.372600  0.837000  1.0
  C  C619  1  0.163000  0.627400  0.837000  1.0
  C  C620  1  0.163000  0.837000  0.627400  1.0
  C  C621  1  0.837000  0.837000  0.372600  1.0
  C  C622  1  0.837000  0.163000  0.627400  1.0
  C  C623  1  0.627400  0.163000  0.837000  1.0
  C  C624  1  0.372600  0.837000  0.837000  1.0
  C  C625  1  0.627400  0.837000  0.163000  1.0
  C  C626  1  0.627400  0.837000  0.837000  1.0
  C  C627  1  0.837000  0.837000  0.627400  1.0
  C  C628  1  0.837000  0.627400  0.837000  1.0
  C  C629  1  0.337000  0.127400  0.663000  1.0
  C  C630  1  0.337000  0.872600  0.337000  1.0
  C  C631  1  0.663000  0.127400  0.337000  1.0
  C  C632  1  0.663000  0.337000  0.127400  1.0
  C  C633  1  0.337000  0.337000  0.872600  1.0
  C  C634  1  0.337000  0.663000  0.127400  1.0
  C  C635  1  0.127400  0.663000  0.337000  1.0
  C  C636  1  0.872600  0.337000  0.337000  1.0
  C  C637  1  0.127400  0.337000  0.663000  1.0
  C  C638  1  0.127400  0.337000  0.337000  1.0
  C  C639  1  0.337000  0.337000  0.127400  1.0
  C  C640  1  0.337000  0.127400  0.337000  1.0
  C  C641  1  0.170000  0.102000  0.000000  1.0
  C  C642  1  0.000000  0.170000  0.102000  1.0
  C  C643  1  0.102000  0.000000  0.170000  1.0
  C  C644  1  0.102000  0.170000  0.000000  1.0
  C  C645  1  0.102000  0.830000  0.000000  1.0
  C  C646  1  0.898000  0.170000  0.000000  1.0
  C  C647  1  0.170000  0.000000  0.898000  1.0
  C  C648  1  0.830000  0.000000  0.102000  1.0
  C  C649  1  0.170000  0.000000  0.102000  1.0
  C  C650  1  0.000000  0.102000  0.830000  1.0
  C  C651  1  0.000000  0.898000  0.170000  1.0
  C  C652  1  0.000000  0.102000  0.170000  1.0
  C  C653  1  0.670000  0.602000  0.500000  1.0
  C  C654  1  0.500000  0.670000  0.602000  1.0
  C  C655  1  0.602000  0.500000  0.670000  1.0
  C  C656  1  0.602000  0.670000  0.500000  1.0
  C  C657  1  0.602000  0.330000  0.500000  1.0
  C  C658  1  0.398000  0.670000  0.500000  1.0
  C  C659  1  0.670000  0.500000  0.398000  1.0
  C  C660  1  0.330000  0.500000  0.602000  1.0
  C  C661  1  0.670000  0.500000  0.602000  1.0
  C  C662  1  0.500000  0.602000  0.330000  1.0
  C  C663  1  0.500000  0.398000  0.670000  1.0
  C  C664  1  0.500000  0.602000  0.670000  1.0
  C  C665  1  0.830000  0.898000  0.000000  1.0
  C  C666  1  0.830000  0.102000  0.000000  1.0
  C  C667  1  0.170000  0.898000  0.000000  1.0
  C  C668  1  0.000000  0.830000  0.898000  1.0
  C  C669  1  0.000000  0.830000  0.102000  1.0
  C  C670  1  0.000000  0.170000  0.898000  1.0
  C  C671  1  0.898000  0.000000  0.830000  1.0
  C  C672  1  0.102000  0.000000  0.830000  1.0
  C  C673  1  0.898000  0.000000  0.170000  1.0
  C  C674  1  0.898000  0.830000  0.000000  1.0
  C  C675  1  0.830000  0.000000  0.898000  1.0
  C  C676  1  0.000000  0.898000  0.830000  1.0
  C  C677  1  0.330000  0.398000  0.500000  1.0
  C  C678  1  0.330000  0.602000  0.500000  1.0
  C  C679  1  0.670000  0.398000  0.500000  1.0
  C  C680  1  0.500000  0.330000  0.398000  1.0
  C  C681  1  0.500000  0.330000  0.602000  1.0
  C  C682  1  0.500000  0.670000  0.398000  1.0
  C  C683  1  0.398000  0.500000  0.330000  1.0
  C  C684  1  0.602000  0.500000  0.330000  1.0
  C  C685  1  0.398000  0.500000  0.670000  1.0
  C  C686  1  0.398000  0.330000  0.500000  1.0
  C  C687  1  0.330000  0.500000  0.398000  1.0
  C  C688  1  0.500000  0.398000  0.330000  1.0
  C  C689  1  0.192700  0.282500  0.065500  1.0
  C  C690  1  0.065500  0.192700  0.282500  1.0
  C  C691  1  0.282500  0.065500  0.192700  1.0
  C  C692  1  0.282500  0.192700  0.934500  1.0
  C  C693  1  0.282500  0.807300  0.065500  1.0
  C  C694  1  0.717500  0.192700  0.065500  1.0
  C  C695  1  0.192700  0.065500  0.717500  1.0
  C  C696  1  0.807300  0.065500  0.282500  1.0
  C  C697  1  0.192700  0.934500  0.282500  1.0
  C  C698  1  0.065500  0.282500  0.807300  1.0
  C  C699  1  0.065500  0.717500  0.192700  1.0
  C  C700  1  0.934500  0.282500  0.192700  1.0
  C  C701  1  0.692700  0.782500  0.565500  1.0
  C  C702  1  0.565500  0.692700  0.782500  1.0
  C  C703  1  0.782500  0.565500  0.692700  1.0
  C  C704  1  0.782500  0.692700  0.434500  1.0
  C  C705  1  0.782500  0.307300  0.565500  1.0
  C  C706  1  0.217500  0.692700  0.565500  1.0
  C  C707  1  0.692700  0.565500  0.217500  1.0
  C  C708  1  0.307300  0.565500  0.782500  1.0
  C  C709  1  0.692700  0.434500  0.782500  1.0
  C  C710  1  0.565500  0.782500  0.307300  1.0
  C  C711  1  0.565500  0.217500  0.692700  1.0
  C  C712  1  0.434500  0.782500  0.692700  1.0
  C  C713  1  0.807300  0.717500  0.065500  1.0
  C  C714  1  0.807300  0.282500  0.934500  1.0
  C  C715  1  0.192700  0.717500  0.934500  1.0
  C  C716  1  0.065500  0.807300  0.717500  1.0
  C  C717  1  0.934500  0.807300  0.282500  1.0
  C  C718  1  0.934500  0.192700  0.717500  1.0
  C  C719  1  0.717500  0.065500  0.807300  1.0
  C  C720  1  0.282500  0.934500  0.807300  1.0
  C  C721  1  0.717500  0.934500  0.192700  1.0
  C  C722  1  0.717500  0.807300  0.934500  1.0
  C  C723  1  0.807300  0.934500  0.717500  1.0
  C  C724  1  0.934500  0.717500  0.807300  1.0
  C  C725  1  0.307300  0.217500  0.565500  1.0
  C  C726  1  0.307300  0.782500  0.434500  1.0
  C  C727  1  0.692700  0.217500  0.434500  1.0
  C  C728  1  0.565500  0.307300  0.217500  1.0
  C  C729  1  0.434500  0.307300  0.782500  1.0
  C  C730  1  0.434500  0.692700  0.217500  1.0
  C  C731  1  0.217500  0.565500  0.307300  1.0
  C  C732  1  0.782500  0.434500  0.307300  1.0
  C  C733  1  0.217500  0.434500  0.692700  1.0
  C  C734  1  0.217500  0.307300  0.434500  1.0
  C  C735  1  0.307300  0.434500  0.217500  1.0
  C  C736  1  0.434500  0.217500  0.307300  1.0
  C  C737  1  0.807300  0.717500  0.934500  1.0
  C  C738  1  0.934500  0.807300  0.717500  1.0
  C  C739  1  0.717500  0.934500  0.807300  1.0
  C  C740  1  0.717500  0.807300  0.065500  1.0
  C  C741  1  0.717500  0.192700  0.934500  1.0
  C  C742  1  0.282500  0.807300  0.934500  1.0
  C  C743  1  0.807300  0.934500  0.282500  1.0
  C  C744  1  0.192700  0.934500  0.717500  1.0
  C  C745  1  0.807300  0.065500  0.717500  1.0
  C  C746  1  0.934500  0.717500  0.192700  1.0
  C  C747  1  0.934500  0.282500  0.807300  1.0
  C  C748  1  0.065500  0.717500  0.807300  1.0
  C  C749  1  0.307300  0.217500  0.434500  1.0
  C  C750  1  0.434500  0.307300  0.217500  1.0
  C  C751  1  0.217500  0.434500  0.307300  1.0
  C  C752  1  0.217500  0.307300  0.565500  1.0
  C  C753  1  0.217500  0.692700  0.434500  1.0
  C  C754  1  0.782500  0.307300  0.434500  1.0
  C  C755  1  0.307300  0.434500  0.782500  1.0
  C  C756  1  0.692700  0.434500  0.217500  1.0
  C  C757  1  0.307300  0.565500  0.217500  1.0
  C  C758  1  0.434500  0.217500  0.692700  1.0
  C  C759  1  0.434500  0.782500  0.307300  1.0
  C  C760  1  0.565500  0.217500  0.307300  1.0
  C  C761  1  0.192700  0.282500  0.934500  1.0
  C  C762  1  0.192700  0.717500  0.065500  1.0
  C  C763  1  0.807300  0.282500  0.065500  1.0
  C  C764  1  0.934500  0.192700  0.282500  1.0
  C  C765  1  0.065500  0.192700  0.717500  1.0
  C  C766  1  0.065500  0.807300  0.282500  1.0
  C  C767  1  0.282500  0.934500  0.192700  1.0
  C  C768  1  0.717500  0.065500  0.192700  1.0
  C  C769  1  0.282500  0.065500  0.807300  1.0
  C  C770  1  0.282500  0.192700  0.065500  1.0
  C  C771  1  0.192700  0.065500  0.282500  1.0
  C  C772  1  0.065500  0.282500  0.192700  1.0
  C  C773  1  0.692700  0.782500  0.434500  1.0
  C  C774  1  0.692700  0.217500  0.565500  1.0
  C  C775  1  0.307300  0.782500  0.565500  1.0
  C  C776  1  0.434500  0.692700  0.782500  1.0
  C  C777  1  0.565500  0.692700  0.217500  1.0
  C  C778  1  0.565500  0.307300  0.782500  1.0
  C  C779  1  0.782500  0.434500  0.692700  1.0
  C  C780  1  0.217500  0.565500  0.692700  1.0
  C  C781  1  0.782500  0.565500  0.307300  1.0
  C  C782  1  0.782500  0.692700  0.565500  1.0
  C  C783  1  0.692700  0.565500  0.782500  1.0
  C  C784  1  0.565500  0.782500  0.692700  1.0
  C  C785  1  0.167500  0.307700  0.105900  1.0
  C  C786  1  0.105900  0.167500  0.307700  1.0
  C  C787  1  0.307700  0.105900  0.167500  1.0
  C  C788  1  0.307700  0.167500  0.894100  1.0
  C  C789  1  0.307700  0.832500  0.105900  1.0
  C  C790  1  0.692300  0.167500  0.105900  1.0
  C  C791  1  0.167500  0.105900  0.692300  1.0
  C  C792  1  0.832500  0.105900  0.307700  1.0
  C  C793  1  0.167500  0.894100  0.307700  1.0
  C  C794  1  0.105900  0.307700  0.832500  1.0
  C  C795  1  0.105900  0.692300  0.167500  1.0
  C  C796  1  0.894100  0.307700  0.167500  1.0
  C  C797  1  0.667500  0.807700  0.605900  1.0
  C  C798  1  0.605900  0.667500  0.807700  1.0
  C  C799  1  0.807700  0.605900  0.667500  1.0
  C  C800  1  0.807700  0.667500  0.394100  1.0
  C  C801  1  0.807700  0.332500  0.605900  1.0
  C  C802  1  0.192300  0.667500  0.605900  1.0
  C  C803  1  0.667500  0.605900  0.192300  1.0
  C  C804  1  0.332500  0.605900  0.807700  1.0
  C  C805  1  0.667500  0.394100  0.807700  1.0
  C  C806  1  0.605900  0.807700  0.332500  1.0
  C  C807  1  0.605900  0.192300  0.667500  1.0
  C  C808  1  0.394100  0.807700  0.667500  1.0
  C  C809  1  0.832500  0.692300  0.105900  1.0
  C  C810  1  0.832500  0.307700  0.894100  1.0
  C  C811  1  0.167500  0.692300  0.894100  1.0
  C  C812  1  0.105900  0.832500  0.692300  1.0
  C  C813  1  0.894100  0.832500  0.307700  1.0
  C  C814  1  0.894100  0.167500  0.692300  1.0
  C  C815  1  0.692300  0.105900  0.832500  1.0
  C  C816  1  0.307700  0.894100  0.832500  1.0
  C  C817  1  0.692300  0.894100  0.167500  1.0
  C  C818  1  0.692300  0.832500  0.894100  1.0
  C  C819  1  0.832500  0.894100  0.692300  1.0
  C  C820  1  0.894100  0.692300  0.832500  1.0
  C  C821  1  0.332500  0.192300  0.605900  1.0
  C  C822  1  0.332500  0.807700  0.394100  1.0
  C  C823  1  0.667500  0.192300  0.394100  1.0
  C  C824  1  0.605900  0.332500  0.192300  1.0
  C  C825  1  0.394100  0.332500  0.807700  1.0
  C  C826  1  0.394100  0.667500  0.192300  1.0
  C  C827  1  0.192300  0.605900  0.332500  1.0
  C  C828  1  0.807700  0.394100  0.332500  1.0
  C  C829  1  0.192300  0.394100  0.667500  1.0
  C  C830  1  0.192300  0.332500  0.394100  1.0
  C  C831  1  0.332500  0.394100  0.192300  1.0
  C  C832  1  0.394100  0.192300  0.332500  1.0
  C  C833  1  0.832500  0.692300  0.894100  1.0
  C  C834  1  0.894100  0.832500  0.692300  1.0
  C  C835  1  0.692300  0.894100  0.832500  1.0
  C  C836  1  0.692300  0.832500  0.105900  1.0
  C  C837  1  0.692300  0.167500  0.894100  1.0
  C  C838  1  0.307700  0.832500  0.894100  1.0
  C  C839  1  0.832500  0.894100  0.307700  1.0
  C  C840  1  0.167500  0.894100  0.692300  1.0
  C  C841  1  0.832500  0.105900  0.692300  1.0
  C  C842  1  0.894100  0.692300  0.167500  1.0
  C  C843  1  0.894100  0.307700  0.832500  1.0
  C  C844  1  0.105900  0.692300  0.832500  1.0
  C  C845  1  0.332500  0.192300  0.394100  1.0
  C  C846  1  0.394100  0.332500  0.192300  1.0
  C  C847  1  0.192300  0.394100  0.332500  1.0
  C  C848  1  0.192300  0.332500  0.605900  1.0
  C  C849  1  0.192300  0.667500  0.394100  1.0
  C  C850  1  0.807700  0.332500  0.394100  1.0
  C  C851  1  0.332500  0.394100  0.807700  1.0
  C  C852  1  0.667500  0.394100  0.192300  1.0
  C  C853  1  0.332500  0.605900  0.192300  1.0
  C  C854  1  0.394100  0.192300  0.667500  1.0
  C  C855  1  0.394100  0.807700  0.332500  1.0
  C  C856  1  0.605900  0.192300  0.332500  1.0
  C  C857  1  0.167500  0.307700  0.894100  1.0
  C  C858  1  0.167500  0.692300  0.105900  1.0
  C  C859  1  0.832500  0.307700  0.105900  1.0
  C  C860  1  0.894100  0.167500  0.307700  1.0
  C  C861  1  0.105900  0.167500  0.692300  1.0
  C  C862  1  0.105900  0.832500  0.307700  1.0
  C  C863  1  0.307700  0.894100  0.167500  1.0
  C  C864  1  0.692300  0.105900  0.167500  1.0
  C  C865  1  0.307700  0.105900  0.832500  1.0
  C  C866  1  0.307700  0.167500  0.105900  1.0
  C  C867  1  0.167500  0.105900  0.307700  1.0
  C  C868  1  0.105900  0.307700  0.167500  1.0
  C  C869  1  0.667500  0.807700  0.394100  1.0
  C  C870  1  0.667500  0.192300  0.605900  1.0
  C  C871  1  0.332500  0.807700  0.605900  1.0
  C  C872  1  0.394100  0.667500  0.807700  1.0
  C  C873  1  0.605900  0.667500  0.192300  1.0
  C  C874  1  0.605900  0.332500  0.807700  1.0
  C  C875  1  0.807700  0.394100  0.667500  1.0
  C  C876  1  0.192300  0.605900  0.667500  1.0
  C  C877  1  0.807700  0.605900  0.332500  1.0
  C  C878  1  0.807700  0.667500  0.605900  1.0
  C  C879  1  0.667500  0.605900  0.807700  1.0
  C  C880  1  0.605900  0.807700  0.667500  1.0
  C  C881  1  0.183800  0.351100  0.122900  1.0
  C  C882  1  0.122900  0.183800  0.351100  1.0
  C  C883  1  0.351100  0.122900  0.183800  1.0
  C  C884  1  0.351100  0.183800  0.877100  1.0
  C  C885  1  0.351100  0.816200  0.122900  1.0
  C  C886  1  0.648900  0.183800  0.122900  1.0
  C  C887  1  0.183800  0.122900  0.648900  1.0
  C  C888  1  0.816200  0.122900  0.351100  1.0
  C  C889  1  0.183800  0.877100  0.351100  1.0
  C  C890  1  0.122900  0.351100  0.816200  1.0
  C  C891  1  0.122900  0.648900  0.183800  1.0
  C  C892  1  0.877100  0.351100  0.183800  1.0
  C  C893  1  0.683800  0.851100  0.622900  1.0
  C  C894  1  0.622900  0.683800  0.851100  1.0
  C  C895  1  0.851100  0.622900  0.683800  1.0
  C  C896  1  0.851100  0.683800  0.377100  1.0
  C  C897  1  0.851100  0.316200  0.622900  1.0
  C  C898  1  0.148900  0.683800  0.622900  1.0
  C  C899  1  0.683800  0.622900  0.148900  1.0
  C  C900  1  0.316200  0.622900  0.851100  1.0
  C  C901  1  0.683800  0.377100  0.851100  1.0
  C  C902  1  0.622900  0.851100  0.316200  1.0
  C  C903  1  0.622900  0.148900  0.683800  1.0
  C  C904  1  0.377100  0.851100  0.683800  1.0
  C  C905  1  0.816200  0.648900  0.122900  1.0
  C  C906  1  0.816200  0.351100  0.877100  1.0
  C  C907  1  0.183800  0.648900  0.877100  1.0
  C  C908  1  0.122900  0.816200  0.648900  1.0
  C  C909  1  0.877100  0.816200  0.351100  1.0
  C  C910  1  0.877100  0.183800  0.648900  1.0
  C  C911  1  0.648900  0.122900  0.816200  1.0
  C  C912  1  0.351100  0.877100  0.816200  1.0
  C  C913  1  0.648900  0.877100  0.183800  1.0
  C  C914  1  0.648900  0.816200  0.877100  1.0
  C  C915  1  0.816200  0.877100  0.648900  1.0
  C  C916  1  0.877100  0.648900  0.816200  1.0
  C  C917  1  0.316200  0.148900  0.622900  1.0
  C  C918  1  0.316200  0.851100  0.377100  1.0
  C  C919  1  0.683800  0.148900  0.377100  1.0
  C  C920  1  0.622900  0.316200  0.148900  1.0
  C  C921  1  0.377100  0.316200  0.851100  1.0
  C  C922  1  0.377100  0.683800  0.148900  1.0
  C  C923  1  0.148900  0.622900  0.316200  1.0
  C  C924  1  0.851100  0.377100  0.316200  1.0
  C  C925  1  0.148900  0.377100  0.683800  1.0
  C  C926  1  0.148900  0.316200  0.377100  1.0
  C  C927  1  0.316200  0.377100  0.148900  1.0
  C  C928  1  0.377100  0.148900  0.316200  1.0
  C  C929  1  0.816200  0.648900  0.877100  1.0
  C  C930  1  0.877100  0.816200  0.648900  1.0
  C  C931  1  0.648900  0.877100  0.816200  1.0
  C  C932  1  0.648900  0.816200  0.122900  1.0
  C  C933  1  0.648900  0.183800  0.877100  1.0
  C  C934  1  0.351100  0.816200  0.877100  1.0
  C  C935  1  0.816200  0.877100  0.351100  1.0
  C  C936  1  0.183800  0.877100  0.648900  1.0
  C  C937  1  0.816200  0.122900  0.648900  1.0
  C  C938  1  0.877100  0.648900  0.183800  1.0
  C  C939  1  0.877100  0.351100  0.816200  1.0
  C  C940  1  0.122900  0.648900  0.816200  1.0
  C  C941  1  0.316200  0.148900  0.377100  1.0
  C  C942  1  0.377100  0.316200  0.148900  1.0
  C  C943  1  0.148900  0.377100  0.316200  1.0
  C  C944  1  0.148900  0.316200  0.622900  1.0
  C  C945  1  0.148900  0.683800  0.377100  1.0
  C  C946  1  0.851100  0.316200  0.377100  1.0
  C  C947  1  0.316200  0.377100  0.851100  1.0
  C  C948  1  0.683800  0.377100  0.148900  1.0
  C  C949  1  0.316200  0.622900  0.148900  1.0
  C  C950  1  0.377100  0.148900  0.683800  1.0
  C  C951  1  0.377100  0.851100  0.316200  1.0
  C  C952  1  0.622900  0.148900  0.316200  1.0
  C  C953  1  0.183800  0.351100  0.877100  1.0
  C  C954  1  0.183800  0.648900  0.122900  1.0
  C  C955  1  0.816200  0.351100  0.122900  1.0
  C  C956  1  0.877100  0.183800  0.351100  1.0
  C  C957  1  0.122900  0.183800  0.648900  1.0
  C  C958  1  0.122900  0.816200  0.351100  1.0
  C  C959  1  0.351100  0.877100  0.183800  1.0
  C  C960  1  0.648900  0.122900  0.183800  1.0
  C  C961  1  0.351100  0.122900  0.816200  1.0
  C  C962  1  0.351100  0.183800  0.122900  1.0
  C  C963  1  0.183800  0.122900  0.351100  1.0
  C  C964  1  0.122900  0.351100  0.183800  1.0
  C  C965  1  0.683800  0.851100  0.377100  1.0
  C  C966  1  0.683800  0.148900  0.622900  1.0
  C  C967  1  0.316200  0.851100  0.622900  1.0
  C  C968  1  0.377100  0.683800  0.851100  1.0
  C  C969  1  0.622900  0.683800  0.148900  1.0
  C  C970  1  0.622900  0.316200  0.851100  1.0
  C  C971  1  0.851100  0.377100  0.683800  1.0
  C  C972  1  0.148900  0.622900  0.683800  1.0
  C  C973  1  0.851100  0.622900  0.316200  1.0
  C  C974  1  0.851100  0.683800  0.622900  1.0
  C  C975  1  0.683800  0.622900  0.851100  1.0
  C  C976  1  0.622900  0.851100  0.683800  1.0
  O  O977  1  0.326300  0.326300  0.000000  1.0
  O  O978  1  0.000000  0.326300  0.326300  1.0
  O  O979  1  0.326300  0.000000  0.326300  1.0
  O  O980  1  0.326300  0.673700  0.000000  1.0
  O  O981  1  0.673700  0.326300  0.000000  1.0
  O  O982  1  0.326300  0.000000  0.673700  1.0
  O  O983  1  0.673700  0.000000  0.326300  1.0
  O  O984  1  0.000000  0.326300  0.673700  1.0
  O  O985  1  0.000000  0.673700  0.326300  1.0
  O  O986  1  0.826300  0.826300  0.500000  1.0
  O  O987  1  0.500000  0.826300  0.826300  1.0
  O  O988  1  0.826300  0.500000  0.826300  1.0
  O  O989  1  0.826300  0.173700  0.500000  1.0
  O  O990  1  0.173700  0.826300  0.500000  1.0
  O  O991  1  0.826300  0.500000  0.173700  1.0
  O  O992  1  0.173700  0.500000  0.826300  1.0
  O  O993  1  0.500000  0.826300  0.173700  1.0
  O  O994  1  0.500000  0.173700  0.826300  1.0
  O  O995  1  0.673700  0.673700  0.000000  1.0
  O  O996  1  0.000000  0.673700  0.673700  1.0
  O  O997  1  0.673700  0.000000  0.673700  1.0
  O  O998  1  0.173700  0.173700  0.500000  1.0
  O  O999  1  0.500000  0.173700  0.173700  1.0
  O  O1000  1  0.173700  0.500000  0.173700  1.0
  O  O1001  1  0.149300  0.149300  0.000000  1.0
  O  O1002  1  0.000000  0.149300  0.149300  1.0
  O  O1003  1  0.149300  0.000000  0.149300  1.0
  O  O1004  1  0.149300  0.850700  0.000000  1.0
  O  O1005  1  0.850700  0.149300  0.000000  1.0
  O  O1006  1  0.149300  0.000000  0.850700  1.0
  O  O1007  1  0.850700  0.000000  0.149300  1.0
  O  O1008  1  0.000000  0.149300  0.850700  1.0
  O  O1009  1  0.000000  0.850700  0.149300  1.0
  O  O1010  1  0.649300  0.649300  0.500000  1.0
  O  O1011  1  0.500000  0.649300  0.649300  1.0
  O  O1012  1  0.649300  0.500000  0.649300  1.0
  O  O1013  1  0.649300  0.350700  0.500000  1.0
  O  O1014  1  0.350700  0.649300  0.500000  1.0
  O  O1015  1  0.649300  0.500000  0.350700  1.0
  O  O1016  1  0.350700  0.500000  0.649300  1.0
  O  O1017  1  0.500000  0.649300  0.350700  1.0
  O  O1018  1  0.500000  0.350700  0.649300  1.0
  O  O1019  1  0.850700  0.850700  0.000000  1.0
  O  O1020  1  0.000000  0.850700  0.850700  1.0
  O  O1021  1  0.850700  0.000000  0.850700  1.0
  O  O1022  1  0.350700  0.350700  0.500000  1.0
  O  O1023  1  0.500000  0.350700  0.350700  1.0
  O  O1024  1  0.350700  0.500000  0.350700  1.0
  O  O1025  1  0.231350  0.302000  0.049800  1.0
  O  O1026  1  0.049800  0.231350  0.302000  1.0
  O  O1027  1  0.302000  0.049800  0.231350  1.0
  O  O1028  1  0.302000  0.231350  0.950200  1.0
  O  O1029  1  0.302000  0.768650  0.049800  1.0
  O  O1030  1  0.698000  0.231350  0.049800  1.0
  O  O1031  1  0.231350  0.049800  0.698000  1.0
  O  O1032  1  0.768650  0.049800  0.302000  1.0
  O  O1033  1  0.231350  0.950200  0.302000  1.0
  O  O1034  1  0.049800  0.302000  0.768650  1.0
  O  O1035  1  0.049800  0.698000  0.231350  1.0
  O  O1036  1  0.950200  0.302000  0.231350  1.0
  O  O1037  1  0.731350  0.802000  0.549800  1.0
  O  O1038  1  0.549800  0.731350  0.802000  1.0
  O  O1039  1  0.802000  0.549800  0.731350  1.0
  O  O1040  1  0.802000  0.731350  0.450200  1.0
  O  O1041  1  0.802000  0.268650  0.549800  1.0
  O  O1042  1  0.198000  0.731350  0.549800  1.0
  O  O1043  1  0.731350  0.549800  0.198000  1.0
  O  O1044  1  0.268650  0.549800  0.802000  1.0
  O  O1045  1  0.731350  0.450200  0.802000  1.0
  O  O1046  1  0.549800  0.802000  0.268650  1.0
  O  O1047  1  0.549800  0.198000  0.731350  1.0
  O  O1048  1  0.450200  0.802000  0.731350  1.0
  O  O1049  1  0.768650  0.698000  0.049800  1.0
  O  O1050  1  0.768650  0.302000  0.950200  1.0
  O  O1051  1  0.231350  0.698000  0.950200  1.0
  O  O1052  1  0.049800  0.768650  0.698000  1.0
  O  O1053  1  0.950200  0.768650  0.302000  1.0
  O  O1054  1  0.950200  0.231350  0.698000  1.0
  O  O1055  1  0.698000  0.049800  0.768650  1.0
  O  O1056  1  0.302000  0.950200  0.768650  1.0
  O  O1057  1  0.698000  0.950200  0.231350  1.0
  O  O1058  1  0.698000  0.768650  0.950200  1.0
  O  O1059  1  0.768650  0.950200  0.698000  1.0
  O  O1060  1  0.950200  0.698000  0.768650  1.0
  O  O1061  1  0.268650  0.198000  0.549800  1.0
  O  O1062  1  0.268650  0.802000  0.450200  1.0
  O  O1063  1  0.731350  0.198000  0.450200  1.0
  O  O1064  1  0.549800  0.268650  0.198000  1.0
  O  O1065  1  0.450200  0.268650  0.802000  1.0
  O  O1066  1  0.450200  0.731350  0.198000  1.0
  O  O1067  1  0.198000  0.549800  0.268650  1.0
  O  O1068  1  0.802000  0.450200  0.268650  1.0
  O  O1069  1  0.198000  0.450200  0.731350  1.0
  O  O1070  1  0.198000  0.268650  0.450200  1.0
  O  O1071  1  0.268650  0.450200  0.198000  1.0
  O  O1072  1  0.450200  0.198000  0.268650  1.0
  O  O1073  1  0.768650  0.698000  0.950200  1.0
  O  O1074  1  0.950200  0.768650  0.698000  1.0
  O  O1075  1  0.698000  0.950200  0.768650  1.0
  O  O1076  1  0.698000  0.768650  0.049800  1.0
  O  O1077  1  0.698000  0.231350  0.950200  1.0
  O  O1078  1  0.302000  0.768650  0.950200  1.0
  O  O1079  1  0.768650  0.950200  0.302000  1.0
  O  O1080  1  0.231350  0.950200  0.698000  1.0
  O  O1081  1  0.768650  0.049800  0.698000  1.0
  O  O1082  1  0.950200  0.698000  0.231350  1.0
  O  O1083  1  0.950200  0.302000  0.768650  1.0
  O  O1084  1  0.049800  0.698000  0.768650  1.0
  O  O1085  1  0.268650  0.198000  0.450200  1.0
  O  O1086  1  0.450200  0.268650  0.198000  1.0
  O  O1087  1  0.198000  0.450200  0.268650  1.0
  O  O1088  1  0.198000  0.268650  0.549800  1.0
  O  O1089  1  0.198000  0.731350  0.450200  1.0
  O  O1090  1  0.802000  0.268650  0.450200  1.0
  O  O1091  1  0.268650  0.450200  0.802000  1.0
  O  O1092  1  0.731350  0.450200  0.198000  1.0
  O  O1093  1  0.268650  0.549800  0.198000  1.0
  O  O1094  1  0.450200  0.198000  0.731350  1.0
  O  O1095  1  0.450200  0.802000  0.268650  1.0
  O  O1096  1  0.549800  0.198000  0.268650  1.0
  O  O1097  1  0.231350  0.302000  0.950200  1.0
  O  O1098  1  0.231350  0.698000  0.049800  1.0
  O  O1099  1  0.768650  0.302000  0.049800  1.0
  O  O1100  1  0.950200  0.231350  0.302000  1.0
  O  O1101  1  0.049800  0.231350  0.698000  1.0
  O  O1102  1  0.049800  0.768650  0.302000  1.0
  O  O1103  1  0.302000  0.950200  0.231350  1.0
  O  O1104  1  0.698000  0.049800  0.231350  1.0
  O  O1105  1  0.302000  0.049800  0.768650  1.0
  O  O1106  1  0.302000  0.231350  0.049800  1.0
  O  O1107  1  0.231350  0.049800  0.302000  1.0
  O  O1108  1  0.049800  0.302000  0.231350  1.0
  O  O1109  1  0.731350  0.802000  0.450200  1.0
  O  O1110  1  0.731350  0.198000  0.549800  1.0
  O  O1111  1  0.268650  0.802000  0.549800  1.0
  O  O1112  1  0.450200  0.731350  0.802000  1.0
  O  O1113  1  0.549800  0.731350  0.198000  1.0
  O  O1114  1  0.549800  0.268650  0.802000  1.0
  O  O1115  1  0.802000  0.450200  0.731350  1.0
  O  O1116  1  0.198000  0.549800  0.731350  1.0
  O  O1117  1  0.802000  0.549800  0.268650  1.0
  O  O1118  1  0.802000  0.731350  0.549800  1.0
  O  O1119  1  0.731350  0.549800  0.802000  1.0
  O  O1120  1  0.549800  0.802000  0.731350  1.0
  O  O1121  1  0.173810  0.244100  0.049600  1.0
  O  O1122  1  0.049600  0.173810  0.244100  1.0
  O  O1123  1  0.244100  0.049600  0.173810  1.0
  O  O1124  1  0.244100  0.173810  0.950400  1.0
  O  O1125  1  0.244100  0.826190  0.049600  1.0
  O  O1126  1  0.755900  0.173810  0.049600  1.0
  O  O1127  1  0.173810  0.049600  0.755900  1.0
  O  O1128  1  0.826190  0.049600  0.244100  1.0
  O  O1129  1  0.173810  0.950400  0.244100  1.0
  O  O1130  1  0.049600  0.244100  0.826190  1.0
  O  O1131  1  0.049600  0.755900  0.173810  1.0
  O  O1132  1  0.950400  0.244100  0.173810  1.0
  O  O1133  1  0.673810  0.744100  0.549600  1.0
  O  O1134  1  0.549600  0.673810  0.744100  1.0
  O  O1135  1  0.744100  0.549600  0.673810  1.0
  O  O1136  1  0.744100  0.673810  0.450400  1.0
  O  O1137  1  0.744100  0.326190  0.549600  1.0
  O  O1138  1  0.255900  0.673810  0.549600  1.0
  O  O1139  1  0.673810  0.549600  0.255900  1.0
  O  O1140  1  0.326190  0.549600  0.744100  1.0
  O  O1141  1  0.673810  0.450400  0.744100  1.0
  O  O1142  1  0.549600  0.744100  0.326190  1.0
  O  O1143  1  0.549600  0.255900  0.673810  1.0
  O  O1144  1  0.450400  0.744100  0.673810  1.0
  O  O1145  1  0.826190  0.755900  0.049600  1.0
  O  O1146  1  0.826190  0.244100  0.950400  1.0
  O  O1147  1  0.173810  0.755900  0.950400  1.0
  O  O1148  1  0.049600  0.826190  0.755900  1.0
  O  O1149  1  0.950400  0.826190  0.244100  1.0
  O  O1150  1  0.950400  0.173810  0.755900  1.0
  O  O1151  1  0.755900  0.049600  0.826190  1.0
  O  O1152  1  0.244100  0.950400  0.826190  1.0
  O  O1153  1  0.755900  0.950400  0.173810  1.0
  O  O1154  1  0.755900  0.826190  0.950400  1.0
  O  O1155  1  0.826190  0.950400  0.755900  1.0
  O  O1156  1  0.950400  0.755900  0.826190  1.0
  O  O1157  1  0.326190  0.255900  0.549600  1.0
  O  O1158  1  0.326190  0.744100  0.450400  1.0
  O  O1159  1  0.673810  0.255900  0.450400  1.0
  O  O1160  1  0.549600  0.326190  0.255900  1.0
  O  O1161  1  0.450400  0.326190  0.744100  1.0
  O  O1162  1  0.450400  0.673810  0.255900  1.0
  O  O1163  1  0.255900  0.549600  0.326190  1.0
  O  O1164  1  0.744100  0.450400  0.326190  1.0
  O  O1165  1  0.255900  0.450400  0.673810  1.0
  O  O1166  1  0.255900  0.326190  0.450400  1.0
  O  O1167  1  0.326190  0.450400  0.255900  1.0
  O  O1168  1  0.450400  0.255900  0.326190  1.0
  O  O1169  1  0.826190  0.755900  0.950400  1.0
  O  O1170  1  0.950400  0.826190  0.755900  1.0
  O  O1171  1  0.755900  0.950400  0.826190  1.0
  O  O1172  1  0.755900  0.826190  0.049600  1.0
  O  O1173  1  0.755900  0.173810  0.950400  1.0
  O  O1174  1  0.244100  0.826190  0.950400  1.0
  O  O1175  1  0.826190  0.950400  0.244100  1.0
  O  O1176  1  0.173810  0.950400  0.755900  1.0
  O  O1177  1  0.826190  0.049600  0.755900  1.0
  O  O1178  1  0.950400  0.755900  0.173810  1.0
  O  O1179  1  0.950400  0.244100  0.826190  1.0
  O  O1180  1  0.049600  0.755900  0.826190  1.0
  O  O1181  1  0.326190  0.255900  0.450400  1.0
  O  O1182  1  0.450400  0.326190  0.255900  1.0
  O  O1183  1  0.255900  0.450400  0.326190  1.0
  O  O1184  1  0.255900  0.326190  0.549600  1.0
  O  O1185  1  0.255900  0.673810  0.450400  1.0
  O  O1186  1  0.744100  0.326190  0.450400  1.0
  O  O1187  1  0.326190  0.450400  0.744100  1.0
  O  O1188  1  0.673810  0.450400  0.255900  1.0
  O  O1189  1  0.326190  0.549600  0.255900  1.0
  O  O1190  1  0.450400  0.255900  0.673810  1.0
  O  O1191  1  0.450400  0.744100  0.326190  1.0
  O  O1192  1  0.549600  0.255900  0.326190  1.0
  O  O1193  1  0.173810  0.244100  0.950400  1.0
  O  O1194  1  0.173810  0.755900  0.049600  1.0
  O  O1195  1  0.826190  0.244100  0.049600  1.0
  O  O1196  1  0.950400  0.173810  0.244100  1.0
  O  O1197  1  0.049600  0.173810  0.755900  1.0
  O  O1198  1  0.049600  0.826190  0.244100  1.0
  O  O1199  1  0.244100  0.950400  0.173810  1.0
  O  O1200  1  0.755900  0.049600  0.173810  1.0
  O  O1201  1  0.244100  0.049600  0.826190  1.0
  O  O1202  1  0.244100  0.173810  0.049600  1.0
  O  O1203  1  0.173810  0.049600  0.244100  1.0
  O  O1204  1  0.049600  0.244100  0.173810  1.0
  O  O1205  1  0.673810  0.744100  0.450400  1.0
  O  O1206  1  0.673810  0.255900  0.549600  1.0
  O  O1207  1  0.326190  0.744100  0.549600  1.0
  O  O1208  1  0.450400  0.673810  0.744100  1.0
  O  O1209  1  0.549600  0.673810  0.255900  1.0
  O  O1210  1  0.549600  0.326190  0.744100  1.0
  O  O1211  1  0.744100  0.450400  0.673810  1.0
  O  O1212  1  0.255900  0.549600  0.673810  1.0
  O  O1213  1  0.744100  0.549600  0.326190  1.0
  O  O1214  1  0.744100  0.673810  0.549600  1.0
  O  O1215  1  0.673810  0.549600  0.744100  1.0
  O  O1216  1  0.549600  0.744100  0.673810  1.0
