
#######################################################################
#
#                 Cambridge Crystallographic Data Centre
#                                CCDC 
#
#######################################################################
#
# If this CIF has been generated from an entry in the Cambridge 
# Structural Database, then it will include bibliographic, chemical, 
# crystal, experimental, refinement or atomic coordinate data resulting 
# from the CCDC's data processing and validation procedures.
#
#######################################################################

data_XEYBEI02
_chemical_formula_moiety         'C1 H4 O1,C216 H192 Cu24 O120'
_chemical_name_systematic        
'tetracosakis(\m~4~-benzene-1,3-dicarboxylato)-tetracosakis(methanol)-tetracosa-copper methanol clathrate'
_symmetry_cell_setting           hexagonal
_symmetry_space_group_name_H-M   'P 63/m'
_symmetry_Int_Tables_number      176
_space_group_name_Hall           '-P 6c'
loop_
_symmetry_equiv_pos_site_id
_symmetry_equiv_pos_as_xyz
1 x,y,z
2 -y,x-y,z
3 -x+y,-x,z
4 y,-x+y,1/2+z
5 x-y,x,1/2+z
6 x,y,1/2-z
7 -x,-y,-z
8 y,-x+y,-z
9 x-y,x,-z
10 -y,x-y,1/2-z
11 -x+y,-x,1/2-z
12 -x,-y,1/2+z
_cell_length_a                   28.6458(19)
_cell_length_b                   28.6458(19)
_cell_length_c                   28.165(3)
_cell_angle_alpha                90
_cell_angle_beta                 90
_cell_angle_gamma                120
_cell_volume                     20015.3
_exptl_crystal_colour            blue
_exptl_crystal_description       block
_cell_formula_units_Z            2
loop_
_atom_site_label
_atom_site_type_symbol
_atom_site_fract_x
_atom_site_fract_y
_atom_site_fract_z
Cu1 Cu 0.90536(13) 0.26077(12) 0.7500
Cu2 Cu 0.98615(13) 0.24289(13) 0.7500
Cu3 Cu 0.60610(14) 0.02895(14) 0.7500
Cu4 Cu 0.58075(14) -0.07226(14) 0.7500
Cu5 Cu 0.72814(11) 0.21093(11) 0.51972(8)
Cu6 Cu 0.74739(11) 0.17103(12) 0.44387(9)
O1 O 0.9777(7) 0.2413(6) 0.6808(6)
O2 O 0.9091(6) 0.2570(6) 0.6815(6)
O3 O 0.7970(6) 0.2204(6) 0.5423(5)
O4 O 0.8128(6) 0.1834(6) 0.4773(5)
O6 O 0.8630(7) 0.1822(8) 0.7500
O7 O 0.9322(9) 0.1660(8) 0.7500
O8 O 0.6797(8) 0.0399(8) 0.7500
O9 O 0.6583(9) -0.0460(9) 0.7500
O10 O 1.0537(9) 0.2281(9) 0.7500
O11 O 0.9597(8) 0.3374(7) 0.7500
O12 O 1.0284(7) 0.3202(8) 0.7500
O13 O 0.5268(8) -0.0003(9) 0.7500
O14 O 0.5071(7) -0.0864(8) 0.7500
O15 O 0.6310(12) 0.1150(14) 0.7500
O16 O 0.6070(6) 0.0235(7) 0.6807(5)
O17 O 0.5858(7) -0.0630(7) 0.6804(6)
O18 O 0.6913(7) 0.1368(7) 0.5429(5)
O19 O 0.7046(8) 0.1008(7) 0.4774(6)
O20 O 0.5599(9) -0.1570(11) 0.7500
O21 O 0.6624(6) 0.1968(6) 0.4858(5)
O22 O 0.6806(7) 0.1655(7) 0.4199(6)
O23 O 0.7647(6) 0.2789(6) 0.4865(5)
O24 O 0.7854(6) 0.2455(7) 0.4222(5)
O25 O 0.7103(10) 0.2426(10) 0.5837(7)
O26 O 0.7646(8) 0.1386(9) 0.3812(6)
C1 C 0.8820(14) 0.1510(11) 0.7500
C2 C 0.8439(12) 0.0922(12) 0.7500
C3 C 0.7890(12) 0.0747(13) 0.7500
H1 H 0.7778 0.1008 0.7500
C4 C 0.7492(14) 0.0192(13) 0.7500
C5 C 0.7686(18) -0.0176(17) 0.7500
H2 H 0.7433 -0.0551 0.7500
C6 C 0.8222(17) -0.0012(18) 0.7500
H3 H 0.8340 -0.0269 0.7500
C7 C 0.8597(16) 0.0539(16) 0.7500
C8 C 0.6902(14) 0.0031(13) 0.7500
C9 C 0.9399(11) 0.2450(9) 0.6612(10)
C10 C 0.9336(12) 0.2330(10) 0.6086(11)
C11 C 0.8866(9) 0.2283(9) 0.5880(8)
H4 H 0.8626 0.2348 0.6064
C12 C 0.8753(12) 0.2134(10) 0.5382(9)
C13 C 0.9132(17) 0.2070(15) 0.5137(13)
H5 H 0.9084 0.2004 0.4806
C14 C 0.957(2) 0.2097(17) 0.5345(14)
H6 H 0.9809 0.2021 0.5165
C15 C 0.9675(16) 0.2234(14) 0.5818(16)
H7 H 0.9989 0.2261 0.5961
C16 C 0.8237(10) 0.2044(10) 0.5186(9)
C17 C 1.0094(14) 0.3510(11) 0.7500
C18 C 1.0483(11) 0.4109(10) 0.7500
C19 C 1.0302(10) 0.4485(11) 0.7500
H8 H 0.9927 0.4365 0.7500
C20 C 1.0678(12) 0.5033(12) 0.7500
C21 C 1.1220(14) 0.5202(15) 0.7500
H9 H 1.1476 0.5576 0.7500
C22 C 1.1393(13) 0.4839(13) 0.7500
H10 H 1.1768 0.4962 0.7500
C23 C 1.1035(11) 0.4304(13) 0.7500
H11 H 1.1165 0.4056 0.7500
C24 C 0.4951(12) -0.0498(14) 0.7500
C25 C 0.6020(10) -0.0187(11) 0.6606(9)
C26 C 0.6136(11) -0.0120(11) 0.6078(9)
C27 C 0.6406(9) 0.0376(10) 0.5874(8)
H12 H 0.6507 0.0688 0.6061
C28 C 0.6535(11) 0.0429(11) 0.5400(10)
C29 C 0.6411(14) -0.0001(15) 0.5119(11)
H13 H 0.6514 0.0038 0.4794
C30 C 0.612(2) -0.050(2) 0.5333(14)
H14 H 0.6025 -0.0812 0.5145
C31 C 0.5976(14) -0.0569(14) 0.5794(11)
H15 H 0.5765 -0.0921 0.5922
C32 C 0.6858(11) 0.0973(11) 0.5184(10)
C33 C 0.6530(11) 0.1800(11) 0.4443(10)
C34 C 0.6040(11) 0.1761(10) 0.4212(9)
C35 C 0.5757(10) 0.1952(9) 0.4434(8)
H16 H 0.5857 0.2102 0.4743
C36 C 0.5313(10) 0.1929(9) 0.4205(8)
C37 C 0.5170(14) 0.1720(10) 0.3762(10)
H17 H 0.4861 0.1698 0.3615
C38 C 0.5474(15) 0.1540(12) 0.3523(12)
H18 H 0.5382 0.1405 0.3208
C39 C 0.5883(12) 0.1557(11) 0.3735(9)
H19 H 0.6087 0.1430 0.3571
C40 C 0.7838(9) 0.2823(10) 0.4444(9)
C41 C 0.729(2) 0.087(3) 0.3644(16)
C55 C 1.101(4) 0.268(4) 0.7500
C65 C 0.735(4) 0.280(4) 0.606(4)
C76 C 0.517(5) -0.203(5) 0.7500
O2E O 0.9091(6) 0.2570(6) 0.8185(6)
C9E C 0.9399(11) 0.2450(9) 0.8388(10)
O1E O 0.9777(7) 0.2413(6) 0.8192(6)
C24A C 1.0498(14) 0.5449(18) 0.7500
O13A O 1.0003(9) 0.5271(12) 0.7500
Cu3A Cu 0.97105(14) 0.57715(20) 0.7500
Cu4A Cu 1.07226(14) 0.65301(20) 0.7500
O9A O 1.0460(9) 0.7043(13) 0.7500
C8A C 0.9969(13) 0.6871(19) 0.7500
O8A O 0.9601(8) 0.6398(11) 0.7500
O15A O 0.8850(14) 0.5160(18) 0.7500
O16A O 0.9765(7) 0.5835(9) 0.6807(5)
C25A C 1.0187(11) 0.6207(15) 0.6606(9)
O17A O 1.0630(7) 0.6488(10) 0.6804(6)
O14A O 1.0864(8) 0.5935(11) 0.7500
O17I O 1.0630(7) 0.6488(10) 0.8196(6)
C25I C 1.0187(11) 0.6207(15) 0.8394(9)
O16I O 0.9765(7) 0.5835(9) 0.8193(5)
C26I C 1.0120(11) 0.6256(16) 0.8922(9)
C27I C 0.9624(10) 0.6030(13) 0.9126(8)
H12I H 0.9312 0.5819 0.8939
C28I C 0.9571(11) 0.6106(16) 0.9600(10)
C29I C 1.0001(15) 0.6412(21) 0.9881(11)
H13I H 0.9962 0.6476 1.0206
C30I C 1.050(2) 0.662(3) 0.9667(14)
H14I H 1.0812 0.6837 0.9855
C31I C 1.0569(14) 0.6545(20) 0.9206(11)
H15I H 1.0921 0.6686 0.9078
C32I C 0.9027(11) 0.5885(16) 0.9816(10)
O18I O 0.8632(7) 0.5545(10) 0.9571(5)
Cu5I Cu 0.78907(11) 0.51721(16) 0.98028(8)
Cu6I Cu 0.82897(12) 0.57636(16) 1.05613(9)
O4I O 0.8166(6) 0.6294(8) 1.0227(5)
C16I C 0.7956(10) 0.6193(14) 0.9814(9)
O3I O 0.7796(6) 0.5766(8) 0.9577(5)
O21I O 0.8032(6) 0.4656(8) 1.0142(5)
C33I C 0.8200(11) 0.4730(16) 1.0557(10)
O22I O 0.8345(7) 0.5151(10) 1.0801(6)
O19I O 0.8992(7) 0.6038(11) 1.0226(6)
O24I O 0.7545(7) 0.5399(9) 1.0778(5)
C40I C 0.7177(10) 0.5015(13) 1.0556(9)
O23I O 0.7211(6) 0.4858(8) 1.0135(5)
O25I O 0.7574(10) 0.4677(14) 0.9163(7)
C65I C 0.720(4) 0.455(6) 0.894(4)
C36J C 0.6616(13) 0.4687(10) 1.0795(8)
C35J C 0.6195(13) 0.4243(10) 1.0566(8)
C34J C 0.5721(15) 0.3960(11) 1.0788(9)
C33J C 0.5270(16) 0.3470(11) 1.0557(10)
O21J O 0.5344(8) 0.3376(6) 1.0142(5)
Cu5J Cu 0.48279(16) 0.27186(11) 0.98028(8)
Cu6J Cu 0.42364(16) 0.25261(11) 1.05613(9)
O4J O 0.3706(8) 0.1872(6) 1.0227(5)
C16J C 0.3807(14) 0.1763(10) 0.9814(9)
O3J O 0.4234(8) 0.2030(6) 0.9577(5)
O18J O 0.4455(10) 0.3087(7) 0.9571(5)
C32J C 0.4115(16) 0.3142(11) 0.9816(10)
O19J O 0.3962(11) 0.2954(8) 1.0226(6)
O22J O 0.4849(10) 0.3194(7) 1.0801(6)
O24J O 0.4601(9) 0.2146(6) 1.0778(5)
C40J C 0.4985(13) 0.2162(9) 1.0556(9)
O23J O 0.5142(8) 0.2353(6) 1.0135(5)
O25J O 0.5323(14) 0.2897(10) 0.9163(7)
C65J C 0.545(6) 0.265(4) 0.894(4)
C36E C 0.5313(10) 0.1929(9) 1.0795(8)
C35E C 0.5757(10) 0.1952(9) 1.0566(8)
C34E C 0.6040(11) 0.1761(10) 1.0788(9)
C33E C 0.6530(11) 0.1800(11) 1.0557(10)
O21E O 0.6624(6) 0.1968(6) 1.0142(5)
Cu5E Cu 0.72814(11) 0.21093(11) 0.98028(8)
Cu6E Cu 0.74739(11) 0.17103(12) 1.05613(9)
O4E O 0.8128(6) 0.1834(6) 1.0227(5)
C16E C 0.8237(10) 0.2044(10) 0.9814(9)
O3E O 0.7970(6) 0.2204(6) 0.9577(5)
O18E O 0.6913(7) 0.1368(7) 0.9571(5)
C32E C 0.6858(11) 0.0973(11) 0.9816(10)
O19E O 0.7046(8) 0.1008(7) 1.0226(6)
O22E O 0.6806(7) 0.1655(7) 1.0801(6)
O24E O 0.7854(6) 0.2455(7) 1.0778(5)
C40E C 0.7838(9) 0.2823(10) 1.0556(9)
O23E O 0.7647(6) 0.2789(6) 1.0135(5)
O25E O 0.7103(10) 0.2426(10) 0.9163(7)
C65E C 0.735(4) 0.280(4) 0.894(4)
C36I C 0.8071(9) 0.3384(13) 1.0795(8)
C35I C 0.8048(9) 0.3805(13) 1.0566(8)
C34I C 0.8239(10) 0.4279(15) 1.0788(9)
C39I C 0.8443(11) 0.4326(16) 1.1265(9)
C38I C 0.8460(12) 0.3934(19) 1.1477(12)
C37I C 0.8280(10) 0.3450(17) 1.1238(10)
H17I H 0.8302 0.3163 1.1385
H18I H 0.8595 0.3977 1.1792
H19I H 0.8570 0.4657 1.1429
H16I H 0.7898 0.3755 1.0257
O26E O 0.7646(8) 0.1386(9) 1.1188(6)
C41E C 0.729(2) 0.087(3) 1.1356(16)
C28E C 0.6535(11) 0.0429(11) 0.9600(10)
C27E C 0.6406(9) 0.0376(10) 0.9126(8)
C26E C 0.6136(11) -0.0120(11) 0.8922(9)
C25E C 0.6020(10) -0.0187(11) 0.8394(9)
O16E O 0.6070(6) 0.0235(7) 0.8193(5)
C36A C 0.8071(9) 0.3384(13) 0.4205(8)
C35A C 0.8048(9) 0.3805(13) 0.4434(8)
C34A C 0.8239(10) 0.4279(15) 0.4212(9)
C33A C 0.8200(11) 0.4730(16) 0.4443(10)
O21A O 0.8032(6) 0.4656(8) 0.4858(5)
Cu5A Cu 0.78907(11) 0.51721(16) 0.51972(8)
Cu6A Cu 0.82897(12) 0.57636(16) 0.44387(9)
O4A O 0.8166(6) 0.6294(8) 0.4773(5)
C16A C 0.7956(10) 0.6193(14) 0.5186(9)
O3A O 0.7796(6) 0.5766(8) 0.5423(5)
O18A O 0.8632(7) 0.5545(10) 0.5429(5)
C32A C 0.9027(11) 0.5885(16) 0.5184(10)
O19A O 0.8992(7) 0.6038(11) 0.4774(6)
O22A O 0.8345(7) 0.5151(10) 0.4199(6)
O24A O 0.7545(7) 0.5399(9) 0.4222(5)
C40A C 0.7177(10) 0.5015(13) 0.4444(9)
O23A O 0.7211(6) 0.4858(8) 0.4865(5)
O25A O 0.7574(10) 0.4677(14) 0.5837(7)
C65A C 0.720(4) 0.455(6) 0.606(4)
C36B C 0.6616(13) 0.4687(10) 0.4205(8)
C35B C 0.6195(13) 0.4243(10) 0.4434(8)
C34B C 0.5721(15) 0.3960(11) 0.4212(9)
C33B C 0.5270(16) 0.3470(11) 0.4443(10)
O21B O 0.5344(8) 0.3376(6) 0.4858(5)
Cu5B Cu 0.48279(16) 0.27186(11) 0.51972(8)
Cu6B Cu 0.42364(16) 0.25261(11) 0.44387(9)
O4B O 0.3706(8) 0.1872(6) 0.4773(5)
C16B C 0.3807(14) 0.1763(10) 0.5186(9)
O3B O 0.4234(8) 0.2030(6) 0.5423(5)
O18B O 0.4455(10) 0.3087(7) 0.5429(5)
C32B C 0.4115(16) 0.3142(11) 0.5184(10)
O19B O 0.3962(11) 0.2954(8) 0.4774(6)
O22B O 0.4849(10) 0.3194(7) 0.4199(6)
O24B O 0.4601(9) 0.2146(6) 0.4222(5)
C40B C 0.4985(13) 0.2162(9) 0.4444(9)
O23B O 0.5142(8) 0.2353(6) 0.4865(5)
O25B O 0.5323(14) 0.2897(10) 0.5837(7)
C65B C 0.545(6) 0.265(4) 0.606(4)
O26B O 0.3740(12) 0.2354(8) 0.3812(6)
C41B C 0.358(4) 0.271(2) 0.3644(16)
C28B C 0.3894(16) 0.3465(11) 0.5400(10)
C27B C 0.3970(13) 0.3594(9) 0.5874(8)
C26B C 0.3744(16) 0.3864(11) 0.6078(9)
C25B C 0.3793(15) 0.3980(10) 0.6606(9)
O16B O 0.4165(9) 0.3930(6) 0.6807(5)
Cu3B Cu 0.42285(20) 0.39390(14) 0.7500
Cu4B Cu 0.34699(20) 0.41925(14) 0.7500
O9B O 0.2957(13) 0.3417(9) 0.7500
C8B C 0.3129(19) 0.3098(14) 0.7500
O8B O 0.3602(11) 0.3203(8) 0.7500
O13B O 0.4729(12) 0.4732(8) 0.7500
C24B C 0.4551(18) 0.5049(12) 0.7500
O14B O 0.4065(11) 0.4929(7) 0.7500
O17B O 0.3512(10) 0.4142(7) 0.6804(6)
O17J O 0.3512(10) 0.4142(7) 0.8196(6)
C25J C 0.3793(15) 0.3980(10) 0.8394(9)
O16J O 0.4165(9) 0.3930(6) 0.8193(5)
O15B O 0.4840(18) 0.3690(12) 0.7500
C26J C 0.3744(16) 0.3864(11) 0.8922(9)
C27J C 0.3970(13) 0.3594(9) 0.9126(8)
H12J H 0.4181 0.3493 0.8939
C28J C 0.3894(16) 0.3465(11) 0.9600(10)
C29J C 0.3588(21) 0.3589(14) 0.9881(11)
H13J H 0.3524 0.3486 1.0206
C30J C 0.338(3) 0.388(2) 0.9667(14)
H14J H 0.3163 0.3975 0.9855
C31J C 0.3455(20) 0.4024(14) 0.9206(11)
H15J H 0.3314 0.4235 0.9078
O20B O 0.2831(14) 0.4401(9) 0.7500
C76B C 0.280(7) 0.483(5) 0.7500
C20A C 0.4967(12) 0.5645(17) 0.7500
C19A C 0.5515(11) 0.5817(15) 0.7500
C18A C 0.5891(10) 0.6374(15) 0.7500
C17A C 0.6490(11) 0.6584(18) 0.7500
O11A O 0.6626(7) 0.6223(11) 0.7500
Cu1A Cu 0.73923(12) 0.64459(18) 0.7500
Cu2A Cu 0.75711(13) 0.74326(18) 0.7500
O1A O 0.7587(6) 0.7364(9) 0.6808(6)
C9A C 0.7550(9) 0.6949(14) 0.6612(10)
O2A O 0.7430(6) 0.6521(8) 0.6815(6)
O2I O 0.7430(6) 0.6521(8) 0.8185(6)
C9I C 0.7550(9) 0.6949(14) 0.8388(10)
O1I O 0.7587(6) 0.7364(9) 0.8192(6)
O7A O 0.8340(8) 0.7662(12) 0.7500
C1A C 0.8490(11) 0.7310(18) 0.7500
O6A O 0.8178(8) 0.6808(11) 0.7500
C2A C 0.9078(12) 0.7517(17) 0.7500
C3A C 0.9253(13) 0.7143(18) 0.7500
H1A H 0.8992 0.6770 0.7500
C4A C 0.9808(13) 0.7300(19) 0.7500
C5A C 1.0176(17) 0.7862(25) 0.7500
H2A H 1.0551 0.7984 0.7500
C6A C 1.0012(18) 0.8234(25) 0.7500
H3A H 1.0269 0.8609 0.7500
C7A C 0.9461(16) 0.8058(23) 0.7500
O10A O 0.7719(9) 0.8256(13) 0.7500
C55A C 0.732(4) 0.833(6) 0.7500
O12A O 0.6798(8) 0.7082(11) 0.7500
C10I C 0.7670(10) 0.7006(16) 0.8914(11)
C11I C 0.7717(9) 0.6583(13) 0.9120(8)
H4I H 0.7652 0.6278 0.8936
C12I C 0.7866(10) 0.6619(16) 0.9618(9)
C13I C 0.7930(15) 0.7062(23) 0.9863(13)
H5I H 0.7996 0.7080 1.0194
C14I C 0.7903(17) 0.7473(26) 0.9655(14)
H6I H 0.7979 0.7788 0.9835
C15I C 0.7766(14) 0.7441(21) 0.9182(16)
H7I H 0.7739 0.7728 0.9039
C10A C 0.7670(10) 0.7006(16) 0.6086(11)
C11A C 0.7717(9) 0.6583(13) 0.5880(8)
H4A H 0.7652 0.6278 0.6064
C12A C 0.7866(10) 0.6619(16) 0.5382(9)
C13A C 0.7930(15) 0.7062(23) 0.5137(13)
H5A H 0.7996 0.7080 0.4806
C14A C 0.7903(17) 0.7473(26) 0.5345(14)
H6A H 0.7979 0.7788 0.5165
C15A C 0.7766(14) 0.7441(21) 0.5818(16)
H7A H 0.7739 0.7728 0.5961
C23A C 0.5696(13) 0.6731(17) 0.7500
C22A C 0.5161(13) 0.6554(18) 0.7500
C21A C 0.4798(15) 0.6018(21) 0.7500
H9A H 0.4424 0.5900 0.7500
H10A H 0.5038 0.6806 0.7500
H11A H 0.5944 0.7109 0.7500
H8A H 0.5635 0.5562 0.7500
C4B C 0.2700(19) 0.2508(14) 0.7500
C3B C 0.2857(18) 0.2110(12) 0.7500
C2B C 0.2483(17) 0.1561(12) 0.7500
C1B C 0.2690(18) 0.1180(14) 0.7500
O6B O 0.3192(11) 0.1370(7) 0.7500
Cu1B Cu 0.35541(18) 0.09464(13) 0.7500
Cu2B Cu 0.25674(18) 0.01385(13) 0.7500
O1B O 0.2636(9) 0.0223(7) 0.6808(6)
C9B C 0.3051(14) 0.0601(11) 0.6612(10)
O2B O 0.3479(8) 0.0909(6) 0.6815(6)
O2J O 0.3479(8) 0.0909(6) 0.8185(6)
C9J C 0.3051(14) 0.0601(11) 0.8388(10)
O1J O 0.2636(9) 0.0223(7) 0.8192(6)
O7B O 0.2338(12) 0.0678(9) 0.7500
O10B O 0.1744(13) -0.0537(9) 0.7500
C55B C 0.167(6) -0.101(4) 0.7500
O12B O 0.2918(11) -0.0284(7) 0.7500
C17B C 0.3416(18) -0.0094(14) 0.7500
O11B O 0.3777(11) 0.0403(8) 0.7500
C18B C 0.3626(15) -0.0483(11) 0.7500
C19B C 0.4183(15) -0.0302(10) 0.7500
H8B H 0.4438 0.0073 0.7500
C20B C 0.4355(17) -0.0678(12) 0.7500
C21B C 0.3982(21) -0.1220(14) 0.7500
H9B H 0.4100 -0.1476 0.7500
C22B C 0.3446(18) -0.1393(13) 0.7500
H10B H 0.3194 -0.1768 0.7500
C23B C 0.3269(17) -0.1035(11) 0.7500
H11B H 0.2891 -0.1165 0.7500
C10J C 0.2994(16) 0.0664(12) 0.8914(11)
C11J C 0.3417(13) 0.1134(9) 0.9120(8)
H4J H 0.3722 0.1374 0.8936
C12J C 0.3381(16) 0.1247(12) 0.9618(9)
C13J C 0.2938(23) 0.0868(17) 0.9863(13)
H5J H 0.2920 0.0916 1.0194
C14J C 0.2527(26) 0.043(2) 0.9655(14)
H6J H 0.2212 0.0191 0.9835
C15J C 0.2559(21) 0.0325(16) 0.9182(16)
H7J H 0.2272 0.0011 0.9039
C10B C 0.2994(16) 0.0664(12) 0.6086(11)
C11B C 0.3417(13) 0.1134(9) 0.5880(8)
H4B H 0.3722 0.1374 0.6064
C12B C 0.3381(16) 0.1247(12) 0.5382(9)
C13B C 0.2938(23) 0.0868(17) 0.5137(13)
H5B H 0.2920 0.0916 0.4806
C14B C 0.2527(26) 0.043(2) 0.5345(14)
H6B H 0.2212 0.0191 0.5165
C15B C 0.2559(21) 0.0325(16) 0.5818(16)
H7B H 0.2272 0.0011 0.5961
C7B C 0.1942(23) 0.1403(16) 0.7500
C6B C 0.1766(25) 0.1778(17) 0.7500
C5B C 0.2138(25) 0.2314(18) 0.7500
H2B H 0.2016 0.2567 0.7500
H3B H 0.1391 0.1660 0.7500
H1B H 0.3230 0.2222 0.7500
C31B C 0.3455(20) 0.4024(14) 0.5794(11)
C30B C 0.338(3) 0.388(2) 0.5333(14)
C29B C 0.3588(21) 0.3589(14) 0.5119(11)
H13B H 0.3524 0.3486 0.4794
H14B H 0.3163 0.3975 0.5145
H15B H 0.3314 0.4235 0.5922
H12B H 0.4181 0.3493 0.6061
C39B C 0.5674(16) 0.4117(12) 0.3735(9)
C38B C 0.6066(19) 0.4526(15) 0.3523(12)
C37B C 0.6550(17) 0.4830(14) 0.3762(10)
H17B H 0.6837 0.5139 0.3615
H18B H 0.6023 0.4618 0.3208
H19B H 0.5343 0.3913 0.3571
H16B H 0.6245 0.4143 0.4743
O26A O 0.8614(9) 0.6260(12) 0.3812(6)
C41A C 0.913(3) 0.642(4) 0.3644(16)
C28A C 0.9571(11) 0.6106(16) 0.5400(10)
C27A C 0.9624(10) 0.6030(13) 0.5874(8)
C26A C 1.0120(11) 0.6256(16) 0.6078(9)
C31A C 1.0569(14) 0.6545(20) 0.5794(11)
C30A C 1.050(2) 0.662(3) 0.5333(14)
C29A C 1.0001(15) 0.6412(21) 0.5119(11)
H13A H 0.9962 0.6476 0.4794
H14A H 1.0812 0.6837 0.5145
H15A H 1.0921 0.6686 0.5922
H12A H 0.9312 0.5819 0.6061
C39A C 0.8443(11) 0.4326(16) 0.3735(9)
C38A C 0.8460(12) 0.3934(19) 0.3523(12)
C37A C 0.8280(10) 0.3450(17) 0.3762(10)
H17A H 0.8302 0.3163 0.3615
H18A H 0.8595 0.3977 0.3208
H19A H 0.8570 0.4657 0.3571
H16A H 0.7898 0.3755 0.4743
O17E O 0.5858(7) -0.0630(7) 0.8196(6)
C31E C 0.5976(14) -0.0569(14) 0.9206(11)
C30E C 0.612(2) -0.050(2) 0.9667(14)
C29E C 0.6411(14) -0.0001(15) 0.9881(11)
H13E H 0.6514 0.0038 1.0206
H14E H 0.6025 -0.0812 0.9855
H15E H 0.5765 -0.0921 0.9078
H12E H 0.6507 0.0688 0.8939
C12E C 0.8753(12) 0.2134(10) 0.9618(9)
C11E C 0.8866(9) 0.2283(9) 0.9120(8)
C10E C 0.9336(12) 0.2330(10) 0.8914(11)
C15E C 0.9675(16) 0.2234(14) 0.9182(16)
C14E C 0.957(2) 0.2097(17) 0.9655(14)
C13E C 0.9132(17) 0.2070(15) 0.9863(13)
H5E H 0.9084 0.2004 1.0194
H6E H 0.9809 0.2021 0.9835
H7E H 0.9989 0.2261 0.9039
H4E H 0.8626 0.2348 0.8936
C39E C 0.5883(12) 0.1557(11) 1.1265(9)
C38E C 0.5474(15) 0.1540(12) 1.1477(12)
C37E C 0.5170(14) 0.1720(10) 1.1238(10)
H17E H 0.4861 0.1698 1.1385
H18E H 0.5382 0.1405 1.1792
H19E H 0.6087 0.1430 1.1429
H16E H 0.5857 0.2102 1.0257
O26J O 0.3740(12) 0.2354(8) 1.1188(6)
C41J C 0.358(4) 0.271(2) 1.1356(16)
C39J C 0.5674(16) 0.4117(12) 1.1265(9)
C38J C 0.6066(19) 0.4526(15) 1.1477(12)
C37J C 0.6550(17) 0.4830(14) 1.1238(10)
H17J H 0.6837 0.5139 1.1385
H18J H 0.6023 0.4618 1.1792
H19J H 0.5343 0.3913 1.1429
H16J H 0.6245 0.4143 1.0257
O26I O 0.8614(9) 0.6260(12) 1.1188(6)
C41I C 0.913(3) 0.642(4) 1.1356(16)
O20A O 1.1570(11) 0.7169(14) 0.7500
C76A C 1.203(5) 0.720(7) 0.7500
loop_
_geom_bond_atom_site_label_1
_geom_bond_atom_site_label_2
_geom_bond_site_symmetry_1
_geom_bond_site_symmetry_2
Cu1 Cu2 1_555 1_555
Cu2 O1 1_555 1_555
Cu3 Cu4 1_555 1_555
Cu4 O9 1_555 1_555
Cu5 Cu6 1_555 1_555
Cu6 O4 1_555 1_555
O1 C9 1_555 1_555
O2 Cu1 1_555 1_555
O3 Cu5 1_555 1_555
O4 C16 1_555 1_555
O6 Cu1 1_555 1_555
O7 Cu2 1_555 1_555
O8 Cu3 1_555 1_555
O9 C8 1_555 1_555
O10 Cu2 1_555 1_555
O11 Cu1 1_555 1_555
O12 Cu2 1_555 1_555
O13 Cu3 1_555 1_555
O14 Cu4 1_555 1_555
O15 Cu3 1_555 1_555
O16 Cu3 1_555 1_555
O17 Cu4 1_555 1_555
O18 Cu5 1_555 1_555
O19 Cu6 1_555 1_555
O20 Cu4 1_555 1_555
O21 Cu5 1_555 1_555
O22 Cu6 1_555 1_555
O23 Cu5 1_555 1_555
O24 Cu6 1_555 1_555
O25 Cu5 1_555 1_555
O26 Cu6 1_555 1_555
C1 O6 1_555 1_555
C2 C1 1_555 1_555
C3 C2 1_555 1_555
H1 C3 1_555 1_555
C4 C3 1_555 1_555
C5 C4 1_555 1_555
H2 C5 1_555 1_555
C6 C5 1_555 1_555
H3 C6 1_555 1_555
C7 C2 1_555 1_555
C8 O8 1_555 1_555
C9 O2 1_555 1_555
C10 C9 1_555 1_555
C11 C10 1_555 1_555
H4 C11 1_555 1_555
C12 C11 1_555 1_555
C13 C12 1_555 1_555
H5 C13 1_555 1_555
C14 C13 1_555 1_555
H6 C14 1_555 1_555
C15 C10 1_555 1_555
H7 C15 1_555 1_555
C16 O3 1_555 1_555
C17 O11 1_555 1_555
C18 C17 1_555 1_555
C19 C18 1_555 1_555
H8 C19 1_555 1_555
C20 C19 1_555 1_555
C21 C20 1_555 1_555
H9 C21 1_555 1_555
C22 C21 1_555 1_555
H10 C22 1_555 1_555
C23 C18 1_555 1_555
H11 C23 1_555 1_555
C24 O13 1_555 1_555
C25 O16 1_555 1_555
C26 C25 1_555 1_555
C27 C26 1_555 1_555
H12 C27 1_555 1_555
C28 C27 1_555 1_555
C29 C28 1_555 1_555
H13 C29 1_555 1_555
C30 C29 1_555 1_555
H14 C30 1_555 1_555
C31 C26 1_555 1_555
H15 C31 1_555 1_555
C32 O18 1_555 1_555
C33 O21 1_555 1_555
C34 C33 1_555 1_555
C35 C34 1_555 1_555
H16 C35 1_555 1_555
C36 C35 1_555 1_555
C37 C36 1_555 1_555
H17 C37 1_555 1_555
C38 C37 1_555 1_555
H18 C38 1_555 1_555
C39 C34 1_555 1_555
H19 C39 1_555 1_555
C40 O23 1_555 1_555
C41 O26 1_555 1_555
C55 O10 1_555 1_555
C65 O25 1_555 1_555
C76 O20 1_555 1_555
O2E Cu1 1_555 1_555
C9E O2E 1_555 1_555
O1E Cu2 1_555 1_555
C24A C20 1_555 1_555
O13A C24A 1_555 1_555
Cu3A O13A 1_555 1_555
Cu4A Cu3A 1_555 1_555
O9A Cu4A 1_555 1_555
C8A O9A 1_555 1_555
O8A Cu3A 1_555 1_555
O15A Cu3A 1_555 1_555
O16A Cu3A 1_555 1_555
C25A O16A 1_555 1_555
O17A Cu4A 1_555 1_555
O14A C24A 1_555 1_555
O17I Cu4A 1_555 1_555
C25I O17I 1_555 1_555
O16I Cu3A 1_555 1_555
C26I C25I 1_555 1_555
C27I C26I 1_555 1_555
H12I C27I 1_555 1_555
C28I C27I 1_555 1_555
C29I C28I 1_555 1_555
H13I C29I 1_555 1_555
C30I C29I 1_555 1_555
H14I C30I 1_555 1_555
C31I C26I 1_555 1_555
H15I C31I 1_555 1_555
C32I C28I 1_555 1_555
O18I C32I 1_555 1_555
Cu5I O18I 1_555 1_555
Cu6I Cu5I 1_555 1_555
O4I Cu6I 1_555 1_555
C16I O4I 1_555 1_555
O3I Cu5I 1_555 1_555
O21I Cu5I 1_555 1_555
C33I O21I 1_555 1_555
O22I Cu6I 1_555 1_555
O19I C32I 1_555 1_555
O24I Cu6I 1_555 1_555
C40I O24I 1_555 1_555
O23I Cu5I 1_555 1_555
O25I Cu5I 1_555 1_555
C65I O25I 1_555 1_555
C36J C40I 1_555 1_555
C35J C36J 1_555 1_555
C34J C35J 1_555 1_555
C33J C34J 1_555 1_555
O21J C33J 1_555 1_555
Cu5J O21J 1_555 1_555
Cu6J Cu5J 1_555 1_555
O4J Cu6J 1_555 1_555
C16J O4J 1_555 1_555
O3J Cu5J 1_555 1_555
O18J Cu5J 1_555 1_555
C32J O18J 1_555 1_555
O19J Cu6J 1_555 1_555
O22J C33J 1_555 1_555
O24J Cu6J 1_555 1_555
C40J O24J 1_555 1_555
O23J Cu5J 1_555 1_555
O25J Cu5J 1_555 1_555
C65J O25J 1_555 1_555
C36E C40J 1_555 1_555
C35E C36E 1_555 1_555
C34E C35E 1_555 1_555
C33E C34E 1_555 1_555
O21E C33E 1_555 1_555
Cu5E O21E 1_555 1_555
Cu6E Cu5E 1_555 1_555
O4E Cu6E 1_555 1_555
C16E O4E 1_555 1_555
O3E Cu5E 1_555 1_555
O18E Cu5E 1_555 1_555
C32E O18E 1_555 1_555
O19E Cu6E 1_555 1_555
O22E C33E 1_555 1_555
O24E Cu6E 1_555 1_555
C40E O24E 1_555 1_555
O23E Cu5E 1_555 1_555
O25E Cu5E 1_555 1_555
C65E O25E 1_555 1_555
C36I C40E 1_555 1_555
C35I C36I 1_555 1_555
C34I C33I 1_555 1_555
C39I C34I 1_555 1_555
C38I C39I 1_555 1_555
C37I C36I 1_555 1_555
H17I C37I 1_555 1_555
H18I C38I 1_555 1_555
H19I C39I 1_555 1_555
H16I C35I 1_555 1_555
O26E Cu6E 1_555 1_555
C41E O26E 1_555 1_555
C28E C32E 1_555 1_555
C27E C28E 1_555 1_555
C26E C27E 1_555 1_555
C25E C26E 1_555 1_555
O16E Cu3 1_555 1_555
C36A C40 1_555 1_555
C35A C36A 1_555 1_555
C34A C35A 1_555 1_555
C33A C34A 1_555 1_555
O21A C33A 1_555 1_555
Cu5A O21A 1_555 1_555
Cu6A Cu5A 1_555 1_555
O4A Cu6A 1_555 1_555
C16A O4A 1_555 1_555
O3A Cu5A 1_555 1_555
O18A Cu5A 1_555 1_555
C32A O18A 1_555 1_555
O19A Cu6A 1_555 1_555
O22A C33A 1_555 1_555
O24A Cu6A 1_555 1_555
C40A O24A 1_555 1_555
O23A Cu5A 1_555 1_555
O25A Cu5A 1_555 1_555
C65A O25A 1_555 1_555
C36B C40A 1_555 1_555
C35B C36B 1_555 1_555
C34B C35B 1_555 1_555
C33B C34B 1_555 1_555
O21B C33B 1_555 1_555
Cu5B O21B 1_555 1_555
Cu6B Cu5B 1_555 1_555
O4B Cu6B 1_555 1_555
C16B O4B 1_555 1_555
O3B Cu5B 1_555 1_555
O18B Cu5B 1_555 1_555
C32B O18B 1_555 1_555
O19B Cu6B 1_555 1_555
O22B C33B 1_555 1_555
O24B Cu6B 1_555 1_555
C40B C36 1_555 1_555
O23B Cu5B 1_555 1_555
O25B Cu5B 1_555 1_555
C65B O25B 1_555 1_555
O26B Cu6B 1_555 1_555
C41B O26B 1_555 1_555
C28B C32B 1_555 1_555
C27B C28B 1_555 1_555
C26B C27B 1_555 1_555
C25B C26B 1_555 1_555
O16B C25B 1_555 1_555
Cu3B O16B 1_555 1_555
Cu4B Cu3B 1_555 1_555
O9B Cu4B 1_555 1_555
C8B O9B 1_555 1_555
O8B Cu3B 1_555 1_555
O13B Cu3B 1_555 1_555
C24B O13B 1_555 1_555
O14B Cu4B 1_555 1_555
O17B C25B 1_555 1_555
O17J Cu4B 1_555 1_555
C25J O17J 1_555 1_555
O16J Cu3B 1_555 1_555
O15B Cu3B 1_555 1_555
C26J C25J 1_555 1_555
C27J C26J 1_555 1_555
H12J C27J 1_555 1_555
C28J C32J 1_555 1_555
C29J C28J 1_555 1_555
H13J C29J 1_555 1_555
C30J C29J 1_555 1_555
H14J C30J 1_555 1_555
C31J C26J 1_555 1_555
H15J C31J 1_555 1_555
O20B Cu4B 1_555 1_555
C76B O20B 1_555 1_555
C20A C24B 1_555 1_555
C19A C20A 1_555 1_555
C18A C19A 1_555 1_555
C17A C18A 1_555 1_555
O11A C17A 1_555 1_555
Cu1A O11A 1_555 1_555
Cu2A Cu1A 1_555 1_555
O1A Cu2A 1_555 1_555
C9A O1A 1_555 1_555
O2A Cu1A 1_555 1_555
O2I Cu1A 1_555 1_555
C9I O2I 1_555 1_555
O1I Cu2A 1_555 1_555
O7A Cu2A 1_555 1_555
C1A O7A 1_555 1_555
O6A Cu1A 1_555 1_555
C2A C1A 1_555 1_555
C3A C2A 1_555 1_555
H1A C3A 1_555 1_555
C4A C8A 1_555 1_555
C5A C4A 1_555 1_555
H2A C5A 1_555 1_555
C6A C5A 1_555 1_555
H3A C6A 1_555 1_555
C7A C2A 1_555 1_555
O10A Cu2A 1_555 1_555
C55A O10A 1_555 1_555
O12A C17A 1_555 1_555
C10I C9I 1_555 1_555
C11I C10I 1_555 1_555
H4I C11I 1_555 1_555
C12I C16I 1_555 1_555
C13I C12I 1_555 1_555
H5I C13I 1_555 1_555
C14I C13I 1_555 1_555
H6I C14I 1_555 1_555
C15I C10I 1_555 1_555
H7I C15I 1_555 1_555
C10A C9A 1_555 1_555
C11A C10A 1_555 1_555
H4A C11A 1_555 1_555
C12A C16A 1_555 1_555
C13A C12A 1_555 1_555
H5A C13A 1_555 1_555
C14A C13A 1_555 1_555
H6A C14A 1_555 1_555
C15A C10A 1_555 1_555
H7A C15A 1_555 1_555
C23A C18A 1_555 1_555
C22A C23A 1_555 1_555
C21A C20A 1_555 1_555
H9A C21A 1_555 1_555
H10A C22A 1_555 1_555
H11A C23A 1_555 1_555
H8A C19A 1_555 1_555
C4B C8B 1_555 1_555
C3B C4B 1_555 1_555
C2B C3B 1_555 1_555
C1B C2B 1_555 1_555
O6B C1B 1_555 1_555
Cu1B O6B 1_555 1_555
Cu2B Cu1B 1_555 1_555
O1B Cu2B 1_555 1_555
C9B O1B 1_555 1_555
O2B Cu1B 1_555 1_555
O2J Cu1B 1_555 1_555
C9J O2J 1_555 1_555
O1J Cu2B 1_555 1_555
O7B C1B 1_555 1_555
O10B Cu2B 1_555 1_555
C55B O10B 1_555 1_555
O12B Cu2B 1_555 1_555
C17B O12B 1_555 1_555
O11B Cu1B 1_555 1_555
C18B C17B 1_555 1_555
C19B C18B 1_555 1_555
H8B C19B 1_555 1_555
C20B C24 1_555 1_555
C21B C20B 1_555 1_555
H9B C21B 1_555 1_555
C22B C21B 1_555 1_555
H10B C22B 1_555 1_555
C23B C18B 1_555 1_555
H11B C23B 1_555 1_555
C10J C9J 1_555 1_555
C11J C10J 1_555 1_555
H4J C11J 1_555 1_555
C12J C16J 1_555 1_555
C13J C12J 1_555 1_555
H5J C13J 1_555 1_555
C14J C13J 1_555 1_555
H6J C14J 1_555 1_555
C15J C10J 1_555 1_555
H7J C15J 1_555 1_555
C10B C9B 1_555 1_555
C11B C10B 1_555 1_555
H4B C11B 1_555 1_555
C12B C16B 1_555 1_555
C13B C12B 1_555 1_555
H5B C13B 1_555 1_555
C14B C13B 1_555 1_555
H6B C14B 1_555 1_555
C15B C10B 1_555 1_555
H7B C15B 1_555 1_555
C7B C2B 1_555 1_555
C6B C7B 1_555 1_555
C5B C4B 1_555 1_555
H2B C5B 1_555 1_555
H3B C6B 1_555 1_555
H1B C3B 1_555 1_555
C31B C26B 1_555 1_555
C30B C31B 1_555 1_555
C29B C28B 1_555 1_555
H13B C29B 1_555 1_555
H14B C30B 1_555 1_555
H15B C31B 1_555 1_555
H12B C27B 1_555 1_555
C39B C34B 1_555 1_555
C38B C39B 1_555 1_555
C37B C36B 1_555 1_555
H17B C37B 1_555 1_555
H18B C38B 1_555 1_555
H19B C39B 1_555 1_555
H16B C35B 1_555 1_555
O26A Cu6A 1_555 1_555
C41A O26A 1_555 1_555
C28A C32A 1_555 1_555
C27A C28A 1_555 1_555
C26A C25A 1_555 1_555
C31A C26A 1_555 1_555
C30A C31A 1_555 1_555
C29A C28A 1_555 1_555
H13A C29A 1_555 1_555
H14A C30A 1_555 1_555
H15A C31A 1_555 1_555
H12A C27A 1_555 1_555
C39A C34A 1_555 1_555
C38A C39A 1_555 1_555
C37A C36A 1_555 1_555
H17A C37A 1_555 1_555
H18A C38A 1_555 1_555
H19A C39A 1_555 1_555
H16A C35A 1_555 1_555
O17E Cu4 1_555 1_555
C31E C26E 1_555 1_555
C30E C31E 1_555 1_555
C29E C28E 1_555 1_555
H13E C29E 1_555 1_555
H14E C30E 1_555 1_555
H15E C31E 1_555 1_555
H12E C27E 1_555 1_555
C12E C16E 1_555 1_555
C11E C12E 1_555 1_555
C10E C9E 1_555 1_555
C15E C10E 1_555 1_555
C14E C15E 1_555 1_555
C13E C12E 1_555 1_555
H5E C13E 1_555 1_555
H6E C14E 1_555 1_555
H7E C15E 1_555 1_555
H4E C11E 1_555 1_555
C39E C34E 1_555 1_555
C38E C39E 1_555 1_555
C37E C36E 1_555 1_555
H17E C37E 1_555 1_555
H18E C38E 1_555 1_555
H19E C39E 1_555 1_555
H16E C35E 1_555 1_555
O26J Cu6J 1_555 1_555
C41J O26J 1_555 1_555
C39J C34J 1_555 1_555
C38J C39J 1_555 1_555
C37J C36J 1_555 1_555
H17J C37J 1_555 1_555
H18J C38J 1_555 1_555
H19J C39J 1_555 1_555
H16J C35J 1_555 1_555
O26I Cu6I 1_555 1_555
C41I O26I 1_555 1_555
O20A Cu4A 1_555 1_555
C76A O20A 1_555 1_555
O7 C1 1_555 1_555
O12 C17 1_555 1_555
O14 C24 1_555 1_555
O17 C25 1_555 1_555
O19 C32 1_555 1_555
O22 C33 1_555 1_555
O24 C40 1_555 1_555
C4 C8 1_555 1_555
C6 C7 1_555 1_555
C12 C16 1_555 1_555
C14 C15 1_555 1_555
C22 C23 1_555 1_555
C28 C32 1_555 1_555
C30 C31 1_555 1_555
C38 C39 1_555 1_555
C9E O1E 1_555 1_555
Cu4A O14A 1_555 1_555
C8A O8A 1_555 1_555
C25A O17A 1_555 1_555
C25I O16I 1_555 1_555
C30I C31I 1_555 1_555
Cu6I O19I 1_555 1_555
C16I O3I 1_555 1_555
C33I O22I 1_555 1_555
C40I O23I 1_555 1_555
Cu6J O22J 1_555 1_555
C16J O3J 1_555 1_555
C32J O19J 1_555 1_555
C40J O23J 1_555 1_555
Cu6E O22E 1_555 1_555
C16E O3E 1_555 1_555
C32E O19E 1_555 1_555
C40E O23E 1_555 1_555
C35I C34I 1_555 1_555
C38I C37I 1_555 1_555
C25E O16E 1_555 1_555
C25E O17E 1_555 1_555
Cu6A O22A 1_555 1_555
C16A O3A 1_555 1_555
C32A O19A 1_555 1_555
C40A O23A 1_555 1_555
Cu6B O22B 1_555 1_555
C16B O3B 1_555 1_555
C32B O19B 1_555 1_555
O24B C40B 1_555 1_555
C40B O23B 1_555 1_555
Cu4B O17B 1_555 1_555
C8B O8B 1_555 1_555
C24B O14B 1_555 1_555
C25J O16J 1_555 1_555
C27J C28J 1_555 1_555
C30J C31J 1_555 1_555
Cu2A O12A 1_555 1_555
C9A O2A 1_555 1_555
C9I O1I 1_555 1_555
C1A O6A 1_555 1_555
C3A C4A 1_555 1_555
C6A C7A 1_555 1_555
C11I C12I 1_555 1_555
C14I C15I 1_555 1_555
C11A C12A 1_555 1_555
C14A C15A 1_555 1_555
C22A C21A 1_555 1_555
Cu2B O7B 1_555 1_555
C9B O2B 1_555 1_555
C9J O1J 1_555 1_555
C17B O11B 1_555 1_555
C19B C20B 1_555 1_555
C22B C23B 1_555 1_555
C11J C12J 1_555 1_555
C14J C15J 1_555 1_555
C11B C12B 1_555 1_555
C14B C15B 1_555 1_555
C6B C5B 1_555 1_555
C30B C29B 1_555 1_555
C38B C37B 1_555 1_555
C27A C26A 1_555 1_555
C30A C29A 1_555 1_555
C38A C37A 1_555 1_555
C30E C29E 1_555 1_555
C11E C10E 1_555 1_555
C14E C13E 1_555 1_555
C38E C37E 1_555 1_555
C38J C37J 1_555 1_555

#END
