
#######################################################################
#
#                 Cambridge Crystallographic Data Centre
#                                CCDC 
#
#######################################################################
#
# If this CIF has been generated from an entry in the Cambridge 
# Structural Database, then it will include bibliographic, chemical, 
# crystal, experimental, refinement or atomic coordinate data resulting 
# from the CCDC's data processing and validation procedures.
#
#######################################################################

data_XEYBEI01
_chemical_formula_moiety         'C1 H4 O1,C216 H192 Cu24 O120'
_chemical_name_systematic        
'tetracosakis(\m~4~-benzene-1,3-dicarboxylato)-tetracosakis(methanol)-tetracosa-copper methanol clathrate'
_symmetry_cell_setting           monoclinic
_symmetry_space_group_name_H-M   'C 2/c'
_symmetry_Int_Tables_number      15
_space_group_name_Hall           '-C 2yn'
loop_
_symmetry_equiv_pos_site_id
_symmetry_equiv_pos_as_xyz
1 x,y,z
2 -x,y,1/2-z
3 1/2+x,1/2+y,z
4 1/2-x,1/2+y,1/2-z
5 -x,-y,-z
6 x,-y,1/2+z
7 1/2-x,1/2-y,-z
8 1/2+x,1/2-y,1/2+z
_cell_length_a                   33.933(7)
_cell_length_b                   36.925(8)
_cell_length_c                   29.577(6)
_cell_angle_alpha                90
_cell_angle_beta                 93.460(3)
_cell_angle_gamma                90
_cell_volume                     36991.7
_cell_formula_units_Z            4
loop_
_atom_site_label
_atom_site_type_symbol
_atom_site_fract_x
_atom_site_fract_y
_atom_site_fract_z
C1 C 0.4156(18) 0.6147(15) 0.223(2)
Cu1 Cu 0.16974(16) 0.48995(14) 0.11485(19)
Cu2 Cu 0.18725(14) 0.55409(13) 0.08595(18)
Cu3 Cu 0.27609(19) 0.70272(15) 0.26021(17)
Cu4 Cu 0.2872(2) 0.68629(19) 0.34597(19)
Cu5 Cu 0.37511(16) 0.94219(14) 0.23184(18)
Cu6 Cu 0.34646(15) 0.89552(14) 0.17292(18)
Cu7 Cu 0.11526(15) 0.84395(17) 0.1730(2)
Cu8 Cu 0.07199(18) 0.8745(2) 0.2318(2)
Cu9 Cu -0.05059(14) 0.67320(15) 0.0084(2)
Cu10 Cu 0.02433(14) 0.68847(14) 0.00548(18)
Cu11 Cu 0.08483(16) 0.88764(14) -0.0830(2)
Cu12 Cu 0.02895(16) 0.93237(15) -0.1119(3)
O1 O 0.1166(8) 0.5068(8) 0.1152(9)
O2 O 0.1314(9) 0.5603(7) 0.0897(9)
O3 O -0.0323(8) 0.6294(6) 0.0452(8)
O4 O 0.0320(8) 0.6448(7) 0.0382(8)
O5 O 0.1784(8) 0.5134(8) 0.1734(9)
O6 O 0.1958(7) 0.5683(6) 0.1505(9)
O7 O 0.2490(9) 0.6587(9) 0.2537(11)
O8 O 0.2551(10) 0.6430(9) 0.3275(13)
O9 O 0.2265(9) 0.4809(8) 0.1120(9)
O10 O 0.2423(7) 0.5372(7) 0.0854(9)
O11 O 0.3085(7) 0.7461(7) 0.2766(10)
O12 O 0.3163(10) 0.7296(9) 0.3492(12)
O13 O 0.3509(7) 0.8619(7) 0.2237(10)
O14 O 0.3769(8) 0.9030(9) 0.2732(10)
O15 O 0.2666(10) 0.7164(8) 0.1892(10)
O16 O 0.2959(8) 0.9093(7) 0.1928(10)
O17 O 0.3188(9) 0.9458(7) 0.2459(9)
O18 O 0.1545(9) 0.8821(8) 0.1900(11)
O19 O 0.1161(12) 0.9041(9) 0.2421(12)
O20 O 0.2956(11) 0.6750(9) 0.4203(12)
O21 O 0.3251(9) 0.6765(8) 0.2540(10)
O22 O 0.3335(10) 0.6588(8) 0.3230(13)
O23 O 0.3930(7) 0.9799(7) 0.2837(8)
O24 O 0.2305(9) 0.7285(8) 0.2789(12)
O25 O 0.2438(11) 0.7168(9) 0.3523(12)
O26 O 0.0990(14) 0.8427(12) 0.2748(15)
O27 O 0.1329(10) 0.8152(8) 0.2274(14)
O28 O 0.3270(8) 0.8544(7) 0.1246(10)
O29 O 0.0528(9) 0.9028(8) 0.1870(14)
O30 O 0.0890(8) 0.8784(7) 0.1335(9)
O31 O 0.0746(10) 0.8117(7) 0.1624(10)
O32 O 0.0358(8) 0.8372(8) 0.2096(10)
O33 O 0.0075(8) 0.7310(6) -0.0283(8)
O34 O -0.0582(8) 0.7171(7) -0.0244(9)
O35 O -0.1154(9) 0.6624(8) 0.0084(10)
O36 O 0.0194(9) 0.7142(6) 0.0593(9)
O37 O -0.0448(10) 0.7030(8) 0.0643(10)
O38 O 0.0883(8) 0.6980(7) 0.0022(9)
O39 O 0.1302(9) 0.8517(8) -0.0549(11)
O40 O 0.4029(8) 0.8910(6) 0.1621(8)
O41 O 0.4251(8) 0.9318(7) 0.2111(9)
O42 O 0.0190(8) 0.6613(7) -0.0516(9)
O43 O -0.0449(8) 0.6442(6) -0.0437(9)
O44 O -0.0168(10) 0.9672(9) -0.1426(12)
O45 O 0.1189(8) 0.9250(8) -0.0846(9)
O46 O 0.0723(9) 0.9679(7) -0.1097(10)
O47 O 0.0874(8) 0.8794(7) -0.1489(11)
O48 O 0.0418(10) 0.9199(9) -0.1667(12)
O49 O -0.0027(10) 0.8906(10) -0.1049(11)
O50 O 0.0431(10) 0.8517(7) -0.0819(10)
O51 O 0.0213(10) 0.9426(9) -0.0467(15)
O52 O 0.0675(9) 0.9065(8) -0.0265(10)
C2 C 0.1063(14) 0.5389(14) 0.1045(14)
C3 C 0.0634(13) 0.5485(11) 0.0984(14)
C4 C 0.0355(16) 0.5225(12) 0.1212(16)
C5 C -0.0036(16) 0.5340(14) 0.1101(17)
C6 C -0.0157(14) 0.5698(14) 0.0939(16)
C7 C 0.0128(13) 0.5910(11) 0.0726(13)
C8 C 0.0519(13) 0.5823(11) 0.0766(13)
C9 C 0.0072(15) 0.6248(13) 0.0500(14)
C10 C 0.1911(11) 0.5454(12) 0.1824(15)
C11 C 0.1980(11) 0.5592(13) 0.2300(15)
C12 C 0.1928(14) 0.5328(14) 0.260(2)
C13 C 0.2002(15) 0.5461(15) 0.307(2)
C14 C 0.2190(14) 0.5809(15) 0.3200(19)
C15 C 0.2239(14) 0.6007(14) 0.282(2)
C16 C 0.2168(13) 0.5918(12) 0.2318(16)
C17 C 0.2429(16) 0.6399(17) 0.281(2)
C18 C 0.2503(13) 0.5044(13) 0.1006(14)
C19 C 0.2950(16) 0.4972(16) 0.0981(16)
C20 C 0.3213(14) 0.5228(10) 0.0954(13)
C21 C 0.3580(15) 0.5086(14) 0.1012(15)
C22 C 0.3741(15) 0.4754(16) 0.1074(16)
C23 C 0.344(2) 0.4498(15) 0.1029(19)
C24 C 0.3017(19) 0.4582(17) 0.1067(19)
C25 C 0.3255(17) 0.7492(18) 0.322(2)
C26 C 0.3453(13) 0.7853(14) 0.3198(18)
C27 C 0.3639(15) 0.7889(15) 0.3659(19)
C28 C 0.3803(16) 0.8225(19) 0.374(2)
C29 C 0.3856(17) 0.8493(17) 0.342(3)
C30 C 0.3644(15) 0.8415(16) 0.297(2)
C31 C 0.3437(12) 0.8096(13) 0.2866(15)
C32 C 0.3628(17) 0.870(2) 0.268(2)
C33 C 0.2885(18) 0.9291(13) 0.2267(19)
C34 C 0.252(2) 0.9412(18) 0.245(2)
C35 C 0.2499(19) 0.9660(17) 0.270(2)
C36 C 0.208(2) 0.9745(16) 0.281(2)
C37 C 0.1755(18) 0.9500(17) 0.269(2)
C38 C 0.187(2) 0.9262(15) 0.234(2)
C39 C 0.2242(16) 0.9157(12) 0.2227(15)
C40 C 0.149(2) 0.9038(16) 0.223(2)
C41 C 0.3479(17) 0.6546(14) 0.287(2)
C42 C 0.3778(17) 0.6357(14) 0.278(2)
C43 C 0.392(2) 0.615(2) 0.317(3)
C44 C 0.424(2) 0.6006(17) 0.302(3)
C45 C 0.4395(18) 0.5956(16) 0.261(3)
C46 C 0.3858(16) 0.6339(13) 0.236(2)
C47 C 0.2241(19) 0.7337(16) 0.322(2)
C48 C 0.192(2) 0.7527(17) 0.329(2)
C49 C 0.1714(17) 0.7782(13) 0.2925(17)
C50 C 0.138(2) 0.792(2) 0.303(3)
C51 C 0.130(2) 0.8073(19) 0.343(4)
C52 C 0.1219(18) 0.8210(18) 0.269(2)
C53 C 0.0589(16) 0.9008(15) 0.144(2)
C54 C 0.0448(13) 0.9204(12) 0.1065(19)
C55 C 0.0125(17) 0.9484(15) 0.1186(19)
C56 C -0.0061(15) 0.9681(14) 0.084(2)
C57 C 0.0375(18) 0.9249(16) -0.012(2)
C58 C 0.0514(14) 0.9158(12) 0.062(2)
C59 C 0.0385(16) 0.8104(14) 0.1814(17)
C60 C 0.0083(16) 0.7861(12) 0.1710(17)
C61 C 0.0142(14) 0.7662(13) 0.1328(17)
C62 C -0.0236(15) 0.7872(11) 0.1924(15)
C63 C -0.0310(15) 0.7382(13) -0.0356(14)
C64 C -0.035(2) 0.7704(17) -0.0606(18)
C65 C -0.0084(15) 0.7948(16) -0.0675(17)
C66 C -0.019(2) 0.825(2) -0.093(2)
C67 C -0.079(2) 0.7795(19) -0.071(3)
C68 C -0.0106(14) 0.7179(9) 0.0770(13)
C69 C 0.4325(14) 0.9093(11) 0.1796(15)
C70 C 0.4687(13) 0.9054(10) 0.1611(14)
C71 C 0.4726(13) 0.8833(10) 0.1225(15)
C72 C 0.5053(13) 0.8776(10) 0.1026(14)
C73 C 0.5395(15) 0.9008(14) 0.1185(18)
C74 C 0.5346(12) 0.9259(10) 0.1592(14)
C75 C 0.4996(12) 0.9277(9) 0.1825(12)
C76 C -0.0145(15) 0.6437(10) -0.0636(15)
C77 C 0.1295(12) 0.4449(12) -0.0831(18)
C78 C 0.1393(14) 0.4529(13) -0.0366(18)
C79 C 0.1539(11) 0.4891(12) -0.0276(15)
C80 C 0.1540(11) 0.5168(10) -0.0627(15)
C81 C 0.1411(12) 0.5058(13) -0.1057(16)
C82 C 0.1280(12) 0.4709(14) -0.1149(15)
C83 C 0.0314(19) 0.9351(16) 0.028(3)
C84 C 0.1601(8) 0.4773(8) 0.0519(10)
O53 O 0.2011(8) 0.6090(7) 0.0621(9)
C85 C -0.0033(17) 0.9576(14) 0.036(2)
C86 C 0.1763(7) 0.5337(7) 0.0267(9)
C87 C 0.4319(15) 0.5991(13) 0.1850(19)
C88 C 0.3678(8) 0.9765(7) 0.1822(10)
C89 C 0.3456(7) 0.9349(8) 0.1314(9)
O54 O 0.1565(10) 0.4369(9) 0.1433(11)
C90 C -0.0198(13) 0.7401(10) 0.1219(14)
O55 O 0.0356(10) 0.8995(9) 0.2809(13)
C91 C 0.3877(17) 0.5435(16) 0.1016(17)
C92 C 0.1652(10) 0.5025(11) 0.0262(13)
C93 C 0.3574(10) 0.9659(11) 0.1403(14)
C94 C -0.0537(16) 0.7381(13) 0.147(2)
C95 C -0.0531(15) 0.7600(15) 0.1830(18)
C97 C 0.003(2) 0.863(2) -0.088(2)
O56 O 0.1506(10) 0.8178(8) 0.1212(11)
C101 C -0.090(3) 0.805(3) -0.110(3)
C103 C 0.140(3) 0.787(3) 0.380(4)
C118 C 0.170(3) 0.765(2) 0.377(3)
C119 C 0.411(2) 1.0091(19) 0.268(2)
C120 C -0.059(3) 0.839(2) -0.098(3)
C121 C 0.185(3) 0.411(3) 0.129(3)
C122 C 0.218(3) 0.710(3) 0.176(4)
C123 C 0.153(3) 0.870(3) -0.024(4)
C72F C -0.0053(13) 0.6224(10) -0.1026(14)
C71F C 0.0274(13) 0.6167(10) -0.1225(15)
C70F C 0.0313(13) 0.5946(10) -0.1611(14)
C69F C 0.0675(14) 0.5907(11) -0.1796(15)
O40F O 0.0971(8) 0.6090(6) -0.1621(8)
Cu6F Cu 0.15354(15) 0.60448(14) -0.17292(18)
Cu5F Cu 0.12489(16) 0.55781(14) -0.23184(18)
O14F O 0.1231(8) 0.5970(9) -0.2732(10)
C32F C 0.1372(17) 0.630(2) -0.268(2)
O13F O 0.1491(7) 0.6381(7) -0.2237(10)
O16F O 0.2041(8) 0.5907(7) -0.1928(10)
C33F C 0.2115(18) 0.5709(13) -0.2267(19)
O17F O 0.1812(9) 0.5542(7) -0.2459(9)
O23F O 0.1070(7) 0.5201(7) -0.2837(8)
C119F C 0.089(2) 0.4909(19) -0.268(2)
O41F O 0.0749(8) 0.5682(7) -0.2111(9)
C88F C 0.1322(8) 0.5235(7) -0.1822(10)
C93F C 0.1426(10) 0.5341(11) -0.1403(14)
O45F O 0.3811(8) 0.5750(8) 0.0846(9)
Cu11F Cu 0.41517(16) 0.61236(14) 0.0830(2)
Cu12F Cu 0.47105(16) 0.56763(15) 0.1119(3)
O44F O 0.5168(10) 0.5328(9) 0.1426(12)
O46F O 0.4277(9) 0.5321(7) 0.1097(10)
O48F O 0.4582(10) 0.5801(9) 0.1667(12)
O47F O 0.4126(8) 0.6206(7) 0.1489(11)
O39F O 0.3698(9) 0.6483(8) 0.0549(11)
C123F C 0.347(3) 0.630(3) 0.024(4)
O50F O 0.4569(10) 0.6483(7) 0.0819(10)
C97F C 0.497(2) 0.637(2) 0.088(2)
O49F O 0.5027(10) 0.6094(10) 0.1049(11)
O51F O 0.4787(10) 0.5574(9) 0.0467(15)
C57F C 0.4625(18) 0.5751(16) 0.012(2)
O52F O 0.4325(9) 0.5935(8) 0.0265(10)
C83F C 0.4686(19) 0.5649(16) -0.028(3)
C58F C 0.4486(14) 0.5842(12) -0.062(2)
C54F C 0.4552(13) 0.5796(12) -0.1065(19)
C53F C 0.4411(16) 0.5992(15) -0.144(2)
O29F O 0.4472(9) 0.5972(8) -0.1870(14)
Cu8F Cu 0.42801(18) 0.6255(2) -0.2318(2)
Cu7F Cu 0.38474(15) 0.65605(17) -0.1730(2)
O18F O 0.3455(9) 0.6179(8) -0.1900(11)
C40F C 0.351(2) 0.5962(16) -0.223(2)
O19F O 0.3839(12) 0.5959(9) -0.2421(12)
O26F O 0.4010(14) 0.6573(12) -0.2748(15)
C52F C 0.3781(18) 0.6790(18) -0.269(2)
O27F O 0.3671(10) 0.6848(8) -0.2274(14)
O30F O 0.4110(8) 0.6216(7) -0.1335(9)
O31F O 0.4254(10) 0.6883(7) -0.1624(10)
C59F C 0.4615(16) 0.6896(14) -0.1814(17)
O32F O 0.4642(8) 0.6628(8) -0.2096(10)
O55F O 0.4644(10) 0.6005(9) -0.2809(13)
C60F C 0.4917(16) 0.7139(12) -0.1710(17)
C61F C 0.4858(14) 0.7338(13) -0.1328(17)
C90F C 0.5198(13) 0.7599(10) -0.1219(14)
C68F C 0.5106(14) 0.7821(9) -0.0770(13)
O36F O 0.4806(9) 0.7858(6) -0.0593(9)
Cu10F Cu 0.47567(14) 0.81153(14) -0.00548(18)
Cu9F Cu 0.55059(14) 0.82680(15) -0.0084(2)
O3F O 0.5323(8) 0.8706(6) -0.0452(8)
C9F C 0.4928(15) 0.8752(13) -0.0500(14)
O4F O 0.4680(8) 0.8552(7) -0.0382(8)
O33F O 0.4925(8) 0.7690(6) 0.0283(8)
C63F C 0.5310(15) 0.7618(13) 0.0356(14)
O34F O 0.5582(8) 0.7829(7) 0.0244(9)
O35F O 0.6154(9) 0.8376(8) -0.0084(10)
O37F O 0.5448(10) 0.7970(8) -0.0643(10)
O43F O 0.5449(8) 0.8558(6) 0.0437(9)
C76F C 0.5145(15) 0.8563(10) 0.0636(15)
O42F O 0.4810(8) 0.8387(7) 0.0516(9)
O38F O 0.4117(8) 0.8020(7) -0.0022(9)
C81F C 0.3589(12) 0.9942(13) 0.1057(16)
C80F C 0.3460(11) 0.9832(10) 0.0627(15)
C79F C 0.3461(11) 1.0109(12) 0.0276(15)
C78F C 0.3607(14) 1.0471(13) 0.0366(18)
C77F C 0.3705(12) 1.0551(12) 0.0831(18)
C82F C 0.3720(12) 1.0291(14) 0.1149(15)
C92F C 0.3348(10) 0.9975(11) -0.0262(13)
C84F C 0.3399(8) 1.0227(8) -0.0519(10)
Cu1F Cu 0.33026(16) 1.01005(14) -0.11485(19)
Cu2F Cu 0.31275(14) 0.94591(13) -0.08595(18)
O2F O 0.3686(9) 0.9397(7) -0.0897(9)
C2F C 0.3937(14) 0.9611(14) -0.1045(14)
O1F O 0.3834(8) 0.9932(8) -0.1152(9)
O5F O 0.3216(8) 0.9866(8) -0.1734(9)
C10F C 0.3089(11) 0.9546(12) -0.1824(15)
O6F O 0.3042(7) 0.9317(6) -0.1505(9)
O10F O 0.2577(7) 0.9628(7) -0.0854(9)
C18F C 0.2497(13) 0.9956(13) -0.1006(14)
O9F O 0.2735(9) 1.0191(8) -0.1120(9)
O54F O 0.3435(10) 1.0631(9) -0.1433(11)
C121F C 0.315(3) 1.089(3) -0.129(3)
C19F C 0.2050(16) 1.0028(16) -0.0981(16)
C20F C 0.1787(14) 0.9772(10) -0.0954(13)
C21F C 0.1420(15) 0.9914(14) -0.1012(15)
C22F C 0.1259(15) 1.0246(16) -0.1074(16)
C23F C 0.156(2) 1.0502(15) -0.1029(19)
C24F C 0.1983(19) 1.0418(17) -0.1067(19)
C91F C 0.1123(17) 0.9565(16) -0.1016(17)
C87F C 0.0681(15) 0.9009(13) -0.1850(19)
C1F C 0.0844(18) 0.8853(15) -0.223(2)
C45F C 0.0605(18) 0.9044(16) -0.261(3)
C44F C 0.076(2) 0.8994(17) -0.302(3)
C43F C 0.108(2) 0.885(2) -0.317(3)
C42F C 0.1222(17) 0.8643(14) -0.278(2)
C41F C 0.1521(17) 0.8454(14) -0.287(2)
O21F O 0.1749(9) 0.8235(8) -0.2540(10)
Cu3F Cu 0.22391(19) 0.79728(15) -0.26021(17)
Cu4F Cu 0.2128(2) 0.81371(19) -0.34597(19)
O8F O 0.2449(10) 0.8570(9) -0.3275(13)
C17F C 0.2571(16) 0.8601(17) -0.281(2)
O7F O 0.2510(9) 0.8413(9) -0.2537(11)
O11F O 0.1915(7) 0.7539(7) -0.2766(10)
C25F C 0.1745(17) 0.7508(18) -0.322(2)
O12F O 0.1837(10) 0.7704(9) -0.3492(12)
O20F O 0.2044(11) 0.8250(9) -0.4203(12)
O22F O 0.1665(10) 0.8412(8) -0.3230(13)
O25F O 0.2562(11) 0.7832(9) -0.3523(12)
C47F C 0.2759(19) 0.7663(16) -0.322(2)
O24F O 0.2695(9) 0.7715(8) -0.2789(12)
O15F O 0.2334(10) 0.7836(8) -0.1892(10)
C122F C 0.282(3) 0.790(3) -0.176(4)
C48F C 0.308(2) 0.7473(17) -0.329(2)
C49F C 0.3286(17) 0.7218(13) -0.2925(17)
C50F C 0.362(2) 0.708(2) -0.303(3)
C51F C 0.370(2) 0.6927(19) -0.343(4)
C103F C 0.360(3) 0.713(3) -0.380(4)
C118F C 0.330(3) 0.735(2) -0.377(3)
C26F C 0.1547(13) 0.7147(14) -0.3198(18)
C27F C 0.1361(15) 0.7111(15) -0.3659(19)
C28F C 0.1197(16) 0.6775(19) -0.374(2)
C29F C 0.1144(17) 0.6507(17) -0.342(3)
C30F C 0.1356(15) 0.6585(16) -0.297(2)
C31F C 0.1563(12) 0.6904(13) -0.2866(15)
C15F C 0.2761(14) 0.8993(14) -0.282(2)
C14F C 0.2810(14) 0.9191(15) -0.3200(19)
C13F C 0.2998(15) 0.9539(15) -0.307(2)
C12F C 0.3072(14) 0.9672(14) -0.260(2)
C11F C 0.3020(11) 0.9408(13) -0.2300(15)
C16F C 0.2832(13) 0.9082(12) -0.2318(16)
C46F C 0.1142(16) 0.8661(13) -0.236(2)
O53F O 0.2989(8) 0.8910(7) -0.0621(9)
C86F C 0.3237(7) 0.9663(7) -0.0267(9)
C3F C 0.4366(13) 0.9515(11) -0.0984(14)
C4F C 0.4645(16) 0.9775(12) -0.1212(16)
C5F C 0.5036(16) 0.9660(14) -0.1101(17)
C6F C 0.5157(14) 0.9302(14) -0.0939(16)
C7F C 0.4872(13) 0.9090(11) -0.0726(13)
C8F C 0.4481(13) 0.9177(11) -0.0766(13)
C64F C 0.535(2) 0.7296(17) 0.0606(18)
C65F C 0.5084(15) 0.7052(16) 0.0675(17)
C66F C 0.519(2) 0.675(2) 0.093(2)
C120F C 0.559(3) 0.661(2) 0.098(3)
C101F C 0.590(3) 0.695(3) 0.110(3)
C67F C 0.579(2) 0.7205(19) 0.071(3)
C94F C 0.5537(16) 0.7619(13) -0.147(2)
C95F C 0.5531(15) 0.7400(15) -0.1830(18)
C62F C 0.5236(15) 0.7128(11) -0.1924(15)
O56F O 0.3494(10) 0.6822(8) -0.1212(11)
C38F C 0.313(2) 0.5738(15) -0.234(2)
C37F C 0.3245(18) 0.5500(17) -0.269(2)
C36F C 0.292(2) 0.5255(16) -0.281(2)
C35F C 0.2501(19) 0.5340(17) -0.270(2)
C34F C 0.248(2) 0.5588(18) -0.245(2)
C39F C 0.2758(16) 0.5843(12) -0.2227(15)
C55F C 0.4875(17) 0.5516(15) -0.1186(19)
C56F C 0.5061(15) 0.5319(14) -0.084(2)
C85F C 0.5033(17) 0.5424(14) -0.036(2)
C89F C 0.1544(7) 0.5651(8) -0.1314(9)
O28F O 0.1730(8) 0.6456(7) -0.1246(10)
C75F C 0.0004(12) 0.5723(9) -0.1825(12)
C74F C -0.0346(12) 0.5741(10) -0.1592(14)
C73F C -0.0395(15) 0.5992(14) -0.1185(18)
C96? C 0.057(2) 0.8154(16) 0.041(2)
C98? C 0.2966(15) 0.6138(13) 0.1517(17)
C99? C 0.1192(15) 0.6190(13) 0.9746(18)
C100? C 0.248(2) 0.8083(18) 0.200(2)
C102? C 0.992(2) 0.4772(15) 0.018(2)
C104? C 0.060(2) 0.827(2) 0.447(3)
C105? C 1.049(3) 0.466(2) 0.016(3)
C106? C -0.059(2) 0.9726(18) -0.110(2)
C107? C 0.087(2) 0.874(2) 0.470(3)
C108? C 0.253(3) 0.472(2) 0.951(3)
C109? C 0.944(4) 0.481(3) 0.018(4)
C110? C 0.331(3) 0.590(3) 0.408(4)
C111? C 0.153(2) 0.962(2) 0.035(3)
C112? C 0.262(4) 0.830(3) 0.379(4)
C113? C 0.221(3) 0.852(3) 0.411(3)
C114? C 0.049(3) 0.994(3) 0.271(4)
C115? C 0.096(2) 0.8205(15) 0.029(2)
C116? C 1.002(3) 0.717(3) 0.849(3)
C117? C 0.5000 0.690(7) 0.2500
loop_
_geom_bond_atom_site_label_1
_geom_bond_atom_site_label_2
_geom_bond_site_symmetry_1
_geom_bond_site_symmetry_2
C1 C45 1_555 1_555
Cu1 Cu2 1_555 1_555
Cu2 O2 1_555 1_555
Cu3 Cu4 1_555 1_555
Cu4 O8 1_555 1_555
Cu5 Cu6 1_555 1_555
Cu6 O13 1_555 1_555
Cu7 Cu8 1_555 1_555
Cu8 O19 1_555 1_555
Cu9 Cu10 1_555 1_555
Cu10 O4 1_555 1_555
Cu11 Cu12 1_555 1_555
Cu12 O44 1_555 1_555
O1 Cu1 1_555 1_555
O2 C2 1_555 1_555
O3 Cu9 1_555 1_555
O4 C9 1_555 1_555
O5 Cu1 1_555 1_555
O6 Cu2 1_555 1_555
O7 Cu3 1_555 1_555
O8 C17 1_555 1_555
O9 Cu1 1_555 1_555
O10 Cu2 1_555 1_555
O11 Cu3 1_555 1_555
O12 Cu4 1_555 1_555
O13 C32 1_555 1_555
O14 Cu5 1_555 1_555
O15 Cu3 1_555 1_555
O16 Cu6 1_555 1_555
O17 Cu5 1_555 1_555
O18 Cu7 1_555 1_555
O19 C40 1_555 1_555
O20 Cu4 1_555 1_555
O21 Cu3 1_555 1_555
O22 Cu4 1_555 1_555
O23 Cu5 1_555 1_555
O24 Cu3 1_555 1_555
O25 Cu4 1_555 1_555
O26 Cu8 1_555 1_555
O27 Cu7 1_555 1_555
O28 Cu6 1_555 1_555
O29 Cu8 1_555 1_555
O30 Cu7 1_555 1_555
O31 Cu7 1_555 1_555
O32 Cu8 1_555 1_555
O33 Cu10 1_555 1_555
O34 Cu9 1_555 1_555
O35 Cu9 1_555 1_555
O36 Cu10 1_555 1_555
O37 Cu9 1_555 1_555
O38 Cu10 1_555 1_555
O39 Cu11 1_555 1_555
O40 Cu6 1_555 1_555
O41 Cu5 1_555 1_555
O42 Cu10 1_555 1_555
O43 Cu9 1_555 1_555
O45 Cu11 1_555 1_555
O46 Cu12 1_555 1_555
O47 Cu11 1_555 1_555
O48 Cu12 1_555 1_555
O49 Cu12 1_555 1_555
O50 Cu11 1_555 1_555
O51 Cu12 1_555 1_555
O52 Cu11 1_555 1_555
C2 O1 1_555 1_555
C3 C2 1_555 1_555
C4 C3 1_555 1_555
C5 C4 1_555 1_555
C6 C5 1_555 1_555
C7 C6 1_555 1_555
C8 C3 1_555 1_555
C9 O3 1_555 1_555
C10 O5 1_555 1_555
C11 C10 1_555 1_555
C12 C11 1_555 1_555
C13 C12 1_555 1_555
C14 C13 1_555 1_555
C15 C14 1_555 1_555
C16 C11 1_555 1_555
C17 O7 1_555 1_555
C18 O9 1_555 1_555
C19 C18 1_555 1_555
C20 C19 1_555 1_555
C21 C20 1_555 1_555
C22 C21 1_555 1_555
C23 C22 1_555 1_555
C24 C19 1_555 1_555
C25 O11 1_555 1_555
C26 C25 1_555 1_555
C27 C26 1_555 1_555
C28 C27 1_555 1_555
C29 C28 1_555 1_555
C30 C29 1_555 1_555
C31 C26 1_555 1_555
C32 O14 1_555 1_555
C33 O16 1_555 1_555
C34 C33 1_555 1_555
C35 C34 1_555 1_555
C36 C35 1_555 1_555
C37 C36 1_555 1_555
C38 C37 1_555 1_555
C39 C34 1_555 1_555
C40 O18 1_555 1_555
C41 O21 1_555 1_555
C42 C41 1_555 1_555
C43 C42 1_555 1_555
C44 C43 1_555 1_555
C45 C44 1_555 1_555
C46 C1 1_555 1_555
C47 O24 1_555 1_555
C48 C47 1_555 1_555
C49 C48 1_555 1_555
C50 C49 1_555 1_555
C51 C50 1_555 1_555
C52 O26 1_555 1_555
C53 O29 1_555 1_555
C54 C53 1_555 1_555
C55 C54 1_555 1_555
C56 C55 1_555 1_555
C57 O51 1_555 1_555
C58 C54 1_555 1_555
C59 O31 1_555 1_555
C60 C59 1_555 1_555
C61 C60 1_555 1_555
C62 C60 1_555 1_555
C63 O33 1_555 1_555
C64 C63 1_555 1_555
C65 C64 1_555 1_555
C66 C65 1_555 1_555
C67 C64 1_555 1_555
C68 O36 1_555 1_555
C69 O40 1_555 1_555
C70 C69 1_555 1_555
C71 C70 1_555 1_555
C72 C71 1_555 1_555
C73 C72 1_555 1_555
C74 C73 1_555 1_555
C75 C70 1_555 1_555
C76 O42 1_555 1_555
C77 C78 1_555 1_555
C78 C79 1_555 1_555
C79 C80 1_555 1_555
C80 C81 1_555 1_555
C81 C82 1_555 1_555
C82 C77 1_555 1_555
C83 C57 1_555 1_555
C84 Cu1 1_555 1_555
O53 Cu2 1_555 1_555
C85 C56 1_555 1_555
C86 Cu2 1_555 1_555
C87 C1 1_555 1_555
C88 Cu5 1_555 1_555
C89 Cu6 1_555 1_555
O54 Cu1 1_555 1_555
C90 C61 1_555 1_555
O55 Cu8 1_555 1_555
C91 C21 1_555 1_555
C92 C79 1_555 1_555
C93 C88 1_555 1_555
C94 C90 1_555 1_555
C95 C62 1_555 1_555
C97 O49 1_555 1_555
O56 Cu7 1_555 1_555
C101 C67 1_555 1_555
C103 C51 1_555 1_555
C118 C48 1_555 1_555
C119 O23 1_555 1_555
C120 C66 1_555 1_555
C121 O54 1_555 1_555
C122 O15 1_555 1_555
C123 O39 1_555 1_555
C72F C76 1_555 1_555
C71F C72F 1_555 1_555
C70F C71F 1_555 1_555
C69F C70F 1_555 1_555
O40F C69F 1_555 1_555
Cu6F O40F 1_555 1_555
Cu5F Cu6F 1_555 1_555
O14F Cu5F 1_555 1_555
C32F O14F 1_555 1_555
O13F Cu6F 1_555 1_555
O16F Cu6F 1_555 1_555
C33F O16F 1_555 1_555
O17F Cu5F 1_555 1_555
O23F Cu5F 1_555 1_555
C119F O23F 1_555 1_555
O41F C69F 1_555 1_555
C88F Cu5F 1_555 1_555
C93F C81 1_555 1_555
O45F C91 1_555 1_555
Cu11F O45F 1_555 1_555
Cu12F Cu11F 1_555 1_555
O44F Cu12F 1_555 1_555
O46F C91 1_555 1_555
O48F C87 1_555 1_555
O47F C87 1_555 1_555
O39F Cu11F 1_555 1_555
C123F O39F 1_555 1_555
O50F Cu11F 1_555 1_555
C97F O50F 1_555 1_555
O49F Cu12F 1_555 1_555
O51F Cu12F 1_555 1_555
C57F O51F 1_555 1_555
O52F Cu11F 1_555 1_555
C83F C57F 1_555 1_555
C58F C83F 1_555 1_555
C54F C58F 1_555 1_555
C53F C54F 1_555 1_555
O29F C53F 1_555 1_555
Cu8F O29F 1_555 1_555
Cu7F Cu8F 1_555 1_555
O18F Cu7F 1_555 1_555
C40F O18F 1_555 1_555
O19F Cu8F 1_555 1_555
O26F Cu8F 1_555 1_555
C52F O26F 1_555 1_555
O27F Cu7F 1_555 1_555
O30F C53F 1_555 1_555
O31F Cu7F 1_555 1_555
C59F O31F 1_555 1_555
O32F Cu8F 1_555 1_555
O55F Cu8F 1_555 1_555
C60F C59F 1_555 1_555
C61F C60F 1_555 1_555
C90F C61F 1_555 1_555
C68F C90F 1_555 1_555
O36F C68F 1_555 1_555
Cu10F O36F 1_555 1_555
Cu9F Cu10F 1_555 1_555
O3F Cu9F 1_555 1_555
C9F O3F 1_555 1_555
O4F Cu10F 1_555 1_555
O33F Cu10F 1_555 1_555
C63F O33F 1_555 1_555
O34F Cu9F 1_555 1_555
O35F Cu9F 1_555 1_555
O37F C68F 1_555 1_555
O43F Cu9F 1_555 1_555
C76F C72 1_555 1_555
O42F Cu10F 1_555 1_555
O38F Cu10F 1_555 1_555
C81F C93 1_555 1_555
C80F C81F 1_555 1_555
C79F C80F 1_555 1_555
C78F C79F 1_555 1_555
C77F C78F 1_555 1_555
C82F C81F 1_555 1_555
C92F C79F 1_555 1_555
C84F C92F 1_555 1_555
Cu1F C84F 1_555 1_555
Cu2F Cu1F 1_555 1_555
O2F Cu2F 1_555 1_555
C2F O2F 1_555 1_555
O1F Cu1F 1_555 1_555
O5F Cu1F 1_555 1_555
C10F O5F 1_555 1_555
O6F Cu2F 1_555 1_555
O10F Cu2F 1_555 1_555
C18F O10F 1_555 1_555
O9F Cu1F 1_555 1_555
O54F Cu1F 1_555 1_555
C121F O54F 1_555 1_555
C19F C18F 1_555 1_555
C20F C19F 1_555 1_555
C21F C20F 1_555 1_555
C22F C21F 1_555 1_555
C23F C22F 1_555 1_555
C24F C19F 1_555 1_555
C91F O45 1_555 1_555
C87F O47 1_555 1_555
C1F C87F 1_555 1_555
C45F C1F 1_555 1_555
C44F C45F 1_555 1_555
C43F C44F 1_555 1_555
C42F C43F 1_555 1_555
C41F C42F 1_555 1_555
O21F C41F 1_555 1_555
Cu3F O21F 1_555 1_555
Cu4F Cu3F 1_555 1_555
O8F Cu4F 1_555 1_555
C17F O8F 1_555 1_555
O7F Cu3F 1_555 1_555
O11F Cu3F 1_555 1_555
C25F O11F 1_555 1_555
O12F Cu4F 1_555 1_555
O20F Cu4F 1_555 1_555
O22F C41F 1_555 1_555
O25F Cu4F 1_555 1_555
C47F O25F 1_555 1_555
O24F Cu3F 1_555 1_555
O15F Cu3F 1_555 1_555
C122F O15F 1_555 1_555
C48F C47F 1_555 1_555
C49F C48F 1_555 1_555
C50F C52F 1_555 1_555
C51F C50F 1_555 1_555
C103F C51F 1_555 1_555
C118F C48F 1_555 1_555
C26F C25F 1_555 1_555
C27F C26F 1_555 1_555
C28F C27F 1_555 1_555
C29F C28F 1_555 1_555
C30F C32F 1_555 1_555
C31F C26F 1_555 1_555
C15F C17F 1_555 1_555
C14F C15F 1_555 1_555
C13F C14F 1_555 1_555
C12F C13F 1_555 1_555
C11F C10F 1_555 1_555
C16F C15F 1_555 1_555
C46F C1F 1_555 1_555
O53F Cu2F 1_555 1_555
C86F C92F 1_555 1_555
C3F C2F 1_555 1_555
C4F C3F 1_555 1_555
C5F C4F 1_555 1_555
C6F C5F 1_555 1_555
C7F C9F 1_555 1_555
C8F C3F 1_555 1_555
C64F C63F 1_555 1_555
C65F C64F 1_555 1_555
C66F C97F 1_555 1_555
C120F C66F 1_555 1_555
C101F C120F 1_555 1_555
C67F C64F 1_555 1_555
C94F C90F 1_555 1_555
C95F C94F 1_555 1_555
C62F C60F 1_555 1_555
O56F Cu7F 1_555 1_555
C38F C40F 1_555 1_555
C37F C38F 1_555 1_555
C36F C37F 1_555 1_555
C35F C36F 1_555 1_555
C34F C33F 1_555 1_555
C39F C38F 1_555 1_555
C55F C54F 1_555 1_555
C56F C55F 1_555 1_555
C85F C83F 1_555 1_555
C89F Cu6F 1_555 1_555
O28F Cu6F 1_555 1_555
C75F C70F 1_555 1_555
C74F C75F 1_555 1_555
C73F C72F 1_555 1_555
O6 C10 1_555 1_555
O10 C18 1_555 1_555
O12 C25 1_555 1_555
O17 C33 1_555 1_555
O22 C41 1_555 1_555
O25 C47 1_555 1_555
O27 C52 1_555 1_555
O30 C53 1_555 1_555
O32 C59 1_555 1_555
O34 C63 1_555 1_555
O37 C68 1_555 1_555
O41 C69 1_555 1_555
O43 C76 1_555 1_555
O46 C91F 1_555 1_555
O48 C87F 1_555 1_555
O50 C97 1_555 1_555
O52 C57 1_555 1_555
C7 C8 1_555 1_555
C7 C9 1_555 1_555
C15 C16 1_555 1_555
C15 C17 1_555 1_555
C23 C24 1_555 1_555
C30 C32 1_555 1_555
C30 C31 1_555 1_555
C38 C39 1_555 1_555
C38 C40 1_555 1_555
C42 C46 1_555 1_555
C50 C52 1_555 1_555
C58 C83 1_555 1_555
C66 C97 1_555 1_555
C68 C90 1_555 1_555
C74 C75 1_555 1_555
C83 C85 1_555 1_555
C84 C92 1_555 1_555
C86 C92 1_555 1_555
C89 C93 1_555 1_555
C94 C95 1_555 1_555
C101 C120 1_555 1_555
C103 C118 1_555 1_555
Cu5F O41F 1_555 1_555
C32F O13F 1_555 1_555
C33F O17F 1_555 1_555
C88F C93F 1_555 1_555
C93F C89F 1_555 1_555
Cu11F O47F 1_555 1_555
Cu12F O46F 1_555 1_555
Cu12F O48F 1_555 1_555
C97F O49F 1_555 1_555
C57F O52F 1_555 1_555
Cu7F O30F 1_555 1_555
C40F O19F 1_555 1_555
C52F O27F 1_555 1_555
C59F O32F 1_555 1_555
Cu9F O37F 1_555 1_555
C9F O4F 1_555 1_555
C63F O34F 1_555 1_555
O43F C76F 1_555 1_555
C76F O42F 1_555 1_555
C77F C82F 1_555 1_555
Cu2F C86F 1_555 1_555
C2F O1F 1_555 1_555
C10F O6F 1_555 1_555
C18F O9F 1_555 1_555
C21F C91F 1_555 1_555
C23F C24F 1_555 1_555
C42F C46F 1_555 1_555
Cu4F O22F 1_555 1_555
C17F O7F 1_555 1_555
C25F O12F 1_555 1_555
C47F O24F 1_555 1_555
C49F C50F 1_555 1_555
C103F C118F 1_555 1_555
C29F C30F 1_555 1_555
C30F C31F 1_555 1_555
C12F C11F 1_555 1_555
C11F C16F 1_555 1_555
C6F C7F 1_555 1_555
C7F C8F 1_555 1_555
C65F C66F 1_555 1_555
C101F C67F 1_555 1_555
C95F C62F 1_555 1_555
C35F C34F 1_555 1_555
C34F C39F 1_555 1_555
C56F C85F 1_555 1_555
C74F C73F 1_555 1_555

#END
