# generated using pymatgen
data_Cu24H93(C79O24)5
_symmetry_space_group_name_H-M   'P 1'
_cell_length_a   28.16500000
_cell_length_b   28.64580000
_cell_length_c   28.64580000
_cell_angle_alpha   120.00000000
_cell_angle_beta   90.00000000
_cell_angle_gamma   90.00000000
_symmetry_Int_Tables_number   1
_chemical_formula_structural   Cu24H93(C79O24)5
_chemical_formula_sum   'Cu48 H186 C790 O240'
_cell_volume   20015.30895003
_cell_formula_units_Z   2
loop_
 _symmetry_equiv_pos_site_id
 _symmetry_equiv_pos_as_xyz
  1  'x, y, z'
loop_
 _atom_site_type_symbol
 _atom_site_label
 _atom_site_symmetry_multiplicity
 _atom_site_fract_x
 _atom_site_fract_y
 _atom_site_fract_z
 _atom_site_occupancy
  Cu  Cu1  1  0.250000  0.094640  0.355410  1.0
  Cu  Cu2  1  0.250000  0.260770  0.905360  1.0
  Cu  Cu3  1  0.250000  0.644590  0.739230  1.0
  Cu  Cu4  1  0.750000  0.739230  0.094640  1.0
  Cu  Cu5  1  0.750000  0.355410  0.260770  1.0
  Cu  Cu6  1  0.750000  0.905360  0.644590  1.0
  Cu  Cu7  1  0.250000  0.013850  0.256740  1.0
  Cu  Cu8  1  0.250000  0.242890  0.986150  1.0
  Cu  Cu9  1  0.250000  0.743260  0.757110  1.0
  Cu  Cu10  1  0.750000  0.757110  0.013850  1.0
  Cu  Cu11  1  0.750000  0.256740  0.242890  1.0
  Cu  Cu12  1  0.750000  0.986150  0.743260  1.0
  Cu  Cu13  1  0.250000  0.393900  0.422850  1.0
  Cu  Cu14  1  0.250000  0.028950  0.606100  1.0
  Cu  Cu15  1  0.250000  0.577150  0.971050  1.0
  Cu  Cu16  1  0.750000  0.971050  0.393900  1.0
  Cu  Cu17  1  0.750000  0.422850  0.028950  1.0
  Cu  Cu18  1  0.750000  0.606100  0.577150  1.0
  Cu  Cu19  1  0.250000  0.419250  0.346990  1.0
  Cu  Cu20  1  0.250000  0.927740  0.580750  1.0
  Cu  Cu21  1  0.250000  0.653010  0.072260  1.0
  Cu  Cu22  1  0.750000  0.072260  0.419250  1.0
  Cu  Cu23  1  0.750000  0.346990  0.927740  1.0
  Cu  Cu24  1  0.750000  0.580750  0.653010  1.0
  Cu  Cu25  1  0.480280  0.271860  0.482790  1.0
  Cu  Cu26  1  0.480280  0.210930  0.728140  1.0
  Cu  Cu27  1  0.480280  0.517210  0.789070  1.0
  Cu  Cu28  1  0.980280  0.789070  0.271860  1.0
  Cu  Cu29  1  0.980280  0.482790  0.210930  1.0
  Cu  Cu30  1  0.019720  0.271860  0.482790  1.0
  Cu  Cu31  1  0.519720  0.728140  0.517210  1.0
  Cu  Cu32  1  0.519720  0.789070  0.271860  1.0
  Cu  Cu33  1  0.519720  0.482790  0.210930  1.0
  Cu  Cu34  1  0.019720  0.210930  0.728140  1.0
  Cu  Cu35  1  0.019720  0.517210  0.789070  1.0
  Cu  Cu36  1  0.980280  0.728140  0.517210  1.0
  Cu  Cu37  1  0.556130  0.252610  0.423640  1.0
  Cu  Cu38  1  0.556130  0.171030  0.747390  1.0
  Cu  Cu39  1  0.556130  0.576360  0.828970  1.0
  Cu  Cu40  1  0.056130  0.828970  0.252610  1.0
  Cu  Cu41  1  0.056130  0.423640  0.171030  1.0
  Cu  Cu42  1  0.943870  0.252610  0.423640  1.0
  Cu  Cu43  1  0.443870  0.747390  0.576360  1.0
  Cu  Cu44  1  0.443870  0.828970  0.252610  1.0
  Cu  Cu45  1  0.443870  0.423640  0.171030  1.0
  Cu  Cu46  1  0.943870  0.171030  0.747390  1.0
  Cu  Cu47  1  0.943870  0.576360  0.828970  1.0
  Cu  Cu48  1  0.056130  0.747390  0.576360  1.0
  H  H49  1  0.250000  0.222200  0.323000  1.0
  H  H50  1  0.250000  0.100800  0.777800  1.0
  H  H51  1  0.250000  0.677000  0.899200  1.0
  H  H52  1  0.750000  0.899200  0.222200  1.0
  H  H53  1  0.750000  0.323000  0.100800  1.0
  H  H54  1  0.750000  0.777800  0.677000  1.0
  H  H55  1  0.250000  0.256700  0.201600  1.0
  H  H56  1  0.250000  0.944900  0.743300  1.0
  H  H57  1  0.250000  0.798400  0.055100  1.0
  H  H58  1  0.750000  0.055100  0.256700  1.0
  H  H59  1  0.750000  0.201600  0.944900  1.0
  H  H60  1  0.750000  0.743300  0.798400  1.0
  H  H61  1  0.250000  0.166000  0.139100  1.0
  H  H62  1  0.250000  0.973100  0.834000  1.0
  H  H63  1  0.250000  0.860900  0.026900  1.0
  H  H64  1  0.750000  0.026900  0.166000  1.0
  H  H65  1  0.750000  0.139100  0.973100  1.0
  H  H66  1  0.750000  0.834000  0.860900  1.0
  H  H67  1  0.250000  0.007300  0.443800  1.0
  H  H68  1  0.250000  0.436500  0.992700  1.0
  H  H69  1  0.250000  0.556200  0.563500  1.0
  H  H70  1  0.750000  0.563500  0.007300  1.0
  H  H71  1  0.750000  0.443800  0.436500  1.0
  H  H72  1  0.750000  0.992700  0.556200  1.0
  H  H73  1  0.250000  0.852400  0.410000  1.0
  H  H74  1  0.250000  0.557600  0.147600  1.0
  H  H75  1  0.250000  0.590000  0.442400  1.0
  H  H76  1  0.750000  0.442400  0.852400  1.0
  H  H77  1  0.750000  0.410000  0.557600  1.0
  H  H78  1  0.750000  0.147600  0.590000  1.0
  H  H79  1  0.250000  0.823200  0.319400  1.0
  H  H80  1  0.250000  0.496200  0.176800  1.0
  H  H81  1  0.250000  0.680600  0.503800  1.0
  H  H82  1  0.750000  0.503800  0.823200  1.0
  H  H83  1  0.750000  0.319400  0.496200  1.0
  H  H84  1  0.750000  0.176800  0.680600  1.0
  H  H85  1  0.250000  0.883500  0.289100  1.0
  H  H86  1  0.250000  0.405600  0.116500  1.0
  H  H87  1  0.250000  0.710900  0.594400  1.0
  H  H88  1  0.750000  0.594400  0.883500  1.0
  H  H89  1  0.750000  0.289100  0.405600  1.0
  H  H90  1  0.750000  0.116500  0.710900  1.0
  H  H91  1  0.393600  0.137400  0.372200  1.0
  H  H92  1  0.393600  0.234800  0.862600  1.0
  H  H93  1  0.393600  0.627800  0.765200  1.0
  H  H94  1  0.893600  0.765200  0.137400  1.0
  H  H95  1  0.893600  0.372200  0.234800  1.0
  H  H96  1  0.106400  0.137400  0.372200  1.0
  H  H97  1  0.606400  0.862600  0.627800  1.0
  H  H98  1  0.606400  0.765200  0.137400  1.0
  H  H99  1  0.606400  0.372200  0.234800  1.0
  H  H100  1  0.106400  0.234800  0.862600  1.0
  H  H101  1  0.106400  0.627800  0.765200  1.0
  H  H102  1  0.893600  0.862600  0.627800  1.0
  H  H103  1  0.519400  0.091600  0.292000  1.0
  H  H104  1  0.519400  0.200400  0.908400  1.0
  H  H105  1  0.519400  0.708000  0.799600  1.0
  H  H106  1  0.019400  0.799600  0.091600  1.0
  H  H107  1  0.019400  0.292000  0.200400  1.0
  H  H108  1  0.980600  0.091600  0.292000  1.0
  H  H109  1  0.480600  0.908400  0.708000  1.0
  H  H110  1  0.480600  0.799600  0.091600  1.0
  H  H111  1  0.480600  0.292000  0.200400  1.0
  H  H112  1  0.980600  0.200400  0.908400  1.0
  H  H113  1  0.980600  0.708000  0.799600  1.0
  H  H114  1  0.019400  0.908400  0.708000  1.0
  H  H115  1  0.483500  0.019100  0.221200  1.0
  H  H116  1  0.483500  0.202100  0.980900  1.0
  H  H117  1  0.483500  0.778800  0.797900  1.0
  H  H118  1  0.983500  0.797900  0.019100  1.0
  H  H119  1  0.983500  0.221200  0.202100  1.0
  H  H120  1  0.016500  0.019100  0.221200  1.0
  H  H121  1  0.516500  0.980900  0.778800  1.0
  H  H122  1  0.516500  0.797900  0.019100  1.0
  H  H123  1  0.516500  0.221200  0.202100  1.0
  H  H124  1  0.016500  0.202100  0.980900  1.0
  H  H125  1  0.016500  0.778800  0.797900  1.0
  H  H126  1  0.983500  0.980900  0.778800  1.0
  H  H127  1  0.403900  0.001100  0.227200  1.0
  H  H128  1  0.403900  0.226100  0.998900  1.0
  H  H129  1  0.403900  0.772800  0.773900  1.0
  H  H130  1  0.903900  0.773900  0.001100  1.0
  H  H131  1  0.903900  0.227200  0.226100  1.0
  H  H132  1  0.096100  0.001100  0.227200  1.0
  H  H133  1  0.596100  0.998900  0.772800  1.0
  H  H134  1  0.596100  0.773900  0.001100  1.0
  H  H135  1  0.596100  0.227200  0.226100  1.0
  H  H136  1  0.096100  0.226100  0.998900  1.0
  H  H137  1  0.096100  0.772800  0.773900  1.0
  H  H138  1  0.903900  0.998900  0.772800  1.0
  H  H139  1  0.393900  0.349300  0.418100  1.0
  H  H140  1  0.393900  0.068800  0.650700  1.0
  H  H141  1  0.393900  0.581900  0.931200  1.0
  H  H142  1  0.893900  0.931200  0.349300  1.0
  H  H143  1  0.893900  0.418100  0.068800  1.0
  H  H144  1  0.106100  0.349300  0.418100  1.0
  H  H145  1  0.606100  0.650700  0.581900  1.0
  H  H146  1  0.606100  0.931200  0.349300  1.0
  H  H147  1  0.606100  0.418100  0.068800  1.0
  H  H148  1  0.106100  0.068800  0.650700  1.0
  H  H149  1  0.106100  0.581900  0.931200  1.0
  H  H150  1  0.893900  0.650700  0.581900  1.0
  H  H151  1  0.520600  0.348600  0.352400  1.0
  H  H152  1  0.520600  0.003800  0.651400  1.0
  H  H153  1  0.520600  0.647600  0.996200  1.0
  H  H154  1  0.020600  0.996200  0.348600  1.0
  H  H155  1  0.020600  0.352400  0.003800  1.0
  H  H156  1  0.979400  0.348600  0.352400  1.0
  H  H157  1  0.479400  0.651400  0.647600  1.0
  H  H158  1  0.479400  0.996200  0.348600  1.0
  H  H159  1  0.479400  0.352400  0.003800  1.0
  H  H160  1  0.979400  0.003800  0.651400  1.0
  H  H161  1  0.979400  0.647600  0.996200  1.0
  H  H162  1  0.020600  0.651400  0.647600  1.0
  H  H163  1  0.485500  0.397500  0.316300  1.0
  H  H164  1  0.485500  0.918800  0.602500  1.0
  H  H165  1  0.485500  0.683700  0.081200  1.0
  H  H166  1  0.985500  0.081200  0.397500  1.0
  H  H167  1  0.985500  0.316300  0.918800  1.0
  H  H168  1  0.014500  0.397500  0.316300  1.0
  H  H169  1  0.514500  0.602500  0.683700  1.0
  H  H170  1  0.514500  0.081200  0.397500  1.0
  H  H171  1  0.514500  0.316300  0.918800  1.0
  H  H172  1  0.014500  0.918800  0.602500  1.0
  H  H173  1  0.014500  0.683700  0.081200  1.0
  H  H174  1  0.985500  0.602500  0.683700  1.0
  H  H175  1  0.407800  0.423500  0.331400  1.0
  H  H176  1  0.407800  0.907900  0.576500  1.0
  H  H177  1  0.407800  0.668600  0.092100  1.0
  H  H178  1  0.907800  0.092100  0.423500  1.0
  H  H179  1  0.907800  0.331400  0.907900  1.0
  H  H180  1  0.092200  0.423500  0.331400  1.0
  H  H181  1  0.592200  0.576500  0.668600  1.0
  H  H182  1  0.592200  0.092100  0.423500  1.0
  H  H183  1  0.592200  0.331400  0.907900  1.0
  H  H184  1  0.092200  0.907900  0.576500  1.0
  H  H185  1  0.092200  0.668600  0.092100  1.0
  H  H186  1  0.907800  0.576500  0.668600  1.0
  H  H187  1  0.525700  0.414300  0.624500  1.0
  H  H188  1  0.525700  0.210200  0.585700  1.0
  H  H189  1  0.525700  0.375500  0.789800  1.0
  H  H190  1  0.025700  0.789800  0.414300  1.0
  H  H191  1  0.025700  0.624500  0.210200  1.0
  H  H192  1  0.974300  0.414300  0.624500  1.0
  H  H193  1  0.474300  0.585700  0.375500  1.0
  H  H194  1  0.474300  0.789800  0.414300  1.0
  H  H195  1  0.474300  0.624500  0.210200  1.0
  H  H196  1  0.974300  0.210200  0.585700  1.0
  H  H197  1  0.974300  0.375500  0.789800  1.0
  H  H198  1  0.025700  0.585700  0.375500  1.0
  H  H199  1  0.638500  0.513900  0.683700  1.0
  H  H200  1  0.638500  0.169800  0.486100  1.0
  H  H201  1  0.638500  0.316300  0.830200  1.0
  H  H202  1  0.138500  0.830200  0.513900  1.0
  H  H203  1  0.138500  0.683700  0.169800  1.0
  H  H204  1  0.861500  0.513900  0.683700  1.0
  H  H205  1  0.361500  0.486100  0.316300  1.0
  H  H206  1  0.361500  0.830200  0.513900  1.0
  H  H207  1  0.361500  0.683700  0.169800  1.0
  H  H208  1  0.861500  0.169800  0.486100  1.0
  H  H209  1  0.861500  0.316300  0.830200  1.0
  H  H210  1  0.138500  0.486100  0.316300  1.0
  H  H211  1  0.679200  0.461800  0.602300  1.0
  H  H212  1  0.679200  0.140500  0.538200  1.0
  H  H213  1  0.679200  0.397700  0.859500  1.0
  H  H214  1  0.179200  0.859500  0.461800  1.0
  H  H215  1  0.179200  0.602300  0.140500  1.0
  H  H216  1  0.820800  0.461800  0.602300  1.0
  H  H217  1  0.320800  0.538200  0.397700  1.0
  H  H218  1  0.320800  0.859500  0.461800  1.0
  H  H219  1  0.320800  0.602300  0.140500  1.0
  H  H220  1  0.820800  0.140500  0.538200  1.0
  H  H221  1  0.820800  0.397700  0.859500  1.0
  H  H222  1  0.179200  0.538200  0.397700  1.0
  H  H223  1  0.642900  0.391300  0.534300  1.0
  H  H224  1  0.642900  0.143000  0.608700  1.0
  H  H225  1  0.642900  0.465700  0.857000  1.0
  H  H226  1  0.142900  0.857000  0.391300  1.0
  H  H227  1  0.142900  0.534300  0.143000  1.0
  H  H228  1  0.857100  0.391300  0.534300  1.0
  H  H229  1  0.357100  0.608700  0.465700  1.0
  H  H230  1  0.357100  0.857000  0.391300  1.0
  H  H231  1  0.357100  0.534300  0.143000  1.0
  H  H232  1  0.857100  0.143000  0.608700  1.0
  H  H233  1  0.857100  0.465700  0.857000  1.0
  H  H234  1  0.142900  0.608700  0.465700  1.0
  C  C235  1  0.366000  0.033400  0.412500  1
  C  C236  1  0.366000  0.379100  0.966600  1
  C  C237  1  0.366000  0.587500  0.620900  1
  C  C238  1  0.866000  0.620900  0.033400  1
  C  C239  1  0.866000  0.412500  0.379100  1
  C  C240  1  0.134000  0.033400  0.412500  1
  C  C241  1  0.634000  0.966600  0.587500  1
  C  C242  1  0.634000  0.620900  0.033400  1
  C  C243  1  0.634000  0.412500  0.379100  1
  C  C244  1  0.134000  0.379100  0.966600  1
  C  C245  1  0.134000  0.587500  0.620900  1
  C  C246  1  0.866000  0.966600  0.587500  1
  C  C247  1  0.337900  0.244600  0.394600  1
  C  C248  1  0.337900  0.150000  0.755400  1
  C  C249  1  0.337900  0.605400  0.850000  1
  C  C250  1  0.837900  0.850000  0.244600  1
  C  C251  1  0.837900  0.394600  0.150000  1
  C  C252  1  0.162100  0.244600  0.394600  1
  C  C253  1  0.662100  0.755400  0.605400  1
  C  C254  1  0.662100  0.850000  0.244600  1
  C  C255  1  0.662100  0.394600  0.150000  1
  C  C256  1  0.162100  0.150000  0.755400  1
  C  C257  1  0.162100  0.605400  0.850000  1
  C  C258  1  0.837900  0.755400  0.605400  1
  C  C259  1  0.393700  0.525400  0.499200  1
  C  C260  1  0.393700  0.973800  0.474600  1
  C  C261  1  0.393700  0.500800  0.026200  1
  C  C262  1  0.893700  0.026200  0.525400  1
  C  C263  1  0.893700  0.499200  0.973800  1
  C  C264  1  0.106300  0.525400  0.499200  1
  C  C265  1  0.606300  0.474600  0.500800  1
  C  C266  1  0.606300  0.026200  0.525400  1
  C  C267  1  0.606300  0.499200  0.973800  1
  C  C268  1  0.106300  0.973800  0.474600  1
  C  C269  1  0.106300  0.500800  0.026200  1
  C  C270  1  0.893700  0.474600  0.500800  1
  C  C271  1  0.515000  0.333333  0.666667  1
  C  C272  1  0.015000  0.666667  0.333333  1
  C  C273  1  0.985000  0.333333  0.666667  1
  C  C274  1  0.485000  0.666667  0.333333  1
  C  C275  1  0.465000  0.921300  0.122300  1
  C  C276  1  0.465000  0.201000  0.078700  1
  C  C277  1  0.465000  0.877700  0.799000  1
  C  C278  1  0.965000  0.799000  0.921300  1
  C  C279  1  0.965000  0.122300  0.201000  1
  C  C280  1  0.035000  0.921300  0.122300  1
  C  C281  1  0.535000  0.078700  0.877700  1
  C  C282  1  0.535000  0.799000  0.921300  1
  C  C283  1  0.535000  0.122300  0.201000  1
  C  C284  1  0.035000  0.201000  0.078700  1
  C  C285  1  0.035000  0.877700  0.799000  1
  C  C286  1  0.965000  0.078700  0.877700  1
  C  C287  1  0.441000  0.122000  0.486000  1
  C  C288  1  0.441000  0.364000  0.878000  1
  C  C289  1  0.441000  0.514000  0.636000  1
  C  C290  1  0.941000  0.636000  0.122000  1
  C  C291  1  0.941000  0.486000  0.364000  1
  C  C292  1  0.059000  0.122000  0.486000  1
  C  C293  1  0.559000  0.878000  0.514000  1
  C  C294  1  0.559000  0.636000  0.122000  1
  C  C295  1  0.559000  0.486000  0.364000  1
  C  C296  1  0.059000  0.364000  0.878000  1
  C  C297  1  0.059000  0.514000  0.636000  1
  C  C298  1  0.941000  0.878000  0.514000  1
  C  C299  1  0.650000  0.120000  0.346000  1
  C  C300  1  0.650000  0.226000  0.880000  1
  C  C301  1  0.650000  0.654000  0.774000  1
  C  C302  1  0.150000  0.774000  0.120000  1
  C  C303  1  0.150000  0.346000  0.226000  1
  C  C304  1  0.850000  0.120000  0.346000  1
  C  C305  1  0.350000  0.880000  0.654000  1
  C  C306  1  0.350000  0.774000  0.120000  1
  C  C307  1  0.350000  0.346000  0.226000  1
  C  C308  1  0.850000  0.226000  0.880000  1
  C  C309  1  0.850000  0.654000  0.774000  1
  C  C310  1  0.150000  0.880000  0.654000  1
  C  C311  1  0.676500  0.164600  0.371400  1
  C  C312  1  0.676500  0.206800  0.835400  1
  C  C313  1  0.676500  0.628600  0.793200  1
  C  C314  1  0.176500  0.793200  0.164600  1
  C  C315  1  0.176500  0.371400  0.206800  1
  C  C316  1  0.823500  0.164600  0.371400  1
  C  C317  1  0.323500  0.835400  0.628600  1
  C  C318  1  0.323500  0.793200  0.164600  1
  C  C319  1  0.323500  0.371400  0.206800  1
  C  C320  1  0.823500  0.206800  0.835400  1
  C  C321  1  0.823500  0.628600  0.793200  1
  C  C322  1  0.176500  0.835400  0.628600  1
  C  C323  1  0.250000  0.848000  0.167000  1
  C  C324  1  0.250000  0.319000  0.152000  1
  C  C325  1  0.250000  0.833000  0.681000  1
  C  C326  1  0.750000  0.681000  0.848000  1
  C  C327  1  0.750000  0.167000  0.319000  1
  C  C328  1  0.750000  0.152000  0.833000  1
  C  C329  1  0.292000  0.256000  0.435000  1
  C  C330  1  0.292000  0.179000  0.744000  1
  C  C331  1  0.292000  0.565000  0.821000  1
  C  C332  1  0.792000  0.821000  0.256000  1
  C  C333  1  0.792000  0.435000  0.179000  1
  C  C334  1  0.208000  0.256000  0.435000  1
  C  C335  1  0.708000  0.744000  0.565000  1
  C  C336  1  0.708000  0.821000  0.256000  1
  C  C337  1  0.708000  0.435000  0.179000  1
  C  C338  1  0.208000  0.179000  0.744000  1
  C  C339  1  0.208000  0.565000  0.821000  1
  C  C340  1  0.792000  0.744000  0.565000  1
  C  C341  1  0.538000  0.919000  0.058000  1
  C  C342  1  0.538000  0.139000  0.081000  1
  C  C343  1  0.538000  0.942000  0.861000  1
  C  C344  1  0.038000  0.861000  0.919000  1
  C  C345  1  0.038000  0.058000  0.139000  1
  C  C346  1  0.962000  0.919000  0.058000  1
  C  C347  1  0.462000  0.081000  0.942000  1
  C  C348  1  0.462000  0.861000  0.919000  1
  C  C349  1  0.462000  0.058000  0.139000  1
  C  C350  1  0.962000  0.139000  0.081000  1
  C  C351  1  0.962000  0.942000  0.861000  1
  C  C352  1  0.038000  0.081000  0.942000  1
  C  C353  1  0.465000  0.101000  0.550000  1
  C  C354  1  0.465000  0.449000  0.899000  1
  C  C355  1  0.465000  0.450000  0.551000  1
  C  C356  1  0.965000  0.551000  0.101000  1
  C  C357  1  0.965000  0.550000  0.449000  1
  C  C358  1  0.035000  0.101000  0.550000  1
  C  C359  1  0.535000  0.899000  0.450000  1
  C  C360  1  0.535000  0.551000  0.101000  1
  C  C361  1  0.535000  0.550000  0.449000  1
  C  C362  1  0.035000  0.449000  0.899000  1
  C  C363  1  0.035000  0.450000  0.551000  1
  C  C364  1  0.965000  0.899000  0.450000  1
  C  C365  1  0.709000  0.319000  0.601000  1
  C  C366  1  0.709000  0.282000  0.681000  1
  C  C367  1  0.709000  0.399000  0.718000  1
  C  C368  1  0.209000  0.718000  0.319000  1
  C  C369  1  0.209000  0.601000  0.282000  1
  C  C370  1  0.791000  0.319000  0.601000  1
  C  C371  1  0.291000  0.681000  0.399000  1
  C  C372  1  0.291000  0.718000  0.319000  1
  C  C373  1  0.291000  0.601000  0.282000  1
  C  C374  1  0.791000  0.282000  0.681000  1
  C  C375  1  0.791000  0.399000  0.718000  1
  C  C376  1  0.209000  0.681000  0.399000  1
  C  C377  1  0.423000  0.048000  0.491000  1
  C  C378  1  0.423000  0.443000  0.952000  1
  C  C379  1  0.423000  0.509000  0.557000  1
  C  C380  1  0.923000  0.557000  0.048000  1
  C  C381  1  0.923000  0.491000  0.443000  1
  C  C382  1  0.077000  0.048000  0.491000  1
  C  C383  1  0.577000  0.952000  0.509000  1
  C  C384  1  0.577000  0.557000  0.048000  1
  C  C385  1  0.577000  0.491000  0.443000  1
  C  C386  1  0.077000  0.443000  0.952000  1
  C  C387  1  0.077000  0.509000  0.557000  1
  C  C388  1  0.923000  0.952000  0.509000  1
  C  C389  1  0.342000  0.225000  0.441000  1
  C  C390  1  0.342000  0.216000  0.775000  1
  C  C391  1  0.342000  0.559000  0.784000  1
  C  C392  1  0.842000  0.784000  0.225000  1
  C  C393  1  0.842000  0.441000  0.216000  1
  C  C394  1  0.158000  0.225000  0.441000  1
  C  C395  1  0.658000  0.775000  0.559000  1
  C  C396  1  0.658000  0.784000  0.225000  1
  C  C397  1  0.658000  0.441000  0.216000  1
  C  C398  1  0.158000  0.216000  0.775000  1
  C  C399  1  0.158000  0.559000  0.784000  1
  C  C400  1  0.842000  0.775000  0.559000  1
  C  C401  1  0.300000  0.412000  0.534000  1
  C  C402  1  0.300000  0.122000  0.588000  1
  C  C403  1  0.300000  0.466000  0.878000  1
  C  C404  1  0.800000  0.878000  0.412000  1
  C  C405  1  0.800000  0.534000  0.122000  1
  C  C406  1  0.200000  0.412000  0.534000  1
  C  C407  1  0.700000  0.588000  0.466000  1
  C  C408  1  0.700000  0.878000  0.412000  1
  C  C409  1  0.700000  0.534000  0.122000  1
  C  C410  1  0.200000  0.122000  0.588000  1
  C  C411  1  0.200000  0.466000  0.878000  1
  C  C412  1  0.800000  0.588000  0.466000  1
  C  C413  1  0.331000  0.964000  0.116000  1
  C  C414  1  0.331000  0.152000  0.036000  1
  C  C415  1  0.331000  0.884000  0.848000  1
  C  C416  1  0.831000  0.848000  0.964000  1
  C  C417  1  0.831000  0.116000  0.152000  1
  C  C418  1  0.169000  0.964000  0.116000  1
  C  C419  1  0.669000  0.036000  0.884000  1
  C  C420  1  0.669000  0.848000  0.964000  1
  C  C421  1  0.669000  0.116000  0.152000  1
  C  C422  1  0.169000  0.152000  0.036000  1
  C  C423  1  0.169000  0.884000  0.848000  1
  C  C424  1  0.831000  0.036000  0.884000  1
  C  C425  1  0.344000  0.274000  0.440000  1
  C  C426  1  0.344000  0.166000  0.726000  1
  C  C427  1  0.344000  0.560000  0.834000  1
  C  C428  1  0.844000  0.834000  0.274000  1
  C  C429  1  0.844000  0.440000  0.166000  1
  C  C430  1  0.156000  0.274000  0.440000  1
  C  C431  1  0.656000  0.726000  0.560000  1
  C  C432  1  0.656000  0.834000  0.274000  1
  C  C433  1  0.656000  0.440000  0.166000  1
  C  C434  1  0.156000  0.166000  0.726000  1
  C  C435  1  0.156000  0.560000  0.834000  1
  C  C436  1  0.844000  0.726000  0.560000  1
  C  C437  1  0.674000  0.303000  0.572000  1
  C  C438  1  0.674000  0.269000  0.697000  1
  C  C439  1  0.674000  0.428000  0.731000  1
  C  C440  1  0.174000  0.731000  0.303000  1
  C  C441  1  0.174000  0.572000  0.269000  1
  C  C442  1  0.826000  0.303000  0.572000  1
  C  C443  1  0.326000  0.697000  0.428000  1
  C  C444  1  0.326000  0.731000  0.303000  1
  C  C445  1  0.326000  0.572000  0.269000  1
  C  C446  1  0.826000  0.269000  0.697000  1
  C  C447  1  0.826000  0.428000  0.731000  1
  C  C448  1  0.174000  0.697000  0.428000  1
  C  C449  1  0.404000  0.208000  0.262000  1
  C  C450  1  0.404000  0.054000  0.792000  1
  C  C451  1  0.404000  0.738000  0.946000  1
  C  C452  1  0.904000  0.946000  0.208000  1
  C  C453  1  0.904000  0.262000  0.054000  1
  C  C454  1  0.096000  0.208000  0.262000  1
  C  C455  1  0.596000  0.792000  0.738000  1
  C  C456  1  0.596000  0.946000  0.208000  1
  C  C457  1  0.596000  0.262000  0.054000  1
  C  C458  1  0.096000  0.054000  0.792000  1
  C  C459  1  0.096000  0.738000  0.946000  1
  C  C460  1  0.904000  0.792000  0.738000  1
  C  C461  1  0.452000  0.192000  0.259000  1
  C  C462  1  0.452000  0.067000  0.808000  1
  C  C463  1  0.452000  0.741000  0.933000  1
  C  C464  1  0.952000  0.933000  0.192000  1
  C  C465  1  0.952000  0.259000  0.067000  1
  C  C466  1  0.048000  0.192000  0.259000  1
  C  C467  1  0.548000  0.808000  0.741000  1
  C  C468  1  0.548000  0.933000  0.192000  1
  C  C469  1  0.548000  0.259000  0.067000  1
  C  C470  1  0.048000  0.067000  0.808000  1
  C  C471  1  0.048000  0.741000  0.933000  1
  C  C472  1  0.952000  0.808000  0.741000  1
  C  C473  1  0.405000  0.048000  0.460000  1
  C  C474  1  0.405000  0.412000  0.952000  1
  C  C475  1  0.405000  0.540000  0.588000  1
  C  C476  1  0.905000  0.588000  0.048000  1
  C  C477  1  0.905000  0.460000  0.412000  1
  C  C478  1  0.095000  0.048000  0.460000  1
  C  C479  1  0.595000  0.952000  0.540000  1
  C  C480  1  0.595000  0.588000  0.048000  1
  C  C481  1  0.595000  0.460000  0.412000  1
  C  C482  1  0.095000  0.412000  0.952000  1
  C  C483  1  0.095000  0.540000  0.588000  1
  C  C484  1  0.905000  0.952000  0.540000  1
  C  C485  1  0.632000  0.027000  0.129000  1
  C  C486  1  0.632000  0.102000  0.973000  1
  C  C487  1  0.632000  0.871000  0.898000  1
  C  C488  1  0.132000  0.898000  0.027000  1
  C  C489  1  0.132000  0.129000  0.102000  1
  C  C490  1  0.868000  0.027000  0.129000  1
  C  C491  1  0.368000  0.973000  0.871000  1
  C  C492  1  0.368000  0.898000  0.027000  1
  C  C493  1  0.368000  0.129000  0.102000  1
  C  C494  1  0.868000  0.102000  0.973000  1
  C  C495  1  0.868000  0.871000  0.898000  1
  C  C496  1  0.132000  0.973000  0.871000  1
  C  C497  1  0.594900  0.090400  0.205400  1
  C  C498  1  0.594900  0.115000  0.909600  1
  C  C499  1  0.594900  0.794600  0.885000  1
  C  C500  1  0.094900  0.885000  0.090400  1
  C  C501  1  0.094900  0.205400  0.115000  1
  C  C502  1  0.905100  0.090400  0.205400  1
  C  C503  1  0.405100  0.909600  0.794600  1
  C  C504  1  0.405100  0.885000  0.090400  1
  C  C505  1  0.405100  0.205400  0.115000  1
  C  C506  1  0.905100  0.115000  0.909600  1
  C  C507  1  0.905100  0.794600  0.885000  1
  C  C508  1  0.094900  0.909600  0.794600  1
  C  C509  1  0.279000  0.427000  0.245000  1
  C  C510  1  0.279000  0.818000  0.573000  1
  C  C511  1  0.279000  0.755000  0.182000  1
  C  C512  1  0.779000  0.182000  0.427000  1
  C  C513  1  0.779000  0.245000  0.818000  1
  C  C514  1  0.221000  0.427000  0.245000  1
  C  C515  1  0.721000  0.573000  0.755000  1
  C  C516  1  0.721000  0.182000  0.427000  1
  C  C517  1  0.721000  0.245000  0.818000  1
  C  C518  1  0.221000  0.818000  0.573000  1
  C  C519  1  0.221000  0.755000  0.182000  1
  C  C520  1  0.779000  0.573000  0.755000  1
  C  C521  1  0.635400  0.126200  0.299100  1
  C  C522  1  0.635400  0.172900  0.873800  1
  C  C523  1  0.635400  0.700900  0.827100  1
  C  C524  1  0.135400  0.827100  0.126200  1
  C  C525  1  0.135400  0.299100  0.172900  1
  C  C526  1  0.864600  0.126200  0.299100  1
  C  C527  1  0.364600  0.873800  0.700900  1
  C  C528  1  0.364600  0.827100  0.126200  1
  C  C529  1  0.364600  0.299100  0.172900  1
  C  C530  1  0.864600  0.172900  0.873800  1
  C  C531  1  0.864600  0.700900  0.827100  1
  C  C532  1  0.135400  0.873800  0.700900  1
  C  C533  1  0.421000  0.140000  0.486000  1
  C  C534  1  0.421000  0.346000  0.860000  1
  C  C535  1  0.421000  0.514000  0.654000  1
  C  C536  1  0.921000  0.654000  0.140000  1
  C  C537  1  0.921000  0.486000  0.346000  1
  C  C538  1  0.079000  0.140000  0.486000  1
  C  C539  1  0.579000  0.860000  0.514000  1
  C  C540  1  0.579000  0.654000  0.140000  1
  C  C541  1  0.579000  0.486000  0.346000  1
  C  C542  1  0.079000  0.346000  0.860000  1
  C  C543  1  0.079000  0.514000  0.654000  1
  C  C544  1  0.921000  0.860000  0.514000  1
  C  C545  1  0.482000  0.353000  0.703000  1
  C  C546  1  0.482000  0.350000  0.647000  1
  C  C547  1  0.482000  0.297000  0.650000  1
  C  C548  1  0.982000  0.650000  0.353000  1
  C  C549  1  0.982000  0.703000  0.350000  1
  C  C550  1  0.018000  0.353000  0.703000  1
  C  C551  1  0.518000  0.647000  0.297000  1
  C  C552  1  0.518000  0.650000  0.353000  1
  C  C553  1  0.518000  0.703000  0.350000  1
  C  C554  1  0.018000  0.350000  0.647000  1
  C  C555  1  0.018000  0.297000  0.650000  1
  C  C556  1  0.982000  0.647000  0.297000  1
  C  C557  1  0.527000  0.330000  0.624000  1
  C  C558  1  0.527000  0.294000  0.670000  1
  C  C559  1  0.527000  0.376000  0.706000  1
  C  C560  1  0.027000  0.706000  0.330000  1
  C  C561  1  0.027000  0.624000  0.294000  1
  C  C562  1  0.973000  0.330000  0.624000  1
  C  C563  1  0.473000  0.670000  0.376000  1
  C  C564  1  0.473000  0.706000  0.330000  1
  C  C565  1  0.473000  0.624000  0.294000  1
  C  C566  1  0.973000  0.294000  0.670000  1
  C  C567  1  0.973000  0.376000  0.706000  1
  C  C568  1  0.027000  0.670000  0.376000  1
  C  C569  1  0.378000  0.998000  0.391000  1
  C  C570  1  0.378000  0.393000  0.002000  1
  C  C571  1  0.378000  0.609000  0.607000  1
  C  C572  1  0.878000  0.607000  0.998000  1
  C  C573  1  0.878000  0.391000  0.393000  1
  C  C574  1  0.122000  0.998000  0.391000  1
  C  C575  1  0.622000  0.002000  0.609000  1
  C  C576  1  0.622000  0.607000  0.998000  1
  C  C577  1  0.622000  0.391000  0.393000  1
  C  C578  1  0.122000  0.393000  0.002000  1
  C  C579  1  0.122000  0.609000  0.607000  1
  C  C580  1  0.878000  0.002000  0.609000  1
  C  C581  1  0.270000  0.542000  0.294000  1
  C  C582  1  0.270000  0.752000  0.458000  1
  C  C583  1  0.270000  0.706000  0.248000  1
  C  C584  1  0.770000  0.248000  0.542000  1
  C  C585  1  0.770000  0.294000  0.752000  1
  C  C586  1  0.230000  0.542000  0.294000  1
  C  C587  1  0.730000  0.458000  0.706000  1
  C  C588  1  0.730000  0.248000  0.542000  1
  C  C589  1  0.730000  0.294000  0.752000  1
  C  C590  1  0.230000  0.752000  0.458000  1
  C  C591  1  0.230000  0.706000  0.248000  1
  C  C592  1  0.770000  0.458000  0.706000  1
  C  C593  1  0.286000  0.162000  0.472000  1
  C  C594  1  0.286000  0.310000  0.838000  1
  C  C595  1  0.286000  0.528000  0.690000  1
  C  C596  1  0.786000  0.690000  0.162000  1
  C  C597  1  0.786000  0.472000  0.310000  1
  C  C598  1  0.214000  0.162000  0.472000  1
  C  C599  1  0.714000  0.838000  0.528000  1
  C  C600  1  0.714000  0.690000  0.162000  1
  C  C601  1  0.714000  0.472000  0.310000  1
  C  C602  1  0.214000  0.310000  0.838000  1
  C  C603  1  0.214000  0.528000  0.690000  1
  C  C604  1  0.786000  0.838000  0.528000  1
  C  C605  1  0.250000  0.118000  0.269000  1.0
  C  C606  1  0.250000  0.151000  0.882000  1.0
  C  C607  1  0.250000  0.731000  0.849000  1.0
  C  C608  1  0.750000  0.849000  0.118000  1.0
  C  C609  1  0.750000  0.269000  0.151000  1.0
  C  C610  1  0.750000  0.882000  0.731000  1.0
  C  C611  1  0.250000  0.156100  0.248300  1.0
  C  C612  1  0.250000  0.092200  0.843900  1.0
  C  C613  1  0.250000  0.751700  0.907800  1.0
  C  C614  1  0.750000  0.907800  0.156100  1.0
  C  C615  1  0.750000  0.248300  0.092200  1.0
  C  C616  1  0.750000  0.843900  0.751700  1.0
  C  C617  1  0.250000  0.211000  0.285700  1.0
  C  C618  1  0.250000  0.074700  0.789000  1.0
  C  C619  1  0.250000  0.714300  0.925300  1.0
  C  C620  1  0.750000  0.925300  0.211000  1.0
  C  C621  1  0.750000  0.285700  0.074700  1.0
  C  C622  1  0.750000  0.789000  0.714300  1.0
  C  C623  1  0.250000  0.250800  0.270000  1.0
  C  C624  1  0.250000  0.019200  0.749200  1.0
  C  C625  1  0.250000  0.730000  0.980800  1.0
  C  C626  1  0.750000  0.980800  0.250800  1.0
  C  C627  1  0.750000  0.270000  0.019200  1.0
  C  C628  1  0.750000  0.749200  0.730000  1.0
  C  C629  1  0.250000  0.231400  0.213800  1.0
  C  C630  1  0.250000  0.982400  0.768600  1.0
  C  C631  1  0.250000  0.786200  0.017600  1.0
  C  C632  1  0.750000  0.017600  0.231400  1.0
  C  C633  1  0.750000  0.213800  0.982400  1.0
  C  C634  1  0.750000  0.768600  0.786200  1.0
  C  C635  1  0.250000  0.177800  0.176600  1.0
  C  C636  1  0.250000  0.998800  0.822200  1.0
  C  C637  1  0.250000  0.823400  0.001200  1.0
  C  C638  1  0.750000  0.001200  0.177800  1.0
  C  C639  1  0.750000  0.176600  0.998800  1.0
  C  C640  1  0.750000  0.822200  0.823400  1.0
  C  C641  1  0.250000  0.140300  0.194200  1.0
  C  C642  1  0.250000  0.053900  0.859700  1.0
  C  C643  1  0.250000  0.805800  0.946100  1.0
  C  C644  1  0.750000  0.946100  0.140300  1.0
  C  C645  1  0.750000  0.194200  0.053900  1.0
  C  C646  1  0.750000  0.859700  0.805800  1.0
  C  C647  1  0.250000  0.309800  0.312900  1.0
  C  C648  1  0.250000  0.003100  0.690200  1.0
  C  C649  1  0.250000  0.687100  0.996900  1.0
  C  C650  1  0.750000  0.996900  0.309800  1.0
  C  C651  1  0.750000  0.312900  0.003100  1.0
  C  C652  1  0.750000  0.690200  0.687100  1.0
  C  C653  1  0.250000  0.990600  0.341600  1.0
  C  C654  1  0.250000  0.351000  0.009400  1.0
  C  C655  1  0.250000  0.658400  0.649000  1.0
  C  C656  1  0.750000  0.649000  0.990600  1.0
  C  C657  1  0.750000  0.341600  0.351000  1.0
  C  C658  1  0.750000  0.009400  0.658400  1.0
  C  C659  1  0.250000  0.951700  0.362600  1.0
  C  C660  1  0.250000  0.410900  0.048300  1.0
  C  C661  1  0.250000  0.637400  0.589100  1.0
  C  C662  1  0.750000  0.589100  0.951700  1.0
  C  C663  1  0.750000  0.362600  0.410900  1.0
  C  C664  1  0.750000  0.048300  0.637400  1.0
  C  C665  1  0.250000  0.969800  0.418300  1.0
  C  C666  1  0.250000  0.448500  0.030200  1.0
  C  C667  1  0.250000  0.581700  0.551500  1.0
  C  C668  1  0.750000  0.551500  0.969800  1.0
  C  C669  1  0.750000  0.418300  0.448500  1.0
  C  C670  1  0.750000  0.030200  0.581700  1.0
  C  C671  1  0.250000  0.932200  0.435500  1.0
  C  C672  1  0.250000  0.503300  0.067800  1.0
  C  C673  1  0.250000  0.564500  0.496700  1.0
  C  C674  1  0.750000  0.496700  0.932200  1.0
  C  C675  1  0.750000  0.435500  0.503300  1.0
  C  C676  1  0.750000  0.067800  0.564500  1.0
  C  C677  1  0.250000  0.878000  0.398200  1.0
  C  C678  1  0.250000  0.520200  0.122000  1.0
  C  C679  1  0.250000  0.601800  0.479800  1.0
  C  C680  1  0.750000  0.479800  0.878000  1.0
  C  C681  1  0.750000  0.398200  0.520200  1.0
  C  C682  1  0.750000  0.122000  0.601800  1.0
  C  C683  1  0.250000  0.860700  0.344600  1.0
  C  C684  1  0.250000  0.483900  0.139300  1.0
  C  C685  1  0.250000  0.655400  0.516100  1.0
  C  C686  1  0.750000  0.516100  0.860700  1.0
  C  C687  1  0.750000  0.344600  0.483900  1.0
  C  C688  1  0.750000  0.139300  0.655400  1.0
  C  C689  1  0.250000  0.896500  0.326900  1.0
  C  C690  1  0.250000  0.430400  0.103500  1.0
  C  C691  1  0.250000  0.673100  0.569600  1.0
  C  C692  1  0.750000  0.569600  0.896500  1.0
  C  C693  1  0.750000  0.326900  0.430400  1.0
  C  C694  1  0.750000  0.103500  0.673100  1.0
  C  C695  1  0.250000  0.504900  0.455100  1.0
  C  C696  1  0.250000  0.950200  0.495100  1.0
  C  C697  1  0.250000  0.544900  0.049800  1.0
  C  C698  1  0.750000  0.049800  0.504900  1.0
  C  C699  1  0.750000  0.455100  0.950200  1.0
  C  C700  1  0.750000  0.495100  0.544900  1.0
  C  C701  1  0.250000  0.899000  0.167000  1.0
  C  C702  1  0.250000  0.268000  0.101000  1.0
  C  C703  1  0.250000  0.833000  0.732000  1.0
  C  C704  1  0.750000  0.732000  0.899000  1.0
  C  C705  1  0.750000  0.167000  0.268000  1.0
  C  C706  1  0.750000  0.101000  0.833000  1.0
  C  C707  1  0.250000  0.483000  0.280000  1.0
  C  C708  1  0.250000  0.797000  0.517000  1.0
  C  C709  1  0.250000  0.720000  0.203000  1.0
  C  C710  1  0.750000  0.203000  0.483000  1.0
  C  C711  1  0.750000  0.280000  0.797000  1.0
  C  C712  1  0.750000  0.517000  0.720000  1.0
  C  C713  1  0.338800  0.060100  0.305100  1.0
  C  C714  1  0.338800  0.245000  0.939900  1.0
  C  C715  1  0.338800  0.694900  0.755000  1.0
  C  C716  1  0.838800  0.755000  0.060100  1.0
  C  C717  1  0.838800  0.305100  0.245000  1.0
  C  C718  1  0.161200  0.060100  0.305100  1.0
  C  C719  1  0.661200  0.939900  0.694900  1.0
  C  C720  1  0.661200  0.755000  0.060100  1.0
  C  C721  1  0.661200  0.305100  0.245000  1.0
  C  C722  1  0.161200  0.245000  0.939900  1.0
  C  C723  1  0.161200  0.694900  0.755000  1.0
  C  C724  1  0.838800  0.939900  0.694900  1.0
  C  C725  1  0.391400  0.066400  0.299400  1.0
  C  C726  1  0.391400  0.233000  0.933600  1.0
  C  C727  1  0.391400  0.700600  0.767000  1.0
  C  C728  1  0.891400  0.767000  0.066400  1.0
  C  C729  1  0.891400  0.299400  0.233000  1.0
  C  C730  1  0.108600  0.066400  0.299400  1.0
  C  C731  1  0.608600  0.933600  0.700600  1.0
  C  C732  1  0.608600  0.767000  0.066400  1.0
  C  C733  1  0.608600  0.299400  0.233000  1.0
  C  C734  1  0.108600  0.233000  0.933600  1.0
  C  C735  1  0.108600  0.700600  0.767000  1.0
  C  C736  1  0.891400  0.933600  0.700600  1.0
  C  C737  1  0.412000  0.113400  0.341700  1.0
  C  C738  1  0.412000  0.228300  0.886600  1.0
  C  C739  1  0.412000  0.658300  0.771700  1.0
  C  C740  1  0.912000  0.771700  0.113400  1.0
  C  C741  1  0.912000  0.341700  0.228300  1.0
  C  C742  1  0.088000  0.113400  0.341700  1.0
  C  C743  1  0.588000  0.886600  0.658300  1.0
  C  C744  1  0.588000  0.771700  0.113400  1.0
  C  C745  1  0.588000  0.341700  0.228300  1.0
  C  C746  1  0.088000  0.228300  0.886600  1.0
  C  C747  1  0.088000  0.658300  0.771700  1.0
  C  C748  1  0.912000  0.886600  0.658300  1.0
  C  C749  1  0.461800  0.124700  0.338100  1.0
  C  C750  1  0.461800  0.213400  0.875300  1.0
  C  C751  1  0.461800  0.661900  0.786600  1.0
  C  C752  1  0.961800  0.786600  0.124700  1.0
  C  C753  1  0.961800  0.338100  0.213400  1.0
  C  C754  1  0.038200  0.124700  0.338100  1.0
  C  C755  1  0.538200  0.875300  0.661900  1.0
  C  C756  1  0.538200  0.786600  0.124700  1.0
  C  C757  1  0.538200  0.338100  0.213400  1.0
  C  C758  1  0.038200  0.213400  0.875300  1.0
  C  C759  1  0.038200  0.661900  0.786600  1.0
  C  C760  1  0.961800  0.875300  0.661900  1.0
  C  C761  1  0.486300  0.086800  0.293800  1.0
  C  C762  1  0.486300  0.207000  0.913200  1.0
  C  C763  1  0.486300  0.706200  0.793000  1.0
  C  C764  1  0.986300  0.793000  0.086800  1.0
  C  C765  1  0.986300  0.293800  0.207000  1.0
  C  C766  1  0.013700  0.086800  0.293800  1.0
  C  C767  1  0.513700  0.913200  0.706200  1.0
  C  C768  1  0.513700  0.793000  0.086800  1.0
  C  C769  1  0.513700  0.293800  0.207000  1.0
  C  C770  1  0.013700  0.207000  0.913200  1.0
  C  C771  1  0.013700  0.706200  0.793000  1.0
  C  C772  1  0.986300  0.913200  0.706200  1.0
  C  C773  1  0.465500  0.043000  0.252700  1.0
  C  C774  1  0.465500  0.209700  0.957000  1.0
  C  C775  1  0.465500  0.747300  0.790300  1.0
  C  C776  1  0.965500  0.790300  0.043000  1.0
  C  C777  1  0.965500  0.252700  0.209700  1.0
  C  C778  1  0.034500  0.043000  0.252700  1.0
  C  C779  1  0.534500  0.957000  0.747300  1.0
  C  C780  1  0.534500  0.790300  0.043000  1.0
  C  C781  1  0.534500  0.252700  0.209700  1.0
  C  C782  1  0.034500  0.209700  0.957000  1.0
  C  C783  1  0.034500  0.747300  0.790300  1.0
  C  C784  1  0.965500  0.957000  0.747300  1.0
  C  C785  1  0.418200  0.032500  0.255900  1.0
  C  C786  1  0.418200  0.223400  0.967500  1.0
  C  C787  1  0.418200  0.744100  0.776600  1.0
  C  C788  1  0.918200  0.776600  0.032500  1.0
  C  C789  1  0.918200  0.255900  0.223400  1.0
  C  C790  1  0.081800  0.032500  0.255900  1.0
  C  C791  1  0.581800  0.967500  0.744100  1.0
  C  C792  1  0.581800  0.776600  0.032500  1.0
  C  C793  1  0.581800  0.255900  0.223400  1.0
  C  C794  1  0.081800  0.223400  0.967500  1.0
  C  C795  1  0.081800  0.744100  0.776600  1.0
  C  C796  1  0.918200  0.967500  0.744100  1.0
  C  C797  1  0.481400  0.176300  0.380700  1.0
  C  C798  1  0.481400  0.204400  0.823700  1.0
  C  C799  1  0.481400  0.619300  0.795600  1.0
  C  C800  1  0.981400  0.795600  0.176300  1.0
  C  C801  1  0.981400  0.380700  0.204400  1.0
  C  C802  1  0.018600  0.176300  0.380700  1.0
  C  C803  1  0.518600  0.823700  0.619300  1.0
  C  C804  1  0.518600  0.795600  0.176300  1.0
  C  C805  1  0.518600  0.380700  0.204400  1.0
  C  C806  1  0.018600  0.204400  0.823700  1.0
  C  C807  1  0.018600  0.619300  0.795600  1.0
  C  C808  1  0.981400  0.823700  0.619300  1.0
  C  C809  1  0.339400  0.398000  0.379300  1.0
  C  C810  1  0.339400  0.981300  0.602000  1.0
  C  C811  1  0.339400  0.620700  0.018700  1.0
  C  C812  1  0.839400  0.018700  0.398000  1.0
  C  C813  1  0.839400  0.379300  0.981300  1.0
  C  C814  1  0.160600  0.398000  0.379300  1.0
  C  C815  1  0.660600  0.602000  0.620700  1.0
  C  C816  1  0.660600  0.018700  0.398000  1.0
  C  C817  1  0.660600  0.379300  0.981300  1.0
  C  C818  1  0.160600  0.981300  0.602000  1.0
  C  C819  1  0.160600  0.620700  0.018700  1.0
  C  C820  1  0.839400  0.602000  0.620700  1.0
  C  C821  1  0.392200  0.386400  0.374400  1.0
  C  C822  1  0.392200  0.988000  0.613600  1.0
  C  C823  1  0.392200  0.625600  0.012000  1.0
  C  C824  1  0.892200  0.012000  0.386400  1.0
  C  C825  1  0.892200  0.374400  0.988000  1.0
  C  C826  1  0.107800  0.386400  0.374400  1.0
  C  C827  1  0.607800  0.613600  0.625600  1.0
  C  C828  1  0.607800  0.012000  0.386400  1.0
  C  C829  1  0.607800  0.374400  0.988000  1.0
  C  C830  1  0.107800  0.988000  0.613600  1.0
  C  C831  1  0.107800  0.625600  0.012000  1.0
  C  C832  1  0.892200  0.613600  0.625600  1.0
  C  C833  1  0.412600  0.359400  0.397000  1.0
  C  C834  1  0.412600  0.037600  0.640600  1.0
  C  C835  1  0.412600  0.603000  0.962400  1.0
  C  C836  1  0.912600  0.962400  0.359400  1.0
  C  C837  1  0.912600  0.397000  0.037600  1.0
  C  C838  1  0.087400  0.359400  0.397000  1.0
  C  C839  1  0.587400  0.640600  0.603000  1.0
  C  C840  1  0.587400  0.962400  0.359400  1.0
  C  C841  1  0.587400  0.397000  0.037600  1.0
  C  C842  1  0.087400  0.037600  0.640600  1.0
  C  C843  1  0.087400  0.603000  0.962400  1.0
  C  C844  1  0.912600  0.640600  0.603000  1.0
  C  C845  1  0.460000  0.346500  0.389400  1.0
  C  C846  1  0.460000  0.042900  0.653500  1.0
  C  C847  1  0.460000  0.610600  0.957100  1.0
  C  C848  1  0.960000  0.957100  0.346500  1.0
  C  C849  1  0.960000  0.389400  0.042900  1.0
  C  C850  1  0.040000  0.346500  0.389400  1.0
  C  C851  1  0.540000  0.653500  0.610600  1.0
  C  C852  1  0.540000  0.957100  0.346500  1.0
  C  C853  1  0.540000  0.389400  0.042900  1.0
  C  C854  1  0.040000  0.042900  0.653500  1.0
  C  C855  1  0.040000  0.610600  0.957100  1.0
  C  C856  1  0.960000  0.653500  0.610600  1.0
  C  C857  1  0.488100  0.358900  0.358800  1.0
  C  C858  1  0.488100  0.999900  0.641100  1.0
  C  C859  1  0.488100  0.641200  0.000100  1.0
  C  C860  1  0.988100  0.000100  0.358900  1.0
  C  C861  1  0.988100  0.358800  0.999900  1.0
  C  C862  1  0.011900  0.358900  0.358800  1.0
  C  C863  1  0.511900  0.641100  0.641200  1.0
  C  C864  1  0.511900  0.000100  0.358900  1.0
  C  C865  1  0.511900  0.358800  0.999900  1.0
  C  C866  1  0.011900  0.999900  0.641100  1.0
  C  C867  1  0.011900  0.641200  0.000100  1.0
  C  C868  1  0.988100  0.641100  0.641200  1.0
  C  C869  1  0.466700  0.388000  0.338000  1.0
  C  C870  1  0.466700  0.950000  0.612000  1.0
  C  C871  1  0.466700  0.662000  0.050000  1.0
  C  C872  1  0.966700  0.050000  0.388000  1.0
  C  C873  1  0.966700  0.338000  0.950000  1.0
  C  C874  1  0.033300  0.388000  0.338000  1.0
  C  C875  1  0.533300  0.612000  0.662000  1.0
  C  C876  1  0.533300  0.050000  0.388000  1.0
  C  C877  1  0.533300  0.338000  0.950000  1.0
  C  C878  1  0.033300  0.950000  0.612000  1.0
  C  C879  1  0.033300  0.662000  0.050000  1.0
  C  C880  1  0.966700  0.612000  0.662000  1.0
  C  C881  1  0.420600  0.402400  0.345500  1.0
  C  C882  1  0.420600  0.943100  0.597600  1.0
  C  C883  1  0.420600  0.654500  0.056900  1.0
  C  C884  1  0.920600  0.056900  0.402400  1.0
  C  C885  1  0.920600  0.345500  0.943100  1.0
  C  C886  1  0.079400  0.402400  0.345500  1.0
  C  C887  1  0.579400  0.597600  0.654500  1.0
  C  C888  1  0.579400  0.056900  0.402400  1.0
  C  C889  1  0.579400  0.345500  0.943100  1.0
  C  C890  1  0.079400  0.943100  0.597600  1.0
  C  C891  1  0.079400  0.654500  0.056900  1.0
  C  C892  1  0.920600  0.597600  0.654500  1.0
  C  C893  1  0.481600  0.314200  0.411500  1.0
  C  C894  1  0.481600  0.097300  0.685800  1.0
  C  C895  1  0.481600  0.588500  0.902700  1.0
  C  C896  1  0.981600  0.902700  0.314200  1.0
  C  C897  1  0.981600  0.411500  0.097300  1.0
  C  C898  1  0.018400  0.314200  0.411500  1.0
  C  C899  1  0.518400  0.685800  0.588500  1.0
  C  C900  1  0.518400  0.902700  0.314200  1.0
  C  C901  1  0.518400  0.411500  0.097300  1.0
  C  C902  1  0.018400  0.097300  0.685800  1.0
  C  C903  1  0.018400  0.588500  0.902700  1.0
  C  C904  1  0.981600  0.685800  0.588500  1.0
  C  C905  1  0.555700  0.347000  0.527000  1.0
  C  C906  1  0.555700  0.180000  0.653000  1.0
  C  C907  1  0.555700  0.473000  0.820000  1.0
  C  C908  1  0.055700  0.820000  0.347000  1.0
  C  C909  1  0.055700  0.527000  0.180000  1.0
  C  C910  1  0.944300  0.347000  0.527000  1.0
  C  C911  1  0.444300  0.653000  0.473000  1.0
  C  C912  1  0.444300  0.820000  0.347000  1.0
  C  C913  1  0.444300  0.527000  0.180000  1.0
  C  C914  1  0.944300  0.180000  0.653000  1.0
  C  C915  1  0.944300  0.473000  0.820000  1.0
  C  C916  1  0.055700  0.653000  0.473000  1.0
  C  C917  1  0.578800  0.396000  0.572100  1.0
  C  C918  1  0.578800  0.176100  0.604000  1.0
  C  C919  1  0.578800  0.427900  0.823900  1.0
  C  C920  1  0.078800  0.823900  0.396000  1.0
  C  C921  1  0.078800  0.572100  0.176100  1.0
  C  C922  1  0.921200  0.396000  0.572100  1.0
  C  C923  1  0.421200  0.604000  0.427900  1.0
  C  C924  1  0.421200  0.823900  0.396000  1.0
  C  C925  1  0.421200  0.572100  0.176100  1.0
  C  C926  1  0.921200  0.176100  0.604000  1.0
  C  C927  1  0.921200  0.427900  0.823900  1.0
  C  C928  1  0.078800  0.604000  0.427900  1.0
  C  C929  1  0.556600  0.424300  0.619500  1.0
  C  C930  1  0.556600  0.195200  0.575700  1.0
  C  C931  1  0.556600  0.380500  0.804800  1.0
  C  C932  1  0.056600  0.804800  0.424300  1.0
  C  C933  1  0.056600  0.619500  0.195200  1.0
  C  C934  1  0.943400  0.424300  0.619500  1.0
  C  C935  1  0.443400  0.575700  0.380500  1.0
  C  C936  1  0.443400  0.804800  0.424300  1.0
  C  C937  1  0.443400  0.619500  0.195200  1.0
  C  C938  1  0.943400  0.195200  0.575700  1.0
  C  C939  1  0.943400  0.380500  0.804800  1.0
  C  C940  1  0.056600  0.575700  0.380500  1.0
  C  C941  1  0.579500  0.468700  0.661600  1.0
  C  C942  1  0.579500  0.192900  0.531300  1.0
  C  C943  1  0.579500  0.338400  0.807100  1.0
  C  C944  1  0.079500  0.807100  0.468700  1.0
  C  C945  1  0.079500  0.661600  0.192900  1.0
  C  C946  1  0.920500  0.468700  0.661600  1.0
  C  C947  1  0.420500  0.531300  0.338400  1.0
  C  C948  1  0.420500  0.807100  0.468700  1.0
  C  C949  1  0.420500  0.661600  0.192900  1.0
  C  C950  1  0.920500  0.192900  0.531300  1.0
  C  C951  1  0.920500  0.338400  0.807100  1.0
  C  C952  1  0.079500  0.531300  0.338400  1.0
  C  C953  1  0.623800  0.483000  0.655000  1.0
  C  C954  1  0.623800  0.172000  0.517000  1.0
  C  C955  1  0.623800  0.345000  0.828000  1.0
  C  C956  1  0.123800  0.828000  0.483000  1.0
  C  C957  1  0.123800  0.655000  0.172000  1.0
  C  C958  1  0.876200  0.483000  0.655000  1.0
  C  C959  1  0.376200  0.517000  0.345000  1.0
  C  C960  1  0.376200  0.828000  0.483000  1.0
  C  C961  1  0.376200  0.655000  0.172000  1.0
  C  C962  1  0.876200  0.172000  0.517000  1.0
  C  C963  1  0.876200  0.345000  0.828000  1.0
  C  C964  1  0.123800  0.517000  0.345000  1.0
  C  C965  1  0.647700  0.452600  0.606600  1.0
  C  C966  1  0.647700  0.154000  0.547400  1.0
  C  C967  1  0.647700  0.393400  0.846000  1.0
  C  C968  1  0.147700  0.846000  0.452600  1.0
  C  C969  1  0.147700  0.606600  0.154000  1.0
  C  C970  1  0.852300  0.452600  0.606600  1.0
  C  C971  1  0.352300  0.547400  0.393400  1.0
  C  C972  1  0.352300  0.846000  0.452600  1.0
  C  C973  1  0.352300  0.606600  0.154000  1.0
  C  C974  1  0.852300  0.154000  0.547400  1.0
  C  C975  1  0.852300  0.393400  0.846000  1.0
  C  C976  1  0.147700  0.547400  0.393400  1.0
  C  C977  1  0.626500  0.411700  0.567400  1.0
  C  C978  1  0.626500  0.155700  0.588300  1.0
  C  C979  1  0.626500  0.432600  0.844300  1.0
  C  C980  1  0.126500  0.844300  0.411700  1.0
  C  C981  1  0.126500  0.567400  0.155700  1.0
  C  C982  1  0.873500  0.411700  0.567400  1.0
  C  C983  1  0.373500  0.588300  0.432600  1.0
  C  C984  1  0.373500  0.844300  0.411700  1.0
  C  C985  1  0.373500  0.567400  0.155700  1.0
  C  C986  1  0.873500  0.155700  0.588300  1.0
  C  C987  1  0.873500  0.432600  0.844300  1.0
  C  C988  1  0.126500  0.588300  0.432600  1.0
  C  C989  1  0.555600  0.216200  0.498500  1.0
  C  C990  1  0.555600  0.282300  0.783800  1.0
  C  C991  1  0.555600  0.501500  0.717700  1.0
  C  C992  1  0.055600  0.717700  0.216200  1.0
  C  C993  1  0.055600  0.498500  0.282300  1.0
  C  C994  1  0.944400  0.216200  0.498500  1.0
  C  C995  1  0.444400  0.783800  0.501500  1.0
  C  C996  1  0.444400  0.717700  0.216200  1.0
  C  C997  1  0.444400  0.498500  0.282300  1.0
  C  C998  1  0.944400  0.282300  0.783800  1.0
  C  C999  1  0.944400  0.501500  0.717700  1.0
  C  C1000  1  0.055600  0.783800  0.501500  1.0
  C  C1001  1  0.635600  0.271000  0.358000  1.0
  C  C1002  1  0.635600  0.087000  0.729000  1.0
  C  C1003  1  0.635600  0.642000  0.913000  1.0
  C  C1004  1  0.135600  0.913000  0.271000  1.0
  C  C1005  1  0.135600  0.358000  0.087000  1.0
  C  C1006  1  0.864400  0.271000  0.358000  1.0
  C  C1007  1  0.364400  0.729000  0.642000  1.0
  C  C1008  1  0.364400  0.913000  0.271000  1.0
  C  C1009  1  0.364400  0.358000  0.087000  1.0
  C  C1010  1  0.864400  0.087000  0.729000  1.0
  C  C1011  1  0.864400  0.642000  0.913000  1.0
  C  C1012  1  0.135600  0.729000  0.642000  1.0
  C  C1013  1  0.394000  0.265000  0.545000  1.0
  C  C1014  1  0.394000  0.280000  0.735000  1.0
  C  C1015  1  0.394000  0.455000  0.720000  1.0
  C  C1016  1  0.894000  0.720000  0.265000  1.0
  C  C1017  1  0.894000  0.545000  0.280000  1.0
  C  C1018  1  0.106000  0.265000  0.545000  1.0
  C  C1019  1  0.606000  0.735000  0.455000  1.0
  C  C1020  1  0.606000  0.720000  0.265000  1.0
  C  C1021  1  0.606000  0.545000  0.280000  1.0
  C  C1022  1  0.106000  0.280000  0.735000  1.0
  C  C1023  1  0.106000  0.455000  0.720000  1.0
  C  C1024  1  0.894000  0.735000  0.455000  1.0
  O  O1025  1  0.250000  0.164800  0.436000  1
  O  O1026  1  0.250000  0.271200  0.835200  1
  O  O1027  1  0.250000  0.564000  0.728800  1
  O  O1028  1  0.750000  0.728800  0.164800  1
  O  O1029  1  0.750000  0.436000  0.271200  1
  O  O1030  1  0.750000  0.835200  0.564000  1
  O  O1031  1  0.250000  0.137000  0.319200  1.0
  O  O1032  1  0.250000  0.182200  0.863000  1.0
  O  O1033  1  0.250000  0.680800  0.817800  1.0
  O  O1034  1  0.750000  0.817800  0.137000  1.0
  O  O1035  1  0.750000  0.319200  0.182200  1.0
  O  O1036  1  0.750000  0.863000  0.680800  1.0
  O  O1037  1  0.250000  0.067800  0.233800  1.0
  O  O1038  1  0.250000  0.166000  0.932200  1.0
  O  O1039  1  0.250000  0.766200  0.834000  1.0
  O  O1040  1  0.750000  0.834000  0.067800  1.0
  O  O1041  1  0.750000  0.233800  0.166000  1.0
  O  O1042  1  0.750000  0.932200  0.766200  1.0
  O  O1043  1  0.250000  0.320300  0.360200  1.0
  O  O1044  1  0.250000  0.039900  0.679700  1.0
  O  O1045  1  0.250000  0.639800  0.960100  1.0
  O  O1046  1  0.750000  0.960100  0.320300  1.0
  O  O1047  1  0.750000  0.360200  0.039900  1.0
  O  O1048  1  0.750000  0.679700  0.639800  1.0
  O  O1049  1  0.250000  0.341700  0.295700  1.0
  O  O1050  1  0.250000  0.954000  0.658300  1.0
  O  O1051  1  0.250000  0.704300  0.046000  1.0
  O  O1052  1  0.750000  0.046000  0.341700  1.0
  O  O1053  1  0.750000  0.295700  0.954000  1.0
  O  O1054  1  0.750000  0.658300  0.704300  1.0
  O  O1055  1  0.250000  0.946300  0.174400  1.0
  O  O1056  1  0.250000  0.228100  0.053700  1.0
  O  O1057  1  0.250000  0.825600  0.771900  1.0
  O  O1058  1  0.750000  0.771900  0.946300  1.0
  O  O1059  1  0.750000  0.174400  0.228100  1.0
  O  O1060  1  0.750000  0.053700  0.825600  1.0
  O  O1061  1  0.250000  0.040300  0.377700  1.0
  O  O1062  1  0.250000  0.337400  0.959700  1.0
  O  O1063  1  0.250000  0.622300  0.662600  1.0
  O  O1064  1  0.750000  0.662600  0.040300  1.0
  O  O1065  1  0.750000  0.377700  0.337400  1.0
  O  O1066  1  0.750000  0.959700  0.622300  1.0
  O  O1067  1  0.250000  0.971600  0.291800  1.0
  O  O1068  1  0.250000  0.320200  0.028400  1.0
  O  O1069  1  0.250000  0.708200  0.679800  1.0
  O  O1070  1  0.750000  0.679800  0.971600  1.0
  O  O1071  1  0.750000  0.291800  0.320200  1.0
  O  O1072  1  0.750000  0.028400  0.708200  1.0
  O  O1073  1  0.250000  0.473200  0.472900  1.0
  O  O1074  1  0.250000  0.999700  0.526800  1.0
  O  O1075  1  0.250000  0.527100  0.000300  1.0
  O  O1076  1  0.750000  0.000300  0.473200  1.0
  O  O1077  1  0.750000  0.472900  0.999700  1.0
  O  O1078  1  0.750000  0.526800  0.527100  1.0
  O  O1079  1  0.250000  0.492900  0.406500  1.0
  O  O1080  1  0.250000  0.913600  0.507100  1.0
  O  O1081  1  0.250000  0.593500  0.086400  1.0
  O  O1082  1  0.750000  0.086400  0.492900  1.0
  O  O1083  1  0.750000  0.406500  0.913600  1.0
  O  O1084  1  0.750000  0.507100  0.593500  1.0
  O  O1085  1  0.250000  0.369000  0.484000  1.0
  O  O1086  1  0.250000  0.115000  0.631000  1.0
  O  O1087  1  0.250000  0.516000  0.885000  1.0
  O  O1088  1  0.750000  0.885000  0.369000  1.0
  O  O1089  1  0.750000  0.484000  0.115000  1.0
  O  O1090  1  0.750000  0.631000  0.516000  1.0
  O  O1091  1  0.250000  0.440100  0.283100  1.0
  O  O1092  1  0.250000  0.843000  0.559900  1.0
  O  O1093  1  0.250000  0.716900  0.157000  1.0
  O  O1094  1  0.750000  0.157000  0.440100  1.0
  O  O1095  1  0.750000  0.283100  0.843000  1.0
  O  O1096  1  0.750000  0.559900  0.716900  1.0
  O  O1097  1  0.319200  0.022300  0.263600  1.0
  O  O1098  1  0.319200  0.241300  0.977700  1.0
  O  O1099  1  0.319200  0.736400  0.758700  1.0
  O  O1100  1  0.819200  0.758700  0.022300  1.0
  O  O1101  1  0.819200  0.263600  0.241300  1.0
  O  O1102  1  0.180800  0.022300  0.263600  1.0
  O  O1103  1  0.680800  0.977700  0.736400  1.0
  O  O1104  1  0.680800  0.758700  0.022300  1.0
  O  O1105  1  0.680800  0.263600  0.241300  1.0
  O  O1106  1  0.180800  0.241300  0.977700  1.0
  O  O1107  1  0.180800  0.736400  0.758700  1.0
  O  O1108  1  0.819200  0.977700  0.736400  1.0
  O  O1109  1  0.318500  0.090900  0.347900  1.0
  O  O1110  1  0.318500  0.257000  0.909100  1.0
  O  O1111  1  0.318500  0.652100  0.743000  1.0
  O  O1112  1  0.818500  0.743000  0.090900  1.0
  O  O1113  1  0.818500  0.347900  0.257000  1.0
  O  O1114  1  0.181500  0.090900  0.347900  1.0
  O  O1115  1  0.681500  0.909100  0.652100  1.0
  O  O1116  1  0.681500  0.743000  0.090900  1.0
  O  O1117  1  0.681500  0.347900  0.257000  1.0
  O  O1118  1  0.181500  0.257000  0.909100  1.0
  O  O1119  1  0.181500  0.652100  0.743000  1.0
  O  O1120  1  0.818500  0.909100  0.652100  1.0
  O  O1121  1  0.457700  0.203000  0.423400  1.0
  O  O1122  1  0.457700  0.220400  0.797000  1.0
  O  O1123  1  0.457700  0.576600  0.779600  1.0
  O  O1124  1  0.957700  0.779600  0.203000  1.0
  O  O1125  1  0.957700  0.423400  0.220400  1.0
  O  O1126  1  0.042300  0.203000  0.423400  1.0
  O  O1127  1  0.542300  0.797000  0.576600  1.0
  O  O1128  1  0.542300  0.779600  0.203000  1.0
  O  O1129  1  0.542300  0.423400  0.220400  1.0
  O  O1130  1  0.042300  0.220400  0.797000  1.0
  O  O1131  1  0.042300  0.576600  0.779600  1.0
  O  O1132  1  0.957700  0.797000  0.576600  1.0
  O  O1133  1  0.522700  0.187200  0.370600  1.0
  O  O1134  1  0.522700  0.183400  0.812800  1.0
  O  O1135  1  0.522700  0.629400  0.816600  1.0
  O  O1136  1  0.022700  0.816600  0.187200  1.0
  O  O1137  1  0.022700  0.370600  0.183400  1.0
  O  O1138  1  0.977300  0.187200  0.370600  1.0
  O  O1139  1  0.477300  0.812800  0.629400  1.0
  O  O1140  1  0.477300  0.816600  0.187200  1.0
  O  O1141  1  0.477300  0.370600  0.183400  1.0
  O  O1142  1  0.977300  0.183400  0.812800  1.0
  O  O1143  1  0.977300  0.629400  0.816600  1.0
  O  O1144  1  0.022700  0.812800  0.629400  1.0
  O  O1145  1  0.319300  0.393000  0.416500  1.0
  O  O1146  1  0.319300  0.023500  0.607000  1.0
  O  O1147  1  0.319300  0.583500  0.976500  1.0
  O  O1148  1  0.819300  0.976500  0.393000  1.0
  O  O1149  1  0.819300  0.416500  0.023500  1.0
  O  O1150  1  0.180700  0.393000  0.416500  1.0
  O  O1151  1  0.680700  0.607000  0.583500  1.0
  O  O1152  1  0.680700  0.976500  0.393000  1.0
  O  O1153  1  0.680700  0.416500  0.023500  1.0
  O  O1154  1  0.180700  0.023500  0.607000  1.0
  O  O1155  1  0.180700  0.583500  0.976500  1.0
  O  O1156  1  0.819300  0.607000  0.583500  1.0
  O  O1157  1  0.319600  0.414200  0.351200  1.0
  O  O1158  1  0.319600  0.937000  0.585800  1.0
  O  O1159  1  0.319600  0.648800  0.063000  1.0
  O  O1160  1  0.819600  0.063000  0.414200  1.0
  O  O1161  1  0.819600  0.351200  0.937000  1.0
  O  O1162  1  0.180400  0.414200  0.351200  1.0
  O  O1163  1  0.680400  0.585800  0.648800  1.0
  O  O1164  1  0.680400  0.063000  0.414200  1.0
  O  O1165  1  0.680400  0.351200  0.937000  1.0
  O  O1166  1  0.180400  0.937000  0.585800  1.0
  O  O1167  1  0.180400  0.648800  0.063000  1.0
  O  O1168  1  0.819600  0.585800  0.648800  1.0
  O  O1169  1  0.457100  0.308700  0.445500  1.0
  O  O1170  1  0.457100  0.136800  0.691300  1.0
  O  O1171  1  0.457100  0.554500  0.863200  1.0
  O  O1172  1  0.957100  0.863200  0.308700  1.0
  O  O1173  1  0.957100  0.445500  0.136800  1.0
  O  O1174  1  0.042900  0.308700  0.445500  1.0
  O  O1175  1  0.542900  0.691300  0.554500  1.0
  O  O1176  1  0.542900  0.863200  0.308700  1.0
  O  O1177  1  0.542900  0.445500  0.136800  1.0
  O  O1178  1  0.042900  0.136800  0.691300  1.0
  O  O1179  1  0.042900  0.554500  0.863200  1.0
  O  O1180  1  0.957100  0.691300  0.554500  1.0
  O  O1181  1  0.522600  0.295400  0.396200  1.0
  O  O1182  1  0.522600  0.100800  0.704600  1.0
  O  O1183  1  0.522600  0.603800  0.899200  1.0
  O  O1184  1  0.022600  0.899200  0.295400  1.0
  O  O1185  1  0.022600  0.396200  0.100800  1.0
  O  O1186  1  0.977400  0.295400  0.396200  1.0
  O  O1187  1  0.477400  0.704600  0.603800  1.0
  O  O1188  1  0.477400  0.899200  0.295400  1.0
  O  O1189  1  0.477400  0.396200  0.100800  1.0
  O  O1190  1  0.977400  0.100800  0.704600  1.0
  O  O1191  1  0.977400  0.603800  0.899200  1.0
  O  O1192  1  0.022600  0.704600  0.603800  1.0
  O  O1193  1  0.514200  0.337600  0.534400  1.0
  O  O1194  1  0.514200  0.196800  0.662400  1.0
  O  O1195  1  0.514200  0.465600  0.803200  1.0
  O  O1196  1  0.014200  0.803200  0.337600  1.0
  O  O1197  1  0.014200  0.534400  0.196800  1.0
  O  O1198  1  0.985800  0.337600  0.534400  1.0
  O  O1199  1  0.485800  0.662400  0.465600  1.0
  O  O1200  1  0.485800  0.803200  0.337600  1.0
  O  O1201  1  0.485800  0.534400  0.196800  1.0
  O  O1202  1  0.985800  0.196800  0.662400  1.0
  O  O1203  1  0.985800  0.465600  0.803200  1.0
  O  O1204  1  0.014200  0.662400  0.465600  1.0
  O  O1205  1  0.580100  0.319400  0.484900  1.0
  O  O1206  1  0.580100  0.165500  0.680600  1.0
  O  O1207  1  0.580100  0.515100  0.834500  1.0
  O  O1208  1  0.080100  0.834500  0.319400  1.0
  O  O1209  1  0.080100  0.484900  0.165500  1.0
  O  O1210  1  0.919900  0.319400  0.484900  1.0
  O  O1211  1  0.419900  0.680600  0.515100  1.0
  O  O1212  1  0.419900  0.834500  0.319400  1.0
  O  O1213  1  0.419900  0.484900  0.165500  1.0
  O  O1214  1  0.919900  0.165500  0.680600  1.0
  O  O1215  1  0.919900  0.515100  0.834500  1.0
  O  O1216  1  0.080100  0.680600  0.515100  1.0
  O  O1217  1  0.513500  0.235300  0.514200  1.0
  O  O1218  1  0.513500  0.278900  0.764700  1.0
  O  O1219  1  0.513500  0.485800  0.721100  1.0
  O  O1220  1  0.013500  0.721100  0.235300  1.0
  O  O1221  1  0.013500  0.514200  0.278900  1.0
  O  O1222  1  0.986500  0.235300  0.514200  1.0
  O  O1223  1  0.486500  0.764700  0.485800  1.0
  O  O1224  1  0.486500  0.721100  0.235300  1.0
  O  O1225  1  0.486500  0.514200  0.278900  1.0
  O  O1226  1  0.986500  0.278900  0.764700  1.0
  O  O1227  1  0.986500  0.485800  0.721100  1.0
  O  O1228  1  0.013500  0.764700  0.485800  1.0
  O  O1229  1  0.577800  0.214600  0.460100  1.0
  O  O1230  1  0.577800  0.245500  0.785400  1.0
  O  O1231  1  0.577800  0.539900  0.754500  1.0
  O  O1232  1  0.077800  0.754500  0.214600  1.0
  O  O1233  1  0.077800  0.460100  0.245500  1.0
  O  O1234  1  0.922200  0.214600  0.460100  1.0
  O  O1235  1  0.422200  0.785400  0.539900  1.0
  O  O1236  1  0.422200  0.754500  0.214600  1.0
  O  O1237  1  0.422200  0.460100  0.245500  1.0
  O  O1238  1  0.922200  0.245500  0.785400  1.0
  O  O1239  1  0.922200  0.539900  0.754500  1.0
  O  O1240  1  0.077800  0.785400  0.539900  1.0
  O  O1241  1  0.416300  0.289700  0.532300  1.0
  O  O1242  1  0.416300  0.242600  0.710300  1.0
  O  O1243  1  0.416300  0.467700  0.757400  1.0
  O  O1244  1  0.916300  0.757400  0.289700  1.0
  O  O1245  1  0.916300  0.532300  0.242600  1.0
  O  O1246  1  0.083700  0.289700  0.532300  1.0
  O  O1247  1  0.583700  0.710300  0.467700  1.0
  O  O1248  1  0.583700  0.757400  0.289700  1.0
  O  O1249  1  0.583700  0.532300  0.242600  1.0
  O  O1250  1  0.083700  0.242600  0.710300  1.0
  O  O1251  1  0.083700  0.467700  0.757400  1.0
  O  O1252  1  0.916300  0.710300  0.467700  1.0
  O  O1253  1  0.618800  0.235400  0.374000  1.0
  O  O1254  1  0.618800  0.138600  0.764600  1.0
  O  O1255  1  0.618800  0.626000  0.861400  1.0
  O  O1256  1  0.118800  0.861400  0.235400  1.0
  O  O1257  1  0.118800  0.374000  0.138600  1.0
  O  O1258  1  0.881200  0.235400  0.374000  1.0
  O  O1259  1  0.381200  0.764600  0.626000  1.0
  O  O1260  1  0.381200  0.861400  0.235400  1.0
  O  O1261  1  0.381200  0.374000  0.138600  1.0
  O  O1262  1  0.881200  0.138600  0.764600  1.0
  O  O1263  1  0.881200  0.626000  0.861400  1.0
  O  O1264  1  0.118800  0.764600  0.626000  1.0
