# generated using pymatgen
data_SiH33Pd2C44(N6O)2
_symmetry_space_group_name_H-M   'P 1'
_cell_length_a   27.62310000
_cell_length_b   27.62310000
_cell_length_c   34.15410000
_cell_angle_alpha   90.00000000
_cell_angle_beta   90.00000000
_cell_angle_gamma   120.00000000
_symmetry_Int_Tables_number   1
_chemical_formula_structural   SiH33Pd2C44(N6O)2
_chemical_formula_sum   'Si12 H396 Pd24 C528 N144 O24'
_cell_volume   22569.31139353
_cell_formula_units_Z   12
loop_
 _symmetry_equiv_pos_site_id
 _symmetry_equiv_pos_as_xyz
  1  'x, y, z'
loop_
 _atom_site_type_symbol
 _atom_site_label
 _atom_site_symmetry_multiplicity
 _atom_site_fract_x
 _atom_site_fract_y
 _atom_site_fract_z
 _atom_site_occupancy
  Si  Si1  1  0.609700  0.342900  0.842660  1.0
  Si  Si2  1  0.733200  0.390300  0.842660  1.0
  Si  Si3  1  0.657100  0.266800  0.842660  1.0
  Si  Si4  1  0.266800  0.657100  0.657340  1.0
  Si  Si5  1  0.657100  0.390300  0.342660  1.0
  Si  Si6  1  0.609700  0.266800  0.342660  1.0
  Si  Si7  1  0.390300  0.657100  0.157340  1.0
  Si  Si8  1  0.266800  0.609700  0.157340  1.0
  Si  Si9  1  0.342900  0.733200  0.157340  1.0
  Si  Si10  1  0.733200  0.342900  0.342660  1.0
  Si  Si11  1  0.342900  0.609700  0.657340  1.0
  Si  Si12  1  0.390300  0.733200  0.657340  1.0
  H  H13  1  0.129000  0.450800  0.717700  1
  H  H14  1  0.321800  0.871000  0.717700  1
  H  H15  1  0.549200  0.678200  0.717700  1
  H  H16  1  0.678200  0.549200  0.782300  1
  H  H17  1  0.549200  0.871000  0.217700  1
  H  H18  1  0.129000  0.678200  0.217700  1
  H  H19  1  0.871000  0.549200  0.282300  1
  H  H20  1  0.678200  0.129000  0.282300  1
  H  H21  1  0.450800  0.321800  0.282300  1
  H  H22  1  0.321800  0.450800  0.217700  1
  H  H23  1  0.450800  0.129000  0.782300  1
  H  H24  1  0.871000  0.321800  0.782300  1
  H  H25  1  0.564500  0.580800  0.569300  1.0
  H  H26  1  0.016300  0.435500  0.569300  1.0
  H  H27  1  0.419200  0.983700  0.569300  1.0
  H  H28  1  0.983700  0.419200  0.930700  1.0
  H  H29  1  0.419200  0.435500  0.069300  1.0
  H  H30  1  0.564500  0.983700  0.069300  1.0
  H  H31  1  0.435500  0.419200  0.430700  1.0
  H  H32  1  0.983700  0.564500  0.430700  1.0
  H  H33  1  0.580800  0.016300  0.430700  1.0
  H  H34  1  0.016300  0.580800  0.069300  1.0
  H  H35  1  0.580800  0.564500  0.930700  1.0
  H  H36  1  0.435500  0.016300  0.930700  1.0
  H  H37  1  0.647600  0.603500  0.537700  1.0
  H  H38  1  0.955900  0.352400  0.537700  1.0
  H  H39  1  0.396500  0.044100  0.537700  1.0
  H  H40  1  0.044100  0.396500  0.962300  1.0
  H  H41  1  0.396500  0.352400  0.037700  1.0
  H  H42  1  0.647600  0.044100  0.037700  1.0
  H  H43  1  0.352400  0.396500  0.462300  1.0
  H  H44  1  0.044100  0.647600  0.462300  1.0
  H  H45  1  0.603500  0.955900  0.462300  1.0
  H  H46  1  0.955900  0.603500  0.037700  1.0
  H  H47  1  0.603500  0.647600  0.962300  1.0
  H  H48  1  0.352400  0.955900  0.962300  1.0
  H  H49  1  0.655100  0.535800  0.502300  1.0
  H  H50  1  0.880700  0.344900  0.502300  1.0
  H  H51  1  0.464200  0.119300  0.502300  1.0
  H  H52  1  0.119300  0.464200  0.997700  1.0
  H  H53  1  0.464200  0.344900  0.002300  1.0
  H  H54  1  0.655100  0.119300  0.002300  1.0
  H  H55  1  0.344900  0.464200  0.497700  1.0
  H  H56  1  0.119300  0.655100  0.497700  1.0
  H  H57  1  0.535800  0.880700  0.497700  1.0
  H  H58  1  0.880700  0.535800  0.002300  1.0
  H  H59  1  0.535800  0.655100  0.997700  1.0
  H  H60  1  0.344900  0.880700  0.997700  1.0
  H  H61  1  0.579500  0.445500  0.498600  1.0
  H  H62  1  0.866000  0.420500  0.498600  1.0
  H  H63  1  0.554500  0.134000  0.498600  1.0
  H  H64  1  0.134000  0.554500  0.001400  1.0
  H  H65  1  0.554500  0.420500  0.998600  1.0
  H  H66  1  0.579500  0.134000  0.998600  1.0
  H  H67  1  0.420500  0.554500  0.501400  1.0
  H  H68  1  0.134000  0.579500  0.501400  1.0
  H  H69  1  0.445500  0.866000  0.501400  1.0
  H  H70  1  0.866000  0.445500  0.998600  1.0
  H  H71  1  0.445500  0.579500  0.001400  1.0
  H  H72  1  0.420500  0.866000  0.001400  1.0
  H  H73  1  0.496700  0.366200  0.497200  1.0
  H  H74  1  0.869500  0.503300  0.497200  1.0
  H  H75  1  0.633800  0.130500  0.497200  1.0
  H  H76  1  0.130500  0.633800  0.002800  1.0
  H  H77  1  0.633800  0.503300  0.997200  1.0
  H  H78  1  0.496700  0.130500  0.997200  1.0
  H  H79  1  0.503300  0.633800  0.502800  1.0
  H  H80  1  0.130500  0.496700  0.502800  1.0
  H  H81  1  0.366200  0.869500  0.502800  1.0
  H  H82  1  0.869500  0.366200  0.997200  1.0
  H  H83  1  0.366200  0.496700  0.002800  1.0
  H  H84  1  0.503300  0.869500  0.002800  1.0
  H  H85  1  0.409400  0.286200  0.498900  1.0
  H  H86  1  0.876800  0.590600  0.498900  1.0
  H  H87  1  0.713800  0.123200  0.498900  1.0
  H  H88  1  0.123200  0.713800  0.001100  1.0
  H  H89  1  0.713800  0.590600  0.998900  1.0
  H  H90  1  0.409400  0.123200  0.998900  1.0
  H  H91  1  0.590600  0.713800  0.501100  1.0
  H  H92  1  0.123200  0.409400  0.501100  1.0
  H  H93  1  0.286200  0.876800  0.501100  1.0
  H  H94  1  0.876800  0.286200  0.998900  1.0
  H  H95  1  0.286200  0.409400  0.001100  1.0
  H  H96  1  0.590600  0.876800  0.001100  1.0
  H  H97  1  0.337900  0.284800  0.535400  1.0
  H  H98  1  0.946900  0.662100  0.535400  1.0
  H  H99  1  0.715200  0.053100  0.535400  1.0
  H  H100  1  0.053100  0.715200  0.964600  1.0
  H  H101  1  0.715200  0.662100  0.035400  1.0
  H  H102  1  0.337900  0.053100  0.035400  1.0
  H  H103  1  0.662100  0.715200  0.464600  1.0
  H  H104  1  0.053100  0.337900  0.464600  1.0
  H  H105  1  0.284800  0.946900  0.464600  1.0
  H  H106  1  0.946900  0.284800  0.035400  1.0
  H  H107  1  0.284800  0.337900  0.964600  1.0
  H  H108  1  0.662100  0.946900  0.964600  1.0
  H  H109  1  0.353800  0.363500  0.570300  1.0
  H  H110  1  0.009700  0.646200  0.570300  1.0
  H  H111  1  0.636500  0.990300  0.570300  1.0
  H  H112  1  0.990300  0.636500  0.929700  1.0
  H  H113  1  0.636500  0.646200  0.070300  1.0
  H  H114  1  0.353800  0.990300  0.070300  1.0
  H  H115  1  0.646200  0.636500  0.429700  1.0
  H  H116  1  0.990300  0.353800  0.429700  1.0
  H  H117  1  0.363500  0.009700  0.429700  1.0
  H  H118  1  0.009700  0.363500  0.070300  1.0
  H  H119  1  0.363500  0.353800  0.929700  1.0
  H  H120  1  0.646200  0.009700  0.929700  1.0
  H  H121  1  0.342100  0.464600  0.563700  1.0
  H  H122  1  0.122500  0.657900  0.563700  1.0
  H  H123  1  0.535400  0.877500  0.563700  1.0
  H  H124  1  0.877500  0.535400  0.936300  1.0
  H  H125  1  0.535400  0.657900  0.063700  1.0
  H  H126  1  0.342100  0.877500  0.063700  1.0
  H  H127  1  0.657900  0.535400  0.436300  1.0
  H  H128  1  0.877500  0.342100  0.436300  1.0
  H  H129  1  0.464600  0.122500  0.436300  1.0
  H  H130  1  0.122500  0.464600  0.063700  1.0
  H  H131  1  0.464600  0.342100  0.936300  1.0
  H  H132  1  0.657900  0.122500  0.936300  1.0
  H  H133  1  0.265000  0.456700  0.594100  1.0
  H  H134  1  0.191700  0.735000  0.594100  1.0
  H  H135  1  0.543300  0.808300  0.594100  1.0
  H  H136  1  0.808300  0.543300  0.905900  1.0
  H  H137  1  0.543300  0.735000  0.094100  1.0
  H  H138  1  0.265000  0.808300  0.094100  1.0
  H  H139  1  0.735000  0.543300  0.405900  1.0
  H  H140  1  0.808300  0.265000  0.405900  1.0
  H  H141  1  0.456700  0.191700  0.405900  1.0
  H  H142  1  0.191700  0.456700  0.094100  1.0
  H  H143  1  0.456700  0.265000  0.905900  1.0
  H  H144  1  0.735000  0.191700  0.905900  1.0
  H  H145  1  0.320300  0.426500  0.694100  1.0
  H  H146  1  0.106200  0.679700  0.694100  1.0
  H  H147  1  0.573500  0.893800  0.694100  1.0
  H  H148  1  0.893800  0.573500  0.805900  1.0
  H  H149  1  0.573500  0.679700  0.194100  1.0
  H  H150  1  0.320300  0.893800  0.194100  1.0
  H  H151  1  0.679700  0.573500  0.305900  1.0
  H  H152  1  0.893800  0.320300  0.305900  1.0
  H  H153  1  0.426500  0.106200  0.305900  1.0
  H  H154  1  0.106200  0.426500  0.194100  1.0
  H  H155  1  0.426500  0.320300  0.805900  1.0
  H  H156  1  0.679700  0.106200  0.805900  1.0
  H  H157  1  0.398400  0.438200  0.661800  1.0
  H  H158  1  0.039800  0.601600  0.661800  1.0
  H  H159  1  0.561800  0.960200  0.661800  1.0
  H  H160  1  0.960200  0.561800  0.838200  1.0
  H  H161  1  0.561800  0.601600  0.161800  1.0
  H  H162  1  0.398400  0.960200  0.161800  1.0
  H  H163  1  0.601600  0.561800  0.338200  1.0
  H  H164  1  0.960200  0.398400  0.338200  1.0
  H  H165  1  0.438200  0.039800  0.338200  1.0
  H  H166  1  0.039800  0.438200  0.161800  1.0
  H  H167  1  0.438200  0.398400  0.838200  1.0
  H  H168  1  0.601600  0.039800  0.838200  1.0
  H  H169  1  0.454300  0.586200  0.569600  1.0
  H  H170  1  0.131900  0.545700  0.569600  1.0
  H  H171  1  0.413800  0.868100  0.569600  1.0
  H  H172  1  0.868100  0.413800  0.930400  1.0
  H  H173  1  0.413800  0.545700  0.069600  1.0
  H  H174  1  0.454300  0.868100  0.069600  1.0
  H  H175  1  0.545700  0.413800  0.430400  1.0
  H  H176  1  0.868100  0.454300  0.430400  1.0
  H  H177  1  0.586200  0.131900  0.430400  1.0
  H  H178  1  0.131900  0.586200  0.069600  1.0
  H  H179  1  0.586200  0.454300  0.930400  1.0
  H  H180  1  0.545700  0.131900  0.930400  1.0
  H  H181  1  0.490200  0.671300  0.600400  1.0
  H  H182  1  0.181100  0.509800  0.600400  1.0
  H  H183  1  0.328700  0.818900  0.600400  1.0
  H  H184  1  0.818900  0.328700  0.899600  1.0
  H  H185  1  0.328700  0.509800  0.100400  1.0
  H  H186  1  0.490200  0.818900  0.100400  1.0
  H  H187  1  0.509800  0.328700  0.399600  1.0
  H  H188  1  0.818900  0.490200  0.399600  1.0
  H  H189  1  0.671300  0.181100  0.399600  1.0
  H  H190  1  0.181100  0.671300  0.100400  1.0
  H  H191  1  0.671300  0.490200  0.899600  1.0
  H  H192  1  0.509800  0.181100  0.899600  1.0
  H  H193  1  0.073900  0.461600  0.689100  1.0
  H  H194  1  0.387700  0.926100  0.689100  1.0
  H  H195  1  0.538400  0.612300  0.689100  1.0
  H  H196  1  0.612300  0.538400  0.810900  1.0
  H  H197  1  0.538400  0.926100  0.189100  1.0
  H  H198  1  0.073900  0.612300  0.189100  1.0
  H  H199  1  0.926100  0.538400  0.310900  1.0
  H  H200  1  0.612300  0.073900  0.310900  1.0
  H  H201  1  0.461600  0.387700  0.310900  1.0
  H  H202  1  0.387700  0.461600  0.189100  1.0
  H  H203  1  0.461600  0.073900  0.810900  1.0
  H  H204  1  0.926100  0.387700  0.810900  1.0
  H  H205  1  0.512800  0.533100  0.655100  1.0
  H  H206  1  0.020300  0.487200  0.655100  1.0
  H  H207  1  0.466900  0.979700  0.655100  1.0
  H  H208  1  0.979700  0.466900  0.844900  1.0
  H  H209  1  0.466900  0.487200  0.155100  1.0
  H  H210  1  0.512800  0.979700  0.155100  1.0
  H  H211  1  0.487200  0.466900  0.344900  1.0
  H  H212  1  0.979700  0.512800  0.344900  1.0
  H  H213  1  0.533100  0.020300  0.344900  1.0
  H  H214  1  0.020300  0.533100  0.155100  1.0
  H  H215  1  0.533100  0.512800  0.844900  1.0
  H  H216  1  0.487200  0.020300  0.844900  1.0
  H  H217  1  0.086900  0.395900  0.832100  1.0
  H  H218  1  0.309000  0.913100  0.832100  1.0
  H  H219  1  0.604100  0.691000  0.832100  1.0
  H  H220  1  0.691000  0.604100  0.667900  1.0
  H  H221  1  0.604100  0.913100  0.332100  1.0
  H  H222  1  0.086900  0.691000  0.332100  1.0
  H  H223  1  0.913100  0.604100  0.167900  1.0
  H  H224  1  0.691000  0.086900  0.167900  1.0
  H  H225  1  0.395900  0.309000  0.167900  1.0
  H  H226  1  0.309000  0.395900  0.332100  1.0
  H  H227  1  0.395900  0.086900  0.667900  1.0
  H  H228  1  0.913100  0.309000  0.667900  1.0
  H  H229  1  0.106300  0.424700  0.767900  1.0
  H  H230  1  0.318400  0.893700  0.767900  1.0
  H  H231  1  0.575300  0.681600  0.767900  1.0
  H  H232  1  0.681600  0.575300  0.732100  1.0
  H  H233  1  0.575300  0.893700  0.267900  1.0
  H  H234  1  0.106300  0.681600  0.267900  1.0
  H  H235  1  0.893700  0.575300  0.232100  1.0
  H  H236  1  0.681600  0.106300  0.232100  1.0
  H  H237  1  0.424700  0.318400  0.232100  1.0
  H  H238  1  0.318400  0.424700  0.267900  1.0
  H  H239  1  0.424700  0.106300  0.732100  1.0
  H  H240  1  0.893700  0.318400  0.732100  1.0
  H  H241  1  0.236800  0.397800  0.774000  1.0
  H  H242  1  0.161000  0.763200  0.774000  1.0
  H  H243  1  0.602200  0.839000  0.774000  1.0
  H  H244  1  0.839000  0.602200  0.726000  1.0
  H  H245  1  0.602200  0.763200  0.274000  1.0
  H  H246  1  0.236800  0.839000  0.274000  1.0
  H  H247  1  0.763200  0.602200  0.226000  1.0
  H  H248  1  0.839000  0.236800  0.226000  1.0
  H  H249  1  0.397800  0.161000  0.226000  1.0
  H  H250  1  0.161000  0.397800  0.274000  1.0
  H  H251  1  0.397800  0.236800  0.726000  1.0
  H  H252  1  0.763200  0.161000  0.726000  1.0
  H  H253  1  0.212400  0.369000  0.839700  1.0
  H  H254  1  0.156600  0.787600  0.839700  1.0
  H  H255  1  0.631000  0.843400  0.839700  1.0
  H  H256  1  0.843400  0.631000  0.660300  1.0
  H  H257  1  0.631000  0.787600  0.339700  1.0
  H  H258  1  0.212400  0.843400  0.339700  1.0
  H  H259  1  0.787600  0.631000  0.160300  1.0
  H  H260  1  0.843400  0.212400  0.160300  1.0
  H  H261  1  0.369000  0.156600  0.160300  1.0
  H  H262  1  0.156600  0.369000  0.339700  1.0
  H  H263  1  0.369000  0.212400  0.660300  1.0
  H  H264  1  0.787600  0.156600  0.660300  1.0
  H  H265  1  0.076000  0.276100  0.826800  1.0
  H  H266  1  0.200100  0.924000  0.826800  1.0
  H  H267  1  0.723900  0.799900  0.826800  1.0
  H  H268  1  0.799900  0.723900  0.673200  1.0
  H  H269  1  0.723900  0.924000  0.326800  1.0
  H  H270  1  0.076000  0.799900  0.326800  1.0
  H  H271  1  0.924000  0.723900  0.173200  1.0
  H  H272  1  0.799900  0.076000  0.173200  1.0
  H  H273  1  0.276100  0.200100  0.173200  1.0
  H  H274  1  0.200100  0.276100  0.326800  1.0
  H  H275  1  0.276100  0.076000  0.673200  1.0
  H  H276  1  0.924000  0.200100  0.673200  1.0
  H  H277  1  0.993800  0.184200  0.825000  1.0
  H  H278  1  0.190400  0.006200  0.825000  1.0
  H  H279  1  0.815800  0.809600  0.825000  1.0
  H  H280  1  0.809600  0.815800  0.675000  1.0
  H  H281  1  0.815800  0.006200  0.325000  1.0
  H  H282  1  0.993800  0.809600  0.325000  1.0
  H  H283  1  0.006200  0.815800  0.175000  1.0
  H  H284  1  0.809600  0.993800  0.175000  1.0
  H  H285  1  0.184200  0.190400  0.175000  1.0
  H  H286  1  0.190400  0.184200  0.325000  1.0
  H  H287  1  0.184200  0.993800  0.675000  1.0
  H  H288  1  0.006200  0.190400  0.675000  1.0
  H  H289  1  0.947200  0.149600  0.881600  1.0
  H  H290  1  0.202400  0.052800  0.881600  1.0
  H  H291  1  0.850400  0.797600  0.881600  1.0
  H  H292  1  0.797600  0.850400  0.618400  1.0
  H  H293  1  0.850400  0.052800  0.381600  1.0
  H  H294  1  0.947200  0.797600  0.381600  1.0
  H  H295  1  0.052800  0.850400  0.118400  1.0
  H  H296  1  0.797600  0.947200  0.118400  1.0
  H  H297  1  0.149600  0.202400  0.118400  1.0
  H  H298  1  0.202400  0.149600  0.381600  1.0
  H  H299  1  0.149600  0.947200  0.618400  1.0
  H  H300  1  0.052800  0.202400  0.618400  1.0
  H  H301  1  0.980200  0.169100  0.937100  1.0
  H  H302  1  0.188900  0.019800  0.937100  1.0
  H  H303  1  0.830900  0.811100  0.937100  1.0
  H  H304  1  0.811100  0.830900  0.562900  1.0
  H  H305  1  0.830900  0.019800  0.437100  1.0
  H  H306  1  0.980200  0.811100  0.437100  1.0
  H  H307  1  0.019800  0.830900  0.062900  1.0
  H  H308  1  0.811100  0.980200  0.062900  1.0
  H  H309  1  0.169100  0.188900  0.062900  1.0
  H  H310  1  0.188900  0.169100  0.437100  1.0
  H  H311  1  0.169100  0.980200  0.562900  1.0
  H  H312  1  0.019800  0.188900  0.562900  1.0
  H  H313  1  0.010900  0.219600  0.989600  1.0
  H  H314  1  0.208700  0.989100  0.989600  1.0
  H  H315  1  0.780400  0.791300  0.989600  1.0
  H  H316  1  0.791300  0.780400  0.510400  1.0
  H  H317  1  0.780400  0.989100  0.489600  1.0
  H  H318  1  0.010900  0.791300  0.489600  1.0
  H  H319  1  0.989100  0.780400  0.010400  1.0
  H  H320  1  0.791300  0.010900  0.010400  1.0
  H  H321  1  0.219600  0.208700  0.010400  1.0
  H  H322  1  0.208700  0.219600  0.489600  1.0
  H  H323  1  0.219600  0.010900  0.510400  1.0
  H  H324  1  0.989100  0.208700  0.510400  1.0
  H  H325  1  0.040700  0.266400  0.047300  1.0
  H  H326  1  0.225700  0.959300  0.047300  1.0
  H  H327  1  0.733600  0.774300  0.047300  1.0
  H  H328  1  0.774300  0.733600  0.452700  1.0
  H  H329  1  0.733600  0.959300  0.547300  1.0
  H  H330  1  0.040700  0.774300  0.547300  1.0
  H  H331  1  0.959300  0.733600  0.952700  1.0
  H  H332  1  0.774300  0.040700  0.952700  1.0
  H  H333  1  0.266400  0.225700  0.952700  1.0
  H  H334  1  0.225700  0.266400  0.547300  1.0
  H  H335  1  0.266400  0.040700  0.452700  1.0
  H  H336  1  0.959300  0.225700  0.452700  1.0
  H  H337  1  0.120500  0.356800  0.042900  1.0
  H  H338  1  0.236300  0.879500  0.042900  1.0
  H  H339  1  0.643200  0.763700  0.042900  1.0
  H  H340  1  0.763700  0.643200  0.457100  1.0
  H  H341  1  0.643200  0.879500  0.542900  1.0
  H  H342  1  0.120500  0.763700  0.542900  1.0
  H  H343  1  0.879500  0.643200  0.957100  1.0
  H  H344  1  0.763700  0.120500  0.957100  1.0
  H  H345  1  0.356800  0.236300  0.957100  1.0
  H  H346  1  0.236300  0.356800  0.542900  1.0
  H  H347  1  0.356800  0.120500  0.457100  1.0
  H  H348  1  0.879500  0.236300  0.457100  1.0
  H  H349  1  0.157800  0.396300  0.983500  1.0
  H  H350  1  0.238500  0.842200  0.983500  1.0
  H  H351  1  0.603700  0.761500  0.983500  1.0
  H  H352  1  0.761500  0.603700  0.516500  1.0
  H  H353  1  0.603700  0.842200  0.483500  1.0
  H  H354  1  0.157800  0.761500  0.483500  1.0
  H  H355  1  0.842200  0.603700  0.016500  1.0
  H  H356  1  0.761500  0.157800  0.016500  1.0
  H  H357  1  0.396300  0.238500  0.016500  1.0
  H  H358  1  0.238500  0.396300  0.483500  1.0
  H  H359  1  0.396300  0.157800  0.516500  1.0
  H  H360  1  0.842200  0.238500  0.516500  1.0
  H  H361  1  0.246500  0.429300  0.919100  1.0
  H  H362  1  0.182800  0.753500  0.919100  1.0
  H  H363  1  0.570700  0.817200  0.919100  1.0
  H  H364  1  0.817200  0.570700  0.580900  1.0
  H  H365  1  0.570700  0.753500  0.419100  1.0
  H  H366  1  0.246500  0.817200  0.419100  1.0
  H  H367  1  0.753500  0.570700  0.080900  1.0
  H  H368  1  0.817200  0.246500  0.080900  1.0
  H  H369  1  0.429300  0.182800  0.080900  1.0
  H  H370  1  0.182800  0.429300  0.419100  1.0
  H  H371  1  0.429300  0.246500  0.580900  1.0
  H  H372  1  0.753500  0.182800  0.580900  1.0
  H  H373  1  0.314500  0.524400  0.925500  1.0
  H  H374  1  0.209900  0.685500  0.925500  1.0
  H  H375  1  0.475600  0.790100  0.925500  1.0
  H  H376  1  0.790100  0.475600  0.574500  1.0
  H  H377  1  0.475600  0.685500  0.425500  1.0
  H  H378  1  0.314500  0.790100  0.425500  1.0
  H  H379  1  0.685500  0.475600  0.074500  1.0
  H  H380  1  0.790100  0.314500  0.074500  1.0
  H  H381  1  0.524400  0.209900  0.074500  1.0
  H  H382  1  0.209900  0.524400  0.425500  1.0
  H  H383  1  0.524400  0.314500  0.574500  1.0
  H  H384  1  0.685500  0.209900  0.574500  1.0
  H  H385  1  0.188700  0.557200  0.911900  1.0
  H  H386  1  0.368500  0.811300  0.911900  1.0
  H  H387  1  0.442800  0.631500  0.911900  1.0
  H  H388  1  0.631500  0.442800  0.588100  1.0
  H  H389  1  0.442800  0.811300  0.411900  1.0
  H  H390  1  0.188700  0.631500  0.411900  1.0
  H  H391  1  0.811300  0.442800  0.088100  1.0
  H  H392  1  0.631500  0.188700  0.088100  1.0
  H  H393  1  0.557200  0.368500  0.088100  1.0
  H  H394  1  0.368500  0.557200  0.411900  1.0
  H  H395  1  0.557200  0.188700  0.588100  1.0
  H  H396  1  0.811300  0.368500  0.588100  1.0
  H  H397  1  0.130900  0.466200  0.902700  1.0
  H  H398  1  0.335300  0.869100  0.902700  1.0
  H  H399  1  0.533800  0.664700  0.902700  1.0
  H  H400  1  0.664700  0.533800  0.597300  1.0
  H  H401  1  0.533800  0.869100  0.402700  1.0
  H  H402  1  0.130900  0.664700  0.402700  1.0
  H  H403  1  0.869100  0.533800  0.097300  1.0
  H  H404  1  0.664700  0.130900  0.097300  1.0
  H  H405  1  0.466200  0.335300  0.097300  1.0
  H  H406  1  0.335300  0.466200  0.402700  1.0
  H  H407  1  0.466200  0.130900  0.597300  1.0
  H  H408  1  0.869100  0.335300  0.597300  1.0
  Pd  Pd409  1  0.128380  0.358520  0.897050  1.0
  Pd  Pd410  1  0.230140  0.871620  0.897050  1.0
  Pd  Pd411  1  0.641480  0.769860  0.897050  1.0
  Pd  Pd412  1  0.769860  0.641480  0.602950  1.0
  Pd  Pd413  1  0.641480  0.871620  0.397050  1.0
  Pd  Pd414  1  0.128380  0.769860  0.397050  1.0
  Pd  Pd415  1  0.871620  0.641480  0.102950  1.0
  Pd  Pd416  1  0.769860  0.128380  0.102950  1.0
  Pd  Pd417  1  0.358520  0.230140  0.102950  1.0
  Pd  Pd418  1  0.230140  0.358520  0.397050  1.0
  Pd  Pd419  1  0.358520  0.128380  0.602950  1.0
  Pd  Pd420  1  0.871620  0.230140  0.602950  1.0
  Pd  Pd421  1  0.450310  0.476060  0.582220  1.0
  Pd  Pd422  1  0.025750  0.549690  0.582220  1.0
  Pd  Pd423  1  0.523940  0.974250  0.582220  1.0
  Pd  Pd424  1  0.974250  0.523940  0.917780  1.0
  Pd  Pd425  1  0.523940  0.549690  0.082220  1.0
  Pd  Pd426  1  0.450310  0.974250  0.082220  1.0
  Pd  Pd427  1  0.549690  0.523940  0.417780  1.0
  Pd  Pd428  1  0.974250  0.450310  0.417780  1.0
  Pd  Pd429  1  0.476060  0.025750  0.417780  1.0
  Pd  Pd430  1  0.025750  0.476060  0.082220  1.0
  Pd  Pd431  1  0.476060  0.450310  0.917780  1.0
  Pd  Pd432  1  0.549690  0.025750  0.917780  1.0
  C  C433  1  0.567500  0.553700  0.555100  1.0
  C  C434  1  0.986200  0.432500  0.555100  1.0
  C  C435  1  0.446300  0.013800  0.555100  1.0
  C  C436  1  0.013800  0.446300  0.944900  1.0
  C  C437  1  0.446300  0.432500  0.055100  1.0
  C  C438  1  0.567500  0.013800  0.055100  1.0
  C  C439  1  0.432500  0.446300  0.444900  1.0
  C  C440  1  0.013800  0.567500  0.444900  1.0
  C  C441  1  0.553700  0.986200  0.444900  1.0
  C  C442  1  0.986200  0.553700  0.055100  1.0
  C  C443  1  0.553700  0.567500  0.944900  1.0
  C  C444  1  0.432500  0.986200  0.944900  1.0
  C  C445  1  0.617300  0.567300  0.536200  1.0
  C  C446  1  0.950000  0.382700  0.536200  1.0
  C  C447  1  0.432700  0.050000  0.536200  1.0
  C  C448  1  0.050000  0.432700  0.963800  1.0
  C  C449  1  0.432700  0.382700  0.036200  1.0
  C  C450  1  0.617300  0.050000  0.036200  1.0
  C  C451  1  0.382700  0.432700  0.463800  1.0
  C  C452  1  0.050000  0.617300  0.463800  1.0
  C  C453  1  0.567300  0.950000  0.463800  1.0
  C  C454  1  0.950000  0.567300  0.036200  1.0
  C  C455  1  0.567300  0.617300  0.963800  1.0
  C  C456  1  0.382700  0.950000  0.963800  1.0
  C  C457  1  0.621800  0.526800  0.515000  1.0
  C  C458  1  0.905000  0.378200  0.515000  1.0
  C  C459  1  0.473200  0.095000  0.515000  1.0
  C  C460  1  0.095000  0.473200  0.985000  1.0
  C  C461  1  0.473200  0.378200  0.015000  1.0
  C  C462  1  0.621800  0.095000  0.015000  1.0
  C  C463  1  0.378200  0.473200  0.485000  1.0
  C  C464  1  0.095000  0.621800  0.485000  1.0
  C  C465  1  0.526800  0.905000  0.485000  1.0
  C  C466  1  0.905000  0.526800  0.015000  1.0
  C  C467  1  0.526800  0.621800  0.985000  1.0
  C  C468  1  0.378200  0.905000  0.985000  1.0
  C  C469  1  0.576500  0.472600  0.512700  1.0
  C  C470  1  0.896100  0.423500  0.512700  1.0
  C  C471  1  0.527400  0.103900  0.512700  1.0
  C  C472  1  0.103900  0.527400  0.987300  1.0
  C  C473  1  0.527400  0.423500  0.012700  1.0
  C  C474  1  0.576500  0.103900  0.012700  1.0
  C  C475  1  0.423500  0.527400  0.487300  1.0
  C  C476  1  0.103900  0.576500  0.487300  1.0
  C  C477  1  0.472600  0.896100  0.487300  1.0
  C  C478  1  0.896100  0.472600  0.012700  1.0
  C  C479  1  0.472600  0.576500  0.987300  1.0
  C  C480  1  0.423500  0.896100  0.987300  1.0
  C  C481  1  0.526800  0.459200  0.531700  1.0
  C  C482  1  0.932400  0.473200  0.531700  1.0
  C  C483  1  0.540800  0.067600  0.531700  1.0
  C  C484  1  0.067600  0.540800  0.968300  1.0
  C  C485  1  0.540800  0.473200  0.031700  1.0
  C  C486  1  0.526800  0.067600  0.031700  1.0
  C  C487  1  0.473200  0.540800  0.468300  1.0
  C  C488  1  0.067600  0.526800  0.468300  1.0
  C  C489  1  0.459200  0.932400  0.468300  1.0
  C  C490  1  0.932400  0.459200  0.031700  1.0
  C  C491  1  0.459200  0.526800  0.968300  1.0
  C  C492  1  0.473200  0.932400  0.968300  1.0
  C  C493  1  0.477600  0.412800  0.532700  1.0
  C  C494  1  0.935200  0.522400  0.532700  1.0
  C  C495  1  0.587200  0.064800  0.532700  1.0
  C  C496  1  0.064800  0.587200  0.967300  1.0
  C  C497  1  0.587200  0.522400  0.032700  1.0
  C  C498  1  0.477600  0.064800  0.032700  1.0
  C  C499  1  0.522400  0.587200  0.467300  1.0
  C  C500  1  0.064800  0.477600  0.467300  1.0
  C  C501  1  0.412800  0.935200  0.467300  1.0
  C  C502  1  0.935200  0.412800  0.032700  1.0
  C  C503  1  0.412800  0.477600  0.967300  1.0
  C  C504  1  0.522400  0.935200  0.967300  1.0
  C  C505  1  0.468100  0.365700  0.511800  1.0
  C  C506  1  0.897600  0.531900  0.511800  1.0
  C  C507  1  0.634300  0.102400  0.511800  1.0
  C  C508  1  0.102400  0.634300  0.988200  1.0
  C  C509  1  0.634300  0.531900  0.011800  1.0
  C  C510  1  0.468100  0.102400  0.011800  1.0
  C  C511  1  0.531900  0.634300  0.488200  1.0
  C  C512  1  0.102400  0.468100  0.488200  1.0
  C  C513  1  0.365700  0.897600  0.488200  1.0
  C  C514  1  0.897600  0.365700  0.011800  1.0
  C  C515  1  0.365700  0.468100  0.988200  1.0
  C  C516  1  0.531900  0.897600  0.988200  1.0
  C  C517  1  0.415700  0.317600  0.512900  1.0
  C  C518  1  0.901900  0.584300  0.512900  1.0
  C  C519  1  0.682400  0.098100  0.512900  1.0
  C  C520  1  0.098100  0.682400  0.987100  1.0
  C  C521  1  0.682400  0.584300  0.012900  1.0
  C  C522  1  0.415700  0.098100  0.012900  1.0
  C  C523  1  0.584300  0.682400  0.487100  1.0
  C  C524  1  0.098100  0.415700  0.487100  1.0
  C  C525  1  0.317600  0.901900  0.487100  1.0
  C  C526  1  0.901900  0.317600  0.012900  1.0
  C  C527  1  0.317600  0.415700  0.987100  1.0
  C  C528  1  0.584300  0.901900  0.987100  1.0
  C  C529  1  0.372900  0.316800  0.534800  1.0
  C  C530  1  0.943900  0.627100  0.534800  1.0
  C  C531  1  0.683200  0.056100  0.534800  1.0
  C  C532  1  0.056100  0.683200  0.965200  1.0
  C  C533  1  0.683200  0.627100  0.034800  1.0
  C  C534  1  0.372900  0.056100  0.034800  1.0
  C  C535  1  0.627100  0.683200  0.465200  1.0
  C  C536  1  0.056100  0.372900  0.465200  1.0
  C  C537  1  0.316800  0.943900  0.465200  1.0
  C  C538  1  0.943900  0.316800  0.034800  1.0
  C  C539  1  0.316800  0.372900  0.965200  1.0
  C  C540  1  0.627100  0.943900  0.965200  1.0
  C  C541  1  0.382500  0.364100  0.555600  1.0
  C  C542  1  0.981600  0.617500  0.555600  1.0
  C  C543  1  0.635900  0.018400  0.555600  1.0
  C  C544  1  0.018400  0.635900  0.944400  1.0
  C  C545  1  0.635900  0.617500  0.055600  1.0
  C  C546  1  0.382500  0.018400  0.055600  1.0
  C  C547  1  0.617500  0.635900  0.444400  1.0
  C  C548  1  0.018400  0.382500  0.444400  1.0
  C  C549  1  0.364100  0.981600  0.444400  1.0
  C  C550  1  0.981600  0.364100  0.055600  1.0
  C  C551  1  0.364100  0.382500  0.944400  1.0
  C  C552  1  0.617500  0.981600  0.944400  1.0
  C  C553  1  0.338000  0.458500  0.590600  1.0
  C  C554  1  0.120500  0.662000  0.590600  1.0
  C  C555  1  0.541500  0.879500  0.590600  1.0
  C  C556  1  0.879500  0.541500  0.909400  1.0
  C  C557  1  0.541500  0.662000  0.090600  1.0
  C  C558  1  0.338000  0.879500  0.090600  1.0
  C  C559  1  0.662000  0.541500  0.409400  1.0
  C  C560  1  0.879500  0.338000  0.409400  1.0
  C  C561  1  0.458500  0.120500  0.409400  1.0
  C  C562  1  0.120500  0.458500  0.090600  1.0
  C  C563  1  0.458500  0.338000  0.909400  1.0
  C  C564  1  0.662000  0.120500  0.909400  1.0
  C  C565  1  0.292100  0.453900  0.608400  1.0
  C  C566  1  0.161800  0.707900  0.608400  1.0
  C  C567  1  0.546100  0.838200  0.608400  1.0
  C  C568  1  0.838200  0.546100  0.891600  1.0
  C  C569  1  0.546100  0.707900  0.108400  1.0
  C  C570  1  0.292100  0.838200  0.108400  1.0
  C  C571  1  0.707900  0.546100  0.391600  1.0
  C  C572  1  0.838200  0.292100  0.391600  1.0
  C  C573  1  0.453900  0.161800  0.391600  1.0
  C  C574  1  0.161800  0.453900  0.108400  1.0
  C  C575  1  0.453900  0.292100  0.891600  1.0
  C  C576  1  0.707900  0.161800  0.891600  1.0
  C  C577  1  0.286600  0.445200  0.648100  1.0
  C  C578  1  0.158600  0.713400  0.648100  1.0
  C  C579  1  0.554800  0.841400  0.648100  1.0
  C  C580  1  0.841400  0.554800  0.851900  1.0
  C  C581  1  0.554800  0.713400  0.148100  1.0
  C  C582  1  0.286600  0.841400  0.148100  1.0
  C  C583  1  0.713400  0.554800  0.351900  1.0
  C  C584  1  0.841400  0.286600  0.351900  1.0
  C  C585  1  0.445200  0.158600  0.351900  1.0
  C  C586  1  0.158600  0.445200  0.148100  1.0
  C  C587  1  0.445200  0.286600  0.851900  1.0
  C  C588  1  0.713400  0.158600  0.851900  1.0
  C  C589  1  0.325500  0.436400  0.667800  1.0
  C  C590  1  0.110900  0.674500  0.667800  1.0
  C  C591  1  0.563600  0.889100  0.667800  1.0
  C  C592  1  0.889100  0.563600  0.832200  1.0
  C  C593  1  0.563600  0.674500  0.167800  1.0
  C  C594  1  0.325500  0.889100  0.167800  1.0
  C  C595  1  0.674500  0.563600  0.332200  1.0
  C  C596  1  0.889100  0.325500  0.332200  1.0
  C  C597  1  0.436400  0.110900  0.332200  1.0
  C  C598  1  0.110900  0.436400  0.167800  1.0
  C  C599  1  0.436400  0.325500  0.832200  1.0
  C  C600  1  0.674500  0.110900  0.832200  1.0
  C  C601  1  0.371500  0.442600  0.648400  1.0
  C  C602  1  0.071100  0.628500  0.648400  1.0
  C  C603  1  0.557400  0.928900  0.648400  1.0
  C  C604  1  0.928900  0.557400  0.851600  1.0
  C  C605  1  0.557400  0.628500  0.148400  1.0
  C  C606  1  0.371500  0.928900  0.148400  1.0
  C  C607  1  0.628500  0.557400  0.351600  1.0
  C  C608  1  0.928900  0.371500  0.351600  1.0
  C  C609  1  0.442600  0.071100  0.351600  1.0
  C  C610  1  0.071100  0.442600  0.148400  1.0
  C  C611  1  0.442600  0.371500  0.851600  1.0
  C  C612  1  0.628500  0.071100  0.851600  1.0
  C  C613  1  0.237800  0.443500  0.668900  1.0
  C  C614  1  0.205700  0.762200  0.668900  1.0
  C  C615  1  0.556500  0.794300  0.668900  1.0
  C  C616  1  0.794300  0.556500  0.831100  1.0
  C  C617  1  0.556500  0.762200  0.168900  1.0
  C  C618  1  0.237800  0.794300  0.168900  1.0
  C  C619  1  0.762200  0.556500  0.331100  1.0
  C  C620  1  0.794300  0.237800  0.331100  1.0
  C  C621  1  0.443500  0.205700  0.331100  1.0
  C  C622  1  0.205700  0.443500  0.168900  1.0
  C  C623  1  0.443500  0.237800  0.831100  1.0
  C  C624  1  0.762200  0.205700  0.831100  1.0
  C  C625  1  0.168200  0.462600  0.667400  1.0
  C  C626  1  0.294400  0.831800  0.667400  1.0
  C  C627  1  0.537400  0.705600  0.667400  1.0
  C  C628  1  0.705600  0.537400  0.832600  1.0
  C  C629  1  0.537400  0.831800  0.167400  1.0
  C  C630  1  0.168200  0.705600  0.167400  1.0
  C  C631  1  0.831800  0.537400  0.332600  1.0
  C  C632  1  0.705600  0.168200  0.332600  1.0
  C  C633  1  0.462600  0.294400  0.332600  1.0
  C  C634  1  0.294400  0.462600  0.167400  1.0
  C  C635  1  0.462600  0.168200  0.832600  1.0
  C  C636  1  0.831800  0.294400  0.832600  1.0
  C  C637  1  0.187700  0.433100  0.723600  1.0
  C  C638  1  0.245400  0.812300  0.723600  1.0
  C  C639  1  0.566900  0.754600  0.723600  1.0
  C  C640  1  0.754600  0.566900  0.776400  1.0
  C  C641  1  0.566900  0.812300  0.223600  1.0
  C  C642  1  0.187700  0.754600  0.223600  1.0
  C  C643  1  0.812300  0.566900  0.276400  1.0
  C  C644  1  0.754600  0.187700  0.276400  1.0
  C  C645  1  0.433100  0.245400  0.276400  1.0
  C  C646  1  0.245400  0.433100  0.223600  1.0
  C  C647  1  0.433100  0.187700  0.776400  1.0
  C  C648  1  0.812300  0.245400  0.776400  1.0
  C  C649  1  0.473300  0.592100  0.593200  1.0
  C  C650  1  0.118800  0.526700  0.593200  1.0
  C  C651  1  0.407900  0.881200  0.593200  1.0
  C  C652  1  0.881200  0.407900  0.906800  1.0
  C  C653  1  0.407900  0.526700  0.093200  1.0
  C  C654  1  0.473300  0.881200  0.093200  1.0
  C  C655  1  0.526700  0.407900  0.406800  1.0
  C  C656  1  0.881200  0.473300  0.406800  1.0
  C  C657  1  0.592100  0.118800  0.406800  1.0
  C  C658  1  0.118800  0.592100  0.093200  1.0
  C  C659  1  0.592100  0.473300  0.906800  1.0
  C  C660  1  0.526700  0.118800  0.906800  1.0
  C  C661  1  0.493900  0.643000  0.612300  1.0
  C  C662  1  0.149100  0.506100  0.612300  1.0
  C  C663  1  0.357000  0.850900  0.612300  1.0
  C  C664  1  0.850900  0.357000  0.887700  1.0
  C  C665  1  0.357000  0.506100  0.112300  1.0
  C  C666  1  0.493900  0.850900  0.112300  1.0
  C  C667  1  0.506100  0.357000  0.387700  1.0
  C  C668  1  0.850900  0.493900  0.387700  1.0
  C  C669  1  0.643000  0.149100  0.387700  1.0
  C  C670  1  0.149100  0.643000  0.112300  1.0
  C  C671  1  0.643000  0.493900  0.887700  1.0
  C  C672  1  0.506100  0.149100  0.887700  1.0
  C  C673  1  0.133400  0.480900  0.647600  1.0
  C  C674  1  0.347500  0.866600  0.647600  1.0
  C  C675  1  0.519100  0.652500  0.647600  1.0
  C  C676  1  0.652500  0.519100  0.852400  1.0
  C  C677  1  0.519100  0.866600  0.147600  1.0
  C  C678  1  0.133400  0.652500  0.147600  1.0
  C  C679  1  0.866600  0.519100  0.352400  1.0
  C  C680  1  0.652500  0.133400  0.352400  1.0
  C  C681  1  0.480900  0.347500  0.352400  1.0
  C  C682  1  0.347500  0.480900  0.147600  1.0
  C  C683  1  0.480900  0.133400  0.852400  1.0
  C  C684  1  0.866600  0.347500  0.852400  1.0
  C  C685  1  0.084900  0.476500  0.664100  1.0
  C  C686  1  0.391600  0.915100  0.664100  1.0
  C  C687  1  0.523500  0.608400  0.664100  1.0
  C  C688  1  0.608400  0.523500  0.835900  1.0
  C  C689  1  0.523500  0.915100  0.164100  1.0
  C  C690  1  0.084900  0.608400  0.164100  1.0
  C  C691  1  0.915100  0.523500  0.335900  1.0
  C  C692  1  0.608400  0.084900  0.335900  1.0
  C  C693  1  0.476500  0.391600  0.335900  1.0
  C  C694  1  0.391600  0.476500  0.164100  1.0
  C  C695  1  0.476500  0.084900  0.835900  1.0
  C  C696  1  0.915100  0.391600  0.835900  1.0
  C  C697  1  0.506600  0.560300  0.644100  1.0
  C  C698  1  0.053700  0.493400  0.644100  1.0
  C  C699  1  0.439700  0.946300  0.644100  1.0
  C  C700  1  0.946300  0.439700  0.855900  1.0
  C  C701  1  0.439700  0.493400  0.144100  1.0
  C  C702  1  0.506600  0.946300  0.144100  1.0
  C  C703  1  0.493400  0.439700  0.355900  1.0
  C  C704  1  0.946300  0.506600  0.355900  1.0
  C  C705  1  0.560300  0.053700  0.355900  1.0
  C  C706  1  0.053700  0.560300  0.144100  1.0
  C  C707  1  0.560300  0.506600  0.855900  1.0
  C  C708  1  0.493400  0.053700  0.855900  1.0
  C  C709  1  0.117800  0.397100  0.820400  1.0
  C  C710  1  0.279300  0.882200  0.820400  1.0
  C  C711  1  0.602900  0.720700  0.820400  1.0
  C  C712  1  0.720700  0.602900  0.679600  1.0
  C  C713  1  0.602900  0.882200  0.320400  1.0
  C  C714  1  0.117800  0.720700  0.320400  1.0
  C  C715  1  0.882200  0.602900  0.179600  1.0
  C  C716  1  0.720700  0.117800  0.179600  1.0
  C  C717  1  0.397100  0.279300  0.179600  1.0
  C  C718  1  0.279300  0.397100  0.320400  1.0
  C  C719  1  0.397100  0.117800  0.679600  1.0
  C  C720  1  0.882200  0.279300  0.679600  1.0
  C  C721  1  0.128700  0.414200  0.781600  1.0
  C  C722  1  0.285500  0.871300  0.781600  1.0
  C  C723  1  0.585800  0.714500  0.781600  1.0
  C  C724  1  0.714500  0.585800  0.718400  1.0
  C  C725  1  0.585800  0.871300  0.281600  1.0
  C  C726  1  0.128700  0.714500  0.281600  1.0
  C  C727  1  0.871300  0.585800  0.218400  1.0
  C  C728  1  0.714500  0.128700  0.218400  1.0
  C  C729  1  0.414200  0.285500  0.218400  1.0
  C  C730  1  0.285500  0.414200  0.281600  1.0
  C  C731  1  0.414200  0.128700  0.718400  1.0
  C  C732  1  0.871300  0.285500  0.718400  1.0
  C  C733  1  0.175100  0.415000  0.763900  1.0
  C  C734  1  0.239900  0.824900  0.763900  1.0
  C  C735  1  0.585000  0.760100  0.763900  1.0
  C  C736  1  0.760100  0.585000  0.736100  1.0
  C  C737  1  0.585000  0.824900  0.263900  1.0
  C  C738  1  0.175100  0.760100  0.263900  1.0
  C  C739  1  0.824900  0.585000  0.236100  1.0
  C  C740  1  0.760100  0.175100  0.236100  1.0
  C  C741  1  0.415000  0.239900  0.236100  1.0
  C  C742  1  0.239900  0.415000  0.263900  1.0
  C  C743  1  0.415000  0.175100  0.736100  1.0
  C  C744  1  0.824900  0.239900  0.736100  1.0
  C  C745  1  0.206300  0.398100  0.785400  1.0
  C  C746  1  0.191800  0.793700  0.785400  1.0
  C  C747  1  0.601900  0.808200  0.785400  1.0
  C  C748  1  0.808200  0.601900  0.714600  1.0
  C  C749  1  0.601900  0.793700  0.285400  1.0
  C  C750  1  0.206300  0.808200  0.285400  1.0
  C  C751  1  0.793700  0.601900  0.214600  1.0
  C  C752  1  0.808200  0.206300  0.214600  1.0
  C  C753  1  0.398100  0.191800  0.214600  1.0
  C  C754  1  0.191800  0.398100  0.285400  1.0
  C  C755  1  0.398100  0.206300  0.714600  1.0
  C  C756  1  0.793700  0.191800  0.714600  1.0
  C  C757  1  0.191800  0.381000  0.825300  1.0
  C  C758  1  0.189200  0.808200  0.825300  1.0
  C  C759  1  0.619000  0.810800  0.825300  1.0
  C  C760  1  0.810800  0.619000  0.674700  1.0
  C  C761  1  0.619000  0.808200  0.325300  1.0
  C  C762  1  0.191800  0.810800  0.325300  1.0
  C  C763  1  0.808200  0.619000  0.174700  1.0
  C  C764  1  0.810800  0.191800  0.174700  1.0
  C  C765  1  0.381000  0.189200  0.174700  1.0
  C  C766  1  0.189200  0.381000  0.325300  1.0
  C  C767  1  0.381000  0.191800  0.674700  1.0
  C  C768  1  0.808200  0.189200  0.674700  1.0
  C  C769  1  0.055600  0.258000  0.849000  1.0
  C  C770  1  0.202400  0.944400  0.849000  1.0
  C  C771  1  0.742000  0.797600  0.849000  1.0
  C  C772  1  0.797600  0.742000  0.651000  1.0
  C  C773  1  0.742000  0.944400  0.349000  1.0
  C  C774  1  0.055600  0.797600  0.349000  1.0
  C  C775  1  0.944400  0.742000  0.151000  1.0
  C  C776  1  0.797600  0.055600  0.151000  1.0
  C  C777  1  0.258000  0.202400  0.151000  1.0
  C  C778  1  0.202400  0.258000  0.349000  1.0
  C  C779  1  0.258000  0.055600  0.651000  1.0
  C  C780  1  0.944400  0.202400  0.651000  1.0
  C  C781  1  0.007700  0.203700  0.848300  1.0
  C  C782  1  0.196000  0.992300  0.848300  1.0
  C  C783  1  0.796300  0.804000  0.848300  1.0
  C  C784  1  0.804000  0.796300  0.651700  1.0
  C  C785  1  0.796300  0.992300  0.348300  1.0
  C  C786  1  0.007700  0.804000  0.348300  1.0
  C  C787  1  0.992300  0.796300  0.151700  1.0
  C  C788  1  0.804000  0.007700  0.151700  1.0
  C  C789  1  0.203700  0.196000  0.151700  1.0
  C  C790  1  0.196000  0.203700  0.348300  1.0
  C  C791  1  0.203700  0.007700  0.651700  1.0
  C  C792  1  0.992300  0.196000  0.651700  1.0
  C  C793  1  0.982400  0.181100  0.884200  1.0
  C  C794  1  0.198700  0.017600  0.884200  1.0
  C  C795  1  0.818900  0.801300  0.884200  1.0
  C  C796  1  0.801300  0.818900  0.615800  1.0
  C  C797  1  0.818900  0.017600  0.384200  1.0
  C  C798  1  0.982400  0.801300  0.384200  1.0
  C  C799  1  0.017600  0.818900  0.115800  1.0
  C  C800  1  0.801300  0.982400  0.115800  1.0
  C  C801  1  0.181100  0.198700  0.115800  1.0
  C  C802  1  0.198700  0.181100  0.384200  1.0
  C  C803  1  0.181100  0.982400  0.615800  1.0
  C  C804  1  0.017600  0.198700  0.615800  1.0
  C  C805  1  0.995000  0.192000  0.915500  1.0
  C  C806  1  0.197000  0.005000  0.915500  1.0
  C  C807  1  0.808000  0.803000  0.915500  1.0
  C  C808  1  0.803000  0.808000  0.584500  1.0
  C  C809  1  0.808000  0.005000  0.415500  1.0
  C  C810  1  0.995000  0.803000  0.415500  1.0
  C  C811  1  0.005000  0.808000  0.084500  1.0
  C  C812  1  0.803000  0.995000  0.084500  1.0
  C  C813  1  0.192000  0.197000  0.084500  1.0
  C  C814  1  0.197000  0.192000  0.415500  1.0
  C  C815  1  0.192000  0.995000  0.584500  1.0
  C  C816  1  0.005000  0.197000  0.584500  1.0
  C  C817  1  0.040500  0.252300  0.915800  1.0
  C  C818  1  0.211800  0.959500  0.915800  1.0
  C  C819  1  0.747700  0.788200  0.915800  1.0
  C  C820  1  0.788200  0.747700  0.584200  1.0
  C  C821  1  0.747700  0.959500  0.415800  1.0
  C  C822  1  0.040500  0.788200  0.415800  1.0
  C  C823  1  0.959500  0.747700  0.084200  1.0
  C  C824  1  0.788200  0.040500  0.084200  1.0
  C  C825  1  0.252300  0.211800  0.084200  1.0
  C  C826  1  0.211800  0.252300  0.415800  1.0
  C  C827  1  0.252300  0.040500  0.584200  1.0
  C  C828  1  0.959500  0.211800  0.584200  1.0
  C  C829  1  0.060500  0.280100  0.954100  1.0
  C  C830  1  0.219600  0.939500  0.954100  1.0
  C  C831  1  0.719900  0.780400  0.954100  1.0
  C  C832  1  0.780400  0.719900  0.545900  1.0
  C  C833  1  0.719900  0.939500  0.454100  1.0
  C  C834  1  0.060500  0.780400  0.454100  1.0
  C  C835  1  0.939500  0.719900  0.045900  1.0
  C  C836  1  0.780400  0.060500  0.045900  1.0
  C  C837  1  0.280100  0.219600  0.045900  1.0
  C  C838  1  0.219600  0.280100  0.454100  1.0
  C  C839  1  0.280100  0.060500  0.545900  1.0
  C  C840  1  0.939500  0.219600  0.545900  1.0
  C  C841  1  0.039700  0.256500  0.989300  1.0
  C  C842  1  0.216800  0.960300  0.989300  1.0
  C  C843  1  0.743500  0.783200  0.989300  1.0
  C  C844  1  0.783200  0.743500  0.510700  1.0
  C  C845  1  0.743500  0.960300  0.489300  1.0
  C  C846  1  0.039700  0.783200  0.489300  1.0
  C  C847  1  0.960300  0.743500  0.010700  1.0
  C  C848  1  0.783200  0.039700  0.010700  1.0
  C  C849  1  0.256500  0.216800  0.010700  1.0
  C  C850  1  0.216800  0.256500  0.489300  1.0
  C  C851  1  0.256500  0.039700  0.510700  1.0
  C  C852  1  0.960300  0.216800  0.510700  1.0
  C  C853  1  0.057500  0.282400  0.023500  1.0
  C  C854  1  0.224900  0.942500  0.023500  1.0
  C  C855  1  0.717600  0.775100  0.023500  1.0
  C  C856  1  0.775100  0.717600  0.476500  1.0
  C  C857  1  0.717600  0.942500  0.523500  1.0
  C  C858  1  0.057500  0.775100  0.523500  1.0
  C  C859  1  0.942500  0.717600  0.976500  1.0
  C  C860  1  0.775100  0.057500  0.976500  1.0
  C  C861  1  0.282400  0.224900  0.976500  1.0
  C  C862  1  0.224900  0.282400  0.523500  1.0
  C  C863  1  0.282400  0.057500  0.476500  1.0
  C  C864  1  0.942500  0.224900  0.476500  1.0
  C  C865  1  0.104300  0.336500  0.020200  1.0
  C  C866  1  0.232200  0.895700  0.020200  1.0
  C  C867  1  0.663500  0.767800  0.020200  1.0
  C  C868  1  0.767800  0.663500  0.479800  1.0
  C  C869  1  0.663500  0.895700  0.520200  1.0
  C  C870  1  0.104300  0.767800  0.520200  1.0
  C  C871  1  0.895700  0.663500  0.979800  1.0
  C  C872  1  0.767800  0.104300  0.979800  1.0
  C  C873  1  0.336500  0.232200  0.979800  1.0
  C  C874  1  0.232200  0.336500  0.520200  1.0
  C  C875  1  0.336500  0.104300  0.479800  1.0
  C  C876  1  0.895700  0.232200  0.479800  1.0
  C  C877  1  0.127000  0.360400  0.984600  1.0
  C  C878  1  0.233400  0.873000  0.984600  1.0
  C  C879  1  0.639600  0.766600  0.984600  1.0
  C  C880  1  0.766600  0.639600  0.515400  1.0
  C  C881  1  0.639600  0.873000  0.484600  1.0
  C  C882  1  0.127000  0.766600  0.484600  1.0
  C  C883  1  0.873000  0.639600  0.015400  1.0
  C  C884  1  0.766600  0.127000  0.015400  1.0
  C  C885  1  0.360400  0.233400  0.015400  1.0
  C  C886  1  0.233400  0.360400  0.484600  1.0
  C  C887  1  0.360400  0.127000  0.515400  1.0
  C  C888  1  0.873000  0.233400  0.515400  1.0
  C  C889  1  0.235600  0.456100  0.916900  1.0
  C  C890  1  0.220500  0.764400  0.916900  1.0
  C  C891  1  0.543900  0.779500  0.916900  1.0
  C  C892  1  0.779500  0.543900  0.583100  1.0
  C  C893  1  0.543900  0.764400  0.416900  1.0
  C  C894  1  0.235600  0.779500  0.416900  1.0
  C  C895  1  0.764400  0.543900  0.083100  1.0
  C  C896  1  0.779500  0.235600  0.083100  1.0
  C  C897  1  0.456100  0.220500  0.083100  1.0
  C  C898  1  0.220500  0.456100  0.416900  1.0
  C  C899  1  0.456100  0.235600  0.583100  1.0
  C  C900  1  0.764400  0.220500  0.583100  1.0
  C  C901  1  0.277100  0.513500  0.921400  1.0
  C  C902  1  0.236400  0.722900  0.921400  1.0
  C  C903  1  0.486500  0.763600  0.921400  1.0
  C  C904  1  0.763600  0.486500  0.578600  1.0
  C  C905  1  0.486500  0.722900  0.421400  1.0
  C  C906  1  0.277100  0.763600  0.421400  1.0
  C  C907  1  0.722900  0.486500  0.078600  1.0
  C  C908  1  0.763600  0.277100  0.078600  1.0
  C  C909  1  0.513500  0.236400  0.078600  1.0
  C  C910  1  0.236400  0.513500  0.421400  1.0
  C  C911  1  0.513500  0.277100  0.578600  1.0
  C  C912  1  0.722900  0.236400  0.578600  1.0
  C  C913  1  0.259200  0.552700  0.919200  1.0
  C  C914  1  0.293500  0.740800  0.919200  1.0
  C  C915  1  0.447300  0.706500  0.919200  1.0
  C  C916  1  0.706500  0.447300  0.580800  1.0
  C  C917  1  0.447300  0.740800  0.419200  1.0
  C  C918  1  0.259200  0.706500  0.419200  1.0
  C  C919  1  0.740800  0.447300  0.080800  1.0
  C  C920  1  0.706500  0.259200  0.080800  1.0
  C  C921  1  0.552700  0.293500  0.080800  1.0
  C  C922  1  0.293500  0.552700  0.419200  1.0
  C  C923  1  0.552700  0.259200  0.580800  1.0
  C  C924  1  0.740800  0.293500  0.580800  1.0
  C  C925  1  0.202500  0.532600  0.912800  1.0
  C  C926  1  0.330100  0.797500  0.912800  1.0
  C  C927  1  0.467400  0.669900  0.912800  1.0
  C  C928  1  0.669900  0.467400  0.587200  1.0
  C  C929  1  0.467400  0.797500  0.412800  1.0
  C  C930  1  0.202500  0.669900  0.412800  1.0
  C  C931  1  0.797500  0.467400  0.087200  1.0
  C  C932  1  0.669900  0.202500  0.087200  1.0
  C  C933  1  0.532600  0.330100  0.087200  1.0
  C  C934  1  0.330100  0.532600  0.412800  1.0
  C  C935  1  0.532600  0.202500  0.587200  1.0
  C  C936  1  0.797500  0.330100  0.587200  1.0
  C  C937  1  0.168200  0.478000  0.907900  1.0
  C  C938  1  0.309800  0.831800  0.907900  1.0
  C  C939  1  0.522000  0.690200  0.907900  1.0
  C  C940  1  0.690200  0.522000  0.592100  1.0
  C  C941  1  0.522000  0.831800  0.407900  1.0
  C  C942  1  0.168200  0.690200  0.407900  1.0
  C  C943  1  0.831800  0.522000  0.092100  1.0
  C  C944  1  0.690200  0.168200  0.092100  1.0
  C  C945  1  0.478000  0.309800  0.092100  1.0
  C  C946  1  0.309800  0.478000  0.407900  1.0
  C  C947  1  0.478000  0.168200  0.592100  1.0
  C  C948  1  0.831800  0.309800  0.592100  1.0
  C  C949  1  0.299000  0.614100  0.922500  1.0
  C  C950  1  0.315100  0.701000  0.922500  1.0
  C  C951  1  0.385900  0.684900  0.922500  1.0
  C  C952  1  0.684900  0.385900  0.577500  1.0
  C  C953  1  0.385900  0.701000  0.422500  1.0
  C  C954  1  0.299000  0.684900  0.422500  1.0
  C  C955  1  0.701000  0.385900  0.077500  1.0
  C  C956  1  0.684900  0.299000  0.077500  1.0
  C  C957  1  0.614100  0.315100  0.077500  1.0
  C  C958  1  0.315100  0.614100  0.422500  1.0
  C  C959  1  0.614100  0.299000  0.577500  1.0
  C  C960  1  0.701000  0.315100  0.577500  1.0
  N  N961  1  0.522300  0.499700  0.552800  1.0
  N  N962  1  0.977400  0.477700  0.552800  1.0
  N  N963  1  0.500300  0.022600  0.552800  1.0
  N  N964  1  0.022600  0.500300  0.947200  1.0
  N  N965  1  0.500300  0.477700  0.052800  1.0
  N  N966  1  0.522300  0.022600  0.052800  1.0
  N  N967  1  0.477700  0.500300  0.447200  1.0
  N  N968  1  0.022600  0.522300  0.447200  1.0
  N  N969  1  0.499700  0.977400  0.447200  1.0
  N  N970  1  0.977400  0.499700  0.052800  1.0
  N  N971  1  0.499700  0.522300  0.947200  1.0
  N  N972  1  0.477700  0.977400  0.947200  1.0
  N  N973  1  0.434800  0.412000  0.554600  1.0
  N  N974  1  0.977200  0.565200  0.554600  1.0
  N  N975  1  0.588000  0.022800  0.554600  1.0
  N  N976  1  0.022800  0.588000  0.945400  1.0
  N  N977  1  0.588000  0.565200  0.054600  1.0
  N  N978  1  0.434800  0.022800  0.054600  1.0
  N  N979  1  0.565200  0.588000  0.445400  1.0
  N  N980  1  0.022800  0.434800  0.445400  1.0
  N  N981  1  0.412000  0.977200  0.445400  1.0
  N  N982  1  0.977200  0.412000  0.054600  1.0
  N  N983  1  0.412000  0.434800  0.945400  1.0
  N  N984  1  0.565200  0.977200  0.945400  1.0
  N  N985  1  0.377800  0.454600  0.610400  1.0
  N  N986  1  0.076800  0.622200  0.610400  1.0
  N  N987  1  0.545400  0.923200  0.610400  1.0
  N  N988  1  0.923200  0.545400  0.889600  1.0
  N  N989  1  0.545400  0.622200  0.110400  1.0
  N  N990  1  0.377800  0.923200  0.110400  1.0
  N  N991  1  0.622200  0.545400  0.389600  1.0
  N  N992  1  0.923200  0.377800  0.389600  1.0
  N  N993  1  0.454600  0.076800  0.389600  1.0
  N  N994  1  0.076800  0.454600  0.110400  1.0
  N  N995  1  0.454600  0.377800  0.889600  1.0
  N  N996  1  0.622200  0.076800  0.889600  1.0
  N  N997  1  0.208000  0.460400  0.647500  1.0
  N  N998  1  0.252400  0.792000  0.647500  1.0
  N  N999  1  0.539600  0.747600  0.647500  1.0
  N  N1000  1  0.747600  0.539600  0.852500  1.0
  N  N1001  1  0.539600  0.792000  0.147500  1.0
  N  N1002  1  0.208000  0.747600  0.147500  1.0
  N  N1003  1  0.792000  0.539600  0.352500  1.0
  N  N1004  1  0.747600  0.208000  0.352500  1.0
  N  N1005  1  0.460400  0.252400  0.352500  1.0
  N  N1006  1  0.252400  0.460400  0.147500  1.0
  N  N1007  1  0.460400  0.208000  0.852500  1.0
  N  N1008  1  0.792000  0.252400  0.852500  1.0
  N  N1009  1  0.231300  0.429500  0.706800  1.0
  N  N1010  1  0.198200  0.768700  0.706800  1.0
  N  N1011  1  0.570500  0.801800  0.706800  1.0
  N  N1012  1  0.801800  0.570500  0.793200  1.0
  N  N1013  1  0.570500  0.768700  0.206800  1.0
  N  N1014  1  0.231300  0.801800  0.206800  1.0
  N  N1015  1  0.768700  0.570500  0.293200  1.0
  N  N1016  1  0.801800  0.231300  0.293200  1.0
  N  N1017  1  0.429500  0.198200  0.293200  1.0
  N  N1018  1  0.198200  0.429500  0.206800  1.0
  N  N1019  1  0.429500  0.231300  0.793200  1.0
  N  N1020  1  0.768700  0.198200  0.793200  1.0
  N  N1021  1  0.155600  0.449000  0.705900  1.0
  N  N1022  1  0.293400  0.844400  0.705900  1.0
  N  N1023  1  0.551000  0.706600  0.705900  1.0
  N  N1024  1  0.706600  0.551000  0.794100  1.0
  N  N1025  1  0.551000  0.844400  0.205900  1.0
  N  N1026  1  0.155600  0.706600  0.205900  1.0
  N  N1027  1  0.844400  0.551000  0.294100  1.0
  N  N1028  1  0.706600  0.155600  0.294100  1.0
  N  N1029  1  0.449000  0.293400  0.294100  1.0
  N  N1030  1  0.293400  0.449000  0.205900  1.0
  N  N1031  1  0.449000  0.155600  0.794100  1.0
  N  N1032  1  0.844400  0.293400  0.794100  1.0
  N  N1033  1  0.481000  0.549900  0.609000  1.0
  N  N1034  1  0.068900  0.519000  0.609000  1.0
  N  N1035  1  0.450100  0.931100  0.609000  1.0
  N  N1036  1  0.931100  0.450100  0.891000  1.0
  N  N1037  1  0.450100  0.519000  0.109000  1.0
  N  N1038  1  0.481000  0.931100  0.109000  1.0
  N  N1039  1  0.519000  0.450100  0.391000  1.0
  N  N1040  1  0.931100  0.481000  0.391000  1.0
  N  N1041  1  0.549900  0.068900  0.391000  1.0
  N  N1042  1  0.068900  0.549900  0.109000  1.0
  N  N1043  1  0.549900  0.481000  0.891000  1.0
  N  N1044  1  0.519000  0.068900  0.891000  1.0
  N  N1045  1  0.148500  0.382200  0.841900  1.0
  N  N1046  1  0.233700  0.851500  0.841900  1.0
  N  N1047  1  0.617800  0.766300  0.841900  1.0
  N  N1048  1  0.766300  0.617800  0.658100  1.0
  N  N1049  1  0.617800  0.851500  0.341900  1.0
  N  N1050  1  0.148500  0.766300  0.341900  1.0
  N  N1051  1  0.851500  0.617800  0.158100  1.0
  N  N1052  1  0.766300  0.148500  0.158100  1.0
  N  N1053  1  0.382200  0.233700  0.158100  1.0
  N  N1054  1  0.233700  0.382200  0.341900  1.0
  N  N1055  1  0.382200  0.148500  0.658100  1.0
  N  N1056  1  0.851500  0.233700  0.658100  1.0
  N  N1057  1  0.068500  0.280500  0.884800  1.0
  N  N1058  1  0.212000  0.931500  0.884800  1.0
  N  N1059  1  0.719500  0.788000  0.884800  1.0
  N  N1060  1  0.788000  0.719500  0.615200  1.0
  N  N1061  1  0.719500  0.931500  0.384800  1.0
  N  N1062  1  0.068500  0.788000  0.384800  1.0
  N  N1063  1  0.931500  0.719500  0.115200  1.0
  N  N1064  1  0.788000  0.068500  0.115200  1.0
  N  N1065  1  0.280500  0.212000  0.115200  1.0
  N  N1066  1  0.212000  0.280500  0.384800  1.0
  N  N1067  1  0.280500  0.068500  0.615200  1.0
  N  N1068  1  0.931500  0.212000  0.615200  1.0
  N  N1069  1  0.104500  0.331700  0.951300  1.0
  N  N1070  1  0.227200  0.895500  0.951300  1.0
  N  N1071  1  0.668300  0.772800  0.951300  1.0
  N  N1072  1  0.772800  0.668300  0.548700  1.0
  N  N1073  1  0.668300  0.895500  0.451300  1.0
  N  N1074  1  0.104500  0.772800  0.451300  1.0
  N  N1075  1  0.895500  0.668300  0.048700  1.0
  N  N1076  1  0.772800  0.104500  0.048700  1.0
  N  N1077  1  0.331700  0.227200  0.048700  1.0
  N  N1078  1  0.227200  0.331700  0.451300  1.0
  N  N1079  1  0.331700  0.104500  0.548700  1.0
  N  N1080  1  0.895500  0.227200  0.548700  1.0
  N  N1081  1  0.182700  0.439200  0.909800  1.0
  N  N1082  1  0.256500  0.817300  0.909800  1.0
  N  N1083  1  0.560800  0.743500  0.909800  1.0
  N  N1084  1  0.743500  0.560800  0.590200  1.0
  N  N1085  1  0.560800  0.817300  0.409800  1.0
  N  N1086  1  0.182700  0.743500  0.409800  1.0
  N  N1087  1  0.817300  0.560800  0.090200  1.0
  N  N1088  1  0.743500  0.182700  0.090200  1.0
  N  N1089  1  0.439200  0.256500  0.090200  1.0
  N  N1090  1  0.256500  0.439200  0.409800  1.0
  N  N1091  1  0.439200  0.182700  0.590200  1.0
  N  N1092  1  0.817300  0.256500  0.590200  1.0
  N  N1093  1  0.277500  0.647500  0.923100  1.0
  N  N1094  1  0.370000  0.722500  0.923100  1.0
  N  N1095  1  0.352500  0.630000  0.923100  1.0
  N  N1096  1  0.630000  0.352500  0.576900  1.0
  N  N1097  1  0.352500  0.722500  0.423100  1.0
  N  N1098  1  0.277500  0.630000  0.423100  1.0
  N  N1099  1  0.722500  0.352500  0.076900  1.0
  N  N1100  1  0.630000  0.277500  0.076900  1.0
  N  N1101  1  0.647500  0.370000  0.076900  1.0
  N  N1102  1  0.370000  0.647500  0.423100  1.0
  N  N1103  1  0.647500  0.277500  0.576900  1.0
  N  N1104  1  0.722500  0.370000  0.576900  1.0
  O  O1105  1  0.673900  0.390500  0.845900  1.0
  O  O1106  1  0.716600  0.326100  0.845900  1.0
  O  O1107  1  0.609500  0.283400  0.845900  1.0
  O  O1108  1  0.283400  0.609500  0.654100  1.0
  O  O1109  1  0.609500  0.326100  0.345900  1.0
  O  O1110  1  0.673900  0.283400  0.345900  1.0
  O  O1111  1  0.326100  0.609500  0.154100  1.0
  O  O1112  1  0.283400  0.673900  0.154100  1.0
  O  O1113  1  0.390500  0.716600  0.154100  1.0
  O  O1114  1  0.716600  0.390500  0.345900  1.0
  O  O1115  1  0.390500  0.673900  0.654100  1.0
  O  O1116  1  0.326100  0.716600  0.654100  1.0
  O  O1117  1  0.574500  0.351500  0.877600  1.0
  O  O1118  1  0.777000  0.425500  0.877600  1.0
  O  O1119  1  0.648500  0.223000  0.877600  1.0
  O  O1120  1  0.223000  0.648500  0.622400  1.0
  O  O1121  1  0.648500  0.425500  0.377600  1.0
  O  O1122  1  0.574500  0.223000  0.377600  1.0
  O  O1123  1  0.425500  0.648500  0.122400  1.0
  O  O1124  1  0.223000  0.574500  0.122400  1.0
  O  O1125  1  0.351500  0.777000  0.122400  1.0
  O  O1126  1  0.777000  0.351500  0.377600  1.0
  O  O1127  1  0.351500  0.574500  0.622400  1.0
  O  O1128  1  0.425500  0.777000  0.622400  1.0
