
#######################################################################
#
#                 Cambridge Crystallographic Data Centre
#                                CCDC 
#
#######################################################################
#
# If this CIF has been generated from an entry in the Cambridge 
# Structural Database, then it will include bibliographic, chemical, 
# crystal, experimental, refinement or atomic coordinate data resulting 
# from the CCDC's data processing and validation procedures.
#
#######################################################################

data_XEZBEJ
_chemical_formula_moiety         
'C132 H96 N36 Pd6 12+,C21 H24 O6 Si3,12(N1 O3 1-),x(H2 O1)'
_chemical_name_systematic        
"tetrakis(\m~3~-2,4,6-tris(Pyrid-4-yl)-1,3,5-triazine-N,N',N'')-hexakis(2,2-bipyridyl-N,N')-hexa-palladium 1,3,5-tris(m-tolyl)cyclotrisiloxane-1,3,5-triol clathrate dodecanitrate hydrate"
_symmetry_cell_setting           trigonal
_symmetry_space_group_name_H-M   'P -3 c 1'
_symmetry_Int_Tables_number      165
_space_group_name_Hall           '-P 3 2"c'
loop_
_symmetry_equiv_pos_site_id
_symmetry_equiv_pos_as_xyz
1 x,y,z
2 -y,x-y,z
3 -x+y,-x,z
4 y,x,1/2-z
5 -x+y,y,1/2+z
6 x,x-y,1/2+z
7 -x,-y,-z
8 y,-x+y,-z
9 x-y,x,-z
10 -y,-x,1/2+z
11 x-y,-y,1/2-z
12 -x,-x+y,1/2-z
_cell_length_a                   27.6231(9)
_cell_length_b                   27.6231(9)
_cell_length_c                   34.1541(17)
_cell_angle_alpha                90
_cell_angle_beta                 90
_cell_angle_gamma                120
_cell_volume                     22569.3
_exptl_crystal_colour            colorless
_exptl_crystal_description       prisms
_chemical_melting_point          'above 300 deg.C'
_cell_formula_units_Z            4
loop_
_atom_site_label
_atom_site_type_symbol
_atom_site_fract_x
_atom_site_fract_y
_atom_site_fract_z
Si1 Si 0.3903(2) 0.7332(2) 0.15734(16)
O1 O 0.3261(5) 0.7166(5) 0.1541(3)
O2 O 0.4255(6) 0.7770(6) 0.1224(4)
Si1A Si 0.2668(2) 0.6571(3) 0.15734(16)
O1A O 0.2834(5) 0.6095(7) 0.1541(3)
Si1B Si 0.3429(3) 0.6097(2) 0.15734(16)
O1B O 0.3905(7) 0.6739(5) 0.1541(3)
O2B O 0.3515(8) 0.5745(6) 0.1224(4)
O2A O 0.2230(6) 0.6485(8) 0.1224(4)
Pd1 Pd 0.87162(6) 1.23014(7) 0.10295(4)
Pd2 Pd 0.54969(7) 1.02575(5) 0.41778(4)
N1 N 0.4777(5) 0.9774(5) 0.4472(4)
C1 C 0.4325(7) 0.9862(6) 0.4449(4)
H1 H 0.4355 1.0163 0.4307
C2 C 0.3827(6) 0.9500(8) 0.4638(5)
H2 H 0.3524 0.9559 0.4623
C3 C 0.3782(5) 0.9050(7) 0.4850(5)
H3 H 0.3449 0.8807 0.4977
C4 C 0.4235(7) 0.8961(5) 0.4873(4)
H4 H 0.4205 0.8660 0.5014
C5 C 0.4732(5) 0.9324(6) 0.4683(4)
N2 N 0.5652(6) 0.9772(5) 0.4454(4)
C6 C 0.5224(5) 0.9352(6) 0.4673(4)
C7 C 0.5319(6) 0.8976(6) 0.4882(4)
H5 H 0.5033 0.8695 0.5028
C8 C 0.5843(7) 0.9019(6) 0.4871(5)
H6 H 0.5906 0.8768 0.5011
C9 C 0.6271(5) 0.9439(7) 0.4652(5)
H7 H 0.6621 0.9469 0.4646
C10 C 0.6175(5) 0.9816(5) 0.4444(4)
H8 H 0.6462 1.0097 0.4297
N3 N 0.6222(7) 1.0768(6) 0.3896(5)
N4 N 0.7920(7) 1.2524(8) 0.3525(4)
N5 N 0.7687(7) 1.1982(7) 0.2932(5)
N6 N 0.8444(7) 1.2934(8) 0.2941(5)
N7 N 0.5190(6) 1.0689(6) 0.3910(4)
N8 N 0.8515(7) 1.2337(8) 0.1581(5)
N9 N 0.9315(7) 1.2120(7) 0.1152(6)
N10 N 0.8955(7) 1.2272(6) 0.0487(5)
N11 N 0.8173(7) 1.2565(8) 0.0902(4)
N12 N 0.7225(5) 1.3700(7) 0.0769(3)
C11 C 0.6620(9) 1.1205(10) 0.4094(5)
H10 H 0.6579 1.1225 0.4363
C12 C 0.7079(7) 1.1618(8) 0.3916(5)
H11 H 0.7350 1.1917 0.4059
C13 C 0.7134(8) 1.1586(9) 0.3519(6)
C14 C 0.6745(10) 1.1109(10) 0.3322(5)
H12 H 0.6797 1.1062 0.3059
C15 C 0.6285(9) 1.0711(8) 0.3516(6)
H13 H 0.6016 1.0398 0.3382
C16 C 0.7622(9) 1.2057(10) 0.3311(7)
C17 C 0.8318(9) 1.2944(10) 0.3326(6)
C18 C 0.8123(10) 1.2454(12) 0.2764(7)
C19 C 0.5267(9) 1.1188(10) 0.4068(5)
H14 H 0.5457 1.1319 0.4304
C20 C 0.5061(8) 1.1491(9) 0.3877(6)
H15 H 0.5098 1.1811 0.3996
C21 C 0.8666(8) 1.3475(9) 0.3524(5)
C22 C 0.9151(9) 1.3916(10) 0.3359(5)
H16 H 0.9261 1.3877 0.3109
C23 C 0.4934(8) 1.0537(10) 0.3559(7)
H17 H 0.4872 1.0203 0.3449
C24 C 0.8822(9) 1.2793(12) 0.1796(6)
H18 H 0.9131 1.3090 0.1679
C25 C 0.8713(8) 1.2855(10) 0.2184(6)
H19 H 0.8937 1.3184 0.2321
C26 C 0.8249(8) 1.2399(10) 0.2361(5)
C27 C 0.7937(10) 1.1918(11) 0.2146(7)
H20 H 0.7632 1.1610 0.2260
C28 C 0.8082(10) 1.1892(11) 0.1747(6)
H21 H 0.7876 1.1566 0.1603
C29 C 0.9444(9) 1.2024(10) 0.1510(7)
H22 H 0.9240 1.2001 0.1732
C30 C 0.9923(17) 1.1960(13) 0.1517(13)
H23 H 1.0062 1.1904 0.1750
C31 C 1.0176(16) 1.1987(16) 0.1158(16)
H24 H 1.0528 1.2024 0.1184
C32 C 1.005(2) 1.197(3) 0.0845(10)
H25 H 1.0198 1.1889 0.0629
C33 C 0.9595(12) 1.2118(10) 0.0842(9)
C34 C 0.9395(11) 1.2196(11) 0.0459(7)
C35 C 0.9603(15) 1.2168(15) 0.0107(9)
H26 H 0.9891 1.2087 0.0104
C36 C 0.9425(15) 1.2249(12) -0.0235(9)
H27 H 0.9593 1.2257 -0.0473
C37 C 0.8957(14) 1.2322(11) -0.0202(6)
H28 H 0.8795 1.2363 -0.0429
C38 C 0.8730(9) 1.2334(8) 0.0154(7)
H29 H 0.8422 1.2385 0.0165
C39 C 0.7644(10) 1.2205(8) 0.0831(5)
H30 H 0.7535 1.1828 0.0809
C40 C 0.7229(8) 1.2364(9) 0.0786(4)
H31 H 0.6855 1.2099 0.0745
C41 C 0.7408(9) 1.2935(9) 0.0808(4)
C42 C 0.7975(8) 1.3301(7) 0.0872(4)
H32 H 0.8113 1.3685 0.0881
C43 C 0.8318(8) 1.3098(9) 0.0921(4)
H33 H 0.8691 1.3353 0.0973
C44 C 0.7010(10) 1.3151(11) 0.0775(4)
C20A C 0.8509(9) 1.3570(12) 0.3877(6)
C19A C 0.8812(10) 1.4079(13) 0.4068(5)
N7A N 0.9311(6) 1.4501(8) 0.3910(4)
Pd2A Pd 0.97425(5) 1.52394(9) 0.41778(4)
N1A N 1.0226(5) 1.5003(7) 0.4472(4)
C1A C 1.0138(6) 1.4463(9) 0.4449(4)
H1A H 0.9837 1.4192 0.4307
C2A C 1.0500(8) 1.4327(10) 0.4638(5)
H2A H 1.0441 1.3965 0.4623
C3A C 1.0950(7) 1.4732(9) 0.4850(5)
H3A H 1.1193 1.4642 0.4977
C4A C 1.1039(5) 1.5274(9) 0.4873(4)
H4A H 1.1340 1.5545 0.5014
C5A C 1.0676(6) 1.5408(8) 0.4683(4)
C6A C 1.0648(6) 1.5872(8) 0.4673(4)
N2A N 1.0228(5) 1.5880(8) 0.4454(4)
N3A N 0.9232(6) 1.5454(9) 0.3896(5)
C11A C 0.8795(10) 1.5415(13) 0.4094(5)
H10A H 0.8775 1.5354 0.4363
C12A C 0.8382(8) 1.5461(11) 0.3916(5)
H11A H 0.8083 1.5433 0.4059
C13A C 0.8414(9) 1.5548(12) 0.3519(6)
C14A C 0.8891(10) 1.5636(14) 0.3322(5)
H12A H 0.8938 1.5735 0.3059
C15A C 0.9289(8) 1.5574(12) 0.3516(6)
H13A H 0.9602 1.5618 0.3382
C16A C 0.7943(10) 1.5565(13) 0.3311(7)
N4A N 0.7476(8) 1.5396(11) 0.3525(4)
C17A C 0.7056(10) 1.5374(13) 0.3326(6)
N6A N 0.7066(8) 1.5510(11) 0.2941(5)
C18A C 0.7546(12) 1.5669(16) 0.2764(7)
N5A N 0.8018(7) 1.5705(10) 0.2932(5)
C26A C 0.7601(10) 1.5850(13) 0.2361(5)
C25A C 0.7145(10) 1.5858(13) 0.2184(6)
C24A C 0.7207(12) 1.6029(15) 0.1796(6)
N8A N 0.7663(8) 1.6178(11) 0.1581(5)
Pd1A Pd 0.76986(7) 1.64148(9) 0.10295(4)
N9A N 0.7880(7) 1.7195(10) 0.1152(6)
C29A C 0.7976(10) 1.7420(13) 0.1510(7)
H22A H 0.7999 1.7239 0.1732
C30A C 0.8040(13) 1.7963(21) 0.1517(13)
H23A H 0.8096 1.8158 0.1750
C31A C 0.8013(16) 1.8189(23) 0.1158(16)
H24A H 0.7976 1.8504 0.1184
C32A C 0.803(3) 1.808(4) 0.0845(10)
H25A H 0.8111 1.8309 0.0629
C33A C 0.7882(10) 1.7477(16) 0.0842(9)
C34A C 0.7804(11) 1.7199(16) 0.0459(7)
N10A N 0.7728(6) 1.6683(9) 0.0487(5)
N11A N 0.7435(8) 1.5608(11) 0.0902(4)
C39A C 0.7795(8) 1.5439(13) 0.0831(5)
H30A H 0.8172 1.5707 0.0809
C40A C 0.7636(9) 1.4865(12) 0.0786(4)
H31A H 0.7901 1.4756 0.0745
C41A C 0.7065(9) 1.4473(13) 0.0808(4)
C42A C 0.6699(7) 1.4674(11) 0.0872(4)
H32A H 0.6315 1.4428 0.0881
C43A C 0.6902(9) 1.5220(12) 0.0921(4)
H33A H 0.6647 1.5338 0.0973
C44A C 0.6849(11) 1.3859(15) 0.0775(4)
N12A N 0.6300(7) 1.3525(9) 0.0769(3)
C44B C 0.6141(15) 1.2990(10) 0.0775(4)
N12B N 0.6475(9) 1.2775(5) 0.0769(3)
C41B C 0.5527(13) 1.2592(9) 0.0808(4)
C40B C 0.5135(12) 1.2771(8) 0.0786(4)
C39B C 0.4561(13) 1.2356(10) 0.0831(5)
N11B N 0.4392(11) 1.1827(7) 0.0902(4)
Pd1B Pd 0.35852(9) 1.12838(6) 0.10295(4)
N8B N 0.3822(11) 1.1485(7) 0.1581(5)
C24B C 0.3971(15) 1.1178(9) 0.1796(6)
H18B H 0.3959 1.0869 0.1679
C25B C 0.4142(13) 1.1287(8) 0.2184(6)
H19B H 0.4247 1.1063 0.2321
C26B C 0.4150(13) 1.1751(8) 0.2361(5)
C18B C 0.4331(16) 1.1877(10) 0.2764(7)
N5B N 0.4295(10) 1.2313(7) 0.2932(5)
C16B C 0.4435(13) 1.2378(9) 0.3311(7)
N4B N 0.4604(11) 1.2080(7) 0.3525(4)
C17B C 0.4626(13) 1.1682(9) 0.3326(6)
N6B N 0.4490(11) 1.1556(7) 0.2941(5)
C21B C 0.4809(12) 1.1334(8) 0.3524(5)
C22B C 0.4765(13) 1.0849(9) 0.3359(5)
H16B H 0.4616 1.0739 0.3109
C13B C 0.4452(12) 1.2866(8) 0.3519(6)
C12B C 0.4539(11) 1.2921(7) 0.3916(5)
C11B C 0.4585(13) 1.3380(9) 0.4094(5)
N3B N 0.4546(9) 1.3778(7) 0.3896(5)
Pd2B Pd 0.47606(9) 1.45031(7) 0.41778(4)
N1B N 0.4997(7) 1.5223(5) 0.4472(4)
C1B C 0.5537(9) 1.5675(7) 0.4449(4)
H1B H 0.5808 1.5645 0.4307
C2B C 0.5673(10) 1.6173(6) 0.4638(5)
H2B H 0.6035 1.6476 0.4623
C3B C 0.5268(9) 1.6218(5) 0.4850(5)
H3B H 0.5358 1.6551 0.4977
C4B C 0.4726(9) 1.5765(7) 0.4873(4)
H4B H 0.4455 1.5795 0.5014
C5B C 0.4592(8) 1.5268(5) 0.4683(4)
C6B C 0.4128(8) 1.4776(5) 0.4673(4)
N2B N 0.4120(8) 1.4348(6) 0.4454(4)
N7B N 0.5499(8) 1.4810(6) 0.3910(4)
C19B C 0.5921(13) 1.4733(9) 0.4068(5)
H14B H 0.5862 1.4543 0.4304
C20B C 0.6430(12) 1.4939(8) 0.3877(6)
H15B H 0.6713 1.4902 0.3996
C21A C 0.6525(9) 1.5191(12) 0.3524(5)
C22A C 0.6084(10) 1.5235(13) 0.3359(5)
H16A H 0.6123 1.5384 0.3109
C23B C 0.5603(13) 1.5066(8) 0.3559(7)
H17B H 0.5331 1.5128 0.3449
C10B C 0.3641(7) 1.3825(5) 0.4444(4)
C9B C 0.3168(9) 1.3729(5) 0.4652(5)
C8B C 0.3176(9) 1.4157(7) 0.4871(5)
C7B C 0.3657(8) 1.4681(6) 0.4882(4)
H5B H 0.3662 1.4967 0.5028
H6B H 0.2862 1.4094 0.5011
H7B H 0.2848 1.3379 0.4646
H8B H 0.3635 1.3538 0.4297
C15B C 0.4426(12) 1.3715(9) 0.3516(6)
C14B C 0.4364(14) 1.3255(10) 0.3322(5)
H12B H 0.4265 1.3203 0.3059
H13B H 0.4382 1.3984 0.3382
H10B H 0.4646 1.3421 0.4363
H11B H 0.4567 1.2650 0.4059
C27B C 0.3981(15) 1.2063(10) 0.2146(7)
H20B H 0.3978 1.2368 0.2260
C28B C 0.3810(15) 1.1918(10) 0.1747(6)
H21B H 0.3690 1.2124 0.1603
N9B N 0.2805(10) 1.0685(7) 0.1152(6)
C29B C 0.2580(13) 1.0556(9) 0.1510(7)
H22B H 0.2761 1.0760 0.1732
C30B C 0.2037(21) 1.0077(17) 0.1517(13)
H23B H 0.1842 0.9938 0.1750
C31B C 0.1811(23) 0.9824(16) 0.1158(16)
H24B H 0.1496 0.9472 0.1184
C32B C 0.192(4) 0.995(2) 0.0845(10)
H25B H 0.1691 0.9802 0.0629
C33B C 0.2523(16) 1.0405(12) 0.0842(9)
C34B C 0.2801(16) 1.0605(11) 0.0459(7)
N10B N 0.3317(9) 1.1045(7) 0.0487(5)
C38B C 0.3604(12) 1.1270(9) 0.0154(7)
C37B C 0.3365(18) 1.1043(14) -0.0202(6)
C36B C 0.2824(19) 1.0575(15) -0.0235(9)
C35B C 0.2565(21) 1.0397(15) 0.0107(9)
H26B H 0.2196 1.0109 0.0104
H27B H 0.2664 1.0407 -0.0473
H28B H 0.3568 1.1205 -0.0429
H29B H 0.3963 1.1578 0.0165
C43B C 0.4780(12) 1.1682(8) 0.0921(4)
C42B C 0.5326(11) 1.2025(8) 0.0872(4)
H32B H 0.5572 1.1887 0.0881
H33B H 0.4662 1.1309 0.0973
H30B H 0.4293 1.2465 0.0809
H31B H 0.5244 1.3145 0.0745
C38A C 0.7666(8) 1.6396(12) 0.0154(7)
C37A C 0.7678(11) 1.6635(18) -0.0202(6)
C36A C 0.7751(12) 1.7176(19) -0.0235(9)
C35A C 0.7832(15) 1.7435(21) 0.0107(9)
H26A H 0.7913 1.7804 0.0104
H27A H 0.7743 1.7336 -0.0473
H28A H 0.7637 1.6432 -0.0429
H29A H 0.7615 1.6037 0.0165
C28A C 0.8108(11) 1.6190(15) 0.1747(6)
C27A C 0.8082(11) 1.6019(15) 0.2146(7)
H20A H 0.8390 1.6022 0.2260
H21A H 0.8434 1.6310 0.1603
H18A H 0.6910 1.6041 0.1679
H19A H 0.6816 1.5753 0.2321
C10A C 1.0184(5) 1.6359(7) 0.4444(4)
C9A C 1.0561(7) 1.6832(9) 0.4652(5)
C8A C 1.0981(6) 1.6824(9) 0.4871(5)
C7A C 1.1024(6) 1.6343(8) 0.4882(4)
H5A H 1.1305 1.6338 0.5028
H6A H 1.1232 1.7138 0.5011
H7A H 1.0531 1.7152 0.4646
H8A H 0.9903 1.6365 0.4297
C23A C 0.9463(10) 1.4397(13) 0.3559(7)
H17A H 0.9797 1.4669 0.3449
H14A H 0.8681 1.4138 0.4304
H15A H 0.8189 1.3287 0.3996
H9? H 0.8710 1.3218 0.2823
loop_
_geom_bond_atom_site_label_1
_geom_bond_atom_site_label_2
_geom_bond_site_symmetry_1
_geom_bond_site_symmetry_2
Pd1 N8 1_555 1_555
Pd2 N1 1_555 1_555
Si1 O1 1_555 1_555
N1 C1 1_555 1_555
C1 H1 1_555 1_555
C2 C1 1_555 1_555
H2 C2 1_555 1_555
C3 C2 1_555 1_555
H3 C3 1_555 1_555
C4 C3 1_555 1_555
H4 C4 1_555 1_555
C5 N1 1_555 1_555
N2 Pd2 1_555 1_555
C6 C5 1_555 1_555
C7 C6 1_555 1_555
H5 C7 1_555 1_555
C8 C7 1_555 1_555
H6 C8 1_555 1_555
C9 C8 1_555 1_555
H7 C9 1_555 1_555
C10 N2 1_555 1_555
H8 C10 1_555 1_555
N3 Pd2 1_555 1_555
N4 C16 1_555 1_555
N5 C16 1_555 1_555
N6 C17 1_555 1_555
N7 Pd2 1_555 1_555
N8 C24 1_555 1_555
N9 Pd1 1_555 1_555
N10 Pd1 1_555 1_555
N11 Pd1 1_555 1_555
N12 C44 1_555 1_555
C11 N3 1_555 1_555
H10 C11 1_555 1_555
C12 C11 1_555 1_555
H11 C12 1_555 1_555
C13 C12 1_555 1_555
C14 C13 1_555 1_555
H12 C14 1_555 1_555
C15 N3 1_555 1_555
H13 C15 1_555 1_555
C16 C13 1_555 1_555
C17 N4 1_555 1_555
C18 N5 1_555 1_555
C19 N7 1_555 1_555
H14 C19 1_555 1_555
C20 C19 1_555 1_555
H15 C20 1_555 1_555
C21 C17 1_555 1_555
C22 C21 1_555 1_555
H16 C22 1_555 1_555
C23 N7 1_555 1_555
H17 C23 1_555 1_555
C24 H18 1_555 1_555
C25 C24 1_555 1_555
H19 C25 1_555 1_555
C26 C18 1_555 1_555
C27 C26 1_555 1_555
H20 C27 1_555 1_555
C28 N8 1_555 1_555
H21 C28 1_555 1_555
C29 N9 1_555 1_555
H22 C29 1_555 1_555
C30 C29 1_555 1_555
H23 C30 1_555 1_555
C31 C30 1_555 1_555
H24 C31 1_555 1_555
C32 C31 1_555 1_555
H25 C32 1_555 1_555
C33 N9 1_555 1_555
C34 N10 1_555 1_555
C35 C34 1_555 1_555
H26 C35 1_555 1_555
C36 C35 1_555 1_555
H27 C36 1_555 1_555
C37 C36 1_555 1_555
H28 C37 1_555 1_555
C38 N10 1_555 1_555
H29 C38 1_555 1_555
C39 N11 1_555 1_555
H30 C39 1_555 1_555
C40 C39 1_555 1_555
H31 C40 1_555 1_555
C41 C40 1_555 1_555
C42 C41 1_555 1_555
H32 C42 1_555 1_555
C43 N11 1_555 1_555
H33 C43 1_555 1_555
C44 C41 1_555 1_555
O1 Si1A 1_555 1_555
O2 Si1 1_555 1_555
C20A C21 1_555 1_555
C19A C20A 1_555 1_555
N7A C19A 1_555 1_555
Pd2A N7A 1_555 1_555
N1A Pd2A 1_555 1_555
C1A N1A 1_555 1_555
H1A C1A 1_555 1_555
C2A C1A 1_555 1_555
H2A C2A 1_555 1_555
C3A C2A 1_555 1_555
H3A C3A 1_555 1_555
C4A C3A 1_555 1_555
H4A C4A 1_555 1_555
C5A N1A 1_555 1_555
C6A C5A 1_555 1_555
N2A Pd2A 1_555 1_555
N3A Pd2A 1_555 1_555
C11A N3A 1_555 1_555
H10A C11A 1_555 1_555
C12A C11A 1_555 1_555
H11A C12A 1_555 1_555
C13A C12A 1_555 1_555
C14A C13A 1_555 1_555
H12A C14A 1_555 1_555
C15A N3A 1_555 1_555
H13A C15A 1_555 1_555
C16A C13A 1_555 1_555
N4A C16A 1_555 1_555
C17A N4A 1_555 1_555
N6A C17A 1_555 1_555
C18A N6A 1_555 1_555
N5A C16A 1_555 1_555
C26A C18A 1_555 1_555
C25A C26A 1_555 1_555
C24A C25A 1_555 1_555
N8A C24A 1_555 1_555
Pd1A N8A 1_555 1_555
N9A Pd1A 1_555 1_555
C29A N9A 1_555 1_555
H22A C29A 1_555 1_555
C30A C29A 1_555 1_555
H23A C30A 1_555 1_555
C31A C30A 1_555 1_555
H24A C31A 1_555 1_555
C32A C31A 1_555 1_555
H25A C32A 1_555 1_555
C33A N9A 1_555 1_555
C34A C33A 1_555 1_555
N10A Pd1A 1_555 1_555
N11A Pd1A 1_555 1_555
C39A N11A 1_555 1_555
H30A C39A 1_555 1_555
C40A C39A 1_555 1_555
H31A C40A 1_555 1_555
C41A C40A 1_555 1_555
C42A C41A 1_555 1_555
H32A C42A 1_555 1_555
C43A N11A 1_555 1_555
H33A C43A 1_555 1_555
C44A N12 1_555 1_555
N12A C44A 1_555 1_555
C44B N12A 1_555 1_555
N12B C44 1_555 1_555
C41B C44B 1_555 1_555
C40B C41B 1_555 1_555
C39B C40B 1_555 1_555
N11B C39B 1_555 1_555
Pd1B N11B 1_555 1_555
N8B Pd1B 1_555 1_555
C24B N8B 1_555 1_555
H18B C24B 1_555 1_555
C25B C24B 1_555 1_555
H19B C25B 1_555 1_555
C26B C25B 1_555 1_555
C18B C26B 1_555 1_555
N5B C18B 1_555 1_555
C16B N5B 1_555 1_555
N4B C16B 1_555 1_555
C17B N4B 1_555 1_555
N6B C18B 1_555 1_555
C21B C20 1_555 1_555
C22B C23 1_555 1_555
H16B C22B 1_555 1_555
C13B C16B 1_555 1_555
C12B C13B 1_555 1_555
C11B C12B 1_555 1_555
N3B C11B 1_555 1_555
Pd2B N3B 1_555 1_555
N1B Pd2B 1_555 1_555
C1B N1B 1_555 1_555
H1B C1B 1_555 1_555
C2B C1B 1_555 1_555
H2B C2B 1_555 1_555
C3B C2B 1_555 1_555
H3B C3B 1_555 1_555
C4B C3B 1_555 1_555
H4B C4B 1_555 1_555
C5B N1B 1_555 1_555
C6B C5B 1_555 1_555
N2B Pd2B 1_555 1_555
N7B Pd2B 1_555 1_555
C19B N7B 1_555 1_555
H14B C19B 1_555 1_555
C20B C19B 1_555 1_555
H15B C20B 1_555 1_555
C21A C17A 1_555 1_555
C22A C21A 1_555 1_555
H16A C22A 1_555 1_555
C23B N7B 1_555 1_555
H17B C23B 1_555 1_555
C10B N2B 1_555 1_555
C9B C10B 1_555 1_555
C8B C9B 1_555 1_555
C7B C6B 1_555 1_555
H5B C7B 1_555 1_555
H6B C8B 1_555 1_555
H7B C9B 1_555 1_555
H8B C10B 1_555 1_555
C15B N3B 1_555 1_555
C14B C13B 1_555 1_555
H12B C14B 1_555 1_555
H13B C15B 1_555 1_555
H10B C11B 1_555 1_555
H11B C12B 1_555 1_555
C27B C26B 1_555 1_555
H20B C27B 1_555 1_555
C28B N8B 1_555 1_555
H21B C28B 1_555 1_555
N9B Pd1B 1_555 1_555
C29B N9B 1_555 1_555
H22B C29B 1_555 1_555
C30B C29B 1_555 1_555
H23B C30B 1_555 1_555
C31B C30B 1_555 1_555
H24B C31B 1_555 1_555
C32B C31B 1_555 1_555
H25B C32B 1_555 1_555
C33B N9B 1_555 1_555
C34B C33B 1_555 1_555
N10B Pd1B 1_555 1_555
C38B N10B 1_555 1_555
C37B C38B 1_555 1_555
C36B C37B 1_555 1_555
C35B C34B 1_555 1_555
H26B C35B 1_555 1_555
H27B C36B 1_555 1_555
H28B C37B 1_555 1_555
H29B C38B 1_555 1_555
C43B N11B 1_555 1_555
C42B C41B 1_555 1_555
H32B C42B 1_555 1_555
H33B C43B 1_555 1_555
H30B C39B 1_555 1_555
H31B C40B 1_555 1_555
C38A N10A 1_555 1_555
C37A C38A 1_555 1_555
C36A C37A 1_555 1_555
C35A C34A 1_555 1_555
H26A C35A 1_555 1_555
H27A C36A 1_555 1_555
H28A C37A 1_555 1_555
H29A C38A 1_555 1_555
C28A N8A 1_555 1_555
C27A C26A 1_555 1_555
H20A C27A 1_555 1_555
H21A C28A 1_555 1_555
H18A C24A 1_555 1_555
H19A C25A 1_555 1_555
C10A N2A 1_555 1_555
C9A C10A 1_555 1_555
C8A C9A 1_555 1_555
C7A C6A 1_555 1_555
H5A C7A 1_555 1_555
H6A C8A 1_555 1_555
H7A C9A 1_555 1_555
H8A C10A 1_555 1_555
C23A C22 1_555 1_555
H17A C23A 1_555 1_555
H14A C19A 1_555 1_555
H15A C20A 1_555 1_555
Si1A O1A 1_555 1_555
O1A Si1B 1_555 1_555
Si1B O1B 1_555 1_555
O1B Si1 1_555 1_555
O2B Si1B 1_555 1_555
O2A Si1A 1_555 1_555
C4 C5 1_555 1_555
N2 C6 1_555 1_555
C9 C10 1_555 1_555
N6 C18 1_555 1_555
C14 C15 1_555 1_555
C25 C26 1_555 1_555
C27 C28 1_555 1_555
C32 C33 1_555 1_555
C33 C34 1_555 1_555
C37 C38 1_555 1_555
C42 C43 1_555 1_555
N7A C23A 1_555 1_555
C4A C5A 1_555 1_555
C6A N2A 1_555 1_555
C14A C15A 1_555 1_555
C18A N5A 1_555 1_555
C32A C33A 1_555 1_555
C34A N10A 1_555 1_555
C41A C44A 1_555 1_555
C42A C43A 1_555 1_555
C44B N12B 1_555 1_555
C17B N6B 1_555 1_555
C17B C21B 1_555 1_555
C21B C22B 1_555 1_555
C4B C5B 1_555 1_555
C6B N2B 1_555 1_555
C20B C21A 1_555 1_555
C22A C23B 1_555 1_555
C8B C7B 1_555 1_555
C15B C14B 1_555 1_555
C27B C28B 1_555 1_555
C32B C33B 1_555 1_555
C34B N10B 1_555 1_555
C36B C35B 1_555 1_555
C43B C42B 1_555 1_555
C36A C35A 1_555 1_555
C28A C27A 1_555 1_555
C8A C7A 1_555 1_555

#END
