
#######################################################################
#
#                 Cambridge Crystallographic Data Centre
#                                CCDC 
#
#######################################################################
#
# If this CIF has been generated from an entry in the Cambridge 
# Structural Database, then it will include bibliographic, chemical, 
# crystal, experimental, refinement or atomic coordinate data resulting 
# from the CCDC's data processing and validation procedures.
#
#######################################################################

data_XEZBAF
_chemical_formula_moiety         
'C132 H96 N36 Pd6 12+,2(C16 H14 O4),12(N1 O3 1-),x(H2 O1)'
_chemical_name_systematic        
"tetrakis(\m~3~-2,4,6-tris(Pyrid-4-yl)-1,3,5-triazine-N,N',N'')-hexakis(2,2-bipyridyl-N,N')-hexa-palladium bis(4,4'-dimethoxybenzil) clathrate dodecanitrate hydrate"
_symmetry_cell_setting           tetragonal
_symmetry_space_group_name_H-M   'P 43 21 2'
_symmetry_Int_Tables_number      96
_space_group_name_Hall           'P 4nw 2abw'
loop_
_symmetry_equiv_pos_site_id
_symmetry_equiv_pos_as_xyz
1 x,y,z
2 -x,-y,1/2+z
3 1/2-y,1/2+x,3/4+z
4 1/2+y,1/2-x,1/4+z
5 1/2-x,1/2+y,3/4-z
6 1/2+x,1/2-y,1/4-z
7 y,x,-z
8 -y,-x,1/2-z
_cell_length_a                   29.535(3)
_cell_length_b                   29.535(3)
_cell_length_c                   31.351(4)
_cell_angle_alpha                90
_cell_angle_beta                 90
_cell_angle_gamma                90
_cell_volume                     27348
_exptl_crystal_colour            'pale yellow'
_exptl_crystal_description       prisms
_cell_formula_units_Z            4
loop_
_atom_site_label
_atom_site_type_symbol
_atom_site_fract_x
_atom_site_fract_y
_atom_site_fract_z
N2 N 0.8813(13) 0.4543(15) 0.3500(13)
O1 O 0.9085(11) 0.4696(11) 0.3214(11)
O2 O 0.8524(12) 0.4900(12) 0.3450(11)
O3 O 0.8828(11) 0.4233(13) 0.3693(11)
N4 N 1.0776(6) 0.3456(7) 0.2837(6)
O4 O 1.0888(5) 0.3153(6) 0.2619(5)
O5 O 1.0657(6) 0.3385(6) 0.3188(6)
O6 O 1.0813(6) 0.3815(7) 0.2730(6)
C67 C 0.709(3) 0.6913(12) 0.3571(13)
H49 H 0.6924 0.6808 0.3330
H50 H 0.6948 0.6818 0.3830
H51 H 0.7395 0.6789 0.3561
C68 C 0.7362(8) 0.7643(10) 0.3894(7)
C69 C 0.7350(7) 0.8155(9) 0.3874(8)
H52 H 0.7203 0.8321 0.3664
C70 C 0.7594(10) 0.8347(9) 0.4221(10)
H53 H 0.7564 0.8658 0.4262
C71 C 0.7860(9) 0.8125(11) 0.4492(8)
C72 C 0.7879(7) 0.7655(10) 0.4446(7)
H54 H 0.8069 0.7496 0.4629
C73 C 0.7647(9) 0.7418(9) 0.4159(8)
H55 H 0.7678 0.7106 0.4141
C74 C 0.8078(9) 0.8368(12) 0.4822(8)
O7 O 0.7122(7) 0.7452(8) 0.3561(6)
O8 O 0.8080(8) 0.8788(8) 0.4890(6)
C74F C 0.8368(12) 0.8078(9) 0.5178(8)
C71F C 0.8125(11) 0.7860(9) 0.5508(8)
C70F C 0.8347(9) 0.7594(10) 0.5779(10)
C69F C 0.8155(9) 0.7350(7) 0.6126(8)
C68F C 0.7643(10) 0.7362(8) 0.6106(7)
C73F C 0.7418(9) 0.7647(9) 0.5841(8)
C72F C 0.7655(10) 0.7879(7) 0.5554(7)
H54F H 0.7496 0.8069 0.5371
H55F H 0.7106 0.7678 0.5859
O7F O 0.7452(8) 0.7122(7) 0.6439(6)
C67F C 0.6913(12) 0.709(3) 0.6429(13)
H49F H 0.6808 0.6924 0.6670
H50F H 0.6818 0.6948 0.6170
H51F H 0.6789 0.7395 0.6439
H52F H 0.8321 0.7203 0.6336
H53F H 0.8658 0.7564 0.5738
O8F O 0.8788(8) 0.8080(8) 0.5110(6)
C75 C 0.8805(8) 0.6601(9) 0.5113(9)
H56 H 0.9122 0.6570 0.5056
H57 H 0.8732 0.6453 0.5377
H58 H 0.8729 0.6917 0.5133
C76 C 0.8149(12) 0.6431(8) 0.4846(8)
C77 C 0.7903(12) 0.6235(10) 0.4549(12)
H59 H 0.8064 0.6091 0.4333
C78 C 0.7459(11) 0.6215(7) 0.4518(8)
H60 H 0.7323 0.6068 0.4290
C79 C 0.7184(11) 0.6428(8) 0.4851(9)
C80 C 0.7400(10) 0.6610(8) 0.5159(9)
H61 H 0.7249 0.6754 0.5381
C81 C 0.7878(10) 0.6585(10) 0.5148(10)
H62 H 0.8023 0.6693 0.5391
C82 C 0.6679(8) 0.6447(8) 0.4818(10)
O9 O 0.8568(7) 0.6412(5) 0.4797(6)
O10 O 0.6460(6) 0.6297(7) 0.4552(9)
C82F C 0.6447(8) 0.6679(8) 0.5182(10)
C79F C 0.6428(8) 0.7184(11) 0.5149(9)
C78F C 0.6215(7) 0.7459(11) 0.5482(8)
C77F C 0.6235(10) 0.7903(12) 0.5451(12)
C76F C 0.6431(8) 0.8149(12) 0.5154(8)
C81F C 0.6585(10) 0.7878(10) 0.4852(10)
C80F C 0.6610(8) 0.7400(10) 0.4841(9)
H61F H 0.6754 0.7249 0.4619
H62F H 0.6693 0.8023 0.4609
O9F O 0.6412(5) 0.8568(7) 0.5203(6)
C75F C 0.6601(9) 0.8805(8) 0.4887(9)
H56F H 0.6570 0.9122 0.4944
H57F H 0.6453 0.8732 0.4623
H58F H 0.6917 0.8729 0.4867
H59F H 0.6091 0.8064 0.5667
H60F H 0.6068 0.7323 0.5710
O10F O 0.6297(7) 0.6460(6) 0.5448(9)
Pd1 Pd 0.52051(4) 0.52051(4) 0.5000
Pd2 Pd 0.94815(5) 0.52547(5) 0.41132(4)
Pd3 Pd 0.67583(5) 0.80642(5) 0.21710(4)
Pd4 Pd 0.95913(5) 0.95913(5) 0.5000
N1 N 0.4561(5) 0.5102(6) 0.4788(5)
N3 N 0.5850(5) 0.5272(4) 0.5207(6)
N5 N 0.8048(6) 0.5654(5) 0.5874(6)
N6 N 0.7250(5) 0.5665(5) 0.5999(5)
N7 N 0.7519(6) 0.5368(4) 0.5344(5)
N8 N 0.9014(5) 0.5252(4) 0.4588(5)
N9 N 0.9686(3) 0.4618(3) 0.4192(3)
C1 C 0.9533(4) 0.4311(4) 0.4496(3)
H1 H 0.9335 0.4405 0.4709
C2 C 0.9677(4) 0.3863(3) 0.4482(4)
H2 H 0.9575 0.3658 0.4685
C3 C 0.9974(4) 0.3722(3) 0.4164(4)
H3 H 1.0070 0.3423 0.4155
C4 C 1.0126(4) 0.4029(4) 0.3860(4)
H4 H 1.0325 0.3935 0.3648
C5 C 0.9982(4) 0.4477(4) 0.3874(3)
N10 N 0.9934(4) 0.5236(5) 0.3650(4)
C6 C 1.0127(5) 0.4813(4) 0.3580(4)
C7 C 1.0448(5) 0.4758(5) 0.3259(5)
H5 H 1.0577 0.4475 0.3212
C8 C 1.0575(5) 0.5125(7) 0.3009(5)
H6 H 1.0789 0.5088 0.2795
C9 C 1.0382(6) 0.5548(6) 0.3080(5)
H7 H 1.0467 0.5794 0.2913
C10 C 1.0061(6) 0.5603(4) 0.3400(5)
H8 H 0.9932 0.5886 0.3447
N11 N 0.9283(5) 0.5896(5) 0.3999(5)
N12 N 0.9056(5) 0.7557(6) 0.3956(5)
N13 N 0.8575(6) 0.7301(6) 0.3432(6)
N14 N 0.8575(6) 0.8082(5) 0.3568(6)
N15 N 0.9400(7) 0.9065(7) 0.4592(5)
N16 N 0.9802(6) 1.0081(5) 0.5361(6)
C11 C 1.0149(6) 1.0317(7) 0.5161(5)
C12 C 1.0316(7) 1.0713(8) 0.5342(9)
H9 H 1.0548 1.0872 0.5208
C13 C 1.0135(10) 1.0873(7) 0.5722(10)
H10 H 1.0246 1.1138 0.5843
C14 C 0.9788(9) 1.0636(9) 0.5922(6)
H11 H 0.9667 1.0743 0.6177
C15 C 0.9621(6) 1.0240(8) 0.5742(6)
H12 H 0.9389 1.0082 0.5875
N17 N 0.7335(5) 0.7957(6) 0.2493(5)
N18 N 0.7053(5) 0.8228(4) 0.1628(4)
C16 C 0.7517(4) 0.8210(5) 0.1553(5)
H13 H 0.7711 0.8105 0.1765
C17 C 0.7690(5) 0.8348(6) 0.1162(6)
H14 H 0.8001 0.8335 0.1112
C18 C 0.7400(7) 0.8505(6) 0.0846(4)
H15 H 0.7517 0.8597 0.0584
C19 C 0.6937(7) 0.8523(6) 0.0920(4)
H16 H 0.6743 0.8628 0.0709
C20 C 0.6763(4) 0.8385(5) 0.1311(5)
N19 N 0.6200(6) 0.8198(5) 0.1823(6)
N20 N 0.6414(5) 0.7936(6) 0.2721(4)
C21 C 0.4394(7) 0.4681(7) 0.4890(7)
C22 C 0.3976(10) 0.4585(10) 0.4771(11)
H17 H 0.3863 0.4297 0.4826
C23 C 0.3708(10) 0.4882(13) 0.4578(12)
H18 H 0.3414 0.4800 0.4504
C24 C 0.3868(9) 0.5324(11) 0.4484(7)
H19 H 0.3683 0.5543 0.4360
C25 C 0.4298(9) 0.5406(8) 0.4583(8)
H20 H 0.4423 0.5684 0.4508
C26 C 0.5940(8) 0.5376(7) 0.5617(6)
H21 H 0.5706 0.5416 0.5811
C27 C 0.6393(8) 0.5424(6) 0.5745(6)
H22 H 0.6452 0.5489 0.6030
C28 C 0.6739(7) 0.5381(6) 0.5483(6)
C29 C 0.6632(8) 0.5263(6) 0.5065(6)
H23 H 0.6865 0.5220 0.4869
C30 C 0.6187(7) 0.5209(6) 0.4935(7)
H24 H 0.6125 0.5129 0.4654
C31 C 0.7193(6) 0.5474(5) 0.5611(7)
C32 C 0.7701(8) 0.5749(6) 0.6123(7)
C33 C 0.7973(8) 0.5457(6) 0.5488(8)
C34 C 0.8581(7) 0.5145(5) 0.4492(6)
H25 H 0.8515 0.5045 0.4217
C35 C 0.8231(6) 0.5176(6) 0.4783(7)
H26 H 0.7939 0.5089 0.4711
C36 C 0.8332(6) 0.5344(5) 0.5191(6)
C37 C 0.8774(6) 0.5454(5) 0.5279(6)
H27 H 0.8845 0.5565 0.5549
C38 C 0.9110(7) 0.5405(6) 0.4990(7)
H28 H 0.9406 0.5477 0.5063
C39 C 0.9488(6) 0.6244(7) 0.4176(7)
H29 H 0.9728 0.6182 0.4359
C40 C 0.9378(7) 0.6700(7) 0.4111(6)
H30 H 0.9536 0.6929 0.4250
C41 C 0.9020(7) 0.6801(7) 0.3827(6)
C42 C 0.8823(7) 0.6395(11) 0.3637(6)
H31 H 0.8586 0.6438 0.3446
C43 C 0.8950(8) 0.5969(7) 0.3712(6)
H32 H 0.8813 0.5729 0.3570
C44 C 0.8877(7) 0.7244(8) 0.3736(7)
C45 C 0.8905(8) 0.8004(9) 0.3858(8)
C46 C 0.8414(7) 0.7744(7) 0.3367(6)
C47 C 0.9055(8) 0.9145(7) 0.4339(7)
H33 H 0.8912 0.9426 0.4340
C48 C 0.8904(7) 0.8793(8) 0.4064(7)
H34 H 0.8686 0.8847 0.3856
C49 C 0.9088(6) 0.8377(7) 0.4116(6)
C50 C 0.9446(9) 0.8304(7) 0.4377(6)
H35 H 0.9585 0.8022 0.4398
C51 C 0.9581(7) 0.8642(10) 0.4591(8)
H36 H 0.9830 0.8595 0.4766
C52 C 0.7538(9) 0.8284(8) 0.2686(8)
H37 H 0.7437 0.8577 0.2635
C53 C 0.7904(8) 0.8224(7) 0.2971(7)
H38 H 0.8027 0.8474 0.3108
C54 C 0.8064(6) 0.7839(7) 0.3042(5)
C55 C 0.7858(8) 0.7466(7) 0.2806(7)
H39 H 0.7967 0.7172 0.2833
C56 C 0.7509(7) 0.7559(8) 0.2549(7)
H40 H 0.7381 0.7319 0.2399
C57 C 0.6317(9) 0.8349(8) 0.1417(7)
C58 C 0.5903(16) 0.8505(12) 0.1170(9)
H41 H 0.5951 0.8655 0.0913
C59 C 0.5459(13) 0.8442(18) 0.1299(16)
H42 H 0.5217 0.8516 0.1123
C60 C 0.5397(11) 0.8275(13) 0.1679(12)
H43 H 0.5103 0.8229 0.1778
C61 C 0.5779(11) 0.8160(7) 0.1949(8)
H44 H 0.5723 0.8054 0.2224
C62 C 0.6372(6) 0.8283(7) 0.3004(6)
H45 H 0.6492 0.8566 0.2938
C63 C 0.6149(6) 0.8218(7) 0.3394(6)
H46 H 0.6123 0.8453 0.3589
C64 C 0.7785(6) 0.5964(6) 0.6515(6)
C65 C 0.7449(7) 0.6033(7) 0.6802(7)
H47 H 0.7158 0.5934 0.6739
C66 C 0.6250(7) 0.7529(7) 0.2811(6)
H48 H 0.6279 0.7296 0.2613
C21F C 0.4681(7) 0.4394(7) 0.5110(7)
N1F N 0.5102(6) 0.4561(5) 0.5212(5)
C64F C 0.5964(6) 0.7785(6) 0.3485(6)
C32F C 0.5749(6) 0.7701(8) 0.3877(7)
N5F N 0.5654(5) 0.8048(6) 0.4126(6)
C33F C 0.5457(6) 0.7973(8) 0.4512(8)
N7F N 0.5368(4) 0.7519(6) 0.4656(5)
C31F C 0.5474(5) 0.7193(6) 0.4389(7)
N6F N 0.5665(5) 0.7250(5) 0.4001(5)
C28F C 0.5381(6) 0.6739(7) 0.4517(6)
C27F C 0.5424(6) 0.6393(8) 0.4255(6)
C26F C 0.5376(7) 0.5940(8) 0.4383(6)
N3F N 0.5272(4) 0.5850(5) 0.4793(6)
C30F C 0.5209(6) 0.6187(7) 0.5065(7)
C29F C 0.5263(6) 0.6632(8) 0.4935(6)
H23F H 0.5220 0.6865 0.5131
H24F H 0.5129 0.6125 0.5346
H21F H 0.5416 0.5706 0.4189
H22F H 0.5489 0.6452 0.3970
C36F C 0.5344(5) 0.8332(6) 0.4809(6)
C35F C 0.5176(6) 0.8231(6) 0.5217(7)
C34F C 0.5145(5) 0.8581(7) 0.5508(6)
N8F N 0.5252(4) 0.9014(5) 0.5412(5)
Pd2F Pd 0.52547(5) 0.94815(5) 0.58868(4)
N9F N 0.4618(3) 0.9686(3) 0.5808(3)
C1F C 0.4311(4) 0.9533(4) 0.5504(3)
H1F H 0.4405 0.9335 0.5291
C2F C 0.3863(3) 0.9677(4) 0.5518(4)
H2F H 0.3658 0.9575 0.5315
C3F C 0.3722(3) 0.9974(4) 0.5836(4)
H3F H 0.3423 1.0070 0.5845
C4F C 0.4029(4) 1.0126(4) 0.6140(4)
H4F H 0.3935 1.0325 0.6352
C5F C 0.4477(4) 0.9982(4) 0.6126(3)
C6F C 0.4813(4) 1.0127(5) 0.6420(4)
N10F N 0.5236(5) 0.9934(4) 0.6350(4)
N11F N 0.5896(5) 0.9283(5) 0.6001(5)
C39F C 0.6244(7) 0.9488(6) 0.5824(7)
H29F H 0.6182 0.9728 0.5641
C40F C 0.6700(7) 0.9378(7) 0.5889(6)
H30F H 0.6929 0.9536 0.5750
C41F C 0.6801(7) 0.9020(7) 0.6173(6)
C42F C 0.6395(11) 0.8823(7) 0.6363(6)
H31F H 0.6438 0.8586 0.6554
C43F C 0.5969(7) 0.8950(8) 0.6288(6)
H32F H 0.5729 0.8813 0.6430
C44F C 0.7244(8) 0.8877(7) 0.6264(7)
N12F N 0.7557(6) 0.9056(5) 0.6044(5)
C45F C 0.8004(9) 0.8905(8) 0.6142(8)
N14F N 0.8082(5) 0.8575(6) 0.6432(6)
C46F C 0.7744(7) 0.8414(7) 0.6633(6)
N13F N 0.7301(6) 0.8575(6) 0.6568(6)
C54F C 0.7839(7) 0.8064(6) 0.6958(5)
C53F C 0.8224(7) 0.7904(8) 0.7029(7)
C52F C 0.8284(8) 0.7538(9) 0.7314(8)
N17F N 0.7957(6) 0.7335(5) 0.7507(5)
Pd3F Pd 0.80642(5) 0.67583(5) 0.78290(4)
N18F N 0.8228(4) 0.7053(5) 0.8372(4)
C16F C 0.8210(5) 0.7517(4) 0.8447(5)
H13F H 0.8105 0.7711 0.8235
C17F C 0.8348(6) 0.7690(5) 0.8838(6)
H14F H 0.8335 0.8001 0.8888
C18F C 0.8505(6) 0.7400(7) 0.9154(4)
H15F H 0.8597 0.7517 0.9416
C19F C 0.8523(6) 0.6937(7) 0.9080(4)
H16F H 0.8628 0.6743 0.9291
C20F C 0.8385(5) 0.6763(4) 0.8689(5)
C57F C 0.8349(8) 0.6317(9) 0.8583(7)
N19F N 0.8198(5) 0.6200(6) 0.8177(6)
N20F N 0.7936(6) 0.6414(5) 0.7279(4)
C62F C 0.8283(7) 0.6372(6) 0.6996(6)
H45F H 0.8566 0.6492 0.7062
C63F C 0.8218(7) 0.6149(6) 0.6606(6)
H46F H 0.8453 0.6123 0.6411
C66F C 0.7529(7) 0.6250(7) 0.7189(6)
H48F H 0.7296 0.6279 0.7387
C61F C 0.8160(7) 0.5779(11) 0.8051(8)
C60F C 0.8275(13) 0.5397(11) 0.8321(12)
C59F C 0.8442(18) 0.5459(13) 0.8701(16)
C58F C 0.8505(12) 0.5903(16) 0.8830(9)
H41F H 0.8655 0.5951 0.9087
H42F H 0.8516 0.5217 0.8877
H43F H 0.8229 0.5103 0.8222
H44F H 0.8054 0.5723 0.7776
C56F C 0.7559(8) 0.7509(7) 0.7451(7)
C55F C 0.7466(7) 0.7858(8) 0.7194(7)
H39F H 0.7172 0.7967 0.7167
H40F H 0.7319 0.7381 0.7601
H37F H 0.8577 0.7437 0.7365
H38F H 0.8474 0.8027 0.6892
C49F C 0.8377(7) 0.9088(6) 0.5884(6)
C48F C 0.8793(8) 0.8904(7) 0.5936(7)
C47F C 0.9145(7) 0.9055(8) 0.5661(7)
N15F N 0.9065(7) 0.9400(7) 0.5408(5)
C11F C 1.0317(7) 1.0149(6) 0.4839(5)
N16F N 1.0081(5) 0.9802(6) 0.4639(6)
C15F C 1.0240(8) 0.9621(6) 0.4258(6)
C14F C 1.0636(9) 0.9788(9) 0.4078(6)
C13F C 1.0873(7) 1.0135(10) 0.4278(10)
C12F C 1.0713(8) 1.0316(7) 0.4658(9)
H9F H 1.0872 1.0548 0.4792
H10F H 1.1138 1.0246 0.4157
H11F H 1.0743 0.9667 0.3823
H12F H 1.0082 0.9389 0.4125
C51F C 0.8642(10) 0.9581(7) 0.5409(8)
C50F C 0.8304(7) 0.9446(9) 0.5623(6)
H35F H 0.8022 0.9585 0.5602
H36F H 0.8595 0.9830 0.5234
H33F H 0.9426 0.8912 0.5660
H34F H 0.8847 0.8686 0.6144
C10F C 0.5603(4) 1.0061(6) 0.6600(5)
C9F C 0.5548(6) 1.0382(6) 0.6920(5)
C8F C 0.5125(7) 1.0575(5) 0.6991(5)
C7F C 0.4758(5) 1.0448(5) 0.6741(5)
H5F H 0.4475 1.0577 0.6788
H6F H 0.5088 1.0789 0.7205
H7F H 0.5794 1.0467 0.7087
H8F H 0.5886 0.9932 0.6553
C38F C 0.5405(6) 0.9110(7) 0.5010(7)
C37F C 0.5454(5) 0.8774(6) 0.4721(6)
H27F H 0.5565 0.8845 0.4451
H28F H 0.5477 0.9406 0.4937
H25F H 0.5045 0.8515 0.5783
H26F H 0.5089 0.7939 0.5289
C65F C 0.6033(7) 0.7449(7) 0.3198(7)
H47F H 0.5934 0.7158 0.3261
C25F C 0.5406(8) 0.4298(9) 0.5417(8)
C24F C 0.5324(11) 0.3868(9) 0.5516(7)
C23F C 0.4882(13) 0.3708(10) 0.5422(12)
C22F C 0.4585(10) 0.3976(10) 0.5229(11)
H17F H 0.4297 0.3863 0.5174
H18F H 0.4800 0.3414 0.5496
H19F H 0.5543 0.3683 0.5640
H20F H 0.5684 0.4423 0.5492
loop_
_geom_bond_atom_site_label_1
_geom_bond_atom_site_label_2
_geom_bond_site_symmetry_1
_geom_bond_site_symmetry_2
Pd1 N1 1_555 1_555
Pd2 N8 1_555 1_555
Pd3 N17 1_555 1_555
Pd4 N15 1_555 1_555
N1 C21 1_555 1_555
N2 O1 1_555 1_555
N3 Pd1 1_555 1_555
N4 O4 1_555 1_555
N5 C32 1_555 1_555
N6 C31 1_555 1_555
N7 C31 1_555 1_555
N8 C34 1_555 1_555
N9 Pd2 1_555 1_555
C1 N9 1_555 1_555
H1 C1 1_555 1_555
C2 C1 1_555 1_555
H2 C2 1_555 1_555
C3 C2 1_555 1_555
H3 C3 1_555 1_555
C4 C3 1_555 1_555
H4 C4 1_555 1_555
C5 N9 1_555 1_555
N10 Pd2 1_555 1_555
C6 C5 1_555 1_555
C7 C6 1_555 1_555
H5 C7 1_555 1_555
C8 C7 1_555 1_555
H6 C8 1_555 1_555
C9 C8 1_555 1_555
H7 C9 1_555 1_555
C10 N10 1_555 1_555
H8 C10 1_555 1_555
N11 Pd2 1_555 1_555
N12 C44 1_555 1_555
N13 C44 1_555 1_555
N14 C45 1_555 1_555
N15 C47 1_555 1_555
N16 Pd4 1_555 1_555
C11 N16 1_555 1_555
C12 C11 1_555 1_555
H9 C12 1_555 1_555
C13 C12 1_555 1_555
H10 C13 1_555 1_555
C14 C13 1_555 1_555
H11 C14 1_555 1_555
C15 N16 1_555 1_555
H12 C15 1_555 1_555
N17 C52 1_555 1_555
N18 Pd3 1_555 1_555
C16 N18 1_555 1_555
H13 C16 1_555 1_555
C17 C16 1_555 1_555
H14 C17 1_555 1_555
C18 C17 1_555 1_555
H15 C18 1_555 1_555
C19 C18 1_555 1_555
H16 C19 1_555 1_555
C20 N18 1_555 1_555
N19 Pd3 1_555 1_555
N20 Pd3 1_555 1_555
C21 C22 1_555 1_555
C22 H17 1_555 1_555
C23 C22 1_555 1_555
H18 C23 1_555 1_555
C24 C23 1_555 1_555
H19 C24 1_555 1_555
C25 N1 1_555 1_555
H20 C25 1_555 1_555
C26 N3 1_555 1_555
H21 C26 1_555 1_555
C27 C26 1_555 1_555
H22 C27 1_555 1_555
C28 C27 1_555 1_555
C29 C28 1_555 1_555
H23 C29 1_555 1_555
C30 N3 1_555 1_555
H24 C30 1_555 1_555
C31 C28 1_555 1_555
C32 N6 1_555 1_555
C33 N5 1_555 1_555
C34 H25 1_555 1_555
C35 C34 1_555 1_555
H26 C35 1_555 1_555
C36 C33 1_555 1_555
C37 C36 1_555 1_555
H27 C37 1_555 1_555
C38 N8 1_555 1_555
H28 C38 1_555 1_555
C39 N11 1_555 1_555
H29 C39 1_555 1_555
C40 C39 1_555 1_555
H30 C40 1_555 1_555
C41 C40 1_555 1_555
C42 C41 1_555 1_555
H31 C42 1_555 1_555
C43 N11 1_555 1_555
H32 C43 1_555 1_555
C44 C41 1_555 1_555
C45 N12 1_555 1_555
C46 N13 1_555 1_555
C47 H33 1_555 1_555
C48 C47 1_555 1_555
H34 C48 1_555 1_555
C49 C45 1_555 1_555
C50 C49 1_555 1_555
H35 C50 1_555 1_555
C51 N15 1_555 1_555
H36 C51 1_555 1_555
C52 H37 1_555 1_555
C53 C52 1_555 1_555
H38 C53 1_555 1_555
C54 C46 1_555 1_555
C55 C54 1_555 1_555
H39 C55 1_555 1_555
C56 N17 1_555 1_555
H40 C56 1_555 1_555
C57 C20 1_555 1_555
C58 C57 1_555 1_555
H41 C58 1_555 1_555
C59 C58 1_555 1_555
H42 C59 1_555 1_555
C60 C59 1_555 1_555
H43 C60 1_555 1_555
C61 N19 1_555 1_555
H44 C61 1_555 1_555
C62 N20 1_555 1_555
H45 C62 1_555 1_555
C63 C62 1_555 1_555
H46 C63 1_555 1_555
C64 C32 1_555 1_555
C65 C64 1_555 1_555
H47 C65 1_555 1_555
C66 N20 1_555 1_555
H48 C66 1_555 1_555
C67 H49 1_555 1_555
H50 C67 1_555 1_555
H51 C67 1_555 1_555
C68 C69 1_555 1_555
C69 H52 1_555 1_555
C70 C69 1_555 1_555
H53 C70 1_555 1_555
C71 C70 1_555 1_555
C72 C71 1_555 1_555
H54 C72 1_555 1_555
C73 C68 1_555 1_555
H55 C73 1_555 1_555
C74 C71 1_555 1_555
C75 H56 1_555 1_555
H57 C75 1_555 1_555
H58 C75 1_555 1_555
C76 C77 1_555 1_555
C77 H59 1_555 1_555
C78 C77 1_555 1_555
H60 C78 1_555 1_555
C79 C78 1_555 1_555
C80 C79 1_555 1_555
H61 C80 1_555 1_555
C81 C76 1_555 1_555
H62 C81 1_555 1_555
C82 C79 1_555 1_555
O2 N2 1_555 1_555
O3 N2 1_555 1_555
O5 N4 1_555 1_555
O6 N4 1_555 1_555
O7 C67 1_555 1_555
O8 C74 1_555 1_555
O9 C75 1_555 1_555
O10 C82 1_555 1_555
C21F C21 1_555 1_555
N1F Pd1 1_555 1_555
C64F C63 1_555 1_555
C32F C64F 1_555 1_555
N5F C32F 1_555 1_555
C33F N5F 1_555 1_555
N7F C33F 1_555 1_555
C31F N7F 1_555 1_555
N6F C32F 1_555 1_555
C28F C31F 1_555 1_555
C27F C28F 1_555 1_555
C26F C27F 1_555 1_555
N3F Pd1 1_555 1_555
C30F N3F 1_555 1_555
C29F C28F 1_555 1_555
H23F C29F 1_555 1_555
H24F C30F 1_555 1_555
H21F C26F 1_555 1_555
H22F C27F 1_555 1_555
C36F C33F 1_555 1_555
C35F C36F 1_555 1_555
C34F C35F 1_555 1_555
N8F C34F 1_555 1_555
Pd2F N8F 1_555 1_555
N9F Pd2F 1_555 1_555
C1F N9F 1_555 1_555
H1F C1F 1_555 1_555
C2F C1F 1_555 1_555
H2F C2F 1_555 1_555
C3F C2F 1_555 1_555
H3F C3F 1_555 1_555
C4F C3F 1_555 1_555
H4F C4F 1_555 1_555
C5F N9F 1_555 1_555
C6F C5F 1_555 1_555
N10F Pd2F 1_555 1_555
N11F Pd2F 1_555 1_555
C39F N11F 1_555 1_555
H29F C39F 1_555 1_555
C40F C39F 1_555 1_555
H30F C40F 1_555 1_555
C41F C40F 1_555 1_555
C42F C41F 1_555 1_555
H31F C42F 1_555 1_555
C43F N11F 1_555 1_555
H32F C43F 1_555 1_555
C44F C41F 1_555 1_555
N12F C44F 1_555 1_555
C45F N12F 1_555 1_555
N14F C45F 1_555 1_555
C46F N14F 1_555 1_555
N13F C44F 1_555 1_555
C54F C46F 1_555 1_555
C53F C54F 1_555 1_555
C52F C53F 1_555 1_555
N17F C52F 1_555 1_555
Pd3F N17F 1_555 1_555
N18F Pd3F 1_555 1_555
C16F N18F 1_555 1_555
H13F C16F 1_555 1_555
C17F C16F 1_555 1_555
H14F C17F 1_555 1_555
C18F C17F 1_555 1_555
H15F C18F 1_555 1_555
C19F C18F 1_555 1_555
H16F C19F 1_555 1_555
C20F N18F 1_555 1_555
C57F C20F 1_555 1_555
N19F Pd3F 1_555 1_555
N20F Pd3F 1_555 1_555
C62F N20F 1_555 1_555
H45F C62F 1_555 1_555
C63F C64 1_555 1_555
H46F C63F 1_555 1_555
C66F C65 1_555 1_555
H48F C66F 1_555 1_555
C61F N19F 1_555 1_555
C60F C61F 1_555 1_555
C59F C60F 1_555 1_555
C58F C57F 1_555 1_555
H41F C58F 1_555 1_555
H42F C59F 1_555 1_555
H43F C60F 1_555 1_555
H44F C61F 1_555 1_555
C56F N17F 1_555 1_555
C55F C54F 1_555 1_555
H39F C55F 1_555 1_555
H40F C56F 1_555 1_555
H37F C52F 1_555 1_555
H38F C53F 1_555 1_555
C49F C45F 1_555 1_555
C48F C49F 1_555 1_555
C47F C48F 1_555 1_555
N15F Pd4 1_555 1_555
C11F C11 1_555 1_555
N16F Pd4 1_555 1_555
C15F N16F 1_555 1_555
C14F C15F 1_555 1_555
C13F C14F 1_555 1_555
C12F C11F 1_555 1_555
H9F C12F 1_555 1_555
H10F C13F 1_555 1_555
H11F C14F 1_555 1_555
H12F C15F 1_555 1_555
C51F N15F 1_555 1_555
C50F C49F 1_555 1_555
H35F C50F 1_555 1_555
H36F C51F 1_555 1_555
H33F C47F 1_555 1_555
H34F C48F 1_555 1_555
C10F N10F 1_555 1_555
C9F C10F 1_555 1_555
C8F C9F 1_555 1_555
C7F C6F 1_555 1_555
H5F C7F 1_555 1_555
H6F C8F 1_555 1_555
H7F C9F 1_555 1_555
H8F C10F 1_555 1_555
C38F N8F 1_555 1_555
C37F C36F 1_555 1_555
H27F C37F 1_555 1_555
H28F C38F 1_555 1_555
H25F C34F 1_555 1_555
H26F C35F 1_555 1_555
C65F C66 1_555 1_555
H47F C65F 1_555 1_555
C25F N1F 1_555 1_555
C24F C25F 1_555 1_555
C23F C24F 1_555 1_555
C22F C21F 1_555 1_555
H17F C22F 1_555 1_555
H18F C23F 1_555 1_555
H19F C24F 1_555 1_555
H20F C25F 1_555 1_555
C74F C74 1_555 1_555
C71F C74F 1_555 1_555
C70F C71F 1_555 1_555
C69F C70F 1_555 1_555
C68F C69F 1_555 1_555
C73F C68F 1_555 1_555
C72F C71F 1_555 1_555
H54F C72F 1_555 1_555
H55F C73F 1_555 1_555
O7F C68F 1_555 1_555
C67F O7F 1_555 1_555
H49F C67F 1_555 1_555
H50F C67F 1_555 1_555
H51F C67F 1_555 1_555
H52F C69F 1_555 1_555
H53F C70F 1_555 1_555
O8F C74F 1_555 1_555
C82F C82 1_555 1_555
C79F C82F 1_555 1_555
C78F C79F 1_555 1_555
C77F C78F 1_555 1_555
C76F C77F 1_555 1_555
C81F C76F 1_555 1_555
C80F C79F 1_555 1_555
H61F C80F 1_555 1_555
H62F C81F 1_555 1_555
O9F C76F 1_555 1_555
C75F O9F 1_555 1_555
H56F C75F 1_555 1_555
H57F C75F 1_555 1_555
H58F C75F 1_555 1_555
H59F C77F 1_555 1_555
H60F C78F 1_555 1_555
O10F C82F 1_555 1_555
N7 C33 1_555 1_555
C4 C5 1_555 1_555
N10 C6 1_555 1_555
C9 C10 1_555 1_555
N14 C46 1_555 1_555
C14 C15 1_555 1_555
C19 C20 1_555 1_555
N19 C57 1_555 1_555
C24 C25 1_555 1_555
C29 C30 1_555 1_555
C35 C36 1_555 1_555
C37 C38 1_555 1_555
C42 C43 1_555 1_555
C48 C49 1_555 1_555
C50 C51 1_555 1_555
C53 C54 1_555 1_555
C55 C56 1_555 1_555
C60 C61 1_555 1_555
C68 O7 1_555 1_555
C72 C73 1_555 1_555
C76 O9 1_555 1_555
C80 C81 1_555 1_555
C21F N1F 1_555 1_555
C64F C65F 1_555 1_555
C31F N6F 1_555 1_555
C26F N3F 1_555 1_555
C30F C29F 1_555 1_555
C4F C5F 1_555 1_555
C6F N10F 1_555 1_555
C42F C43F 1_555 1_555
C46F N13F 1_555 1_555
C19F C20F 1_555 1_555
C57F N19F 1_555 1_555
N20F C66F 1_555 1_555
C62F C63F 1_555 1_555
C59F C58F 1_555 1_555
C56F C55F 1_555 1_555
C47F N15F 1_555 1_555
C11F N16F 1_555 1_555
C13F C12F 1_555 1_555
C51F C50F 1_555 1_555
C8F C7F 1_555 1_555
C38F C37F 1_555 1_555
C23F C22F 1_555 1_555
C73F C72F 1_555 1_555
C81F C80F 1_555 1_555

#END
