# generated using pymatgen
data_H62Pd3C82(N2O)10
_symmetry_space_group_name_H-M   'P 1'
_cell_length_a   29.53500000
_cell_length_b   29.53500000
_cell_length_c   31.35100000
_cell_angle_alpha   90.00000000
_cell_angle_beta   90.00000000
_cell_angle_gamma   90.00000000
_symmetry_Int_Tables_number   1
_chemical_formula_structural   H62Pd3C82(N2O)10
_chemical_formula_sum   'H496 Pd24 C656 N160 O80'
_cell_volume   27347.98596998
_cell_formula_units_Z   8
loop_
 _symmetry_equiv_pos_site_id
 _symmetry_equiv_pos_as_xyz
  1  'x, y, z'
loop_
 _atom_site_type_symbol
 _atom_site_label
 _atom_site_symmetry_multiplicity
 _atom_site_fract_x
 _atom_site_fract_y
 _atom_site_fract_z
 _atom_site_occupancy
  H  H1  1  0.692400  0.680800  0.333000  1.0
  H  H2  1  0.307600  0.319200  0.833000  1.0
  H  H3  1  0.819200  0.192400  0.083000  1.0
  H  H4  1  0.180800  0.807600  0.583000  1.0
  H  H5  1  0.807600  0.180800  0.417000  1.0
  H  H6  1  0.192400  0.819200  0.917000  1.0
  H  H7  1  0.680800  0.692400  0.667000  1.0
  H  H8  1  0.319200  0.307600  0.167000  1.0
  H  H9  1  0.694800  0.681800  0.383000  1.0
  H  H10  1  0.305200  0.318200  0.883000  1.0
  H  H11  1  0.818200  0.194800  0.133000  1.0
  H  H12  1  0.181800  0.805200  0.633000  1.0
  H  H13  1  0.805200  0.181800  0.367000  1.0
  H  H14  1  0.194800  0.818200  0.867000  1.0
  H  H15  1  0.681800  0.694800  0.617000  1.0
  H  H16  1  0.318200  0.305200  0.117000  1.0
  H  H17  1  0.739500  0.678900  0.356100  1.0
  H  H18  1  0.260500  0.321100  0.856100  1.0
  H  H19  1  0.821100  0.239500  0.106100  1.0
  H  H20  1  0.178900  0.760500  0.606100  1.0
  H  H21  1  0.760500  0.178900  0.393900  1.0
  H  H22  1  0.239500  0.821100  0.893900  1.0
  H  H23  1  0.678900  0.739500  0.643900  1.0
  H  H24  1  0.321100  0.260500  0.143900  1.0
  H  H25  1  0.720300  0.832100  0.366400  1.0
  H  H26  1  0.279700  0.167900  0.866400  1.0
  H  H27  1  0.667900  0.220300  0.116400  1.0
  H  H28  1  0.332100  0.779700  0.616400  1.0
  H  H29  1  0.779700  0.332100  0.383600  1.0
  H  H30  1  0.220300  0.667900  0.883600  1.0
  H  H31  1  0.832100  0.720300  0.633600  1.0
  H  H32  1  0.167900  0.279700  0.133600  1.0
  H  H33  1  0.756400  0.865800  0.426200  1.0
  H  H34  1  0.243600  0.134200  0.926200  1.0
  H  H35  1  0.634200  0.256400  0.176200  1.0
  H  H36  1  0.365800  0.743600  0.676200  1.0
  H  H37  1  0.743600  0.365800  0.323800  1.0
  H  H38  1  0.256400  0.634200  0.823800  1.0
  H  H39  1  0.865800  0.756400  0.573800  1.0
  H  H40  1  0.134200  0.243600  0.073800  1.0
  H  H41  1  0.806900  0.749600  0.462900  1.0
  H  H42  1  0.193100  0.250400  0.962900  1.0
  H  H43  1  0.750400  0.306900  0.212900  1.0
  H  H44  1  0.249600  0.693100  0.712900  1.0
  H  H45  1  0.693100  0.249600  0.287100  1.0
  H  H46  1  0.306900  0.750400  0.787100  1.0
  H  H47  1  0.749600  0.806900  0.537100  1.0
  H  H48  1  0.250400  0.193100  0.037100  1.0
  H  H49  1  0.767800  0.710600  0.414100  1.0
  H  H50  1  0.232200  0.289400  0.914100  1.0
  H  H51  1  0.789400  0.267800  0.164100  1.0
  H  H52  1  0.210600  0.732200  0.664100  1.0
  H  H53  1  0.732200  0.210600  0.335900  1.0
  H  H54  1  0.267800  0.789400  0.835900  1.0
  H  H55  1  0.710600  0.767800  0.585900  1.0
  H  H56  1  0.289400  0.232200  0.085900  1.0
  H  H57  1  0.912200  0.657000  0.505600  1.0
  H  H58  1  0.087800  0.343000  0.005600  1.0
  H  H59  1  0.843000  0.412200  0.255600  1.0
  H  H60  1  0.157000  0.587800  0.755600  1.0
  H  H61  1  0.587800  0.157000  0.244400  1.0
  H  H62  1  0.412200  0.843000  0.744400  1.0
  H  H63  1  0.657000  0.912200  0.494400  1.0
  H  H64  1  0.343000  0.087800  0.994400  1.0
  H  H65  1  0.873200  0.645300  0.537700  1.0
  H  H66  1  0.126800  0.354700  0.037700  1.0
  H  H67  1  0.854700  0.373200  0.287700  1.0
  H  H68  1  0.145300  0.626800  0.787700  1.0
  H  H69  1  0.626800  0.145300  0.212300  1.0
  H  H70  1  0.373200  0.854700  0.712300  1.0
  H  H71  1  0.645300  0.873200  0.462300  1.0
  H  H72  1  0.354700  0.126800  0.962300  1.0
  H  H73  1  0.872900  0.691700  0.513300  1.0
  H  H74  1  0.127100  0.308300  0.013300  1.0
  H  H75  1  0.808300  0.372900  0.263300  1.0
  H  H76  1  0.191700  0.627100  0.763300  1.0
  H  H77  1  0.627100  0.191700  0.236700  1.0
  H  H78  1  0.372900  0.808300  0.736700  1.0
  H  H79  1  0.691700  0.872900  0.486700  1.0
  H  H80  1  0.308300  0.127100  0.986700  1.0
  H  H81  1  0.806400  0.609100  0.433300  1.0
  H  H82  1  0.193600  0.390900  0.933300  1.0
  H  H83  1  0.890900  0.306400  0.183300  1.0
  H  H84  1  0.109100  0.693600  0.683300  1.0
  H  H85  1  0.693600  0.109100  0.316700  1.0
  H  H86  1  0.306400  0.890900  0.816700  1.0
  H  H87  1  0.609100  0.806400  0.566700  1.0
  H  H88  1  0.390900  0.193600  0.066700  1.0
  H  H89  1  0.732300  0.606800  0.429000  1.0
  H  H90  1  0.267700  0.393200  0.929000  1.0
  H  H91  1  0.893200  0.232300  0.179000  1.0
  H  H92  1  0.106800  0.767700  0.679000  1.0
  H  H93  1  0.767700  0.106800  0.321000  1.0
  H  H94  1  0.232300  0.893200  0.821000  1.0
  H  H95  1  0.606800  0.732300  0.571000  1.0
  H  H96  1  0.393200  0.267700  0.071000  1.0
  H  H97  1  0.724900  0.675400  0.538100  1.0
  H  H98  1  0.275100  0.324600  0.038100  1.0
  H  H99  1  0.824600  0.224900  0.288100  1.0
  H  H100  1  0.175400  0.775100  0.788100  1.0
  H  H101  1  0.775100  0.175400  0.211900  1.0
  H  H102  1  0.224900  0.824600  0.711900  1.0
  H  H103  1  0.675400  0.724900  0.461900  1.0
  H  H104  1  0.324600  0.275100  0.961900  1.0
  H  H105  1  0.802300  0.669300  0.539100  1.0
  H  H106  1  0.197700  0.330700  0.039100  1.0
  H  H107  1  0.830700  0.302300  0.289100  1.0
  H  H108  1  0.169300  0.697700  0.789100  1.0
  H  H109  1  0.697700  0.169300  0.210900  1.0
  H  H110  1  0.302300  0.830700  0.710900  1.0
  H  H111  1  0.669300  0.802300  0.460900  1.0
  H  H112  1  0.330700  0.197700  0.960900  1.0
  H  H113  1  0.933500  0.440500  0.470900  1.0
  H  H114  1  0.066500  0.559500  0.970900  1.0
  H  H115  1  0.059500  0.433500  0.220900  1.0
  H  H116  1  0.940500  0.566500  0.720900  1.0
  H  H117  1  0.566500  0.940500  0.279100  1.0
  H  H118  1  0.433500  0.059500  0.779100  1.0
  H  H119  1  0.440500  0.933500  0.529100  1.0
  H  H120  1  0.559500  0.066500  0.029100  1.0
  H  H121  1  0.957500  0.365800  0.468500  1.0
  H  H122  1  0.042500  0.634200  0.968500  1.0
  H  H123  1  0.134200  0.457500  0.218500  1.0
  H  H124  1  0.865800  0.542500  0.718500  1.0
  H  H125  1  0.542500  0.865800  0.281500  1.0
  H  H126  1  0.457500  0.134200  0.781500  1.0
  H  H127  1  0.365800  0.957500  0.531500  1.0
  H  H128  1  0.634200  0.042500  0.031500  1.0
  H  H129  1  0.007000  0.342300  0.415500  1.0
  H  H130  1  0.993000  0.657700  0.915500  1.0
  H  H131  1  0.157700  0.507000  0.165500  1.0
  H  H132  1  0.842300  0.493000  0.665500  1.0
  H  H133  1  0.493000  0.842300  0.334500  1.0
  H  H134  1  0.507000  0.157700  0.834500  1.0
  H  H135  1  0.342300  0.007000  0.584500  1.0
  H  H136  1  0.657700  0.993000  0.084500  1.0
  H  H137  1  0.032500  0.393500  0.364800  1.0
  H  H138  1  0.967500  0.606500  0.864800  1.0
  H  H139  1  0.106500  0.532500  0.114800  1.0
  H  H140  1  0.893500  0.467500  0.614800  1.0
  H  H141  1  0.467500  0.893500  0.385200  1.0
  H  H142  1  0.532500  0.106500  0.885200  1.0
  H  H143  1  0.393500  0.032500  0.635200  1.0
  H  H144  1  0.606500  0.967500  0.135200  1.0
  H  H145  1  0.057700  0.447500  0.321200  1.0
  H  H146  1  0.942300  0.552500  0.821200  1.0
  H  H147  1  0.052500  0.557700  0.071200  1.0
  H  H148  1  0.947500  0.442300  0.571200  1.0
  H  H149  1  0.442300  0.947500  0.428800  1.0
  H  H150  1  0.557700  0.052500  0.928800  1.0
  H  H151  1  0.447500  0.057700  0.678800  1.0
  H  H152  1  0.552500  0.942300  0.178800  1.0
  H  H153  1  0.078900  0.508800  0.279500  1.0
  H  H154  1  0.921100  0.491200  0.779500  1.0
  H  H155  1  0.991200  0.578900  0.029500  1.0
  H  H156  1  0.008800  0.421100  0.529500  1.0
  H  H157  1  0.421100  0.008800  0.470500  1.0
  H  H158  1  0.578900  0.991200  0.970500  1.0
  H  H159  1  0.508800  0.078900  0.720500  1.0
  H  H160  1  0.491200  0.921100  0.220500  1.0
  H  H161  1  0.046700  0.579400  0.291300  1.0
  H  H162  1  0.953300  0.420600  0.791300  1.0
  H  H163  1  0.920600  0.546700  0.041300  1.0
  H  H164  1  0.079400  0.453300  0.541300  1.0
  H  H165  1  0.453300  0.079400  0.458700  1.0
  H  H166  1  0.546700  0.920600  0.958700  1.0
  H  H167  1  0.579400  0.046700  0.708700  1.0
  H  H168  1  0.420600  0.953300  0.208700  1.0
  H  H169  1  0.993200  0.588600  0.344700  1.0
  H  H170  1  0.006800  0.411400  0.844700  1.0
  H  H171  1  0.911400  0.493200  0.094700  1.0
  H  H172  1  0.088600  0.506800  0.594700  1.0
  H  H173  1  0.506800  0.088600  0.405300  1.0
  H  H174  1  0.493200  0.911400  0.905300  1.0
  H  H175  1  0.588600  0.993200  0.655300  1.0
  H  H176  1  0.411400  0.006800  0.155300  1.0
  H  H177  1  0.054800  0.087200  0.520800  1.0
  H  H178  1  0.945200  0.912800  0.020800  1.0
  H  H179  1  0.412800  0.554800  0.270800  1.0
  H  H180  1  0.587200  0.445200  0.770800  1.0
  H  H181  1  0.445200  0.587200  0.229200  1.0
  H  H182  1  0.554800  0.412800  0.729200  1.0
  H  H183  1  0.087200  0.054800  0.479200  1.0
  H  H184  1  0.912800  0.945200  0.979200  1.0
  H  H185  1  0.024600  0.113800  0.584300  1.0
  H  H186  1  0.975400  0.886200  0.084300  1.0
  H  H187  1  0.386200  0.524600  0.334300  1.0
  H  H188  1  0.613800  0.475400  0.834300  1.0
  H  H189  1  0.475400  0.613800  0.165700  1.0
  H  H190  1  0.524600  0.386200  0.665700  1.0
  H  H191  1  0.113800  0.024600  0.415700  1.0
  H  H192  1  0.886200  0.975400  0.915700  1.0
  H  H193  1  0.966700  0.074300  0.617700  1.0
  H  H194  1  0.033300  0.925700  0.117700  1.0
  H  H195  1  0.425700  0.466700  0.367700  1.0
  H  H196  1  0.574300  0.533300  0.867700  1.0
  H  H197  1  0.533300  0.574300  0.132300  1.0
  H  H198  1  0.466700  0.425700  0.632300  1.0
  H  H199  1  0.074300  0.966700  0.382300  1.0
  H  H200  1  0.925700  0.033300  0.882300  1.0
  H  H201  1  0.938900  0.008200  0.587500  1.0
  H  H202  1  0.061100  0.991800  0.087500  1.0
  H  H203  1  0.491800  0.438900  0.337500  1.0
  H  H204  1  0.508200  0.561100  0.837500  1.0
  H  H205  1  0.561100  0.508200  0.162500  1.0
  H  H206  1  0.438900  0.491800  0.662500  1.0
  H  H207  1  0.008200  0.938900  0.412500  1.0
  H  H208  1  0.991800  0.061100  0.912500  1.0
  H  H209  1  0.771100  0.810500  0.176500  1.0
  H  H210  1  0.228900  0.189500  0.676500  1.0
  H  H211  1  0.689500  0.271100  0.926500  1.0
  H  H212  1  0.310500  0.728900  0.426500  1.0
  H  H213  1  0.728900  0.310500  0.573500  1.0
  H  H214  1  0.271100  0.689500  0.073500  1.0
  H  H215  1  0.810500  0.771100  0.823500  1.0
  H  H216  1  0.189500  0.228900  0.323500  1.0
  H  H217  1  0.800100  0.833500  0.111200  1.0
  H  H218  1  0.199900  0.166500  0.611200  1.0
  H  H219  1  0.666500  0.300100  0.861200  1.0
  H  H220  1  0.333500  0.699900  0.361200  1.0
  H  H221  1  0.699900  0.333500  0.638800  1.0
  H  H222  1  0.300100  0.666500  0.138800  1.0
  H  H223  1  0.833500  0.800100  0.888800  1.0
  H  H224  1  0.166500  0.199900  0.388800  1.0
  H  H225  1  0.751700  0.859700  0.058400  1.0
  H  H226  1  0.248300  0.140300  0.558400  1.0
  H  H227  1  0.640300  0.251700  0.808400  1.0
  H  H228  1  0.359700  0.748300  0.308400  1.0
  H  H229  1  0.748300  0.359700  0.691600  1.0
  H  H230  1  0.251700  0.640300  0.191600  1.0
  H  H231  1  0.859700  0.751700  0.941600  1.0
  H  H232  1  0.140300  0.248300  0.441600  1.0
  H  H233  1  0.674300  0.862800  0.070900  1.0
  H  H234  1  0.325700  0.137200  0.570900  1.0
  H  H235  1  0.637200  0.174300  0.820900  1.0
  H  H236  1  0.362800  0.825700  0.320900  1.0
  H  H237  1  0.825700  0.362800  0.679100  1.0
  H  H238  1  0.174300  0.637200  0.179100  1.0
  H  H239  1  0.862800  0.674300  0.929100  1.0
  H  H240  1  0.137200  0.325700  0.429100  1.0
  H  H241  1  0.386300  0.429700  0.482600  1.0
  H  H242  1  0.613700  0.570300  0.982600  1.0
  H  H243  1  0.070300  0.886300  0.232600  1.0
  H  H244  1  0.929700  0.113700  0.732600  1.0
  H  H245  1  0.113700  0.929700  0.267400  1.0
  H  H246  1  0.886300  0.070300  0.767400  1.0
  H  H247  1  0.429700  0.386300  0.517400  1.0
  H  H248  1  0.570300  0.613700  0.017400  1.0
  H  H249  1  0.341400  0.480000  0.450400  1.0
  H  H250  1  0.658600  0.520000  0.950400  1.0
  H  H251  1  0.020000  0.841400  0.200400  1.0
  H  H252  1  0.980000  0.158600  0.700400  1.0
  H  H253  1  0.158600  0.980000  0.299600  1.0
  H  H254  1  0.841400  0.020000  0.799600  1.0
  H  H255  1  0.480000  0.341400  0.549600  1.0
  H  H256  1  0.520000  0.658600  0.049600  1.0
  H  H257  1  0.368300  0.554300  0.436000  1.0
  H  H258  1  0.631700  0.445700  0.936000  1.0
  H  H259  1  0.945700  0.868300  0.186000  1.0
  H  H260  1  0.054300  0.131700  0.686000  1.0
  H  H261  1  0.131700  0.054300  0.314000  1.0
  H  H262  1  0.868300  0.945700  0.814000  1.0
  H  H263  1  0.554300  0.368300  0.564000  1.0
  H  H264  1  0.445700  0.631700  0.064000  1.0
  H  H265  1  0.442300  0.568400  0.450800  1.0
  H  H266  1  0.557700  0.431600  0.950800  1.0
  H  H267  1  0.931600  0.942300  0.200800  1.0
  H  H268  1  0.068400  0.057700  0.700800  1.0
  H  H269  1  0.057700  0.068400  0.299200  1.0
  H  H270  1  0.942300  0.931600  0.799200  1.0
  H  H271  1  0.568400  0.442300  0.549200  1.0
  H  H272  1  0.431600  0.557700  0.049200  1.0
  H  H273  1  0.570600  0.541600  0.581100  1.0
  H  H274  1  0.429400  0.458400  0.081100  1.0
  H  H275  1  0.958400  0.070600  0.331100  1.0
  H  H276  1  0.041600  0.929400  0.831100  1.0
  H  H277  1  0.929400  0.041600  0.168900  1.0
  H  H278  1  0.070600  0.958400  0.668900  1.0
  H  H279  1  0.541600  0.570600  0.418900  1.0
  H  H280  1  0.458400  0.429400  0.918900  1.0
  H  H281  1  0.645200  0.548900  0.603000  1.0
  H  H282  1  0.354800  0.451100  0.103000  1.0
  H  H283  1  0.951100  0.145200  0.353000  1.0
  H  H284  1  0.048900  0.854800  0.853000  1.0
  H  H285  1  0.854800  0.048900  0.147000  1.0
  H  H286  1  0.145200  0.951100  0.647000  1.0
  H  H287  1  0.548900  0.645200  0.397000  1.0
  H  H288  1  0.451100  0.354800  0.897000  1.0
  H  H289  1  0.686500  0.522000  0.486900  1.0
  H  H290  1  0.313500  0.478000  0.986900  1.0
  H  H291  1  0.978000  0.186500  0.236900  1.0
  H  H292  1  0.022000  0.813500  0.736900  1.0
  H  H293  1  0.813500  0.022000  0.263100  1.0
  H  H294  1  0.186500  0.978000  0.763100  1.0
  H  H295  1  0.522000  0.686500  0.513100  1.0
  H  H296  1  0.478000  0.313500  0.013100  1.0
  H  H297  1  0.612500  0.512900  0.465400  1.0
  H  H298  1  0.387500  0.487100  0.965400  1.0
  H  H299  1  0.987100  0.112500  0.215400  1.0
  H  H300  1  0.012900  0.887500  0.715400  1.0
  H  H301  1  0.887500  0.012900  0.284600  1.0
  H  H302  1  0.112500  0.987100  0.784600  1.0
  H  H303  1  0.512900  0.612500  0.534600  1.0
  H  H304  1  0.487100  0.387500  0.034600  1.0
  H  H305  1  0.851500  0.504500  0.421700  1.0
  H  H306  1  0.148500  0.495500  0.921700  1.0
  H  H307  1  0.995500  0.351500  0.171700  1.0
  H  H308  1  0.004500  0.648500  0.671700  1.0
  H  H309  1  0.648500  0.004500  0.328300  1.0
  H  H310  1  0.351500  0.995500  0.828300  1.0
  H  H311  1  0.504500  0.851500  0.578300  1.0
  H  H312  1  0.495500  0.148500  0.078300  1.0
  H  H313  1  0.793900  0.508900  0.471100  1.0
  H  H314  1  0.206100  0.491100  0.971100  1.0
  H  H315  1  0.991100  0.293900  0.221100  1.0
  H  H316  1  0.008900  0.706100  0.721100  1.0
  H  H317  1  0.706100  0.008900  0.278900  1.0
  H  H318  1  0.293900  0.991100  0.778900  1.0
  H  H319  1  0.508900  0.793900  0.528900  1.0
  H  H320  1  0.491100  0.206100  0.028900  1.0
  H  H321  1  0.884500  0.556500  0.554900  1.0
  H  H322  1  0.115500  0.443500  0.054900  1.0
  H  H323  1  0.943500  0.384500  0.304900  1.0
  H  H324  1  0.056500  0.615500  0.804900  1.0
  H  H325  1  0.615500  0.056500  0.195100  1.0
  H  H326  1  0.384500  0.943500  0.695100  1.0
  H  H327  1  0.556500  0.884500  0.445100  1.0
  H  H328  1  0.443500  0.115500  0.945100  1.0
  H  H329  1  0.940600  0.547700  0.506300  1.0
  H  H330  1  0.059400  0.452300  0.006300  1.0
  H  H331  1  0.952300  0.440600  0.256300  1.0
  H  H332  1  0.047700  0.559400  0.756300  1.0
  H  H333  1  0.559400  0.047700  0.243700  1.0
  H  H334  1  0.440600  0.952300  0.743700  1.0
  H  H335  1  0.547700  0.940600  0.493700  1.0
  H  H336  1  0.452300  0.059400  0.993700  1.0
  H  H337  1  0.972800  0.618200  0.435900  1.0
  H  H338  1  0.027200  0.381800  0.935900  1.0
  H  H339  1  0.881800  0.472800  0.185900  1.0
  H  H340  1  0.118200  0.527200  0.685900  1.0
  H  H341  1  0.527200  0.118200  0.314100  1.0
  H  H342  1  0.472800  0.881800  0.814100  1.0
  H  H343  1  0.618200  0.972800  0.564100  1.0
  H  H344  1  0.381800  0.027200  0.064100  1.0
  H  H345  1  0.953600  0.692900  0.425000  1.0
  H  H346  1  0.046400  0.307100  0.925000  1.0
  H  H347  1  0.807100  0.453600  0.175000  1.0
  H  H348  1  0.192900  0.546400  0.675000  1.0
  H  H349  1  0.546400  0.192900  0.325000  1.0
  H  H350  1  0.453600  0.807100  0.825000  1.0
  H  H351  1  0.692900  0.953600  0.575000  1.0
  H  H352  1  0.307100  0.046400  0.075000  1.0
  H  H353  1  0.858600  0.643800  0.344600  1.0
  H  H354  1  0.141400  0.356200  0.844600  1.0
  H  H355  1  0.856200  0.358600  0.094600  1.0
  H  H356  1  0.143800  0.641400  0.594600  1.0
  H  H357  1  0.641400  0.143800  0.405400  1.0
  H  H358  1  0.358600  0.856200  0.905400  1.0
  H  H359  1  0.643800  0.858600  0.655400  1.0
  H  H360  1  0.356200  0.141400  0.155400  1.0
  H  H361  1  0.881300  0.572900  0.357000  1.0
  H  H362  1  0.118700  0.427100  0.857000  1.0
  H  H363  1  0.927100  0.381300  0.107000  1.0
  H  H364  1  0.072900  0.618700  0.607000  1.0
  H  H365  1  0.618700  0.072900  0.393000  1.0
  H  H366  1  0.381300  0.927100  0.893000  1.0
  H  H367  1  0.572900  0.881300  0.643000  1.0
  H  H368  1  0.427100  0.118700  0.143000  1.0
  H  H369  1  0.891200  0.942600  0.434000  1.0
  H  H370  1  0.108800  0.057400  0.934000  1.0
  H  H371  1  0.557400  0.391200  0.184000  1.0
  H  H372  1  0.442600  0.608800  0.684000  1.0
  H  H373  1  0.608800  0.442600  0.316000  1.0
  H  H374  1  0.391200  0.557400  0.816000  1.0
  H  H375  1  0.942600  0.891200  0.566000  1.0
  H  H376  1  0.057400  0.108800  0.066000  1.0
  H  H377  1  0.868600  0.884700  0.385600  1.0
  H  H378  1  0.131400  0.115300  0.885600  1.0
  H  H379  1  0.615300  0.368600  0.135600  1.0
  H  H380  1  0.384700  0.631400  0.635600  1.0
  H  H381  1  0.631400  0.384700  0.364400  1.0
  H  H382  1  0.368600  0.615300  0.864400  1.0
  H  H383  1  0.884700  0.868600  0.614400  1.0
  H  H384  1  0.115300  0.131400  0.114400  1.0
  H  H385  1  0.958500  0.802200  0.439800  1.0
  H  H386  1  0.041500  0.197800  0.939800  1.0
  H  H387  1  0.697800  0.458500  0.189800  1.0
  H  H388  1  0.302200  0.541500  0.689800  1.0
  H  H389  1  0.541500  0.302200  0.310200  1.0
  H  H390  1  0.458500  0.697800  0.810200  1.0
  H  H391  1  0.802200  0.958500  0.560200  1.0
  H  H392  1  0.197800  0.041500  0.060200  1.0
  H  H393  1  0.983000  0.859500  0.476600  1.0
  H  H394  1  0.017000  0.140500  0.976600  1.0
  H  H395  1  0.640500  0.483000  0.226600  1.0
  H  H396  1  0.359500  0.517000  0.726600  1.0
  H  H397  1  0.517000  0.359500  0.273400  1.0
  H  H398  1  0.483000  0.640500  0.773400  1.0
  H  H399  1  0.859500  0.983000  0.523400  1.0
  H  H400  1  0.140500  0.017000  0.023400  1.0
  H  H401  1  0.743700  0.857700  0.263500  1.0
  H  H402  1  0.256300  0.142300  0.763500  1.0
  H  H403  1  0.642300  0.243700  0.013500  1.0
  H  H404  1  0.357700  0.756300  0.513500  1.0
  H  H405  1  0.756300  0.357700  0.486500  1.0
  H  H406  1  0.243700  0.642300  0.986500  1.0
  H  H407  1  0.857700  0.743700  0.736500  1.0
  H  H408  1  0.142300  0.256300  0.236500  1.0
  H  H409  1  0.802700  0.847400  0.310800  1.0
  H  H410  1  0.197300  0.152600  0.810800  1.0
  H  H411  1  0.652600  0.302700  0.060800  1.0
  H  H412  1  0.347400  0.697300  0.560800  1.0
  H  H413  1  0.697300  0.347400  0.439200  1.0
  H  H414  1  0.302700  0.652600  0.939200  1.0
  H  H415  1  0.847400  0.802700  0.689200  1.0
  H  H416  1  0.152600  0.197300  0.189200  1.0
  H  H417  1  0.796700  0.717200  0.283300  1.0
  H  H418  1  0.203300  0.282800  0.783300  1.0
  H  H419  1  0.782800  0.296700  0.033300  1.0
  H  H420  1  0.217200  0.703300  0.533300  1.0
  H  H421  1  0.703300  0.217200  0.466700  1.0
  H  H422  1  0.296700  0.782800  0.966700  1.0
  H  H423  1  0.717200  0.796700  0.716700  1.0
  H  H424  1  0.282800  0.203300  0.216700  1.0
  H  H425  1  0.738100  0.731900  0.239900  1.0
  H  H426  1  0.261900  0.268100  0.739900  1.0
  H  H427  1  0.768100  0.238100  0.989900  1.0
  H  H428  1  0.231900  0.761900  0.489900  1.0
  H  H429  1  0.761900  0.231900  0.510100  1.0
  H  H430  1  0.238100  0.768100  0.010100  1.0
  H  H431  1  0.731900  0.738100  0.760100  1.0
  H  H432  1  0.268100  0.261900  0.260100  1.0
  H  H433  1  0.595100  0.865500  0.091300  1.0
  H  H434  1  0.404900  0.134500  0.591300  1.0
  H  H435  1  0.634500  0.095100  0.841300  1.0
  H  H436  1  0.365500  0.904900  0.341300  1.0
  H  H437  1  0.904900  0.365500  0.658700  1.0
  H  H438  1  0.095100  0.634500  0.158700  1.0
  H  H439  1  0.865500  0.595100  0.908700  1.0
  H  H440  1  0.134500  0.404900  0.408700  1.0
  H  H441  1  0.521700  0.851600  0.112300  1.0
  H  H442  1  0.478300  0.148400  0.612300  1.0
  H  H443  1  0.648400  0.021700  0.862300  1.0
  H  H444  1  0.351600  0.978300  0.362300  1.0
  H  H445  1  0.978300  0.351600  0.637700  1.0
  H  H446  1  0.021700  0.648400  0.137700  1.0
  H  H447  1  0.851600  0.521700  0.887700  1.0
  H  H448  1  0.148400  0.478300  0.387700  1.0
  H  H449  1  0.510300  0.822900  0.177800  1.0
  H  H450  1  0.489700  0.177100  0.677800  1.0
  H  H451  1  0.677100  0.010300  0.927800  1.0
  H  H452  1  0.322900  0.989700  0.427800  1.0
  H  H453  1  0.989700  0.322900  0.572200  1.0
  H  H454  1  0.010300  0.677100  0.072200  1.0
  H  H455  1  0.822900  0.510300  0.822200  1.0
  H  H456  1  0.177100  0.489700  0.322200  1.0
  H  H457  1  0.572300  0.805400  0.222400  1.0
  H  H458  1  0.427700  0.194600  0.722400  1.0
  H  H459  1  0.694600  0.072300  0.972400  1.0
  H  H460  1  0.305400  0.927700  0.472400  1.0
  H  H461  1  0.927700  0.305400  0.527600  1.0
  H  H462  1  0.072300  0.694600  0.027600  1.0
  H  H463  1  0.805400  0.572300  0.777600  1.0
  H  H464  1  0.194600  0.427700  0.277600  1.0
  H  H465  1  0.649200  0.856600  0.293800  1.0
  H  H466  1  0.350800  0.143400  0.793800  1.0
  H  H467  1  0.643400  0.149200  0.043800  1.0
  H  H468  1  0.356600  0.850800  0.543800  1.0
  H  H469  1  0.850800  0.356600  0.456200  1.0
  H  H470  1  0.149200  0.643400  0.956200  1.0
  H  H471  1  0.856600  0.649200  0.706200  1.0
  H  H472  1  0.143400  0.350800  0.206200  1.0
  H  H473  1  0.612300  0.845300  0.358900  1.0
  H  H474  1  0.387700  0.154700  0.858900  1.0
  H  H475  1  0.654700  0.112300  0.108900  1.0
  H  H476  1  0.345300  0.887700  0.608900  1.0
  H  H477  1  0.887700  0.345300  0.391100  1.0
  H  H478  1  0.112300  0.654700  0.891100  1.0
  H  H479  1  0.845300  0.612300  0.641100  1.0
  H  H480  1  0.154700  0.387700  0.141100  1.0
  H  H481  1  0.715800  0.593400  0.673900  1.0
  H  H482  1  0.284200  0.406600  0.173900  1.0
  H  H483  1  0.906600  0.215800  0.423900  1.0
  H  H484  1  0.093400  0.784200  0.923900  1.0
  H  H485  1  0.784200  0.093400  0.076100  1.0
  H  H486  1  0.215800  0.906600  0.576100  1.0
  H  H487  1  0.593400  0.715800  0.326100  1.0
  H  H488  1  0.406600  0.284200  0.826100  1.0
  H  H489  1  0.627900  0.729600  0.261300  1.0
  H  H490  1  0.372100  0.270400  0.761300  1.0
  H  H491  1  0.770400  0.127900  0.011300  1.0
  H  H492  1  0.229600  0.872100  0.511300  1.0
  H  H493  1  0.872100  0.229600  0.488700  1.0
  H  H494  1  0.127900  0.770400  0.988700  1.0
  H  H495  1  0.729600  0.627900  0.738700  1.0
  H  H496  1  0.270400  0.372100  0.238700  1.0
  Pd  Pd497  1  0.520510  0.520510  0.500000  1
  Pd  Pd498  1  0.479490  0.479490  0.000000  1
  Pd  Pd499  1  0.979490  0.020510  0.250000  1
  Pd  Pd500  1  0.020510  0.979490  0.750000  1
  Pd  Pd501  1  0.959130  0.959130  0.500000  1
  Pd  Pd502  1  0.040870  0.040870  0.000000  1
  Pd  Pd503  1  0.540870  0.459130  0.250000  1
  Pd  Pd504  1  0.459130  0.540870  0.750000  1
  Pd  Pd505  1  0.948150  0.525470  0.411320  1.0
  Pd  Pd506  1  0.051850  0.474530  0.911320  1.0
  Pd  Pd507  1  0.974530  0.448150  0.161320  1.0
  Pd  Pd508  1  0.025470  0.551850  0.661320  1.0
  Pd  Pd509  1  0.551850  0.025470  0.338680  1.0
  Pd  Pd510  1  0.448150  0.974530  0.838680  1.0
  Pd  Pd511  1  0.525470  0.948150  0.588680  1.0
  Pd  Pd512  1  0.474530  0.051850  0.088680  1.0
  Pd  Pd513  1  0.675830  0.806420  0.217100  1.0
  Pd  Pd514  1  0.324170  0.193580  0.717100  1.0
  Pd  Pd515  1  0.693580  0.175830  0.967100  1.0
  Pd  Pd516  1  0.306420  0.824170  0.467100  1.0
  Pd  Pd517  1  0.824170  0.306420  0.532900  1.0
  Pd  Pd518  1  0.175830  0.693580  0.032900  1.0
  Pd  Pd519  1  0.806420  0.675830  0.782900  1.0
  Pd  Pd520  1  0.193580  0.324170  0.282900  1.0
  C  C521  1  0.709000  0.691300  0.357100  1.0
  C  C522  1  0.291000  0.308700  0.857100  1.0
  C  C523  1  0.808700  0.209000  0.107100  1.0
  C  C524  1  0.191300  0.791000  0.607100  1.0
  C  C525  1  0.791000  0.191300  0.392900  1.0
  C  C526  1  0.209000  0.808700  0.892900  1.0
  C  C527  1  0.691300  0.709000  0.642900  1.0
  C  C528  1  0.308700  0.291000  0.142900  1.0
  C  C529  1  0.736200  0.764300  0.389400  1.0
  C  C530  1  0.263800  0.235700  0.889400  1.0
  C  C531  1  0.735700  0.236200  0.139400  1.0
  C  C532  1  0.264300  0.763800  0.639400  1.0
  C  C533  1  0.763800  0.264300  0.360600  1.0
  C  C534  1  0.236200  0.735700  0.860600  1.0
  C  C535  1  0.764300  0.736200  0.610600  1.0
  C  C536  1  0.235700  0.263800  0.110600  1.0
  C  C537  1  0.735000  0.815500  0.387400  1.0
  C  C538  1  0.265000  0.184500  0.887400  1.0
  C  C539  1  0.684500  0.235000  0.137400  1.0
  C  C540  1  0.315500  0.765000  0.637400  1.0
  C  C541  1  0.765000  0.315500  0.362600  1.0
  C  C542  1  0.235000  0.684500  0.862600  1.0
  C  C543  1  0.815500  0.735000  0.612600  1.0
  C  C544  1  0.184500  0.265000  0.112600  1.0
  C  C545  1  0.759400  0.834700  0.422100  1.0
  C  C546  1  0.240600  0.165300  0.922100  1.0
  C  C547  1  0.665300  0.259400  0.172100  1.0
  C  C548  1  0.334700  0.740600  0.672100  1.0
  C  C549  1  0.740600  0.334700  0.327900  1.0
  C  C550  1  0.259400  0.665300  0.827900  1.0
  C  C551  1  0.834700  0.759400  0.577900  1.0
  C  C552  1  0.165300  0.240600  0.077900  1.0
  C  C553  1  0.786000  0.812500  0.449200  1.0
  C  C554  1  0.214000  0.187500  0.949200  1.0
  C  C555  1  0.687500  0.286000  0.199200  1.0
  C  C556  1  0.312500  0.714000  0.699200  1.0
  C  C557  1  0.714000  0.312500  0.300800  1.0
  C  C558  1  0.286000  0.687500  0.800800  1.0
  C  C559  1  0.812500  0.786000  0.550800  1.0
  C  C560  1  0.187500  0.214000  0.050800  1.0
  C  C561  1  0.787900  0.765500  0.444600  1.0
  C  C562  1  0.212100  0.234500  0.944600  1.0
  C  C563  1  0.734500  0.287900  0.194600  1.0
  C  C564  1  0.265500  0.712100  0.694600  1.0
  C  C565  1  0.712100  0.265500  0.305400  1.0
  C  C566  1  0.287900  0.734500  0.805400  1.0
  C  C567  1  0.765500  0.787900  0.555400  1.0
  C  C568  1  0.234500  0.212100  0.055400  1.0
  C  C569  1  0.764700  0.741800  0.415900  1.0
  C  C570  1  0.235300  0.258200  0.915900  1.0
  C  C571  1  0.758200  0.264700  0.165900  1.0
  C  C572  1  0.241800  0.735300  0.665900  1.0
  C  C573  1  0.735300  0.241800  0.334100  1.0
  C  C574  1  0.264700  0.758200  0.834100  1.0
  C  C575  1  0.741800  0.764700  0.584100  1.0
  C  C576  1  0.258200  0.235300  0.084100  1.0
  C  C577  1  0.807800  0.836800  0.482200  1.0
  C  C578  1  0.192200  0.163200  0.982200  1.0
  C  C579  1  0.663200  0.307800  0.232200  1.0
  C  C580  1  0.336800  0.692200  0.732200  1.0
  C  C581  1  0.692200  0.336800  0.267800  1.0
  C  C582  1  0.307800  0.663200  0.767800  1.0
  C  C583  1  0.836800  0.807800  0.517800  1.0
  C  C584  1  0.163200  0.192200  0.017800  1.0
  C  C585  1  0.880500  0.660100  0.511300  1.0
  C  C586  1  0.119500  0.339900  0.011300  1.0
  C  C587  1  0.839900  0.380500  0.261300  1.0
  C  C588  1  0.160100  0.619500  0.761300  1.0
  C  C589  1  0.619500  0.160100  0.238700  1.0
  C  C590  1  0.380500  0.839900  0.738700  1.0
  C  C591  1  0.660100  0.880500  0.488700  1.0
  C  C592  1  0.339900  0.119500  0.988700  1.0
  C  C593  1  0.814900  0.643100  0.484600  1.0
  C  C594  1  0.185100  0.356900  0.984600  1.0
  C  C595  1  0.856900  0.314900  0.234600  1.0
  C  C596  1  0.143100  0.685100  0.734600  1.0
  C  C597  1  0.685100  0.143100  0.265400  1.0
  C  C598  1  0.314900  0.856900  0.765400  1.0
  C  C599  1  0.643100  0.814900  0.515400  1.0
  C  C600  1  0.356900  0.185100  0.015400  1.0
  C  C601  1  0.790300  0.623500  0.454900  1.0
  C  C602  1  0.209700  0.376500  0.954900  1.0
  C  C603  1  0.876500  0.290300  0.204900  1.0
  C  C604  1  0.123500  0.709700  0.704900  1.0
  C  C605  1  0.709700  0.123500  0.295100  1.0
  C  C606  1  0.290300  0.876500  0.795100  1.0
  C  C607  1  0.623500  0.790300  0.545100  1.0
  C  C608  1  0.376500  0.209700  0.045100  1.0
  C  C609  1  0.745900  0.621500  0.451800  1.0
  C  C610  1  0.254100  0.378500  0.951800  1.0
  C  C611  1  0.878500  0.245900  0.201800  1.0
  C  C612  1  0.121500  0.754100  0.701800  1.0
  C  C613  1  0.754100  0.121500  0.298200  1.0
  C  C614  1  0.245900  0.878500  0.798200  1.0
  C  C615  1  0.621500  0.745900  0.548200  1.0
  C  C616  1  0.378500  0.254100  0.048200  1.0
  C  C617  1  0.718400  0.642800  0.485100  1.0
  C  C618  1  0.281600  0.357200  0.985100  1.0
  C  C619  1  0.857200  0.218400  0.235100  1.0
  C  C620  1  0.142800  0.781600  0.735100  1.0
  C  C621  1  0.781600  0.142800  0.264900  1.0
  C  C622  1  0.218400  0.857200  0.764900  1.0
  C  C623  1  0.642800  0.718400  0.514900  1.0
  C  C624  1  0.357200  0.281600  0.014900  1.0
  C  C625  1  0.740000  0.661000  0.515900  1.0
  C  C626  1  0.260000  0.339000  0.015900  1.0
  C  C627  1  0.839000  0.240000  0.265900  1.0
  C  C628  1  0.161000  0.760000  0.765900  1.0
  C  C629  1  0.760000  0.161000  0.234100  1.0
  C  C630  1  0.240000  0.839000  0.734100  1.0
  C  C631  1  0.661000  0.740000  0.484100  1.0
  C  C632  1  0.339000  0.260000  0.984100  1.0
  C  C633  1  0.787800  0.658500  0.514800  1.0
  C  C634  1  0.212200  0.341500  0.014800  1.0
  C  C635  1  0.841500  0.287800  0.264800  1.0
  C  C636  1  0.158500  0.712200  0.764800  1.0
  C  C637  1  0.712200  0.158500  0.235200  1.0
  C  C638  1  0.287800  0.841500  0.735200  1.0
  C  C639  1  0.658500  0.787800  0.485200  1.0
  C  C640  1  0.341500  0.212200  0.985200  1.0
  C  C641  1  0.667900  0.644700  0.481800  1.0
  C  C642  1  0.332100  0.355300  0.981800  1.0
  C  C643  1  0.855300  0.167900  0.231800  1.0
  C  C644  1  0.144700  0.832100  0.731800  1.0
  C  C645  1  0.832100  0.144700  0.268200  1.0
  C  C646  1  0.167900  0.855300  0.768200  1.0
  C  C647  1  0.644700  0.667900  0.518200  1.0
  C  C648  1  0.355300  0.332100  0.018200  1.0
  C  C649  1  0.953300  0.431100  0.449600  1.0
  C  C650  1  0.046700  0.568900  0.949600  1.0
  C  C651  1  0.068900  0.453300  0.199600  1.0
  C  C652  1  0.931100  0.546700  0.699600  1.0
  C  C653  1  0.546700  0.931100  0.300400  1.0
  C  C654  1  0.453300  0.068900  0.800400  1.0
  C  C655  1  0.431100  0.953300  0.550400  1.0
  C  C656  1  0.568900  0.046700  0.050400  1.0
  C  C657  1  0.967700  0.386300  0.448200  1.0
  C  C658  1  0.032300  0.613700  0.948200  1.0
  C  C659  1  0.113700  0.467700  0.198200  1.0
  C  C660  1  0.886300  0.532300  0.698200  1.0
  C  C661  1  0.532300  0.886300  0.301800  1.0
  C  C662  1  0.467700  0.113700  0.801800  1.0
  C  C663  1  0.386300  0.967700  0.551800  1.0
  C  C664  1  0.613700  0.032300  0.051800  1.0
  C  C665  1  0.997400  0.372200  0.416400  1.0
  C  C666  1  0.002600  0.627800  0.916400  1.0
  C  C667  1  0.127800  0.497400  0.166400  1.0
  C  C668  1  0.872200  0.502600  0.666400  1.0
  C  C669  1  0.502600  0.872200  0.333600  1.0
  C  C670  1  0.497400  0.127800  0.833600  1.0
  C  C671  1  0.372200  0.997400  0.583600  1.0
  C  C672  1  0.627800  0.002600  0.083600  1.0
  C  C673  1  0.012600  0.402900  0.386000  1.0
  C  C674  1  0.987400  0.597100  0.886000  1.0
  C  C675  1  0.097100  0.512600  0.136000  1.0
  C  C676  1  0.902900  0.487400  0.636000  1.0
  C  C677  1  0.487400  0.902900  0.364000  1.0
  C  C678  1  0.512600  0.097100  0.864000  1.0
  C  C679  1  0.402900  0.012600  0.614000  1.0
  C  C680  1  0.597100  0.987400  0.114000  1.0
  C  C681  1  0.998200  0.447700  0.387400  1.0
  C  C682  1  0.001800  0.552300  0.887400  1.0
  C  C683  1  0.052300  0.498200  0.137400  1.0
  C  C684  1  0.947700  0.501800  0.637400  1.0
  C  C685  1  0.501800  0.947700  0.362600  1.0
  C  C686  1  0.498200  0.052300  0.862600  1.0
  C  C687  1  0.447700  0.998200  0.612600  1.0
  C  C688  1  0.552300  0.001800  0.112600  1.0
  C  C689  1  0.012700  0.481300  0.358000  1.0
  C  C690  1  0.987300  0.518700  0.858000  1.0
  C  C691  1  0.018700  0.512700  0.108000  1.0
  C  C692  1  0.981300  0.487300  0.608000  1.0
  C  C693  1  0.487300  0.981300  0.392000  1.0
  C  C694  1  0.512700  0.018700  0.892000  1.0
  C  C695  1  0.481300  0.012700  0.642000  1.0
  C  C696  1  0.518700  0.987300  0.142000  1.0
  C  C697  1  0.044800  0.475800  0.325900  1.0
  C  C698  1  0.955200  0.524200  0.825900  1.0
  C  C699  1  0.024200  0.544800  0.075900  1.0
  C  C700  1  0.975800  0.455200  0.575900  1.0
  C  C701  1  0.455200  0.975800  0.424100  1.0
  C  C702  1  0.544800  0.024200  0.924100  1.0
  C  C703  1  0.475800  0.044800  0.674100  1.0
  C  C704  1  0.524200  0.955200  0.174100  1.0
  C  C705  1  0.057500  0.512500  0.300900  1.0
  C  C706  1  0.942500  0.487500  0.800900  1.0
  C  C707  1  0.987500  0.557500  0.050900  1.0
  C  C708  1  0.012500  0.442500  0.550900  1.0
  C  C709  1  0.442500  0.012500  0.449100  1.0
  C  C710  1  0.557500  0.987500  0.949100  1.0
  C  C711  1  0.512500  0.057500  0.699100  1.0
  C  C712  1  0.487500  0.942500  0.199100  1.0
  C  C713  1  0.038200  0.554800  0.308000  1.0
  C  C714  1  0.961800  0.445200  0.808000  1.0
  C  C715  1  0.945200  0.538200  0.058000  1.0
  C  C716  1  0.054800  0.461800  0.558000  1.0
  C  C717  1  0.461800  0.054800  0.442000  1.0
  C  C718  1  0.538200  0.945200  0.942000  1.0
  C  C719  1  0.554800  0.038200  0.692000  1.0
  C  C720  1  0.445200  0.961800  0.192000  1.0
  C  C721  1  0.006100  0.560300  0.340000  1.0
  C  C722  1  0.993900  0.439700  0.840000  1.0
  C  C723  1  0.939700  0.506100  0.090000  1.0
  C  C724  1  0.060300  0.493900  0.590000  1.0
  C  C725  1  0.493900  0.060300  0.410000  1.0
  C  C726  1  0.506100  0.939700  0.910000  1.0
  C  C727  1  0.560300  0.006100  0.660000  1.0
  C  C728  1  0.439700  0.993900  0.160000  1.0
  C  C729  1  0.014900  0.031700  0.516100  1.0
  C  C730  1  0.985100  0.968300  0.016100  1.0
  C  C731  1  0.468300  0.514900  0.266100  1.0
  C  C732  1  0.531700  0.485100  0.766100  1.0
  C  C733  1  0.485100  0.531700  0.233900  1.0
  C  C734  1  0.514900  0.468300  0.733900  1.0
  C  C735  1  0.031700  0.014900  0.483900  1.0
  C  C736  1  0.968300  0.985100  0.983900  1.0
  C  C737  1  0.031600  0.071300  0.534200  1.0
  C  C738  1  0.968400  0.928700  0.034200  1.0
  C  C739  1  0.428700  0.531600  0.284200  1.0
  C  C740  1  0.571300  0.468400  0.784200  1.0
  C  C741  1  0.468400  0.571300  0.215800  1.0
  C  C742  1  0.531600  0.428700  0.715800  1.0
  C  C743  1  0.071300  0.031600  0.465800  1.0
  C  C744  1  0.928700  0.968400  0.965800  1.0
  C  C745  1  0.013500  0.087300  0.572200  1.0
  C  C746  1  0.986500  0.912700  0.072200  1.0
  C  C747  1  0.412700  0.513500  0.322200  1.0
  C  C748  1  0.587300  0.486500  0.822200  1.0
  C  C749  1  0.486500  0.587300  0.177800  1.0
  C  C750  1  0.513500  0.412700  0.677800  1.0
  C  C751  1  0.087300  0.013500  0.427800  1.0
  C  C752  1  0.912700  0.986500  0.927800  1.0
  C  C753  1  0.978800  0.063600  0.592200  1.0
  C  C754  1  0.021200  0.936400  0.092200  1.0
  C  C755  1  0.436400  0.478800  0.342200  1.0
  C  C756  1  0.563600  0.521200  0.842200  1.0
  C  C757  1  0.521200  0.563600  0.157800  1.0
  C  C758  1  0.478800  0.436400  0.657800  1.0
  C  C759  1  0.063600  0.978800  0.407800  1.0
  C  C760  1  0.936400  0.021200  0.907800  1.0
  C  C761  1  0.962100  0.024000  0.574200  1.0
  C  C762  1  0.037900  0.976000  0.074200  1.0
  C  C763  1  0.476000  0.462100  0.324200  1.0
  C  C764  1  0.524000  0.537900  0.824200  1.0
  C  C765  1  0.537900  0.524000  0.175800  1.0
  C  C766  1  0.462100  0.476000  0.675800  1.0
  C  C767  1  0.024000  0.962100  0.425800  1.0
  C  C768  1  0.976000  0.037900  0.925800  1.0
  C  C769  1  0.751700  0.821000  0.155300  1.0
  C  C770  1  0.248300  0.179000  0.655300  1.0
  C  C771  1  0.679000  0.251700  0.905300  1.0
  C  C772  1  0.321000  0.748300  0.405300  1.0
  C  C773  1  0.748300  0.321000  0.594700  1.0
  C  C774  1  0.251700  0.679000  0.094700  1.0
  C  C775  1  0.821000  0.751700  0.844700  1.0
  C  C776  1  0.179000  0.248300  0.344700  1.0
  C  C777  1  0.769000  0.834800  0.116200  1.0
  C  C778  1  0.231000  0.165200  0.616200  1.0
  C  C779  1  0.665200  0.269000  0.866200  1.0
  C  C780  1  0.334800  0.731000  0.366200  1.0
  C  C781  1  0.731000  0.334800  0.633800  1.0
  C  C782  1  0.269000  0.665200  0.133800  1.0
  C  C783  1  0.834800  0.769000  0.883800  1.0
  C  C784  1  0.165200  0.231000  0.383800  1.0
  C  C785  1  0.740000  0.850500  0.084600  1.0
  C  C786  1  0.260000  0.149500  0.584600  1.0
  C  C787  1  0.649500  0.240000  0.834600  1.0
  C  C788  1  0.350500  0.760000  0.334600  1.0
  C  C789  1  0.760000  0.350500  0.665400  1.0
  C  C790  1  0.240000  0.649500  0.165400  1.0
  C  C791  1  0.850500  0.740000  0.915400  1.0
  C  C792  1  0.149500  0.260000  0.415400  1.0
  C  C793  1  0.693700  0.852300  0.092000  1.0
  C  C794  1  0.306300  0.147700  0.592000  1.0
  C  C795  1  0.647700  0.193700  0.842000  1.0
  C  C796  1  0.352300  0.806300  0.342000  1.0
  C  C797  1  0.806300  0.352300  0.658000  1.0
  C  C798  1  0.193700  0.647700  0.158000  1.0
  C  C799  1  0.852300  0.693700  0.908000  1.0
  C  C800  1  0.147700  0.306300  0.408000  1.0
  C  C801  1  0.676300  0.838500  0.131100  1.0
  C  C802  1  0.323700  0.161500  0.631100  1.0
  C  C803  1  0.661500  0.176300  0.881100  1.0
  C  C804  1  0.338500  0.823700  0.381100  1.0
  C  C805  1  0.823700  0.338500  0.618900  1.0
  C  C806  1  0.176300  0.661500  0.118900  1.0
  C  C807  1  0.838500  0.676300  0.868900  1.0
  C  C808  1  0.161500  0.323700  0.368900  1.0
  C  C809  1  0.439400  0.468100  0.489000  1.0
  C  C810  1  0.560600  0.531900  0.989000  1.0
  C  C811  1  0.031900  0.939400  0.239000  1.0
  C  C812  1  0.968100  0.060600  0.739000  1.0
  C  C813  1  0.060600  0.968100  0.261000  1.0
  C  C814  1  0.939400  0.031900  0.761000  1.0
  C  C815  1  0.468100  0.439400  0.511000  1.0
  C  C816  1  0.531900  0.560600  0.011000  1.0
  C  C817  1  0.397600  0.458500  0.477100  1.0
  C  C818  1  0.602400  0.541500  0.977100  1.0
  C  C819  1  0.041500  0.897600  0.227100  1.0
  C  C820  1  0.958500  0.102400  0.727100  1.0
  C  C821  1  0.102400  0.958500  0.272900  1.0
  C  C822  1  0.897600  0.041500  0.772900  1.0
  C  C823  1  0.458500  0.397600  0.522900  1.0
  C  C824  1  0.541500  0.602400  0.022900  1.0
  C  C825  1  0.370800  0.488200  0.457800  1.0
  C  C826  1  0.629200  0.511800  0.957800  1.0
  C  C827  1  0.011800  0.870800  0.207800  1.0
  C  C828  1  0.988200  0.129200  0.707800  1.0
  C  C829  1  0.129200  0.988200  0.292200  1.0
  C  C830  1  0.870800  0.011800  0.792200  1.0
  C  C831  1  0.488200  0.370800  0.542200  1.0
  C  C832  1  0.511800  0.629200  0.042200  1.0
  C  C833  1  0.386800  0.532400  0.448400  1.0
  C  C834  1  0.613200  0.467600  0.948400  1.0
  C  C835  1  0.967600  0.886800  0.198400  1.0
  C  C836  1  0.032400  0.113200  0.698400  1.0
  C  C837  1  0.113200  0.032400  0.301600  1.0
  C  C838  1  0.886800  0.967600  0.801600  1.0
  C  C839  1  0.532400  0.386800  0.551600  1.0
  C  C840  1  0.467600  0.613200  0.051600  1.0
  C  C841  1  0.429800  0.540600  0.458300  1.0
  C  C842  1  0.570200  0.459400  0.958300  1.0
  C  C843  1  0.959400  0.929800  0.208300  1.0
  C  C844  1  0.040600  0.070200  0.708300  1.0
  C  C845  1  0.070200  0.040600  0.291700  1.0
  C  C846  1  0.929800  0.959400  0.791700  1.0
  C  C847  1  0.540600  0.429800  0.541700  1.0
  C  C848  1  0.459400  0.570200  0.041700  1.0
  C  C849  1  0.594000  0.537600  0.561700  1.0
  C  C850  1  0.406000  0.462400  0.061700  1.0
  C  C851  1  0.962400  0.094000  0.311700  1.0
  C  C852  1  0.037600  0.906000  0.811700  1.0
  C  C853  1  0.906000  0.037600  0.188300  1.0
  C  C854  1  0.094000  0.962400  0.688300  1.0
  C  C855  1  0.537600  0.594000  0.438300  1.0
  C  C856  1  0.462400  0.406000  0.938300  1.0
  C  C857  1  0.639300  0.542400  0.574500  1.0
  C  C858  1  0.360700  0.457600  0.074500  1.0
  C  C859  1  0.957600  0.139300  0.324500  1.0
  C  C860  1  0.042400  0.860700  0.824500  1.0
  C  C861  1  0.860700  0.042400  0.175500  1.0
  C  C862  1  0.139300  0.957600  0.675500  1.0
  C  C863  1  0.542400  0.639300  0.425500  1.0
  C  C864  1  0.457600  0.360700  0.925500  1.0
  C  C865  1  0.673900  0.538100  0.548300  1.0
  C  C866  1  0.326100  0.461900  0.048300  1.0
  C  C867  1  0.961900  0.173900  0.298300  1.0
  C  C868  1  0.038100  0.826100  0.798300  1.0
  C  C869  1  0.826100  0.038100  0.201700  1.0
  C  C870  1  0.173900  0.961900  0.701700  1.0
  C  C871  1  0.538100  0.673900  0.451700  1.0
  C  C872  1  0.461900  0.326100  0.951700  1.0
  C  C873  1  0.663200  0.526300  0.506500  1.0
  C  C874  1  0.336800  0.473700  0.006500  1.0
  C  C875  1  0.973700  0.163200  0.256500  1.0
  C  C876  1  0.026300  0.836800  0.756500  1.0
  C  C877  1  0.836800  0.026300  0.243500  1.0
  C  C878  1  0.163200  0.973700  0.743500  1.0
  C  C879  1  0.526300  0.663200  0.493500  1.0
  C  C880  1  0.473700  0.336800  0.993500  1.0
  C  C881  1  0.618700  0.520900  0.493500  1.0
  C  C882  1  0.381300  0.479100  0.993500  1.0
  C  C883  1  0.979100  0.118700  0.243500  1.0
  C  C884  1  0.020900  0.881300  0.743500  1.0
  C  C885  1  0.881300  0.020900  0.256500  1.0
  C  C886  1  0.118700  0.979100  0.756500  1.0
  C  C887  1  0.520900  0.618700  0.506500  1.0
  C  C888  1  0.479100  0.381300  0.006500  1.0
  C  C889  1  0.719300  0.547400  0.561100  1.0
  C  C890  1  0.280700  0.452600  0.061100  1.0
  C  C891  1  0.952600  0.219300  0.311100  1.0
  C  C892  1  0.047400  0.780700  0.811100  1.0
  C  C893  1  0.780700  0.047400  0.188900  1.0
  C  C894  1  0.219300  0.952600  0.688900  1.0
  C  C895  1  0.547400  0.719300  0.438900  1.0
  C  C896  1  0.452600  0.280700  0.938900  1.0
  C  C897  1  0.770100  0.574900  0.612300  1.0
  C  C898  1  0.229900  0.425100  0.112300  1.0
  C  C899  1  0.925100  0.270100  0.362300  1.0
  C  C900  1  0.074900  0.729900  0.862300  1.0
  C  C901  1  0.729900  0.074900  0.137700  1.0
  C  C902  1  0.270100  0.925100  0.637700  1.0
  C  C903  1  0.574900  0.770100  0.387700  1.0
  C  C904  1  0.425100  0.229900  0.887700  1.0
  C  C905  1  0.797300  0.545700  0.548800  1.0
  C  C906  1  0.202700  0.454300  0.048800  1.0
  C  C907  1  0.954300  0.297300  0.298800  1.0
  C  C908  1  0.045700  0.702700  0.798800  1.0
  C  C909  1  0.702700  0.045700  0.201200  1.0
  C  C910  1  0.297300  0.954300  0.701200  1.0
  C  C911  1  0.545700  0.797300  0.451200  1.0
  C  C912  1  0.454300  0.202700  0.951200  1.0
  C  C913  1  0.858100  0.514500  0.449200  1.0
  C  C914  1  0.141900  0.485500  0.949200  1.0
  C  C915  1  0.985500  0.358100  0.199200  1.0
  C  C916  1  0.014500  0.641900  0.699200  1.0
  C  C917  1  0.641900  0.014500  0.300800  1.0
  C  C918  1  0.358100  0.985500  0.800800  1.0
  C  C919  1  0.514500  0.858100  0.550800  1.0
  C  C920  1  0.485500  0.141900  0.050800  1.0
  C  C921  1  0.823100  0.517600  0.478300  1.0
  C  C922  1  0.176900  0.482400  0.978300  1.0
  C  C923  1  0.982400  0.323100  0.228300  1.0
  C  C924  1  0.017600  0.676900  0.728300  1.0
  C  C925  1  0.676900  0.017600  0.271700  1.0
  C  C926  1  0.323100  0.982400  0.771700  1.0
  C  C927  1  0.517600  0.823100  0.521700  1.0
  C  C928  1  0.482400  0.176900  0.021700  1.0
  C  C929  1  0.833200  0.534400  0.519100  1.0
  C  C930  1  0.166800  0.465600  0.019100  1.0
  C  C931  1  0.965600  0.333200  0.269100  1.0
  C  C932  1  0.034400  0.666800  0.769100  1.0
  C  C933  1  0.666800  0.034400  0.230900  1.0
  C  C934  1  0.333200  0.965600  0.730900  1.0
  C  C935  1  0.534400  0.833200  0.480900  1.0
  C  C936  1  0.465600  0.166800  0.980900  1.0
  C  C937  1  0.877400  0.545400  0.527900  1.0
  C  C938  1  0.122600  0.454600  0.027900  1.0
  C  C939  1  0.954600  0.377400  0.277900  1.0
  C  C940  1  0.045400  0.622600  0.777900  1.0
  C  C941  1  0.622600  0.045400  0.222100  1.0
  C  C942  1  0.377400  0.954600  0.722100  1.0
  C  C943  1  0.545400  0.877400  0.472100  1.0
  C  C944  1  0.454600  0.122600  0.972100  1.0
  C  C945  1  0.911000  0.540500  0.499000  1.0
  C  C946  1  0.089000  0.459500  0.999000  1.0
  C  C947  1  0.959500  0.411000  0.249000  1.0
  C  C948  1  0.040500  0.589000  0.749000  1.0
  C  C949  1  0.589000  0.040500  0.251000  1.0
  C  C950  1  0.411000  0.959500  0.751000  1.0
  C  C951  1  0.540500  0.911000  0.501000  1.0
  C  C952  1  0.459500  0.089000  0.001000  1.0
  C  C953  1  0.948800  0.624400  0.417600  1.0
  C  C954  1  0.051200  0.375600  0.917600  1.0
  C  C955  1  0.875600  0.448800  0.167600  1.0
  C  C956  1  0.124400  0.551200  0.667600  1.0
  C  C957  1  0.551200  0.124400  0.332400  1.0
  C  C958  1  0.448800  0.875600  0.832400  1.0
  C  C959  1  0.624400  0.948800  0.582400  1.0
  C  C960  1  0.375600  0.051200  0.082400  1.0
  C  C961  1  0.937800  0.670000  0.411100  1.0
  C  C962  1  0.062200  0.330000  0.911100  1.0
  C  C963  1  0.830000  0.437800  0.161100  1.0
  C  C964  1  0.170000  0.562200  0.661100  1.0
  C  C965  1  0.562200  0.170000  0.338900  1.0
  C  C966  1  0.437800  0.830000  0.838900  1.0
  C  C967  1  0.670000  0.937800  0.588900  1.0
  C  C968  1  0.330000  0.062200  0.088900  1.0
  C  C969  1  0.902000  0.680100  0.382700  1.0
  C  C970  1  0.098000  0.319900  0.882700  1.0
  C  C971  1  0.819900  0.402000  0.132700  1.0
  C  C972  1  0.180100  0.598000  0.632700  1.0
  C  C973  1  0.598000  0.180100  0.367300  1.0
  C  C974  1  0.402000  0.819900  0.867300  1.0
  C  C975  1  0.680100  0.902000  0.617300  1.0
  C  C976  1  0.319900  0.098000  0.117300  1.0
  C  C977  1  0.882300  0.639500  0.363700  1.0
  C  C978  1  0.117700  0.360500  0.863700  1.0
  C  C979  1  0.860500  0.382300  0.113700  1.0
  C  C980  1  0.139500  0.617700  0.613700  1.0
  C  C981  1  0.617700  0.139500  0.386300  1.0
  C  C982  1  0.382300  0.860500  0.886300  1.0
  C  C983  1  0.639500  0.882300  0.636300  1.0
  C  C984  1  0.360500  0.117700  0.136300  1.0
  C  C985  1  0.895000  0.596900  0.371200  1.0
  C  C986  1  0.105000  0.403100  0.871200  1.0
  C  C987  1  0.903100  0.395000  0.121200  1.0
  C  C988  1  0.096900  0.605000  0.621200  1.0
  C  C989  1  0.605000  0.096900  0.378800  1.0
  C  C990  1  0.395000  0.903100  0.878800  1.0
  C  C991  1  0.596900  0.895000  0.628800  1.0
  C  C992  1  0.403100  0.105000  0.128800  1.0
  C  C993  1  0.887700  0.724400  0.373600  1.0
  C  C994  1  0.112300  0.275600  0.873600  1.0
  C  C995  1  0.775600  0.387700  0.123600  1.0
  C  C996  1  0.224400  0.612300  0.623600  1.0
  C  C997  1  0.612300  0.224400  0.376400  1.0
  C  C998  1  0.387700  0.775600  0.876400  1.0
  C  C999  1  0.724400  0.887700  0.626400  1.0
  C  C1000  1  0.275600  0.112300  0.126400  1.0
  C  C1001  1  0.890500  0.800400  0.385800  1.0
  C  C1002  1  0.109500  0.199600  0.885800  1.0
  C  C1003  1  0.699600  0.390500  0.135800  1.0
  C  C1004  1  0.300400  0.609500  0.635800  1.0
  C  C1005  1  0.609500  0.300400  0.364200  1.0
  C  C1006  1  0.390500  0.699600  0.864200  1.0
  C  C1007  1  0.800400  0.890500  0.614200  1.0
  C  C1008  1  0.199600  0.109500  0.114200  1.0
  C  C1009  1  0.841400  0.774400  0.336700  1.0
  C  C1010  1  0.158600  0.225600  0.836700  1.0
  C  C1011  1  0.725600  0.341400  0.086700  1.0
  C  C1012  1  0.274400  0.658600  0.586700  1.0
  C  C1013  1  0.658600  0.274400  0.413300  1.0
  C  C1014  1  0.341400  0.725600  0.913300  1.0
  C  C1015  1  0.774400  0.841400  0.663300  1.0
  C  C1016  1  0.225600  0.158600  0.163300  1.0
  C  C1017  1  0.905500  0.914500  0.433900  1.0
  C  C1018  1  0.094500  0.085500  0.933900  1.0
  C  C1019  1  0.585500  0.405500  0.183900  1.0
  C  C1020  1  0.414500  0.594500  0.683900  1.0
  C  C1021  1  0.594500  0.414500  0.316100  1.0
  C  C1022  1  0.405500  0.585500  0.816100  1.0
  C  C1023  1  0.914500  0.905500  0.566100  1.0
  C  C1024  1  0.085500  0.094500  0.066100  1.0
  C  C1025  1  0.890400  0.879300  0.406400  1.0
  C  C1026  1  0.109600  0.120700  0.906400  1.0
  C  C1027  1  0.620700  0.390400  0.156400  1.0
  C  C1028  1  0.379300  0.609600  0.656400  1.0
  C  C1029  1  0.609600  0.379300  0.343600  1.0
  C  C1030  1  0.390400  0.620700  0.843600  1.0
  C  C1031  1  0.879300  0.890400  0.593600  1.0
  C  C1032  1  0.120700  0.109600  0.093600  1.0
  C  C1033  1  0.908800  0.837700  0.411600  1.0
  C  C1034  1  0.091200  0.162300  0.911600  1.0
  C  C1035  1  0.662300  0.408800  0.161600  1.0
  C  C1036  1  0.337700  0.591200  0.661600  1.0
  C  C1037  1  0.591200  0.337700  0.338400  1.0
  C  C1038  1  0.408800  0.662300  0.838400  1.0
  C  C1039  1  0.837700  0.908800  0.588400  1.0
  C  C1040  1  0.162300  0.091200  0.088400  1.0
  C  C1041  1  0.944600  0.830400  0.437700  1.0
  C  C1042  1  0.055400  0.169600  0.937700  1.0
  C  C1043  1  0.669600  0.444600  0.187700  1.0
  C  C1044  1  0.330400  0.555400  0.687700  1.0
  C  C1045  1  0.555400  0.330400  0.312300  1.0
  C  C1046  1  0.444600  0.669600  0.812300  1.0
  C  C1047  1  0.830400  0.944600  0.562300  1.0
  C  C1048  1  0.169600  0.055400  0.062300  1.0
  C  C1049  1  0.958100  0.864200  0.459100  1.0
  C  C1050  1  0.041900  0.135800  0.959100  1.0
  C  C1051  1  0.635800  0.458100  0.209100  1.0
  C  C1052  1  0.364200  0.541900  0.709100  1.0
  C  C1053  1  0.541900  0.364200  0.290900  1.0
  C  C1054  1  0.458100  0.635800  0.790900  1.0
  C  C1055  1  0.864200  0.958100  0.540900  1.0
  C  C1056  1  0.135800  0.041900  0.040900  1.0
  C  C1057  1  0.753800  0.828400  0.268600  1.0
  C  C1058  1  0.246200  0.171600  0.768600  1.0
  C  C1059  1  0.671600  0.253800  0.018600  1.0
  C  C1060  1  0.328400  0.746200  0.518600  1.0
  C  C1061  1  0.746200  0.328400  0.481400  1.0
  C  C1062  1  0.253800  0.671600  0.981400  1.0
  C  C1063  1  0.828400  0.753800  0.731400  1.0
  C  C1064  1  0.171600  0.246200  0.231400  1.0
  C  C1065  1  0.790400  0.822400  0.297100  1.0
  C  C1066  1  0.209600  0.177600  0.797100  1.0
  C  C1067  1  0.677600  0.290400  0.047100  1.0
  C  C1068  1  0.322400  0.709600  0.547100  1.0
  C  C1069  1  0.709600  0.322400  0.452900  1.0
  C  C1070  1  0.290400  0.677600  0.952900  1.0
  C  C1071  1  0.822400  0.790400  0.702900  1.0
  C  C1072  1  0.177600  0.209600  0.202900  1.0
  C  C1073  1  0.806400  0.783900  0.304200  1.0
  C  C1074  1  0.193600  0.216100  0.804200  1.0
  C  C1075  1  0.716100  0.306400  0.054200  1.0
  C  C1076  1  0.283900  0.693600  0.554200  1.0
  C  C1077  1  0.693600  0.283900  0.445800  1.0
  C  C1078  1  0.306400  0.716100  0.945800  1.0
  C  C1079  1  0.783900  0.806400  0.695800  1.0
  C  C1080  1  0.216100  0.193600  0.195800  1.0
  C  C1081  1  0.785800  0.746600  0.280600  1.0
  C  C1082  1  0.214200  0.253400  0.780600  1.0
  C  C1083  1  0.753400  0.285800  0.030600  1.0
  C  C1084  1  0.246600  0.714200  0.530600  1.0
  C  C1085  1  0.714200  0.246600  0.469400  1.0
  C  C1086  1  0.285800  0.753400  0.969400  1.0
  C  C1087  1  0.746600  0.785800  0.719400  1.0
  C  C1088  1  0.253400  0.214200  0.219400  1.0
  C  C1089  1  0.750900  0.755900  0.254900  1.0
  C  C1090  1  0.249100  0.244100  0.754900  1.0
  C  C1091  1  0.744100  0.250900  0.004900  1.0
  C  C1092  1  0.255900  0.749100  0.504900  1.0
  C  C1093  1  0.749100  0.255900  0.495100  1.0
  C  C1094  1  0.250900  0.744100  0.995100  1.0
  C  C1095  1  0.755900  0.750900  0.745100  1.0
  C  C1096  1  0.244100  0.249100  0.245100  1.0
  C  C1097  1  0.631700  0.834900  0.141700  1.0
  C  C1098  1  0.368300  0.165100  0.641700  1.0
  C  C1099  1  0.665100  0.131700  0.891700  1.0
  C  C1100  1  0.334900  0.868300  0.391700  1.0
  C  C1101  1  0.868300  0.334900  0.608300  1.0
  C  C1102  1  0.131700  0.665100  0.108300  1.0
  C  C1103  1  0.834900  0.631700  0.858300  1.0
  C  C1104  1  0.165100  0.368300  0.358300  1.0
  C  C1105  1  0.590300  0.850500  0.117000  1.0
  C  C1106  1  0.409700  0.149500  0.617000  1.0
  C  C1107  1  0.649500  0.090300  0.867000  1.0
  C  C1108  1  0.350500  0.909700  0.367000  1.0
  C  C1109  1  0.909700  0.350500  0.633000  1.0
  C  C1110  1  0.090300  0.649500  0.133000  1.0
  C  C1111  1  0.850500  0.590300  0.883000  1.0
  C  C1112  1  0.149500  0.409700  0.383000  1.0
  C  C1113  1  0.545900  0.844200  0.129900  1.0
  C  C1114  1  0.454100  0.155800  0.629900  1.0
  C  C1115  1  0.655800  0.045900  0.879900  1.0
  C  C1116  1  0.344200  0.954100  0.379900  1.0
  C  C1117  1  0.954100  0.344200  0.620100  1.0
  C  C1118  1  0.045900  0.655800  0.120100  1.0
  C  C1119  1  0.844200  0.545900  0.870100  1.0
  C  C1120  1  0.155800  0.454100  0.370100  1.0
  C  C1121  1  0.539700  0.827500  0.167900  1.0
  C  C1122  1  0.460300  0.172500  0.667900  1.0
  C  C1123  1  0.672500  0.039700  0.917900  1.0
  C  C1124  1  0.327500  0.960300  0.417900  1.0
  C  C1125  1  0.960300  0.327500  0.582100  1.0
  C  C1126  1  0.039700  0.672500  0.082100  1.0
  C  C1127  1  0.827500  0.539700  0.832100  1.0
  C  C1128  1  0.172500  0.460300  0.332100  1.0
  C  C1129  1  0.577900  0.816000  0.194900  1.0
  C  C1130  1  0.422100  0.184000  0.694900  1.0
  C  C1131  1  0.684000  0.077900  0.944900  1.0
  C  C1132  1  0.316000  0.922100  0.444900  1.0
  C  C1133  1  0.922100  0.316000  0.555100  1.0
  C  C1134  1  0.077900  0.684000  0.055100  1.0
  C  C1135  1  0.816000  0.577900  0.805100  1.0
  C  C1136  1  0.184000  0.422100  0.305100  1.0
  C  C1137  1  0.637200  0.828300  0.300400  1.0
  C  C1138  1  0.362800  0.171700  0.800400  1.0
  C  C1139  1  0.671700  0.137200  0.050400  1.0
  C  C1140  1  0.328300  0.862800  0.550400  1.0
  C  C1141  1  0.862800  0.328300  0.449600  1.0
  C  C1142  1  0.137200  0.671700  0.949600  1.0
  C  C1143  1  0.828300  0.637200  0.699600  1.0
  C  C1144  1  0.171700  0.362800  0.199600  1.0
  C  C1145  1  0.614900  0.821800  0.339400  1.0
  C  C1146  1  0.385100  0.178200  0.839400  1.0
  C  C1147  1  0.678200  0.114900  0.089400  1.0
  C  C1148  1  0.321800  0.885100  0.589400  1.0
  C  C1149  1  0.885100  0.321800  0.410600  1.0
  C  C1150  1  0.114900  0.678200  0.910600  1.0
  C  C1151  1  0.821800  0.614900  0.660600  1.0
  C  C1152  1  0.178200  0.385100  0.160600  1.0
  C  C1153  1  0.778500  0.596400  0.651500  1.0
  C  C1154  1  0.221500  0.403600  0.151500  1.0
  C  C1155  1  0.903600  0.278500  0.401500  1.0
  C  C1156  1  0.096400  0.721500  0.901500  1.0
  C  C1157  1  0.721500  0.096400  0.098500  1.0
  C  C1158  1  0.278500  0.903600  0.598500  1.0
  C  C1159  1  0.596400  0.778500  0.348500  1.0
  C  C1160  1  0.403600  0.221500  0.848500  1.0
  C  C1161  1  0.744900  0.603300  0.680200  1.0
  C  C1162  1  0.255100  0.396700  0.180200  1.0
  C  C1163  1  0.896700  0.244900  0.430200  1.0
  C  C1164  1  0.103300  0.755100  0.930200  1.0
  C  C1165  1  0.755100  0.103300  0.069800  1.0
  C  C1166  1  0.244900  0.896700  0.569800  1.0
  C  C1167  1  0.603300  0.744900  0.319800  1.0
  C  C1168  1  0.396700  0.255100  0.819800  1.0
  C  C1169  1  0.625000  0.752900  0.281100  1.0
  C  C1170  1  0.375000  0.247100  0.781100  1.0
  C  C1171  1  0.747100  0.125000  0.031100  1.0
  C  C1172  1  0.252900  0.875000  0.531100  1.0
  C  C1173  1  0.875000  0.252900  0.468900  1.0
  C  C1174  1  0.125000  0.747100  0.968900  1.0
  C  C1175  1  0.752900  0.625000  0.718900  1.0
  C  C1176  1  0.247100  0.375000  0.218900  1.0
  N  N1177  1  0.881300  0.454300  0.350000  1
  N  N1178  1  0.118700  0.545700  0.850000  1
  N  N1179  1  0.045700  0.381300  0.100000  1
  N  N1180  1  0.954300  0.618700  0.600000  1
  N  N1181  1  0.618700  0.954300  0.400000  1
  N  N1182  1  0.381300  0.045700  0.900000  1
  N  N1183  1  0.454300  0.881300  0.650000  1
  N  N1184  1  0.545700  0.118700  0.150000  1
  N  N1185  1  0.077600  0.345600  0.283700  1
  N  N1186  1  0.922400  0.654400  0.783700  1
  N  N1187  1  0.154400  0.577600  0.033700  1
  N  N1188  1  0.845600  0.422400  0.533700  1
  N  N1189  1  0.422400  0.845600  0.466300  1
  N  N1190  1  0.577600  0.154400  0.966300  1
  N  N1191  1  0.345600  0.077600  0.716300  1
  N  N1192  1  0.654400  0.922400  0.216300  1
  N  N1193  1  0.456100  0.510200  0.478800  1.0
  N  N1194  1  0.543900  0.489800  0.978800  1.0
  N  N1195  1  0.989800  0.956100  0.228800  1.0
  N  N1196  1  0.010200  0.043900  0.728800  1.0
  N  N1197  1  0.043900  0.010200  0.271200  1.0
  N  N1198  1  0.956100  0.989800  0.771200  1.0
  N  N1199  1  0.510200  0.456100  0.521200  1.0
  N  N1200  1  0.489800  0.543900  0.021200  1.0
  N  N1201  1  0.585000  0.527200  0.520700  1.0
  N  N1202  1  0.415000  0.472800  0.020700  1.0
  N  N1203  1  0.972800  0.085000  0.270700  1.0
  N  N1204  1  0.027200  0.915000  0.770700  1.0
  N  N1205  1  0.915000  0.027200  0.229300  1.0
  N  N1206  1  0.085000  0.972800  0.729300  1.0
  N  N1207  1  0.527200  0.585000  0.479300  1.0
  N  N1208  1  0.472800  0.415000  0.979300  1.0
  N  N1209  1  0.804800  0.565400  0.587400  1.0
  N  N1210  1  0.195200  0.434600  0.087400  1.0
  N  N1211  1  0.934600  0.304800  0.337400  1.0
  N  N1212  1  0.065400  0.695200  0.837400  1.0
  N  N1213  1  0.695200  0.065400  0.162600  1.0
  N  N1214  1  0.304800  0.934600  0.662600  1.0
  N  N1215  1  0.565400  0.804800  0.412600  1.0
  N  N1216  1  0.434600  0.195200  0.912600  1.0
  N  N1217  1  0.725000  0.566500  0.599900  1.0
  N  N1218  1  0.275000  0.433500  0.099900  1.0
  N  N1219  1  0.933500  0.225000  0.349900  1.0
  N  N1220  1  0.066500  0.775000  0.849900  1.0
  N  N1221  1  0.775000  0.066500  0.150100  1.0
  N  N1222  1  0.225000  0.933500  0.650100  1.0
  N  N1223  1  0.566500  0.725000  0.400100  1.0
  N  N1224  1  0.433500  0.275000  0.900100  1.0
  N  N1225  1  0.751900  0.536800  0.534400  1.0
  N  N1226  1  0.248100  0.463200  0.034400  1.0
  N  N1227  1  0.963200  0.251900  0.284400  1.0
  N  N1228  1  0.036800  0.748100  0.784400  1.0
  N  N1229  1  0.748100  0.036800  0.215600  1.0
  N  N1230  1  0.251900  0.963200  0.715600  1.0
  N  N1231  1  0.536800  0.751900  0.465600  1.0
  N  N1232  1  0.463200  0.248100  0.965600  1.0
  N  N1233  1  0.901400  0.525200  0.458800  1.0
  N  N1234  1  0.098600  0.474800  0.958800  1.0
  N  N1235  1  0.974800  0.401400  0.208800  1.0
  N  N1236  1  0.025200  0.598600  0.708800  1.0
  N  N1237  1  0.598600  0.025200  0.291200  1.0
  N  N1238  1  0.401400  0.974800  0.791200  1.0
  N  N1239  1  0.525200  0.901400  0.541200  1.0
  N  N1240  1  0.474800  0.098600  0.041200  1.0
  N  N1241  1  0.968600  0.461800  0.419200  1.0
  N  N1242  1  0.031400  0.538200  0.919200  1.0
  N  N1243  1  0.038200  0.468600  0.169200  1.0
  N  N1244  1  0.961800  0.531400  0.669200  1.0
  N  N1245  1  0.531400  0.961800  0.330800  1.0
  N  N1246  1  0.468600  0.038200  0.830800  1.0
  N  N1247  1  0.461800  0.968600  0.580800  1.0
  N  N1248  1  0.538200  0.031400  0.080800  1.0
  N  N1249  1  0.993400  0.523600  0.365000  1.0
  N  N1250  1  0.006600  0.476400  0.865000  1.0
  N  N1251  1  0.976400  0.493400  0.115000  1.0
  N  N1252  1  0.023600  0.506600  0.615000  1.0
  N  N1253  1  0.506600  0.023600  0.385000  1.0
  N  N1254  1  0.493400  0.976400  0.885000  1.0
  N  N1255  1  0.523600  0.993400  0.635000  1.0
  N  N1256  1  0.476400  0.006600  0.135000  1.0
  N  N1257  1  0.928300  0.589600  0.399900  1.0
  N  N1258  1  0.071700  0.410400  0.899900  1.0
  N  N1259  1  0.910400  0.428300  0.149900  1.0
  N  N1260  1  0.089600  0.571700  0.649900  1.0
  N  N1261  1  0.571700  0.089600  0.350100  1.0
  N  N1262  1  0.428300  0.910400  0.850100  1.0
  N  N1263  1  0.589600  0.928300  0.600100  1.0
  N  N1264  1  0.410400  0.071700  0.100100  1.0
  N  N1265  1  0.905600  0.755700  0.395600  1.0
  N  N1266  1  0.094400  0.244300  0.895600  1.0
  N  N1267  1  0.744300  0.405600  0.145600  1.0
  N  N1268  1  0.255700  0.594400  0.645600  1.0
  N  N1269  1  0.594400  0.255700  0.354400  1.0
  N  N1270  1  0.405600  0.744300  0.854400  1.0
  N  N1271  1  0.755700  0.905600  0.604400  1.0
  N  N1272  1  0.244300  0.094400  0.104400  1.0
  N  N1273  1  0.857500  0.730100  0.343200  1.0
  N  N1274  1  0.142500  0.269900  0.843200  1.0
  N  N1275  1  0.769900  0.357500  0.093200  1.0
  N  N1276  1  0.230100  0.642500  0.593200  1.0
  N  N1277  1  0.642500  0.230100  0.406800  1.0
  N  N1278  1  0.357500  0.769900  0.906800  1.0
  N  N1279  1  0.730100  0.857500  0.656800  1.0
  N  N1280  1  0.269900  0.142500  0.156800  1.0
  N  N1281  1  0.857500  0.808200  0.356800  1.0
  N  N1282  1  0.142500  0.191800  0.856800  1.0
  N  N1283  1  0.691800  0.357500  0.106800  1.0
  N  N1284  1  0.308200  0.642500  0.606800  1.0
  N  N1285  1  0.642500  0.308200  0.393200  1.0
  N  N1286  1  0.357500  0.691800  0.893200  1.0
  N  N1287  1  0.808200  0.857500  0.643200  1.0
  N  N1288  1  0.191800  0.142500  0.143200  1.0
  N  N1289  1  0.940000  0.906500  0.459200  1.0
  N  N1290  1  0.060000  0.093500  0.959200  1.0
  N  N1291  1  0.593500  0.440000  0.209200  1.0
  N  N1292  1  0.406500  0.560000  0.709200  1.0
  N  N1293  1  0.560000  0.406500  0.290800  1.0
  N  N1294  1  0.440000  0.593500  0.790800  1.0
  N  N1295  1  0.906500  0.940000  0.540800  1.0
  N  N1296  1  0.093500  0.060000  0.040800  1.0
  N  N1297  1  0.980200  0.008100  0.536100  1.0
  N  N1298  1  0.019800  0.991900  0.036100  1.0
  N  N1299  1  0.491900  0.480200  0.286100  1.0
  N  N1300  1  0.508100  0.519800  0.786100  1.0
  N  N1301  1  0.519800  0.508100  0.213900  1.0
  N  N1302  1  0.480200  0.491900  0.713900  1.0
  N  N1303  1  0.008100  0.980200  0.463900  1.0
  N  N1304  1  0.991900  0.019800  0.963900  1.0
  N  N1305  1  0.733500  0.795700  0.249300  1.0
  N  N1306  1  0.266500  0.204300  0.749300  1.0
  N  N1307  1  0.704300  0.233500  0.999300  1.0
  N  N1308  1  0.295700  0.766500  0.499300  1.0
  N  N1309  1  0.766500  0.295700  0.500700  1.0
  N  N1310  1  0.233500  0.704300  0.000700  1.0
  N  N1311  1  0.795700  0.733500  0.750700  1.0
  N  N1312  1  0.204300  0.266500  0.250700  1.0
  N  N1313  1  0.705300  0.822800  0.162800  1.0
  N  N1314  1  0.294700  0.177200  0.662800  1.0
  N  N1315  1  0.677200  0.205300  0.912800  1.0
  N  N1316  1  0.322800  0.794700  0.412800  1.0
  N  N1317  1  0.794700  0.322800  0.587200  1.0
  N  N1318  1  0.205300  0.677200  0.087200  1.0
  N  N1319  1  0.822800  0.705300  0.837200  1.0
  N  N1320  1  0.177200  0.294700  0.337200  1.0
  N  N1321  1  0.620000  0.819800  0.182300  1.0
  N  N1322  1  0.380000  0.180200  0.682300  1.0
  N  N1323  1  0.680200  0.120000  0.932300  1.0
  N  N1324  1  0.319800  0.880000  0.432300  1.0
  N  N1325  1  0.880000  0.319800  0.567700  1.0
  N  N1326  1  0.120000  0.680200  0.067700  1.0
  N  N1327  1  0.819800  0.620000  0.817700  1.0
  N  N1328  1  0.180200  0.380000  0.317700  1.0
  N  N1329  1  0.641400  0.793600  0.272100  1.0
  N  N1330  1  0.358600  0.206400  0.772100  1.0
  N  N1331  1  0.706400  0.141400  0.022100  1.0
  N  N1332  1  0.293600  0.858600  0.522100  1.0
  N  N1333  1  0.858600  0.293600  0.477900  1.0
  N  N1334  1  0.141400  0.706400  0.977900  1.0
  N  N1335  1  0.793600  0.641400  0.727900  1.0
  N  N1336  1  0.206400  0.358600  0.227900  1.0
  O  O1337  1  0.908500  0.469600  0.321400  1
  O  O1338  1  0.091500  0.530400  0.821400  1
  O  O1339  1  0.030400  0.408500  0.071400  1
  O  O1340  1  0.969600  0.591500  0.571400  1
  O  O1341  1  0.591500  0.969600  0.428600  1
  O  O1342  1  0.408500  0.030400  0.928600  1
  O  O1343  1  0.469600  0.908500  0.678600  1
  O  O1344  1  0.530400  0.091500  0.178600  1
  O  O1345  1  0.852400  0.490000  0.345000  1
  O  O1346  1  0.147600  0.510000  0.845000  1
  O  O1347  1  0.010000  0.352400  0.095000  1
  O  O1348  1  0.990000  0.647600  0.595000  1
  O  O1349  1  0.647600  0.990000  0.405000  1
  O  O1350  1  0.352400  0.010000  0.905000  1
  O  O1351  1  0.490000  0.852400  0.655000  1
  O  O1352  1  0.510000  0.147600  0.155000  1
  O  O1353  1  0.882800  0.423300  0.369300  1
  O  O1354  1  0.117200  0.576700  0.869300  1
  O  O1355  1  0.076700  0.382800  0.119300  1
  O  O1356  1  0.923300  0.617200  0.619300  1
  O  O1357  1  0.617200  0.923300  0.380700  1
  O  O1358  1  0.382800  0.076700  0.880700  1
  O  O1359  1  0.423300  0.882800  0.630700  1
  O  O1360  1  0.576700  0.117200  0.130700  1
  O  O1361  1  0.088800  0.315300  0.261900  1
  O  O1362  1  0.911200  0.684700  0.761900  1
  O  O1363  1  0.184700  0.588800  0.011900  1
  O  O1364  1  0.815300  0.411200  0.511900  1
  O  O1365  1  0.411200  0.815300  0.488100  1
  O  O1366  1  0.588800  0.184700  0.988100  1
  O  O1367  1  0.315300  0.088800  0.738100  1
  O  O1368  1  0.684700  0.911200  0.238100  1
  O  O1369  1  0.065700  0.338500  0.318800  1
  O  O1370  1  0.934300  0.661500  0.818800  1
  O  O1371  1  0.161500  0.565700  0.068800  1
  O  O1372  1  0.838500  0.434300  0.568800  1
  O  O1373  1  0.434300  0.838500  0.431200  1
  O  O1374  1  0.565700  0.161500  0.931200  1
  O  O1375  1  0.338500  0.065700  0.681200  1
  O  O1376  1  0.661500  0.934300  0.181200  1
  O  O1377  1  0.081300  0.381500  0.273000  1
  O  O1378  1  0.918700  0.618500  0.773000  1
  O  O1379  1  0.118500  0.581300  0.023000  1
  O  O1380  1  0.881500  0.418700  0.523000  1
  O  O1381  1  0.418700  0.881500  0.477000  1
  O  O1382  1  0.581300  0.118500  0.977000  1
  O  O1383  1  0.381500  0.081300  0.727000  1
  O  O1384  1  0.618500  0.918700  0.227000  1
  O  O1385  1  0.712200  0.745200  0.356100  1.0
  O  O1386  1  0.287800  0.254800  0.856100  1.0
  O  O1387  1  0.754800  0.212200  0.106100  1.0
  O  O1388  1  0.245200  0.787800  0.606100  1.0
  O  O1389  1  0.787800  0.245200  0.393900  1.0
  O  O1390  1  0.212200  0.754800  0.893900  1.0
  O  O1391  1  0.745200  0.712200  0.643900  1.0
  O  O1392  1  0.254800  0.287800  0.143900  1.0
  O  O1393  1  0.808000  0.878800  0.489000  1.0
  O  O1394  1  0.192000  0.121200  0.989000  1.0
  O  O1395  1  0.621200  0.308000  0.239000  1.0
  O  O1396  1  0.378800  0.692000  0.739000  1.0
  O  O1397  1  0.692000  0.378800  0.261000  1.0
  O  O1398  1  0.308000  0.621200  0.761000  1.0
  O  O1399  1  0.878800  0.808000  0.511000  1.0
  O  O1400  1  0.121200  0.192000  0.011000  1.0
  O  O1401  1  0.856800  0.641200  0.479700  1.0
  O  O1402  1  0.143200  0.358800  0.979700  1.0
  O  O1403  1  0.858800  0.356800  0.229700  1.0
  O  O1404  1  0.141200  0.643200  0.729700  1.0
  O  O1405  1  0.643200  0.141200  0.270300  1.0
  O  O1406  1  0.356800  0.858800  0.770300  1.0
  O  O1407  1  0.641200  0.856800  0.520300  1.0
  O  O1408  1  0.358800  0.143200  0.020300  1.0
  O  O1409  1  0.646000  0.629700  0.455200  1.0
  O  O1410  1  0.354000  0.370300  0.955200  1.0
  O  O1411  1  0.870300  0.146000  0.205200  1.0
  O  O1412  1  0.129700  0.854000  0.705200  1.0
  O  O1413  1  0.854000  0.129700  0.294800  1.0
  O  O1414  1  0.146000  0.870300  0.794800  1.0
  O  O1415  1  0.629700  0.646000  0.544800  1.0
  O  O1416  1  0.370300  0.354000  0.044800  1.0
