
#######################################################################
#
#                 Cambridge Crystallographic Data Centre
#                                CCDC 
#
#######################################################################
#
# If this CIF has been generated from an entry in the Cambridge 
# Structural Database, then it will include bibliographic, chemical, 
# crystal, experimental, refinement or atomic coordinate data resulting 
# from the CCDC's data processing and validation procedures.
#
#######################################################################

data_XIDCAR
_chemical_formula_moiety         
'C97 H94 Cu2 N14 O4 2+,4(C2 H3 N1),2(Cl1 O4 1-)'
_chemical_name_systematic        
'(\m-decane-1,10-dioato)-(\m-1,6,10,15,20,24,33,37-octa-aza-4,12,18,26,31,39(1,4)-hexabenzena-3,17,30(2,5),13,27,40(5,2)-hexapyridinabicyclo[13.13.13]hentetracontacyclophane-5,10,19,24,32,37-hexaene)-di-copper diperchlorate acetonitrile solvate'
_symmetry_cell_setting           triclinic
_symmetry_space_group_name_H-M   'P -1'
_symmetry_Int_Tables_number      2
_space_group_name_Hall           '-P 1'
loop_
_symmetry_equiv_pos_site_id
_symmetry_equiv_pos_as_xyz
1 x,y,z
2 -x,-y,-z
_cell_length_a                   13.2041(5)
_cell_length_b                   20.1922(7)
_cell_length_c                   21.3280(9)
_cell_angle_alpha                73.468(4)
_cell_angle_beta                 74.480(4)
_cell_angle_gamma                78.017(3)
_cell_volume                     5199.14
_exptl_crystal_colour            colorless
_cell_formula_units_Z            2
loop_
_atom_site_label
_atom_site_type_symbol
_atom_site_fract_x
_atom_site_fract_y
_atom_site_fract_z
Cu1 Cu 0.21904(5) 0.56938(3) 1.18722(3)
Cu2 Cu 0.10247(5) 1.17579(3) 0.56422(3)
O1 O 0.1091(2) 1.10857(15) 0.64729(15)
O2 O 0.2048(3) 0.64539(15) 1.11150(16)
O3 O -0.0421(3) 1.06711(17) 0.66191(17)
N1 N 0.3686(3) 0.56899(19) 1.19585(19)
N2 N 0.1084(3) 1.24944(18) 0.47398(18)
N3 N 0.2155(3) 0.49436(18) 1.27598(18)
N4 N -0.0246(3) 1.24205(17) 0.59542(18)
N5 N 0.2558(3) 1.19440(19) 0.55017(19)
O4 O 0.3361(3) 0.59921(18) 1.04043(18)
N6 N 0.1736(3) 0.49227(18) 1.16023(19)
N7 N 0.1107(3) 1.11128(18) 0.50450(19)
N8 N 0.0931(3) 0.61931(18) 1.24796(18)
N9 N 0.1730(3) 0.4911(2) 0.7598(2)
N10 N -0.4249(3) 1.1554(2) 0.9819(2)
N11 N 0.2229(3) 0.6589(2) 0.5734(2)
N12 N 0.6979(3) 0.9601(2) 0.7880(2)
C1 C 0.1681(4) 0.4932(2) 1.0980(2)
C2 C 0.1673(4) 0.5302(2) 1.3319(2)
H1 H 0.2216 0.5496 1.3410
H2 H 0.1392 0.4966 1.3722
C3 C 0.1050(4) 1.1064(3) 0.3955(2)
H3 H 0.0917 1.1289 0.3533
C4 C 0.0206(3) 0.6729(2) 1.2276(2)
H4 H 0.0302 0.6944 1.1820
C5 C 0.4364(4) 0.6133(2) 1.1584(2)
H5 H 0.4139 0.6493 1.1245
C6 C 0.1367(4) 0.4437(2) 1.0121(2)
C7 C -0.0933(4) 1.2277(2) 0.6548(2)
H6 H -0.0758 1.1881 0.6872
C8 C 0.1528(4) 1.0005(2) 0.4756(2)
C9 C 0.1869(3) 0.9244(2) 0.4994(2)
C10 C 0.5382(4) 0.6088(2) 1.1670(2)
C11 C 0.1343(4) 1.0343(3) 0.4126(2)
H7 H 0.1417 1.0087 0.3813
N13 N 0.8469(3) 0.7847(2) 0.9104(2)
C12 C -0.2547(4) 0.7545(3) 1.2707(3)
H8 H -0.2783 0.7191 1.3074
N14 N -0.3473(4) 0.9567(3) 1.1008(3)
C13 C -0.3695(4) 1.2538(2) 0.7449(3)
H9 H -0.4004 1.2737 0.7082
C14 C 0.6147(4) 0.6688(2) 1.0495(2)
H10 H 0.5691 0.6494 1.0355
C15 C 0.2925(4) 1.2358(2) 0.4911(2)
C16 C 0.0959(4) 1.1437(2) 0.4425(2)
C17 C -0.0461(4) 1.3000(2) 0.5490(2)
C18 C 0.7523(4) 0.7406(2) 1.0224(3)
C19 C 0.4837(4) 1.0668(3) 0.6602(3)
H11 H 0.4283 1.0468 0.6573
C20 C 0.1158(4) 0.4582(2) 0.8120(2)
C21 C 0.3272(4) 0.4629(2) 1.2781(3)
H12 H 0.3479 0.4255 1.2550
H13 H 0.3328 0.4430 1.3243
C22 C 0.6114(3) 0.6553(2) 1.1183(3)
C23 C 0.1222(4) 0.4560(2) 0.8800(2)
C24 C 0.2386(4) 0.7807(2) 0.5511(3)
C25 C 0.1535(4) 0.4355(2) 1.2099(2)
C26 C 0.1320(4) 0.3769(2) 1.1971(3)
H14 H 0.1203 0.3372 1.2317
C27 C 0.0796(4) 0.5877(2) 1.3135(2)
C28 C 0.0414(4) 1.0660(2) 0.6780(3)
C29 C 0.1381(4) 1.0421(2) 0.5208(2)
H15 H 0.1479 1.0206 0.5639
C30 C -0.2604(4) 1.2494(2) 0.7371(2)
C31 C 0.0427(4) 1.3145(2) 0.4878(2)
H16 H 0.0130 1.3400 0.4493
H17 H 0.0871 1.3435 0.4945
C32 C 0.0629(4) 1.2215(2) 0.4309(2)
H18 H 0.0881 1.2438 0.3840
H19 H -0.0140 1.2319 0.4418
C33 C -0.3272(4) 0.8068(3) 1.2416(3)
H20 H -0.3994 0.8059 1.2597
C34 C 0.7479(4) 0.7285(3) 1.0908(3)
H21 H 0.7911 0.7499 1.1048
C35 C 0.4002(4) 0.5167(2) 1.2456(3)
C36 C -0.1464(3) 0.7559(2) 1.2441(2)
C37 C 0.1914(4) 0.4919(2) 0.8928(2)
H22 H 0.2332 0.5201 0.8572
C38 C 0.6803(4) 0.6852(2) 1.1381(3)
H23 H 0.6808 0.6761 1.1833
C39 C 0.4984(4) 1.1339(2) 0.6221(2)
C40 C -0.3890(4) 1.1993(2) 0.8630(2)
C41 C -0.2143(4) 1.3277(2) 0.6203(2)
H24 H -0.2793 1.3560 0.6277
C42 C 0.4273(4) 1.1732(2) 0.5762(2)
C43 C -0.0681(3) 0.6977(2) 1.2713(2)
C44 C -0.0077(4) 0.6080(2) 1.3601(2)
H25 H -0.0168 0.5845 1.4051
C45 C 0.1445(4) 0.4375(2) 1.0812(2)
C46 C 0.6845(4) 0.7102(2) 1.0023(3)
H26 H 0.6863 0.7179 0.9569
C47 C 0.1430(4) 0.5569(2) 0.6474(3)
H27 H 0.1117 0.5526 0.6127
H28 H 0.0933 0.5886 0.6717
C48 C -0.0814(4) 0.6638(2) 1.3387(2)
H29 H -0.1399 0.6786 1.3696
C49 C 0.1644(4) 0.8762(2) 0.4707(2)
H30 H 0.1312 0.8914 0.4348
C50 C 0.5664(4) 0.5580(3) 1.2216(3)
H31 H 0.6319 0.5552 1.2314
C51 C -0.2806(4) 1.1969(2) 0.8564(2)
H32 H -0.2510 1.1794 0.8939
C52 C -0.1863(4) 0.8619(2) 1.1615(3)
H33 H -0.1630 0.8981 1.1256
C53 C 0.8270(4) 0.7849(3) 0.9716(3)
C54 C 0.3200(4) 1.1641(2) 0.5928(2)
H34 H 0.2926 1.1362 0.6345
C55 C 0.1511(4) 0.4421(2) 1.2781(2)
H35 H 0.0783 0.4552 1.3003
H36 H 0.1775 0.3972 1.3044
C56 C 0.1592(4) 0.4855(2) 0.6956(2)
H37 H 0.0983 0.4620 0.7036
H38 H 0.2214 0.4574 0.6752
C57 C -0.1418(4) 1.3437(2) 0.5596(3)
H39 H -0.1572 1.3831 0.5264
C58 C -0.2955(4) 0.8594(3) 1.1871(3)
C59 C 0.2446(4) 0.5878(2) 0.6148(3)
H40 H 0.2792 0.5891 0.6491
H41 H 0.2923 0.5586 0.5869
C60 C 0.2658(4) 0.6471(2) 1.0540(2)
C61 C 0.1281(4) 0.3777(2) 1.1332(3)
H42 H 0.1144 0.3382 1.1245
C62 C 0.0666(4) 0.4082(2) 0.9995(3)
H43 H 0.0239 0.3805 1.0349
C63 C -0.1901(4) 1.2698(2) 0.6700(2)
C64 C -0.2175(4) 1.2205(2) 0.7943(3)
H44 H -0.1448 1.2173 0.7900
C65 C 0.4980(4) 0.5122(3) 1.2609(3)
H45 H 0.5166 0.4784 1.2974
C66 C 0.3950(4) 1.2515(3) 0.4734(3)
H46 H 0.4179 1.2834 0.4334
C67 C 0.2208(4) 1.2585(2) 0.4419(2)
H47 H 0.2243 1.3073 0.4193
H48 H 0.2467 1.2317 0.4081
C68 C 0.1984(4) 0.4860(2) 0.9575(2)
H49 H 0.2447 0.5104 0.9650
C69 C 0.4625(4) 1.2193(3) 0.5157(3)
H50 H 0.5322 1.2284 0.5036
C70 C 0.2407(4) 0.8998(3) 0.5512(3)
H51 H 0.2605 0.9315 0.5683
C71 C 0.5499(4) 1.0293(3) 0.7024(3)
H52 H 0.5392 0.9843 0.7271
C72 C 0.2576(4) 0.7064(3) 0.5850(3)
C73 C 0.0610(4) 0.4144(2) 0.9344(3)
H53 H 0.0149 0.3900 0.9266
C74 C -0.4583(4) 1.1748(3) 0.9288(3)
C75 C -0.4319(4) 1.2284(2) 0.8074(3)
H54 H -0.5045 1.2309 0.8119
C76 C 0.1922(4) 0.8054(2) 0.4968(3)
H55 H 0.1790 0.7736 0.4769
C77 C 0.6477(4) 1.1251(3) 0.6696(3)
H56 H 0.7034 1.1451 0.6721
C78 C -0.1134(4) 0.8101(2) 1.1900(3)
H57 H -0.0412 0.8117 1.1725
C79 C 0.6332(4) 1.0586(3) 0.7082(2)
C80 C 0.2656(4) 0.8288(2) 0.5778(3)
H58 H 0.3000 0.8132 0.6132
C81 C 0.5815(4) 1.1626(3) 0.6273(3)
H59 H 0.5929 1.2074 0.6022
C82 C 0.8583(4) 0.8759(3) 0.8073(3)
H60 H 0.8270 0.8458 0.7918
H61 H 0.9086 0.8991 0.7694
C83 C 0.2495(6) 0.7132(3) 1.0003(3)
H62 H 0.1782 0.7368 1.0134
H63 H 0.2986 0.7436 0.9987
C84 C 0.9163(4) 0.8319(3) 0.8609(3)
H64 H 0.9805 0.8052 0.8407
H65 H 0.9364 0.8618 0.8826
C85 C -0.4318(4) 1.0046(3) 1.0721(3)
H66 H -0.4970 0.9840 1.0881
H67 H -0.4126 1.0131 1.0236
C86 C -0.3740(4) 0.9106(3) 1.1531(3)
C87 C -0.5007(5) 1.1346(3) 1.0452(3)
H68 H -0.5618 1.1219 1.0368
H69 H -0.5251 1.1736 1.0663
C88 C 0.7028(4) 1.0217(3) 0.7542(3)
C89 C 0.0728(6) 1.0120(4) 0.7366(4)
H70 H 0.0407 1.0297 0.7763
H71 H 0.0411 0.9709 0.7420
C90 C 0.7717(4) 0.9301(3) 0.8331(3)
H72 H 0.7324 0.9088 0.8772
H73 H 0.8038 0.9671 0.8375
C91 C -0.4488(5) 1.0726(3) 1.0924(3)
H74 H -0.3807 1.0826 1.0936
H75 H -0.4931 1.0673 1.1373
C92 C 0.1853(7) 0.9895(5) 0.7359(4)
H76 H 0.2203 1.0296 0.7286
H77 H 0.2184 0.9666 0.6996
C93 C 0.2639(14) 0.7037(6) 0.9320(6)
H78 H 0.2281 0.6650 0.9355
H79 H 0.3391 0.6903 0.9149
C94 C 0.2251(12) 0.7647(6) 0.8816(6)
H80 H 0.2336 0.7509 0.8403
H81 H 0.1499 0.7786 0.8980
C95 C 0.2664(16) 0.8759(10) 0.8000(9)
H82 H 0.3361 0.8879 0.7756
H83 H 0.2424 0.8528 0.7736
C96 C 0.2788(14) 0.8222(9) 0.8678(8)
H84 H 0.3537 0.8056 0.8661
H85 H 0.2518 0.8456 0.9041
H86 H -0.533(4) 1.173(2) 0.933(2)
H87 H 0.858(5) 0.810(3) 0.992(3)
H88 H 0.179(4) 0.532(2) 1.067(2)
H89 H 0.064(4) 0.433(3) 0.805(3)
C97 C 0.1970(16) 0.9382(9) 0.8041(8)
H90 H 0.2217 0.9621 0.8295
H91 H 0.1274 0.9266 0.8290
H92 H 0.291(3) 0.694(2) 0.620(2)
H93 H 0.755(4) 1.046(3) 0.755(3)
H94 H -0.448(6) 0.906(3) 1.173(3)
Cl1 Cl 0.75770(9) 0.54534(5) 0.50829(5)
O5 O 0.6907(3) 0.4939(2) 0.5442(2)
O6 O 0.8661(3) 0.5126(2) 0.5002(2)
O7 O 0.7334(3) 0.5795(3) 0.4456(2)
O8 O 0.7446(5) 0.5939(2) 0.5465(2)
Cl2 Cl 0.45739(13) 0.68869(8) 0.71457(8)
O9 O 0.4588(4) 0.6547(2) 0.6638(2)
O10 O 0.3870(5) 0.7504(3) 0.7090(3)
O11 O 0.5655(5) 0.7005(3) 0.7041(4)
O12 O 0.4310(6) 0.6431(4) 0.7775(3)
N15 N 0.5563(5) 0.6507(4) 0.3433(4)
C103 C 0.4778(5) 0.6056(4) 0.4691(4)
H109 H 0.4396 0.5678 0.4755
H110 H 0.4305 0.6427 0.4861
H111 H 0.5343 0.5896 0.4927
C104 C 0.5218(5) 0.6309(3) 0.3985(4)
N16 N 0.7563(5) 0.7678(4) 0.7110(3)
C105 C 0.5842(7) 0.8025(4) 0.7908(4)
H112 H 0.5239 0.8049 0.7727
H113 H 0.5863 0.8474 0.7970
H114 H 0.5784 0.7687 0.8333
C106 C 0.6791(6) 0.7822(3) 0.7456(3)
N17 N 0.0382(5) 0.7597(3) 0.7102(3)
C107 C 0.0892(5) 0.7185(3) 0.7412(3)
C108 C 0.1535(6) 0.6656(4) 0.7807(4)
H115 H 0.2229 0.6786 0.7715
H116 H 0.1594 0.6219 0.7696
H117 H 0.1210 0.6610 0.8275
C109 C 0.4913(5) 0.5433(3) 0.9124(3)
H118 H 0.4555 0.5549 0.8762
H119 H 0.4399 0.5391 0.9543
H120 H 0.5375 0.4998 0.9122
N18 N 0.6009(6) 0.6395(4) 0.8989(4)
C110 C 0.5518(5) 0.5965(4) 0.9045(3)
H95? H 0.3013 0.7419 0.9982
H96? H 0.2678 0.7000 0.9579
H97? H 0.2058 1.0199 0.7568
H98? H 0.2224 1.0002 0.6891
C98? C 0.1849(13) 0.9045(9) 0.8387(9)
H99? H 0.1087 0.9170 0.8433
H100? H 0.2086 0.9380 0.8544
C99? C 0.1604(17) 0.7518(11) 1.0033(10)
H101? H 0.1305 0.7531 1.0497
H102? H 0.1137 0.7298 0.9898
C100? C 0.1591(18) 0.8314(11) 0.9585(11)
H103? H 0.0866 0.8552 0.9640
H104? H 0.2000 0.8558 0.9740
C101? C 0.2045(17) 0.8331(8) 0.8865(9)
H105? H 0.1744 0.7998 0.8744
H106? H 0.2805 0.8182 0.8803
C102? C 0.2329(19) 0.9140(9) 0.7674(9)
H107? H 0.2142 0.8803 0.7494
H108? H 0.3097 0.9093 0.7593
loop_
_geom_bond_atom_site_label_1
_geom_bond_atom_site_label_2
_geom_bond_site_symmetry_1
_geom_bond_site_symmetry_2
Cu1 O2 1_555 1_555
Cu2 O1 1_555 1_555
O1 C28 1_555 1_555
O2 C60 1_555 1_555
O3 C28 1_555 1_555
N1 Cu1 1_555 1_555
N2 Cu2 1_555 1_555
N3 Cu1 1_555 1_555
N4 Cu2 1_555 1_555
N5 Cu2 1_555 1_555
O4 C60 1_555 1_555
N6 Cu1 1_555 1_555
N7 Cu2 1_555 1_555
N8 Cu1 1_555 1_555
N9 C20 1_555 1_555
N10 C74 1_555 1_555
N11 C59 1_555 1_555
N12 C88 1_555 1_555
C1 N6 1_555 1_555
C2 N3 1_555 1_555
H1 C2 1_555 1_555
H2 C2 1_555 1_555
C3 H3 1_555 1_555
C4 N8 1_555 1_555
H4 C4 1_555 1_555
C5 N1 1_555 1_555
H5 C5 1_555 1_555
C6 C45 1_555 1_555
C7 N4 1_555 1_555
H6 C7 1_555 1_555
C8 C9 1_555 1_555
C9 C49 1_555 1_555
C10 C5 1_555 1_555
C11 C3 1_555 1_555
H7 C11 1_555 1_555
N13 C53 1_555 1_555
C12 H8 1_555 1_555
N14 C85 1_555 1_555
C13 H9 1_555 1_555
C14 H10 1_555 1_555
C15 N5 1_555 1_555
C16 N7 1_555 1_555
C17 N4 1_555 1_555
C18 C34 1_555 1_555
C19 H11 1_555 1_555
C20 C23 1_555 1_555
C21 N3 1_555 1_555
H12 C21 1_555 1_555
H13 C21 1_555 1_555
C22 C10 1_555 1_555
C23 C37 1_555 1_555
C24 C72 1_555 1_555
C25 N6 1_555 1_555
C26 C25 1_555 1_555
H14 C26 1_555 1_555
C27 N8 1_555 1_555
C28 C89 1_555 1_555
C29 N7 1_555 1_555
H15 C29 1_555 1_555
C30 C13 1_555 1_555
C31 N2 1_555 1_555
H16 C31 1_555 1_555
H17 C31 1_555 1_555
C32 N2 1_555 1_555
H18 C32 1_555 1_555
H19 C32 1_555 1_555
C33 C12 1_555 1_555
H20 C33 1_555 1_555
C34 H21 1_555 1_555
C35 N1 1_555 1_555
C36 C12 1_555 1_555
C37 H22 1_555 1_555
C38 C22 1_555 1_555
H23 C38 1_555 1_555
C39 C19 1_555 1_555
C40 C51 1_555 1_555
C41 H24 1_555 1_555
C42 C39 1_555 1_555
C43 C4 1_555 1_555
C44 C27 1_555 1_555
H25 C44 1_555 1_555
C45 C1 1_555 1_555
C46 C14 1_555 1_555
H26 C46 1_555 1_555
C47 H27 1_555 1_555
H28 C47 1_555 1_555
C48 C43 1_555 1_555
H29 C48 1_555 1_555
C49 H30 1_555 1_555
C50 C10 1_555 1_555
H31 C50 1_555 1_555
C51 H32 1_555 1_555
C52 H33 1_555 1_555
C53 C18 1_555 1_555
C54 N5 1_555 1_555
H34 C54 1_555 1_555
C55 N3 1_555 1_555
H35 C55 1_555 1_555
H36 C55 1_555 1_555
C56 N9 1_555 1_555
H37 C56 1_555 1_555
H38 C56 1_555 1_555
C57 C17 1_555 1_555
H39 C57 1_555 1_555
C58 C33 1_555 1_555
C59 C47 1_555 1_555
H40 C59 1_555 1_555
H41 C59 1_555 1_555
C60 C83 1_555 1_555
C61 C26 1_555 1_555
H42 C61 1_555 1_555
C62 C6 1_555 1_555
H43 C62 1_555 1_555
C63 C7 1_555 1_555
C64 C30 1_555 1_555
H44 C64 1_555 1_555
C65 C35 1_555 1_555
H45 C65 1_555 1_555
C66 C15 1_555 1_555
H46 C66 1_555 1_555
C67 N2 1_555 1_555
H47 C67 1_555 1_555
H48 C67 1_555 1_555
C68 C6 1_555 1_555
H49 C68 1_555 1_555
C69 C42 1_555 1_555
H50 C69 1_555 1_555
C70 C9 1_555 1_555
H51 C70 1_555 1_555
C71 C19 1_555 1_555
H52 C71 1_555 1_555
C72 N11 1_555 1_555
C73 C23 1_555 1_555
H53 C73 1_555 1_555
C74 C40 1_555 1_555
C75 C13 1_555 1_555
H54 C75 1_555 1_555
C76 C24 1_555 1_555
H55 C76 1_555 1_555
C77 H56 1_555 1_555
C78 C36 1_555 1_555
H57 C78 1_555 1_555
C79 C71 1_555 1_555
C80 C24 1_555 1_555
H58 C80 1_555 1_555
C81 C39 1_555 1_555
H59 C81 1_555 1_555
C82 H60 1_555 1_555
H61 C82 1_555 1_555
C83 H62 1_555 1_555
H63 C83 1_555 1_555
C84 N13 1_555 1_555
H64 C84 1_555 1_555
H65 C84 1_555 1_555
C85 H66 1_555 1_555
H67 C85 1_555 1_555
C86 N14 1_555 1_555
C87 N10 1_555 1_555
H68 C87 1_555 1_555
H69 C87 1_555 1_555
C88 C79 1_555 1_555
C89 H70 1_555 1_555
H71 C89 1_555 1_555
C90 N12 1_555 1_555
H72 C90 1_555 1_555
H73 C90 1_555 1_555
C91 C85 1_555 1_555
H74 C91 1_555 1_555
H75 C91 1_555 1_555
C92 C89 1_555 1_555
H76 C92 1_555 1_555
H77 C92 1_555 1_555
C93 C83 1_555 1_555
H78 C93 1_555 1_555
H79 C93 1_555 1_555
C94 C93 1_555 1_555
H80 C94 1_555 1_555
H81 C94 1_555 1_555
C95 H82 1_555 1_555
H83 C95 1_555 1_555
C96 C94 1_555 1_555
H84 C96 1_555 1_555
H85 C96 1_555 1_555
H86 C74 1_555 1_555
H87 C53 1_555 1_555
H88 C1 1_555 1_555
H89 C20 1_555 1_555
C97 C92 1_555 1_555
H90 C97 1_555 1_555
H91 C97 1_555 1_555
H92 C72 1_555 1_555
H93 C88 1_555 1_555
H94 C86 1_555 1_555
Cl1 O5 1_555 1_555
O6 Cl1 1_555 1_555
O7 Cl1 1_555 1_555
O8 Cl1 1_555 1_555
Cl2 O9 1_555 1_555
O10 Cl2 1_555 1_555
O11 Cl2 1_555 1_555
O12 Cl2 1_555 1_555
N15 C104 1_555 1_555
C103 H109 1_555 1_555
H110 C103 1_555 1_555
H111 C103 1_555 1_555
C104 C103 1_555 1_555
N16 C106 1_555 1_555
C105 H112 1_555 1_555
H113 C105 1_555 1_555
H114 C105 1_555 1_555
C106 C105 1_555 1_555
N17 C107 1_555 1_555
C107 C108 1_555 1_555
C108 H115 1_555 1_555
H116 C108 1_555 1_555
H117 C108 1_555 1_555
C109 H118 1_555 1_555
H119 C109 1_555 1_555
H120 C109 1_555 1_555
N18 C110 1_555 1_555
C110 C109 1_555 1_555
C2 C27 1_555 1_555
C3 C16 1_555 1_555
C8 C11 1_555 1_555
C8 C29 1_555 1_555
C14 C22 1_555 1_555
C15 C67 1_555 1_555
C16 C32 1_555 1_555
C17 C31 1_555 1_555
C18 C46 1_555 1_555
C21 C35 1_555 1_555
C25 C55 1_555 1_555
C30 C63 1_555 1_555
C34 C38 1_555 1_555
C36 C43 1_555 1_555
C37 C68 1_555 1_555
C40 C75 1_555 1_555
C41 C57 1_555 1_555
C41 C63 1_555 1_555
C42 C54 1_555 1_555
C44 C48 1_555 1_555
C45 C61 1_555 1_555
C47 C56 1_555 1_555
C49 C76 1_555 1_555
C50 C65 1_555 1_555
C51 C64 1_555 1_555
C52 C58 1_555 1_555
C52 C78 1_555 1_555
C58 C86 1_555 1_555
C62 C73 1_555 1_555
C66 C69 1_555 1_555
C70 C80 1_555 1_555
C77 C79 1_555 1_555
C77 C81 1_555 1_555
C82 C84 1_555 1_555
C82 C90 1_555 1_555
C87 C91 1_555 1_555
C95 C96 1_555 1_555
C95 C97 1_555 1_555

#END
