
#######################################################################
#
#                 Cambridge Crystallographic Data Centre
#                                CCDC 
#
#######################################################################
#
# If this CIF has been generated from an entry in the Cambridge 
# Structural Database, then it will include bibliographic, chemical, 
# crystal, experimental, refinement or atomic coordinate data resulting 
# from the CCDC's data processing and validation procedures.
#
#######################################################################

data_XILMUC
_chemical_formula_moiety         'C180 H135 N27 O9 Zn3 6+,6(C2 F6 N1 O4 S2 1-)'
_chemical_name_systematic        
"tris(\m~3~-N,N',N''-(1,3,5-Triazine-2,4,6-triyltris(3,1-phenylenepyridine-5,2-diylmethylylidene))tris(4-methoxyaniline))-tri-zinc(ii) hexakis(bis(trifluoromethanesulfonyl)amide) unknown solvate"
_symmetry_cell_setting           rhombohedral
_symmetry_space_group_name_H-M   'R -3'
_symmetry_Int_Tables_number      148
_space_group_name_Hall           '-R 3'
loop_
_symmetry_equiv_pos_site_id
_symmetry_equiv_pos_as_xyz
1 x,y,z
2 -y,x-y,z
3 -x+y,-x,z
4 2/3+x,1/3+y,1/3+z
5 2/3-y,1/3+x-y,1/3+z
6 2/3-x+y,1/3-x,1/3+z
7 1/3+x,2/3+y,2/3+z
8 1/3-y,2/3+x-y,2/3+z
9 1/3-x+y,2/3-x,2/3+z
10 -x,-y,-z
11 y,-x+y,-z
12 x-y,x,-z
13 1/3-x,2/3-y,2/3-z
14 1/3+y,2/3-x+y,2/3-z
15 1/3+x-y,2/3+x,2/3-z
16 2/3-x,1/3-y,1/3-z
17 2/3+y,1/3-x+y,1/3-z
18 2/3+x-y,1/3+x,1/3-z
_cell_length_a                   33.3040(12)
_cell_length_b                   33.3040(12)
_cell_length_c                   32.3250(13)
_cell_angle_alpha                90
_cell_angle_beta                 90
_cell_angle_gamma                120
_cell_volume                     31050
_exptl_crystal_colour            colorless
_exptl_crystal_description       cube
_cell_formula_units_Z            6
loop_
_atom_site_label
_atom_site_type_symbol
_atom_site_fract_x
_atom_site_fract_y
_atom_site_fract_z
Zn1 Zn 0.53479(11) 0.03897(7) 0.63206(7)
N1 N 0.6403(4) 0.2866(4) 0.6798(3)
N2 N 0.5517(6) 0.0223(5) 0.5707(5)
N3 N 0.6541(4) 0.2873(3) 0.5685(3)
N4 N 0.6231(4) 0.3266(5) 0.7825(4)
C1 C 0.5195(4) -0.0211(3) 0.5508(4)
C2 C 0.4727(5) -0.0385(4) 0.5482(4)
H1 H 0.4592 -0.0223 0.5606
C3 C 0.4449(3) -0.0797(4) 0.5275(3)
H2 H 0.4125 -0.0915 0.5255
C4 C 0.4646(3) -0.1036(3) 0.5097(2)
C5 C 0.5122(3) -0.0861(4) 0.5119(4)
H3 H 0.5259 -0.1023 0.4995
C6 C 0.5393(3) -0.0447(4) 0.5327(4)
H4 H 0.5719 -0.0324 0.5345
O1 O 0.4402(4) -0.1452(3) 0.4896(4)
C7 C 0.4029(7) -0.1550(7) 0.4804(7)
H5 H 0.3875 -0.1856 0.4672
H6 H 0.4038 -0.1319 0.4610
H7 H 0.3855 -0.1558 0.5052
C8 C 0.5940(7) 0.0429(6) 0.5623(6)
H8 H 0.6056 0.0303 0.5424
N5 N 0.6055(3) 0.0978(3) 0.6142(3)
C9 C 0.6243(4) 0.0847(3) 0.5823(3)
C10 C 0.6710(4) 0.1119(4) 0.5724(3)
H9 H 0.6839 0.1029 0.5505
C11 C 0.6988(3) 0.1523(4) 0.5945(3)
H10 H 0.7308 0.1709 0.5877
C12 C 0.6800(3) 0.1654(3) 0.6265(3)
C13 C 0.6333(4) 0.1382(4) 0.6363(3)
H11 H 0.6204 0.1472 0.6582
C14 C 0.7056(3) 0.2097(3) 0.6470(3)
C15 C 0.6844(2) 0.2358(3) 0.6544(3)
H12 H 0.6528 0.2238 0.6473
C16 C 0.7094(3) 0.2795(3) 0.6723(3)
C17 C 0.7557(3) 0.2970(3) 0.6828(3)
H13 H 0.7728 0.3269 0.6950
C18 C 0.7770(2) 0.2709(3) 0.6754(3)
H14 H 0.8086 0.2829 0.6825
C19 C 0.7519(3) 0.2272(3) 0.6575(3)
H15 H 0.7665 0.2094 0.6524
C20 C 0.6865(5) 0.3098(5) 0.6778(4)
C21 C 0.3438(10) -0.2340(10) 0.6533(9)
H16 H 0.3287 -0.2649 0.6659
H17 H 0.3678 -0.2311 0.6340
H18 H 0.3207 -0.2295 0.6384
C22 C 0.4343(3) -0.0602(3) 0.6546(2)
C23 C 0.3923(3) -0.0886(2) 0.6364(3)
H19 H 0.3797 -0.0760 0.6175
C24 C 0.3681(3) -0.1354(2) 0.6455(3)
H20 H 0.3391 -0.1550 0.6326
C25 C 0.3864(4) -0.1536(3) 0.6734(3)
C26 C 0.4292(4) -0.1252(3) 0.6918(3)
H21 H 0.4420 -0.1376 0.7107
C27 C 0.4528(3) -0.0783(3) 0.6821(3)
H22 H 0.4821 -0.0585 0.6945
O2 O 0.3648(4) -0.1991(3) 0.6854(4)
N6 N 0.4958(3) 0.0751(3) 0.6158(3)
C28 C 0.5151(3) 0.1188(3) 0.6006(3)
H23 H 0.5468 0.1343 0.5926
C29 C 0.4901(3) 0.1415(3) 0.5964(3)
C30 C 0.4436(3) 0.1190(3) 0.6070(3)
H24 H 0.4260 0.1341 0.6041
C31 C 0.4231(3) 0.0741(3) 0.6218(3)
H25 H 0.3911 0.0576 0.6287
C32 C 0.4501(3) 0.0537(2) 0.6265(2)
C33 C 0.4302(2) 0.0066(2) 0.6447(2)
H26 H 0.3988 -0.0115 0.6534
C34 C 0.5119(4) 0.1869(3) 0.5771(3)
C35 C 0.5582(3) 0.2210(4) 0.5815(3)
H27 H 0.5788 0.2145 0.5966
C36 C 0.5742(3) 0.2645(3) 0.5640(3)
C37 C 0.5440(4) 0.2740(3) 0.5420(3)
H28 H 0.5550 0.3037 0.5300
C38 C 0.4978(3) 0.2399(4) 0.5375(3)
H29 H 0.4772 0.2464 0.5225
C39 C 0.4818(3) 0.1964(3) 0.5550(3)
H30 H 0.4502 0.1731 0.5520
C40 C 0.6240(5) 0.3024(5) 0.5674(4)
C41 C 0.6944(7) -0.0605(9) 0.5785(10)
H31 H 0.7088 -0.0761 0.5643
H32 H 0.7071 -0.0518 0.6065
H33 H 0.7008 -0.0326 0.5630
C42 C 0.5831(3) -0.0272(3) 0.6416(2)
C43 C 0.5553(3) -0.0706(3) 0.6258(3)
H34 H 0.5226 -0.0853 0.6293
C44 C 0.5743(4) -0.0933(3) 0.6048(3)
H35 H 0.5548 -0.1233 0.5936
C45 C 0.6219(4) -0.0720(4) 0.6000(3)
C46 C 0.6507(4) -0.0277(4) 0.6156(3)
H36 H 0.6833 -0.0128 0.6121
C47 C 0.6307(3) -0.0057(3) 0.6365(3)
H37 H 0.6499 0.0245 0.6474
O3 O 0.6445(5) -0.0918(4) 0.5808(4)
N7 N 0.5486(3) 0.0686(3) 0.6941(3)
C48 C 0.5414(3) 0.1014(3) 0.7117(3)
H38 H 0.5184 0.1071 0.7003
C49 C 0.5665(3) 0.1269(3) 0.7457(3)
C50 C 0.5994(3) 0.1183(3) 0.7632(3)
H39 H 0.6167 0.1354 0.7866
C51 C 0.6066(3) 0.0843(3) 0.7461(2)
H40 H 0.6284 0.0772 0.7579
C52 C 0.5814(2) 0.0609(2) 0.7116(2)
C53 C 0.5901(2) 0.0262(2) 0.6907(2)
H41 H 0.6121 0.0190 0.7018
N8 N 0.5680(2) 0.0062(3) 0.6582(2)
C54 C 0.5595(4) 0.1638(4) 0.7626(4)
C55 C 0.5969(3) 0.2084(4) 0.7677(4)
H42 H 0.6275 0.2145 0.7622
C56 C 0.5896(3) 0.2440(3) 0.7808(4)
C57 C 0.5449(4) 0.2350(4) 0.7888(4)
H43 H 0.5399 0.2593 0.7978
C58 C 0.5074(3) 0.1904(4) 0.7838(4)
H44 H 0.4769 0.1843 0.7893
C59 C 0.5148(4) 0.1549(3) 0.7707(4)
H45 H 0.4892 0.1244 0.7672
C60 C 0.6289(6) 0.2898(6) 0.7826(5)
N9 N 0.4593(5) -0.0070(6) 0.6476(4)
N1A N 0.7134(4) 0.3537(6) 0.6798(3)
N2A N 0.9777(5) 0.5294(8) 0.5707(5)
C1A C 1.0211(3) 0.5406(5) 0.5508(4)
C2A C 1.0385(4) 0.5112(6) 0.5482(4)
H1A H 1.0223 0.4815 0.5606
C3A C 1.0797(4) 0.5246(5) 0.5275(3)
H2A H 1.0915 0.5040 0.5255
C4A C 1.1036(3) 0.5682(4) 0.5097(2)
C5A C 1.0861(4) 0.5983(5) 0.5119(4)
H3A H 1.1023 0.6282 0.4995
C6A C 1.0447(4) 0.5840(5) 0.5327(4)
H4A H 1.0324 0.6043 0.5345
O1A O 1.1452(3) 0.5854(5) 0.4896(4)
C7A C 1.1550(7) 0.5579(10) 0.4804(7)
H5A H 1.1856 0.5731 0.4672
H6A H 1.1319 0.5357 0.4610
H7A H 1.1558 0.5413 0.5052
C8A C 0.9571(6) 0.5511(9) 0.5623(6)
H8A H 0.9697 0.5753 0.5424
N5A N 0.9022(3) 0.5077(4) 0.6142(3)
C9A C 0.9153(3) 0.5396(5) 0.5823(3)
C10A C 0.8881(4) 0.5591(6) 0.5724(3)
H9A H 0.8971 0.5810 0.5505
C11A C 0.8477(4) 0.5465(5) 0.5945(3)
H10A H 0.8291 0.5599 0.5877
C12A C 0.8346(3) 0.5146(4) 0.6265(3)
C13A C 0.8618(4) 0.4951(6) 0.6363(3)
H11A H 0.8528 0.4732 0.6582
C14A C 0.7903(3) 0.4959(4) 0.6470(3)
C15A C 0.7642(3) 0.4486(4) 0.6544(3)
H12A H 0.7762 0.4290 0.6473
C16A C 0.7205(3) 0.4299(4) 0.6723(3)
C17A C 0.7030(3) 0.4587(4) 0.6828(3)
H13A H 0.6731 0.4459 0.6950
C18A C 0.7291(3) 0.5061(4) 0.6754(3)
H14A H 0.7171 0.5257 0.6825
C19A C 0.7728(3) 0.5247(4) 0.6575(3)
H15A H 0.7906 0.5571 0.6524
C20A C 0.6902(5) 0.3767(7) 0.6778(4)
N1B N 0.6463(6) 0.3597(4) 0.6798(3)
N2B N 0.4706(8) 0.4483(6) 0.5707(5)
C1B C 0.4594(5) 0.4805(4) 0.5508(4)
C2B C 0.4888(6) 0.5273(5) 0.5482(4)
H1B H 0.5185 0.5408 0.5606
C3B C 0.4754(5) 0.5551(3) 0.5275(3)
H2B H 0.4960 0.5875 0.5255
C4B C 0.4318(4) 0.5354(3) 0.5097(2)
C5B C 0.4017(5) 0.4878(3) 0.5119(4)
H3B H 0.3718 0.4741 0.4995
C6B C 0.4160(5) 0.4607(3) 0.5327(4)
H4B H 0.3957 0.4281 0.5345
O1B O 0.4146(5) 0.5598(4) 0.4896(4)
C7B C 0.4421(10) 0.5971(7) 0.4804(7)
H5B H 0.4269 0.6125 0.4672
H6B H 0.4643 0.5962 0.4610
H7B H 0.4587 0.6145 0.5052
C8B C 0.4489(9) 0.4060(7) 0.5623(6)
H8B H 0.4247 0.3944 0.5424
N5B N 0.4923(4) 0.3945(3) 0.6142(3)
C9B C 0.4604(5) 0.3757(4) 0.5823(3)
C10B C 0.4409(6) 0.3290(4) 0.5724(3)
H9B H 0.4190 0.3161 0.5505
C11B C 0.4535(5) 0.3012(3) 0.5945(3)
H10B H 0.4401 0.2692 0.5877
C12B C 0.4854(4) 0.3200(3) 0.6265(3)
C13B C 0.5049(6) 0.3667(4) 0.6363(3)
H11B H 0.5268 0.3796 0.6582
C14B C 0.5041(4) 0.2944(3) 0.6470(3)
C15B C 0.5514(4) 0.3156(2) 0.6544(3)
H12B H 0.5710 0.3472 0.6473
C16B C 0.5701(4) 0.2906(3) 0.6723(3)
C17B C 0.5413(4) 0.2443(3) 0.6828(3)
H13B H 0.5541 0.2272 0.6950
C18B C 0.4939(4) 0.2230(2) 0.6754(3)
H14B H 0.4743 0.1914 0.6825
C19B C 0.4753(4) 0.2481(3) 0.6575(3)
H15B H 0.4429 0.2335 0.6524
C20B C 0.6233(7) 0.3135(5) 0.6778(4)
N3A N 0.7127(3) 0.3668(5) 0.5685(3)
C21A C 1.2340(10) 0.5778(14) 0.6533(9)
H16A H 1.2649 0.5936 0.6659
H17A H 1.2311 0.5989 0.6340
H18A H 1.2295 0.5502 0.6384
C22A C 1.0602(3) 0.4945(4) 0.6546(2)
C23A C 1.0886(2) 0.4809(4) 0.6364(3)
H19A H 1.0760 0.4557 0.6175
C24A C 1.1354(2) 0.5035(4) 0.6455(3)
H20A H 1.1550 0.4941 0.6326
C25A C 1.1536(3) 0.5400(5) 0.6734(3)
C26A C 1.1252(3) 0.5544(5) 0.6918(3)
H21A H 1.1376 0.5796 0.7107
C27A C 1.0783(3) 0.5311(4) 0.6821(3)
H22A H 1.0585 0.5406 0.6945
O2A O 1.1991(3) 0.5639(5) 0.6854(4)
N6A N 0.9249(3) 0.4207(4) 0.6158(3)
C28A C 0.8812(3) 0.3963(4) 0.6006(3)
H23A H 0.8657 0.4125 0.5926
C29A C 0.8585(3) 0.3486(4) 0.5964(3)
C30A C 0.8810(3) 0.3246(4) 0.6070(3)
H24A H 0.8659 0.2919 0.6041
C31A C 0.9259(3) 0.3490(4) 0.6218(3)
H25A H 0.9424 0.3335 0.6287
C32A C 0.9463(2) 0.3964(4) 0.6265(2)
C33A C 0.9934(2) 0.4236(3) 0.6447(2)
H26A H 1.0115 0.4103 0.6534
C34A C 0.8131(3) 0.3250(5) 0.5771(3)
C35A C 0.7790(4) 0.3372(5) 0.5815(3)
H27A H 0.7855 0.3643 0.5966
C36A C 0.7355(3) 0.3097(4) 0.5640(3)
C37A C 0.7260(3) 0.2700(5) 0.5420(3)
H28A H 0.6963 0.2513 0.5300
C38A C 0.7601(4) 0.2579(5) 0.5375(3)
H29A H 0.7536 0.2308 0.5225
C39A C 0.8036(3) 0.2854(4) 0.5550(3)
H30A H 0.8269 0.2771 0.5520
C40A C 0.6976(5) 0.3216(7) 0.5674(4)
N9A N 1.0070(6) 0.4663(8) 0.6476(4)
N3B N 0.6332(5) 0.3459(4) 0.5685(3)
C21B C 0.4222(14) 0.6562(10) 0.6533(9)
H16B H 0.4064 0.6713 0.6659
H17B H 0.4011 0.6322 0.6340
H18B H 0.4498 0.6793 0.6384
C22B C 0.5055(4) 0.5657(3) 0.6546(2)
C23B C 0.5191(4) 0.6077(3) 0.6364(3)
H19B H 0.5443 0.6203 0.6175
C24B C 0.4965(4) 0.6319(3) 0.6455(3)
H20B H 0.5059 0.6609 0.6326
C25B C 0.4600(5) 0.6136(4) 0.6734(3)
C26B C 0.4456(5) 0.5708(4) 0.6918(3)
H21B H 0.4204 0.5580 0.7107
C27B C 0.4689(4) 0.5472(3) 0.6821(3)
H22B H 0.4594 0.5179 0.6945
O2B O 0.4361(5) 0.6352(4) 0.6854(4)
N6B N 0.5793(4) 0.5042(3) 0.6158(3)
C28B C 0.6037(4) 0.4849(3) 0.6006(3)
H23B H 0.5875 0.4532 0.5926
C29B C 0.6514(4) 0.5099(3) 0.5964(3)
C30B C 0.6754(4) 0.5564(3) 0.6070(3)
H24B H 0.7081 0.5740 0.6041
C31B C 0.6510(4) 0.5769(3) 0.6218(3)
H25B H 0.6665 0.6089 0.6287
C32B C 0.6036(4) 0.5499(3) 0.6265(2)
C33B C 0.5764(3) 0.5698(2) 0.6447(2)
H26B H 0.5897 0.6012 0.6534
C34B C 0.6750(5) 0.4881(4) 0.5771(3)
C35B C 0.6628(5) 0.4418(3) 0.5815(3)
H27B H 0.6357 0.4212 0.5966
C36B C 0.6903(4) 0.4258(3) 0.5640(3)
C37B C 0.7300(5) 0.4560(4) 0.5420(3)
H28B H 0.7487 0.4450 0.5300
C38B C 0.7421(5) 0.5022(3) 0.5375(3)
H29B H 0.7692 0.5228 0.5225
C39B C 0.7146(4) 0.5182(3) 0.5550(3)
H30B H 0.7229 0.5498 0.5520
C40B C 0.6784(7) 0.3760(5) 0.5674(4)
N9B N 0.5337(8) 0.5407(5) 0.6476(4)
N4A N 0.6734(5) 0.2965(6) 0.7825(4)
C41A C 1.0605(9) 0.7549(11) 0.5785(10)
H31A H 1.0761 0.7849 0.5643
H32A H 1.0518 0.7589 0.6065
H33A H 1.0326 0.7334 0.5630
C42A C 1.0272(3) 0.6103(4) 0.6416(2)
C43A C 1.0706(3) 0.6259(4) 0.6258(3)
H34A H 1.0853 0.6079 0.6293
C44A C 1.0933(3) 0.6676(5) 0.6048(3)
H35A H 1.1233 0.6781 0.5936
C45A C 1.0720(4) 0.6939(6) 0.6000(3)
C46A C 1.0277(4) 0.6784(6) 0.6156(3)
H36A H 1.0128 0.6961 0.6121
C47A C 1.0057(3) 0.6364(4) 0.6365(3)
H37A H 0.9755 0.6254 0.6474
O3A O 1.0918(4) 0.7363(6) 0.5808(4)
N7A N 0.9314(3) 0.4800(4) 0.6941(3)
C48A C 0.8986(3) 0.4400(4) 0.7117(3)
H38A H 0.8929 0.4113 0.7003
C49A C 0.8731(3) 0.4396(4) 0.7457(3)
C50A C 0.8817(3) 0.4811(4) 0.7632(3)
H39A H 0.8646 0.4813 0.7866
C51A C 0.9157(3) 0.5223(4) 0.7461(2)
H40A H 0.9228 0.5512 0.7579
C52A C 0.9391(2) 0.5205(3) 0.7116(2)
C53A C 0.9738(2) 0.5639(3) 0.6907(2)
H41A H 0.9810 0.5931 0.7018
N8A N 0.9938(3) 0.5618(4) 0.6582(2)
C54A C 0.8362(4) 0.3957(6) 0.7626(4)
C55A C 0.7916(4) 0.3885(5) 0.7677(4)
H42A H 0.7855 0.4130 0.7622
C56A C 0.7560(3) 0.3456(4) 0.7808(4)
C57A C 0.7650(4) 0.3099(6) 0.7888(4)
H43A H 0.7407 0.2806 0.7978
C58A C 0.8096(4) 0.3170(5) 0.7838(4)
H44A H 0.8157 0.2926 0.7893
C59A C 0.8451(3) 0.3599(5) 0.7707(4)
H45A H 0.8756 0.3648 0.7672
C60A C 0.7102(6) 0.3391(8) 0.7826(5)
N4B N 0.7035(6) 0.3769(4) 0.7825(4)
C41B C 0.2451(11) 0.3056(7) 0.5785(10)
H31B H 0.2151 0.2912 0.5643
H32B H 0.2411 0.2929 0.6065
H33B H 0.2666 0.2992 0.5630
C42B C 0.3897(4) 0.4169(3) 0.6416(2)
C43B C 0.3741(4) 0.4447(3) 0.6258(3)
H34B H 0.3921 0.4774 0.6293
C44B C 0.3324(5) 0.4257(4) 0.6048(3)
H35B H 0.3219 0.4452 0.5936
C45B C 0.3061(6) 0.3781(4) 0.6000(3)
C46B C 0.3216(6) 0.3493(4) 0.6156(3)
H36B H 0.3039 0.3167 0.6121
C47B C 0.3636(4) 0.3693(3) 0.6365(3)
H37B H 0.3746 0.3501 0.6474
O3B O 0.2637(6) 0.3555(5) 0.5808(4)
N7B N 0.5200(4) 0.4514(3) 0.6941(3)
C48B C 0.5600(4) 0.4586(3) 0.7117(3)
H38B H 0.5887 0.4816 0.7003
C49B C 0.5604(4) 0.4335(3) 0.7457(3)
C50B C 0.5189(4) 0.4006(3) 0.7632(3)
H39B H 0.5187 0.3833 0.7866
C51B C 0.4777(4) 0.3934(3) 0.7461(2)
H40B H 0.4488 0.3716 0.7579
C52B C 0.4795(3) 0.4186(2) 0.7116(2)
C53B C 0.4361(3) 0.4099(2) 0.6907(2)
H41B H 0.4069 0.3879 0.7018
N8B N 0.4382(4) 0.4320(2) 0.6582(2)
C54B C 0.6043(6) 0.4405(4) 0.7626(4)
C55B C 0.6115(5) 0.4031(3) 0.7677(4)
H42B H 0.5870 0.3725 0.7622
C56B C 0.6544(4) 0.4104(3) 0.7808(4)
C57B C 0.6901(6) 0.4551(4) 0.7888(4)
H43B H 0.7194 0.4601 0.7978
C58B C 0.6830(5) 0.4926(3) 0.7838(4)
H44B H 0.7074 0.5231 0.7893
C59B C 0.6401(5) 0.4852(4) 0.7707(4)
H45B H 0.6352 0.5108 0.7672
C60B C 0.6609(8) 0.3711(6) 0.7826(5)
Zn1A Zn 0.96103(7) 0.49582(13) 0.63206(7)
Zn1B Zn 0.50418(13) 0.46521(11) 0.63206(7)
loop_
_geom_bond_atom_site_label_1
_geom_bond_atom_site_label_2
_geom_bond_site_symmetry_1
_geom_bond_site_symmetry_2
Zn1 N2 1_555 1_555
N1 C20 1_555 1_555
N2 C1 1_555 1_555
N3 C40 1_555 1_555
N4 C60 1_555 1_555
C1 C2 1_555 1_555
C2 H1 1_555 1_555
C3 C2 1_555 1_555
H2 C3 1_555 1_555
C4 C3 1_555 1_555
C5 C4 1_555 1_555
H3 C5 1_555 1_555
C6 C1 1_555 1_555
H4 C6 1_555 1_555
O1 C4 1_555 1_555
C7 O1 1_555 1_555
H5 C7 1_555 1_555
H6 C7 1_555 1_555
H7 C7 1_555 1_555
C8 N2 1_555 1_555
H8 C8 1_555 1_555
N5 Zn1 1_555 1_555
C9 C8 1_555 1_555
C10 C9 1_555 1_555
H9 C10 1_555 1_555
C11 C10 1_555 1_555
H10 C11 1_555 1_555
C12 C11 1_555 1_555
C13 N5 1_555 1_555
H11 C13 1_555 1_555
C14 C12 1_555 1_555
C15 C14 1_555 1_555
H12 C15 1_555 1_555
C16 C15 1_555 1_555
C17 C16 1_555 1_555
H13 C17 1_555 1_555
C18 C17 1_555 1_555
H14 C18 1_555 1_555
C19 C14 1_555 1_555
H15 C19 1_555 1_555
C20 C16 1_555 1_555
C21 H16 1_555 1_555
H17 C21 1_555 1_555
H18 C21 1_555 1_555
C22 C23 1_555 1_555
C23 H19 1_555 1_555
C24 C23 1_555 1_555
H20 C24 1_555 1_555
C25 C24 1_555 1_555
C26 C25 1_555 1_555
H21 C26 1_555 1_555
C27 C22 1_555 1_555
H22 C27 1_555 1_555
O2 C21 1_555 1_555
N6 Zn1 1_555 1_555
C28 N6 1_555 1_555
H23 C28 1_555 1_555
C29 C28 1_555 1_555
C30 C29 1_555 1_555
H24 C30 1_555 1_555
C31 C30 1_555 1_555
H25 C31 1_555 1_555
C32 N6 1_555 1_555
C33 C32 1_555 1_555
H26 C33 1_555 1_555
C34 C29 1_555 1_555
C35 C34 1_555 1_555
H27 C35 1_555 1_555
C36 C35 1_555 1_555
C37 C36 1_555 1_555
H28 C37 1_555 1_555
C38 C37 1_555 1_555
H29 C38 1_555 1_555
C39 C34 1_555 1_555
H30 C39 1_555 1_555
C40 C36 1_555 1_555
C41 H31 1_555 1_555
H32 C41 1_555 1_555
H33 C41 1_555 1_555
C42 C43 1_555 1_555
C43 H34 1_555 1_555
C44 C43 1_555 1_555
H35 C44 1_555 1_555
C45 C44 1_555 1_555
C46 C45 1_555 1_555
H36 C46 1_555 1_555
C47 C42 1_555 1_555
H37 C47 1_555 1_555
O3 C41 1_555 1_555
N7 Zn1 1_555 1_555
C48 N7 1_555 1_555
H38 C48 1_555 1_555
C49 C48 1_555 1_555
C50 C49 1_555 1_555
H39 C50 1_555 1_555
C51 C50 1_555 1_555
H40 C51 1_555 1_555
C52 N7 1_555 1_555
C53 C52 1_555 1_555
H41 C53 1_555 1_555
N8 Zn1 1_555 1_555
C54 C49 1_555 1_555
C55 C54 1_555 1_555
H42 C55 1_555 1_555
C56 C55 1_555 1_555
C57 C56 1_555 1_555
H43 C57 1_555 1_555
C58 C57 1_555 1_555
H44 C58 1_555 1_555
C59 C54 1_555 1_555
H45 C59 1_555 1_555
C60 C56 1_555 1_555
N9 Zn1 1_555 1_555
N1A C20 1_555 1_555
N2A C1A 1_555 1_555
C1A C2A 1_555 1_555
C2A H1A 1_555 1_555
C3A C2A 1_555 1_555
H2A C3A 1_555 1_555
C4A C3A 1_555 1_555
C5A C4A 1_555 1_555
H3A C5A 1_555 1_555
C6A C1A 1_555 1_555
H4A C6A 1_555 1_555
O1A C4A 1_555 1_555
C7A O1A 1_555 1_555
H5A C7A 1_555 1_555
H6A C7A 1_555 1_555
H7A C7A 1_555 1_555
C8A N2A 1_555 1_555
H8A C8A 1_555 1_555
N5A C9A 1_555 1_555
C9A C8A 1_555 1_555
C10A C9A 1_555 1_555
H9A C10A 1_555 1_555
C11A C10A 1_555 1_555
H10A C11A 1_555 1_555
C12A C11A 1_555 1_555
C13A N5A 1_555 1_555
H11A C13A 1_555 1_555
C14A C12A 1_555 1_555
C15A C14A 1_555 1_555
H12A C15A 1_555 1_555
C16A C15A 1_555 1_555
C17A C16A 1_555 1_555
H13A C17A 1_555 1_555
C18A C17A 1_555 1_555
H14A C18A 1_555 1_555
C19A C14A 1_555 1_555
H15A C19A 1_555 1_555
C20A N1A 1_555 1_555
N1B C20A 1_555 1_555
N2B C1B 1_555 1_555
C1B C2B 1_555 1_555
C2B H1B 1_555 1_555
C3B C2B 1_555 1_555
H2B C3B 1_555 1_555
C4B C3B 1_555 1_555
C5B C4B 1_555 1_555
H3B C5B 1_555 1_555
C6B C1B 1_555 1_555
H4B C6B 1_555 1_555
O1B C4B 1_555 1_555
C7B O1B 1_555 1_555
H5B C7B 1_555 1_555
H6B C7B 1_555 1_555
H7B C7B 1_555 1_555
C8B N2B 1_555 1_555
H8B C8B 1_555 1_555
N5B C9B 1_555 1_555
C9B C8B 1_555 1_555
C10B C9B 1_555 1_555
H9B C10B 1_555 1_555
C11B C10B 1_555 1_555
H10B C11B 1_555 1_555
C12B C11B 1_555 1_555
C13B N5B 1_555 1_555
H11B C13B 1_555 1_555
C14B C12B 1_555 1_555
C15B C14B 1_555 1_555
H12B C15B 1_555 1_555
C16B C15B 1_555 1_555
C17B C16B 1_555 1_555
H13B C17B 1_555 1_555
C18B C17B 1_555 1_555
H14B C18B 1_555 1_555
C19B C14B 1_555 1_555
H15B C19B 1_555 1_555
C20B N1 1_555 1_555
N3A C40A 1_555 1_555
C21A H16A 1_555 1_555
H17A C21A 1_555 1_555
H18A C21A 1_555 1_555
C22A C23A 1_555 1_555
C23A H19A 1_555 1_555
C24A C23A 1_555 1_555
H20A C24A 1_555 1_555
C25A C24A 1_555 1_555
C26A C25A 1_555 1_555
H21A C26A 1_555 1_555
C27A C22A 1_555 1_555
H22A C27A 1_555 1_555
O2A C21A 1_555 1_555
N6A C28A 1_555 1_555
C28A H23A 1_555 1_555
C29A C28A 1_555 1_555
C30A C29A 1_555 1_555
H24A C30A 1_555 1_555
C31A C30A 1_555 1_555
H25A C31A 1_555 1_555
C32A N6A 1_555 1_555
C33A C32A 1_555 1_555
H26A C33A 1_555 1_555
C34A C29A 1_555 1_555
C35A C34A 1_555 1_555
H27A C35A 1_555 1_555
C36A C35A 1_555 1_555
C37A C36A 1_555 1_555
H28A C37A 1_555 1_555
C38A C37A 1_555 1_555
H29A C38A 1_555 1_555
C39A C34A 1_555 1_555
H30A C39A 1_555 1_555
C40A N3 1_555 1_555
N9A C22A 1_555 1_555
N3B C40 1_555 1_555
C21B H16B 1_555 1_555
H17B C21B 1_555 1_555
H18B C21B 1_555 1_555
C22B C23B 1_555 1_555
C23B H19B 1_555 1_555
C24B C23B 1_555 1_555
H20B C24B 1_555 1_555
C25B C24B 1_555 1_555
C26B C25B 1_555 1_555
H21B C26B 1_555 1_555
C27B C22B 1_555 1_555
H22B C27B 1_555 1_555
O2B C21B 1_555 1_555
N6B C28B 1_555 1_555
C28B H23B 1_555 1_555
C29B C28B 1_555 1_555
C30B C29B 1_555 1_555
H24B C30B 1_555 1_555
C31B C30B 1_555 1_555
H25B C31B 1_555 1_555
C32B N6B 1_555 1_555
C33B C32B 1_555 1_555
H26B C33B 1_555 1_555
C34B C29B 1_555 1_555
C35B C34B 1_555 1_555
H27B C35B 1_555 1_555
C36B C35B 1_555 1_555
C37B C36B 1_555 1_555
H28B C37B 1_555 1_555
C38B C37B 1_555 1_555
H29B C38B 1_555 1_555
C39B C34B 1_555 1_555
H30B C39B 1_555 1_555
C40B N3A 1_555 1_555
N9B C22B 1_555 1_555
N4A C60 1_555 1_555
C41A H31A 1_555 1_555
H32A C41A 1_555 1_555
H33A C41A 1_555 1_555
C42A C43A 1_555 1_555
C43A H34A 1_555 1_555
C44A C43A 1_555 1_555
H35A C44A 1_555 1_555
C45A C44A 1_555 1_555
C46A C45A 1_555 1_555
H36A C46A 1_555 1_555
C47A C42A 1_555 1_555
H37A C47A 1_555 1_555
O3A C41A 1_555 1_555
N7A C48A 1_555 1_555
C48A H38A 1_555 1_555
C49A C48A 1_555 1_555
C50A C49A 1_555 1_555
H39A C50A 1_555 1_555
C51A C50A 1_555 1_555
H40A C51A 1_555 1_555
C52A N7A 1_555 1_555
C53A C52A 1_555 1_555
H41A C53A 1_555 1_555
N8A C42A 1_555 1_555
C54A C49A 1_555 1_555
C55A C54A 1_555 1_555
H42A C55A 1_555 1_555
C56A C55A 1_555 1_555
C57A C56A 1_555 1_555
H43A C57A 1_555 1_555
C58A C57A 1_555 1_555
H44A C58A 1_555 1_555
C59A C54A 1_555 1_555
H45A C59A 1_555 1_555
C60A N4A 1_555 1_555
N4B C60A 1_555 1_555
C41B H31B 1_555 1_555
H32B C41B 1_555 1_555
H33B C41B 1_555 1_555
C42B C43B 1_555 1_555
C43B H34B 1_555 1_555
C44B C43B 1_555 1_555
H35B C44B 1_555 1_555
C45B C44B 1_555 1_555
C46B C45B 1_555 1_555
H36B C46B 1_555 1_555
C47B C42B 1_555 1_555
H37B C47B 1_555 1_555
O3B C41B 1_555 1_555
N7B C48B 1_555 1_555
C48B H38B 1_555 1_555
C49B C48B 1_555 1_555
C50B C49B 1_555 1_555
H39B C50B 1_555 1_555
C51B C50B 1_555 1_555
H40B C51B 1_555 1_555
C52B N7B 1_555 1_555
C53B C52B 1_555 1_555
H41B C53B 1_555 1_555
N8B C42B 1_555 1_555
C54B C49B 1_555 1_555
C55B C54B 1_555 1_555
H42B C55B 1_555 1_555
C56B C55B 1_555 1_555
C57B C56B 1_555 1_555
H43B C57B 1_555 1_555
C58B C57B 1_555 1_555
H44B C58B 1_555 1_555
C59B C54B 1_555 1_555
H45B C59B 1_555 1_555
C60B N4 1_555 1_555
Zn1A N2A 1_555 1_555
Zn1B N2B 1_555 1_555
C5 C6 1_555 1_555
N5 C9 1_555 1_555
C12 C13 1_555 1_555
C18 C19 1_555 1_555
C22 N9 1_555 1_555
C25 O2 1_555 1_555
C26 C27 1_555 1_555
C31 C32 1_555 1_555
C33 N9 1_555 1_555
C38 C39 1_555 1_555
C42 N8 1_555 1_555
C45 O3 1_555 1_555
C46 C47 1_555 1_555
C51 C52 1_555 1_555
C53 N8 1_555 1_555
C58 C59 1_555 1_555
C5A C6A 1_555 1_555
N5A Zn1A 1_555 1_555
C12A C13A 1_555 1_555
C16A C20A 1_555 1_555
C18A C19A 1_555 1_555
N1B C20B 1_555 1_555
C5B C6B 1_555 1_555
N5B Zn1B 1_555 1_555
C12B C13B 1_555 1_555
C16B C20B 1_555 1_555
C18B C19B 1_555 1_555
C25A O2A 1_555 1_555
C26A C27A 1_555 1_555
N6A Zn1A 1_555 1_555
C31A C32A 1_555 1_555
C33A N9A 1_555 1_555
C36A C40A 1_555 1_555
C38A C39A 1_555 1_555
N9A Zn1A 1_555 1_555
N3B C40B 1_555 1_555
C25B O2B 1_555 1_555
C26B C27B 1_555 1_555
N6B Zn1B 1_555 1_555
C31B C32B 1_555 1_555
C33B N9B 1_555 1_555
C36B C40B 1_555 1_555
C38B C39B 1_555 1_555
N9B Zn1B 1_555 1_555
C45A O3A 1_555 1_555
C46A C47A 1_555 1_555
N7A Zn1A 1_555 1_555
C51A C52A 1_555 1_555
C53A N8A 1_555 1_555
N8A Zn1A 1_555 1_555
C56A C60A 1_555 1_555
C58A C59A 1_555 1_555
N4B C60B 1_555 1_555
C45B O3B 1_555 1_555
C46B C47B 1_555 1_555
N7B Zn1B 1_555 1_555
C51B C52B 1_555 1_555
C53B N8B 1_555 1_555
N8B Zn1B 1_555 1_555
C56B C60B 1_555 1_555
C58B C59B 1_555 1_555

#END
