
#######################################################################
#
#                 Cambridge Crystallographic Data Centre
#                                CCDC 
#
#######################################################################
#
# If this CIF has been generated from an entry in the Cambridge 
# Structural Database, then it will include bibliographic, chemical, 
# crystal, experimental, refinement or atomic coordinate data resulting 
# from the CCDC's data processing and validation procedures.
#
#######################################################################

data_XIWNEW
_chemical_formula_moiety         
'C44 H76 N4 P4 Pt2 S4 4+,4(N1 O3 1-),2(C1 H4 O1)'
_chemical_name_systematic        
"bis(\m~2~-4,4'-Dithiopyridine)-tetrakis(triethylphosphine)-di-platinum(ii) tetranitrate methanol solvate"
_symmetry_cell_setting           triclinic
_symmetry_space_group_name_H-M   'P -1'
_symmetry_Int_Tables_number      2
_space_group_name_Hall           '-P 1'
loop_
_symmetry_equiv_pos_site_id
_symmetry_equiv_pos_as_xyz
1 x,y,z
2 -x,-y,-z
_cell_length_a                   8.9618(2)
_cell_length_b                   10.9840(4)
_cell_length_c                   19.9151(7)
_cell_angle_alpha                84.959(1)
_cell_angle_beta                 87.739(2)
_cell_angle_gamma                84.197(2)
_cell_volume                     1941.86
_exptl_crystal_colour            colorless
_cell_formula_units_Z            1
_exptl_crystal_recrystallization_method 'diethyl ether/methanol'
loop_
_atom_site_label
_atom_site_type_symbol
_atom_site_fract_x
_atom_site_fract_y
_atom_site_fract_z
Pt1 Pt 0.2136(1) 0.1654(1) 0.2505(1)
S1 S 0.0858(2) 0.3705(2) 0.5529(1)
S2 S -0.1376(3) 0.3707(2) 0.5747(1)
P1 P 0.2635(3) 0.0622(2) 0.1568(1)
P2 P 0.2032(2) 0.3579(2) 0.1979(1)
N1 N 0.1702(7) 0.2360(5) 0.3449(3)
N2 N 0.2014(7) -0.0047(5) 0.3072(3)
C1 C 0.0280(8) 0.2557(7) 0.3684(4)
C2 C -0.0055(8) 0.2936(6) 0.4314(4)
C3 C 0.1081(8) 0.3142(6) 0.4719(4)
C4 C 0.2554(9) 0.2944(7) 0.4472(4)
C5 C 0.2821(9) 0.2558(7) 0.3847(4)
C6 C 0.0616(9) -0.0366(7) 0.3232(4)
C7 C 0.0332(9) -0.1439(7) 0.3591(4)
C8 C -0.1550(9) 0.2252(6) 0.6184(4)
C9 C -0.2994(9) 0.1904(7) 0.6334(4)
C10 C 0.3167(8) -0.0816(6) 0.3308(4)
C11 C 0.2245(14) 0.1355(10) 0.0728(5)
C12 C 0.2584(18) 0.0537(13) 0.0137(6)
C13 C 0.4582(15) -0.0095(13) 0.1544(7)
C14 C 0.5691(14) 0.0981(15) 0.1325(7)
C15 C 0.1525(16) -0.0729(10) 0.1596(6)
C16 C -0.0110(14) -0.0386(12) 0.1503(7)
C17 C 0.1541(17) 0.4745(8) 0.2567(5)
C18 C 0.1500(20) 0.6071(9) 0.2255(7)
C19 C 0.3728(13) 0.4008(10) 0.1537(8)
C20 C 0.4940(20) 0.4127(18) 0.2080(14)
C21 C 0.0544(13) 0.3924(9) 0.1363(5)
C22 C -0.0928(14) 0.3542(13) 0.1602(8)
H1 H -0.0516 0.2429 0.3405
H2 H -0.1070 0.3056 0.4470
H3 H 0.3366 0.3078 0.4740
H4 H 0.3829 0.2422 0.3684
H5 H -0.0214 0.0189 0.3087
H6 H -0.0669 -0.1630 0.3686
H7 H -0.3848 0.2428 0.6186
H8 H 0.4156 -0.0587 0.3220
H9 H 0.1172 0.1672 0.0720
H10 H 0.2838 0.2070 0.0649
H11 H 0.2338 0.1019 -0.0288
H12 H 0.1977 -0.0161 0.0198
H13 H 0.3651 0.0235 0.0128
H14 H 0.4847 -0.0500 0.1994
H15 H 0.4695 -0.0725 0.1214
H16 H 0.6736 0.0619 0.1316
H17 H 0.5564 0.1604 0.1652
H18 H 0.5435 0.1364 0.0876
H19 H 0.1917 -0.1258 0.1238
H20 H 0.1666 -0.1214 0.2036
H21 H -0.0631 -0.1132 0.1526
H22 H -0.0262 0.0071 0.1062
H23 H -0.0512 0.0127 0.1859
H24 H 0.0543 0.4615 0.2776
H25 H 0.2276 0.4629 0.2931
H26 H 0.1241 0.6634 0.2607
H27 H 0.0740 0.6210 0.1908
H28 H 0.2484 0.6217 0.2052
H29 H 0.4105 0.3375 0.1230
H30 H 0.3519 0.4800 0.1264
H31 H 0.5878 0.4348 0.1850
H32 H 0.5136 0.3342 0.2351
H33 H 0.4569 0.4767 0.2375
H34 H 0.0433 0.4819 0.1237
H35 H 0.0860 0.3511 0.0951
H36 H -0.1657 0.3758 0.1247
H37 H -0.1267 0.3961 0.2004
H38 H -0.0841 0.2651 0.1716
C7A C -0.0332(9) 0.1439(7) 0.6409(4)
C6A C -0.0616(9) 0.0366(7) 0.6768(4)
N2A N -0.2014(7) 0.0047(5) 0.6928(3)
Pt1A Pt -0.2136(1) -0.1654(1) 0.7495(1)
P1A P -0.2635(3) -0.0622(2) 0.8432(1)
C11A C -0.2245(14) -0.1355(10) 0.9272(5)
C12A C -0.2584(18) -0.0537(13) 0.9863(6)
H11A H -0.2338 -0.1019 1.0288
H12A H -0.1977 0.0161 0.9802
H13A H -0.3651 -0.0235 0.9872
H9A H -0.1172 -0.1672 0.9280
H10A H -0.2838 -0.2070 0.9351
C13A C -0.4582(15) 0.0095(13) 0.8456(7)
C14A C -0.5691(14) -0.0981(15) 0.8675(7)
H16A H -0.6736 -0.0619 0.8684
H17A H -0.5564 -0.1604 0.8348
H18A H -0.5435 -0.1364 0.9124
H14A H -0.4847 0.0500 0.8006
H15A H -0.4695 0.0725 0.8786
C15A C -0.1525(16) 0.0729(10) 0.8404(6)
C16A C 0.0110(14) 0.0386(12) 0.8497(7)
H21A H 0.0631 0.1132 0.8474
H22A H 0.0262 -0.0071 0.8938
H23A H 0.0512 -0.0127 0.8141
H19A H -0.1917 0.1258 0.8762
H20A H -0.1666 0.1214 0.7964
P2A P -0.2032(2) -0.3579(2) 0.8021(1)
C17A C -0.1541(17) -0.4745(8) 0.7433(5)
C18A C -0.1500(20) -0.6071(9) 0.7745(7)
H26A H -0.1241 -0.6634 0.7393
H27A H -0.0740 -0.6210 0.8092
H28A H -0.2484 -0.6217 0.7948
H24A H -0.0543 -0.4615 0.7224
H25A H -0.2276 -0.4629 0.7069
C19A C -0.3728(13) -0.4008(10) 0.8463(8)
C20A C -0.4940(20) -0.4127(18) 0.7920(14)
H31A H -0.5878 -0.4348 0.8150
H32A H -0.5136 -0.3342 0.7649
H33A H -0.4569 -0.4767 0.7625
H29A H -0.4105 -0.3375 0.8770
H30A H -0.3519 -0.4800 0.8736
C21A C -0.0544(13) -0.3924(9) 0.8637(5)
C22A C 0.0928(14) -0.3542(13) 0.8398(8)
H36A H 0.1657 -0.3758 0.8753
H37A H 0.1267 -0.3961 0.7996
H38A H 0.0841 -0.2651 0.8284
H34A H -0.0433 -0.4819 0.8763
H35A H -0.0860 -0.3511 0.9049
N1A N -0.1702(7) -0.2360(5) 0.6551(3)
C1A C -0.0280(8) -0.2557(7) 0.6316(4)
C2A C 0.0055(8) -0.2936(6) 0.5686(4)
C3A C -0.1081(8) -0.3142(6) 0.5281(4)
S1A S -0.0858(2) -0.3705(2) 0.4471(1)
S2A S 0.1376(3) -0.3707(2) 0.4253(1)
C8A C 0.1550(9) -0.2252(6) 0.3816(4)
C9A C 0.2994(9) -0.1904(7) 0.3666(4)
H7A H 0.3848 -0.2428 0.3814
C4A C -0.2554(9) -0.2944(7) 0.5528(4)
C5A C -0.2821(9) -0.2558(7) 0.6153(4)
H4A H -0.3829 -0.2422 0.6316
H3A H -0.3366 -0.3078 0.5260
H2A H 0.1070 -0.3056 0.5530
H1A H 0.0516 -0.2429 0.6595
C10A C -0.3167(8) 0.0816(6) 0.6692(4)
H8A H -0.4156 0.0587 0.6780
H5A H 0.0214 -0.0189 0.6913
H6A H 0.0669 0.1630 0.6314
N3 N 0.6739(8) 0.0856(7) 0.2933(4)
O1 O 0.7052(10) -0.0287(7) 0.2981(7)
O2 O 0.5430(7) 0.1251(7) 0.3004(4)
O3 O 0.7740(7) 0.1528(6) 0.2780(4)
N4 N 0.7160(30) 0.0260(20) 0.4760(11)
O4 O 0.6650(40) 0.1320(30) 0.4850(20)
O5 O 0.6130(50) -0.0310(40) 0.4630(30)
O6 O 0.8420(40) -0.0210(50) 0.4850(30)
C23 C 0.7160(40) 0.6830(20) 0.2774(19)
O7 O 0.7810(30) 0.5560(20) 0.3041(14)
H39 H 0.7789 0.7132 0.2396
H40 H 0.7116 0.7385 0.3133
H41 H 0.6140 0.6781 0.2618
H42 H 0.8506 0.5309 0.2779
C24 C 0.1220(40) 0.7160(30) 0.0221(16)
O8 O 0.2510(50) 0.6210(40) 0.0140(30)
H43 H 0.1387 0.7644 0.0596
H44 H 0.0293 0.6758 0.0312
H45 H 0.1120 0.7703 -0.0196
H46 H 0.3169 0.6497 -0.0119
loop_
_geom_bond_atom_site_label_1
_geom_bond_atom_site_label_2
_geom_bond_site_symmetry_1
_geom_bond_site_symmetry_2
Pt1 P1 1_555 1_555
S1 S2 1_555 1_555
S2 C8 1_555 1_555
P1 C11 1_555 1_555
P2 Pt1 1_555 1_555
N1 Pt1 1_555 1_555
N2 Pt1 1_555 1_555
C1 N1 1_555 1_555
C2 C1 1_555 1_555
C3 S1 1_555 1_555
C4 C3 1_555 1_555
C5 N1 1_555 1_555
C6 N2 1_555 1_555
C7 C6 1_555 1_555
C8 C9 1_555 1_555
C9 H7 1_555 1_555
C10 N2 1_555 1_555
C11 C12 1_555 1_555
C12 H11 1_555 1_555
C13 P1 1_555 1_555
C14 C13 1_555 1_555
C15 P1 1_555 1_555
C16 C15 1_555 1_555
C17 P2 1_555 1_555
C18 C17 1_555 1_555
C19 P2 1_555 1_555
C20 C19 1_555 1_555
C21 P2 1_555 1_555
C22 C21 1_555 1_555
H1 C1 1_555 1_555
H2 C2 1_555 1_555
H3 C4 1_555 1_555
H4 C5 1_555 1_555
H5 C6 1_555 1_555
H6 C7 1_555 1_555
H8 C10 1_555 1_555
H9 C11 1_555 1_555
H10 C11 1_555 1_555
H12 C12 1_555 1_555
H13 C12 1_555 1_555
H14 C13 1_555 1_555
H15 C13 1_555 1_555
H16 C14 1_555 1_555
H17 C14 1_555 1_555
H18 C14 1_555 1_555
H19 C15 1_555 1_555
H20 C15 1_555 1_555
H21 C16 1_555 1_555
H22 C16 1_555 1_555
H23 C16 1_555 1_555
H24 C17 1_555 1_555
H25 C17 1_555 1_555
H26 C18 1_555 1_555
H27 C18 1_555 1_555
H28 C18 1_555 1_555
H29 C19 1_555 1_555
H30 C19 1_555 1_555
H31 C20 1_555 1_555
H32 C20 1_555 1_555
H33 C20 1_555 1_555
H34 C21 1_555 1_555
H35 C21 1_555 1_555
H36 C22 1_555 1_555
H37 C22 1_555 1_555
H38 C22 1_555 1_555
N3 O1 1_555 1_555
O2 N3 1_555 1_555
O3 N3 1_555 1_555
N4 O4 1_555 1_555
O5 N4 1_555 1_555
O6 N4 1_555 1_555
C23 O7 1_555 1_555
O7 H42 1_555 1_555
H39 C23 1_555 1_555
H40 C23 1_555 1_555
H41 C23 1_555 1_555
C24 O8 1_555 1_555
O8 H46 1_555 1_555
H43 C24 1_555 1_555
H44 C24 1_555 1_555
H45 C24 1_555 1_555
C7A C8 1_555 1_555
C6A C7A 1_555 1_555
N2A C6A 1_555 1_555
Pt1A N2A 1_555 1_555
P1A Pt1A 1_555 1_555
C11A P1A 1_555 1_555
C12A C11A 1_555 1_555
H11A C12A 1_555 1_555
H12A C12A 1_555 1_555
H13A C12A 1_555 1_555
H9A C11A 1_555 1_555
H10A C11A 1_555 1_555
C13A P1A 1_555 1_555
C14A C13A 1_555 1_555
H16A C14A 1_555 1_555
H17A C14A 1_555 1_555
H18A C14A 1_555 1_555
H14A C13A 1_555 1_555
H15A C13A 1_555 1_555
C15A P1A 1_555 1_555
C16A C15A 1_555 1_555
H21A C16A 1_555 1_555
H22A C16A 1_555 1_555
H23A C16A 1_555 1_555
H19A C15A 1_555 1_555
H20A C15A 1_555 1_555
P2A Pt1A 1_555 1_555
C17A P2A 1_555 1_555
C18A C17A 1_555 1_555
H26A C18A 1_555 1_555
H27A C18A 1_555 1_555
H28A C18A 1_555 1_555
H24A C17A 1_555 1_555
H25A C17A 1_555 1_555
C19A P2A 1_555 1_555
C20A C19A 1_555 1_555
H31A C20A 1_555 1_555
H32A C20A 1_555 1_555
H33A C20A 1_555 1_555
H29A C19A 1_555 1_555
H30A C19A 1_555 1_555
C21A P2A 1_555 1_555
C22A C21A 1_555 1_555
H36A C22A 1_555 1_555
H37A C22A 1_555 1_555
H38A C22A 1_555 1_555
H34A C21A 1_555 1_555
H35A C21A 1_555 1_555
N1A Pt1A 1_555 1_555
C1A N1A 1_555 1_555
C2A C1A 1_555 1_555
C3A C2A 1_555 1_555
S1A C3A 1_555 1_555
S2A S1A 1_555 1_555
C8A C7 1_555 1_555
C9A C10 1_555 1_555
H7A C9A 1_555 1_555
C4A C3A 1_555 1_555
C5A N1A 1_555 1_555
H4A C5A 1_555 1_555
H3A C4A 1_555 1_555
H2A C2A 1_555 1_555
H1A C1A 1_555 1_555
C10A C9 1_555 1_555
H8A C10A 1_555 1_555
H5A C6A 1_555 1_555
H6A C7A 1_555 1_555
C2 C3 1_555 1_555
C4 C5 1_555 1_555
N2A C10A 1_555 1_555
S2A C8A 1_555 1_555
C8A C9A 1_555 1_555
C4A C5A 1_555 1_555

#END
