# generated using pymatgen
data_Co4H132C196N47(ClO4)8
_symmetry_space_group_name_H-M   'P 1'
_cell_length_a   18.44000000
_cell_length_b   27.67000000
_cell_length_c   40.30000000
_cell_angle_alpha   109.42400000
_cell_angle_beta   90.00000000
_cell_angle_gamma   90.00000000
_symmetry_Int_Tables_number   1
_chemical_formula_structural   Co4H132C196N47(ClO4)8
_chemical_formula_sum   'Co16 H528 C784 N188 Cl32 O128'
_cell_volume   19392.11781018
_cell_formula_units_Z   4
loop_
 _symmetry_equiv_pos_site_id
 _symmetry_equiv_pos_as_xyz
  1  'x, y, z'
loop_
 _atom_site_type_symbol
 _atom_site_label
 _atom_site_symmetry_multiplicity
 _atom_site_fract_x
 _atom_site_fract_y
 _atom_site_fract_z
 _atom_site_occupancy
  Co  Co1  1  0.301500  0.137000  0.114790  1
  Co  Co2  1  0.801500  0.363000  0.385210  1
  Co  Co3  1  0.698500  0.863000  0.885210  1
  Co  Co4  1  0.198500  0.637000  0.614790  1
  Co  Co5  1  0.286300  0.208380  0.905750  1
  Co  Co6  1  0.786300  0.291620  0.594250  1
  Co  Co7  1  0.713700  0.791620  0.094250  1
  Co  Co8  1  0.213700  0.708380  0.405750  1
  Co  Co9  1  0.496000  0.461560  0.127620  1
  Co  Co10  1  0.996000  0.038440  0.372380  1
  Co  Co11  1  0.504000  0.538440  0.872380  1
  Co  Co12  1  0.004000  0.961560  0.627620  1
  Co  Co13  1  0.952400  0.368930  0.105570  1
  Co  Co14  1  0.452400  0.131070  0.394430  1
  Co  Co15  1  0.047600  0.631070  0.894430  1
  Co  Co16  1  0.547600  0.868930  0.605570  1
  H  H17  1  0.457700  0.011400  0.025000  1
  H  H18  1  0.957700  0.488600  0.475000  1
  H  H19  1  0.542300  0.988600  0.975000  1
  H  H20  1  0.042300  0.511400  0.525000  1
  H  H21  1  0.406100  0.936100  0.028500  1
  H  H22  1  0.906100  0.563900  0.471500  1
  H  H23  1  0.593900  0.063900  0.971500  1
  H  H24  1  0.093900  0.436100  0.528500  1
  H  H25  1  0.298700  0.934400  0.060400  1
  H  H26  1  0.798700  0.565600  0.439600  1
  H  H27  1  0.701300  0.065600  0.939600  1
  H  H28  1  0.201300  0.434400  0.560400  1
  H  H29  1  0.262800  0.022400  0.096100  1
  H  H30  1  0.762800  0.477600  0.403900  1
  H  H31  1  0.737200  0.977600  0.903900  1
  H  H32  1  0.237200  0.522400  0.596100  1
  H  H33  1  0.506700  0.100400  0.029600  1
  H  H34  1  0.006700  0.399600  0.470400  1
  H  H35  1  0.493300  0.899600  0.970400  1
  H  H36  1  0.993300  0.600400  0.529600  1
  H  H37  1  0.524800  0.193100  0.051700  1
  H  H38  1  0.024800  0.306900  0.448300  1
  H  H39  1  0.475200  0.806900  0.948300  1
  H  H40  1  0.975200  0.693100  0.551700  1
  H  H41  1  0.373500  0.249900  0.113100  1
  H  H42  1  0.873500  0.250100  0.386900  1
  H  H43  1  0.626500  0.750100  0.886900  1
  H  H44  1  0.126500  0.749900  0.613100  1
  H  H45  1  0.430700  0.266500  0.089100  1
  H  H46  1  0.930700  0.233500  0.410900  1
  H  H47  1  0.569300  0.733500  0.910900  1
  H  H48  1  0.069300  0.766500  0.589100  1
  H  H49  1  0.533600  0.200900  0.126500  1
  H  H50  1  0.033600  0.299100  0.373500  1
  H  H51  1  0.466400  0.799100  0.873500  1
  H  H52  1  0.966400  0.700900  0.626500  1
  H  H53  1  0.631800  0.185400  0.165400  1
  H  H54  1  0.131800  0.314600  0.334600  1
  H  H55  1  0.368200  0.814600  0.834600  1
  H  H56  1  0.868200  0.685400  0.665400  1
  H  H57  1  0.718800  0.229400  0.209200  1
  H  H58  1  0.218800  0.270600  0.290800  1
  H  H59  1  0.281200  0.770600  0.790800  1
  H  H60  1  0.781200  0.729400  0.709200  1
  H  H61  1  0.709400  0.312400  0.243200  1
  H  H62  1  0.209400  0.187600  0.256800  1
  H  H63  1  0.290600  0.687600  0.756800  1
  H  H64  1  0.790600  0.812400  0.743200  1
  H  H65  1  0.617500  0.366400  0.232300  1
  H  H66  1  0.117500  0.133600  0.267700  1
  H  H67  1  0.382500  0.633600  0.767700  1
  H  H68  1  0.882500  0.866400  0.732300  1
  H  H69  1  0.510000  0.372000  0.194500  1
  H  H70  1  0.010000  0.128000  0.305500  1
  H  H71  1  0.490000  0.628000  0.805500  1
  H  H72  1  0.990000  0.872000  0.694500  1
  H  H73  1  0.349700  0.484500  0.238200  1
  H  H74  1  0.849700  0.015500  0.261800  1
  H  H75  1  0.650300  0.515500  0.761800  1
  H  H76  1  0.150300  0.984500  0.738200  1
  H  H77  1  0.341000  0.390400  0.211900  1
  H  H78  1  0.841000  0.109600  0.288100  1
  H  H79  1  0.659000  0.609600  0.788100  1
  H  H80  1  0.159000  0.890400  0.711900  1
  H  H81  1  0.412700  0.349200  0.123400  1
  H  H82  1  0.912700  0.150800  0.376600  1
  H  H83  1  0.587300  0.650800  0.876600  1
  H  H84  1  0.087300  0.849200  0.623400  1
  H  H85  1  0.360600  0.331200  0.148400  1
  H  H86  1  0.860600  0.168800  0.351600  1
  H  H87  1  0.639400  0.668800  0.851600  1
  H  H88  1  0.139400  0.831200  0.648400  1
  H  H89  1  0.384400  0.574500  0.242100  1
  H  H90  1  0.884400  0.925500  0.257900  1
  H  H91  1  0.615600  0.425500  0.757900  1
  H  H92  1  0.115600  0.074500  0.742100  1
  H  H93  1  0.426000  0.654800  0.241100  1
  H  H94  1  0.926000  0.845200  0.258900  1
  H  H95  1  0.574000  0.345200  0.758900  1
  H  H96  1  0.074000  0.154800  0.741100  1
  H  H97  1  0.501300  0.657700  0.196400  1
  H  H98  1  0.001300  0.842300  0.303600  1
  H  H99  1  0.498700  0.342300  0.803600  1
  H  H100  1  0.998700  0.157700  0.696400  1
  H  H101  1  0.526900  0.584400  0.150800  1
  H  H102  1  0.026900  0.915600  0.349200  1
  H  H103  1  0.473100  0.415600  0.849200  1
  H  H104  1  0.973100  0.084400  0.650800  1
  H  H105  1  0.530000  0.536900  0.032000  1
  H  H106  1  0.030000  0.963100  0.468000  1
  H  H107  1  0.470000  0.463100  0.968000  1
  H  H108  1  0.970000  0.036900  0.532000  1
  H  H109  1  0.652800  0.539800  0.031200  1
  H  H110  1  0.152800  0.960200  0.468800  1
  H  H111  1  0.347200  0.460200  0.968800  1
  H  H112  1  0.847200  0.039800  0.531200  1
  H  H113  1  0.718100  0.527000  0.075800  1
  H  H114  1  0.218100  0.973000  0.424200  1
  H  H115  1  0.281900  0.473000  0.924200  1
  H  H116  1  0.781900  0.027000  0.575800  1
  H  H117  1  0.651600  0.498100  0.116300  1
  H  H118  1  0.151600  0.001900  0.383700  1
  H  H119  1  0.348400  0.501900  0.883700  1
  H  H120  1  0.848400  0.998100  0.616300  1
  H  H121  1  0.393300  0.520700  0.032900  1
  H  H122  1  0.893300  0.979300  0.467100  1
  H  H123  1  0.606700  0.479300  0.967100  1
  H  H124  1  0.106700  0.020700  0.532900  1
  H  H125  1  0.279800  0.479800  0.049600  1
  H  H126  1  0.779800  0.020200  0.450400  1
  H  H127  1  0.720200  0.520200  0.950400  1
  H  H128  1  0.220200  0.979800  0.549600  1
  H  H129  1  0.324900  0.442400  0.124600  1
  H  H130  1  0.824900  0.057600  0.375400  1
  H  H131  1  0.675100  0.557600  0.875400  1
  H  H132  1  0.175100  0.942400  0.624600  1
  H  H133  1  0.269700  0.426100  0.092200  1
  H  H134  1  0.769700  0.073900  0.407800  1
  H  H135  1  0.730300  0.573900  0.907800  1
  H  H136  1  0.230300  0.926100  0.592200  1
  H  H137  1  0.311000  0.554700  0.140500  1
  H  H138  1  0.811000  0.945300  0.359500  1
  H  H139  1  0.689000  0.445300  0.859500  1
  H  H140  1  0.189000  0.054700  0.640500  1
  H  H141  1  0.278900  0.643300  0.175000  1
  H  H142  1  0.778900  0.856700  0.325000  1
  H  H143  1  0.721100  0.356700  0.825000  1
  H  H144  1  0.221100  0.143300  0.675000  1
  H  H145  1  0.191200  0.715000  0.206500  1
  H  H146  1  0.691200  0.785000  0.293500  1
  H  H147  1  0.808800  0.285000  0.793500  1
  H  H148  1  0.308800  0.215000  0.706500  1
  H  H149  1  0.077000  0.683700  0.209800  1
  H  H150  1  0.577000  0.816300  0.290200  1
  H  H151  1  0.923000  0.316300  0.790200  1
  H  H152  1  0.423000  0.183700  0.709800  1
  H  H153  1  0.036300  0.596300  0.197400  1
  H  H154  1  0.536300  0.903700  0.302600  1
  H  H155  1  0.963700  0.403700  0.802600  1
  H  H156  1  0.463700  0.096300  0.697400  1
  H  H157  1  0.067400  0.508800  0.152200  1
  H  H158  1  0.567400  0.991200  0.347800  1
  H  H159  1  0.932600  0.491200  0.847800  1
  H  H160  1  0.432600  0.008800  0.652200  1
  H  H161  1  0.118900  0.372700  0.212100  1
  H  H162  1  0.618900  0.127300  0.287900  1
  H  H163  1  0.881100  0.627300  0.787900  1
  H  H164  1  0.381100  0.872700  0.712100  1
  H  H165  1  0.190900  0.417800  0.182100  1
  H  H166  1  0.690900  0.082200  0.317900  1
  H  H167  1  0.809100  0.582200  0.817900  1
  H  H168  1  0.309100  0.917800  0.682100  1
  H  H169  1  0.107300  0.421700  0.101000  1
  H  H170  1  0.607300  0.078300  0.399000  1
  H  H171  1  0.892700  0.578300  0.899000  1
  H  H172  1  0.392700  0.921700  0.601000  1
  H  H173  1  0.186300  0.403900  0.108400  1
  H  H174  1  0.686300  0.096100  0.391600  1
  H  H175  1  0.813700  0.596100  0.891600  1
  H  H176  1  0.313700  0.903900  0.608400  1
  H  H177  1  0.986500  0.330600  0.217300  1
  H  H178  1  0.486500  0.169400  0.282700  1
  H  H179  1  0.013500  0.669400  0.782700  1
  H  H180  1  0.513500  0.830600  0.717300  1
  H  H181  1  0.874100  0.296000  0.219400  1
  H  H182  1  0.374100  0.204000  0.280600  1
  H  H183  1  0.125900  0.704000  0.780600  1
  H  H184  1  0.625900  0.796000  0.719400  1
  H  H185  1  0.786000  0.286500  0.174000  1
  H  H186  1  0.286000  0.213500  0.326000  1
  H  H187  1  0.214000  0.713500  0.826000  1
  H  H188  1  0.714000  0.786500  0.674000  1
  H  H189  1  0.823100  0.312100  0.126600  1
  H  H190  1  0.323100  0.187900  0.373400  1
  H  H191  1  0.176900  0.687900  0.873400  1
  H  H192  1  0.676900  0.812100  0.626600  1
  H  H193  1  0.900400  0.547500  0.107100  1
  H  H194  1  0.400400  0.952500  0.392900  1
  H  H195  1  0.099600  0.452500  0.892900  1
  H  H196  1  0.599600  0.047500  0.607100  1
  H  H197  1  0.842800  0.575900  0.164000  1
  H  H198  1  0.342800  0.924100  0.336000  1
  H  H199  1  0.157200  0.424100  0.836000  1
  H  H200  1  0.657200  0.075900  0.664000  1
  H  H201  1  0.814300  0.522200  0.193600  1
  H  H202  1  0.314300  0.977800  0.306400  1
  H  H203  1  0.185700  0.477800  0.806400  1
  H  H204  1  0.685700  0.022200  0.693600  1
  H  H205  1  0.876900  0.435700  0.172500  1
  H  H206  1  0.376900  0.064300  0.327500  1
  H  H207  1  0.123100  0.564300  0.827500  1
  H  H208  1  0.623100  0.935700  0.672500  1
  H  H209  1  0.987100  0.508600  0.056200  1
  H  H210  1  0.487100  0.991400  0.443800  1
  H  H211  1  0.012900  0.491400  0.943800  1
  H  H212  1  0.512900  0.008600  0.556200  1
  H  H213  1  0.065500  0.441600  0.012000  1
  H  H214  1  0.565500  0.058400  0.488000  1
  H  H215  1  0.934500  0.558400  0.988000  1
  H  H216  1  0.434500  0.941600  0.512000  1
  H  H217  1  0.059800  0.327100  0.040300  1
  H  H218  1  0.559800  0.172900  0.459700  1
  H  H219  1  0.940200  0.672900  0.959700  1
  H  H220  1  0.440200  0.827100  0.540300  1
  H  H221  1  0.114200  0.350100  0.018500  1
  H  H222  1  0.614200  0.149900  0.481500  1
  H  H223  1  0.885800  0.649900  0.981500  1
  H  H224  1  0.385800  0.850100  0.518500  1
  H  H225  1  0.931100  0.353100  0.999400  1
  H  H226  1  0.431100  0.146900  0.500600  1
  H  H227  1  0.068900  0.646900  0.000600  1
  H  H228  1  0.568900  0.853100  0.499400  1
  H  H229  1  0.820800  0.332500  0.961000  1
  H  H230  1  0.320800  0.167500  0.539000  1
  H  H231  1  0.179200  0.667500  0.039000  1
  H  H232  1  0.679200  0.832500  0.461000  1
  H  H233  1  0.780700  0.304100  0.904500  1
  H  H234  1  0.280700  0.195900  0.595500  1
  H  H235  1  0.219300  0.695900  0.095500  1
  H  H236  1  0.719300  0.804100  0.404500  1
  H  H237  1  0.840200  0.231900  0.862600  1
  H  H238  1  0.340200  0.268100  0.637400  1
  H  H239  1  0.159800  0.768100  0.137400  1
  H  H240  1  0.659800  0.731900  0.362600  1
  H  H241  1  0.950700  0.208700  0.874800  1
  H  H242  1  0.450700  0.291300  0.625200  1
  H  H243  1  0.049300  0.791300  0.125200  1
  H  H244  1  0.549300  0.708700  0.374800  1
  H  H245  1  0.055200  0.213500  0.919900  1
  H  H246  1  0.555200  0.286500  0.580100  1
  H  H247  1  0.944800  0.786500  0.080100  1
  H  H248  1  0.444800  0.713500  0.419900  1
  H  H249  1  0.116900  0.083400  0.935800  1
  H  H250  1  0.616900  0.416600  0.564200  1
  H  H251  1  0.883100  0.916600  0.064200  1
  H  H252  1  0.383100  0.583400  0.435800  1
  H  H253  1  0.059700  0.164800  0.972900  1
  H  H254  1  0.559700  0.335200  0.527100  1
  H  H255  1  0.940300  0.835200  0.027100  1
  H  H256  1  0.440300  0.664800  0.472900  1
  H  H257  1  0.174600  0.276200  0.966800  1
  H  H258  1  0.674600  0.223800  0.533200  1
  H  H259  1  0.825400  0.723800  0.033200  1
  H  H260  1  0.325400  0.776200  0.466800  1
  H  H261  1  0.142200  0.268100  0.001500  1
  H  H262  1  0.642200  0.231900  0.498500  1
  H  H263  1  0.857800  0.731900  0.998500  1
  H  H264  1  0.357800  0.768100  0.501500  1
  H  H265  1  0.222900  0.029000  0.901600  1
  H  H266  1  0.722900  0.471000  0.598400  1
  H  H267  1  0.777100  0.971000  0.098400  1
  H  H268  1  0.277100  0.529000  0.401600  1
  H  H269  1  0.292400  0.982900  0.855400  1
  H  H270  1  0.792400  0.517100  0.644600  1
  H  H271  1  0.707600  0.017100  0.144600  1
  H  H272  1  0.207600  0.482900  0.355400  1
  H  H273  1  0.381700  0.027000  0.833800  1
  H  H274  1  0.881700  0.473000  0.666200  1
  H  H275  1  0.618300  0.973000  0.166200  1
  H  H276  1  0.118300  0.527000  0.333800  1
  H  H277  1  0.377200  0.119300  0.854000  1
  H  H278  1  0.877200  0.380700  0.646000  1
  H  H279  1  0.622800  0.880700  0.146000  1
  H  H280  1  0.122800  0.619300  0.354000  1
  H  H281  1  0.541900  0.230100  0.865700  1
  H  H282  1  0.041900  0.269900  0.634300  1
  H  H283  1  0.458100  0.769900  0.134300  1
  H  H284  1  0.958100  0.730100  0.365700  1
  H  H285  1  0.506300  0.244000  0.814000  1
  H  H286  1  0.006300  0.256000  0.686000  1
  H  H287  1  0.493700  0.756000  0.186000  1
  H  H288  1  0.993700  0.744000  0.314000  1
  H  H289  1  0.388000  0.229800  0.792200  1
  H  H290  1  0.888000  0.270200  0.707800  1
  H  H291  1  0.612000  0.770200  0.207800  1
  H  H292  1  0.112000  0.729800  0.292200  1
  H  H293  1  0.297700  0.224700  0.831800  1
  H  H294  1  0.797700  0.275300  0.668200  1
  H  H295  1  0.702300  0.775300  0.168200  1
  H  H296  1  0.202300  0.724700  0.331800  1
  H  H297  1  0.554700  0.215200  0.925300  1
  H  H298  1  0.054700  0.284800  0.574700  1
  H  H299  1  0.445300  0.784800  0.074700  1
  H  H300  1  0.945300  0.715200  0.425300  1
  H  H301  1  0.515300  0.193100  0.980800  1
  H  H302  1  0.015300  0.306900  0.519200  1
  H  H303  1  0.484700  0.806900  0.019200  1
  H  H304  1  0.984700  0.693100  0.480800  1
  H  H305  1  0.319100  0.199700  0.985200  1
  H  H306  1  0.819100  0.300300  0.514800  1
  H  H307  1  0.680900  0.800300  0.014800  1
  H  H308  1  0.180900  0.699700  0.485200  1
  H  H309  1  0.388600  0.200400  0.009000  1
  H  H310  1  0.888600  0.299600  0.491000  1
  H  H311  1  0.611400  0.799600  0.991000  1
  H  H312  1  0.111400  0.700400  0.509000  1
  H  H313  1  0.430400  0.100500  0.938200  1
  H  H314  1  0.930400  0.399500  0.561800  1
  H  H315  1  0.569600  0.899500  0.061800  1
  H  H316  1  0.069600  0.600500  0.438200  1
  H  H317  1  0.467000  0.013000  0.909400  1
  H  H318  1  0.967000  0.487000  0.590600  1
  H  H319  1  0.533000  0.987000  0.090600  1
  H  H320  1  0.033000  0.513000  0.409400  1
  H  H321  1  0.439200  0.928500  0.895500  1
  H  H322  1  0.939200  0.571500  0.604500  1
  H  H323  1  0.560800  0.071500  0.104500  1
  H  H324  1  0.060800  0.428500  0.395500  1
  H  H325  1  0.351000  0.900400  0.927100  1
  H  H326  1  0.851000  0.599600  0.572900  1
  H  H327  1  0.649000  0.099600  0.072900  1
  H  H328  1  0.149000  0.400400  0.427100  1
  H  H329  1  0.289700  0.957800  0.972300  1
  H  H330  1  0.789700  0.542200  0.527700  1
  H  H331  1  0.710300  0.042200  0.027700  1
  H  H332  1  0.210300  0.457800  0.472300  1
  H  H333  1  0.255300  0.054100  0.005900  1
  H  H334  1  0.755300  0.445900  0.494100  1
  H  H335  1  0.744700  0.945900  0.994100  1
  H  H336  1  0.244700  0.554100  0.505900  1
  H  H337  1  0.062100  0.085700  0.054700  1
  H  H338  1  0.562100  0.414300  0.445300  1
  H  H339  1  0.937900  0.914300  0.945300  1
  H  H340  1  0.437900  0.585700  0.554700  1
  H  H341  1  0.119400  0.107700  0.007600  1
  H  H342  1  0.619400  0.392300  0.492400  1
  H  H343  1  0.880600  0.892300  0.992400  1
  H  H344  1  0.380600  0.607700  0.507600  1
  H  H345  1  0.295200  0.174500  0.044400  1
  H  H346  1  0.795200  0.325500  0.455600  1
  H  H347  1  0.704800  0.825500  0.955600  1
  H  H348  1  0.204800  0.674500  0.544400  1
  H  H349  1  0.238700  0.177400  0.015100  1
  H  H350  1  0.738700  0.322600  0.484900  1
  H  H351  1  0.761300  0.822600  0.984900  1
  H  H352  1  0.261300  0.677400  0.515100  1
  H  H353  1  0.038400  0.083200  0.116100  1
  H  H354  1  0.538400  0.416800  0.383900  1
  H  H355  1  0.961600  0.916800  0.883900  1
  H  H356  1  0.461600  0.583200  0.616100  1
  H  H357  1  0.042500  0.069900  0.170500  1
  H  H358  1  0.542500  0.430100  0.329500  1
  H  H359  1  0.957500  0.930100  0.829500  1
  H  H360  1  0.457500  0.569900  0.670500  1
  H  H361  1  0.145400  0.082900  0.201700  1
  H  H362  1  0.645400  0.417100  0.298300  1
  H  H363  1  0.854600  0.917100  0.798300  1
  H  H364  1  0.354600  0.582900  0.701700  1
  H  H365  1  0.246800  0.107400  0.182000  1
  H  H366  1  0.746800  0.392600  0.318000  1
  H  H367  1  0.753200  0.892600  0.818000  1
  H  H368  1  0.253200  0.607400  0.682000  1
  H  H369  1  0.448800  0.227000  0.223700  1
  H  H370  1  0.948800  0.273000  0.276300  1
  H  H371  1  0.551200  0.773000  0.776300  1
  H  H372  1  0.051200  0.727000  0.723700  1
  H  H373  1  0.525800  0.160000  0.219500  1
  H  H374  1  0.025800  0.340000  0.280500  1
  H  H375  1  0.474200  0.840000  0.780500  1
  H  H376  1  0.974200  0.660000  0.719500  1
  H  H377  1  0.523600  0.085800  0.175500  1
  H  H378  1  0.023600  0.414200  0.324500  1
  H  H379  1  0.476400  0.914200  0.824500  1
  H  H380  1  0.976400  0.585800  0.675500  1
  H  H381  1  0.421600  0.069300  0.131700  1
  H  H382  1  0.921600  0.430700  0.368300  1
  H  H383  1  0.578400  0.930700  0.868300  1
  H  H384  1  0.078400  0.569300  0.631700  1
  H  H385  1  0.335300  0.283800  0.230100  1
  H  H386  1  0.835300  0.216200  0.269900  1
  H  H387  1  0.664700  0.716200  0.769900  1
  H  H388  1  0.164700  0.783800  0.730100  1
  H  H389  1  0.230400  0.318000  0.203100  1
  H  H390  1  0.730400  0.182000  0.296900  1
  H  H391  1  0.769600  0.682000  0.796900  1
  H  H392  1  0.269600  0.818000  0.703100  1
  H  H393  1  0.196700  0.239100  0.113700  1
  H  H394  1  0.696700  0.260900  0.386300  1
  H  H395  1  0.803300  0.760900  0.886300  1
  H  H396  1  0.303300  0.739100  0.613700  1
  H  H397  1  0.176300  0.294200  0.140800  1
  H  H398  1  0.676300  0.205800  0.359200  1
  H  H399  1  0.823700  0.705800  0.859200  1
  H  H400  1  0.323700  0.794200  0.640800  1
  H  H401  1  0.137500  0.230500  0.192000  1
  H  H402  1  0.637500  0.269500  0.308000  1
  H  H403  1  0.862500  0.769500  0.808000  1
  H  H404  1  0.362500  0.730500  0.692000  1
  H  H405  1  0.051300  0.203100  0.231400  1
  H  H406  1  0.551300  0.296900  0.268600  1
  H  H407  1  0.948700  0.796900  0.768600  1
  H  H408  1  0.448700  0.703100  0.731400  1
  H  H409  1  0.941000  0.158300  0.236700  1
  H  H410  1  0.441000  0.341700  0.263300  1
  H  H411  1  0.059000  0.841700  0.763300  1
  H  H412  1  0.559000  0.658300  0.736700  1
  H  H413  1  0.852800  0.144400  0.194700  1
  H  H414  1  0.352800  0.355600  0.305300  1
  H  H415  1  0.147200  0.855600  0.805300  1
  H  H416  1  0.647200  0.644400  0.694700  1
  H  H417  1  0.869900  0.169700  0.146200  1
  H  H418  1  0.369900  0.330300  0.353800  1
  H  H419  1  0.130100  0.830300  0.853800  1
  H  H420  1  0.630100  0.669700  0.646200  1
  H  H421  1  0.950200  0.206400  0.109100  1
  H  H422  1  0.450200  0.293600  0.390900  1
  H  H423  1  0.049800  0.793600  0.890900  1
  H  H424  1  0.549800  0.706400  0.609100  1
  H  H425  1  0.883000  0.198000  0.012700  1
  H  H426  1  0.383000  0.302000  0.487300  1
  H  H427  1  0.117000  0.802000  0.987300  1
  H  H428  1  0.617000  0.698000  0.512700  1
  H  H429  1  0.999500  0.174000  0.033500  1
  H  H430  1  0.499500  0.326000  0.466500  1
  H  H431  1  0.000500  0.826000  0.966500  1
  H  H432  1  0.500500  0.674000  0.533500  1
  H  H433  1  0.090100  0.281900  0.098900  1
  H  H434  1  0.590100  0.218100  0.401100  1
  H  H435  1  0.909900  0.718100  0.901100  1
  H  H436  1  0.409900  0.781900  0.598900  1
  H  H437  1  0.104500  0.223300  0.076100  1
  H  H438  1  0.604500  0.276700  0.423900  1
  H  H439  1  0.895500  0.776700  0.923900  1
  H  H440  1  0.395500  0.723300  0.576100  1
  H  H441  1  0.792200  0.259400  0.004700  1
  H  H442  1  0.292200  0.240600  0.495300  1
  H  H443  1  0.207800  0.740600  0.995300  1
  H  H444  1  0.707800  0.759400  0.504700  1
  H  H445  1  0.703900  0.320800  0.011500  1
  H  H446  1  0.203900  0.179200  0.488500  1
  H  H447  1  0.296100  0.679200  0.988500  1
  H  H448  1  0.796100  0.820800  0.511500  1
  H  H449  1  0.707300  0.403100  0.049400  1
  H  H450  1  0.207300  0.096900  0.450600  1
  H  H451  1  0.292700  0.596900  0.950600  1
  H  H452  1  0.792700  0.903100  0.549400  1
  H  H453  1  0.800000  0.421800  0.093100  1
  H  H454  1  0.300000  0.078200  0.406900  1
  H  H455  1  0.200000  0.578200  0.906900  1
  H  H456  1  0.700000  0.921800  0.593100  1
  H  H457  1  0.102300  0.310600  0.869200  1
  H  H458  1  0.602300  0.189400  0.630800  1
  H  H459  1  0.897700  0.689400  0.130800  1
  H  H460  1  0.397700  0.810600  0.369200  1
  H  H461  1  0.043200  0.240400  0.824600  1
  H  H462  1  0.543200  0.259600  0.675400  1
  H  H463  1  0.956800  0.759600  0.175400  1
  H  H464  1  0.456800  0.740400  0.324600  1
  H  H465  1  0.074000  0.157700  0.814800  1
  H  H466  1  0.574000  0.342300  0.685200  1
  H  H467  1  0.926000  0.842300  0.185200  1
  H  H468  1  0.426000  0.657700  0.314800  1
  H  H469  1  0.190200  0.143100  0.848300  1
  H  H470  1  0.690200  0.356900  0.651700  1
  H  H471  1  0.809800  0.856900  0.151700  1
  H  H472  1  0.309800  0.643100  0.348300  1
  H  H473  1  0.152200  0.369400  0.917600  1
  H  H474  1  0.652200  0.130600  0.582400  1
  H  H475  1  0.847800  0.630600  0.082400  1
  H  H476  1  0.347800  0.869400  0.417600  1
  H  H477  1  0.234200  0.407900  0.975600  1
  H  H478  1  0.734200  0.092100  0.524400  1
  H  H479  1  0.765800  0.592100  0.024400  1
  H  H480  1  0.265800  0.907900  0.475600  1
  H  H481  1  0.340500  0.300700  0.984100  1
  H  H482  1  0.840500  0.199300  0.515900  1
  H  H483  1  0.659500  0.699300  0.015900  1
  H  H484  1  0.159500  0.800700  0.484100  1
  H  H485  1  0.326400  0.360600  0.002500  1
  H  H486  1  0.826400  0.139400  0.497500  1
  H  H487  1  0.673600  0.639400  0.997500  1
  H  H488  1  0.173600  0.860600  0.502500  1
  H  H489  1  0.399800  0.336300  0.922000  1
  H  H490  1  0.899800  0.163700  0.578000  1
  H  H491  1  0.600200  0.663700  0.078000  1
  H  H492  1  0.100200  0.836300  0.422000  1
  H  H493  1  0.496500  0.337400  0.878600  1
  H  H494  1  0.996500  0.162600  0.621400  1
  H  H495  1  0.503500  0.662600  0.121400  1
  H  H496  1  0.003500  0.837400  0.378600  1
  H  H497  1  0.607300  0.354500  0.867200  1
  H  H498  1  0.107300  0.145500  0.632800  1
  H  H499  1  0.392700  0.645500  0.132800  1
  H  H500  1  0.892700  0.854500  0.367200  1
  H  H501  1  0.693900  0.385400  0.913600  1
  H  H502  1  0.193900  0.114600  0.586400  1
  H  H503  1  0.306100  0.614600  0.086400  1
  H  H504  1  0.806100  0.885400  0.413600  1
  H  H505  1  0.677100  0.373000  0.964700  1
  H  H506  1  0.177100  0.127000  0.535300  1
  H  H507  1  0.322900  0.627000  0.035300  1
  H  H508  1  0.822900  0.873000  0.464700  1
  H  H509  1  0.567200  0.378700  0.015000  1
  H  H510  1  0.067200  0.121300  0.485000  1
  H  H511  1  0.432800  0.621300  0.985000  1
  H  H512  1  0.932800  0.878700  0.515000  1
  H  H513  1  0.634700  0.296700  0.082100  1
  H  H514  1  0.134700  0.203300  0.417900  1
  H  H515  1  0.365300  0.703300  0.917900  1
  H  H516  1  0.865300  0.796700  0.582100  1
  H  H517  1  0.539100  0.279100  0.030900  1
  H  H518  1  0.039100  0.220900  0.469100  1
  H  H519  1  0.460900  0.720900  0.969100  1
  H  H520  1  0.960900  0.779100  0.530900  1
  H  H521  1  0.403100  0.332100  0.033000  1
  H  H522  1  0.903100  0.167900  0.467000  1
  H  H523  1  0.596900  0.667900  0.967000  1
  H  H524  1  0.096900  0.832100  0.533000  1
  H  H525  1  0.418100  0.392500  0.048000  1
  H  H526  1  0.918100  0.107500  0.452000  1
  H  H527  1  0.581900  0.607500  0.952000  1
  H  H528  1  0.081900  0.892500  0.548000  1
  H  H529  1  0.694100  0.342300  0.133500  1
  H  H530  1  0.194100  0.157700  0.366500  1
  H  H531  1  0.305900  0.657700  0.866500  1
  H  H532  1  0.805900  0.842300  0.633500  1
  H  H533  1  0.745300  0.388000  0.186900  1
  H  H534  1  0.245300  0.112000  0.313100  1
  H  H535  1  0.254700  0.612000  0.813100  1
  H  H536  1  0.754700  0.888000  0.686900  1
  H  H537  1  0.703500  0.476600  0.212900  1
  H  H538  1  0.203500  0.023400  0.287100  1
  H  H539  1  0.296500  0.523400  0.787100  1
  H  H540  1  0.796500  0.976600  0.712900  1
  H  H541  1  0.601800  0.503200  0.189700  1
  H  H542  1  0.101800  0.996800  0.310300  1
  H  H543  1  0.398200  0.496800  0.810300  1
  H  H544  1  0.898200  0.003200  0.689700  1
  C  C545  1  0.390400  0.059500  0.063100  1
  C  C546  1  0.890400  0.440500  0.436900  1
  C  C547  1  0.609600  0.940500  0.936900  1
  C  C548  1  0.109600  0.559500  0.563100  1
  C  C549  1  0.418200  0.012600  0.040400  1
  C  C550  1  0.918200  0.487400  0.459600  1
  C  C551  1  0.581800  0.987400  0.959600  1
  C  C552  1  0.081800  0.512600  0.540400  1
  C  C553  1  0.384000  0.967700  0.041900  1
  C  C554  1  0.884000  0.532300  0.458100  1
  C  C555  1  0.616000  0.032300  0.958100  1
  C  C556  1  0.116000  0.467700  0.541900  1
  C  C557  1  0.323000  0.964600  0.060600  1
  C  C558  1  0.823000  0.535400  0.439400  1
  C  C559  1  0.677000  0.035400  0.939400  1
  C  C560  1  0.177000  0.464600  0.560600  1
  C  C561  1  0.304000  0.019300  0.081500  1
  C  C562  1  0.804000  0.480700  0.418500  1
  C  C563  1  0.696000  0.980700  0.918500  1
  C  C564  1  0.196000  0.519300  0.581500  1
  C  C565  1  0.421000  0.107500  0.062000  1
  C  C566  1  0.921000  0.392500  0.438000  1
  C  C567  1  0.579000  0.892500  0.938000  1
  C  C568  1  0.079000  0.607500  0.562000  1
  C  C569  1  0.477000  0.123500  0.047100  1
  C  C570  1  0.977000  0.376500  0.452900  1
  C  C571  1  0.523000  0.876500  0.952900  1
  C  C572  1  0.023000  0.623500  0.547100  1
  C  C573  1  0.488400  0.173900  0.058400  1
  C  C574  1  0.988400  0.326100  0.441600  1
  C  C575  1  0.511600  0.826100  0.941600  1
  C  C576  1  0.011600  0.673900  0.558400  1
  C  C577  1  0.424000  0.245000  0.104200  1
  C  C578  1  0.924000  0.255000  0.395800  1
  C  C579  1  0.576000  0.755000  0.895800  1
  C  C580  1  0.076000  0.745000  0.604200  1
  C  C581  1  0.475700  0.264100  0.135700  1
  C  C582  1  0.975700  0.235900  0.364300  1
  C  C583  1  0.524300  0.735900  0.864300  1
  C  C584  1  0.024300  0.764100  0.635700  1
  C  C585  1  0.527800  0.235200  0.141800  1
  C  C586  1  0.027800  0.264800  0.358200  1
  C  C587  1  0.472200  0.764800  0.858200  1
  C  C588  1  0.972200  0.735200  0.641800  1
  C  C589  1  0.576100  0.255400  0.171700  1
  C  C590  1  0.076100  0.244600  0.328300  1
  C  C591  1  0.423900  0.744600  0.828300  1
  C  C592  1  0.923900  0.755400  0.671700  1
  C  C593  1  0.629700  0.221200  0.177700  1
  C  C594  1  0.129700  0.278800  0.322300  1
  C  C595  1  0.370300  0.778800  0.822300  1
  C  C596  1  0.870300  0.721200  0.677700  1
  C  C597  1  0.679000  0.248400  0.204700  1
  C  C598  1  0.179000  0.251600  0.295300  1
  C  C599  1  0.321000  0.751600  0.795300  1
  C  C600  1  0.821000  0.748400  0.704700  1
  C  C601  1  0.675000  0.298700  0.224700  1
  C  C602  1  0.175000  0.201300  0.275300  1
  C  C603  1  0.325000  0.701300  0.775300  1
  C  C604  1  0.825000  0.798700  0.724700  1
  C  C605  1  0.621600  0.331300  0.218400  1
  C  C606  1  0.121600  0.168700  0.281600  1
  C  C607  1  0.378400  0.668700  0.781600  1
  C  C608  1  0.878400  0.831300  0.718400  1
  C  C609  1  0.575000  0.308100  0.190400  1
  C  C610  1  0.075000  0.191900  0.309600  1
  C  C611  1  0.425000  0.691900  0.809600  1
  C  C612  1  0.925000  0.808100  0.690400  1
  C  C613  1  0.516200  0.336800  0.181300  1
  C  C614  1  0.016200  0.163200  0.318700  1
  C  C615  1  0.483800  0.663200  0.818700  1
  C  C616  1  0.983800  0.836800  0.681300  1
  C  C617  1  0.469900  0.313600  0.154100  1
  C  C618  1  0.969900  0.186400  0.345900  1
  C  C619  1  0.530100  0.686400  0.845900  1
  C  C620  1  0.030100  0.813600  0.654100  1
  C  C621  1  0.408300  0.481500  0.192500  1
  C  C622  1  0.908300  0.018500  0.307500  1
  C  C623  1  0.591700  0.518500  0.807500  1
  C  C624  1  0.091700  0.981500  0.692500  1
  C  C625  1  0.369000  0.464000  0.216100  1
  C  C626  1  0.869000  0.036000  0.283900  1
  C  C627  1  0.631000  0.536000  0.783900  1
  C  C628  1  0.131000  0.964000  0.716100  1
  C  C629  1  0.363900  0.412800  0.201700  1
  C  C630  1  0.863900  0.087200  0.298300  1
  C  C631  1  0.636100  0.587200  0.798300  1
  C  C632  1  0.136100  0.912800  0.701700  1
  C  C633  1  0.407000  0.348900  0.147700  1
  C  C634  1  0.907000  0.151100  0.352300  1
  C  C635  1  0.593000  0.651100  0.852300  1
  C  C636  1  0.093000  0.848900  0.647700  1
  C  C637  1  0.428900  0.529800  0.194700  1
  C  C638  1  0.928900  0.970200  0.305300  1
  C  C639  1  0.571100  0.470200  0.805300  1
  C  C640  1  0.071100  0.029800  0.694700  1
  C  C641  1  0.413000  0.576100  0.222900  1
  C  C642  1  0.913000  0.923900  0.277100  1
  C  C643  1  0.587000  0.423900  0.777100  1
  C  C644  1  0.087000  0.076100  0.722900  1
  C  C645  1  0.439000  0.624300  0.222800  1
  C  C646  1  0.939000  0.875700  0.277200  1
  C  C647  1  0.561000  0.375700  0.777200  1
  C  C648  1  0.061000  0.124300  0.722800  1
  C  C649  1  0.481900  0.625900  0.196500  1
  C  C650  1  0.981900  0.874100  0.303500  1
  C  C651  1  0.518100  0.374100  0.803500  1
  C  C652  1  0.018100  0.125900  0.696500  1
  C  C653  1  0.498000  0.581600  0.169600  1
  C  C654  1  0.998000  0.918400  0.330400  1
  C  C655  1  0.502000  0.418400  0.830400  1
  C  C656  1  0.002000  0.081600  0.669600  1
  C  C657  1  0.517000  0.503700  0.070700  1
  C  C658  1  0.017000  0.996300  0.429300  1
  C  C659  1  0.483000  0.496300  0.929300  1
  C  C660  1  0.983000  0.003700  0.570700  1
  C  C661  1  0.557000  0.525400  0.048100  1
  C  C662  1  0.057000  0.974600  0.451900  1
  C  C663  1  0.443000  0.474600  0.951900  1
  C  C664  1  0.943000  0.025400  0.548100  1
  C  C665  1  0.629000  0.530000  0.048900  1
  C  C666  1  0.129000  0.970000  0.451100  1
  C  C667  1  0.371000  0.470000  0.951100  1
  C  C668  1  0.871000  0.030000  0.548900  1
  C  C669  1  0.667000  0.521600  0.073600  1
  C  C670  1  0.167000  0.978400  0.426400  1
  C  C671  1  0.333000  0.478400  0.926400  1
  C  C672  1  0.833000  0.021600  0.573600  1
  C  C673  1  0.626000  0.503200  0.097300  1
  C  C674  1  0.126000  0.996800  0.402700  1
  C  C675  1  0.374000  0.496800  0.902700  1
  C  C676  1  0.874000  0.003200  0.597300  1
  C  C677  1  0.444000  0.495200  0.070500  1
  C  C678  1  0.944000  0.004800  0.429500  1
  C  C679  1  0.556000  0.504800  0.929500  1
  C  C680  1  0.056000  0.995200  0.570500  1
  C  C681  1  0.389000  0.504500  0.050200  1
  C  C682  1  0.889000  0.995500  0.449800  1
  C  C683  1  0.611000  0.495500  0.949800  1
  C  C684  1  0.111000  0.004500  0.550200  1
  C  C685  1  0.326000  0.484600  0.060900  1
  C  C686  1  0.826000  0.015400  0.439100  1
  C  C687  1  0.674000  0.515400  0.939100  1
  C  C688  1  0.174000  0.984600  0.560900  1
  C  C689  1  0.296000  0.455500  0.108600  1
  C  C690  1  0.796000  0.044500  0.391400  1
  C  C691  1  0.704000  0.544500  0.891400  1
  C  C692  1  0.204000  0.955500  0.608600  1
  C  C693  1  0.241300  0.494000  0.130400  1
  C  C694  1  0.741300  0.006000  0.369600  1
  C  C695  1  0.758700  0.506000  0.869600  1
  C  C696  1  0.258700  0.994000  0.630400  1
  C  C697  1  0.263000  0.544200  0.143900  1
  C  C698  1  0.763000  0.955800  0.356100  1
  C  C699  1  0.737000  0.455800  0.856100  1
  C  C700  1  0.237000  0.044200  0.643900  1
  C  C701  1  0.206000  0.582100  0.164900  1
  C  C702  1  0.706000  0.917900  0.335100  1
  C  C703  1  0.794000  0.417900  0.835100  1
  C  C704  1  0.294000  0.082100  0.664900  1
  C  C705  1  0.230000  0.635700  0.178400  1
  C  C706  1  0.730000  0.864300  0.321600  1
  C  C707  1  0.770000  0.364300  0.821600  1
  C  C708  1  0.270000  0.135700  0.678400  1
  C  C709  1  0.179000  0.680000  0.197700  1
  C  C710  1  0.679000  0.820000  0.302300  1
  C  C711  1  0.821000  0.320000  0.802300  1
  C  C712  1  0.321000  0.180000  0.697700  1
  C  C713  1  0.113000  0.658000  0.199800  1
  C  C714  1  0.613000  0.842000  0.300200  1
  C  C715  1  0.887000  0.342000  0.800200  1
  C  C716  1  0.387000  0.158000  0.699800  1
  C  C717  1  0.082000  0.606000  0.190500  1
  C  C718  1  0.582000  0.894000  0.309500  1
  C  C719  1  0.918000  0.394000  0.809500  1
  C  C720  1  0.418000  0.106000  0.690500  1
  C  C721  1  0.142000  0.568200  0.166600  1
  C  C722  1  0.642000  0.931800  0.333400  1
  C  C723  1  0.858000  0.431800  0.833400  1
  C  C724  1  0.358000  0.068200  0.666600  1
  C  C725  1  0.117000  0.517600  0.151400  1
  C  C726  1  0.617000  0.982400  0.348600  1
  C  C727  1  0.883000  0.482400  0.848600  1
  C  C728  1  0.383000  0.017600  0.651400  1
  C  C729  1  0.167600  0.481900  0.135500  1
  C  C730  1  0.667600  0.018100  0.364500  1
  C  C731  1  0.832400  0.518100  0.864500  1
  C  C732  1  0.332400  0.981900  0.635500  1
  C  C733  1  0.040000  0.366000  0.169200  1
  C  C734  1  0.540000  0.134000  0.330800  1
  C  C735  1  0.960000  0.634000  0.830800  1
  C  C736  1  0.460000  0.866000  0.669200  1
  C  C737  1  0.107000  0.379600  0.191100  1
  C  C738  1  0.607000  0.120400  0.308900  1
  C  C739  1  0.893000  0.620400  0.808900  1
  C  C740  1  0.393000  0.879600  0.691100  1
  C  C741  1  0.145000  0.403000  0.174100  1
  C  C742  1  0.645000  0.097000  0.325900  1
  C  C743  1  0.855000  0.597000  0.825900  1
  C  C744  1  0.355000  0.903000  0.674100  1
  C  C745  1  0.144000  0.424800  0.119600  1
  C  C746  1  0.644000  0.075200  0.380400  1
  C  C747  1  0.856000  0.575200  0.880400  1
  C  C748  1  0.356000  0.924800  0.619600  1
  C  C749  1  0.967500  0.345700  0.171200  1
  C  C750  1  0.467500  0.154300  0.328800  1
  C  C751  1  0.032500  0.654300  0.828800  1
  C  C752  1  0.532500  0.845700  0.671200  1
  C  C753  1  0.952000  0.327900  0.199400  1
  C  C754  1  0.452000  0.172100  0.300600  1
  C  C755  1  0.048000  0.672100  0.800600  1
  C  C756  1  0.548000  0.827900  0.699400  1
  C  C757  1  0.885700  0.307000  0.200100  1
  C  C758  1  0.385700  0.193000  0.299900  1
  C  C759  1  0.114300  0.693000  0.799900  1
  C  C760  1  0.614300  0.807000  0.700100  1
  C  C761  1  0.833000  0.300600  0.173200  1
  C  C762  1  0.333000  0.199400  0.326800  1
  C  C763  1  0.167000  0.699400  0.826800  1
  C  C764  1  0.667000  0.800600  0.673200  1
  C  C765  1  0.855600  0.316800  0.145800  1
  C  C766  1  0.355600  0.183200  0.354200  1
  C  C767  1  0.144400  0.683200  0.854200  1
  C  C768  1  0.644400  0.816800  0.645800  1
  C  C769  1  0.928600  0.476200  0.110600  1
  C  C770  1  0.428600  0.023800  0.389400  1
  C  C771  1  0.071400  0.523800  0.889400  1
  C  C772  1  0.571400  0.976200  0.610600  1
  C  C773  1  0.897000  0.525800  0.121100  1
  C  C774  1  0.397000  0.974200  0.378900  1
  C  C775  1  0.103000  0.474200  0.878900  1
  C  C776  1  0.603000  0.025800  0.621100  1
  C  C777  1  0.859000  0.541300  0.154800  1
  C  C778  1  0.359000  0.958700  0.345200  1
  C  C779  1  0.141000  0.458700  0.845200  1
  C  C780  1  0.641000  0.041300  0.654800  1
  C  C781  1  0.845000  0.512000  0.173400  1
  C  C782  1  0.345000  0.988000  0.326600  1
  C  C783  1  0.155000  0.488000  0.826600  1
  C  C784  1  0.655000  0.012000  0.673400  1
  C  C785  1  0.882000  0.459000  0.159800  1
  C  C786  1  0.382000  0.041000  0.340200  1
  C  C787  1  0.118000  0.541000  0.840200  1
  C  C788  1  0.618000  0.959000  0.659800  1
  C  C789  1  0.969000  0.452100  0.077900  1
  C  C790  1  0.469000  0.047900  0.422100  1
  C  C791  1  0.031000  0.547900  0.922100  1
  C  C792  1  0.531000  0.952100  0.577900  1
  C  C793  1  0.996000  0.474400  0.055500  1
  C  C794  1  0.496000  0.025600  0.444500  1
  C  C795  1  0.004000  0.525600  0.944500  1
  C  C796  1  0.504000  0.974400  0.555500  1
  C  C797  1  0.038000  0.437600  0.030900  1
  C  C798  1  0.538000  0.062400  0.469100  1
  C  C799  1  0.962000  0.562400  0.969100  1
  C  C800  1  0.462000  0.937600  0.530900  1
  C  C801  1  0.062300  0.346300  0.023500  1
  C  C802  1  0.562300  0.153700  0.476500  1
  C  C803  1  0.937700  0.653700  0.976500  1
  C  C804  1  0.437700  0.846300  0.523500  1
  C  C805  1  0.025700  0.315100  0.989800  1
  C  C806  1  0.525700  0.184900  0.510200  1
  C  C807  1  0.974300  0.684900  0.010200  1
  C  C808  1  0.474300  0.815100  0.489800  1
  C  C809  1  0.957000  0.326100  0.982600  1
  C  C810  1  0.457000  0.173900  0.517400  1
  C  C811  1  0.043000  0.673900  0.017400  1
  C  C812  1  0.543000  0.826100  0.482600  1
  C  C813  1  0.920800  0.296800  0.949000  1
  C  C814  1  0.420800  0.203200  0.551000  1
  C  C815  1  0.079200  0.703200  0.051000  1
  C  C816  1  0.579200  0.796800  0.449000  1
  C  C817  1  0.849000  0.310100  0.942600  1
  C  C818  1  0.349000  0.189900  0.557400  1
  C  C819  1  0.151000  0.689900  0.057400  1
  C  C820  1  0.651000  0.810100  0.442600  1
  C  C821  1  0.824000  0.291000  0.910800  1
  C  C822  1  0.324000  0.209000  0.589200  1
  C  C823  1  0.176000  0.709000  0.089200  1
  C  C824  1  0.676000  0.791000  0.410800  1
  C  C825  1  0.862000  0.249100  0.884800  1
  C  C826  1  0.362000  0.250900  0.615200  1
  C  C827  1  0.138000  0.750900  0.115200  1
  C  C828  1  0.638000  0.749100  0.384800  1
  C  C829  1  0.926000  0.235300  0.892300  1
  C  C830  1  0.426000  0.264700  0.607700  1
  C  C831  1  0.074000  0.764700  0.107700  1
  C  C832  1  0.574000  0.735300  0.392300  1
  C  C833  1  0.959000  0.257100  0.923700  1
  C  C834  1  0.459000  0.242900  0.576300  1
  C  C835  1  0.041000  0.742900  0.076300  1
  C  C836  1  0.541000  0.757100  0.423700  1
  C  C837  1  0.030500  0.243100  0.934500  1
  C  C838  1  0.530500  0.256900  0.565500  1
  C  C839  1  0.969500  0.756900  0.065500  1
  C  C840  1  0.469500  0.743100  0.434500  1
  C  C841  1  0.062100  0.273700  0.966800  1
  C  C842  1  0.562100  0.226300  0.533200  1
  C  C843  1  0.937900  0.726300  0.033200  1
  C  C844  1  0.437900  0.773700  0.466800  1
  C  C845  1  0.196800  0.133100  0.924800  1
  C  C846  1  0.696800  0.366900  0.575200  1
  C  C847  1  0.803200  0.866900  0.075200  1
  C  C848  1  0.303200  0.633100  0.424800  1
  C  C849  1  0.133600  0.117300  0.939600  1
  C  C850  1  0.633600  0.382700  0.560400  1
  C  C851  1  0.866400  0.882700  0.060400  1
  C  C852  1  0.366400  0.617300  0.439600  1
  C  C853  1  0.103500  0.161900  0.960000  1
  C  C854  1  0.603500  0.338100  0.540000  1
  C  C855  1  0.896500  0.838100  0.040000  1
  C  C856  1  0.396500  0.661900  0.460000  1
  C  C857  1  0.136800  0.258200  0.975600  1
  C  C858  1  0.636800  0.241800  0.524400  1
  C  C859  1  0.863200  0.741800  0.024400  1
  C  C860  1  0.363200  0.758200  0.475600  1
  C  C861  1  0.248400  0.104000  0.902200  1
  C  C862  1  0.748400  0.396000  0.597800  1
  C  C863  1  0.751600  0.896000  0.097800  1
  C  C864  1  0.251600  0.604000  0.402200  1
  C  C865  1  0.253000  0.046700  0.890200  1
  C  C866  1  0.753000  0.453300  0.609800  1
  C  C867  1  0.747000  0.953300  0.109800  1
  C  C868  1  0.247000  0.546700  0.390200  1
  C  C869  1  0.295800  0.019200  0.864200  1
  C  C870  1  0.795800  0.480800  0.635800  1
  C  C871  1  0.704200  0.980800  0.135800  1
  C  C872  1  0.204200  0.519200  0.364200  1
  C  C873  1  0.346400  0.045100  0.850400  1
  C  C874  1  0.846400  0.454900  0.649600  1
  C  C875  1  0.653600  0.954900  0.149600  1
  C  C876  1  0.153600  0.545100  0.350400  1
  C  C877  1  0.342000  0.101000  0.862600  1
  C  C878  1  0.842000  0.399000  0.637400  1
  C  C879  1  0.658000  0.899000  0.137400  1
  C  C880  1  0.158000  0.601000  0.362600  1
  C  C881  1  0.433000  0.222400  0.880200  1
  C  C882  1  0.933000  0.277600  0.619800  1
  C  C883  1  0.567000  0.777600  0.119800  1
  C  C884  1  0.067000  0.722400  0.380200  1
  C  C885  1  0.492000  0.229600  0.858900  1
  C  C886  1  0.992000  0.270400  0.641100  1
  C  C887  1  0.508000  0.770400  0.141100  1
  C  C888  1  0.008000  0.729600  0.358900  1
  C  C889  1  0.470000  0.235500  0.828000  1
  C  C890  1  0.970000  0.264500  0.672000  1
  C  C891  1  0.530000  0.764500  0.172000  1
  C  C892  1  0.030000  0.735500  0.328000  1
  C  C893  1  0.400000  0.230300  0.815300  1
  C  C894  1  0.900000  0.269700  0.684700  1
  C  C895  1  0.600000  0.769700  0.184700  1
  C  C896  1  0.100000  0.730300  0.315300  1
  C  C897  1  0.347000  0.225800  0.838600  1
  C  C898  1  0.847000  0.274200  0.661400  1
  C  C899  1  0.653000  0.774200  0.161400  1
  C  C900  1  0.153000  0.725800  0.338600  1
  C  C901  1  0.447100  0.215100  0.913700  1
  C  C902  1  0.947100  0.284900  0.586300  1
  C  C903  1  0.552900  0.784900  0.086300  1
  C  C904  1  0.052900  0.715100  0.413700  1
  C  C905  1  0.506000  0.210900  0.931900  1
  C  C906  1  0.006000  0.289100  0.568100  1
  C  C907  1  0.494000  0.789100  0.068100  1
  C  C908  1  0.994000  0.710900  0.431900  1
  C  C909  1  0.486000  0.198800  0.963100  1
  C  C910  1  0.986000  0.301200  0.536900  1
  C  C911  1  0.514000  0.801200  0.036900  1
  C  C912  1  0.014000  0.698800  0.463100  1
  C  C913  1  0.367800  0.184700  0.985200  1
  C  C914  1  0.867800  0.315300  0.514800  1
  C  C915  1  0.632200  0.815300  0.014800  1
  C  C916  1  0.132200  0.684700  0.485200  1
  C  C917  1  0.360000  0.128300  0.977800  1
  C  C918  1  0.860000  0.371700  0.522200  1
  C  C919  1  0.640000  0.871700  0.022200  1
  C  C920  1  0.140000  0.628300  0.477800  1
  C  C921  1  0.395800  0.090400  0.952200  1
  C  C922  1  0.895800  0.409600  0.547800  1
  C  C923  1  0.604200  0.909600  0.047800  1
  C  C924  1  0.104200  0.590400  0.452200  1
  C  C925  1  0.385200  0.040200  0.945500  1
  C  C926  1  0.885200  0.459800  0.554500  1
  C  C927  1  0.614800  0.959800  0.054500  1
  C  C928  1  0.114800  0.540200  0.445500  1
  C  C929  1  0.427900  0.002800  0.920900  1
  C  C930  1  0.927900  0.497200  0.579100  1
  C  C931  1  0.572100  0.997200  0.079100  1
  C  C932  1  0.072100  0.502800  0.420900  1
  C  C933  1  0.413000  0.953100  0.913800  1
  C  C934  1  0.913000  0.546900  0.586200  1
  C  C935  1  0.587000  0.046900  0.086200  1
  C  C936  1  0.087000  0.453100  0.413800  1
  C  C937  1  0.360000  0.936000  0.932800  1
  C  C938  1  0.860000  0.564000  0.567200  1
  C  C939  1  0.640000  0.064000  0.067200  1
  C  C940  1  0.140000  0.436000  0.432800  1
  C  C941  1  0.323000  0.969400  0.958500  1
  C  C942  1  0.823000  0.530600  0.541500  1
  C  C943  1  0.677000  0.030600  0.041500  1
  C  C944  1  0.177000  0.469400  0.458500  1
  C  C945  1  0.333000  0.024000  0.965300  1
  C  C946  1  0.833000  0.476000  0.534700  1
  C  C947  1  0.667000  0.976000  0.034700  1
  C  C948  1  0.167000  0.524000  0.465300  1
  C  C949  1  0.291400  0.063500  0.992400  1
  C  C950  1  0.791400  0.436500  0.507600  1
  C  C951  1  0.708600  0.936500  0.007600  1
  C  C952  1  0.208600  0.563500  0.492400  1
  C  C953  1  0.305300  0.111300  0.997300  1
  C  C954  1  0.805300  0.388700  0.502700  1
  C  C955  1  0.694700  0.888700  0.002700  1
  C  C956  1  0.194700  0.611300  0.497300  1
  C  C957  1  0.153400  0.114000  0.085900  1
  C  C958  1  0.653400  0.386000  0.414100  1
  C  C959  1  0.846600  0.886000  0.914100  1
  C  C960  1  0.346600  0.614000  0.585900  1
  C  C961  1  0.109000  0.101000  0.056000  1
  C  C962  1  0.609000  0.399000  0.444000  1
  C  C963  1  0.891000  0.899000  0.944000  1
  C  C964  1  0.391000  0.601000  0.556000  1
  C  C965  1  0.139000  0.112800  0.030300  1
  C  C966  1  0.639000  0.387200  0.469700  1
  C  C967  1  0.861000  0.887200  0.969700  1
  C  C968  1  0.361000  0.612800  0.530300  1
  C  C969  1  0.261100  0.154000  0.026200  1
  C  C970  1  0.761100  0.346000  0.473800  1
  C  C971  1  0.738900  0.846000  0.973800  1
  C  C972  1  0.238900  0.654000  0.526200  1
  C  C973  1  0.149000  0.102100  0.117700  1
  C  C974  1  0.649000  0.397900  0.382300  1
  C  C975  1  0.851000  0.897900  0.882300  1
  C  C976  1  0.351000  0.602100  0.617700  1
  C  C977  1  0.081800  0.087600  0.129500  1
  C  C978  1  0.581800  0.412400  0.370500  1
  C  C979  1  0.918200  0.912400  0.870500  1
  C  C980  1  0.418200  0.587600  0.629500  1
  C  C981  1  0.085000  0.080500  0.161400  1
  C  C982  1  0.585000  0.419500  0.338600  1
  C  C983  1  0.915000  0.919500  0.838600  1
  C  C984  1  0.415000  0.580500  0.661400  1
  C  C985  1  0.144700  0.088000  0.179600  1
  C  C986  1  0.644700  0.412000  0.320400  1
  C  C987  1  0.855300  0.912000  0.820400  1
  C  C988  1  0.355300  0.588000  0.679600  1
  C  C989  1  0.205000  0.102800  0.167400  1
  C  C990  1  0.705000  0.397200  0.332600  1
  C  C991  1  0.795000  0.897200  0.832600  1
  C  C992  1  0.295000  0.602800  0.667400  1
  C  C993  1  0.386700  0.183900  0.179000  1
  C  C994  1  0.886700  0.316100  0.321000  1
  C  C995  1  0.613300  0.816100  0.821000  1
  C  C996  1  0.113300  0.683900  0.679000  1
  C  C997  1  0.444000  0.194800  0.205600  1
  C  C998  1  0.944000  0.305200  0.294400  1
  C  C999  1  0.556000  0.805200  0.794400  1
  C  C1000  1  0.056000  0.694800  0.705600  1
  C  C1001  1  0.489300  0.155200  0.202000  1
  C  C1002  1  0.989300  0.344800  0.298000  1
  C  C1003  1  0.510700  0.844800  0.798000  1
  C  C1004  1  0.010700  0.655200  0.702000  1
  C  C1005  1  0.488000  0.111000  0.177000  1
  C  C1006  1  0.988000  0.389000  0.323000  1
  C  C1007  1  0.512000  0.889000  0.823000  1
  C  C1008  1  0.012000  0.611000  0.677000  1
  C  C1009  1  0.427100  0.101100  0.150200  1
  C  C1010  1  0.927100  0.398900  0.349800  1
  C  C1011  1  0.572900  0.898900  0.849800  1
  C  C1012  1  0.072900  0.601100  0.650200  1
  C  C1013  1  0.330800  0.222600  0.181400  1
  C  C1014  1  0.830800  0.277400  0.318600  1
  C  C1015  1  0.669200  0.777400  0.818600  1
  C  C1016  1  0.169200  0.722600  0.681400  1
  C  C1017  1  0.313000  0.268600  0.207700  1
  C  C1018  1  0.813000  0.231400  0.292300  1
  C  C1019  1  0.687000  0.731400  0.792300  1
  C  C1020  1  0.187000  0.768600  0.707700  1
  C  C1021  1  0.255500  0.286700  0.192500  1
  C  C1022  1  0.755500  0.213300  0.307500  1
  C  C1023  1  0.744500  0.713300  0.807500  1
  C  C1024  1  0.244500  0.786700  0.692500  1
  C  C1025  1  0.182600  0.257600  0.138300  1
  C  C1026  1  0.682600  0.242400  0.361700  1
  C  C1027  1  0.817400  0.742400  0.861700  1
  C  C1028  1  0.317400  0.757600  0.638300  1
  C  C1029  1  0.107900  0.236000  0.145700  1
  C  C1030  1  0.607900  0.264000  0.354300  1
  C  C1031  1  0.892100  0.764000  0.854300  1
  C  C1032  1  0.392100  0.736000  0.645700  1
  C  C1033  1  0.099300  0.224900  0.175300  1
  C  C1034  1  0.599300  0.275100  0.324700  1
  C  C1035  1  0.900700  0.775100  0.824700  1
  C  C1036  1  0.400700  0.724900  0.675300  1
  C  C1037  1  0.028200  0.203300  0.181500  1
  C  C1038  1  0.528200  0.296700  0.318500  1
  C  C1039  1  0.971800  0.796700  0.818500  1
  C  C1040  1  0.471800  0.703300  0.681500  1
  C  C1041  1  0.016400  0.193700  0.213000  1
  C  C1042  1  0.516400  0.306300  0.287000  1
  C  C1043  1  0.983600  0.806300  0.787000  1
  C  C1044  1  0.483600  0.693700  0.713000  1
  C  C1045  1  0.948600  0.168600  0.216700  1
  C  C1046  1  0.448600  0.331400  0.283300  1
  C  C1047  1  0.051400  0.831400  0.783300  1
  C  C1048  1  0.551400  0.668600  0.716700  1
  C  C1049  1  0.897000  0.160300  0.192100  1
  C  C1050  1  0.397000  0.339700  0.307900  1
  C  C1051  1  0.103000  0.839700  0.807900  1
  C  C1052  1  0.603000  0.660300  0.692100  1
  C  C1053  1  0.908100  0.174800  0.162800  1
  C  C1054  1  0.408100  0.325200  0.337200  1
  C  C1055  1  0.091900  0.825200  0.837200  1
  C  C1056  1  0.591900  0.674800  0.662800  1
  C  C1057  1  0.972800  0.196800  0.156600  1
  C  C1058  1  0.472800  0.303200  0.343400  1
  C  C1059  1  0.027200  0.803200  0.843400  1
  C  C1060  1  0.527200  0.696800  0.656600  1
  C  C1061  1  0.986300  0.211000  0.126700  1
  C  C1062  1  0.486300  0.289000  0.373300  1
  C  C1063  1  0.013700  0.789000  0.873300  1
  C  C1064  1  0.513700  0.711000  0.626700  1
  C  C1065  1  0.051700  0.231400  0.123400  1
  C  C1066  1  0.551700  0.268600  0.376600  1
  C  C1067  1  0.948300  0.768600  0.876600  1
  C  C1068  1  0.448300  0.731400  0.623400  1
  C  C1069  1  0.904000  0.274000  0.049100  1
  C  C1070  1  0.404000  0.226000  0.450900  1
  C  C1071  1  0.096000  0.726000  0.950900  1
  C  C1072  1  0.596000  0.774000  0.549100  1
  C  C1073  1  0.914100  0.219900  0.030000  1
  C  C1074  1  0.414100  0.280100  0.470000  1
  C  C1075  1  0.085900  0.780100  0.970000  1
  C  C1076  1  0.585900  0.719900  0.530000  1
  C  C1077  1  0.977000  0.206800  0.042100  1
  C  C1078  1  0.477000  0.293200  0.457900  1
  C  C1079  1  0.023000  0.793200  0.957900  1
  C  C1080  1  0.523000  0.706800  0.542100  1
  C  C1081  1  0.068000  0.247300  0.090800  1
  C  C1082  1  0.568000  0.252700  0.409200  1
  C  C1083  1  0.932000  0.752700  0.909200  1
  C  C1084  1  0.432000  0.747300  0.590800  1
  C  C1085  1  0.846200  0.306700  0.047500  1
  C  C1086  1  0.346200  0.193300  0.452500  1
  C  C1087  1  0.153800  0.693300  0.952500  1
  C  C1088  1  0.653800  0.806700  0.547500  1
  C  C1089  1  0.794000  0.291900  0.022700  1
  C  C1090  1  0.294000  0.208100  0.477300  1
  C  C1091  1  0.206000  0.708100  0.977300  1
  C  C1092  1  0.706000  0.791900  0.522700  1
  C  C1093  1  0.744000  0.329800  0.027000  1
  C  C1094  1  0.244000  0.170200  0.473000  1
  C  C1095  1  0.256000  0.670200  0.973000  1
  C  C1096  1  0.756000  0.829800  0.527000  1
  C  C1097  1  0.743000  0.378800  0.050000  1
  C  C1098  1  0.243000  0.121200  0.450000  1
  C  C1099  1  0.257000  0.621200  0.950000  1
  C  C1100  1  0.757000  0.878800  0.550000  1
  C  C1101  1  0.799600  0.389800  0.074600  1
  C  C1102  1  0.299600  0.110200  0.425400  1
  C  C1103  1  0.200400  0.610200  0.925400  1
  C  C1104  1  0.700400  0.889800  0.574600  1
  C  C1105  1  0.175000  0.265200  0.880600  1
  C  C1106  1  0.675000  0.234800  0.619400  1
  C  C1107  1  0.825000  0.734800  0.119400  1
  C  C1108  1  0.325000  0.765200  0.380600  1
  C  C1109  1  0.119000  0.276300  0.864200  1
  C  C1110  1  0.619000  0.223700  0.635800  1
  C  C1111  1  0.881000  0.723700  0.135800  1
  C  C1112  1  0.381000  0.776300  0.364200  1
  C  C1113  1  0.082000  0.232900  0.837600  1
  C  C1114  1  0.582000  0.267100  0.662400  1
  C  C1115  1  0.918000  0.767100  0.162400  1
  C  C1116  1  0.418000  0.732900  0.337600  1
  C  C1117  1  0.100100  0.185200  0.830900  1
  C  C1118  1  0.600100  0.314800  0.669100  1
  C  C1119  1  0.899900  0.814800  0.169100  1
  C  C1120  1  0.399900  0.685200  0.330900  1
  C  C1121  1  0.170000  0.176000  0.852200  1
  C  C1122  1  0.670000  0.324000  0.647800  1
  C  C1123  1  0.830000  0.824000  0.147800  1
  C  C1124  1  0.330000  0.676000  0.352200  1
  C  C1125  1  0.204400  0.302500  0.911500  1
  C  C1126  1  0.704400  0.197500  0.588500  1
  C  C1127  1  0.795600  0.697500  0.088500  1
  C  C1128  1  0.295600  0.802500  0.411500  1
  C  C1129  1  0.188100  0.351700  0.925900  1
  C  C1130  1  0.688100  0.148300  0.574100  1
  C  C1131  1  0.811900  0.648300  0.074100  1
  C  C1132  1  0.311900  0.851700  0.425900  1
  C  C1133  1  0.236000  0.375100  0.957900  1
  C  C1134  1  0.736000  0.124900  0.542100  1
  C  C1135  1  0.764000  0.624900  0.042100  1
  C  C1136  1  0.264000  0.875100  0.457900  1
  C  C1137  1  0.340800  0.334200  0.980100  1
  C  C1138  1  0.840800  0.165800  0.519900  1
  C  C1139  1  0.659200  0.665800  0.019900  1
  C  C1140  1  0.159200  0.834200  0.480100  1
  C  C1141  1  0.417400  0.345300  0.971900  1
  C  C1142  1  0.917400  0.154700  0.528100  1
  C  C1143  1  0.582600  0.654700  0.028100  1
  C  C1144  1  0.082600  0.845300  0.471900  1
  C  C1145  1  0.435700  0.344200  0.939900  1
  C  C1146  1  0.935700  0.155800  0.560100  1
  C  C1147  1  0.564300  0.655800  0.060100  1
  C  C1148  1  0.064300  0.844200  0.439900  1
  C  C1149  1  0.506000  0.354400  0.931800  1
  C  C1150  1  0.006000  0.145600  0.568200  1
  C  C1151  1  0.494000  0.645600  0.068200  1
  C  C1152  1  0.994000  0.854400  0.431800  1
  C  C1153  1  0.530000  0.348700  0.897400  1
  C  C1154  1  0.030000  0.151300  0.602600  1
  C  C1155  1  0.470000  0.651300  0.102600  1
  C  C1156  1  0.970000  0.848700  0.397400  1
  C  C1157  1  0.594000  0.357800  0.890600  1
  C  C1158  1  0.094000  0.142200  0.609400  1
  C  C1159  1  0.406000  0.642200  0.109400  1
  C  C1160  1  0.906000  0.857800  0.390600  1
  C  C1161  1  0.648000  0.373400  0.918600  1
  C  C1162  1  0.148000  0.126600  0.581400  1
  C  C1163  1  0.352000  0.626600  0.081400  1
  C  C1164  1  0.852000  0.873400  0.418600  1
  C  C1165  1  0.637000  0.371700  0.949500  1
  C  C1166  1  0.137000  0.128300  0.550500  1
  C  C1167  1  0.363000  0.628300  0.050500  1
  C  C1168  1  0.863000  0.871700  0.449500  1
  C  C1169  1  0.562000  0.367600  0.961600  1
  C  C1170  1  0.062000  0.132400  0.538400  1
  C  C1171  1  0.438000  0.632400  0.038400  1
  C  C1172  1  0.938000  0.867600  0.461600  1
  C  C1173  1  0.534800  0.369000  0.995600  1
  C  C1174  1  0.034800  0.131000  0.504400  1
  C  C1175  1  0.465200  0.631000  0.004400  1
  C  C1176  1  0.965200  0.869000  0.495600  1
  C  C1177  1  0.466500  0.357300  0.001000  1
  C  C1178  1  0.966500  0.142700  0.499000  1
  C  C1179  1  0.533500  0.642700  0.999000  1
  C  C1180  1  0.033500  0.857300  0.501000  1
  C  C1181  1  0.576100  0.361500  0.098800  1
  C  C1182  1  0.076100  0.138500  0.401200  1
  C  C1183  1  0.423900  0.638500  0.901200  1
  C  C1184  1  0.923900  0.861500  0.598800  1
  C  C1185  1  0.596200  0.317800  0.079300  1
  C  C1186  1  0.096200  0.182200  0.420700  1
  C  C1187  1  0.403800  0.682200  0.920700  1
  C  C1188  1  0.903800  0.817800  0.579300  1
  C  C1189  1  0.543000  0.309000  0.051100  1
  C  C1190  1  0.043000  0.191000  0.448900  1
  C  C1191  1  0.457000  0.691000  0.948900  1
  C  C1192  1  0.957000  0.809000  0.551100  1
  C  C1193  1  0.440700  0.358800  0.036000  1
  C  C1194  1  0.940700  0.141200  0.464000  1
  C  C1195  1  0.559300  0.641200  0.964000  1
  C  C1196  1  0.059300  0.858800  0.536000  1
  C  C1197  1  0.614800  0.393500  0.134000  1
  C  C1198  1  0.114800  0.106500  0.366000  1
  C  C1199  1  0.385200  0.606500  0.866000  1
  C  C1200  1  0.885200  0.893500  0.634000  1
  C  C1201  1  0.675000  0.375000  0.146700  1
  C  C1202  1  0.175000  0.125000  0.353300  1
  C  C1203  1  0.325000  0.625000  0.853300  1
  C  C1204  1  0.825000  0.875000  0.646700  1
  C  C1205  1  0.708000  0.401700  0.176700  1
  C  C1206  1  0.208000  0.098300  0.323300  1
  C  C1207  1  0.292000  0.598300  0.823300  1
  C  C1208  1  0.792000  0.901700  0.676700  1
  C  C1209  1  0.680100  0.453700  0.192800  1
  C  C1210  1  0.180100  0.046300  0.307200  1
  C  C1211  1  0.319900  0.546300  0.807200  1
  C  C1212  1  0.819900  0.953700  0.692800  1
  C  C1213  1  0.620000  0.469600  0.178700  1
  C  C1214  1  0.120000  0.030400  0.321300  1
  C  C1215  1  0.380000  0.530400  0.821300  1
  C  C1216  1  0.880000  0.969600  0.678700  1
  C  C1217  1  0.866000  0.981000  0.184000  1
  C  C1218  1  0.366000  0.519000  0.316000  1
  C  C1219  1  0.134000  0.019000  0.816000  1
  C  C1220  1  0.634000  0.481000  0.684000  1
  C  C1221  1  0.876000  0.031700  0.179800  1
  C  C1222  1  0.376000  0.468300  0.320200  1
  C  C1223  1  0.124000  0.968300  0.820200  1
  C  C1224  1  0.624000  0.531700  0.679800  1
  C  C1225  1  0.057000  0.927900  0.018700  1
  C  C1226  1  0.557000  0.572100  0.481300  1
  C  C1227  1  0.943000  0.072100  0.981300  1
  C  C1228  1  0.443000  0.427900  0.518700  1
  C  C1229  1  0.130000  0.955000  0.026200  1
  C  C1230  1  0.630000  0.545000  0.473800  1
  C  C1231  1  0.870000  0.045000  0.973800  1
  C  C1232  1  0.370000  0.455000  0.526200  1
  C  C1233  1  0.137000  0.970000  0.213000  1
  C  C1234  1  0.637000  0.530000  0.287000  1
  C  C1235  1  0.863000  0.030000  0.787000  1
  C  C1236  1  0.363000  0.470000  0.713000  1
  C  C1237  1  0.062000  0.002000  0.227000  1
  C  C1238  1  0.562000  0.498000  0.273000  1
  C  C1239  1  0.938000  0.998000  0.773000  1
  C  C1240  1  0.438000  0.502000  0.727000  1
  C  C1241  1  0.419000  0.944000  0.136000  1
  C  C1242  1  0.919000  0.556000  0.364000  1
  C  C1243  1  0.581000  0.056000  0.864000  1
  C  C1244  1  0.081000  0.444000  0.636000  1
  C  C1245  1  0.345000  0.915000  0.137000  1
  C  C1246  1  0.845000  0.585000  0.363000  1
  C  C1247  1  0.655000  0.085000  0.863000  1
  C  C1248  1  0.155000  0.415000  0.637000  1
  C  C1249  1  0.085000  0.835000  0.207000  1
  C  C1250  1  0.585000  0.665000  0.293000  1
  C  C1251  1  0.915000  0.165000  0.793000  1
  C  C1252  1  0.415000  0.335000  0.707000  1
  C  C1253  1  0.066000  0.863000  0.193000  1
  C  C1254  1  0.566000  0.637000  0.307000  1
  C  C1255  1  0.934000  0.137000  0.807000  1
  C  C1256  1  0.434000  0.363000  0.693000  1
  C  C1257  1  0.950000  0.393000  0.906800  1
  C  C1258  1  0.450000  0.107000  0.593200  1
  C  C1259  1  0.050000  0.607000  0.093200  1
  C  C1260  1  0.550000  0.893000  0.406800  1
  C  C1261  1  0.874000  0.408000  0.909500  1
  C  C1262  1  0.374000  0.092000  0.590500  1
  C  C1263  1  0.126000  0.592000  0.090500  1
  C  C1264  1  0.626000  0.908000  0.409500  1
  C  C1265  1  0.307000  0.047000  0.753100  1
  C  C1266  1  0.807000  0.453000  0.746900  1
  C  C1267  1  0.693000  0.953000  0.246900  1
  C  C1268  1  0.193000  0.547000  0.253100  1
  C  C1269  1  0.277000  0.097000  0.766100  1
  C  C1270  1  0.777000  0.403000  0.733900  1
  C  C1271  1  0.723000  0.903000  0.233900  1
  C  C1272  1  0.223000  0.597000  0.266100  1
  C  C1273  1  0.756000  0.203000  0.085800  1
  C  C1274  1  0.256000  0.297000  0.414200  1
  C  C1275  1  0.244000  0.797000  0.914200  1
  C  C1276  1  0.744000  0.703000  0.585800  1
  C  C1277  1  0.785000  0.150400  0.069400  1
  C  C1278  1  0.285000  0.349600  0.430600  1
  C  C1279  1  0.215000  0.849600  0.930600  1
  C  C1280  1  0.715000  0.650400  0.569400  1
  C  C1281  1  0.992000  0.516400  0.763700  1
  C  C1282  1  0.492000  0.983600  0.736300  1
  C  C1283  1  0.008000  0.483600  0.236300  1
  C  C1284  1  0.508000  0.016400  0.263700  1
  C  C1285  1  0.993000  0.530900  0.732800  1
  C  C1286  1  0.493000  0.969100  0.767200  1
  C  C1287  1  0.007000  0.469100  0.267200  1
  C  C1288  1  0.507000  0.030900  0.232800  1
  C  C1289  1  0.889000  0.067000  0.890000  1
  C  C1290  1  0.389000  0.433000  0.610000  1
  C  C1291  1  0.111000  0.933000  0.110000  1
  C  C1292  1  0.611000  0.567000  0.390000  1
  C  C1293  1  0.972000  0.080000  0.883500  1
  C  C1294  1  0.472000  0.420000  0.616500  1
  C  C1295  1  0.028000  0.920000  0.116500  1
  C  C1296  1  0.528000  0.580000  0.383500  1
  C  C1297  1  0.593000  0.227000  0.741800  1
  C  C1298  1  0.093000  0.273000  0.758200  1
  C  C1299  1  0.407000  0.773000  0.258200  1
  C  C1300  1  0.907000  0.727000  0.241800  1
  C  C1301  1  0.686000  0.227000  0.731100  1
  C  C1302  1  0.186000  0.273000  0.768900  1
  C  C1303  1  0.314000  0.773000  0.268900  1
  C  C1304  1  0.814000  0.727000  0.231100  1
  C  C1305  1  0.532000  0.901700  0.195100  1
  C  C1306  1  0.032000  0.598300  0.304900  1
  C  C1307  1  0.468000  0.098300  0.804900  1
  C  C1308  1  0.968000  0.401700  0.695100  1
  C  C1309  1  0.486000  0.892000  0.217000  1
  C  C1310  1  0.986000  0.608000  0.283000  1
  C  C1311  1  0.514000  0.108000  0.783000  1
  C  C1312  1  0.014000  0.392000  0.717000  1
  C  C1313  1  0.206000  0.426000  0.738000  1
  C  C1314  1  0.706000  0.074000  0.762000  1
  C  C1315  1  0.794000  0.574000  0.262000  1
  C  C1316  1  0.294000  0.926000  0.238000  1
  C  C1317  1  0.283000  0.420000  0.763600  1
  C  C1318  1  0.783000  0.080000  0.736400  1
  C  C1319  1  0.717000  0.580000  0.236400  1
  C  C1320  1  0.217000  0.920000  0.263600  1
  C  C1321  1  0.780000  0.167000  0.916000  1
  C  C1322  1  0.280000  0.333000  0.584000  1
  C  C1323  1  0.220000  0.833000  0.084000  1
  C  C1324  1  0.720000  0.667000  0.416000  1
  C  C1325  1  0.874000  0.165000  0.941000  1
  C  C1326  1  0.374000  0.335000  0.559000  1
  C  C1327  1  0.126000  0.835000  0.059000  1
  C  C1328  1  0.626000  0.665000  0.441000  1
  N  N1329  1  0.331700  0.060700  0.083400  1
  N  N1330  1  0.831700  0.439300  0.416600  1
  N  N1331  1  0.668300  0.939300  0.916600  1
  N  N1332  1  0.168300  0.560700  0.583400  1
  N  N1333  1  0.395100  0.151400  0.085000  1
  N  N1334  1  0.895100  0.348600  0.415000  1
  N  N1335  1  0.604900  0.848600  0.915000  1
  N  N1336  1  0.104900  0.651400  0.585000  1
  N  N1337  1  0.433800  0.190300  0.082300  1
  N  N1338  1  0.933800  0.309700  0.417700  1
  N  N1339  1  0.566200  0.809700  0.917700  1
  N  N1340  1  0.066200  0.690300  0.582300  1
  N  N1341  1  0.430300  0.440700  0.165200  1
  N  N1342  1  0.930300  0.059300  0.334800  1
  N  N1343  1  0.569700  0.559300  0.834800  1
  N  N1344  1  0.069700  0.940700  0.665200  1
  N  N1345  1  0.398700  0.398100  0.168600  1
  N  N1346  1  0.898700  0.101900  0.331400  1
  N  N1347  1  0.601300  0.601900  0.831400  1
  N  N1348  1  0.101300  0.898100  0.668600  1
  N  N1349  1  0.475700  0.534000  0.167800  1
  N  N1350  1  0.975700  0.966000  0.332200  1
  N  N1351  1  0.524300  0.466000  0.832200  1
  N  N1352  1  0.024300  0.034000  0.667800  1
  N  N1353  1  0.559900  0.493200  0.095500  1
  N  N1354  1  0.059900  0.006800  0.404500  1
  N  N1355  1  0.440100  0.506800  0.904500  1
  N  N1356  1  0.940100  0.993200  0.595500  1
  N  N1357  1  0.417800  0.477900  0.095600  1
  N  N1358  1  0.917800  0.022100  0.404400  1
  N  N1359  1  0.582200  0.522100  0.904400  1
  N  N1360  1  0.082200  0.977900  0.595600  1
  N  N1361  1  0.343200  0.473900  0.089400  1
  N  N1362  1  0.843200  0.026100  0.410600  1
  N  N1363  1  0.656800  0.526100  0.910600  1
  N  N1364  1  0.156800  0.973900  0.589400  1
  N  N1365  1  0.048300  0.379000  0.139800  1
  N  N1366  1  0.548300  0.121000  0.360200  1
  N  N1367  1  0.951700  0.621000  0.860200  1
  N  N1368  1  0.451700  0.879000  0.639800  1
  N  N1369  1  0.114500  0.404900  0.144300  1
  N  N1370  1  0.614500  0.095100  0.355700  1
  N  N1371  1  0.885500  0.595100  0.855700  1
  N  N1372  1  0.385500  0.904900  0.644300  1
  N  N1373  1  0.922000  0.339200  0.144100  1
  N  N1374  1  0.422000  0.160800  0.355900  1
  N  N1375  1  0.078000  0.660800  0.855900  1
  N  N1376  1  0.578000  0.839200  0.644100  1
  N  N1377  1  0.921900  0.445600  0.130800  1
  N  N1378  1  0.421900  0.054400  0.369200  1
  N  N1379  1  0.078100  0.554400  0.869200  1
  N  N1380  1  0.578100  0.945600  0.630800  1
  N  N1381  1  0.987900  0.407300  0.071400  1
  N  N1382  1  0.487900  0.092700  0.428600  1
  N  N1383  1  0.012100  0.592700  0.928600  1
  N  N1384  1  0.512100  0.907300  0.571400  1
  N  N1385  1  0.032500  0.396100  0.040100  1
  N  N1386  1  0.532500  0.103900  0.459900  1
  N  N1387  1  0.967500  0.603900  0.959900  1
  N  N1388  1  0.467500  0.896100  0.540100  1
  N  N1389  1  0.204200  0.182600  0.935900  1
  N  N1390  1  0.704200  0.317400  0.564100  1
  N  N1391  1  0.795800  0.817400  0.064100  1
  N  N1392  1  0.295800  0.682600  0.435900  1
  N  N1393  1  0.146300  0.202400  0.959400  1
  N  N1394  1  0.646300  0.297600  0.540600  1
  N  N1395  1  0.853700  0.797600  0.040600  1
  N  N1396  1  0.353700  0.702400  0.459400  1
  N  N1397  1  0.293700  0.126900  0.884600  1
  N  N1398  1  0.793700  0.373100  0.615400  1
  N  N1399  1  0.706300  0.873100  0.115400  1
  N  N1400  1  0.206300  0.626900  0.384600  1
  N  N1401  1  0.363800  0.222600  0.872200  1
  N  N1402  1  0.863800  0.277400  0.627800  1
  N  N1403  1  0.636200  0.777400  0.127800  1
  N  N1404  1  0.136200  0.722600  0.372200  1
  N  N1405  1  0.384800  0.204000  0.931700  1
  N  N1406  1  0.884800  0.296000  0.568300  1
  N  N1407  1  0.615200  0.796000  0.068300  1
  N  N1408  1  0.115200  0.704000  0.431700  1
  N  N1409  1  0.413300  0.198100  0.960100  1
  N  N1410  1  0.913300  0.301900  0.539900  1
  N  N1411  1  0.586700  0.801900  0.039900  1
  N  N1412  1  0.086700  0.698100  0.460100  1
  N  N1413  1  0.216300  0.132100  0.075700  1
  N  N1414  1  0.716300  0.367900  0.424300  1
  N  N1415  1  0.783700  0.867900  0.924300  1
  N  N1416  1  0.283700  0.632100  0.575700  1
  N  N1417  1  0.205000  0.133900  0.042900  1
  N  N1418  1  0.705000  0.366100  0.457100  1
  N  N1419  1  0.795000  0.866100  0.957100  1
  N  N1420  1  0.295000  0.633900  0.542900  1
  N  N1421  1  0.213700  0.112000  0.137000  1
  N  N1422  1  0.713700  0.388000  0.363000  1
  N  N1423  1  0.786300  0.888000  0.863000  1
  N  N1424  1  0.286300  0.612000  0.637000  1
  N  N1425  1  0.383500  0.139100  0.154600  1
  N  N1426  1  0.883500  0.360900  0.345400  1
  N  N1427  1  0.616500  0.860900  0.845400  1
  N  N1428  1  0.116500  0.639100  0.654600  1
  N  N1429  1  0.285800  0.211400  0.152400  1
  N  N1430  1  0.785800  0.288600  0.347600  1
  N  N1431  1  0.714200  0.788600  0.847600  1
  N  N1432  1  0.214200  0.711400  0.652400  1
  N  N1433  1  0.241300  0.253400  0.161400  1
  N  N1434  1  0.741300  0.246600  0.338600  1
  N  N1435  1  0.758700  0.746600  0.838600  1
  N  N1436  1  0.258700  0.753400  0.661400  1
  N  N1437  1  0.965200  0.288100  0.072100  1
  N  N1438  1  0.465200  0.211900  0.427900  1
  N  N1439  1  0.034800  0.711900  0.927900  1
  N  N1440  1  0.534800  0.788100  0.572100  1
  N  N1441  1  0.004500  0.248100  0.068300  1
  N  N1442  1  0.504500  0.251900  0.431700  1
  N  N1443  1  0.995500  0.751900  0.931700  1
  N  N1444  1  0.495500  0.748100  0.568300  1
  N  N1445  1  0.855400  0.354800  0.072500  1
  N  N1446  1  0.355400  0.145200  0.427500  1
  N  N1447  1  0.144600  0.645200  0.927500  1
  N  N1448  1  0.644600  0.854800  0.572500  1
  N  N1449  1  0.196400  0.219300  0.875900  1
  N  N1450  1  0.696400  0.280700  0.624100  1
  N  N1451  1  0.803600  0.780700  0.124100  1
  N  N1452  1  0.303600  0.719300  0.375900  1
  N  N1453  1  0.264700  0.290700  0.929200  1
  N  N1454  1  0.764700  0.209300  0.570800  1
  N  N1455  1  0.735300  0.709300  0.070800  1
  N  N1456  1  0.235300  0.790700  0.429200  1
  N  N1457  1  0.284800  0.332600  0.953200  1
  N  N1458  1  0.784800  0.167400  0.546800  1
  N  N1459  1  0.715200  0.667400  0.046800  1
  N  N1460  1  0.215200  0.832600  0.453200  1
  N  N1461  1  0.519600  0.386000  0.091200  1
  N  N1462  1  0.019600  0.114000  0.408800  1
  N  N1463  1  0.480400  0.614000  0.908800  1
  N  N1464  1  0.980400  0.886000  0.591200  1
  N  N1465  1  0.500200  0.350200  0.058600  1
  N  N1466  1  0.000200  0.149800  0.441400  1
  N  N1467  1  0.499800  0.649800  0.941400  1
  N  N1468  1  0.999800  0.850200  0.558600  1
  N  N1469  1  0.587800  0.439700  0.150600  1
  N  N1470  1  0.087800  0.060300  0.349400  1
  N  N1471  1  0.412200  0.560300  0.849400  1
  N  N1472  1  0.912200  0.939700  0.650600  1
  N  N1473  1  0.868000  0.944000  0.192300  1
  N  N1474  1  0.368000  0.556000  0.307700  1
  N  N1475  1  0.132000  0.056000  0.807700  1
  N  N1476  1  0.632000  0.444000  0.692300  1
  N  N1477  1  0.010000  0.902400  0.014400  1
  N  N1478  1  0.510000  0.597600  0.485600  1
  N  N1479  1  0.990000  0.097600  0.985600  1
  N  N1480  1  0.490000  0.402400  0.514400  1
  N  N1481  1  0.031000  0.037600  0.237500  1
  N  N1482  1  0.531000  0.462400  0.262500  1
  N  N1483  1  0.969000  0.962400  0.762500  1
  N  N1484  1  0.469000  0.537600  0.737500  1
  N  N1485  1  0.453000  0.977800  0.136700  1
  N  N1486  1  0.953000  0.522200  0.363300  1
  N  N1487  1  0.547000  0.022200  0.863300  1
  N  N1488  1  0.047000  0.477800  0.636700  1
  N  N1489  1  0.111000  0.808000  0.228200  1
  N  N1490  1  0.611000  0.692000  0.271800  1
  N  N1491  1  0.889000  0.192000  0.771800  1
  N  N1492  1  0.389000  0.308000  0.728200  1
  N  N1493  1  0.011000  0.383900  0.906400  1
  N  N1494  1  0.511000  0.116100  0.593600  1
  N  N1495  1  0.989000  0.616100  0.093600  1
  N  N1496  1  0.489000  0.883900  0.406400  1
  N  N1497  1  0.245000  0.140000  0.769800  1
  N  N1498  1  0.745000  0.360000  0.730200  1
  N  N1499  1  0.755000  0.860000  0.230200  1
  N  N1500  1  0.255000  0.640000  0.269800  1
  N  N1501  1  0.731000  0.245100  0.098500  1
  N  N1502  1  0.231000  0.254900  0.401500  1
  N  N1503  1  0.269000  0.754900  0.901500  1
  N  N1504  1  0.769000  0.745100  0.598500  1
  N  N1505  1  0.983000  0.503200  0.786800  1
  N  N1506  1  0.483000  0.996800  0.713200  1
  N  N1507  1  0.017000  0.496800  0.213200  1
  N  N1508  1  0.517000  0.003200  0.286800  1
  N  N1509  1  0.837000  0.047000  0.892600  1
  N  N1510  1  0.337000  0.453000  0.607400  1
  N  N1511  1  0.163000  0.953000  0.107400  1
  N  N1512  1  0.663000  0.547000  0.392600  1
  N  N1513  1  0.535000  0.244400  0.744500  1
  N  N1514  1  0.035000  0.255600  0.755500  1
  N  N1515  1  0.465000  0.755600  0.255500  1
  N  N1516  1  0.965000  0.744400  0.244500  1
  Cl  Cl1517  1  0.742300  0.693800  0.936000  1
  Cl  Cl1518  1  0.242300  0.806200  0.564000  1
  Cl  Cl1519  1  0.257700  0.306200  0.064000  1
  Cl  Cl1520  1  0.757700  0.193800  0.436000  1
  Cl  Cl1521  1  0.822900  0.481200  0.004800  1
  Cl  Cl1522  1  0.322900  0.018800  0.495200  1
  Cl  Cl1523  1  0.177100  0.518800  0.995200  1
  Cl  Cl1524  1  0.677100  0.981200  0.504800  1
  Cl  Cl1525  1  0.663800  0.172600  0.995900  1
  Cl  Cl1526  1  0.163800  0.327400  0.504100  1
  Cl  Cl1527  1  0.336200  0.827400  0.004100  1
  Cl  Cl1528  1  0.836200  0.672600  0.495900  1
  Cl  Cl1529  1  0.107800  0.963600  0.923500  1
  Cl  Cl1530  1  0.607800  0.536400  0.576500  1
  Cl  Cl1531  1  0.892200  0.036400  0.076500  1
  Cl  Cl1532  1  0.392200  0.463600  0.423500  1
  Cl  Cl1533  1  0.300400  0.892100  0.778300  1
  Cl  Cl1534  1  0.800400  0.607900  0.721700  1
  Cl  Cl1535  1  0.699600  0.107900  0.221700  1
  Cl  Cl1536  1  0.199600  0.392100  0.278300  1
  Cl  Cl1537  1  0.310000  0.365900  0.839200  1
  Cl  Cl1538  1  0.810000  0.134100  0.660800  1
  Cl  Cl1539  1  0.690000  0.634100  0.160800  1
  Cl  Cl1540  1  0.190000  0.865900  0.339200  1
  Cl  Cl1541  1  0.185700  0.565400  0.735600  1
  Cl  Cl1542  1  0.685700  0.934600  0.764400  1
  Cl  Cl1543  1  0.814300  0.434600  0.264400  1
  Cl  Cl1544  1  0.314300  0.065400  0.235600  1
  Cl  Cl1545  1  0.310500  0.786600  0.171000  1
  Cl  Cl1546  1  0.810500  0.713400  0.329000  1
  Cl  Cl1547  1  0.689500  0.213400  0.829000  1
  Cl  Cl1548  1  0.189500  0.286600  0.671000  1
  O  O1549  1  0.739400  0.671700  0.896900  1
  O  O1550  1  0.239400  0.828300  0.603100  1
  O  O1551  1  0.260600  0.328300  0.103100  1
  O  O1552  1  0.760600  0.171700  0.396900  1
  O  O1553  1  0.674700  0.720100  0.949900  1
  O  O1554  1  0.174700  0.779900  0.550100  1
  O  O1555  1  0.325300  0.279900  0.050100  1
  O  O1556  1  0.825300  0.220100  0.449900  1
  O  O1557  1  0.799700  0.731700  0.945000  1
  O  O1558  1  0.299700  0.768300  0.555000  1
  O  O1559  1  0.200300  0.268300  0.055000  1
  O  O1560  1  0.700300  0.231700  0.445000  1
  O  O1561  1  0.755200  0.654500  0.950700  1
  O  O1562  1  0.255200  0.845500  0.549300  1
  O  O1563  1  0.244800  0.345500  0.049300  1
  O  O1564  1  0.744800  0.154500  0.450700  1
  O  O1565  1  0.767000  0.448000  0.001100  1
  O  O1566  1  0.267000  0.052000  0.498900  1
  O  O1567  1  0.233000  0.552000  0.998900  1
  O  O1568  1  0.733000  0.948000  0.501100  1
  O  O1569  1  0.888700  0.456900  0.991300  1
  O  O1570  1  0.388700  0.043100  0.508700  1
  O  O1571  1  0.111300  0.543100  0.008700  1
  O  O1572  1  0.611300  0.956900  0.491300  1
  O  O1573  1  0.836300  0.508100  0.042000  1
  O  O1574  1  0.336300  0.991900  0.458000  1
  O  O1575  1  0.163700  0.491900  0.958000  1
  O  O1576  1  0.663700  0.008100  0.542000  1
  O  O1577  1  0.808000  0.513200  0.985900  1
  O  O1578  1  0.308000  0.986800  0.514100  1
  O  O1579  1  0.192000  0.486800  0.014100  1
  O  O1580  1  0.692000  0.013200  0.485900  1
  O  O1581  1  0.737800  0.168400  0.996500  1
  O  O1582  1  0.237800  0.331600  0.503500  1
  O  O1583  1  0.262200  0.831600  0.003500  1
  O  O1584  1  0.762200  0.668400  0.496500  1
  O  O1585  1  0.642400  0.147800  0.959800  1
  O  O1586  1  0.142400  0.352200  0.540200  1
  O  O1587  1  0.357600  0.852200  0.040200  1
  O  O1588  1  0.857600  0.647800  0.459800  1
  O  O1589  1  0.639900  0.223200  0.005400  1
  O  O1590  1  0.139900  0.276800  0.494600  1
  O  O1591  1  0.360100  0.776800  0.994600  1
  O  O1592  1  0.860100  0.723200  0.505400  1
  O  O1593  1  0.637000  0.152000  0.020300  1
  O  O1594  1  0.137000  0.348000  0.479700  1
  O  O1595  1  0.363000  0.848000  0.979700  1
  O  O1596  1  0.863000  0.652000  0.520300  1
  O  O1597  1  0.069900  0.922200  0.931000  1
  O  O1598  1  0.569900  0.577800  0.569000  1
  O  O1599  1  0.930100  0.077800  0.069000  1
  O  O1600  1  0.430100  0.422200  0.431000  1
  O  O1601  1  0.161500  0.940900  0.899300  1
  O  O1602  1  0.661500  0.559100  0.600700  1
  O  O1603  1  0.838500  0.059100  0.100700  1
  O  O1604  1  0.338500  0.440900  0.399300  1
  O  O1605  1  0.056900  0.988300  0.907300  1
  O  O1606  1  0.556900  0.511700  0.592700  1
  O  O1607  1  0.943100  0.011700  0.092700  1
  O  O1608  1  0.443100  0.488300  0.407300  1
  O  O1609  1  0.139700  0.998500  0.954600  1
  O  O1610  1  0.639700  0.501500  0.545400  1
  O  O1611  1  0.860300  0.001500  0.045400  1
  O  O1612  1  0.360300  0.498500  0.454600  1
  O  O1613  1  0.324000  0.941700  0.783600  1
  O  O1614  1  0.824000  0.558300  0.716400  1
  O  O1615  1  0.676000  0.058300  0.216400  1
  O  O1616  1  0.176000  0.441700  0.283600  1
  O  O1617  1  0.348700  0.854500  0.758600  1
  O  O1618  1  0.848700  0.645500  0.741400  1
  O  O1619  1  0.651300  0.145500  0.241400  1
  O  O1620  1  0.151300  0.354500  0.258600  1
  O  O1621  1  0.285700  0.889500  0.812300  1
  O  O1622  1  0.785700  0.610500  0.687700  1
  O  O1623  1  0.714300  0.110500  0.187700  1
  O  O1624  1  0.214300  0.389500  0.312300  1
  O  O1625  1  0.237000  0.885000  0.759300  1
  O  O1626  1  0.737000  0.615000  0.740700  1
  O  O1627  1  0.763000  0.115000  0.240700  1
  O  O1628  1  0.263000  0.385000  0.259300  1
  O  O1629  1  0.331000  0.325400  0.803000  1
  O  O1630  1  0.831000  0.174600  0.697000  1
  O  O1631  1  0.669000  0.674600  0.197000  1
  O  O1632  1  0.169000  0.825400  0.303000  1
  O  O1633  1  0.310700  0.414500  0.834400  1
  O  O1634  1  0.810700  0.085500  0.665600  1
  O  O1635  1  0.689300  0.585500  0.165600  1
  O  O1636  1  0.189300  0.914500  0.334400  1
  O  O1637  1  0.242300  0.355600  0.849600  1
  O  O1638  1  0.742300  0.144400  0.650400  1
  O  O1639  1  0.757700  0.644400  0.150400  1
  O  O1640  1  0.257700  0.855600  0.349600  1
  O  O1641  1  0.364600  0.363700  0.864700  1
  O  O1642  1  0.864600  0.136300  0.635300  1
  O  O1643  1  0.635400  0.636300  0.135300  1
  O  O1644  1  0.135400  0.863700  0.364700  1
  O  O1645  1  0.260000  0.578700  0.743400  1
  O  O1646  1  0.760000  0.921300  0.756600  1
  O  O1647  1  0.740000  0.421300  0.256600  1
  O  O1648  1  0.240000  0.078700  0.243400  1
  O  O1649  1  0.156100  0.560100  0.767900  1
  O  O1650  1  0.656100  0.939900  0.732100  1
  O  O1651  1  0.843900  0.439900  0.232100  1
  O  O1652  1  0.343900  0.060100  0.267900  1
  O  O1653  1  0.153000  0.611700  0.728500  1
  O  O1654  1  0.653000  0.888300  0.771500  1
  O  O1655  1  0.847000  0.388300  0.271500  1
  O  O1656  1  0.347000  0.111700  0.228500  1
  O  O1657  1  0.164000  0.524400  0.706300  1
  O  O1658  1  0.664000  0.975600  0.793700  1
  O  O1659  1  0.836000  0.475600  0.293700  1
  O  O1660  1  0.336000  0.024400  0.206300  1
  O  O1661  1  0.263000  0.826000  0.186000  1
  O  O1662  1  0.763000  0.674000  0.314000  1
  O  O1663  1  0.737000  0.174000  0.814000  1
  O  O1664  1  0.237000  0.326000  0.686000  1
  O  O1665  1  0.365000  0.815000  0.198300  1
  O  O1666  1  0.865000  0.685000  0.301700  1
  O  O1667  1  0.635000  0.185000  0.801700  1
  O  O1668  1  0.135000  0.315000  0.698300  1
  O  O1669  1  0.282000  0.747000  0.170900  1
  O  O1670  1  0.782000  0.753000  0.329100  1
  O  O1671  1  0.718000  0.253000  0.829100  1
  O  O1672  1  0.218000  0.247000  0.670900  1
  O  O1673  1  0.327200  0.788300  0.134600  1
  O  O1674  1  0.827200  0.711700  0.365400  1
  O  O1675  1  0.672800  0.211700  0.865400  1
  O  O1676  1  0.172800  0.288300  0.634600  1
