
#######################################################################
#
#                 Cambridge Crystallographic Data Centre
#                                CCDC 
#
#######################################################################
#
# If this CIF has been generated from an entry in the Cambridge 
# Structural Database, then it will include bibliographic, chemical, 
# crystal, experimental, refinement or atomic coordinate data resulting 
# from the CCDC's data processing and validation procedures.
#
#######################################################################

data_XIZKOG
_chemical_formula_moiety         
'C168 H132 Co4 N36 8+,8(B1 F4 1-),7(C2 H3 N1),H2 O1'
_chemical_name_systematic        
'hexakis(\m~2~-2,3-bis(3-(2-Pyridyl)pyrazolylmethyl)naphthalene)-tetra-cobalt(ii) octakis(tetrafluoroborate) acetonitrile solvate monohydrate'
_symmetry_cell_setting           rhombohedral
_symmetry_space_group_name_H-M   'R -3'
_symmetry_Int_Tables_number      148
_space_group_name_Hall           '-R 3'
loop_
_symmetry_equiv_pos_site_id
_symmetry_equiv_pos_as_xyz
1 x,y,z
2 -y,x-y,z
3 -x+y,-x,z
4 2/3+x,1/3+y,1/3+z
5 2/3-y,1/3+x-y,1/3+z
6 2/3-x+y,1/3-x,1/3+z
7 1/3+x,2/3+y,2/3+z
8 1/3-y,2/3+x-y,2/3+z
9 1/3-x+y,2/3-x,2/3+z
10 -x,-y,-z
11 y,-x+y,-z
12 x-y,x,-z
13 1/3-x,2/3-y,2/3-z
14 1/3+y,2/3-x+y,2/3-z
15 1/3+x-y,2/3+x,2/3-z
16 2/3-x,1/3-y,1/3-z
17 2/3+y,1/3-x+y,1/3-z
18 2/3+x-y,1/3+x,1/3-z
_cell_length_a                   18.540(4)
_cell_length_b                   18.540(4)
_cell_length_c                   181.09(5)
_cell_angle_alpha                90
_cell_angle_beta                 90
_cell_angle_gamma                120
_cell_volume                     53906.9
_exptl_crystal_colour            apricot
_exptl_crystal_description       block
_cell_formula_units_Z            12
_exptl_crystal_recrystallization_method acetonitrile/ether
loop_
_atom_site_label
_atom_site_type_symbol
_atom_site_fract_x
_atom_site_fract_y
_atom_site_fract_z
F1 F 0.3333 0.6667 0.04811(3)
F2 F 0.3847(2) 0.6373(2) 0.03788(2)
B1 B 0.3333 0.6667 0.04048(7)
F2B F 0.2526(3) 0.6153(2) 0.03788(2)
F2A F 0.3627(2) 0.7474(3) 0.03788(2)
F3 F 0.9458(3) 0.0261(3) 0.12462(2)
F4 F 1.0000 0.0000 0.11452(3)
B2 B 1.0000 0.0000 0.12209(7)
F3B F 1.0803(4) 0.0542(3) 0.12462(2)
F3A F 0.9739(3) -0.0803(4) 0.12462(2)
F5 F 1.0000 1.0000 0.06920(4)
F6 F 0.9673(3) 0.9192(3) 0.07936(3)
B3 B 1.0000 1.0000 0.07688(9)
F6B F 0.9519(4) 1.0327(3) 0.07936(3)
F6A F 1.0808(3) 1.0481(4) 0.07936(3)
F7 F 0.9452(3) 0.2641(3) 0.01897(3)
F8 F 0.9647(2) 0.3287(2) 0.02998(2)
F9 F 0.9098(2) 0.3640(2) 0.02045(2)
F10 F 0.8335(2) 0.2385(3) 0.02591(3)
B4 B 0.9127(5) 0.2982(5) 0.02381(5)
F11 F 0.3116(3) 0.5874(2) 0.13222(2)
F12 F 0.3333 0.6667 0.14254(4)
B5 B 0.3333 0.6667 0.13474(9)
F11B F 0.2758(4) 0.6884(3) 0.13222(2)
F11A F 0.4126(2) 0.7242(4) 0.13222(2)
F13 F 0.6667 0.3333 0.08758(4)
F14 F 0.6701(3) 0.4055(2) 0.07752(2)
B6 B 0.6667 0.3333 0.07998(8)
F14B F 0.7354(4) 0.3299(3) 0.07752(2)
F14A F 0.5945(2) 0.2646(4) 0.07752(2)
F15 F 0.1992(3) 0.5461(3) 0.08025(3)
F16 F 0.1073(4) 0.4100(3) 0.08139(3)
F17 F 0.0607(3) 0.5001(3) 0.07872(3)
F18 F 0.1134(3) 0.4990(3) 0.09001(2)
B7 B 0.1192(6) 0.4900(5) 0.08259(5)
F19 F 0.7104(3) 0.2954(3) 0.04221(3)
F20 F 0.6667 0.3333 0.03271(6)
B8 B 0.6667 0.3333 0.04037(9)
F19B F 0.5850(4) 0.2896(3) 0.04221(3)
F19A F 0.7046(3) 0.4150(4) 0.04221(3)
F21 F 0.4312(5) 0.3387(5) 0.14456(4)
F22 F 0.3914(5) 0.3244(6) 0.13302(4)
F23 F 0.5215(5) 0.4072(5) 0.13586(5)
F24 F 0.4639(6) 0.2716(5) 0.13639(5)
B9 B 0.4488(9) 0.3316(8) 0.13731(6)
N13 N 0.0000 0.0000 0.18135(17)
C57 C 0.0000 0.0000 0.18739(16)
C58 C 0.0000 0.0000 0.19648(18)
N14 N 0.5760(5) 0.6678(5) 0.17636(5)
C59 C 0.5687(5) 0.6817(5) 0.18245(5)
C60 C 0.5626(6) 0.7011(6) 0.19023(4)
N15 N 0.3799(12) 0.1500(8) 0.15927(15)
C61 C 0.4400(17) 0.1617(16) 0.15265(11)
C62 C 0.4610(11) 0.1115(11) 0.14638(11)
N16 N 0.9014(5) 0.5139(5) 0.01169(5)
C63 C 0.8536(6) 0.4843(6) 0.01646(6)
C64 C 0.7915(5) 0.4490(6) 0.02258(5)
N17 N 0.4954(4) 0.4137(5) 0.11350(4)
C65 C 0.5321(10) 0.3843(7) 0.11587(6)
C66 C 0.5571(9) 0.3350(8) 0.11893(10)
N18 N 0.3333 0.6667 0.10802(7)
C67 C 0.3333 0.6667 0.10147(10)
C68 C 0.3333 0.6667 0.09347(6)
F25 F 0.0699(8) 0.0140(8) 0.04918(7)
F26 F 0.0000 0.0000 0.03754(14)
B10 B 0.0000 0.0000 0.04531(16)
F25B F -0.0559(11) -0.0699(8) 0.04918(7)
F25A F -0.0140(8) 0.0559(11) 0.04918(7)
F27 F 0.0000 0.0000 0.0164(2)
F28 F 0.0131(16) 0.0633(13) 0.02925(12)
B11 B 0.0000 0.0000 0.0241(2)
F28B F 0.0502(21) -0.0131(16) 0.02925(12)
F28A F -0.0633(13) -0.0502(21) 0.02925(12)
Co3 Co 0.67984(5) 0.75709(6) 0.109781(5)
Co4 Co 1.0000 1.0000 0.156109(8)
N19 N 0.8878(3) 0.9338(3) 0.16247(3)
N20 N 0.6595(3) 0.6636(3) 0.10194(3)
N21 N 0.7760(3) 0.8241(3) 0.10181(3)
N22 N 0.8352(3) 0.9027(3) 0.10003(3)
N23 N 0.5816(4) 0.6735(4) 0.11651(3)
N24 N 0.7379(4) 0.7059(4) 0.11657(3)
N25 N 0.8127(4) 0.7088(4) 0.11752(3)
N26 N 0.6938(3) 0.8551(3) 0.11724(3)
N27 N 0.7226(3) 0.8864(4) 0.12414(3)
N28 N 0.6145(3) 0.8087(4) 0.10431(3)
N29 N 0.9707(3) 0.8849(3) 0.15052(3)
N30 N 0.9247(3) 0.8359(3) 0.14477(3)
C69 C 0.7108(4) 0.6881(4) 0.09606(4)
C70 C 0.7068(4) 0.6347(5) 0.09054(4)
H45 H 0.7425 0.6547 0.0864
C71 C 0.6484(5) 0.5501(5) 0.09131(4)
H46 H 0.6435 0.5112 0.0877
C72 C 0.5984(5) 0.5244(5) 0.09741(5)
H47 H 0.5594 0.4670 0.0981
C73 C 0.6045(4) 0.5809(5) 0.10245(4)
H48 H 0.5681 0.5616 0.1066
C74 C 0.7726(4) 0.7783(4) 0.09587(4)
C75 C 0.8281(4) 0.8277(4) 0.09049(4)
H49 H 0.8371 0.8104 0.0858
C76 C 0.8669(4) 0.9061(5) 0.09328(4)
H50 H 0.9089 0.9547 0.0909
C77 C 0.8523(4) 0.9719(4) 0.10487(4)
H51 H 0.9133 1.0086 0.1053
H52 H 0.8305 0.9498 0.1099
C78 C 0.8140(4) 1.0240(4) 0.10223(4)
C79 C 0.7684(4) 1.0042(4) 0.09601(4)
H53 H 0.7586 0.9563 0.0933
C80 C 0.7347(4) 1.0532(4) 0.09341(4)
C81 C 0.6851(5) 1.0315(5) 0.08700(4)
H54 H 0.6752 0.9840 0.0842
C82 C 0.6511(5) 1.0786(6) 0.08475(5)
H55 H 0.6160 1.0623 0.0805
C83 C 0.6677(5) 1.1512(6) 0.08865(6)
H56 H 0.6463 1.1850 0.0869
C84 C 0.7146(5) 1.1733(5) 0.09502(6)
H57 H 0.7237 1.2210 0.0977
C85 C 0.7496(4) 1.1242(5) 0.09752(5)
C86 C 0.7975(4) 1.1440(5) 0.10410(5)
H58 H 0.8073 1.1913 0.1069
C87 C 0.8299(4) 1.0950(4) 0.10647(4)
C88 C 0.8857(5) 0.7670(5) 0.11350(4)
H59 H 0.9342 0.7870 0.1168
H60 H 0.8797 0.8155 0.1122
C89 C 0.5974(5) 0.6284(5) 0.12129(4)
C90 C 0.5377(6) 0.5691(5) 0.12598(4)
H61 H 0.5515 0.5389 0.1294
C91 C 0.4564(6) 0.5556(5) 0.12546(5)
H62 H 0.4133 0.5144 0.1284
C92 C 0.4394(5) 0.6013(5) 0.12071(4)
H63 H 0.3848 0.5936 0.1205
C93 C 0.5018(4) 0.6593(5) 0.11623(4)
H64 H 0.4889 0.6904 0.1129
C94 C 0.6849(5) 0.6466(5) 0.12121(4)
C95 C 0.7257(6) 0.6126(7) 0.12514(6)
H65 H 0.7023 0.5702 0.1288
C96 C 0.8052(7) 0.6526(7) 0.12269(5)
H66 H 0.8484 0.6429 0.1243
C97 C 0.6106(4) 0.8714(4) 0.10785(4)
C98 C 0.5710(4) 0.9114(4) 0.10481(4)
H67 H 0.5686 0.9547 0.1074
C99 C 0.5350(4) 0.8861(5) 0.09788(4)
H68 H 0.5070 0.9116 0.0957
C100 C 0.5403(4) 0.8242(5) 0.09430(4)
H69 H 0.5166 0.8072 0.0895
C101 C 0.5799(4) 0.7858(4) 0.09759(4)
H70 H 0.5825 0.7424 0.0950
C102 C 0.6523(4) 0.8946(4) 0.11507(4)
C103 C 0.6557(4) 0.9494(4) 0.12036(4)
H71 H 0.6320 0.9845 0.1201
C104 C 0.7011(4) 0.9428(5) 0.12615(4)
H72 H 0.7145 0.9725 0.1307
C105 C 0.7735(4) 0.8612(5) 0.12845(4)
H73 H 0.8280 0.9111 0.1295
H74 H 0.7840 0.8228 0.1254
C106 C 0.7337(4) 0.8188(4) 0.13564(4)
C107 C 0.6497(4) 0.7791(4) 0.13687(4)
H75 H 0.6142 0.7774 0.1330
C108 C 0.6139(4) 0.7408(4) 0.14362(4)
C109 C 0.5267(4) 0.7014(4) 0.14498(4)
H76 H 0.4901 0.6981 0.1412
C110 C 0.4959(5) 0.6687(5) 0.15173(5)
H77 H 0.4377 0.6436 0.1526
C111 C 0.5478(5) 0.6709(5) 0.15749(4)
H78 H 0.5249 0.6469 0.1622
C112 C 0.6311(5) 0.7078(4) 0.15629(4)
H79 H 0.6664 0.7098 0.1602
C113 C 0.6663(4) 0.7431(4) 0.14942(4)
C114 C 0.7539(4) 0.7823(4) 0.14795(4)
H80 H 0.7898 0.7826 0.1517
C115 C 0.7872(4) 0.8192(4) 0.14135(4)
C116 C 0.8238(4) 0.9452(4) 0.16047(4)
C117 C 0.7493(4) 0.9091(4) 0.16417(4)
H81 H 0.7060 0.9189 0.1626
C118 C 0.7381(5) 0.8585(5) 0.17013(5)
H82 H 0.6867 0.8324 0.1727
C119 C 0.8030(5) 0.8465(5) 0.17225(5)
H83 H 0.7974 0.8125 0.1764
C120 C 0.8764(5) 0.8854(4) 0.16821(4)
H84 H 0.9207 0.8766 0.1696
C121 C 1.0017(4) 0.8421(4) 0.15397(4)
C122 C 0.9744(4) 0.7643(4) 0.15047(4)
H85 H 0.9869 0.7222 0.1518
C123 C 0.9258(4) 0.7632(4) 0.14464(4)
H86 H 0.8980 0.7194 0.1412
C124 C 0.8801(4) 0.8604(4) 0.13981(4)
H87 H 0.8882 0.8468 0.1347
H88 H 0.9046 0.9215 0.1401
C121B C 0.8404(6) 0.9983(4) 0.15397(4)
N29B N 0.9142(4) 1.0293(3) 0.15052(3)
N19A N 1.0662(3) 0.9540(4) 0.16247(3)
C116A C 1.0548(4) 0.8786(6) 0.16047(4)
C117A C 1.0909(4) 0.8402(6) 0.16417(4)
H81A H 1.0811 0.7871 0.1626
C118A C 1.1415(5) 0.8796(7) 0.17013(5)
H82A H 1.1676 0.8543 0.1727
C119A C 1.1535(5) 0.9565(7) 0.17225(5)
H83A H 1.1875 0.9849 0.1764
C120A C 1.1146(4) 0.9910(6) 0.16821(4)
H84A H 1.1234 1.0441 0.1696
N19B N 1.0460(4) 1.1122(3) 0.16247(3)
C116B C 1.1214(6) 1.1762(4) 0.16047(4)
C117B C 1.1598(6) 1.2507(4) 0.16417(4)
H81B H 1.2129 1.2940 0.1626
C118B C 1.1204(7) 1.2619(5) 0.17013(5)
H82B H 1.1457 1.3133 0.1727
C119B C 1.0435(7) 1.1970(5) 0.17225(5)
H83B H 1.0151 1.2026 0.1764
C120B C 1.0090(6) 1.1236(5) 0.16821(4)
H84B H 0.9559 1.0793 0.1696
C121A C 1.1579(4) 1.1596(6) 0.15397(4)
N29A N 1.1151(3) 1.0858(4) 0.15052(3)
N30A N 1.1641(3) 1.0888(4) 0.14477(3)
C123A C 1.2368(4) 1.1626(6) 0.14464(4)
C122A C 1.2357(4) 1.2101(6) 0.15047(4)
H85A H 1.2778 1.2647 0.1518
H86A H 1.2806 1.1786 0.1412
C124A C 1.1396(4) 1.0197(6) 0.13981(4)
C115A C 1.1808(4) 0.9680(6) 0.14135(4)
C106A C 1.1812(4) 0.9149(6) 0.13564(4)
C105A C 1.1388(5) 0.9123(6) 0.12845(4)
N27A N 1.1136(4) 0.8362(5) 0.12414(3)
N26A N 1.1449(3) 0.8387(4) 0.11724(3)
Co3A Co 1.24291(6) 0.92275(8) 0.109781(5)
N20A N 1.3364(3) 0.9959(4) 0.10194(3)
C69A C 1.3119(4) 1.0227(6) 0.09606(4)
C70A C 1.3653(5) 1.0721(6) 0.09054(4)
H45A H 1.3453 1.0878 0.0864
C71A C 1.4499(5) 1.0983(7) 0.09131(4)
H46A H 1.4888 1.1323 0.0877
C72A C 1.4756(5) 1.0740(7) 0.09741(5)
H47A H 1.5330 1.0924 0.0981
C73A C 1.4191(5) 1.0236(6) 0.10245(4)
H48A H 1.4384 1.0065 0.1066
C74A C 1.2217(4) 0.9943(6) 0.09587(4)
N21A N 1.1759(3) 0.9519(4) 0.10181(3)
N23A N 1.3265(4) 0.9081(6) 0.11651(3)
C89A C 1.3716(5) 0.9690(7) 0.12129(4)
C90A C 1.4309(5) 0.9686(8) 0.12598(4)
H61A H 1.4611 1.0126 0.1294
C91A C 1.4444(5) 0.9008(8) 0.12546(5)
H62A H 1.4856 0.8989 0.1284
C92A C 1.3987(5) 0.8381(7) 0.12071(4)
H63A H 1.4064 0.7912 0.1205
C93A C 1.3407(5) 0.8425(6) 0.11623(4)
H64A H 1.3096 0.7985 0.1129
C94A C 1.3534(5) 1.0383(7) 0.12121(4)
N24A N 1.2941(4) 1.0320(6) 0.11657(3)
N28A N 1.1913(4) 0.8058(5) 0.10431(3)
C97A C 1.1286(4) 0.7392(6) 0.10785(4)
C98A C 1.0886(4) 0.6596(6) 0.10481(4)
H67A H 1.0453 0.6139 0.1074
C99A C 1.1139(5) 0.6489(6) 0.09788(4)
H68A H 1.0884 0.5954 0.0957
C100A C 1.1758(5) 0.7161(6) 0.09430(4)
H69A H 1.1928 0.7094 0.0895
C101A C 1.2142(4) 0.7941(6) 0.09759(4)
H70A H 1.2576 0.8401 0.0950
C102A C 1.1054(4) 0.7577(6) 0.11507(4)
C103A C 1.0506(4) 0.7063(6) 0.12036(4)
H71A H 1.0155 0.6475 0.1201
C104A C 1.0572(5) 0.7583(6) 0.12615(4)
H72A H 1.0275 0.7420 0.1307
N25A N 1.2912(4) 1.1039(6) 0.11752(3)
C88A C 1.2330(5) 1.1187(7) 0.11350(4)
C87B C 1.2651(6) 1.1701(4) 0.10647(4)
C78B C 1.2100(6) 1.1860(4) 0.10223(4)
C77B C 1.1196(6) 1.1477(4) 0.10487(4)
N22B N 1.0675(4) 1.1648(3) 0.10003(3)
N21B N 1.0481(4) 1.2240(3) 0.10181(3)
Co3B Co 1.07725(8) 1.32016(5) 0.109781(5)
N20B N 1.0041(4) 1.3405(3) 0.10194(3)
C69B C 0.9773(6) 1.2892(4) 0.09606(4)
C70B C 0.9279(6) 1.2932(4) 0.09054(4)
H45B H 0.9122 1.2575 0.0864
C71B C 0.9017(7) 1.3516(5) 0.09131(4)
H46B H 0.8677 1.3565 0.0877
C72B C 0.9260(7) 1.4016(5) 0.09741(5)
H47B H 0.9076 1.4406 0.0981
C73B C 0.9764(6) 1.3955(4) 0.10245(4)
H48B H 0.9935 1.4319 0.1066
C74B C 1.0057(6) 1.2274(4) 0.09587(4)
C75B C 0.9996(6) 1.1719(4) 0.09049(4)
H49B H 0.9733 1.1629 0.0858
C76B C 1.0392(6) 1.1331(4) 0.09328(4)
H50B H 1.0458 1.0911 0.0909
N23B N 1.0919(6) 1.4184(4) 0.11651(3)
C89B C 1.0310(7) 1.4026(5) 0.12129(4)
C90B C 1.0314(8) 1.4623(6) 0.12598(4)
H61B H 0.9874 1.4485 0.1294
C91B C 1.0992(8) 1.5436(6) 0.12546(5)
H62B H 1.1011 1.5867 0.1284
C92B C 1.1619(7) 1.5606(5) 0.12071(4)
H63B H 1.2088 1.6152 0.1205
C93B C 1.1575(6) 1.4982(4) 0.11623(4)
H64B H 1.2015 1.5111 0.1129
C94B C 0.9617(7) 1.3151(5) 0.12121(4)
N24B N 0.9680(6) 1.2621(4) 0.11657(3)
N26B N 1.1613(4) 1.3062(3) 0.11724(3)
N27B N 1.1638(5) 1.2774(3) 0.12414(3)
C104B C 1.2417(6) 1.2989(4) 0.12615(4)
C103B C 1.2937(6) 1.3443(4) 0.12036(4)
C102B C 1.2423(6) 1.3477(4) 0.11507(4)
C97B C 1.2608(6) 1.3894(4) 0.10785(4)
N28B N 1.1942(5) 1.3855(3) 0.10431(3)
C101B C 1.2059(6) 1.4201(4) 0.09759(4)
C100B C 1.2839(6) 1.4597(4) 0.09430(4)
C99B C 1.3511(6) 1.4650(4) 0.09788(4)
C98B C 1.3404(6) 1.4290(4) 0.10481(4)
H67B H 1.3861 1.4314 0.1074
H68B H 1.4046 1.4930 0.0957
H69B H 1.2906 1.4834 0.0895
H70B H 1.1599 1.4175 0.0950
H71B H 1.3525 1.3680 0.1201
H72B H 1.2580 1.2855 0.1307
C105B C 1.0877(6) 1.2265(4) 0.12845(4)
H73B H 1.0831 1.1720 0.1295
H74B H 1.0388 1.2160 0.1254
C106B C 1.0851(6) 1.2663(4) 0.13564(4)
C107B C 1.1294(6) 1.3503(4) 0.13687(4)
H75B H 1.1632 1.3858 0.1330
C108B C 1.1269(6) 1.3861(4) 0.14362(4)
C109B C 1.1747(6) 1.4733(4) 0.14498(4)
H76B H 1.2080 1.5099 0.1412
C110B C 1.1728(7) 1.5041(5) 0.15173(5)
H77B H 1.2059 1.5623 0.1526
C111B C 1.1231(7) 1.4522(5) 0.15749(4)
H78B H 1.1220 1.4751 0.1622
C112B C 1.0767(6) 1.3689(5) 0.15629(4)
H79B H 1.0434 1.3336 0.1602
C113B C 1.0768(6) 1.3337(4) 0.14942(4)
C114B C 1.0284(6) 1.2461(4) 0.14795(4)
H80B H 0.9928 1.2102 0.1517
C115B C 1.0320(6) 1.2128(4) 0.14135(4)
C124B C 0.9803(6) 1.1199(4) 0.13981(4)
N30B N 0.9112(4) 1.0753(3) 0.14477(3)
C123B C 0.8374(6) 1.0742(4) 0.14464(4)
C122B C 0.7899(6) 1.0256(4) 0.15047(4)
H85B H 0.7353 1.0131 0.1518
H86B H 0.8214 1.1020 0.1412
H87B H 0.9586 1.1118 0.1347
H88B H 1.0169 1.0954 0.1401
N25B N 0.8961(6) 1.1873(4) 0.11752(3)
C88B C 0.8813(7) 1.1143(5) 0.11350(4)
H59B H 0.8528 1.0658 0.1168
H60B H 0.9358 1.1203 0.1122
C96B C 0.8474(10) 1.1948(7) 0.12269(5)
C95B C 0.8869(9) 1.2743(6) 0.12514(6)
H65B H 0.8679 1.2977 0.1288
H66B H 0.7945 1.1516 0.1243
H51B H 1.0953 1.0867 0.1053
H52B H 1.1193 1.1695 0.1099
C79B C 1.2358(6) 1.2316(4) 0.09601(4)
H53B H 1.1977 1.2414 0.0933
C80B C 1.3185(6) 1.2653(4) 0.09341(4)
C81B C 1.3464(7) 1.3149(5) 0.08700(4)
H54B H 1.3088 1.3248 0.0842
C82B C 1.4275(8) 1.3489(5) 0.08475(5)
H55B H 1.4463 1.3840 0.0805
C83B C 1.4835(8) 1.3323(5) 0.08865(6)
H56B H 1.5387 1.3537 0.0869
C84B C 1.4587(7) 1.2854(5) 0.09502(6)
H57B H 1.4973 1.2763 0.0977
C85B C 1.3746(6) 1.2504(4) 0.09752(5)
C86B C 1.3465(6) 1.2025(4) 0.10410(5)
H58B H 1.3840 1.1927 0.1069
H59A H 1.2130 1.1472 0.1168
H60A H 1.1845 1.0642 0.1122
C96A C 1.3474(7) 1.1526(10) 0.12269(5)
C95A C 1.3874(7) 1.1131(9) 0.12514(6)
H65A H 1.4298 1.1321 0.1288
H66A H 1.3571 1.2055 0.1243
N22A N 1.0973(3) 0.9325(4) 0.10003(3)
C76A C 1.0939(5) 0.9608(6) 0.09328(4)
C75A C 1.1723(4) 1.0004(6) 0.09049(4)
H49A H 1.1896 1.0267 0.0858
H50A H 1.0453 0.9542 0.0909
C77A C 1.0281(4) 0.8804(6) 0.10487(4)
H51A H 0.9914 0.9047 0.1053
H52A H 1.0502 0.8807 0.1099
C78A C 0.9760(4) 0.7900(6) 0.10223(4)
C79A C 0.9958(4) 0.7642(6) 0.09601(4)
H53A H 1.0437 0.8023 0.0933
C80A C 0.9468(4) 0.6815(6) 0.09341(4)
C81A C 0.9685(5) 0.6536(7) 0.08700(4)
H54A H 1.0160 0.6912 0.0842
C82A C 0.9214(6) 0.5725(8) 0.08475(5)
H55A H 0.9377 0.5537 0.0805
C83A C 0.8488(6) 0.5165(8) 0.08865(6)
H56A H 0.8150 0.4613 0.0869
C84A C 0.8267(5) 0.5413(7) 0.09502(6)
H57A H 0.7790 0.5027 0.0977
C85A C 0.8758(5) 0.6254(6) 0.09752(5)
C86A C 0.8560(5) 0.6535(6) 0.10410(5)
H58A H 0.8087 0.6160 0.1069
C87A C 0.9050(4) 0.7349(6) 0.10647(4)
H73A H 1.0889 0.9169 0.1295
H74A H 1.1772 0.9612 0.1254
C107A C 1.2209(4) 0.8706(6) 0.13687(4)
H75A H 1.2226 0.8368 0.1330
C108A C 1.2592(4) 0.8731(6) 0.14362(4)
C109A C 1.2986(4) 0.8253(6) 0.14498(4)
H76A H 1.3019 0.7920 0.1412
C110A C 1.3313(5) 0.8272(7) 0.15173(5)
H77A H 1.3564 0.7941 0.1526
C111A C 1.3291(5) 0.8769(7) 0.15749(4)
H78A H 1.3531 0.8780 0.1622
C112A C 1.2922(4) 0.9233(6) 0.15629(4)
H79A H 1.2902 0.9566 0.1602
C113A C 1.2569(4) 0.9232(6) 0.14942(4)
C114A C 1.2177(4) 0.9716(6) 0.14795(4)
H80A H 1.2174 1.0072 0.1517
H87A H 1.1532 1.0414 0.1347
H88A H 1.0785 0.9831 0.1401
Co1 Co 0.32268(6) 0.36091(6) 0.051104(5)
Co2 Co 0.3333 0.6667 0.009123(8)
N1 N 0.3002(4) 0.2507(4) 0.04534(3)
N2 N 0.2186(3) 0.3346(3) 0.04406(3)
N3 N 0.1680(3) 0.3649(4) 0.04217(3)
N4 N 0.2346(4) 0.2959(4) 0.05942(4)
N5 N 0.4314(4) 0.3730(3) 0.05637(3)
N6 N 0.4185(3) 0.4305(3) 0.04322(3)
N7 N 0.4264(3) 0.4561(3) 0.03610(3)
N8 N 0.2378(3) 0.6745(3) 0.00321(3)
N9 N 0.2213(3) 0.5770(3) 0.01465(3)
N10 N 0.1956(3) 0.5178(3) 0.01995(3)
C1 C 0.2374(5) 0.2200(4) 0.04032(4)
C2 C 0.2154(5) 0.1503(5) 0.03614(5)
H1 H 0.1705 0.1305 0.0327
C3 C 0.2605(6) 0.1092(5) 0.03699(5)
H2 H 0.2469 0.0610 0.0342
C4 C 0.3250(6) 0.1394(5) 0.04202(5)
H3 H 0.3564 0.1122 0.0427
C5 C 0.3433(5) 0.2101(5) 0.04606(5)
H4 H 0.3882 0.2309 0.0495
C6 C 0.1131(5) 0.3183(5) 0.03692(4)
H5 H 0.0718 0.3279 0.0348
C7 C 0.1273(4) 0.2552(5) 0.03522(4)
H6 H 0.0978 0.2118 0.0317
C8 C 0.1942(4) 0.2672(4) 0.03963(4)
C9 C 0.1697(4) 0.4328(4) 0.04638(4)
H7 H 0.1617 0.4697 0.0429
H8 H 0.2253 0.4659 0.0487
C10 C 0.1035(4) 0.4033(4) 0.05239(4)
C11 C 0.0539(4) 0.3202(5) 0.05411(5)
H9 H 0.0601 0.2794 0.0515
C12 C -0.0074(4) 0.2949(5) 0.05987(4)
C13 C -0.0609(5) 0.2093(5) 0.06163(5)
H10 H -0.0566 0.1673 0.0590
C14 C -0.1180(5) 0.1883(7) 0.06709(6)
H11 H -0.1530 0.1312 0.0683
C15 C -0.1267(5) 0.2473(7) 0.07098(5)
H12 H -0.1671 0.2308 0.0748
C16 C -0.0770(5) 0.3295(6) 0.06934(4)
H13 H -0.0829 0.3702 0.0720
C17 C -0.0167(4) 0.3549(5) 0.06364(4)
C18 C 0.0370(4) 0.4407(5) 0.06177(4)
H14 H 0.0326 0.4823 0.0645
C19 C 0.0937(4) 0.4641(4) 0.05631(4)
C20 C 0.2251(5) 0.3415(6) 0.06465(4)
C21 C 0.1622(6) 0.3032(8) 0.07017(5)
H15 H 0.1548 0.3344 0.0740
C22 C 0.1111(6) 0.2151(8) 0.06962(7)
H16 H 0.0674 0.1875 0.0731
C23 C 0.1211(9) 0.1680(8) 0.06442(7)
H17 H 0.0886 0.1090 0.0644
C24 C 0.1804(6) 0.2114(6) 0.05937(6)
H18 H 0.1853 0.1808 0.0554
N11 N 0.3332(3) 0.4588(4) 0.05823(3)
C25 C 0.2838(5) 0.4299(5) 0.06430(4)
C26 C 0.3012(6) 0.4914(7) 0.06924(5)
H19 H 0.2743 0.4868 0.0738
C27 C 0.3656(7) 0.5612(7) 0.06621(5)
H20 H 0.3928 0.6149 0.0684
N12 N 0.3848(4) 0.5414(4) 0.05947(3)
C28 C 0.1499(5) 0.5556(5) 0.05403(4)
H21 H 0.2064 0.5650 0.0530
H22 H 0.1281 0.5658 0.0494
C29 C 0.5013(4) 0.4075(4) 0.05215(4)
C30 C 0.5755(5) 0.4163(5) 0.05460(4)
H23 H 0.6232 0.4396 0.0515
C31 C 0.5789(5) 0.3898(5) 0.06184(4)
H24 H 0.6295 0.3959 0.0637
C32 C 0.5080(5) 0.3548(5) 0.06617(4)
H25 H 0.5089 0.3353 0.0710
C33 C 0.4356(5) 0.3487(5) 0.06338(4)
H26 H 0.3876 0.3270 0.0664
C34 C 0.4917(4) 0.4334(4) 0.04480(4)
C35 C 0.5448(4) 0.4609(4) 0.03869(4)
H27 H 0.5992 0.4683 0.0384
C36 C 0.5021(4) 0.4747(4) 0.03333(4)
H28 H 0.5216 0.4941 0.0285
C37 C 0.3644(4) 0.4707(4) 0.03259(3)
H29 H 0.3927 0.5285 0.0307
H30 H 0.3243 0.4664 0.0364
C38 C 0.3158(4) 0.4125(4) 0.02628(3)
C39 C 0.3211(4) 0.3430(4) 0.02454(4)
H31 H 0.3570 0.3307 0.0273
C40 C 0.2741(4) 0.2895(4) 0.01866(4)
C41 C 0.2787(4) 0.2172(4) 0.01684(4)
H32 H 0.3128 0.2028 0.0197
C42 C 0.2339(5) 0.1685(5) 0.01100(4)
H33 H 0.2372 0.1202 0.0098
C43 C 0.1832(5) 0.1885(5) 0.00672(5)
H34 H 0.1535 0.1547 0.0026
C44 C 0.1768(5) 0.2567(4) 0.00847(4)
H35 H 0.1414 0.2693 0.0056
C45 C 0.2219(4) 0.3081(4) 0.01439(4)
C46 C 0.2176(4) 0.3809(4) 0.01635(4)
H36 H 0.1828 0.3947 0.0136
C47 C 0.2620(4) 0.4308(4) 0.02210(3)
C48 C 0.1592(4) 0.6236(4) 0.00551(3)
C49 C 0.0918(4) 0.6262(4) 0.00251(4)
H37 H 0.0371 0.5905 0.0043
C50 C 0.1051(4) 0.6815(4) -0.00315(4)
H38 H 0.0599 0.6837 -0.0054
C51 C 0.1867(5) 0.7339(4) -0.00546(4)
H39 H 0.1980 0.7727 -0.0093
C52 C 0.2499(4) 0.7293(4) -0.00214(4)
H40 H 0.3054 0.7666 -0.0037
C53 C 0.1510(4) 0.5678(4) 0.01153(3)
C54 C 0.0808(4) 0.5025(4) 0.01490(4)
H41 H 0.0242 0.4835 0.0137
C55 C 0.1107(4) 0.4709(4) 0.02027(4)
H42 H 0.0786 0.4258 0.0235
C56 C 0.2546(4) 0.5062(4) 0.02432(3)
H43 H 0.2377 0.5003 0.0296
H44 H 0.3101 0.5568 0.0239
N8A N 0.3255(3) 0.5633(4) 0.00321(3)
C48A C 0.3764(4) 0.5356(6) 0.00551(3)
C49A C 0.3738(4) 0.4656(6) 0.00251(4)
H37A H 0.4095 0.4466 0.0043
C50A C 0.3185(4) 0.4236(6) -0.00315(4)
H38A H 0.3163 0.3762 -0.0054
C51A C 0.2661(4) 0.4528(6) -0.00546(4)
H39A H 0.2273 0.4253 -0.0093
C52A C 0.2707(4) 0.5206(6) -0.00214(4)
H40A H 0.2334 0.5388 -0.0037
C53A C 0.4322(4) 0.5832(6) 0.01153(3)
N9A N 0.4230(3) 0.6443(4) 0.01465(3)
N8B N 0.4367(4) 0.7622(3) 0.00321(3)
C48B C 0.4644(6) 0.8408(4) 0.00551(3)
C49B C 0.5344(6) 0.9082(4) 0.00251(4)
H37B H 0.5534 0.9629 0.0043
C50B C 0.5764(6) 0.8949(4) -0.00315(4)
H38B H 0.6238 0.9401 -0.0054
C51B C 0.5472(6) 0.8133(5) -0.00546(4)
H39B H 0.5747 0.8020 -0.0093
C52B C 0.4794(6) 0.7501(4) -0.00214(4)
H40B H 0.4612 0.6946 -0.0037
C53B C 0.4168(6) 0.8490(4) 0.01153(3)
N9B N 0.3557(4) 0.7787(3) 0.01465(3)
N10B N 0.3222(4) 0.8044(3) 0.01995(3)
C55B C 0.3602(6) 0.8893(4) 0.02027(4)
C54B C 0.4217(6) 0.9192(4) 0.01490(4)
H41B H 0.4593 0.9758 0.0137
H42B H 0.3472 0.9214 0.0235
C56B C 0.2516(6) 0.7454(4) 0.02432(3)
C47B C 0.1688(6) 0.7380(4) 0.02210(3)
C38B C 0.0967(6) 0.6842(4) 0.02628(3)
C37B C 0.1063(6) 0.6356(4) 0.03259(3)
N7B N 0.0297(4) 0.5736(3) 0.03610(3)
N6B N 0.0120(4) 0.5815(3) 0.04322(3)
Co1B Co 0.03823(8) 0.67732(6) 0.051104(5)
N1B N -0.0495(6) 0.6998(4) 0.04534(3)
C1B C -0.0174(6) 0.7626(5) 0.04032(4)
C2B C -0.0651(7) 0.7846(5) 0.03614(5)
H1B H -0.0400 0.8295 0.0327
C3B C -0.1513(8) 0.7395(6) 0.03699(5)
H2B H -0.1859 0.7531 0.0342
C4B C -0.1856(8) 0.6750(6) 0.04202(5)
H3B H -0.2442 0.6436 0.0427
C5B C -0.1332(7) 0.6567(5) 0.04606(5)
H4B H -0.1573 0.6118 0.0495
C8B C 0.0730(6) 0.8058(4) 0.03963(4)
N2B N 0.1160(4) 0.7814(3) 0.04406(3)
N4B N 0.0613(6) 0.7654(4) 0.05942(4)
C20B C 0.1164(8) 0.7749(5) 0.06465(4)
C21B C 0.1410(10) 0.8378(6) 0.07017(5)
H15B H 0.1796 0.8452 0.0740
C22B C 0.1040(10) 0.8889(6) 0.06962(7)
H16B H 0.1201 0.9326 0.0731
C23B C 0.0469(12) 0.8789(9) 0.06442(7)
H17B H 0.0204 0.9114 0.0644
C24B C 0.0310(8) 0.8196(6) 0.05937(6)
H18B H -0.0045 0.8147 0.0554
C25B C 0.1461(7) 0.7162(5) 0.06430(4)
N11B N 0.1256(5) 0.6668(3) 0.05823(3)
N5B N -0.0584(5) 0.5686(4) 0.05637(3)
C29B C -0.0938(6) 0.4987(4) 0.05215(4)
C30B C -0.1592(7) 0.4245(5) 0.05460(4)
H23B H -0.1836 0.3768 0.0515
C31B C -0.1891(7) 0.4211(5) 0.06184(4)
H24B H -0.2336 0.3705 0.0637
C32B C -0.1532(7) 0.4920(5) 0.06617(4)
H25B H -0.1736 0.4911 0.0710
C33B C -0.0869(7) 0.5644(5) 0.06338(4)
H26B H -0.0606 0.6124 0.0664
C34B C -0.0583(6) 0.5083(4) 0.04480(4)
C35B C -0.0839(6) 0.4552(4) 0.03869(4)
H27B H -0.1309 0.4008 0.0384
C36B C -0.0274(6) 0.4979(4) 0.03333(4)
H28B H -0.0275 0.4784 0.0285
N12B N 0.1566(6) 0.6152(4) 0.05947(3)
C27B C 0.1956(10) 0.6344(7) 0.06621(5)
C26B C 0.1902(9) 0.6988(6) 0.06924(5)
H19B H 0.2125 0.7257 0.0738
H20B H 0.2221 0.6072 0.0684
N3B N 0.1969(5) 0.8320(3) 0.04217(3)
C6B C 0.2052(7) 0.8869(5) 0.03692(4)
H5B H 0.2561 0.9282 0.0348
C7B C 0.1279(6) 0.8727(4) 0.03522(4)
H6B H 0.1140 0.9022 0.0317
C9B C 0.2631(6) 0.8303(4) 0.04638(4)
H7B H 0.3080 0.8383 0.0429
H8B H 0.2406 0.7747 0.0487
C10B C 0.2998(6) 0.8965(4) 0.05239(4)
C11B C 0.2663(6) 0.9461(4) 0.05411(5)
H9B H 0.2193 0.9399 0.0515
C12B C 0.3023(6) 1.0074(4) 0.05987(4)
C13B C 0.2702(7) 1.0609(5) 0.06163(5)
H10B H 0.2239 1.0566 0.0590
C14B C 0.3063(9) 1.1180(5) 0.06709(6)
H11B H 0.2842 1.1530 0.0683
C15B C 0.3740(9) 1.1267(5) 0.07098(5)
H12B H 0.3979 1.1671 0.0748
C16B C 0.4065(8) 1.0770(5) 0.06934(4)
H13B H 0.4531 1.0829 0.0720
C17B C 0.3716(6) 1.0167(4) 0.06364(4)
C18B C 0.4037(6) 0.9630(4) 0.06177(4)
H14B H 0.4497 0.9674 0.0645
C19B C 0.3704(6) 0.9063(4) 0.05631(4)
C28B C 0.4057(7) 0.8501(5) 0.05403(4)
N12A N 0.4586(4) 0.8434(6) 0.05947(3)
N11A N 0.5412(4) 0.8744(5) 0.05823(3)
Co1A Co 0.63909(6) 0.96177(8) 0.051104(5)
N1A N 0.7493(4) 1.0495(6) 0.04534(3)
C1A C 0.7800(4) 1.0174(6) 0.04032(4)
C2A C 0.8497(5) 1.0651(7) 0.03614(5)
H1A H 0.8695 1.0400 0.0327
C3A C 0.8908(5) 1.1513(8) 0.03699(5)
H2A H 0.9390 1.1859 0.0342
C4A C 0.8606(5) 1.1856(8) 0.04202(5)
H3A H 0.8878 1.2442 0.0427
C5A C 0.7899(5) 1.1332(7) 0.04606(5)
H4A H 0.7691 1.1573 0.0495
C8A C 0.7328(4) 0.9270(6) 0.03963(4)
N2A N 0.6654(3) 0.8840(4) 0.04406(3)
N4A N 0.7041(4) 0.9387(6) 0.05942(4)
C20A C 0.6585(6) 0.8836(8) 0.06465(4)
C21A C 0.6968(8) 0.8590(10) 0.07017(5)
H15A H 0.6656 0.8204 0.0740
C22A C 0.7849(8) 0.8960(10) 0.06962(7)
H16A H 0.8125 0.8799 0.0731
C23A C 0.8320(8) 0.9531(12) 0.06442(7)
H17A H 0.8910 0.9796 0.0644
C24A C 0.7886(6) 0.9690(8) 0.05937(6)
H18A H 0.8192 1.0045 0.0554
C25A C 0.5701(5) 0.8539(7) 0.06430(4)
C26A C 0.5086(7) 0.8098(9) 0.06924(5)
H19A H 0.5132 0.7875 0.0738
C27A C 0.4388(7) 0.8044(10) 0.06621(5)
H20A H 0.3851 0.7779 0.0684
N5A N 0.6270(3) 1.0584(5) 0.05637(3)
C29A C 0.5925(4) 1.0938(6) 0.05215(4)
C30A C 0.5837(5) 1.1592(7) 0.05460(4)
H23A H 0.5604 1.1836 0.0515
C31A C 0.6102(5) 1.1891(7) 0.06184(4)
H24A H 0.6041 1.2336 0.0637
C32A C 0.6452(5) 1.1532(7) 0.06617(4)
H25A H 0.6647 1.1736 0.0710
C33A C 0.6513(5) 1.0869(7) 0.06338(4)
H26A H 0.6730 1.0606 0.0664
C34A C 0.5666(4) 1.0583(6) 0.04480(4)
N6A N 0.5695(3) 0.9880(4) 0.04322(3)
N7A N 0.5439(3) 0.9703(4) 0.03610(3)
C36A C 0.5253(4) 1.0274(6) 0.03333(4)
C35A C 0.5391(4) 1.0839(6) 0.03869(4)
H27A H 0.5317 1.1309 0.0384
H28A H 0.5059 1.0275 0.0285
C37A C 0.5293(4) 0.8937(6) 0.03259(3)
H29A H 0.4715 0.8642 0.0307
H30A H 0.5336 0.8579 0.0364
C38A C 0.5875(4) 0.9033(6) 0.02628(3)
C39A C 0.6570(4) 0.9781(6) 0.02454(4)
H31A H 0.6693 1.0263 0.0273
C40A C 0.7105(4) 0.9846(6) 0.01866(4)
C41A C 0.7828(4) 1.0615(6) 0.01684(4)
H32A H 0.7972 1.1100 0.0197
C42A C 0.8315(5) 1.0654(7) 0.01100(4)
H33A H 0.8798 1.1170 0.0098
C43A C 0.8115(5) 0.9947(7) 0.00672(5)
H34A H 0.8453 0.9988 0.0026
C44A C 0.7433(4) 0.9201(6) 0.00847(4)
H35A H 0.7307 0.8721 0.0056
C45A C 0.6919(4) 0.9138(6) 0.01439(4)
C46A C 0.6191(4) 0.8367(6) 0.01635(4)
H36A H 0.6053 0.7881 0.0136
C47A C 0.5692(4) 0.8312(6) 0.02210(3)
C56A C 0.4938(4) 0.7484(6) 0.02432(3)
N10A N 0.4822(3) 0.6778(4) 0.01995(3)
C55A C 0.5291(4) 0.6398(6) 0.02027(4)
C54A C 0.4975(4) 0.5783(6) 0.01490(4)
H41A H 0.5165 0.5407 0.0137
H42A H 0.5742 0.6528 0.0235
H43A H 0.4997 0.7374 0.0296
H44A H 0.4432 0.7533 0.0239
N3A N 0.6351(4) 0.8031(5) 0.04217(3)
C6A C 0.6817(5) 0.7948(7) 0.03692(4)
H5A H 0.6721 0.7439 0.0348
C7A C 0.7448(5) 0.8721(6) 0.03522(4)
H6A H 0.7882 0.8860 0.0317
C9A C 0.5672(4) 0.7369(6) 0.04638(4)
H7A H 0.5303 0.6920 0.0429
H8A H 0.5341 0.7594 0.0487
C10A C 0.5967(4) 0.7002(6) 0.05239(4)
C11A C 0.6798(5) 0.7337(6) 0.05411(5)
H9A H 0.7206 0.7807 0.0515
C12A C 0.7051(5) 0.6977(6) 0.05987(4)
C13A C 0.7907(5) 0.7298(7) 0.06163(5)
H10A H 0.8327 0.7761 0.0590
C14A C 0.8117(7) 0.6937(9) 0.06709(6)
H11A H 0.8688 0.7158 0.0683
C15A C 0.7527(7) 0.6260(9) 0.07098(5)
H12A H 0.7692 0.6021 0.0748
C16A C 0.6705(6) 0.5935(8) 0.06934(4)
H13A H 0.6298 0.5469 0.0720
C17A C 0.6451(5) 0.6284(6) 0.06364(4)
C18A C 0.5593(5) 0.5963(6) 0.06177(4)
H14A H 0.5177 0.5503 0.0645
C19A C 0.5359(4) 0.6296(6) 0.05631(4)
C28A C 0.4444(5) 0.5943(7) 0.05403(4)
H21A H 0.4350 0.6414 0.0530
H22A H 0.4342 0.5623 0.0494
H21B H 0.3586 0.7936 0.0530
H22B H 0.4377 0.8719 0.0494
H29B H 0.1358 0.6073 0.0307
H30B H 0.1421 0.6757 0.0364
C39B C 0.0219(6) 0.6789(4) 0.02454(4)
H31B H -0.0263 0.6430 0.0273
C40B C 0.0154(6) 0.7259(4) 0.01866(4)
C41B C -0.0615(6) 0.7213(4) 0.01684(4)
H32B H -0.1100 0.6872 0.0197
C42B C -0.0654(7) 0.7661(5) 0.01100(4)
H33B H -0.1170 0.7628 0.0098
C43B C 0.0053(7) 0.8168(5) 0.00672(5)
H34B H 0.0012 0.8465 0.0026
C44B C 0.0799(6) 0.8232(5) 0.00847(4)
H35B H 0.1279 0.8586 0.0056
C45B C 0.0862(6) 0.7781(4) 0.01439(4)
C46B C 0.1633(6) 0.7824(4) 0.01635(4)
H36B H 0.2119 0.8172 0.0136
H43B H 0.2626 0.7623 0.0296
H44B H 0.2467 0.6899 0.0239
O1? O 0.6667 0.3333 0.10313(11)
O2? O 0.0000 0.0000 0.00392(11)
loop_
_geom_bond_atom_site_label_1
_geom_bond_atom_site_label_2
_geom_bond_site_symmetry_1
_geom_bond_site_symmetry_2
Co1 N1 1_555 1_555
Co2 N8 1_555 1_555
N1 C1 1_555 1_555
N2 Co1 1_555 1_555
N3 N2 1_555 1_555
N4 Co1 1_555 1_555
N5 Co1 1_555 1_555
N6 Co1 1_555 1_555
N7 N6 1_555 1_555
N8 C48 1_555 1_555
N9 Co2 1_555 1_555
N10 N9 1_555 1_555
C1 C2 1_555 1_555
C2 H1 1_555 1_555
C3 C2 1_555 1_555
H2 C3 1_555 1_555
C4 C3 1_555 1_555
H3 C4 1_555 1_555
C5 N1 1_555 1_555
H4 C5 1_555 1_555
C6 N3 1_555 1_555
H5 C6 1_555 1_555
C7 C6 1_555 1_555
H6 C7 1_555 1_555
C8 N2 1_555 1_555
C9 N3 1_555 1_555
H7 C9 1_555 1_555
H8 C9 1_555 1_555
C10 C9 1_555 1_555
C11 C10 1_555 1_555
H9 C11 1_555 1_555
C12 C11 1_555 1_555
C13 C12 1_555 1_555
H10 C13 1_555 1_555
C14 C13 1_555 1_555
H11 C14 1_555 1_555
C15 C14 1_555 1_555
H12 C15 1_555 1_555
C16 C15 1_555 1_555
H13 C16 1_555 1_555
C17 C12 1_555 1_555
C18 C17 1_555 1_555
H14 C18 1_555 1_555
C19 C10 1_555 1_555
C20 N4 1_555 1_555
C21 C20 1_555 1_555
H15 C21 1_555 1_555
C22 C21 1_555 1_555
H16 C22 1_555 1_555
C23 C22 1_555 1_555
H17 C23 1_555 1_555
C24 N4 1_555 1_555
H18 C24 1_555 1_555
N11 Co1 1_555 1_555
C25 C20 1_555 1_555
C26 C25 1_555 1_555
H19 C26 1_555 1_555
C27 C26 1_555 1_555
H20 C27 1_555 1_555
N12 N11 1_555 1_555
C28 C19 1_555 1_555
H21 C28 1_555 1_555
H22 C28 1_555 1_555
C29 N5 1_555 1_555
C30 C29 1_555 1_555
H23 C30 1_555 1_555
C31 C30 1_555 1_555
H24 C31 1_555 1_555
C32 C31 1_555 1_555
H25 C32 1_555 1_555
C33 N5 1_555 1_555
H26 C33 1_555 1_555
C34 N6 1_555 1_555
C35 C34 1_555 1_555
H27 C35 1_555 1_555
C36 N7 1_555 1_555
H28 C36 1_555 1_555
C37 N7 1_555 1_555
H29 C37 1_555 1_555
H30 C37 1_555 1_555
C38 C37 1_555 1_555
C39 C38 1_555 1_555
H31 C39 1_555 1_555
C40 C39 1_555 1_555
C41 C40 1_555 1_555
H32 C41 1_555 1_555
C42 C41 1_555 1_555
H33 C42 1_555 1_555
C43 C42 1_555 1_555
H34 C43 1_555 1_555
C44 C43 1_555 1_555
H35 C44 1_555 1_555
C45 C40 1_555 1_555
C46 C45 1_555 1_555
H36 C46 1_555 1_555
C47 C38 1_555 1_555
C48 C49 1_555 1_555
C49 H37 1_555 1_555
C50 C49 1_555 1_555
H38 C50 1_555 1_555
C51 C50 1_555 1_555
H39 C51 1_555 1_555
C52 N8 1_555 1_555
H40 C52 1_555 1_555
C53 N9 1_555 1_555
C54 C53 1_555 1_555
H41 C54 1_555 1_555
C55 N10 1_555 1_555
H42 C55 1_555 1_555
C56 N10 1_555 1_555
H43 C56 1_555 1_555
H44 C56 1_555 1_555
F1 B1 1_555 1_555
F2 B1 1_555 1_555
B1 F2B 1_555 1_555
F3 B2 1_555 1_555
F4 B2 1_555 1_555
B2 F3B 1_555 1_555
F5 B3 1_555 1_555
F6 B3 1_555 1_555
B3 F6B 1_555 1_555
F7 B4 1_555 1_555
F8 B4 1_555 1_555
F9 B4 1_555 1_555
F10 B4 1_555 1_555
F11 B5 1_555 1_555
F12 B5 1_555 1_555
B5 F11B 1_555 1_555
F13 B6 1_555 1_555
F14 B6 1_555 1_555
B6 F14B 1_555 1_555
F15 B7 1_555 1_555
F16 B7 1_555 1_555
F17 B7 1_555 1_555
F18 B7 1_555 1_555
F19 B8 1_555 1_555
F20 B8 1_555 1_555
B8 F19B 1_555 1_555
F21 B9 1_555 1_555
F22 B9 1_555 1_555
F23 B9 1_555 1_555
F24 B9 1_555 1_555
N13 C57 1_555 1_555
C57 C58 1_555 1_555
N14 C59 1_555 1_555
C59 C60 1_555 1_555
N15 C61 1_555 1_555
C61 C62 1_555 1_555
N16 C63 1_555 1_555
C63 C64 1_555 1_555
N17 C65 1_555 1_555
C65 C66 1_555 1_555
N18 C67 1_555 1_555
C67 C68 1_555 1_555
F25 B10 1_555 1_555
F26 B10 1_555 1_555
B10 F25B 1_555 1_555
F27 B11 1_555 1_555
F28 B11 1_555 1_555
B11 F28B 1_555 1_555
Co3 N20 1_555 1_555
Co4 N19 1_555 1_555
N19 C116 1_555 1_555
N20 C69 1_555 1_555
N21 Co3 1_555 1_555
N22 N21 1_555 1_555
N23 Co3 1_555 1_555
N24 Co3 1_555 1_555
N25 N24 1_555 1_555
N26 Co3 1_555 1_555
N27 N26 1_555 1_555
N28 Co3 1_555 1_555
N29 Co4 1_555 1_555
N30 N29 1_555 1_555
C69 C70 1_555 1_555
C70 H45 1_555 1_555
C71 C70 1_555 1_555
H46 C71 1_555 1_555
C72 C71 1_555 1_555
H47 C72 1_555 1_555
C73 N20 1_555 1_555
H48 C73 1_555 1_555
C74 N21 1_555 1_555
C75 C74 1_555 1_555
H49 C75 1_555 1_555
C76 N22 1_555 1_555
H50 C76 1_555 1_555
C77 N22 1_555 1_555
H51 C77 1_555 1_555
H52 C77 1_555 1_555
C78 C77 1_555 1_555
C79 C78 1_555 1_555
H53 C79 1_555 1_555
C80 C79 1_555 1_555
C81 C80 1_555 1_555
H54 C81 1_555 1_555
C82 C81 1_555 1_555
H55 C82 1_555 1_555
C83 C82 1_555 1_555
H56 C83 1_555 1_555
C84 C83 1_555 1_555
H57 C84 1_555 1_555
C85 C80 1_555 1_555
C86 C85 1_555 1_555
H58 C86 1_555 1_555
C87 C78 1_555 1_555
C88 N25 1_555 1_555
H59 C88 1_555 1_555
H60 C88 1_555 1_555
C89 N23 1_555 1_555
C90 C89 1_555 1_555
H61 C90 1_555 1_555
C91 C90 1_555 1_555
H62 C91 1_555 1_555
C92 C91 1_555 1_555
H63 C92 1_555 1_555
C93 N23 1_555 1_555
H64 C93 1_555 1_555
C94 N24 1_555 1_555
C95 C94 1_555 1_555
H65 C95 1_555 1_555
C96 N25 1_555 1_555
H66 C96 1_555 1_555
C97 N28 1_555 1_555
C98 C97 1_555 1_555
H67 C98 1_555 1_555
C99 C98 1_555 1_555
H68 C99 1_555 1_555
C100 C99 1_555 1_555
H69 C100 1_555 1_555
C101 N28 1_555 1_555
H70 C101 1_555 1_555
C102 N26 1_555 1_555
C103 C102 1_555 1_555
H71 C103 1_555 1_555
C104 N27 1_555 1_555
H72 C104 1_555 1_555
C105 N27 1_555 1_555
H73 C105 1_555 1_555
H74 C105 1_555 1_555
C106 C105 1_555 1_555
C107 C106 1_555 1_555
H75 C107 1_555 1_555
C108 C107 1_555 1_555
C109 C108 1_555 1_555
H76 C109 1_555 1_555
C110 C109 1_555 1_555
H77 C110 1_555 1_555
C111 C110 1_555 1_555
H78 C111 1_555 1_555
C112 C111 1_555 1_555
H79 C112 1_555 1_555
C113 C108 1_555 1_555
C114 C113 1_555 1_555
H80 C114 1_555 1_555
C115 C106 1_555 1_555
C116 C117 1_555 1_555
C117 H81 1_555 1_555
C118 C117 1_555 1_555
H82 C118 1_555 1_555
C119 C118 1_555 1_555
H83 C119 1_555 1_555
C120 N19 1_555 1_555
H84 C120 1_555 1_555
C121 N29 1_555 1_555
C122 C121 1_555 1_555
H85 C122 1_555 1_555
C123 N30 1_555 1_555
H86 C123 1_555 1_555
C124 N30 1_555 1_555
H87 C124 1_555 1_555
H88 C124 1_555 1_555
N8A Co2 1_555 1_555
C48A N8A 1_555 1_555
C49A C48A 1_555 1_555
H37A C49A 1_555 1_555
C50A C49A 1_555 1_555
H38A C50A 1_555 1_555
C51A C50A 1_555 1_555
H39A C51A 1_555 1_555
C52A N8A 1_555 1_555
H40A C52A 1_555 1_555
C53A C48A 1_555 1_555
N9A Co2 1_555 1_555
N8B Co2 1_555 1_555
C48B N8B 1_555 1_555
C49B C48B 1_555 1_555
H37B C49B 1_555 1_555
C50B C49B 1_555 1_555
H38B C50B 1_555 1_555
C51B C50B 1_555 1_555
H39B C51B 1_555 1_555
C52B N8B 1_555 1_555
H40B C52B 1_555 1_555
C53B C48B 1_555 1_555
N9B Co2 1_555 1_555
N10B N9B 1_555 1_555
C55B N10B 1_555 1_555
C54B C53B 1_555 1_555
H41B C54B 1_555 1_555
H42B C55B 1_555 1_555
C56B N10B 1_555 1_555
C47B C56B 1_555 1_555
C38B C47B 1_555 1_555
C37B C38B 1_555 1_555
N7B C37B 1_555 1_555
N6B N7B 1_555 1_555
Co1B N6B 1_555 1_555
N1B Co1B 1_555 1_555
C1B N1B 1_555 1_555
C2B C1B 1_555 1_555
H1B C2B 1_555 1_555
C3B C2B 1_555 1_555
H2B C3B 1_555 1_555
C4B C3B 1_555 1_555
H3B C4B 1_555 1_555
C5B N1B 1_555 1_555
H4B C5B 1_555 1_555
C8B C1B 1_555 1_555
N2B Co1B 1_555 1_555
N4B Co1B 1_555 1_555
C20B N4B 1_555 1_555
C21B C20B 1_555 1_555
H15B C21B 1_555 1_555
C22B C21B 1_555 1_555
H16B C22B 1_555 1_555
C23B C22B 1_555 1_555
H17B C23B 1_555 1_555
C24B N4B 1_555 1_555
H18B C24B 1_555 1_555
C25B C20B 1_555 1_555
N11B Co1B 1_555 1_555
N5B Co1B 1_555 1_555
C29B N5B 1_555 1_555
C30B C29B 1_555 1_555
H23B C30B 1_555 1_555
C31B C30B 1_555 1_555
H24B C31B 1_555 1_555
C32B C31B 1_555 1_555
H25B C32B 1_555 1_555
C33B N5B 1_555 1_555
H26B C33B 1_555 1_555
C34B N6B 1_555 1_555
C35B C34B 1_555 1_555
H27B C35B 1_555 1_555
C36B N7B 1_555 1_555
H28B C36B 1_555 1_555
N12B C28 1_555 1_555
C27B N12B 1_555 1_555
C26B C25B 1_555 1_555
H19B C26B 1_555 1_555
H20B C27B 1_555 1_555
N3B N2B 1_555 1_555
C6B N3B 1_555 1_555
H5B C6B 1_555 1_555
C7B C8B 1_555 1_555
H6B C7B 1_555 1_555
C9B N3B 1_555 1_555
H7B C9B 1_555 1_555
H8B C9B 1_555 1_555
C10B C9B 1_555 1_555
C11B C10B 1_555 1_555
H9B C11B 1_555 1_555
C12B C11B 1_555 1_555
C13B C12B 1_555 1_555
H10B C13B 1_555 1_555
C14B C13B 1_555 1_555
H11B C14B 1_555 1_555
C15B C14B 1_555 1_555
H12B C15B 1_555 1_555
C16B C15B 1_555 1_555
H13B C16B 1_555 1_555
C17B C12B 1_555 1_555
C18B C17B 1_555 1_555
H14B C18B 1_555 1_555
C19B C10B 1_555 1_555
C28B C19B 1_555 1_555
N12A C28B 1_555 1_555
N11A N12A 1_555 1_555
Co1A N11A 1_555 1_555
N1A Co1A 1_555 1_555
C1A N1A 1_555 1_555
C2A C1A 1_555 1_555
H1A C2A 1_555 1_555
C3A C2A 1_555 1_555
H2A C3A 1_555 1_555
C4A C3A 1_555 1_555
H3A C4A 1_555 1_555
C5A N1A 1_555 1_555
H4A C5A 1_555 1_555
C8A C1A 1_555 1_555
N2A Co1A 1_555 1_555
N4A Co1A 1_555 1_555
C20A N4A 1_555 1_555
C21A C20A 1_555 1_555
H15A C21A 1_555 1_555
C22A C21A 1_555 1_555
H16A C22A 1_555 1_555
C23A C22A 1_555 1_555
H17A C23A 1_555 1_555
C24A N4A 1_555 1_555
H18A C24A 1_555 1_555
C25A N11A 1_555 1_555
C26A C25A 1_555 1_555
H19A C26A 1_555 1_555
C27A N12A 1_555 1_555
H20A C27A 1_555 1_555
N5A Co1A 1_555 1_555
C29A N5A 1_555 1_555
C30A C29A 1_555 1_555
H23A C30A 1_555 1_555
C31A C30A 1_555 1_555
H24A C31A 1_555 1_555
C32A C31A 1_555 1_555
H25A C32A 1_555 1_555
C33A N5A 1_555 1_555
H26A C33A 1_555 1_555
C34A C29A 1_555 1_555
N6A Co1A 1_555 1_555
N7A N6A 1_555 1_555
C36A N7A 1_555 1_555
C35A C34A 1_555 1_555
H27A C35A 1_555 1_555
H28A C36A 1_555 1_555
C37A N7A 1_555 1_555
H29A C37A 1_555 1_555
H30A C37A 1_555 1_555
C38A C37A 1_555 1_555
C39A C38A 1_555 1_555
H31A C39A 1_555 1_555
C40A C39A 1_555 1_555
C41A C40A 1_555 1_555
H32A C41A 1_555 1_555
C42A C41A 1_555 1_555
H33A C42A 1_555 1_555
C43A C42A 1_555 1_555
H34A C43A 1_555 1_555
C44A C43A 1_555 1_555
H35A C44A 1_555 1_555
C45A C40A 1_555 1_555
C46A C45A 1_555 1_555
H36A C46A 1_555 1_555
C47A C38A 1_555 1_555
C56A C47A 1_555 1_555
N10A N9A 1_555 1_555
C55A N10A 1_555 1_555
C54A C53A 1_555 1_555
H41A C54A 1_555 1_555
H42A C55A 1_555 1_555
H43A C56A 1_555 1_555
H44A C56A 1_555 1_555
N3A N2A 1_555 1_555
C6A N3A 1_555 1_555
H5A C6A 1_555 1_555
C7A C8A 1_555 1_555
H6A C7A 1_555 1_555
C9A N3A 1_555 1_555
H7A C9A 1_555 1_555
H8A C9A 1_555 1_555
C10A C9A 1_555 1_555
C11A C10A 1_555 1_555
H9A C11A 1_555 1_555
C12A C11A 1_555 1_555
C13A C12A 1_555 1_555
H10A C13A 1_555 1_555
C14A C13A 1_555 1_555
H11A C14A 1_555 1_555
C15A C14A 1_555 1_555
H12A C15A 1_555 1_555
C16A C15A 1_555 1_555
H13A C16A 1_555 1_555
C17A C12A 1_555 1_555
C18A C17A 1_555 1_555
H14A C18A 1_555 1_555
C19A C10A 1_555 1_555
C28A N12 1_555 1_555
H21A C28A 1_555 1_555
H22A C28A 1_555 1_555
H21B C28B 1_555 1_555
H22B C28B 1_555 1_555
H29B C37B 1_555 1_555
H30B C37B 1_555 1_555
C39B C38B 1_555 1_555
H31B C39B 1_555 1_555
C40B C39B 1_555 1_555
C41B C40B 1_555 1_555
H32B C41B 1_555 1_555
C42B C41B 1_555 1_555
H33B C42B 1_555 1_555
C43B C42B 1_555 1_555
H34B C43B 1_555 1_555
C44B C43B 1_555 1_555
H35B C44B 1_555 1_555
C45B C40B 1_555 1_555
C46B C47B 1_555 1_555
H36B C46B 1_555 1_555
H43B C56B 1_555 1_555
H44B C56B 1_555 1_555
F2A B1 1_555 1_555
F3A B2 1_555 1_555
F6A B3 1_555 1_555
F11A B5 1_555 1_555
F14A B6 1_555 1_555
F19A B8 1_555 1_555
F25A B10 1_555 1_555
F28A B11 1_555 1_555
C121B C116 1_555 1_555
N29B Co4 1_555 1_555
N19A Co4 1_555 1_555
C116A C121 1_555 1_555
C117A C116A 1_555 1_555
H81A C117A 1_555 1_555
C118A C117A 1_555 1_555
H82A C118A 1_555 1_555
C119A C118A 1_555 1_555
H83A C119A 1_555 1_555
C120A N19A 1_555 1_555
H84A C120A 1_555 1_555
N19B Co4 1_555 1_555
C116B N19B 1_555 1_555
C117B C116B 1_555 1_555
H81B C117B 1_555 1_555
C118B C117B 1_555 1_555
H82B C118B 1_555 1_555
C119B C118B 1_555 1_555
H83B C119B 1_555 1_555
C120B N19B 1_555 1_555
H84B C120B 1_555 1_555
C121A C116B 1_555 1_555
N29A Co4 1_555 1_555
N30A N29A 1_555 1_555
C123A N30A 1_555 1_555
C122A C121A 1_555 1_555
H85A C122A 1_555 1_555
H86A C123A 1_555 1_555
C124A N30A 1_555 1_555
C115A C124A 1_555 1_555
C106A C115A 1_555 1_555
C105A C106A 1_555 1_555
N27A C105A 1_555 1_555
N26A N27A 1_555 1_555
Co3A N26A 1_555 1_555
N20A Co3A 1_555 1_555
C69A N20A 1_555 1_555
C70A C69A 1_555 1_555
H45A C70A 1_555 1_555
C71A C70A 1_555 1_555
H46A C71A 1_555 1_555
C72A C71A 1_555 1_555
H47A C72A 1_555 1_555
C73A N20A 1_555 1_555
H48A C73A 1_555 1_555
C74A C69A 1_555 1_555
N21A Co3A 1_555 1_555
N23A Co3A 1_555 1_555
C89A N23A 1_555 1_555
C90A C89A 1_555 1_555
H61A C90A 1_555 1_555
C91A C90A 1_555 1_555
H62A C91A 1_555 1_555
C92A C91A 1_555 1_555
H63A C92A 1_555 1_555
C93A N23A 1_555 1_555
H64A C93A 1_555 1_555
C94A C89A 1_555 1_555
N24A Co3A 1_555 1_555
N28A Co3A 1_555 1_555
C97A N28A 1_555 1_555
C98A C97A 1_555 1_555
H67A C98A 1_555 1_555
C99A C98A 1_555 1_555
H68A C99A 1_555 1_555
C100A C99A 1_555 1_555
H69A C100A 1_555 1_555
C101A N28A 1_555 1_555
H70A C101A 1_555 1_555
C102A N26A 1_555 1_555
C103A C102A 1_555 1_555
H71A C103A 1_555 1_555
C104A N27A 1_555 1_555
H72A C104A 1_555 1_555
N25A N24A 1_555 1_555
C88A N25A 1_555 1_555
C87B C88A 1_555 1_555
C78B C87B 1_555 1_555
C77B C78B 1_555 1_555
N22B C77B 1_555 1_555
N21B N22B 1_555 1_555
Co3B N21B 1_555 1_555
N20B Co3B 1_555 1_555
C69B N20B 1_555 1_555
C70B C69B 1_555 1_555
H45B C70B 1_555 1_555
C71B C70B 1_555 1_555
H46B C71B 1_555 1_555
C72B C71B 1_555 1_555
H47B C72B 1_555 1_555
C73B N20B 1_555 1_555
H48B C73B 1_555 1_555
C74B N21B 1_555 1_555
C75B C74B 1_555 1_555
H49B C75B 1_555 1_555
C76B N22B 1_555 1_555
H50B C76B 1_555 1_555
N23B Co3B 1_555 1_555
C89B N23B 1_555 1_555
C90B C89B 1_555 1_555
H61B C90B 1_555 1_555
C91B C90B 1_555 1_555
H62B C91B 1_555 1_555
C92B C91B 1_555 1_555
H63B C92B 1_555 1_555
C93B N23B 1_555 1_555
H64B C93B 1_555 1_555
C94B C89B 1_555 1_555
N24B Co3B 1_555 1_555
N26B Co3B 1_555 1_555
N27B N26B 1_555 1_555
C104B N27B 1_555 1_555
C103B C104B 1_555 1_555
C102B N26B 1_555 1_555
C97B C102B 1_555 1_555
N28B Co3B 1_555 1_555
C101B N28B 1_555 1_555
C100B C101B 1_555 1_555
C99B C100B 1_555 1_555
C98B C97B 1_555 1_555
H67B C98B 1_555 1_555
H68B C99B 1_555 1_555
H69B C100B 1_555 1_555
H70B C101B 1_555 1_555
H71B C103B 1_555 1_555
H72B C104B 1_555 1_555
C105B N27B 1_555 1_555
H73B C105B 1_555 1_555
H74B C105B 1_555 1_555
C106B C105B 1_555 1_555
C107B C106B 1_555 1_555
H75B C107B 1_555 1_555
C108B C107B 1_555 1_555
C109B C108B 1_555 1_555
H76B C109B 1_555 1_555
C110B C109B 1_555 1_555
H77B C110B 1_555 1_555
C111B C110B 1_555 1_555
H78B C111B 1_555 1_555
C112B C111B 1_555 1_555
H79B C112B 1_555 1_555
C113B C108B 1_555 1_555
C114B C113B 1_555 1_555
H80B C114B 1_555 1_555
C115B C106B 1_555 1_555
C124B C115B 1_555 1_555
N30B N29B 1_555 1_555
C123B N30B 1_555 1_555
C122B C121B 1_555 1_555
H85B C122B 1_555 1_555
H86B C123B 1_555 1_555
H87B C124B 1_555 1_555
H88B C124B 1_555 1_555
N25B N24B 1_555 1_555
C88B C87 1_555 1_555
H59B C88B 1_555 1_555
H60B C88B 1_555 1_555
C96B N25B 1_555 1_555
C95B C94B 1_555 1_555
H65B C95B 1_555 1_555
H66B C96B 1_555 1_555
H51B C77B 1_555 1_555
H52B C77B 1_555 1_555
C79B C78B 1_555 1_555
H53B C79B 1_555 1_555
C80B C79B 1_555 1_555
C81B C80B 1_555 1_555
H54B C81B 1_555 1_555
C82B C81B 1_555 1_555
H55B C82B 1_555 1_555
C83B C82B 1_555 1_555
H56B C83B 1_555 1_555
C84B C83B 1_555 1_555
H57B C84B 1_555 1_555
C85B C80B 1_555 1_555
C86B C87B 1_555 1_555
H58B C86B 1_555 1_555
H59A C88A 1_555 1_555
H60A C88A 1_555 1_555
C96A N25A 1_555 1_555
C95A C94A 1_555 1_555
H65A C95A 1_555 1_555
H66A C96A 1_555 1_555
N22A N21A 1_555 1_555
C76A N22A 1_555 1_555
C75A C74A 1_555 1_555
H49A C75A 1_555 1_555
H50A C76A 1_555 1_555
C77A N22A 1_555 1_555
H51A C77A 1_555 1_555
H52A C77A 1_555 1_555
C78A C77A 1_555 1_555
C79A C78A 1_555 1_555
H53A C79A 1_555 1_555
C80A C79A 1_555 1_555
C81A C80A 1_555 1_555
H54A C81A 1_555 1_555
C82A C81A 1_555 1_555
H55A C82A 1_555 1_555
C83A C82A 1_555 1_555
H56A C83A 1_555 1_555
C84A C83A 1_555 1_555
H57A C84A 1_555 1_555
C85A C80A 1_555 1_555
C86A C85A 1_555 1_555
H58A C86A 1_555 1_555
C87A C88 1_555 1_555
H73A C105A 1_555 1_555
H74A C105A 1_555 1_555
C107A C106A 1_555 1_555
H75A C107A 1_555 1_555
C108A C107A 1_555 1_555
C109A C108A 1_555 1_555
H76A C109A 1_555 1_555
C110A C109A 1_555 1_555
H77A C110A 1_555 1_555
C111A C110A 1_555 1_555
H78A C111A 1_555 1_555
C112A C111A 1_555 1_555
H79A C112A 1_555 1_555
C113A C108A 1_555 1_555
C114A C115A 1_555 1_555
H80A C114A 1_555 1_555
H87A C124A 1_555 1_555
H88A C124A 1_555 1_555
C1 C8 1_555 1_555
C4 C5 1_555 1_555
C7 C8 1_555 1_555
C16 C17 1_555 1_555
C18 C19 1_555 1_555
C23 C24 1_555 1_555
N11 C25 1_555 1_555
C27 N12 1_555 1_555
C29 C34 1_555 1_555
C32 C33 1_555 1_555
C35 C36 1_555 1_555
C44 C45 1_555 1_555
C46 C47 1_555 1_555
C47 C56 1_555 1_555
C48 C53 1_555 1_555
C51 C52 1_555 1_555
C54 C55 1_555 1_555
C69 C74 1_555 1_555
C72 C73 1_555 1_555
C75 C76 1_555 1_555
C84 C85 1_555 1_555
C86 C87 1_555 1_555
C89 C94 1_555 1_555
C92 C93 1_555 1_555
C95 C96 1_555 1_555
C97 C102 1_555 1_555
C100 C101 1_555 1_555
C103 C104 1_555 1_555
C112 C113 1_555 1_555
C114 C115 1_555 1_555
C115 C124 1_555 1_555
C119 C120 1_555 1_555
C122 C123 1_555 1_555
C51A C52A 1_555 1_555
C53A N9A 1_555 1_555
C51B C52B 1_555 1_555
C53B N9B 1_555 1_555
C55B C54B 1_555 1_555
C4B C5B 1_555 1_555
C8B N2B 1_555 1_555
C23B C24B 1_555 1_555
C25B N11B 1_555 1_555
N11B N12B 1_555 1_555
C29B C34B 1_555 1_555
C32B C33B 1_555 1_555
C35B C36B 1_555 1_555
C27B C26B 1_555 1_555
C6B C7B 1_555 1_555
C16B C17B 1_555 1_555
C18B C19B 1_555 1_555
C4A C5A 1_555 1_555
C8A N2A 1_555 1_555
C20A C25A 1_555 1_555
C23A C24A 1_555 1_555
C26A C27A 1_555 1_555
C32A C33A 1_555 1_555
C34A N6A 1_555 1_555
C36A C35A 1_555 1_555
C44A C45A 1_555 1_555
C46A C47A 1_555 1_555
C56A N10A 1_555 1_555
C55A C54A 1_555 1_555
C6A C7A 1_555 1_555
C16A C17A 1_555 1_555
C18A C19A 1_555 1_555
C19A C28A 1_555 1_555
C44B C45B 1_555 1_555
C45B C46B 1_555 1_555
C121B N29B 1_555 1_555
N19A C116A 1_555 1_555
C119A C120A 1_555 1_555
C119B C120B 1_555 1_555
C121A N29A 1_555 1_555
C123A C122A 1_555 1_555
C72A C73A 1_555 1_555
C74A N21A 1_555 1_555
C92A C93A 1_555 1_555
C94A N24A 1_555 1_555
C97A C102A 1_555 1_555
C100A C101A 1_555 1_555
C103A C104A 1_555 1_555
C69B C74B 1_555 1_555
C72B C73B 1_555 1_555
C75B C76B 1_555 1_555
C92B C93B 1_555 1_555
C94B N24B 1_555 1_555
C103B C102B 1_555 1_555
C97B N28B 1_555 1_555
C99B C98B 1_555 1_555
C112B C113B 1_555 1_555
C114B C115B 1_555 1_555
C124B N30B 1_555 1_555
C123B C122B 1_555 1_555
N25B C88B 1_555 1_555
C96B C95B 1_555 1_555
C84B C85B 1_555 1_555
C85B C86B 1_555 1_555
C96A C95A 1_555 1_555
C76A C75A 1_555 1_555
C78A C87A 1_555 1_555
C84A C85A 1_555 1_555
C86A C87A 1_555 1_555
C112A C113A 1_555 1_555
C113A C114A 1_555 1_555

#END
