# generated using pymatgen
data_Co8B17H264C364N86(OF34)2
_symmetry_space_group_name_H-M   'P 1'
_cell_length_a   18.54000000
_cell_length_b   18.54000000
_cell_length_c   61.30505045
_cell_angle_alpha   81.30288580
_cell_angle_beta   81.30288580
_cell_angle_gamma   60.00000000
_symmetry_Int_Tables_number   1
_chemical_formula_structural   Co8B17H264C364N86(OF34)2
_chemical_formula_sum   'Co16 B34 H528 C728 N172 O4 F136'
_cell_volume   17968.97503583
_cell_formula_units_Z   2
loop_
 _symmetry_equiv_pos_site_id
 _symmetry_equiv_pos_as_xyz
  1  'x, y, z'
loop_
 _atom_site_type_symbol
 _atom_site_label
 _atom_site_symmetry_multiplicity
 _atom_site_fract_x
 _atom_site_fract_y
 _atom_site_fract_z
 _atom_site_occupancy
  B  B1  1  0.626187  0.626187  0.121440  1
  B  B2  1  0.373813  0.373813  0.878560  1
  B  B3  1  0.877910  0.877910  0.366270  1
  B  B4  1  0.122090  0.122090  0.633730  1
  B  B5  1  0.923120  0.923120  0.230640  1
  B  B6  1  0.076880  0.076880  0.769360  1
  B  B7  1  0.063490  0.590690  0.071430  1
  B  B8  1  0.274390  0.063490  0.071430  1
  B  B9  1  0.590690  0.274390  0.071430  1
  B  B10  1  0.936510  0.409310  0.928570  1
  B  B11  1  0.725610  0.936510  0.928570  1
  B  B12  1  0.409310  0.725610  0.928570  1
  B  B13  1  0.531927  0.531927  0.404220  1
  B  B14  1  0.468073  0.468073  0.595780  1
  B  B15  1  0.253353  0.253353  0.239940  1
  B  B16  1  0.746647  0.746647  0.760060  1
  B  B17  1  0.798210  0.546610  0.247770  1
  B  B18  1  0.407410  0.798210  0.247770  1
  B  B19  1  0.546610  0.407410  0.247770  1
  B  B20  1  0.201790  0.453390  0.752230  1
  B  B21  1  0.592590  0.201790  0.752230  1
  B  B22  1  0.453390  0.592590  0.752230  1
  B  B23  1  0.292963  0.292963  0.121110  1
  B  B24  1  0.707037  0.707037  0.878890  1
  B  B25  1  0.413890  0.979890  0.411930  1
  B  B26  1  0.194290  0.413890  0.411930  1
  B  B27  1  0.979890  0.194290  0.411930  1
  B  B28  1  0.586110  0.020110  0.588070  1
  B  B29  1  0.805710  0.586110  0.588070  1
  B  B30  1  0.020110  0.805710  0.588070  1
  B  B31  1  0.954690  0.954690  0.135930  1
  B  B32  1  0.045310  0.045310  0.864070  1
  B  B33  1  0.975900  0.975900  0.072300  1
  B  B34  1  0.024100  0.024100  0.927700  1
  C  C35  1  0.812610  0.812610  0.562170  1
  C  C36  1  0.187390  0.187390  0.437830  1
  C  C37  1  0.803520  0.803520  0.589440  1
  C  C38  1  0.196480  0.196480  0.410560  1
  C  C39  1  0.248850  0.704550  0.547350  1
  C  C40  1  0.499250  0.248850  0.547350  1
  C  C41  1  0.704550  0.499250  0.547350  1
  C  C42  1  0.751150  0.295450  0.452650  1
  C  C43  1  0.500750  0.751150  0.452650  1
  C  C44  1  0.295450  0.500750  0.452650  1
  C  C45  1  0.247170  0.671270  0.570690  1
  C  C46  1  0.510870  0.247170  0.570690  1
  C  C47  1  0.671270  0.510870  0.570690  1
  C  C48  1  0.752830  0.328730  0.429310  1
  C  C49  1  0.489130  0.752830  0.429310  1
  C  C50  1  0.328730  0.489130  0.429310  1
  C  C51  1  0.407350  0.125650  0.457950  1
  C  C52  1  0.009050  0.407350  0.457950  1
  C  C53  1  0.125650  0.009050  0.457950  1
  C  C54  1  0.592650  0.874350  0.542050  1
  C  C55  1  0.990950  0.592650  0.542050  1
  C  C56  1  0.874350  0.990950  0.542050  1
  C  C57  1  0.392620  0.203120  0.439140  1
  C  C58  1  0.965120  0.392620  0.439140  1
  C  C59  1  0.203120  0.965120  0.439140  1
  C  C60  1  0.607380  0.796880  0.560860  1
  C  C61  1  0.034880  0.607380  0.560860  1
  C  C62  1  0.796880  0.034880  0.560860  1
  C  C63  1  0.129940  0.352840  0.049380  1
  C  C64  1  0.467840  0.129940  0.049380  1
  C  C65  1  0.352840  0.467840  0.049380  1
  C  C66  1  0.870060  0.647160  0.950620  1
  C  C67  1  0.532160  0.870060  0.950620  1
  C  C68  1  0.647160  0.532160  0.950620  1
  C  C69  1  0.185920  0.319920  0.067740  1
  C  C70  1  0.426420  0.185920  0.067740  1
  C  C71  1  0.319920  0.426420  0.067740  1
  C  C72  1  0.814080  0.680080  0.932260  1
  C  C73  1  0.573580  0.814080  0.932260  1
  C  C74  1  0.680080  0.573580  0.932260  1
  C  C75  1  0.352030  0.031930  0.347610  1
  C  C76  1  0.268430  0.352030  0.347610  1
  C  C77  1  0.031930  0.268430  0.347610  1
  C  C78  1  0.647970  0.968070  0.652390  1
  C  C79  1  0.731570  0.647970  0.652390  1
  C  C80  1  0.968070  0.731570  0.652390  1
  C  C81  1  0.323970  0.103170  0.356790  1
  C  C82  1  0.216070  0.323970  0.356790  1
  C  C83  1  0.103170  0.216070  0.356790  1
  C  C84  1  0.676030  0.896830  0.643210  1
  C  C85  1  0.783930  0.676030  0.643210  1
  C  C86  1  0.896830  0.783930  0.643210  1
  C  C87  1  0.565197  0.565197  0.304410  1
  C  C88  1  0.434803  0.434803  0.695590  1
  C  C89  1  0.573197  0.573197  0.280410  1
  C  C90  1  0.426803  0.426803  0.719590  1
  C  C91  1  0.193140  0.926640  0.288180  1.0
  C  C92  1  0.592040  0.193140  0.288180  1.0
  C  C93  1  0.926640  0.592040  0.288180  1.0
  C  C94  1  0.806860  0.073360  0.711820  1.0
  C  C95  1  0.407960  0.806860  0.711820  1.0
  C  C96  1  0.073360  0.407960  0.711820  1.0
  C  C97  1  0.202660  0.981560  0.271620  1.0
  C  C98  1  0.544160  0.202660  0.271620  1.0
  C  C99  1  0.981560  0.544160  0.271620  1.0
  C  C100  1  0.797340  0.018440  0.728380  1.0
  C  C101  1  0.455840  0.797340  0.728380  1.0
  C  C102  1  0.018440  0.455840  0.728380  1.0
  C  C103  1  0.260290  0.006990  0.273930  1.0
  C  C104  1  0.458790  0.260290  0.273930  1.0
  C  C105  1  0.006990  0.458790  0.273930  1.0
  C  C106  1  0.739710  0.993010  0.726070  1.0
  C  C107  1  0.541210  0.739710  0.726070  1.0
  C  C108  1  0.993010  0.541210  0.726070  1.0
  C  C109  1  0.304190  0.976590  0.292230  1.0
  C  C110  1  0.426990  0.304190  0.292230  1.0
  C  C111  1  0.976590  0.426990  0.292230  1.0
  C  C112  1  0.695810  0.023410  0.707770  1.0
  C  C113  1  0.573010  0.695810  0.707770  1.0
  C  C114  1  0.023410  0.573010  0.707770  1.0
  C  C115  1  0.293050  0.921150  0.307350  1.0
  C  C116  1  0.478450  0.293050  0.307350  1.0
  C  C117  1  0.921150  0.478450  0.307350  1.0
  C  C118  1  0.706950  0.078850  0.692650  1.0
  C  C119  1  0.521550  0.706950  0.692650  1.0
  C  C120  1  0.078850  0.521550  0.692650  1.0
  C  C121  1  0.131530  0.898430  0.287610  1.0
  C  C122  1  0.682430  0.131530  0.287610  1.0
  C  C123  1  0.898430  0.682430  0.287610  1.0
  C  C124  1  0.868470  0.101570  0.712390  1.0
  C  C125  1  0.317570  0.868470  0.712390  1.0
  C  C126  1  0.101570  0.317570  0.712390  1.0
  C  C127  1  0.081410  0.909910  0.271470  1.0
  C  C128  1  0.737210  0.081410  0.271470  1.0
  C  C129  1  0.909910  0.737210  0.271470  1.0
  C  C130  1  0.918590  0.090090  0.728530  1.0
  C  C131  1  0.262790  0.918590  0.728530  1.0
  C  C132  1  0.090090  0.262790  0.728530  1.0
  C  C133  1  0.039820  0.867520  0.279840  1.0
  C  C134  1  0.812820  0.039820  0.279840  1.0
  C  C135  1  0.867520  0.812820  0.279840  1.0
  C  C136  1  0.960180  0.132480  0.720160  1.0
  C  C137  1  0.187180  0.960180  0.720160  1.0
  C  C138  1  0.132480  0.187180  0.720160  1.0
  C  C139  1  0.042830  0.775530  0.314610  1.0
  C  C140  1  0.867030  0.042830  0.314610  1.0
  C  C141  1  0.775530  0.867030  0.314610  1.0
  C  C142  1  0.957170  0.224470  0.685390  1.0
  C  C143  1  0.132970  0.957170  0.685390  1.0
  C  C144  1  0.224470  0.132970  0.685390  1.0
  C  C145  1  0.083770  0.687770  0.306690  1.0
  C  C146  1  0.921770  0.083770  0.306690  1.0
  C  C147  1  0.687770  0.921770  0.306690  1.0
  C  C148  1  0.916230  0.312230  0.693310  1.0
  C  C149  1  0.078230  0.916230  0.693310  1.0
  C  C150  1  0.312230  0.078230  0.693310  1.0
  C  C151  1  0.135590  0.668190  0.288030  1.0
  C  C152  1  0.908190  0.135590  0.288030  1.0
  C  C153  1  0.668190  0.908190  0.288030  1.0
  C  C154  1  0.864410  0.331810  0.711970  1.0
  C  C155  1  0.091810  0.864410  0.711970  1.0
  C  C156  1  0.331810  0.091810  0.711970  1.0
  C  C157  1  0.171890  0.588090  0.280230  1.0
  C  C158  1  0.959790  0.171890  0.280230  1.0
  C  C159  1  0.588090  0.959790  0.280230  1.0
  C  C160  1  0.828110  0.411910  0.719770  1.0
  C  C161  1  0.040210  0.828110  0.719770  1.0
  C  C162  1  0.411910  0.040210  0.719770  1.0
  C  C163  1  0.227900  0.566600  0.261000  1.0
  C  C164  1  0.944500  0.227900  0.261000  1.0
  C  C165  1  0.566600  0.944500  0.261000  1.0
  C  C166  1  0.772100  0.433400  0.739000  1.0
  C  C167  1  0.055500  0.772100  0.739000  1.0
  C  C168  1  0.433400  0.055500  0.739000  1.0
  C  C169  1  0.264150  0.487750  0.254250  1.0
  C  C170  1  0.993850  0.264150  0.254250  1.0
  C  C171  1  0.487750  0.993850  0.254250  1.0
  C  C172  1  0.735850  0.512250  0.745750  1.0
  C  C173  1  0.006150  0.735850  0.745750  1.0
  C  C174  1  0.512250  0.006150  0.745750  1.0
  C  C175  1  0.243650  0.427850  0.265950  1.0
  C  C176  1  0.062550  0.243650  0.265950  1.0
  C  C177  1  0.427850  0.062550  0.265950  1.0
  C  C178  1  0.756350  0.572150  0.734050  1.0
  C  C179  1  0.937450  0.756350  0.734050  1.0
  C  C180  1  0.572150  0.937450  0.734050  1.0
  C  C181  1  0.190380  0.446280  0.285060  1.0
  C  C182  1  0.078280  0.190380  0.285060  1.0
  C  C183  1  0.446280  0.078280  0.285060  1.0
  C  C184  1  0.809620  0.553720  0.714940  1.0
  C  C185  1  0.921720  0.809620  0.714940  1.0
  C  C186  1  0.553720  0.921720  0.714940  1.0
  C  C187  1  0.152880  0.527880  0.292560  1.0
  C  C188  1  0.026680  0.152880  0.292560  1.0
  C  C189  1  0.527880  0.026680  0.292560  1.0
  C  C190  1  0.847120  0.472120  0.707440  1.0
  C  C191  1  0.973320  0.847120  0.707440  1.0
  C  C192  1  0.472120  0.973320  0.707440  1.0
  C  C193  1  0.098400  0.549400  0.312300  1.0
  C  C194  1  0.039900  0.098400  0.312300  1.0
  C  C195  1  0.549400  0.039900  0.312300  1.0
  C  C196  1  0.901600  0.450600  0.687700  1.0
  C  C197  1  0.960100  0.901600  0.687700  1.0
  C  C198  1  0.450600  0.960100  0.687700  1.0
  C  C199  1  0.063630  0.628430  0.319410  1.0
  C  C200  1  0.988530  0.063630  0.319410  1.0
  C  C201  1  0.628430  0.988530  0.319410  1.0
  C  C202  1  0.936370  0.371570  0.680590  1.0
  C  C203  1  0.011470  0.936370  0.680590  1.0
  C  C204  1  0.371570  0.011470  0.680590  1.0
  C  C205  1  0.000800  0.005200  0.340500  1.0
  C  C206  1  0.653500  0.000800  0.340500  1.0
  C  C207  1  0.005200  0.653500  0.340500  1.0
  C  C208  1  0.999200  0.994800  0.659500  1.0
  C  C209  1  0.346500  0.999200  0.659500  1.0
  C  C210  1  0.994800  0.346500  0.659500  1.0
  C  C211  1  0.281310  0.847710  0.363870  1.0
  C  C212  1  0.507110  0.281310  0.363870  1.0
  C  C213  1  0.847710  0.507110  0.363870  1.0
  C  C214  1  0.718690  0.152290  0.636130  1.0
  C  C215  1  0.492890  0.718690  0.636130  1.0
  C  C216  1  0.152290  0.492890  0.636130  1.0
  C  C217  1  0.336320  0.842620  0.377940  1.0
  C  C218  1  0.443120  0.336320  0.377940  1.0
  C  C219  1  0.842620  0.443120  0.377940  1.0
  C  C220  1  0.663680  0.157380  0.622060  1.0
  C  C221  1  0.556880  0.663680  0.622060  1.0
  C  C222  1  0.157380  0.556880  0.622060  1.0
  C  C223  1  0.418140  0.775340  0.376380  1.0
  C  C224  1  0.430140  0.418140  0.376380  1.0
  C  C225  1  0.775340  0.430140  0.376380  1.0
  C  C226  1  0.581860  0.224660  0.623620  1.0
  C  C227  1  0.569860  0.581860  0.623620  1.0
  C  C228  1  0.224660  0.569860  0.623620  1.0
  C  C229  1  0.439890  0.717390  0.362130  1.0
  C  C230  1  0.480590  0.439890  0.362130  1.0
  C  C231  1  0.717390  0.480590  0.362130  1.0
  C  C232  1  0.560110  0.282610  0.637870  1.0
  C  C233  1  0.519410  0.560110  0.637870  1.0
  C  C234  1  0.282610  0.519410  0.637870  1.0
  C  C235  1  0.381970  0.726270  0.348690  1.0
  C  C236  1  0.543070  0.381970  0.348690  1.0
  C  C237  1  0.726270  0.543070  0.348690  1.0
  C  C238  1  0.618030  0.273730  0.651310  1.0
  C  C239  1  0.456930  0.618030  0.651310  1.0
  C  C240  1  0.273730  0.456930  0.651310  1.0
  C  C241  1  0.193890  0.917090  0.363630  1.0
  C  C242  1  0.525390  0.193890  0.363630  1.0
  C  C243  1  0.917090  0.525390  0.363630  1.0
  C  C244  1  0.806110  0.082910  0.636370  1.0
  C  C245  1  0.474610  0.806110  0.636370  1.0
  C  C246  1  0.082910  0.474610  0.636370  1.0
  C  C247  1  0.149160  0.987960  0.375420  1.0
  C  C248  1  0.487460  0.149160  0.375420  1.0
  C  C249  1  0.987960  0.487460  0.375420  1.0
  C  C250  1  0.850840  0.012040  0.624580  1.0
  C  C251  1  0.512540  0.850840  0.624580  1.0
  C  C252  1  0.012040  0.512540  0.624580  1.0
  C  C253  1  0.072110  0.029910  0.368070  1.0
  C  C254  1  0.529910  0.072110  0.368070  1.0
  C  C255  1  0.029910  0.529910  0.368070  1.0
  C  C256  1  0.927890  0.970090  0.631930  1.0
  C  C257  1  0.470090  0.927890  0.631930  1.0
  C  C258  1  0.970090  0.470090  0.631930  1.0
  C  C259  1  0.281550  0.631350  0.323550  1.0
  C  C260  1  0.763550  0.281550  0.323550  1.0
  C  C261  1  0.631350  0.763550  0.323550  1.0
  C  C262  1  0.718450  0.368650  0.676450  1.0
  C  C263  1  0.236450  0.718450  0.676450  1.0
  C  C264  1  0.368650  0.236450  0.676450  1.0
  C  C265  1  0.324190  0.554790  0.314430  1.0
  C  C266  1  0.806590  0.324190  0.314430  1.0
  C  C267  1  0.554790  0.806590  0.314430  1.0
  C  C268  1  0.675810  0.445210  0.685570  1.0
  C  C269  1  0.193410  0.675810  0.685570  1.0
  C  C270  1  0.445210  0.193410  0.685570  1.0
  C  C271  1  0.367120  0.551020  0.293640  1.0
  C  C272  1  0.788220  0.367120  0.293640  1.0
  C  C273  1  0.551020  0.788220  0.293640  1.0
  C  C274  1  0.632880  0.448980  0.706360  1.0
  C  C275  1  0.211780  0.632880  0.706360  1.0
  C  C276  1  0.448980  0.211780  0.706360  1.0
  C  C277  1  0.365400  0.621800  0.282900  1.0
  C  C278  1  0.729900  0.365400  0.282900  1.0
  C  C279  1  0.621800  0.729900  0.282900  1.0
  C  C280  1  0.634600  0.378200  0.717100  1.0
  C  C281  1  0.270100  0.634600  0.717100  1.0
  C  C282  1  0.378200  0.270100  0.717100  1.0
  C  C283  1  0.322510  0.696510  0.292770  1.0
  C  C284  1  0.688210  0.322510  0.292770  1.0
  C  C285  1  0.696510  0.688210  0.292770  1.0
  C  C286  1  0.677490  0.303490  0.707230  1.0
  C  C287  1  0.311790  0.677490  0.707230  1.0
  C  C288  1  0.303490  0.311790  0.707230  1.0
  C  C289  1  0.232630  0.642630  0.345210  1.0
  C  C290  1  0.779530  0.232630  0.345210  1.0
  C  C291  1  0.642630  0.779530  0.345210  1.0
  C  C292  1  0.767370  0.357370  0.654790  1.0
  C  C293  1  0.220470  0.767370  0.654790  1.0
  C  C294  1  0.357370  0.220470  0.654790  1.0
  C  C295  1  0.223940  0.585940  0.361080  1.0
  C  C296  1  0.829040  0.223940  0.361080  1.0
  C  C297  1  0.585940  0.829040  0.361080  1.0
  C  C298  1  0.776060  0.414060  0.638920  1.0
  C  C299  1  0.170960  0.776060  0.638920  1.0
  C  C300  1  0.414060  0.170960  0.638920  1.0
  C  C301  1  0.172750  0.632150  0.378450  1.0
  C  C302  1  0.816650  0.172750  0.378450  1.0
  C  C303  1  0.632150  0.816650  0.378450  1.0
  C  C304  1  0.827250  0.367850  0.621550  1.0
  C  C305  1  0.183350  0.827250  0.621550  1.0
  C  C306  1  0.367850  0.183350  0.621550  1.0
  C  C307  1  0.098050  0.783850  0.385350  1.0
  C  C308  1  0.732750  0.098050  0.385350  1.0
  C  C309  1  0.783850  0.732750  0.385350  1.0
  C  C310  1  0.901950  0.216150  0.614650  1.0
  C  C311  1  0.267250  0.901950  0.614650  1.0
  C  C312  1  0.216150  0.267250  0.614650  1.0
  C  C313  1  0.130660  0.779260  0.406920  1.0
  C  C314  1  0.683160  0.130660  0.406920  1.0
  C  C315  1  0.779260  0.683160  0.406920  1.0
  C  C316  1  0.869340  0.220740  0.593080  1.0
  C  C317  1  0.316840  0.869340  0.593080  1.0
  C  C318  1  0.220740  0.316840  0.593080  1.0
  C  C319  1  0.213430  0.733730  0.410610  1.0
  C  C320  1  0.642230  0.213430  0.410610  1.0
  C  C321  1  0.733730  0.642230  0.410610  1.0
  C  C322  1  0.786570  0.266270  0.589390  1.0
  C  C323  1  0.357770  0.786570  0.589390  1.0
  C  C324  1  0.266270  0.357770  0.589390  1.0
  C  C325  1  0.242480  0.729480  0.430860  1.0
  C  C326  1  0.597180  0.242480  0.430860  1.0
  C  C327  1  0.729480  0.597180  0.430860  1.0
  C  C328  1  0.757520  0.270520  0.569140  1.0
  C  C329  1  0.402820  0.757520  0.569140  1.0
  C  C330  1  0.270520  0.402820  0.569140  1.0
  C  C331  1  0.328320  0.680320  0.434940  1.0
  C  C332  1  0.556420  0.328320  0.434940  1.0
  C  C333  1  0.680320  0.556420  0.434940  1.0
  C  C334  1  0.671680  0.319680  0.565060  1.0
  C  C335  1  0.443580  0.671680  0.565060  1.0
  C  C336  1  0.319680  0.443580  0.565060  1.0
  C  C337  1  0.352370  0.675470  0.455190  1.0
  C  C338  1  0.516970  0.352370  0.455190  1.0
  C  C339  1  0.675470  0.516970  0.455190  1.0
  C  C340  1  0.647630  0.324530  0.544810  1.0
  C  C341  1  0.483030  0.647630  0.544810  1.0
  C  C342  1  0.324530  0.483030  0.544810  1.0
  C  C343  1  0.294710  0.719410  0.472470  1.0
  C  C344  1  0.513410  0.294710  0.472470  1.0
  C  C345  1  0.719410  0.513410  0.472470  1.0
  C  C346  1  0.705290  0.280590  0.527530  1.0
  C  C347  1  0.486590  0.705290  0.527530  1.0
  C  C348  1  0.280590  0.486590  0.527530  1.0
  C  C349  1  0.212610  0.767010  0.468870  1.0
  C  C350  1  0.551510  0.212610  0.468870  1.0
  C  C351  1  0.767010  0.551510  0.468870  1.0
  C  C352  1  0.787390  0.232990  0.531130  1.0
  C  C353  1  0.448490  0.787390  0.531130  1.0
  C  C354  1  0.232990  0.448490  0.531130  1.0
  C  C355  1  0.184280  0.773780  0.448260  1.0
  C  C356  1  0.593680  0.184280  0.448260  1.0
  C  C357  1  0.773780  0.593680  0.448260  1.0
  C  C358  1  0.815720  0.226220  0.551740  1.0
  C  C359  1  0.406320  0.815720  0.551740  1.0
  C  C360  1  0.226220  0.406320  0.551740  1.0
  C  C361  1  0.098150  0.823650  0.443850  1.0
  C  C362  1  0.634350  0.098150  0.443850  1.0
  C  C363  1  0.823650  0.634350  0.443850  1.0
  C  C364  1  0.901850  0.176350  0.556150  1.0
  C  C365  1  0.365650  0.901850  0.556150  1.0
  C  C366  1  0.176350  0.365650  0.556150  1.0
  C  C367  1  0.071450  0.826650  0.424050  1.0
  C  C368  1  0.677850  0.071450  0.424050  1.0
  C  C369  1  0.826650  0.677850  0.424050  1.0
  C  C370  1  0.928550  0.173350  0.575950  1.0
  C  C371  1  0.322150  0.928550  0.575950  1.0
  C  C372  1  0.173350  0.322150  0.575950  1.0
  C  C373  1  0.015730  0.718130  0.481410  1.0
  C  C374  1  0.784730  0.015730  0.481410  1.0
  C  C375  1  0.718130  0.784730  0.481410  1.0
  C  C376  1  0.984270  0.281870  0.518590  1.0
  C  C377  1  0.215270  0.984270  0.518590  1.0
  C  C378  1  0.281870  0.215270  0.518590  1.0
  C  C379  1  0.086530  0.676030  0.492510  1.0
  C  C380  1  0.744930  0.086530  0.492510  1.0
  C  C381  1  0.676030  0.744930  0.492510  1.0
  C  C382  1  0.913470  0.323970  0.507490  1.0
  C  C383  1  0.255070  0.913470  0.507490  1.0
  C  C384  1  0.323970  0.255070  0.507490  1.0
  C  C385  1  0.091770  0.709470  0.510390  1.0
  C  C386  1  0.688370  0.091770  0.510390  1.0
  C  C387  1  0.709470  0.688370  0.510390  1.0
  C  C388  1  0.908230  0.290530  0.489610  1.0
  C  C389  1  0.311630  0.908230  0.489610  1.0
  C  C390  1  0.290530  0.311630  0.489610  1.0
  C  C391  1  0.024750  0.784250  0.516750  1.0
  C  C392  1  0.674250  0.024750  0.516750  1.0
  C  C393  1  0.784250  0.674250  0.516750  1.0
  C  C394  1  0.975250  0.215750  0.483250  1.0
  C  C395  1  0.325750  0.975250  0.483250  1.0
  C  C396  1  0.215750  0.325750  0.483250  1.0
  C  C397  1  0.955390  0.822790  0.504630  1.0
  C  C398  1  0.717190  0.955390  0.504630  1.0
  C  C399  1  0.822790  0.717190  0.504630  1.0
  C  C400  1  0.044610  0.177210  0.495370  1.0
  C  C401  1  0.282810  0.044610  0.495370  1.0
  C  C402  1  0.177210  0.282810  0.495370  1.0
  C  C403  1  0.844330  0.005630  0.461910  1.0
  C  C404  1  0.688130  0.844330  0.461910  1.0
  C  C405  1  0.005630  0.688130  0.461910  1.0
  C  C406  1  0.155670  0.994370  0.538090  1.0
  C  C407  1  0.311870  0.155670  0.538090  1.0
  C  C408  1  0.994370  0.311870  0.538090  1.0
  C  C409  1  0.875130  0.059630  0.451410  1.0
  C  C410  1  0.613830  0.875130  0.451410  1.0
  C  C411  1  0.059630  0.613830  0.451410  1.0
  C  C412  1  0.124870  0.940370  0.548590  1.0
  C  C413  1  0.386170  0.124870  0.548590  1.0
  C  C414  1  0.940370  0.386170  0.548590  1.0
  C  C415  1  0.929560  0.017960  0.433920  1.0
  C  C416  1  0.618560  0.929560  0.433920  1.0
  C  C417  1  0.017960  0.618560  0.433920  1.0
  C  C418  1  0.070440  0.982040  0.566080  1.0
  C  C419  1  0.381440  0.070440  0.566080  1.0
  C  C420  1  0.982040  0.381440  0.566080  1.0
  C  C421  1  0.980090  0.879890  0.419430  1.0
  C  C422  1  0.720590  0.980090  0.419430  1.0
  C  C423  1  0.879890  0.720590  0.419430  1.0
  C  C424  1  0.019910  0.120110  0.580570  1.0
  C  C425  1  0.279410  0.019910  0.580570  1.0
  C  C426  1  0.120110  0.279410  0.580570  1.0
  C  C427  1  0.722280  0.977080  0.120960  1.0
  C  C428  1  0.179680  0.722280  0.120960  1.0
  C  C429  1  0.977080  0.179680  0.120960  1.0
  C  C430  1  0.277720  0.022920  0.879040  1.0
  C  C431  1  0.820320  0.277720  0.879040  1.0
  C  C432  1  0.022920  0.820320  0.879040  1.0
  C  C433  1  0.748460  0.028960  0.108420  1.0
  C  C434  1  0.114160  0.748460  0.108420  1.0
  C  C435  1  0.028960  0.114160  0.108420  1.0
  C  C436  1  0.251540  0.971040  0.891580  1.0
  C  C437  1  0.885840  0.251540  0.891580  1.0
  C  C438  1  0.971040  0.885840  0.891580  1.0
  C  C439  1  0.702510  0.114310  0.110970  1.0
  C  C440  1  0.072210  0.702510  0.110970  1.0
  C  C441  1  0.114310  0.072210  0.110970  1.0
  C  C442  1  0.297490  0.885690  0.889030  1.0
  C  C443  1  0.927790  0.297490  0.889030  1.0
  C  C444  1  0.885690  0.927790  0.889030  1.0
  C  C445  1  0.632980  0.143580  0.126060  1.0
  C  C446  1  0.097380  0.632980  0.126060  1.0
  C  C447  1  0.143580  0.097380  0.126060  1.0
  C  C448  1  0.367020  0.856420  0.873940  1.0
  C  C449  1  0.902620  0.367020  0.873940  1.0
  C  C450  1  0.856420  0.902620  0.873940  1.0
  C  C451  1  0.610640  0.087140  0.138180  1.0
  C  C452  1  0.164040  0.610640  0.138180  1.0
  C  C453  1  0.087140  0.164040  0.138180  1.0
  C  C454  1  0.389360  0.912860  0.861820  1.0
  C  C455  1  0.835960  0.389360  0.861820  1.0
  C  C456  1  0.912860  0.835960  0.861820  1.0
  C  C457  1  0.849980  0.757880  0.110760  1.0
  C  C458  1  0.281380  0.849980  0.110760  1.0
  C  C459  1  0.757880  0.281380  0.110760  1.0
  C  C460  1  0.150020  0.242120  0.889240  1.0
  C  C461  1  0.718620  0.150020  0.889240  1.0
  C  C462  1  0.242120  0.718620  0.889240  1.0
  C  C463  1  0.837480  0.836880  0.105660  1.0
  C  C464  1  0.219980  0.837480  0.105660  1.0
  C  C465  1  0.836880  0.219980  0.105660  1.0
  C  C466  1  0.162520  0.163120  0.894340  1.0
  C  C467  1  0.780020  0.162520  0.894340  1.0
  C  C468  1  0.163120  0.780020  0.894340  1.0
  C  C469  1  0.766170  0.887370  0.118890  1.0
  C  C470  1  0.227570  0.766170  0.118890  1.0
  C  C471  1  0.887370  0.227570  0.118890  1.0
  C  C472  1  0.233830  0.112630  0.881110  1.0
  C  C473  1  0.772430  0.233830  0.881110  1.0
  C  C474  1  0.112630  0.772430  0.881110  1.0
  C  C475  1  0.783920  0.690520  0.139140  1.0
  C  C476  1  0.386420  0.783920  0.139140  1.0
  C  C477  1  0.690520  0.386420  0.139140  1.0
  C  C478  1  0.216080  0.309480  0.860860  1.0
  C  C479  1  0.613580  0.216080  0.860860  1.0
  C  C480  1  0.309480  0.613580  0.860860  1.0
  C  C481  1  0.844110  0.647810  0.157170  1.0
  C  C482  1  0.350910  0.844110  0.157170  1.0
  C  C483  1  0.647810  0.350910  0.157170  1.0
  C  C484  1  0.155890  0.352190  0.842830  1.0
  C  C485  1  0.649090  0.155890  0.842830  1.0
  C  C486  1  0.352190  0.649090  0.842830  1.0
  C  C487  1  0.891990  0.679590  0.162330  1.0
  C  C488  1  0.266090  0.891990  0.162330  1.0
  C  C489  1  0.679590  0.266090  0.162330  1.0
  C  C490  1  0.108010  0.320410  0.837670  1.0
  C  C491  1  0.733910  0.108010  0.837670  1.0
  C  C492  1  0.320410  0.733910  0.837670  1.0
  C  C493  1  0.947530  0.637830  0.179610  1.0
  C  C494  1  0.235030  0.947530  0.179610  1.0
  C  C495  1  0.637830  0.235030  0.179610  1.0
  C  C496  1  0.052470  0.362170  0.820390  1.0
  C  C497  1  0.764970  0.052470  0.820390  1.0
  C  C498  1  0.362170  0.764970  0.820390  1.0
  C  C499  1  0.999270  0.668170  0.184890  1.0
  C  C500  1  0.147670  0.999270  0.184890  1.0
  C  C501  1  0.668170  0.147670  0.184890  1.0
  C  C502  1  0.000730  0.331830  0.815110  1.0
  C  C503  1  0.852330  0.000730  0.815110  1.0
  C  C504  1  0.331830  0.852330  0.815110  1.0
  C  C505  1  0.050910  0.626610  0.201270  1.0
  C  C506  1  0.121210  0.050910  0.201270  1.0
  C  C507  1  0.626610  0.121210  0.201270  1.0
  C  C508  1  0.949090  0.373390  0.798730  1.0
  C  C509  1  0.878790  0.949090  0.798730  1.0
  C  C510  1  0.373390  0.878790  0.798730  1.0
  C  C511  1  0.055720  0.555020  0.212940  1.0
  C  C512  1  0.176320  0.055720  0.212940  1.0
  C  C513  1  0.555020  0.176320  0.212940  1.0
  C  C514  1  0.944280  0.444980  0.787060  1.0
  C  C515  1  0.823680  0.944280  0.787060  1.0
  C  C516  1  0.444980  0.823680  0.787060  1.0
  C  C517  1  0.007660  0.524160  0.208020  1.0
  C  C518  1  0.260160  0.007660  0.208020  1.0
  C  C519  1  0.524160  0.260160  0.208020  1.0
  C  C520  1  0.992340  0.475840  0.791980  1.0
  C  C521  1  0.739840  0.992340  0.791980  1.0
  C  C522  1  0.475840  0.739840  0.791980  1.0
  C  C523  1  0.953060  0.564760  0.190920  1.0
  C  C524  1  0.291260  0.953060  0.190920  1.0
  C  C525  1  0.564760  0.291260  0.190920  1.0
  C  C526  1  0.046940  0.435240  0.809080  1.0
  C  C527  1  0.708740  0.046940  0.809080  1.0
  C  C528  1  0.435240  0.708740  0.809080  1.0
  C  C529  1  0.901230  0.534530  0.185310  1.0
  C  C530  1  0.378930  0.901230  0.185310  1.0
  C  C531  1  0.534530  0.378930  0.185310  1.0
  C  C532  1  0.098770  0.465470  0.814690  1.0
  C  C533  1  0.621070  0.098770  0.814690  1.0
  C  C534  1  0.465470  0.621070  0.814690  1.0
  C  C535  1  0.849990  0.573290  0.168930  1.0
  C  C536  1  0.407790  0.849990  0.168930  1.0
  C  C537  1  0.573290  0.407790  0.168930  1.0
  C  C538  1  0.150010  0.426710  0.831070  1.0
  C  C539  1  0.592210  0.150010  0.831070  1.0
  C  C540  1  0.426710  0.592210  0.831070  1.0
  C  C541  1  0.710250  0.818950  0.193950  1.0
  C  C542  1  0.276850  0.710250  0.193950  1.0
  C  C543  1  0.818950  0.276850  0.193950  1.0
  C  C544  1  0.289750  0.181050  0.806050  1.0
  C  C545  1  0.723150  0.289750  0.806050  1.0
  C  C546  1  0.181050  0.723150  0.806050  1.0
  C  C547  1  0.767630  0.788830  0.210510  1.0
  C  C548  1  0.233030  0.767630  0.210510  1.0
  C  C549  1  0.788830  0.233030  0.210510  1.0
  C  C550  1  0.232370  0.211170  0.789490  1.0
  C  C551  1  0.766970  0.232370  0.789490  1.0
  C  C552  1  0.211170  0.766970  0.789490  1.0
  C  C553  1  0.819280  0.826380  0.208860  1.0
  C  C554  1  0.145480  0.819280  0.208860  1.0
  C  C555  1  0.826380  0.145480  0.208860  1.0
  C  C556  1  0.180720  0.173620  0.791140  1.0
  C  C557  1  0.854520  0.180720  0.791140  1.0
  C  C558  1  0.173620  0.854520  0.791140  1.0
  C  C559  1  0.814480  0.888680  0.193260  1.0
  C  C560  1  0.103580  0.814480  0.193260  1.0
  C  C561  1  0.888680  0.103580  0.193260  1.0
  C  C562  1  0.185520  0.111320  0.806740  1.0
  C  C563  1  0.896420  0.185520  0.806740  1.0
  C  C564  1  0.111320  0.896420  0.806740  1.0
  C  C565  1  0.760230  0.909630  0.178110  1.0
  C  C566  1  0.152030  0.760230  0.178110  1.0
  C  C567  1  0.909630  0.152030  0.178110  1.0
  C  C568  1  0.239770  0.090370  0.821890  1.0
  C  C569  1  0.847970  0.239770  0.821890  1.0
  C  C570  1  0.090370  0.847970  0.821890  1.0
  C  C571  1  0.651900  0.789600  0.192900  1.0
  C  C572  1  0.365600  0.651900  0.192900  1.0
  C  C573  1  0.789600  0.365600  0.192900  1.0
  C  C574  1  0.348100  0.210400  0.807100  1.0
  C  C575  1  0.634400  0.348100  0.807100  1.0
  C  C576  1  0.210400  0.634400  0.807100  1.0
  C  C577  1  0.629560  0.740560  0.207720  1.0
  C  C578  1  0.422160  0.629560  0.207720  1.0
  C  C579  1  0.740560  0.422160  0.207720  1.0
  C  C580  1  0.370440  0.259440  0.792280  1.0
  C  C581  1  0.577840  0.370440  0.792280  1.0
  C  C582  1  0.259440  0.577840  0.792280  1.0
  C  C583  1  0.568190  0.738190  0.198630  1.0
  C  C584  1  0.494990  0.568190  0.198630  1.0
  C  C585  1  0.738190  0.494990  0.198630  1.0
  C  C586  1  0.431810  0.261810  0.801370  1.0
  C  C587  1  0.505010  0.431810  0.801370  1.0
  C  C588  1  0.261810  0.505010  0.801370  1.0
  C  C589  1  0.796070  0.540270  0.162090  1.0
  C  C590  1  0.501570  0.796070  0.162090  1.0
  C  C591  1  0.540270  0.501570  0.162090  1.0
  C  C592  1  0.203930  0.459730  0.837910  1.0
  C  C593  1  0.498430  0.203930  0.837910  1.0
  C  C594  1  0.459730  0.498430  0.837910  1.0
  C  C595  1  0.446550  0.041650  0.156450  1.0
  C  C596  1  0.355350  0.446550  0.156450  1.0
  C  C597  1  0.041650  0.355350  0.156450  1.0
  C  C598  1  0.553450  0.958350  0.843550  1.0
  C  C599  1  0.644650  0.553450  0.843550  1.0
  C  C600  1  0.958350  0.644650  0.843550  1.0
  C  C601  1  0.369900  0.104600  0.163800  1.0
  C  C602  1  0.361700  0.369900  0.163800  1.0
  C  C603  1  0.104600  0.361700  0.163800  1.0
  C  C604  1  0.630100  0.895400  0.836200  1.0
  C  C605  1  0.638300  0.630100  0.836200  1.0
  C  C606  1  0.895400  0.638300  0.836200  1.0
  C  C607  1  0.359260  0.127260  0.185520  1.0
  C  C608  1  0.327960  0.359260  0.185520  1.0
  C  C609  1  0.127260  0.327960  0.185520  1.0
  C  C610  1  0.640740  0.872740  0.814480  1.0
  C  C611  1  0.672040  0.640740  0.814480  1.0
  C  C612  1  0.872740  0.672040  0.814480  1.0
  C  C613  1  0.425830  0.087030  0.198510  1.0
  C  C614  1  0.288630  0.425830  0.198510  1.0
  C  C615  1  0.087030  0.288630  0.198510  1.0
  C  C616  1  0.574170  0.912970  0.801490  1.0
  C  C617  1  0.711370  0.574170  0.801490  1.0
  C  C618  1  0.912970  0.711370  0.801490  1.0
  C  C619  1  0.501020  0.023520  0.190140  1.0
  C  C620  1  0.285320  0.501020  0.190140  1.0
  C  C621  1  0.023520  0.285320  0.190140  1.0
  C  C622  1  0.498980  0.976480  0.809860  1.0
  C  C623  1  0.714680  0.498980  0.809860  1.0
  C  C624  1  0.976480  0.714680  0.809860  1.0
  C  C625  1  0.463500  0.013500  0.134400  1.0
  C  C626  1  0.388600  0.463500  0.134400  1.0
  C  C627  1  0.013500  0.388600  0.134400  1.0
  C  C628  1  0.536500  0.986500  0.865600  1.0
  C  C629  1  0.611400  0.536500  0.865600  1.0
  C  C630  1  0.986500  0.611400  0.865600  1.0
  C  C631  1  0.416510  0.045210  0.116070  1.0
  C  C632  1  0.422210  0.416510  0.116070  1.0
  C  C633  1  0.045210  0.422210  0.116070  1.0
  C  C634  1  0.583490  0.954790  0.883930  1.0
  C  C635  1  0.577790  0.583490  0.883930  1.0
  C  C636  1  0.954790  0.577790  0.883930  1.0
  C  C637  1  0.464570  0.994070  0.099990  1.0
  C  C638  1  0.441370  0.464570  0.099990  1.0
  C  C639  1  0.994070  0.441370  0.099990  1.0
  C  C640  1  0.535430  0.005930  0.900010  1.0
  C  C641  1  0.558630  0.535430  0.900010  1.0
  C  C642  1  0.005930  0.558630  0.900010  1.0
  C  C643  1  0.603010  0.861110  0.097770  1.0
  C  C644  1  0.438110  0.603010  0.097770  1.0
  C  C645  1  0.861110  0.438110  0.097770  1.0
  C  C646  1  0.396990  0.138890  0.902230  1.0
  C  C647  1  0.561890  0.396990  0.902230  1.0
  C  C648  1  0.138890  0.561890  0.902230  1.0
  C  C649  1  0.657920  0.877020  0.078840  1.0
  C  C650  1  0.386220  0.657920  0.078840  1.0
  C  C651  1  0.877020  0.386220  0.078840  1.0
  C  C652  1  0.342080  0.122980  0.921160  1.0
  C  C653  1  0.613780  0.342080  0.921160  1.0
  C  C654  1  0.122980  0.613780  0.921160  1.0
  C  C655  1  0.654360  0.953560  0.073620  1.0
  C  C656  1  0.318460  0.654360  0.073620  1.0
  C  C657  1  0.953560  0.318460  0.073620  1.0
  C  C658  1  0.345640  0.046440  0.926380  1.0
  C  C659  1  0.681540  0.345640  0.926380  1.0
  C  C660  1  0.046440  0.681540  0.926380  1.0
  C  C661  1  0.707240  0.965940  0.055980  1.0
  C  C662  1  0.270840  0.707240  0.055980  1.0
  C  C663  1  0.965940  0.270840  0.055980  1.0
  C  C664  1  0.292760  0.034060  0.944020  1.0
  C  C665  1  0.729160  0.292760  0.944020  1.0
  C  C666  1  0.034060  0.729160  0.944020  1.0
  C  C667  1  0.704460  0.044660  0.050520  1.0
  C  C668  1  0.200360  0.704460  0.050520  1.0
  C  C669  1  0.044660  0.200360  0.050520  1.0
  C  C670  1  0.295540  0.955340  0.949480  1.0
  C  C671  1  0.799640  0.295540  0.949480  1.0
  C  C672  1  0.955340  0.799640  0.949480  1.0
  C  C673  1  0.755100  0.054400  0.033000  1.0
  C  C674  1  0.157500  0.755100  0.033000  1.0
  C  C675  1  0.054400  0.157500  0.033000  1.0
  C  C676  1  0.244900  0.945600  0.967000  1.0
  C  C677  1  0.842500  0.244900  0.967000  1.0
  C  C678  1  0.945600  0.842500  0.967000  1.0
  C  C679  1  0.810080  0.987980  0.020160  1.0
  C  C680  1  0.181780  0.810080  0.020160  1.0
  C  C681  1  0.987980  0.181780  0.020160  1.0
  C  C682  1  0.189920  0.012020  0.979840  1.0
  C  C683  1  0.818220  0.189920  0.979840  1.0
  C  C684  1  0.012020  0.818220  0.979840  1.0
  C  C685  1  0.814730  0.911630  0.025410  1.0
  C  C686  1  0.248230  0.814730  0.025410  1.0
  C  C687  1  0.911630  0.248230  0.025410  1.0
  C  C688  1  0.185270  0.088370  0.974590  1.0
  C  C689  1  0.751770  0.185270  0.974590  1.0
  C  C690  1  0.088370  0.751770  0.974590  1.0
  C  C691  1  0.763710  0.899410  0.043170  1.0
  C  C692  1  0.293710  0.763710  0.043170  1.0
  C  C693  1  0.899410  0.293710  0.043170  1.0
  C  C694  1  0.236290  0.100590  0.956830  1.0
  C  C695  1  0.706290  0.236290  0.956830  1.0
  C  C696  1  0.100590  0.706290  0.956830  1.0
  C  C697  1  0.766050  0.820350  0.049050  1.0
  C  C698  1  0.364550  0.766050  0.049050  1.0
  C  C699  1  0.820350  0.364550  0.049050  1.0
  C  C700  1  0.233950  0.179650  0.950950  1.0
  C  C701  1  0.635450  0.233950  0.950950  1.0
  C  C702  1  0.179650  0.635450  0.950950  1.0
  C  C703  1  0.715900  0.809100  0.066300  1.0
  C  C704  1  0.408700  0.715900  0.066300  1.0
  C  C705  1  0.809100  0.408700  0.066300  1.0
  C  C706  1  0.284100  0.190900  0.933700  1.0
  C  C707  1  0.591300  0.284100  0.933700  1.0
  C  C708  1  0.190900  0.591300  0.933700  1.0
  C  C709  1  0.835290  0.530090  0.016530  1.0
  C  C710  1  0.618090  0.835290  0.016530  1.0
  C  C711  1  0.530090  0.618090  0.016530  1.0
  C  C712  1  0.164710  0.469910  0.983470  1.0
  C  C713  1  0.381910  0.164710  0.983470  1.0
  C  C714  1  0.469910  0.381910  0.983470  1.0
  C  C715  1  0.905690  0.463090  0.007530  1.0
  C  C716  1  0.623690  0.905690  0.007530  1.0
  C  C717  1  0.463090  0.623690  0.007530  1.0
  C  C718  1  0.094310  0.536910  0.992470  1.0
  C  C719  1  0.376310  0.094310  0.992470  1.0
  C  C720  1  0.536910  0.376310  0.992470  1.0
  C  C721  1  0.898050  0.426750  0.990550  1.0
  C  C722  1  0.684650  0.898050  0.990550  1.0
  C  C723  1  0.426750  0.684650  0.990550  1.0
  C  C724  1  0.101950  0.573250  0.009450  1.0
  C  C725  1  0.315350  0.101950  0.009450  1.0
  C  C726  1  0.573250  0.315350  0.009450  1.0
  C  C727  1  0.818760  0.458260  0.983620  1.0
  C  C728  1  0.739360  0.818760  0.983620  1.0
  C  C729  1  0.458260  0.739360  0.983620  1.0
  C  C730  1  0.181240  0.541740  0.016380  1.0
  C  C731  1  0.260640  0.181240  0.016380  1.0
  C  C732  1  0.541740  0.260640  0.016380  1.0
  C  C733  1  0.752240  0.522740  0.993580  1.0
  C  C734  1  0.731440  0.752240  0.993580  1.0
  C  C735  1  0.522740  0.731440  0.993580  1.0
  C  C736  1  0.247760  0.477260  0.006420  1.0
  C  C737  1  0.268560  0.247760  0.006420  1.0
  C  C738  1  0.477260  0.268560  0.006420  1.0
  C  C739  1  0.837470  0.571670  0.034590  1.0
  C  C740  1  0.556270  0.837470  0.034590  1.0
  C  C741  1  0.571670  0.556270  0.034590  1.0
  C  C742  1  0.162530  0.428330  0.965410  1.0
  C  C743  1  0.443730  0.162530  0.965410  1.0
  C  C744  1  0.428330  0.443730  0.965410  1.0
  C  C745  1  0.904300  0.563400  0.044700  1.0
  C  C746  1  0.487600  0.904300  0.044700  1.0
  C  C747  1  0.563400  0.487600  0.044700  1.0
  C  C748  1  0.095700  0.436600  0.955300  1.0
  C  C749  1  0.512400  0.095700  0.955300  1.0
  C  C750  1  0.436600  0.512400  0.955300  1.0
  C  C751  1  0.869030  0.619530  0.060810  1.0
  C  C752  1  0.450630  0.869030  0.060810  1.0
  C  C753  1  0.619530  0.450630  0.060810  1.0
  C  C754  1  0.130970  0.380470  0.939190  1.0
  C  C755  1  0.549370  0.130970  0.939190  1.0
  C  C756  1  0.380470  0.549370  0.939190  1.0
  C  C757  1  0.721080  0.724080  0.072960  1.0
  C  C758  1  0.481880  0.721080  0.072960  1.0
  C  C759  1  0.724080  0.481880  0.072960  1.0
  C  C760  1  0.278920  0.275920  0.927040  1.0
  C  C761  1  0.518120  0.278920  0.927040  1.0
  C  C762  1  0.275920  0.518120  0.927040  1.0
  Co  Co763  1  0.843891  0.843891  0.468327  1
  Co  Co764  1  0.156109  0.156109  0.531673  1
  Co  Co765  1  0.657544  0.657544  0.027369  1
  Co  Co766  1  0.342456  0.342456  0.972631  1
  Co  Co767  1  0.210379  0.812969  0.329343  1.0
  Co  Co768  1  0.647309  0.210379  0.329343  1.0
  Co  Co769  1  0.812969  0.647309  0.329343  1.0
  Co  Co770  1  0.789621  0.187031  0.670657  1.0
  Co  Co771  1  0.352691  0.789621  0.670657  1.0
  Co  Co772  1  0.187031  0.352691  0.670657  1.0
  Co  Co773  1  0.626216  0.910666  0.153312  1.0
  Co  Co774  1  0.309806  0.626216  0.153312  1.0
  Co  Co775  1  0.910666  0.309806  0.153312  1.0
  Co  Co776  1  0.373784  0.089334  0.846688  1.0
  Co  Co777  1  0.690194  0.373784  0.846688  1.0
  Co  Co778  1  0.089334  0.690194  0.846688  1.0
  F  F779  1  0.618557  0.618557  0.144330  1
  F  F780  1  0.381443  0.381443  0.855670  1
  F  F781  1  0.885480  0.885480  0.343560  1
  F  F782  1  0.114520  0.114520  0.656440  1
  F  F783  1  0.930800  0.930800  0.207600  1
  F  F784  1  0.069200  0.069200  0.792400  1
  F  F785  1  0.035830  0.662130  0.056910  1
  F  F786  1  0.245130  0.035830  0.056910  1
  F  F787  1  0.662130  0.245130  0.056910  1
  F  F788  1  0.964170  0.337870  0.943090  1
  F  F789  1  0.754870  0.964170  0.943090  1
  F  F790  1  0.337870  0.754870  0.943090  1
  F  F791  1  0.005320  0.606020  0.089940  1
  F  F792  1  0.298720  0.005320  0.089940  1
  F  F793  1  0.606020  0.298720  0.089940  1
  F  F794  1  0.994680  0.393980  0.910060  1
  F  F795  1  0.701280  0.994680  0.910060  1
  F  F796  1  0.393980  0.701280  0.910060  1
  F  F797  1  0.069750  0.525350  0.061350  1
  F  F798  1  0.343550  0.069750  0.061350  1
  F  F799  1  0.525350  0.343550  0.061350  1
  F  F800  1  0.930250  0.474650  0.938650  1
  F  F801  1  0.656450  0.930250  0.938650  1
  F  F802  1  0.474650  0.656450  0.938650  1
  F  F803  1  0.140590  0.569090  0.077730  1
  F  F804  1  0.212590  0.140590  0.077730  1
  F  F805  1  0.569090  0.212590  0.077730  1
  F  F806  1  0.859410  0.430910  0.922270  1
  F  F807  1  0.787410  0.859410  0.922270  1
  F  F808  1  0.430910  0.787410  0.922270  1
  F  F809  1  0.524127  0.524127  0.427620  1
  F  F810  1  0.475873  0.475873  0.572380  1
  F  F811  1  0.245753  0.245753  0.262740  1
  F  F812  1  0.754247  0.754247  0.737260  1
  F  F813  1  0.720550  0.572850  0.240750  1
  F  F814  1  0.465850  0.720550  0.240750  1
  F  F815  1  0.572850  0.465850  0.240750  1
  F  F816  1  0.279450  0.427150  0.759250  1
  F  F817  1  0.534150  0.279450  0.759250  1
  F  F818  1  0.427150  0.534150  0.759250  1
  F  F819  1  0.811310  0.615910  0.244170  1
  F  F820  1  0.328610  0.811310  0.244170  1
  F  F821  1  0.615910  0.328610  0.244170  1
  F  F822  1  0.188690  0.384090  0.755830  1
  F  F823  1  0.671390  0.188690  0.755830  1
  F  F824  1  0.384090  0.671390  0.755830  1
  F  F825  1  0.860580  0.481880  0.236160  1
  F  F826  1  0.421380  0.860580  0.236160  1
  F  F827  1  0.481880  0.421380  0.236160  1
  F  F828  1  0.139420  0.518120  0.763840  1
  F  F829  1  0.578620  0.139420  0.763840  1
  F  F830  1  0.518120  0.578620  0.763840  1
  F  F831  1  0.796590  0.524390  0.270030  1
  F  F832  1  0.408990  0.796590  0.270030  1
  F  F833  1  0.524390  0.408990  0.270030  1
  F  F834  1  0.203410  0.475610  0.729970  1
  F  F835  1  0.591010  0.203410  0.729970  1
  F  F836  1  0.475610  0.591010  0.729970  1
  F  F837  1  0.300623  0.300623  0.098130  1
  F  F838  1  0.699377  0.699377  0.901870  1
  F  F839  1  0.424240  0.947940  0.433680  1
  F  F840  1  0.194140  0.424240  0.433680  1
  F  F841  1  0.947940  0.194140  0.433680  1
  F  F842  1  0.575760  0.052060  0.566320  1
  F  F843  1  0.805860  0.575760  0.566320  1
  F  F844  1  0.052060  0.805860  0.566320  1
  F  F845  1  0.475580  0.933980  0.399060  1
  F  F846  1  0.191380  0.475580  0.399060  1
  F  F847  1  0.933980  0.191380  0.399060  1
  F  F848  1  0.524420  0.066020  0.600940  1
  F  F849  1  0.808620  0.524420  0.600940  1
  F  F850  1  0.066020  0.808620  0.600940  1
  F  F851  1  0.342640  0.978440  0.407580  1
  F  F852  1  0.271340  0.342640  0.407580  1
  F  F853  1  0.978440  0.271340  0.407580  1
  F  F854  1  0.657360  0.021560  0.592420  1
  F  F855  1  0.728660  0.657360  0.592420  1
  F  F856  1  0.021560  0.728660  0.592420  1
  F  F857  1  0.399710  0.055910  0.409170  1
  F  F858  1  0.135210  0.399710  0.409170  1
  F  F859  1  0.055910  0.135210  0.409170  1
  F  F860  1  0.600290  0.944090  0.590830  1
  F  F861  1  0.864790  0.600290  0.590830  1
  F  F862  1  0.944090  0.864790  0.590830  1
  F  F863  1  0.962460  0.962460  0.112620  1
  F  F864  1  0.037540  0.037540  0.887380  1
  F  F865  1  0.983600  0.983600  0.049200  1
  F  F866  1  0.016400  0.016400  0.950800  1
  F  F867  1  0.577420  0.709520  0.113640  1.0
  F  F868  1  0.599420  0.577420  0.113640  1.0
  F  F869  1  0.709520  0.599420  0.113640  1.0
  F  F870  1  0.422580  0.290480  0.886360  1.0
  F  F871  1  0.400580  0.422580  0.886360  1.0
  F  F872  1  0.290480  0.400580  0.886360  1.0
  F  F873  1  0.929580  0.795080  0.373860  1.0
  F  F874  1  0.901480  0.929580  0.373860  1.0
  F  F875  1  0.795080  0.901480  0.373860  1.0
  F  F876  1  0.070420  0.204920  0.626140  1.0
  F  F877  1  0.098520  0.070420  0.626140  1.0
  F  F878  1  0.204920  0.098520  0.626140  1.0
  F  F879  1  0.953340  0.968740  0.238080  1.0
  F  F880  1  0.839840  0.953340  0.238080  1.0
  F  F881  1  0.968740  0.839840  0.238080  1.0
  F  F882  1  0.046660  0.031260  0.761920  1.0
  F  F883  1  0.160160  0.046660  0.761920  1.0
  F  F884  1  0.031260  0.160160  0.761920  1.0
  F  F885  1  0.556180  0.591980  0.396660  1.0
  F  F886  1  0.455180  0.556180  0.396660  1.0
  F  F887  1  0.591980  0.455180  0.396660  1.0
  F  F888  1  0.443820  0.408020  0.603340  1.0
  F  F889  1  0.544820  0.443820  0.603340  1.0
  F  F890  1  0.408020  0.544820  0.603340  1.0
  F  F891  1  0.252380  0.187080  0.232560  1.0
  F  F892  1  0.327980  0.252380  0.232560  1.0
  F  F893  1  0.187080  0.327980  0.232560  1.0
  F  F894  1  0.747620  0.812920  0.767440  1.0
  F  F895  1  0.672020  0.747620  0.767440  1.0
  F  F896  1  0.812920  0.672020  0.767440  1.0
  F  F897  1  0.247390  0.372790  0.126630  1.0
  F  F898  1  0.253190  0.247390  0.126630  1.0
  F  F899  1  0.372790  0.253190  0.126630  1.0
  F  F900  1  0.752610  0.627210  0.873370  1.0
  F  F901  1  0.746810  0.752610  0.873370  1.0
  F  F902  1  0.627210  0.746810  0.873370  1.0
  F  F903  1  0.880920  0.006720  0.147540  1.0
  F  F904  1  0.964820  0.880920  0.147540  1.0
  F  F905  1  0.006720  0.964820  0.147540  1.0
  F  F906  1  0.119080  0.993280  0.852460  1.0
  F  F907  1  0.035180  0.119080  0.852460  1.0
  F  F908  1  0.993280  0.035180  0.852460  1.0
  F  F909  1  0.957650  0.920550  0.087750  1.0
  F  F910  1  0.034050  0.957650  0.087750  1.0
  F  F911  1  0.920550  0.034050  0.087750  1.0
  F  F912  1  0.042350  0.079450  0.912250  1.0
  F  F913  1  0.965950  0.042350  0.912250  1.0
  F  F914  1  0.079450  0.965950  0.912250  1.0
  H  H915  1  0.171100  0.001400  0.259200  1.0
  H  H916  1  0.568300  0.171100  0.259200  1.0
  H  H917  1  0.001400  0.568300  0.259200  1.0
  H  H918  1  0.828900  0.998600  0.740800  1.0
  H  H919  1  0.431700  0.828900  0.740800  1.0
  H  H920  1  0.998600  0.431700  0.740800  1.0
  H  H921  1  0.268800  0.044600  0.263100  1.0
  H  H922  1  0.423500  0.268800  0.263100  1.0
  H  H923  1  0.044600  0.423500  0.263100  1.0
  H  H924  1  0.731200  0.955400  0.736900  1.0
  H  H925  1  0.576500  0.731200  0.736900  1.0
  H  H926  1  0.955400  0.576500  0.736900  1.0
  H  H927  1  0.342500  0.994300  0.294300  1.0
  H  H928  1  0.368900  0.342500  0.294300  1.0
  H  H929  1  0.994300  0.368900  0.294300  1.0
  H  H930  1  0.657500  0.005700  0.705700  1.0
  H  H931  1  0.631100  0.657500  0.705700  1.0
  H  H932  1  0.005700  0.631100  0.705700  1.0
  H  H933  1  0.325300  0.899900  0.319800  1.0
  H  H934  1  0.455000  0.325300  0.319800  1.0
  H  H935  1  0.899900  0.455000  0.319800  1.0
  H  H936  1  0.674700  0.100100  0.680200  1.0
  H  H937  1  0.545000  0.674700  0.680200  1.0
  H  H938  1  0.100100  0.545000  0.680200  1.0
  H  H939  1  0.077100  0.940900  0.257400  1.0
  H  H940  1  0.724600  0.077100  0.257400  1.0
  H  H941  1  0.940900  0.724600  0.257400  1.0
  H  H942  1  0.922900  0.059100  0.742600  1.0
  H  H943  1  0.275400  0.922900  0.742600  1.0
  H  H944  1  0.059100  0.275400  0.742600  1.0
  H  H945  1  0.000200  0.863300  0.272700  1.0
  H  H946  1  0.863800  0.000200  0.272700  1.0
  H  H947  1  0.863300  0.863800  0.272700  1.0
  H  H948  1  0.999800  0.136700  0.727300  1.0
  H  H949  1  0.136200  0.999800  0.727300  1.0
  H  H950  1  0.136700  0.136200  0.727300  1.0
  H  H951  1  0.981400  0.799400  0.315900  1.0
  H  H952  1  0.903300  0.981400  0.315900  1.0
  H  H953  1  0.799400  0.903300  0.315900  1.0
  H  H954  1  0.018600  0.200600  0.684100  1.0
  H  H955  1  0.096700  0.018600  0.684100  1.0
  H  H956  1  0.200600  0.096700  0.684100  1.0
  H  H957  1  0.059600  0.770800  0.329700  1.0
  H  H958  1  0.839900  0.059600  0.329700  1.0
  H  H959  1  0.770800  0.839900  0.329700  1.0
  H  H960  1  0.940400  0.229200  0.670300  1.0
  H  H961  1  0.160100  0.940400  0.670300  1.0
  H  H962  1  0.229200  0.160100  0.670300  1.0
  H  H963  1  0.148100  0.709000  0.279900  1.0
  H  H964  1  0.863000  0.148100  0.279900  1.0
  H  H965  1  0.709000  0.863000  0.279900  1.0
  H  H966  1  0.851900  0.291000  0.720100  1.0
  H  H967  1  0.137000  0.851900  0.720100  1.0
  H  H968  1  0.291000  0.137000  0.720100  1.0
  H  H969  1  0.240600  0.607000  0.252600  1.0
  H  H970  1  0.899800  0.240600  0.252600  1.0
  H  H971  1  0.607000  0.899800  0.252600  1.0
  H  H972  1  0.759400  0.393000  0.747400  1.0
  H  H973  1  0.100200  0.759400  0.747400  1.0
  H  H974  1  0.393000  0.100200  0.747400  1.0
  H  H975  1  0.303500  0.473200  0.241500  1.0
  H  H976  1  0.981800  0.303500  0.241500  1.0
  H  H977  1  0.473200  0.981800  0.241500  1.0
  H  H978  1  0.696500  0.526800  0.758500  1.0
  H  H979  1  0.018200  0.696500  0.758500  1.0
  H  H980  1  0.526800  0.018200  0.758500  1.0
  H  H981  1  0.266800  0.374400  0.260700  1.0
  H  H982  1  0.098100  0.266800  0.260700  1.0
  H  H983  1  0.374400  0.098100  0.260700  1.0
  H  H984  1  0.733200  0.625600  0.739300  1.0
  H  H985  1  0.901900  0.733200  0.739300  1.0
  H  H986  1  0.625600  0.901900  0.739300  1.0
  H  H987  1  0.178600  0.405000  0.293100  1.0
  H  H988  1  0.123300  0.178600  0.293100  1.0
  H  H989  1  0.405000  0.123300  0.293100  1.0
  H  H990  1  0.821400  0.595000  0.706900  1.0
  H  H991  1  0.876700  0.821400  0.706900  1.0
  H  H992  1  0.595000  0.876700  0.706900  1.0
  H  H993  1  0.085800  0.509100  0.320700  1.0
  H  H994  1  0.084400  0.085800  0.320700  1.0
  H  H995  1  0.509100  0.084400  0.320700  1.0
  H  H996  1  0.914200  0.490900  0.679300  1.0
  H  H997  1  0.915600  0.914200  0.679300  1.0
  H  H998  1  0.490900  0.915600  0.679300  1.0
  H  H999  1  0.949000  0.030400  0.350400  1.0
  H  H1000  1  0.670200  0.949000  0.350400  1.0
  H  H1001  1  0.030400  0.670200  0.350400  1.0
  H  H1002  1  0.051000  0.969600  0.649600  1.0
  H  H1003  1  0.329800  0.051000  0.649600  1.0
  H  H1004  1  0.969600  0.329800  0.649600  1.0
  H  H1005  1  0.008100  0.952000  0.336600  1.0
  H  H1006  1  0.703300  0.008100  0.336600  1.0
  H  H1007  1  0.952000  0.703300  0.336600  1.0
  H  H1008  1  0.991900  0.048000  0.663400  1.0
  H  H1009  1  0.296700  0.991900  0.663400  1.0
  H  H1010  1  0.048000  0.296700  0.663400  1.0
  H  H1011  1  0.319100  0.883200  0.388200  1.0
  H  H1012  1  0.409500  0.319100  0.388200  1.0
  H  H1013  1  0.883200  0.409500  0.388200  1.0
  H  H1014  1  0.680900  0.116800  0.611800  1.0
  H  H1015  1  0.590500  0.680900  0.611800  1.0
  H  H1016  1  0.116800  0.590500  0.611800  1.0
  H  H1017  1  0.458300  0.770500  0.385200  1.0
  H  H1018  1  0.386000  0.458300  0.385200  1.0
  H  H1019  1  0.770500  0.386000  0.385200  1.0
  H  H1020  1  0.541700  0.229500  0.614800  1.0
  H  H1021  1  0.614000  0.541700  0.614800  1.0
  H  H1022  1  0.229500  0.614000  0.614800  1.0
  H  H1023  1  0.494700  0.670700  0.361500  1.0
  H  H1024  1  0.473100  0.494700  0.361500  1.0
  H  H1025  1  0.670700  0.473100  0.361500  1.0
  H  H1026  1  0.505300  0.329300  0.638500  1.0
  H  H1027  1  0.526900  0.505300  0.638500  1.0
  H  H1028  1  0.329300  0.526900  0.638500  1.0
  H  H1029  1  0.398200  0.685600  0.338700  1.0
  H  H1030  1  0.577500  0.398200  0.338700  1.0
  H  H1031  1  0.685600  0.577500  0.338700  1.0
  H  H1032  1  0.601800  0.314400  0.661300  1.0
  H  H1033  1  0.422500  0.601800  0.661300  1.0
  H  H1034  1  0.314400  0.422500  0.661300  1.0
  H  H1035  1  0.168900  0.003300  0.386400  1.0
  H  H1036  1  0.441400  0.168900  0.386400  1.0
  H  H1037  1  0.003300  0.441400  0.386400  1.0
  H  H1038  1  0.831100  0.996700  0.613600  1.0
  H  H1039  1  0.558600  0.831100  0.613600  1.0
  H  H1040  1  0.996700  0.558600  0.613600  1.0
  H  H1041  1  0.027300  0.081200  0.372900  1.0
  H  H1042  1  0.518600  0.027300  0.372900  1.0
  H  H1043  1  0.081200  0.518600  0.372900  1.0
  H  H1044  1  0.972700  0.918800  0.627100  1.0
  H  H1045  1  0.481400  0.972700  0.627100  1.0
  H  H1046  1  0.918800  0.481400  0.627100  1.0
  H  H1047  1  0.324000  0.506500  0.322200  1.0
  H  H1048  1  0.847300  0.324000  0.322200  1.0
  H  H1049  1  0.506500  0.847300  0.322200  1.0
  H  H1050  1  0.676000  0.493500  0.677800  1.0
  H  H1051  1  0.152700  0.676000  0.677800  1.0
  H  H1052  1  0.493500  0.152700  0.677800  1.0
  H  H1053  1  0.397300  0.499700  0.287100  1.0
  H  H1054  1  0.815900  0.397300  0.287100  1.0
  H  H1055  1  0.499700  0.815900  0.287100  1.0
  H  H1056  1  0.602700  0.500300  0.712900  1.0
  H  H1057  1  0.184100  0.602700  0.712900  1.0
  H  H1058  1  0.500300  0.184100  0.712900  1.0
  H  H1059  1  0.393900  0.619900  0.268500  1.0
  H  H1060  1  0.717700  0.393900  0.268500  1.0
  H  H1061  1  0.619900  0.717700  0.268500  1.0
  H  H1062  1  0.606100  0.380100  0.731500  1.0
  H  H1063  1  0.282300  0.606100  0.731500  1.0
  H  H1064  1  0.380100  0.282300  0.731500  1.0
  H  H1065  1  0.322500  0.745100  0.285000  1.0
  H  H1066  1  0.647400  0.322500  0.285000  1.0
  H  H1067  1  0.745100  0.647400  0.285000  1.0
  H  H1068  1  0.677500  0.254900  0.715000  1.0
  H  H1069  1  0.352600  0.677500  0.715000  1.0
  H  H1070  1  0.254900  0.352600  0.715000  1.0
  H  H1071  1  0.247900  0.527400  0.360300  1.0
  H  H1072  1  0.864400  0.247900  0.360300  1.0
  H  H1073  1  0.527400  0.864400  0.360300  1.0
  H  H1074  1  0.752100  0.472600  0.639700  1.0
  H  H1075  1  0.135600  0.752100  0.639700  1.0
  H  H1076  1  0.472600  0.135600  0.639700  1.0
  H  H1077  1  0.154800  0.611300  0.392100  1.0
  H  H1078  1  0.841800  0.154800  0.392100  1.0
  H  H1079  1  0.611300  0.841800  0.392100  1.0
  H  H1080  1  0.845200  0.388700  0.607900  1.0
  H  H1081  1  0.158200  0.845200  0.607900  1.0
  H  H1082  1  0.388700  0.158200  0.607900  1.0
  H  H1083  1  0.042500  0.787400  0.388500  1.0
  H  H1084  1  0.781600  0.042500  0.388500  1.0
  H  H1085  1  0.787400  0.781600  0.388500  1.0
  H  H1086  1  0.957500  0.212600  0.611500  1.0
  H  H1087  1  0.218400  0.957500  0.611500  1.0
  H  H1088  1  0.212600  0.218400  0.611500  1.0
  H  H1089  1  0.090600  0.835800  0.376200  1.0
  H  H1090  1  0.697400  0.090600  0.376200  1.0
  H  H1091  1  0.835800  0.697400  0.376200  1.0
  H  H1092  1  0.909400  0.164200  0.623800  1.0
  H  H1093  1  0.302600  0.909400  0.623800  1.0
  H  H1094  1  0.164200  0.302600  0.623800  1.0
  H  H1095  1  0.252800  0.703800  0.399000  1.0
  H  H1096  1  0.644400  0.252800  0.399000  1.0
  H  H1097  1  0.703800  0.644400  0.399000  1.0
  H  H1098  1  0.747200  0.296200  0.601000  1.0
  H  H1099  1  0.355600  0.747200  0.601000  1.0
  H  H1100  1  0.296200  0.355600  0.601000  1.0
  H  H1101  1  0.368700  0.650800  0.423600  1.0
  H  H1102  1  0.556900  0.368700  0.423600  1.0
  H  H1103  1  0.650800  0.556900  0.423600  1.0
  H  H1104  1  0.631300  0.349200  0.576400  1.0
  H  H1105  1  0.443100  0.631300  0.576400  1.0
  H  H1106  1  0.349200  0.443100  0.576400  1.0
  H  H1107  1  0.409700  0.641500  0.457800  1.0
  H  H1108  1  0.491000  0.409700  0.457800  1.0
  H  H1109  1  0.641500  0.491000  0.457800  1.0
  H  H1110  1  0.590300  0.358500  0.542200  1.0
  H  H1111  1  0.509000  0.590300  0.542200  1.0
  H  H1112  1  0.358500  0.509000  0.542200  1.0
  H  H1113  1  0.312900  0.715800  0.486600  1.0
  H  H1114  1  0.484700  0.312900  0.486600  1.0
  H  H1115  1  0.715800  0.484700  0.486600  1.0
  H  H1116  1  0.687100  0.284200  0.513400  1.0
  H  H1117  1  0.515300  0.687100  0.513400  1.0
  H  H1118  1  0.284200  0.515300  0.513400  1.0
  H  H1119  1  0.173400  0.796400  0.480600  1.0
  H  H1120  1  0.549600  0.173400  0.480600  1.0
  H  H1121  1  0.796400  0.549600  0.480600  1.0
  H  H1122  1  0.826600  0.203600  0.519400  1.0
  H  H1123  1  0.450400  0.826600  0.519400  1.0
  H  H1124  1  0.203600  0.450400  0.519400  1.0
  H  H1125  1  0.058500  0.855500  0.455100  1.0
  H  H1126  1  0.630900  0.058500  0.455100  1.0
  H  H1127  1  0.855500  0.630900  0.455100  1.0
  H  H1128  1  0.941500  0.144500  0.544900  1.0
  H  H1129  1  0.369100  0.941500  0.544900  1.0
  H  H1130  1  0.144500  0.369100  0.544900  1.0
  H  H1131  1  0.131400  0.624500  0.487800  1.0
  H  H1132  1  0.756300  0.131400  0.487800  1.0
  H  H1133  1  0.624500  0.756300  0.487800  1.0
  H  H1134  1  0.868600  0.375500  0.512200  1.0
  H  H1135  1  0.243700  0.868600  0.512200  1.0
  H  H1136  1  0.375500  0.243700  0.512200  1.0
  H  H1137  1  0.140600  0.681600  0.518100  1.0
  H  H1138  1  0.659700  0.140600  0.518100  1.0
  H  H1139  1  0.681600  0.659700  0.518100  1.0
  H  H1140  1  0.859400  0.318400  0.481900  1.0
  H  H1141  1  0.340300  0.859400  0.481900  1.0
  H  H1142  1  0.318400  0.340300  0.481900  1.0
  H  H1143  1  0.026200  0.808500  0.529200  1.0
  H  H1144  1  0.636100  0.026200  0.529200  1.0
  H  H1145  1  0.808500  0.636100  0.529200  1.0
  H  H1146  1  0.973800  0.191500  0.470800  1.0
  H  H1147  1  0.363900  0.973800  0.470800  1.0
  H  H1148  1  0.191500  0.363900  0.470800  1.0
  H  H1149  1  0.909700  0.874500  0.508800  1.0
  H  H1150  1  0.707000  0.909700  0.508800  1.0
  H  H1151  1  0.874500  0.707000  0.508800  1.0
  H  H1152  1  0.090300  0.125500  0.491200  1.0
  H  H1153  1  0.293000  0.090300  0.491200  1.0
  H  H1154  1  0.125500  0.293000  0.491200  1.0
  H  H1155  1  0.861300  0.112900  0.455400  1.0
  H  H1156  1  0.570400  0.861300  0.455400  1.0
  H  H1157  1  0.112900  0.570400  0.455400  1.0
  H  H1158  1  0.138700  0.887100  0.544600  1.0
  H  H1159  1  0.429600  0.138700  0.544600  1.0
  H  H1160  1  0.887100  0.429600  0.544600  1.0
  H  H1161  1  0.960800  0.037400  0.423600  1.0
  H  H1162  1  0.578200  0.960800  0.423600  1.0
  H  H1163  1  0.037400  0.578200  0.423600  1.0
  H  H1164  1  0.039200  0.962600  0.576400  1.0
  H  H1165  1  0.421800  0.039200  0.576400  1.0
  H  H1166  1  0.962600  0.421800  0.576400  1.0
  H  H1167  1  0.977100  0.906700  0.404100  1.0
  H  H1168  1  0.712100  0.977100  0.404100  1.0
  H  H1169  1  0.906700  0.712100  0.404100  1.0
  H  H1170  1  0.022900  0.093300  0.595900  1.0
  H  H1171  1  0.287900  0.022900  0.595900  1.0
  H  H1172  1  0.093300  0.287900  0.595900  1.0
  H  H1173  1  0.955300  0.843000  0.420300  1.0
  H  H1174  1  0.781400  0.955300  0.420300  1.0
  H  H1175  1  0.843000  0.781400  0.420300  1.0
  H  H1176  1  0.044700  0.157000  0.579700  1.0
  H  H1177  1  0.218600  0.044700  0.579700  1.0
  H  H1178  1  0.157000  0.218600  0.579700  1.0
  H  H1179  1  0.796800  0.007300  0.098100  1.0
  H  H1180  1  0.097800  0.796800  0.098100  1.0
  H  H1181  1  0.007300  0.097800  0.098100  1.0
  H  H1182  1  0.203200  0.992700  0.901900  1.0
  H  H1183  1  0.902200  0.203200  0.901900  1.0
  H  H1184  1  0.992700  0.902200  0.901900  1.0
  H  H1185  1  0.718900  0.151700  0.102600  1.0
  H  H1186  1  0.026800  0.718900  0.102600  1.0
  H  H1187  1  0.151700  0.026800  0.102600  1.0
  H  H1188  1  0.281100  0.848300  0.897400  1.0
  H  H1189  1  0.973200  0.281100  0.897400  1.0
  H  H1190  1  0.848300  0.973200  0.897400  1.0
  H  H1191  1  0.600900  0.201500  0.128100  1.0
  H  H1192  1  0.069500  0.600900  0.128100  1.0
  H  H1193  1  0.201500  0.069500  0.128100  1.0
  H  H1194  1  0.399100  0.798500  0.871900  1.0
  H  H1195  1  0.930500  0.399100  0.871900  1.0
  H  H1196  1  0.798500  0.930500  0.871900  1.0
  H  H1197  1  0.562300  0.107800  0.148500  1.0
  H  H1198  1  0.181400  0.562300  0.148500  1.0
  H  H1199  1  0.107800  0.181400  0.148500  1.0
  H  H1200  1  0.437700  0.892200  0.851500  1.0
  H  H1201  1  0.818600  0.437700  0.851500  1.0
  H  H1202  1  0.892200  0.818600  0.851500  1.0
  H  H1203  1  0.893400  0.709100  0.104400  1.0
  H  H1204  1  0.293100  0.893400  0.104400  1.0
  H  H1205  1  0.709100  0.293100  0.104400  1.0
  H  H1206  1  0.106600  0.290900  0.895600  1.0
  H  H1207  1  0.706900  0.106600  0.895600  1.0
  H  H1208  1  0.290900  0.706900  0.895600  1.0
  H  H1209  1  0.870500  0.854300  0.095100  1.0
  H  H1210  1  0.180100  0.870500  0.095100  1.0
  H  H1211  1  0.854300  0.180100  0.095100  1.0
  H  H1212  1  0.129500  0.145700  0.904900  1.0
  H  H1213  1  0.819900  0.129500  0.904900  1.0
  H  H1214  1  0.145700  0.819900  0.904900  1.0
  H  H1215  1  0.795400  0.649100  0.128700  1.0
  H  H1216  1  0.426800  0.795400  0.128700  1.0
  H  H1217  1  0.649100  0.426800  0.128700  1.0
  H  H1218  1  0.204600  0.350900  0.871300  1.0
  H  H1219  1  0.573200  0.204600  0.871300  1.0
  H  H1220  1  0.350900  0.573200  0.871300  1.0
  H  H1221  1  0.726000  0.710700  0.146100  1.0
  H  H1222  1  0.417200  0.726000  0.146100  1.0
  H  H1223  1  0.710700  0.417200  0.146100  1.0
  H  H1224  1  0.274000  0.289300  0.853900  1.0
  H  H1225  1  0.582800  0.274000  0.853900  1.0
  H  H1226  1  0.289300  0.582800  0.853900  1.0
  H  H1227  1  0.888400  0.729200  0.154500  1.0
  H  H1228  1  0.227900  0.888400  0.154500  1.0
  H  H1229  1  0.729200  0.227900  0.154500  1.0
  H  H1230  1  0.111600  0.270800  0.845500  1.0
  H  H1231  1  0.772100  0.111600  0.845500  1.0
  H  H1232  1  0.270800  0.772100  0.845500  1.0
  H  H1233  1  0.997600  0.717100  0.177000  1.0
  H  H1234  1  0.108300  0.997600  0.177000  1.0
  H  H1235  1  0.717100  0.108300  0.177000  1.0
  H  H1236  1  0.002400  0.282900  0.823000  1.0
  H  H1237  1  0.891700  0.002400  0.823000  1.0
  H  H1238  1  0.282900  0.891700  0.823000  1.0
  H  H1239  1  0.084700  0.647500  0.204900  1.0
  H  H1240  1  0.062900  0.084700  0.204900  1.0
  H  H1241  1  0.647500  0.062900  0.204900  1.0
  H  H1242  1  0.915300  0.352500  0.795100  1.0
  H  H1243  1  0.937100  0.915300  0.795100  1.0
  H  H1244  1  0.352500  0.937100  0.795100  1.0
  H  H1245  1  0.092300  0.527300  0.224400  1.0
  H  H1246  1  0.156000  0.092300  0.224400  1.0
  H  H1247  1  0.527300  0.156000  0.224400  1.0
  H  H1248  1  0.907700  0.472700  0.775600  1.0
  H  H1249  1  0.844000  0.907700  0.775600  1.0
  H  H1250  1  0.472700  0.844000  0.775600  1.0
  H  H1251  1  0.010900  0.474900  0.216000  1.0
  H  H1252  1  0.298200  0.010900  0.216000  1.0
  H  H1253  1  0.474900  0.298200  0.216000  1.0
  H  H1254  1  0.989100  0.525100  0.784000  1.0
  H  H1255  1  0.701800  0.989100  0.784000  1.0
  H  H1256  1  0.525100  0.701800  0.784000  1.0
  H  H1257  1  0.902900  0.485800  0.193500  1.0
  H  H1258  1  0.417800  0.902900  0.193500  1.0
  H  H1259  1  0.485800  0.417800  0.193500  1.0
  H  H1260  1  0.097100  0.514200  0.806500  1.0
  H  H1261  1  0.582200  0.097100  0.806500  1.0
  H  H1262  1  0.514200  0.582200  0.806500  1.0
  H  H1263  1  0.771200  0.746400  0.222000  1.0
  H  H1264  1  0.260400  0.771200  0.222000  1.0
  H  H1265  1  0.746400  0.260400  0.222000  1.0
  H  H1266  1  0.228800  0.253600  0.778000  1.0
  H  H1267  1  0.739600  0.228800  0.778000  1.0
  H  H1268  1  0.253600  0.739600  0.778000  1.0
  H  H1269  1  0.859500  0.806800  0.219300  1.0
  H  H1270  1  0.114400  0.859500  0.219300  1.0
  H  H1271  1  0.806800  0.114400  0.219300  1.0
  H  H1272  1  0.140500  0.193200  0.780700  1.0
  H  H1273  1  0.885600  0.140500  0.780700  1.0
  H  H1274  1  0.193200  0.885600  0.780700  1.0
  H  H1275  1  0.847000  0.915200  0.193200  1.0
  H  H1276  1  0.044600  0.847000  0.193200  1.0
  H  H1277  1  0.915200  0.044600  0.193200  1.0
  H  H1278  1  0.153000  0.084800  0.806800  1.0
  H  H1279  1  0.955400  0.153000  0.806800  1.0
  H  H1280  1  0.084800  0.955400  0.806800  1.0
  H  H1281  1  0.759300  0.949100  0.166200  1.0
  H  H1282  1  0.125400  0.759300  0.166200  1.0
  H  H1283  1  0.949100  0.125400  0.166200  1.0
  H  H1284  1  0.240700  0.050900  0.833800  1.0
  H  H1285  1  0.874600  0.240700  0.833800  1.0
  H  H1286  1  0.050900  0.874600  0.833800  1.0
  H  H1287  1  0.651900  0.713700  0.221400  1.0
  H  H1288  1  0.413000  0.651900  0.221400  1.0
  H  H1289  1  0.713700  0.413000  0.221400  1.0
  H  H1290  1  0.348100  0.286300  0.778600  1.0
  H  H1291  1  0.587000  0.348100  0.778600  1.0
  H  H1292  1  0.286300  0.587000  0.778600  1.0
  H  H1293  1  0.538800  0.709500  0.205200  1.0
  H  H1294  1  0.546500  0.538800  0.205200  1.0
  H  H1295  1  0.709500  0.546500  0.205200  1.0
  H  H1296  1  0.461200  0.290500  0.794800  1.0
  H  H1297  1  0.453500  0.461200  0.794800  1.0
  H  H1298  1  0.290500  0.453500  0.794800  1.0
  H  H1299  1  0.740600  0.588400  0.159000  1.0
  H  H1300  1  0.512000  0.740600  0.159000  1.0
  H  H1301  1  0.588400  0.512000  0.159000  1.0
  H  H1302  1  0.259400  0.411600  0.841000  1.0
  H  H1303  1  0.488000  0.259400  0.841000  1.0
  H  H1304  1  0.411600  0.488000  0.841000  1.0
  H  H1305  1  0.822500  0.512900  0.148200  1.0
  H  H1306  1  0.516400  0.822500  0.148200  1.0
  H  H1307  1  0.512900  0.516400  0.148200  1.0
  H  H1308  1  0.177500  0.487100  0.851800  1.0
  H  H1309  1  0.483600  0.177500  0.851800  1.0
  H  H1310  1  0.487100  0.483600  0.851800  1.0
  H  H1311  1  0.325300  0.132100  0.154500  1.0
  H  H1312  1  0.388100  0.325300  0.154500  1.0
  H  H1313  1  0.132100  0.388100  0.154500  1.0
  H  H1314  1  0.674700  0.867900  0.845500  1.0
  H  H1315  1  0.611900  0.674700  0.845500  1.0
  H  H1316  1  0.867900  0.611900  0.845500  1.0
  H  H1317  1  0.306800  0.169900  0.191100  1.0
  H  H1318  1  0.332200  0.306800  0.191100  1.0
  H  H1319  1  0.169900  0.332200  0.191100  1.0
  H  H1320  1  0.693200  0.830100  0.808900  1.0
  H  H1321  1  0.667800  0.693200  0.808900  1.0
  H  H1322  1  0.830100  0.667800  0.808900  1.0
  H  H1323  1  0.420100  0.102600  0.213000  1.0
  H  H1324  1  0.264300  0.420100  0.213000  1.0
  H  H1325  1  0.102600  0.264300  0.213000  1.0
  H  H1326  1  0.579900  0.897400  0.787000  1.0
  H  H1327  1  0.735700  0.579900  0.787000  1.0
  H  H1328  1  0.897400  0.735700  0.787000  1.0
  H  H1329  1  0.546000  0.994200  0.199200  1.0
  H  H1330  1  0.260600  0.546000  0.199200  1.0
  H  H1331  1  0.994200  0.260600  0.199200  1.0
  H  H1332  1  0.454000  0.005800  0.800800  1.0
  H  H1333  1  0.739400  0.454000  0.800800  1.0
  H  H1334  1  0.005800  0.739400  0.800800  1.0
  H  H1335  1  0.362400  0.092500  0.115200  1.0
  H  H1336  1  0.429900  0.362400  0.115200  1.0
  H  H1337  1  0.092500  0.429900  0.115200  1.0
  H  H1338  1  0.637600  0.907500  0.884800  1.0
  H  H1339  1  0.570100  0.637600  0.884800  1.0
  H  H1340  1  0.907500  0.570100  0.884800  1.0
  H  H1341  1  0.449900  0.999000  0.085500  1.0
  H  H1342  1  0.465600  0.449900  0.085500  1.0
  H  H1343  1  0.999000  0.465600  0.085500  1.0
  H  H1344  1  0.550100  0.001000  0.914500  1.0
  H  H1345  1  0.534400  0.550100  0.914500  1.0
  H  H1346  1  0.001000  0.534400  0.914500  1.0
  H  H1347  1  0.576600  0.833500  0.092100  1.0
  H  H1348  1  0.497800  0.576600  0.092100  1.0
  H  H1349  1  0.833500  0.497800  0.092100  1.0
  H  H1350  1  0.423400  0.166500  0.907900  1.0
  H  H1351  1  0.502200  0.423400  0.907900  1.0
  H  H1352  1  0.166500  0.502200  0.907900  1.0
  H  H1353  1  0.639300  0.821500  0.109200  1.0
  H  H1354  1  0.430000  0.639300  0.109200  1.0
  H  H1355  1  0.821500  0.430000  0.109200  1.0
  H  H1356  1  0.360700  0.178500  0.890800  1.0
  H  H1357  1  0.570000  0.360700  0.890800  1.0
  H  H1358  1  0.178500  0.570000  0.890800  1.0
  H  H1359  1  0.615700  0.999000  0.081900  1.0
  H  H1360  1  0.303400  0.615700  0.081900  1.0
  H  H1361  1  0.999000  0.303400  0.081900  1.0
  H  H1362  1  0.384300  0.001000  0.918100  1.0
  H  H1363  1  0.696600  0.384300  0.918100  1.0
  H  H1364  1  0.001000  0.696600  0.918100  1.0
  H  H1365  1  0.667500  0.090300  0.059100  1.0
  H  H1366  1  0.183100  0.667500  0.059100  1.0
  H  H1367  1  0.090300  0.183100  0.059100  1.0
  H  H1368  1  0.332500  0.909700  0.940900  1.0
  H  H1369  1  0.816900  0.332500  0.940900  1.0
  H  H1370  1  0.909700  0.816900  0.940900  1.0
  H  H1371  1  0.753000  0.107200  0.029400  1.0
  H  H1372  1  0.110400  0.753000  0.029400  1.0
  H  H1373  1  0.107200  0.110400  0.029400  1.0
  H  H1374  1  0.247000  0.892800  0.970600  1.0
  H  H1375  1  0.889600  0.247000  0.970600  1.0
  H  H1376  1  0.892800  0.889600  0.970600  1.0
  H  H1377  1  0.843900  0.996200  0.007800  1.0
  H  H1378  1  0.152100  0.843900  0.007800  1.0
  H  H1379  1  0.996200  0.152100  0.007800  1.0
  H  H1380  1  0.156100  0.003800  0.992200  1.0
  H  H1381  1  0.847900  0.156100  0.992200  1.0
  H  H1382  1  0.003800  0.847900  0.992200  1.0
  H  H1383  1  0.853000  0.866500  0.016800  1.0
  H  H1384  1  0.263700  0.853000  0.016800  1.0
  H  H1385  1  0.866500  0.263700  0.016800  1.0
  H  H1386  1  0.147000  0.133500  0.983200  1.0
  H  H1387  1  0.736300  0.147000  0.983200  1.0
  H  H1388  1  0.133500  0.736300  0.983200  1.0
  H  H1389  1  0.803600  0.774500  0.040800  1.0
  H  H1390  1  0.381100  0.803600  0.040800  1.0
  H  H1391  1  0.774500  0.381100  0.040800  1.0
  H  H1392  1  0.196400  0.225500  0.959200  1.0
  H  H1393  1  0.618900  0.196400  0.959200  1.0
  H  H1394  1  0.225500  0.618900  0.959200  1.0
  H  H1395  1  0.958600  0.442300  0.012900  1.0
  H  H1396  1  0.586200  0.958600  0.012900  1.0
  H  H1397  1  0.442300  0.586200  0.012900  1.0
  H  H1398  1  0.041400  0.557700  0.987100  1.0
  H  H1399  1  0.413800  0.041400  0.987100  1.0
  H  H1400  1  0.557700  0.413800  0.987100  1.0
  H  H1401  1  0.945500  0.381600  0.983800  1.0
  H  H1402  1  0.689100  0.945500  0.983800  1.0
  H  H1403  1  0.381600  0.689100  0.983800  1.0
  H  H1404  1  0.054500  0.618400  0.016200  1.0
  H  H1405  1  0.310900  0.054500  0.016200  1.0
  H  H1406  1  0.618400  0.310900  0.016200  1.0
  H  H1407  1  0.811300  0.434600  0.972100  1.0
  H  H1408  1  0.782000  0.811300  0.972100  1.0
  H  H1409  1  0.434600  0.782000  0.972100  1.0
  H  H1410  1  0.188700  0.565400  0.027900  1.0
  H  H1411  1  0.218000  0.188700  0.027900  1.0
  H  H1412  1  0.565400  0.218000  0.027900  1.0
  H  H1413  1  0.698300  0.542500  0.988900  1.0
  H  H1414  1  0.770300  0.698300  0.988900  1.0
  H  H1415  1  0.542500  0.770300  0.988900  1.0
  H  H1416  1  0.301700  0.457500  0.011100  1.0
  H  H1417  1  0.229700  0.301700  0.011100  1.0
  H  H1418  1  0.457500  0.229700  0.011100  1.0
  H  H1419  1  0.962100  0.527000  0.041100  1.0
  H  H1420  1  0.469800  0.962100  0.041100  1.0
  H  H1421  1  0.527000  0.469800  0.041100  1.0
  H  H1422  1  0.037900  0.473000  0.958900  1.0
  H  H1423  1  0.530200  0.037900  0.958900  1.0
  H  H1424  1  0.473000  0.530200  0.958900  1.0
  H  H1425  1  0.897900  0.629300  0.070500  1.0
  H  H1426  1  0.402300  0.897900  0.070500  1.0
  H  H1427  1  0.629300  0.402300  0.070500  1.0
  H  H1428  1  0.102100  0.370700  0.929500  1.0
  H  H1429  1  0.597700  0.102100  0.929500  1.0
  H  H1430  1  0.370700  0.597700  0.929500  1.0
  H  H1431  1  0.732700  0.707800  0.088800  1.0
  H  H1432  1  0.470700  0.732700  0.088800  1.0
  H  H1433  1  0.707800  0.470700  0.088800  1.0
  H  H1434  1  0.267300  0.292200  0.911200  1.0
  H  H1435  1  0.529300  0.267300  0.911200  1.0
  H  H1436  1  0.292200  0.529300  0.911200  1.0
  H  H1437  1  0.666000  0.729400  0.071700  1.0
  H  H1438  1  0.532900  0.666000  0.071700  1.0
  H  H1439  1  0.729400  0.532900  0.071700  1.0
  H  H1440  1  0.334000  0.270600  0.928300  1.0
  H  H1441  1  0.467100  0.334000  0.928300  1.0
  H  H1442  1  0.270600  0.467100  0.928300  1.0
  N  N1443  1  0.818650  0.818650  0.544050  1
  N  N1444  1  0.181350  0.181350  0.455950  1
  N  N1445  1  0.247640  0.731840  0.529080  1
  N  N1446  1  0.491440  0.247640  0.529080  1
  N  N1447  1  0.731840  0.491440  0.529080  1
  N  N1448  1  0.752360  0.268160  0.470920  1
  N  N1449  1  0.508560  0.752360  0.470920  1
  N  N1450  1  0.268160  0.508560  0.470920  1
  N  N1451  1  0.460830  0.070630  0.477810  1
  N  N1452  1  0.990730  0.460830  0.477810  1
  N  N1453  1  0.070630  0.990730  0.477810  1
  N  N1454  1  0.539170  0.929370  0.522190  1
  N  N1455  1  0.009270  0.539170  0.522190  1
  N  N1456  1  0.929370  0.009270  0.522190  1
  N  N1457  1  0.086910  0.375810  0.035070  1
  N  N1458  1  0.502210  0.086910  0.035070  1
  N  N1459  1  0.375810  0.502210  0.035070  1
  N  N1460  1  0.913090  0.624190  0.964930  1
  N  N1461  1  0.497790  0.913090  0.964930  1
  N  N1462  1  0.624190  0.497790  0.964930  1
  N  N1463  1  0.391100  0.968200  0.340500  1
  N  N1464  1  0.300200  0.391100  0.340500  1
  N  N1465  1  0.968200  0.300200  0.340500  1
  N  N1466  1  0.608900  0.031800  0.659500  1
  N  N1467  1  0.699800  0.608900  0.659500  1
  N  N1468  1  0.031800  0.699800  0.659500  1
  N  N1469  1  0.558647  0.558647  0.324060  1
  N  N1470  1  0.441353  0.441353  0.675940  1
  N  N1471  1  0.949730  0.791530  0.487410  1.0
  N  N1472  1  0.771330  0.949730  0.487410  1.0
  N  N1473  1  0.791530  0.771330  0.487410  1.0
  N  N1474  1  0.050270  0.208470  0.512590  1.0
  N  N1475  1  0.228670  0.050270  0.512590  1.0
  N  N1476  1  0.208470  0.228670  0.512590  1.0
  N  N1477  1  0.238560  0.893960  0.305820  1.0
  N  N1478  1  0.561660  0.238560  0.305820  1.0
  N  N1479  1  0.893960  0.561660  0.305820  1.0
  N  N1480  1  0.761440  0.106040  0.694180  1.0
  N  N1481  1  0.438340  0.761440  0.694180  1.0
  N  N1482  1  0.106040  0.438340  0.694180  1.0
  N  N1483  1  0.122190  0.850090  0.305430  1.0
  N  N1484  1  0.722290  0.122190  0.305430  1.0
  N  N1485  1  0.850090  0.722290  0.305430  1.0
  N  N1486  1  0.877810  0.149910  0.694570  1.0
  N  N1487  1  0.277710  0.877810  0.694570  1.0
  N  N1488  1  0.149910  0.277710  0.694570  1.0
  N  N1489  1  0.064770  0.832470  0.300090  1.0
  N  N1490  1  0.802670  0.064770  0.300090  1.0
  N  N1491  1  0.832470  0.802670  0.300090  1.0
  N  N1492  1  0.935230  0.167530  0.699910  1.0
  N  N1493  1  0.197330  0.935230  0.699910  1.0
  N  N1494  1  0.167530  0.197330  0.699910  1.0
  N  N1495  1  0.301890  0.791590  0.349530  1.0
  N  N1496  1  0.556990  0.301890  0.349530  1.0
  N  N1497  1  0.791590  0.556990  0.349530  1.0
  N  N1498  1  0.698110  0.208410  0.650470  1.0
  N  N1499  1  0.443010  0.698110  0.650470  1.0
  N  N1500  1  0.208410  0.443010  0.650470  1.0
  N  N1501  1  0.145530  0.915430  0.349710  1.0
  N  N1502  1  0.589330  0.145530  0.349710  1.0
  N  N1503  1  0.915430  0.589330  0.349710  1.0
  N  N1504  1  0.854470  0.084570  0.650290  1.0
  N  N1505  1  0.410670  0.854470  0.650290  1.0
  N  N1506  1  0.084570  0.410670  0.650290  1.0
  N  N1507  1  0.069780  0.986380  0.352560  1.0
  N  N1508  1  0.591280  0.069780  0.352560  1.0
  N  N1509  1  0.986380  0.591280  0.352560  1.0
  N  N1510  1  0.930220  0.013620  0.647440  1.0
  N  N1511  1  0.408720  0.930220  0.647440  1.0
  N  N1512  1  0.013620  0.408720  0.647440  1.0
  N  N1513  1  0.188960  0.721460  0.351720  1.0
  N  N1514  1  0.737860  0.188960  0.351720  1.0
  N  N1515  1  0.721460  0.737860  0.351720  1.0
  N  N1516  1  0.811040  0.278540  0.648280  1.0
  N  N1517  1  0.262140  0.811040  0.648280  1.0
  N  N1518  1  0.278540  0.262140  0.648280  1.0
  N  N1519  1  0.153260  0.712060  0.372420  1.0
  N  N1520  1  0.762260  0.153260  0.372420  1.0
  N  N1521  1  0.712060  0.762260  0.372420  1.0
  N  N1522  1  0.846740  0.287940  0.627580  1.0
  N  N1523  1  0.237740  0.846740  0.627580  1.0
  N  N1524  1  0.287940  0.237740  0.627580  1.0
  N  N1525  1  0.281190  0.701490  0.312930  1.0
  N  N1526  1  0.704390  0.281190  0.312930  1.0
  N  N1527  1  0.701490  0.704390  0.312930  1.0
  N  N1528  1  0.718810  0.298510  0.687070  1.0
  N  N1529  1  0.295610  0.718810  0.687070  1.0
  N  N1530  1  0.298510  0.295610  0.687070  1.0
  N  N1531  1  0.878780  0.935280  0.451560  1.0
  N  N1532  1  0.734380  0.878780  0.451560  1.0
  N  N1533  1  0.935280  0.734380  0.451560  1.0
  N  N1534  1  0.121220  0.064720  0.548440  1.0
  N  N1535  1  0.265620  0.121220  0.548440  1.0
  N  N1536  1  0.064720  0.265620  0.548440  1.0
  N  N1537  1  0.930530  0.944030  0.434310  1.0
  N  N1538  1  0.691130  0.930530  0.434310  1.0
  N  N1539  1  0.944030  0.691130  0.434310  1.0
  N  N1540  1  0.069470  0.055970  0.565690  1.0
  N  N1541  1  0.308870  0.069470  0.565690  1.0
  N  N1542  1  0.055970  0.308870  0.565690  1.0
  N  N1543  1  0.654460  0.004160  0.136020  1.0
  N  N1544  1  0.205360  0.654460  0.136020  1.0
  N  N1545  1  0.004160  0.205360  0.136020  1.0
  N  N1546  1  0.345540  0.995840  0.863980  1.0
  N  N1547  1  0.794640  0.345540  0.863980  1.0
  N  N1548  1  0.995840  0.794640  0.863980  1.0
  N  N1549  1  0.737340  0.839940  0.132180  1.0
  N  N1550  1  0.290540  0.737340  0.132180  1.0
  N  N1551  1  0.839940  0.290540  0.132180  1.0
  N  N1552  1  0.262660  0.160060  0.867820  1.0
  N  N1553  1  0.709460  0.262660  0.867820  1.0
  N  N1554  1  0.160060  0.709460  0.867820  1.0
  N  N1555  1  0.789830  0.760930  0.126510  1.0
  N  N1556  1  0.322730  0.789830  0.126510  1.0
  N  N1557  1  0.760930  0.322730  0.126510  1.0
  N  N1558  1  0.210170  0.239070  0.873490  1.0
  N  N1559  1  0.677270  0.210170  0.873490  1.0
  N  N1560  1  0.239070  0.677270  0.873490  1.0
  N  N1561  1  0.705980  0.879280  0.178260  1.0
  N  N1562  1  0.236480  0.705980  0.178260  1.0
  N  N1563  1  0.879280  0.236480  0.178260  1.0
  N  N1564  1  0.294020  0.120720  0.821740  1.0
  N  N1565  1  0.763520  0.294020  0.821740  1.0
  N  N1566  1  0.120720  0.763520  0.821740  1.0
  N  N1567  1  0.512230  0.002030  0.169110  1.0
  N  N1568  1  0.316630  0.512230  0.169110  1.0
  N  N1569  1  0.002030  0.316630  0.169110  1.0
  N  N1570  1  0.487770  0.997970  0.830890  1.0
  N  N1571  1  0.683370  0.487770  0.830890  1.0
  N  N1572  1  0.997970  0.683370  0.830890  1.0
  N  N1573  1  0.538280  0.944780  0.129660  1.0
  N  N1574  1  0.387280  0.538280  0.129660  1.0
  N  N1575  1  0.944780  0.387280  0.129660  1.0
  N  N1576  1  0.461720  0.055220  0.870340  1.0
  N  N1577  1  0.612720  0.461720  0.870340  1.0
  N  N1578  1  0.055220  0.612720  0.870340  1.0
  N  N1579  1  0.537500  0.934200  0.108300  1.0
  N  N1580  1  0.420000  0.537500  0.108300  1.0
  N  N1581  1  0.934200  0.420000  0.108300  1.0
  N  N1582  1  0.462500  0.065800  0.891700  1.0
  N  N1583  1  0.580000  0.462500  0.891700  1.0
  N  N1584  1  0.065800  0.580000  0.891700  1.0
  N  N1585  1  0.758990  0.560090  0.009630  1.0
  N  N1586  1  0.671290  0.758990  0.009630  1.0
  N  N1587  1  0.560090  0.671290  0.009630  1.0
  N  N1588  1  0.241010  0.439910  0.990370  1.0
  N  N1589  1  0.328710  0.241010  0.990370  1.0
  N  N1590  1  0.439910  0.328710  0.990370  1.0
  N  N1591  1  0.764050  0.629650  0.043950  1.0
  N  N1592  1  0.562350  0.764050  0.043950  1.0
  N  N1593  1  0.629650  0.562350  0.043950  1.0
  N  N1594  1  0.235950  0.370350  0.956050  1.0
  N  N1595  1  0.437650  0.235950  0.956050  1.0
  N  N1596  1  0.370350  0.437650  0.956050  1.0
  N  N1597  1  0.784450  0.657850  0.059850  1.0
  N  N1598  1  0.497850  0.784450  0.059850  1.0
  N  N1599  1  0.657850  0.497850  0.059850  1.0
  N  N1600  1  0.215550  0.342150  0.940150  1.0
  N  N1601  1  0.502150  0.215550  0.940150  1.0
  N  N1602  1  0.342150  0.502150  0.940150  1.0
  N  N1603  1  0.608570  0.816170  0.174690  1.0
  N  N1604  1  0.400570  0.608570  0.174690  1.0
  N  N1605  1  0.816170  0.400570  0.174690  1.0
  N  N1606  1  0.391430  0.183830  0.825310  1.0
  N  N1607  1  0.599430  0.391430  0.825310  1.0
  N  N1608  1  0.183830  0.599430  0.825310  1.0
  N  N1609  1  0.555730  0.783930  0.178410  1.0
  N  N1610  1  0.481930  0.555730  0.178410  1.0
  N  N1611  1  0.783930  0.481930  0.178410  1.0
  N  N1612  1  0.444270  0.216070  0.821590  1.0
  N  N1613  1  0.518070  0.444270  0.821590  1.0
  N  N1614  1  0.216070  0.518070  0.821590  1.0
  O  O1615  1  0.230203  0.230203  0.309390  1
  O  O1616  1  0.769797  0.769797  0.690610  1
  O  O1617  1  0.996080  0.996080  0.011760  1
  O  O1618  1  0.003920  0.003920  0.988240  1
