
#######################################################################
#
#                 Cambridge Crystallographic Data Centre
#                                CCDC 
#
#######################################################################
#
# If this CIF has been generated from an entry in the Cambridge 
# Structural Database, then it will include bibliographic, chemical, 
# crystal, experimental, refinement or atomic coordinate data resulting 
# from the CCDC's data processing and validation procedures.
#
#######################################################################

data_XIZKUM
_chemical_formula_moiety         
'C168 H132 Co4 N36 8+,8(Cl1 O4 1-),13(C2 H3 N1)'
_chemical_name_systematic        
'hexakis(\m~2~-2,3-bis(3-(2-Pyridyl)pyrazolylmethyl)naphthalene)-tetra-cobalt(ii) octakis(perchlorate) acetonitrile solvate'
_symmetry_cell_setting           monoclinic
_symmetry_space_group_name_H-M   'P 21/n'
_symmetry_Int_Tables_number      14
_space_group_name_Hall           '-P 2yn'
loop_
_symmetry_equiv_pos_site_id
_symmetry_equiv_pos_as_xyz
1 x,y,z
2 1/2-x,1/2+y,1/2-z
3 -x,-y,-z
4 1/2+x,1/2-y,1/2+z
_cell_length_a                   27.67(2)
_cell_length_b                   18.440(15)
_cell_length_c                   40.30(3)
_cell_angle_alpha                90
_cell_angle_beta                 109.424(15)
_cell_angle_gamma                90
_cell_volume                     19392.1
_exptl_crystal_colour            apricot
_exptl_crystal_description       block
_cell_formula_units_Z            4
_chemical_properties_physical    air-sensitive
_exptl_crystal_recrystallization_method acetonitrile/ether
loop_
_atom_site_label
_atom_site_type_symbol
_atom_site_fract_x
_atom_site_fract_y
_atom_site_fract_z
Co1 Co 0.86300(17) 0.6985(2) 0.88521(12)
Co2 Co 0.79162(18) 0.7137(2) 1.09425(13)
Co3 Co 0.53844(17) 0.5040(2) 0.87238(13)
Co4 Co 0.63107(18) 1.0476(2) 0.89443(13)
N1 N 0.9393(9) 0.6683(13) 0.9166(6)
C1 C 0.9405(12) 0.6096(18) 0.9369(9)
C2 C 0.9874(12) 0.5818(19) 0.9596(9)
H1 H 0.9886 0.5423 0.9750
C3 C 1.0323(17) 0.616(2) 0.9581(11)
H2 H 1.0639 0.5939 0.9715
C4 C 1.0354(15) 0.677(2) 0.9394(11)
H3 H 1.0656 0.7013 0.9396
C5 C 0.9807(13) 0.696(2) 0.9185(9)
H4 H 0.9776 0.7372 0.9039
N2 N 0.8486(9) 0.6049(13) 0.9150(7)
C6 C 0.8925(14) 0.579(2) 0.9380(10)
C7 C 0.8765(13) 0.5230(19) 0.9529(10)
H5 H 0.8996 0.4933 0.9704
C8 C 0.8261(12) 0.5116(18) 0.9416(8)
H6 H 0.8069 0.4752 0.9483
N3 N 0.8097(10) 0.5662(14) 0.9177(7)
C9 C 0.7550(14) 0.576(2) 0.8958(10)
H7 H 0.7501 0.6265 0.8869
H8 H 0.7335 0.5693 0.9109
C10 C 0.7359(12) 0.5243(17) 0.8643(9)
C11 C 0.7648(13) 0.4722(18) 0.8582(9)
H9 H 0.7991 0.4664 0.8735
C12 C 0.7446(13) 0.4239(19) 0.8283(9)
C13 C 0.7788(13) 0.3703(18) 0.8223(9)
H10 H 0.8146 0.3682 0.8346
C14 C 0.7516(13) 0.321(2) 0.7953(10)
H11 H 0.7706 0.2812 0.7908
C15 C 0.7013(13) 0.325(2) 0.7753(10)
H12 H 0.6876 0.2906 0.7568
C16 C 0.6687(13) 0.3784(18) 0.7816(9)
H13 H 0.6336 0.3825 0.7677
C17 C 0.6919(14) 0.425(2) 0.8096(10)
C18 C 0.6632(11) 0.4838(16) 0.8187(8)
H14 H 0.6280 0.4900 0.8055
C19 C 0.6864(13) 0.5301(19) 0.8459(9)
N4 N 0.5593(10) 0.5697(15) 0.8348(7)
C20 C 0.5185(13) 0.5917(19) 0.8075(9)
C21 C 0.5360(15) 0.631(2) 0.7839(11)
H15 H 0.5155 0.6503 0.7618
C22 C 0.5872(13) 0.6361(19) 0.7983(10)
H16 H 0.6096 0.6590 0.7881
N5 N 0.6019(9) 0.6013(14) 0.8314(7)
C23 C 0.6511(11) 0.5930(18) 0.8523(9)
H17 H 0.6508 0.5873 0.8766
H18 H 0.6688 0.6394 0.8516
N6 N 0.4660(10) 0.5243(14) 0.8322(7)
C24 C 0.4702(13) 0.5711(19) 0.8053(9)
C25 C 0.4239(18) 0.587(3) 0.7771(13)
H19 H 0.4255 0.6156 0.7579
C26 C 0.3757(17) 0.561(2) 0.7772(12)
H20 H 0.3452 0.5740 0.7589
C27 C 0.3741(13) 0.5181(18) 0.8035(9)
H21 H 0.3423 0.4987 0.8036
C28 C 0.4184(16) 0.502(2) 0.8304(12)
H22 H 0.4156 0.4731 0.8492
N7 N 0.5068(10) 0.4401(15) 0.9045(7)
C29 C 0.4963(14) 0.483(2) 0.9293(10)
C30 C 0.4746(15) 0.443(2) 0.9519(12)
H23 H 0.4631 0.4700 0.9680
C31 C 0.470(2) 0.371(3) 0.9511(16)
H24 H 0.4602 0.3472 0.9688
C32 C 0.4784(15) 0.333(2) 0.9264(11)
H25 H 0.4730 0.2819 0.9242
C33 C 0.4968(16) 0.374(3) 0.9027(13)
H26 H 0.5019 0.3484 0.8837
N8 N 0.5221(9) 0.5822(13) 0.9044(7)
C34 C 0.5048(13) 0.556(2) 0.9295(10)
C35 C 0.4955(19) 0.611(3) 0.9498(15)
H27 H 0.4793 0.6067 0.9671
C36 C 0.5154(16) 0.674(3) 0.9391(12)
H28 H 0.5202 0.7202 0.9504
N9 N 0.5261(11) 0.6568(17) 0.9106(8)
C37 C 0.5445(13) 0.704(2) 0.8914(10)
H29 H 0.5576 0.6751 0.8754
H30 H 0.5739 0.7303 0.9078
C38 C 0.5060(13) 0.7587(19) 0.8696(9)
C39 C 0.4558(14) 0.737(2) 0.8561(10)
H31 H 0.4453 0.6890 0.8595
C40 C 0.4179(16) 0.794(2) 0.8351(11)
C41 C 0.3643(19) 0.770(3) 0.8216(13)
H32 H 0.3567 0.7211 0.8250
C42 C 0.320(2) 0.821(3) 0.8023(16)
H33 H 0.2850 0.8088 0.7935
C43 C 0.342(2) 0.887(3) 0.8002(15)
H34 H 0.3163 0.9230 0.7902
C44 C 0.394(3) 0.918(4) 0.8095(17)
H35 H 0.4037 0.9637 0.8026
C45 C 0.4318(16) 0.858(2) 0.8334(12)
C46 C 0.4824(16) 0.883(2) 0.8486(11)
H36 H 0.4912 0.9326 0.8478
C47 C 0.5181(12) 0.8324(18) 0.8645(9)
N10 N 0.6210(10) 0.9517(15) 0.8602(8)
C48 C 0.6340(15) 0.960(2) 0.8308(11)
C49 C 0.6204(14) 0.893(2) 0.8089(11)
H37 H 0.6273 0.8811 0.7879
C50 C 0.5970(16) 0.855(3) 0.8259(12)
H38 H 0.5822 0.8091 0.8179
N11 N 0.5951(11) 0.8855(16) 0.8557(8)
C51 C 0.5752(15) 0.856(2) 0.8804(11)
H39 H 0.5783 0.8927 0.8990
H40 H 0.5961 0.8137 0.8916
N12 N 0.6608(11) 1.0780(16) 0.8559(8)
C52 C 0.6543(12) 1.0325(18) 0.8288(9)
C53 C 0.6721(14) 1.048(2) 0.8006(11)
H41 H 0.6694 1.0135 0.7827
C54 C 0.6930(12) 1.1143(18) 0.7999(9)
H42 H 0.7040 1.1259 0.7806
C55 C 0.6994(12) 1.167(2) 0.8268(9)
H43 H 0.7135 1.2140 0.8260
C56 C 0.6832(12) 1.1444(19) 0.8542(10)
H44 H 0.6879 1.1769 0.8734
N13 N 0.5544(10) 1.0781(16) 0.8692(8)
C57 C 0.5238(13) 1.0714(19) 0.8894(9)
C58 C 0.4742(14) 1.103(2) 0.8789(10)
H45 H 0.4525 1.0996 0.8929
C59 C 0.4587(17) 1.141(2) 0.8452(12)
H46 H 0.4241 1.1572 0.8360
C60 C 0.4880(17) 1.155(3) 0.8266(13)
H47 H 0.4778 1.1857 0.8064
C61 C 0.5410(16) 1.118(2) 0.8402(12)
H48 H 0.5643 1.1231 0.8275
N14 N 0.5927(10) 1.0121(15) 0.9286(7)
C62 C 0.5479(12) 1.0310(17) 0.9221(9)
C63 C 0.5256(19) 1.004(3) 0.9445(13)
H49 H 0.4914 1.0129 0.9438
C64 C 0.5624(14) 0.962(2) 0.9691(10)
H50 H 0.5584 0.9345 0.9880
N15 N 0.6039(10) 0.9675(15) 0.9599(7)
C65 C 0.6537(11) 0.9377(17) 0.9765(8)
H51 H 0.6729 0.9402 0.9597
H52 H 0.6499 0.8858 0.9815
C66 C 0.6849(12) 0.9743(18) 1.0102(9)
C67 C 0.6739(14) 1.043(2) 1.0174(10)
H53 H 0.6469 1.0689 1.0006
C68 C 0.7032(13) 1.0792(19) 1.0510(9)
C69 C 0.6899(15) 1.151(2) 1.0574(12)
H54 H 0.6675 1.1792 1.0390
C70 C 0.709(2) 1.176(3) 1.0892(15)
H55 H 0.6959 1.2193 1.0955
C71 C 0.7509(17) 1.138(2) 1.1152(13)
H56 H 0.7681 1.1598 1.1374
C72 C 0.7647(15) 1.074(2) 1.1077(11)
H57 H 0.7913 1.0493 1.1252
C73 C 0.7429(14) 1.041(2) 1.0763(11)
C74 C 0.7569(13) 0.9695(18) 1.0655(9)
H58 H 0.7865 0.9448 1.0801
C75 C 0.7263(12) 0.9379(18) 1.0332(9)
N16 N 0.8174(9) 0.7958(14) 1.0641(7)
C76 C 0.8669(13) 0.8032(19) 1.0752(9)
C77 C 0.8827(14) 0.8664(19) 1.0604(9)
H59 H 0.9166 0.8831 1.0642
C78 C 0.8381(12) 0.8965(19) 1.0400(9)
H60 H 0.8352 0.9403 1.0271
N17 N 0.7976(10) 0.8537(14) 1.0406(7)
C79 C 0.7418(12) 0.8632(18) 1.0244(10)
H61 H 0.7238 0.8254 1.0332
H62 H 0.7319 0.8578 0.9985
N18 N 0.8731(9) 0.7063(13) 1.1154(6)
C80 C 0.8960(12) 0.7516(18) 1.0978(9)
C81 C 0.9533(13) 0.747(2) 1.1098(10)
H63 H 0.9710 0.7771 1.0984
C82 C 0.9808(13) 0.7042(18) 1.1358(9)
H64 H 1.0171 0.7076 1.1446
C83 C 0.9549(13) 0.6536(19) 1.1496(9)
H65 H 0.9730 0.6183 1.1662
C84 C 0.8990(14) 0.658(2) 1.1374(10)
H66 H 0.8807 0.6228 1.1460
N19 N 0.7774(10) 0.6362(16) 1.1278(8)
C85 C 0.7776(13) 0.567(2) 1.1198(10)
C86 C 0.7704(13) 0.508(2) 1.1411(10)
H67 H 0.7699 0.4581 1.1343
C87 C 0.7645(18) 0.530(3) 1.1720(14)
H68 H 0.7560 0.4937 1.1860
C88 C 0.7697(18) 0.600(3) 1.1847(14)
H69 H 0.7702 0.6120 1.2078
C89 C 0.7742(12) 0.653(2) 1.1614(9)
H70 H 0.7753 0.7023 1.1682
N20 N 0.7960(9) 0.6152(14) 1.0683(7)
C90 C 0.7849(11) 0.5529(17) 1.0863(8)
C91 C 0.7891(14) 0.494(2) 1.0681(10)
H71 H 0.7848 0.4453 1.0747
C92 C 0.8012(14) 0.514(2) 1.0369(11)
H72 H 0.8069 0.4847 1.0192
N21 N 0.8019(10) 0.5867(15) 1.0399(7)
C93 C 0.8153(12) 0.6322(19) 1.0148(9)
H73 H 0.8003 0.6809 1.0148
H74 H 0.7996 0.6114 0.9910
C94 C 0.8717(12) 0.6400(18) 1.0222(9)
C95 C 0.9096(13) 0.6042(19) 1.0478(9)
H75 H 0.8995 0.5696 1.0618
C96 C 0.9598(11) 0.6148(16) 1.0545(8)
C97 C 0.9972(12) 0.5721(18) 1.0791(9)
H76 H 0.9870 0.5330 1.0906
C98 C 1.0469(14) 0.587(2) 1.0862(10)
H77 H 1.0715 0.5608 1.1045
C99 C 1.0640(15) 0.640(2) 1.0672(10)
H78 H 1.0996 0.6490 1.0729
C100 C 1.0306(13) 0.677(2) 1.0415(10)
H79 H 1.0422 0.7103 1.0277
C101 C 0.9760(11) 0.6670(16) 1.0347(8)
C102 C 0.9365(12) 0.7086(18) 1.0076(9)
H80 H 0.9459 0.7447 0.9941
C103 C 0.8887(12) 0.6947(18) 1.0027(9)
N22 N 0.8679(9) 0.7837(14) 0.9243(7)
C104 C 0.8860(12) 0.8466(19) 0.9141(9)
C105 C 0.8990(12) 0.891(2) 0.9440(9)
H81 H 0.9143 0.9379 0.9453
C106 C 0.8872(12) 0.8610(18) 0.9697(9)
H82 H 0.8923 0.8806 0.9924
N23 N 0.8661(10) 0.7950(15) 0.9571(7)
C107 C 0.8460(12) 0.7389(18) 0.9738(9)
H83 H 0.8255 0.7048 0.9556
H84 H 0.8226 0.7613 0.9849
N24 N 0.8880(9) 0.7863(14) 0.8630(7)
C108 C 0.8979(13) 0.851(2) 0.8823(10)
C109 C 0.9124(12) 0.9182(19) 0.8705(9)
H85 H 0.9168 0.9616 0.8839
C110 C 0.9195(13) 0.915(2) 0.8386(10)
H86 H 0.9301 0.9575 0.8295
C111 C 0.9120(13) 0.8553(19) 0.8204(10)
H87 H 0.9171 0.8546 0.7983
C112 C 0.8972(13) 0.795(2) 0.8326(10)
H88 H 0.8926 0.7532 0.8180
N25 N 0.8609(10) 0.6165(14) 0.8454(7)
C113 C 0.8161(13) 0.6133(19) 0.8210(9)
C114 C 0.8052(13) 0.5560(19) 0.7944(9)
H89 H 0.7730 0.5512 0.7763
C115 C 0.8448(10) 0.5107(16) 0.7980(8)
H90 H 0.8400 0.4742 0.7805
C116 C 0.8890(14) 0.512(2) 0.8230(10)
H91 H 0.9142 0.4764 0.8245
C117 C 0.8989(14) 0.5729(19) 0.8498(10)
H92 H 0.9307 0.5784 0.8683
N26 N 0.7886(8) 0.7142(13) 0.8476(6)
C118 C 0.7774(13) 0.6692(19) 0.8186(9)
C119 C 0.7314(13) 0.687(2) 0.7923(10)
H93 H 0.7162 0.6647 0.7699
C120 C 0.7133(13) 0.7445(19) 0.8075(9)
H94 H 0.6820 0.7696 0.7969
N27 N 0.7466(10) 0.7587(15) 0.8386(7)
C121 C 0.7424(13) 0.8174(17) 0.8617(9)
H95 H 0.7609 0.8033 0.8863
H96 H 0.7058 0.8237 0.8592
C122 C 0.7640(10) 0.8921(16) 0.8543(8)
C123 C 0.7751(11) 0.9007(17) 0.8247(8)
H97 H 0.7695 0.8625 0.8080
C124 C 0.7967(11) 0.9718(16) 0.8185(8)
C125 C 0.8063(12) 0.9836(19) 0.7870(10)
H98 H 0.7969 0.9487 0.7686
C126 C 0.8314(12) 1.0514(18) 0.7833(9)
H99 H 0.8417 1.0590 0.7633
C127 C 0.8397(13) 1.103(2) 0.8079(9)
H100 H 0.8556 1.1472 0.8053
C128 C 0.8252(12) 1.0919(18) 0.8372(9)
H101 H 0.8303 1.1301 0.8538
C129 C 0.8032(12) 1.0272(18) 0.8434(9)
C130 C 0.7890(11) 1.0137(17) 0.8733(8)
H102 H 0.7936 1.0498 0.8909
C131 C 0.7686(11) 0.9483(17) 0.8766(8)
N28 N 0.7119(10) 1.0348(14) 0.9279(7)
C132 C 0.7260(14) 1.096(2) 0.9509(10)
C133 C 0.7801(12) 1.0859(18) 0.9700(9)
H103 H 0.8020 1.1170 0.9873
C134 C 0.7932(14) 1.023(2) 0.9579(10)
H104 H 0.8260 1.0005 0.9665
N29 N 0.7519(10) 0.9955(15) 0.9317(7)
C135 C 0.7527(12) 0.9320(17) 0.9092(8)
H105 H 0.7181 0.9099 0.9011
H106 H 0.7767 0.8955 0.9239
N30 N 0.6452(9) 1.1446(14) 0.9275(7)
C136 C 0.6933(13) 1.1538(19) 0.9525(9)
C137 C 0.7081(15) 1.206(2) 0.9773(10)
H107 H 0.7406 1.2078 0.9953
C138 C 0.6702(14) 1.256(2) 0.9730(10)
H108 H 0.6792 1.2961 0.9885
C139 C 0.6212(13) 1.257(2) 0.9500(9)
H109 H 0.5969 1.2927 0.9506
C140 C 0.6102(13) 1.2004(18) 0.9254(9)
H110 H 0.5782 1.2000 0.9069
N31 N 0.7807(11) 0.8036(16) 1.1241(8)
C141 C 0.7348(12) 0.8250(18) 1.1194(9)
C142 C 0.7237(15) 0.881(2) 1.1358(10)
H111 H 0.6894 0.8977 1.1308
C143 C 0.7671(15) 0.918(2) 1.1624(11)
H112 H 0.7596 0.9568 1.1754
C144 C 0.8148(13) 0.8999(19) 1.1691(9)
H113 H 0.8423 0.9260 1.1852
C145 C 0.8240(14) 0.830(2) 1.1478(10)
H114 H 0.8569 0.8098 1.1517
N32 N 0.7093(9) 0.7353(13) 1.0708(6)
C146 C 0.6975(11) 0.7956(16) 1.0885(8)
C147 C 0.6483(12) 0.8119(17) 1.0741(8)
H115 H 0.6306 0.8478 1.0824
C148 C 0.6249(15) 0.764(2) 1.0421(11)
H116 H 0.5921 0.7658 1.0244
N33 N 0.6674(10) 0.7152(15) 1.0468(7)
C149 C 0.6658(13) 0.6592(18) 1.0199(9)
H117 H 0.6993 0.6595 1.0159
H118 H 0.6394 0.6736 0.9975
C150 C 0.6547(11) 0.5826(17) 1.0281(8)
C151 C 0.6558(12) 0.5643(19) 1.0601(9)
H119 H 0.6637 0.6002 1.0780
C152 C 0.6456(14) 0.494(2) 1.0682(11)
C153 C 0.6513(13) 0.470(2) 1.1026(10)
H120 H 0.6626 0.5035 1.1214
C154 C 0.6422(14) 0.406(2) 1.1094(11)
H121 H 0.6455 0.3927 1.1328
C155 C 0.6266(17) 0.352(3) 1.0814(13)
H122 H 0.6146 0.3061 1.0864
C156 C 0.6283(15) 0.363(2) 1.0505(12)
H123 H 0.6270 0.3229 1.0353
C157 C 0.6324(15) 0.438(2) 1.0384(11)
C158 C 0.6310(12) 0.4652(19) 1.0044(10)
H124 H 0.6213 0.4328 0.9850
C159 C 0.6427(11) 0.5335(17) 0.9990(8)
N34 N 0.6140(9) 0.4804(13) 0.9088(7)
C160 C 0.6385(11) 0.4239(17) 0.9012(8)
C161 C 0.6822(13) 0.4038(19) 0.9207(9)
H125 H 0.7033 0.3653 0.9179
C162 C 0.6910(15) 0.457(2) 0.9489(11)
H126 H 0.7209 0.4609 0.9691
N35 N 0.6498(10) 0.4998(15) 0.9414(7)
C163 C 0.6412(13) 0.5593(19) 0.9640(9)
H127 H 0.6679 0.5969 0.9670
H128 H 0.6075 0.5819 0.9520
N36 N 0.5603(9) 0.4122(13) 0.8494(7)
C164 C 0.6065(11) 0.3852(16) 0.8660(8)
C165 C 0.6250(15) 0.325(2) 0.8533(10)
H129 H 0.6577 0.3059 0.8665
C166 C 0.5983(13) 0.292(2) 0.8233(10)
H130 H 0.6120 0.2547 0.8131
C167 C 0.5463(12) 0.3199(18) 0.8072(9)
H131 H 0.5234 0.2965 0.7871
C168 C 0.5304(13) 0.3800(18) 0.8213(9)
H132 H 0.4968 0.3982 0.8103
Cl1 Cl 0.3062(3) 0.2577(4) 0.0640(2)
O1 O 0.3283(10) 0.2606(11) 0.1031(7)
O2 O 0.2799(8) 0.3253(13) 0.0501(6)
O3 O 0.2683(10) 0.2003(12) 0.0550(6)
O4 O 0.3455(9) 0.2448(14) 0.0493(7)
Cl2 Cl 0.5188(5) 0.1771(6) 0.9952(4)
O5 O 0.552(3) 0.233(4) 0.9989(17)
O6 O 0.5431(15) 0.1113(18) 1.0087(11)
O7 O 0.4919(15) 0.1637(19) 0.9580(9)
O8 O 0.4868(14) 0.192(3) 1.0141(11)
Cl3 Cl 0.8274(5) 0.3362(6) 0.0041(4)
O9 O 0.8316(10) 0.2622(15) 0.0035(8)
O10 O 0.8522(10) 0.3576(14) 0.0402(8)
O11 O 0.7768(12) 0.3601(16) -0.0054(11)
O12 O 0.848(2) 0.363(2) -0.0203(12)
Cl4 Cl 0.0364(4) 0.8922(5) 0.0765(3)
O13 O 0.0778(11) 0.9301(17) 0.0690(9)
O14 O 0.0591(9) 0.8385(15) 0.1007(7)
O15 O 0.0117(10) 0.9431(15) 0.0927(8)
O16 O 0.0015(11) 0.8603(16) 0.0454(8)
Cl5 Cl 0.1079(4) 0.6996(6) 0.2217(3)
O17 O 0.0583(11) 0.676(2) 0.2164(10)
O18 O 0.1455(10) 0.6513(12) 0.2414(7)
O19 O 0.1105(12) 0.7143(15) 0.1877(8)
O20 O 0.1150(14) 0.763(3) 0.2407(11)
Cl6 Cl 0.6341(5) 0.6900(5) 0.1608(3)
O21 O 0.6746(17) 0.669(2) 0.1970(10)
O22 O 0.5855(10) 0.6893(17) 0.1656(9)
O23 O 0.6444(11) 0.7577(18) 0.1504(8)
O24 O 0.6363(10) 0.6354(17) 0.1353(9)
Cl7 Cl 0.4346(5) 0.8143(6) 0.2644(3)
O25 O 0.4213(14) 0.740(2) 0.2566(9)
O26 O 0.4399(14) 0.8439(17) 0.2321(9)
O27 O 0.3883(18) 0.847(2) 0.2715(10)
O28 O 0.4756(13) 0.836(2) 0.2937(10)
Cl8 Cl 0.2134(8) 0.6895(8) 0.8290(5)
O29 O 0.174(3) 0.737(3) 0.814(2)
O30 O 0.185(2) 0.635(4) 0.8017(17)
O31 O 0.253(2) 0.718(4) 0.8291(17)
O32 O 0.2117(18) 0.6728(18) 0.8654(14)
N37 N 0.056(2) 0.132(3) 0.8077(16)
C169 C 0.019(3) 0.134(4) 0.8160(19)
C170 C -0.0317(14) 0.124(2) 0.8202(10)
N38 N 0.0976(15) 0.990(2) 0.9856(10)
C171 C 0.0721(19) 0.943(3) 0.9813(13)
C172 C 0.045(2) 0.870(4) 0.9738(17)
C173 C 0.030(3) 0.863(5) 0.787(2)
C174 C -0.002(3) 0.938(4) 0.7730(18)
N39 N -0.0376(18) 0.969(2) 0.7625(12)
N40 N 0.0222(19) 0.547(3) 0.8633(13)
C175 C 0.056(3) 0.581(4) 0.8640(17)
C176 C 0.085(3) 0.655(5) 0.863(2)
N41 N 0.192(3) 0.889(4) 0.7718(18)
C177 C 0.165(3) 0.915(4) 0.793(2)
C178 C 0.137(4) 0.934(5) 0.807(3)
N42 N 0.6161(17) -0.011(3) 0.0936(13)
C179 C 0.607(2) 0.050(4) 0.0932(16)
C180 C 0.592(2) 0.126(4) 0.0905(16)
N43 N 0.860(2) 0.755(3) 0.2302(13)
C181 C 0.953(2) 0.693(3) 0.2469(15)
C182 C 0.903(3) 0.723(4) 0.2339(18)
N44 N 0.7549(15) 0.269(2) 0.9015(10)
C183 C 0.7970(14) 0.244(2) 0.9142(10)
C184 C 0.8496(14) 0.215(2) 0.9306(10)
N45 N 0.4968(14) 0.017(2) 0.2132(11)
C185 C 0.4836(15) 0.008(2) 0.2363(12)
C186 C 0.4691(19) 0.007(3) 0.2672(14)
N46? N 0.953(3) 0.163(4) 0.1074(18)
C187? C 0.933(4) 0.111(6) 0.110(3)
C188? C 0.920(2) 0.028(3) 0.1165(15)
N47? N 0.7556(14) 0.465(2) 0.2555(10)
C189? C 0.773(2) 0.407(4) 0.2582(17)
C190? C 0.773(3) 0.314(4) 0.2689(19)
C191? C 0.0983(17) 0.468(3) 0.8049(12)
C192? C 0.108(4) 0.514(6) 0.783(3)
C193? C 0.574(3) 0.794(5) 0.262(2)
C194? C 0.580(2) 0.717(4) 0.2364(18)
C195? C 0.833(4) 0.220(6) 0.084(3)
C196? C 0.835(3) 0.126(4) 0.059(2)
loop_
_geom_bond_atom_site_label_1
_geom_bond_atom_site_label_2
_geom_bond_site_symmetry_1
_geom_bond_site_symmetry_2
Co1 N1 1_555 1_555
Co2 N16 1_555 1_555
Co3 N4 1_555 1_555
Co4 N10 1_555 1_555
N1 C1 1_555 1_555
C1 C2 1_555 1_555
C2 H1 1_555 1_555
C3 C2 1_555 1_555
H2 C3 1_555 1_555
C4 C3 1_555 1_555
H3 C4 1_555 1_555
C5 N1 1_555 1_555
H4 C5 1_555 1_555
N2 Co1 1_555 1_555
C6 C1 1_555 1_555
C7 C6 1_555 1_555
H5 C7 1_555 1_555
C8 C7 1_555 1_555
H6 C8 1_555 1_555
N3 N2 1_555 1_555
C9 N3 1_555 1_555
H7 C9 1_555 1_555
H8 C9 1_555 1_555
C10 C9 1_555 1_555
C11 C10 1_555 1_555
H9 C11 1_555 1_555
C12 C11 1_555 1_555
C13 C12 1_555 1_555
H10 C13 1_555 1_555
C14 C13 1_555 1_555
H11 C14 1_555 1_555
C15 C14 1_555 1_555
H12 C15 1_555 1_555
C16 C15 1_555 1_555
H13 C16 1_555 1_555
C17 C12 1_555 1_555
C18 C17 1_555 1_555
H14 C18 1_555 1_555
C19 C10 1_555 1_555
N4 C20 1_555 1_555
C20 C21 1_555 1_555
C21 H15 1_555 1_555
C22 C21 1_555 1_555
H16 C22 1_555 1_555
N5 N4 1_555 1_555
C23 C19 1_555 1_555
H17 C23 1_555 1_555
H18 C23 1_555 1_555
N6 Co3 1_555 1_555
C24 C20 1_555 1_555
C25 C24 1_555 1_555
H19 C25 1_555 1_555
C26 C25 1_555 1_555
H20 C26 1_555 1_555
C27 C26 1_555 1_555
H21 C27 1_555 1_555
C28 N6 1_555 1_555
H22 C28 1_555 1_555
N7 Co3 1_555 1_555
C29 N7 1_555 1_555
C30 C29 1_555 1_555
H23 C30 1_555 1_555
C31 C30 1_555 1_555
H24 C31 1_555 1_555
C32 C31 1_555 1_555
H25 C32 1_555 1_555
C33 N7 1_555 1_555
H26 C33 1_555 1_555
N8 Co3 1_555 1_555
C34 C29 1_555 1_555
C35 C34 1_555 1_555
H27 C35 1_555 1_555
C36 C35 1_555 1_555
H28 C36 1_555 1_555
N9 N8 1_555 1_555
C37 N9 1_555 1_555
H29 C37 1_555 1_555
H30 C37 1_555 1_555
C38 C37 1_555 1_555
C39 C38 1_555 1_555
H31 C39 1_555 1_555
C40 C39 1_555 1_555
C41 C40 1_555 1_555
H32 C41 1_555 1_555
C42 C41 1_555 1_555
H33 C42 1_555 1_555
C43 C42 1_555 1_555
H34 C43 1_555 1_555
C44 C43 1_555 1_555
H35 C44 1_555 1_555
C45 C40 1_555 1_555
C46 C45 1_555 1_555
H36 C46 1_555 1_555
C47 C38 1_555 1_555
N10 C48 1_555 1_555
C48 C49 1_555 1_555
C49 H37 1_555 1_555
C50 C49 1_555 1_555
H38 C50 1_555 1_555
N11 N10 1_555 1_555
C51 C47 1_555 1_555
H39 C51 1_555 1_555
H40 C51 1_555 1_555
N12 Co4 1_555 1_555
C52 C48 1_555 1_555
C53 C52 1_555 1_555
H41 C53 1_555 1_555
C54 C53 1_555 1_555
H42 C54 1_555 1_555
C55 C54 1_555 1_555
H43 C55 1_555 1_555
C56 N12 1_555 1_555
H44 C56 1_555 1_555
N13 Co4 1_555 1_555
C57 N13 1_555 1_555
C58 C57 1_555 1_555
H45 C58 1_555 1_555
C59 C58 1_555 1_555
H46 C59 1_555 1_555
C60 C59 1_555 1_555
H47 C60 1_555 1_555
C61 N13 1_555 1_555
H48 C61 1_555 1_555
N14 Co4 1_555 1_555
C62 C57 1_555 1_555
C63 C62 1_555 1_555
H49 C63 1_555 1_555
C64 C63 1_555 1_555
H50 C64 1_555 1_555
N15 N14 1_555 1_555
C65 N15 1_555 1_555
H51 C65 1_555 1_555
H52 C65 1_555 1_555
C66 C65 1_555 1_555
C67 C66 1_555 1_555
H53 C67 1_555 1_555
C68 C67 1_555 1_555
C69 C68 1_555 1_555
H54 C69 1_555 1_555
C70 C69 1_555 1_555
H55 C70 1_555 1_555
C71 C70 1_555 1_555
H56 C71 1_555 1_555
C72 C71 1_555 1_555
H57 C72 1_555 1_555
C73 C68 1_555 1_555
C74 C73 1_555 1_555
H58 C74 1_555 1_555
C75 C66 1_555 1_555
N16 C76 1_555 1_555
C76 C77 1_555 1_555
C77 H59 1_555 1_555
C78 C77 1_555 1_555
H60 C78 1_555 1_555
N17 N16 1_555 1_555
C79 C75 1_555 1_555
H61 C79 1_555 1_555
H62 C79 1_555 1_555
N18 Co2 1_555 1_555
C80 C76 1_555 1_555
C81 C80 1_555 1_555
H63 C81 1_555 1_555
C82 C81 1_555 1_555
H64 C82 1_555 1_555
C83 C82 1_555 1_555
H65 C83 1_555 1_555
C84 N18 1_555 1_555
H66 C84 1_555 1_555
N19 Co2 1_555 1_555
C85 N19 1_555 1_555
C86 C85 1_555 1_555
H67 C86 1_555 1_555
C87 C86 1_555 1_555
H68 C87 1_555 1_555
C88 C87 1_555 1_555
H69 C88 1_555 1_555
C89 N19 1_555 1_555
H70 C89 1_555 1_555
N20 Co2 1_555 1_555
C90 C85 1_555 1_555
C91 C90 1_555 1_555
H71 C91 1_555 1_555
C92 C91 1_555 1_555
H72 C92 1_555 1_555
N21 N20 1_555 1_555
C93 N21 1_555 1_555
H73 C93 1_555 1_555
H74 C93 1_555 1_555
C94 C93 1_555 1_555
C95 C94 1_555 1_555
H75 C95 1_555 1_555
C96 C95 1_555 1_555
C97 C96 1_555 1_555
H76 C97 1_555 1_555
C98 C97 1_555 1_555
H77 C98 1_555 1_555
C99 C98 1_555 1_555
H78 C99 1_555 1_555
C100 C99 1_555 1_555
H79 C100 1_555 1_555
C101 C96 1_555 1_555
C102 C101 1_555 1_555
H80 C102 1_555 1_555
C103 C94 1_555 1_555
N22 Co1 1_555 1_555
C104 N22 1_555 1_555
C105 C104 1_555 1_555
H81 C105 1_555 1_555
C106 C105 1_555 1_555
H82 C106 1_555 1_555
N23 N22 1_555 1_555
C107 C103 1_555 1_555
H83 C107 1_555 1_555
H84 C107 1_555 1_555
N24 Co1 1_555 1_555
C108 C104 1_555 1_555
C109 C108 1_555 1_555
H85 C109 1_555 1_555
C110 C109 1_555 1_555
H86 C110 1_555 1_555
C111 C110 1_555 1_555
H87 C111 1_555 1_555
C112 N24 1_555 1_555
H88 C112 1_555 1_555
N25 Co1 1_555 1_555
C113 N25 1_555 1_555
C114 C113 1_555 1_555
H89 C114 1_555 1_555
C115 C114 1_555 1_555
H90 C115 1_555 1_555
C116 C115 1_555 1_555
H91 C116 1_555 1_555
C117 N25 1_555 1_555
H92 C117 1_555 1_555
N26 Co1 1_555 1_555
C118 C113 1_555 1_555
C119 C118 1_555 1_555
H93 C119 1_555 1_555
C120 C119 1_555 1_555
H94 C120 1_555 1_555
N27 N26 1_555 1_555
C121 N27 1_555 1_555
H95 C121 1_555 1_555
H96 C121 1_555 1_555
C122 C121 1_555 1_555
C123 C122 1_555 1_555
H97 C123 1_555 1_555
C124 C123 1_555 1_555
C125 C124 1_555 1_555
H98 C125 1_555 1_555
C126 C125 1_555 1_555
H99 C126 1_555 1_555
C127 C126 1_555 1_555
H100 C127 1_555 1_555
C128 C127 1_555 1_555
H101 C128 1_555 1_555
C129 C124 1_555 1_555
C130 C129 1_555 1_555
H102 C130 1_555 1_555
C131 C122 1_555 1_555
N28 Co4 1_555 1_555
C132 N28 1_555 1_555
C133 C132 1_555 1_555
H103 C133 1_555 1_555
C134 C133 1_555 1_555
H104 C134 1_555 1_555
N29 N28 1_555 1_555
C135 C131 1_555 1_555
H105 C135 1_555 1_555
H106 C135 1_555 1_555
N30 Co4 1_555 1_555
C136 C132 1_555 1_555
C137 C136 1_555 1_555
H107 C137 1_555 1_555
C138 C137 1_555 1_555
H108 C138 1_555 1_555
C139 C138 1_555 1_555
H109 C139 1_555 1_555
C140 N30 1_555 1_555
H110 C140 1_555 1_555
N31 Co2 1_555 1_555
C141 N31 1_555 1_555
C142 C141 1_555 1_555
H111 C142 1_555 1_555
C143 C142 1_555 1_555
H112 C143 1_555 1_555
C144 C143 1_555 1_555
H113 C144 1_555 1_555
C145 N31 1_555 1_555
H114 C145 1_555 1_555
N32 Co2 1_555 1_555
C146 C141 1_555 1_555
C147 C146 1_555 1_555
H115 C147 1_555 1_555
C148 C147 1_555 1_555
H116 C148 1_555 1_555
N33 N32 1_555 1_555
C149 N33 1_555 1_555
H117 C149 1_555 1_555
H118 C149 1_555 1_555
C150 C149 1_555 1_555
C151 C150 1_555 1_555
H119 C151 1_555 1_555
C152 C151 1_555 1_555
C153 C152 1_555 1_555
H120 C153 1_555 1_555
C154 C153 1_555 1_555
H121 C154 1_555 1_555
C155 C154 1_555 1_555
H122 C155 1_555 1_555
C156 C155 1_555 1_555
H123 C156 1_555 1_555
C157 C152 1_555 1_555
C158 C157 1_555 1_555
H124 C158 1_555 1_555
C159 C150 1_555 1_555
N34 Co3 1_555 1_555
C160 N34 1_555 1_555
C161 C160 1_555 1_555
H125 C161 1_555 1_555
C162 C161 1_555 1_555
H126 C162 1_555 1_555
N35 N34 1_555 1_555
C163 C159 1_555 1_555
H127 C163 1_555 1_555
H128 C163 1_555 1_555
N36 Co3 1_555 1_555
C164 C160 1_555 1_555
C165 C164 1_555 1_555
H129 C165 1_555 1_555
C166 C165 1_555 1_555
H130 C166 1_555 1_555
C167 C166 1_555 1_555
H131 C167 1_555 1_555
C168 N36 1_555 1_555
H132 C168 1_555 1_555
Cl1 O1 1_555 1_555
O2 Cl1 1_555 1_555
O3 Cl1 1_555 1_555
O4 Cl1 1_555 1_555
Cl2 O5 1_555 1_555
O6 Cl2 1_555 1_555
O7 Cl2 1_555 1_555
O8 Cl2 1_555 1_555
Cl3 O9 1_555 1_555
O10 Cl3 1_555 1_555
O11 Cl3 1_555 1_555
O12 Cl3 1_555 1_555
Cl4 O13 1_555 1_555
O14 Cl4 1_555 1_555
O15 Cl4 1_555 1_555
O16 Cl4 1_555 1_555
Cl5 O17 1_555 1_555
O18 Cl5 1_555 1_555
O19 Cl5 1_555 1_555
O20 Cl5 1_555 1_555
Cl6 O21 1_555 1_555
O22 Cl6 1_555 1_555
O23 Cl6 1_555 1_555
O24 Cl6 1_555 1_555
Cl7 O25 1_555 1_555
O26 Cl7 1_555 1_555
O27 Cl7 1_555 1_555
O28 Cl7 1_555 1_555
Cl8 O29 1_555 1_555
O30 Cl8 1_555 1_555
O31 Cl8 1_555 1_555
O32 Cl8 1_555 1_555
N37 C169 1_555 1_555
C169 C170 1_555 1_555
N38 C171 1_555 1_555
C171 C172 1_555 1_555
C173 C174 1_555 1_555
C174 N39 1_555 1_555
N40 C175 1_555 1_555
C175 C176 1_555 1_555
N41 C177 1_555 1_555
C177 C178 1_555 1_555
N42 C179 1_555 1_555
C179 C180 1_555 1_555
N43 C182 1_555 1_555
C181 C182 1_555 1_555
N44 C183 1_555 1_555
C183 C184 1_555 1_555
N45 C185 1_555 1_555
C185 C186 1_555 1_555
C4 C5 1_555 1_555
N2 C6 1_555 1_555
C8 N3 1_555 1_555
C16 C17 1_555 1_555
C18 C19 1_555 1_555
C22 N5 1_555 1_555
N5 C23 1_555 1_555
N6 C24 1_555 1_555
C27 C28 1_555 1_555
C32 C33 1_555 1_555
N8 C34 1_555 1_555
C36 N9 1_555 1_555
C44 C45 1_555 1_555
C46 C47 1_555 1_555
C50 N11 1_555 1_555
N11 C51 1_555 1_555
N12 C52 1_555 1_555
C55 C56 1_555 1_555
C60 C61 1_555 1_555
N14 C62 1_555 1_555
C64 N15 1_555 1_555
C72 C73 1_555 1_555
C74 C75 1_555 1_555
C78 N17 1_555 1_555
N17 C79 1_555 1_555
N18 C80 1_555 1_555
C83 C84 1_555 1_555
C88 C89 1_555 1_555
N20 C90 1_555 1_555
C92 N21 1_555 1_555
C100 C101 1_555 1_555
C102 C103 1_555 1_555
C106 N23 1_555 1_555
N23 C107 1_555 1_555
N24 C108 1_555 1_555
C111 C112 1_555 1_555
C116 C117 1_555 1_555
N26 C118 1_555 1_555
C120 N27 1_555 1_555
C128 C129 1_555 1_555
C130 C131 1_555 1_555
C134 N29 1_555 1_555
N29 C135 1_555 1_555
N30 C136 1_555 1_555
C139 C140 1_555 1_555
C144 C145 1_555 1_555
N32 C146 1_555 1_555
C148 N33 1_555 1_555
C156 C157 1_555 1_555
C158 C159 1_555 1_555
C162 N35 1_555 1_555
N35 C163 1_555 1_555
N36 C164 1_555 1_555
C167 C168 1_555 1_555

#END
