
#######################################################################
#
#                 Cambridge Crystallographic Data Centre
#                                CCDC 
#
#######################################################################
#
# If this CIF has been generated from an entry in the Cambridge 
# Structural Database, then it will include bibliographic, chemical, 
# crystal, experimental, refinement or atomic coordinate data resulting 
# from the CCDC's data processing and validation procedures.
#
#######################################################################

data_XODFAZ
_chemical_formula_moiety         'C93 H132 Cl9 Co9 N36 O9 P3,6(C7 H8)'
_chemical_name_systematic        
'dodecakis(\m~2~-3,5-Dimethylpyrazolato)-tris(\m~2~-(trichloromethyl)phosphonato)-hexakis(3,5-dimethyl-1H-pyrazole-N^2^)-nona-cobalt toluene solvate'
_symmetry_cell_setting           triclinic
_symmetry_space_group_name_H-M   'P -1'
_symmetry_Int_Tables_number      2
_space_group_name_Hall           '-P 1'
loop_
_symmetry_equiv_pos_site_id
_symmetry_equiv_pos_as_xyz
1 x,y,z
2 -x,-y,-z
_cell_length_a                   18.446(5)
_cell_length_b                   21.371(5)
_cell_length_c                   25.362(5)
_cell_angle_alpha                69.974(5)
_cell_angle_beta                 83.293(5)
_cell_angle_gamma                64.700(5)
_cell_volume                     8487.3
_exptl_crystal_colour            violet
_cell_formula_units_Z            2
loop_
_atom_site_label
_atom_site_type_symbol
_atom_site_fract_x
_atom_site_fract_y
_atom_site_fract_z
C1 C 0.2637(17) 0.2393(14) 0.1730(12)
H1 H 0.2095 0.2558 0.1646
C2 C 0.2854(15) 0.2597(13) 0.2161(10)
H2 H 0.2475 0.2911 0.2335
C3 C 0.3631(17) 0.2303(13) 0.2286(10)
C4 C 0.397(2) 0.1674(17) 0.1649(14)
H3 H 0.4361 0.1337 0.1499
C5 C 0.4209(17) 0.1836(14) 0.2058(11)
H4 H 0.4745 0.1634 0.2172
C6 C 0.3956(19) 0.2465(18) 0.2731(14)
H5 H 0.3641 0.2963 0.2716
H6 H 0.4504 0.2391 0.2659
H7 H 0.3926 0.2142 0.3097
C7 C 0.319(2) 0.1971(17) 0.1442(14)
H8 H 0.3052 0.1892 0.1136
C8 C 0.6716(13) -0.0538(12) 0.6940(9)
H9 H 0.6337 -0.0719 0.6900
H10 H 0.6434 -0.0061 0.6977
H11 H 0.7055 -0.0865 0.7268
C9 C 0.1894(10) 0.4152(9) 0.7098(8)
H12 H 0.1489 0.4294 0.7361
H13 H 0.1682 0.4044 0.6829
H14 H 0.2052 0.4545 0.6909
C10 C 1.1354(11) 0.0524(10) 0.2433(8)
H15 H 1.1904 0.0324 0.2556
H16 H 1.1146 0.1048 0.2294
H17 H 1.1321 0.0348 0.2140
C11 C 0.4882(12) -0.0145(11) 0.6191(9)
C12 C 0.3629(13) 0.0380(11) 0.7351(9)
H18 H 0.3904 0.0024 0.7697
H19 H 0.3141 0.0341 0.7309
H20 H 0.3506 0.0862 0.7356
C13 C 0.1047(10) 0.4991(9) 0.2604(7)
C14 C 0.6306(9) 0.3519(8) 0.3102(6)
C15 C 0.6000(10) 0.2134(9) 0.6763(7)
C16 C 0.5883(10) 0.5111(8) 0.0543(7)
C17 C 0.7480(12) -0.0725(11) 0.4402(9)
C18 C 0.5033(10) 0.4084(8) 0.2854(6)
C19 C 0.3312(10) 0.6835(10) 0.1521(6)
C20 C 1.0875(14) 0.0293(12) 0.2914(10)
C21 C 0.4588(11) 0.3772(10) 0.1292(7)
C22 C 0.7117(10) 0.4360(9) 0.0782(7)
C23 C 0.3522(10) 0.5723(8) 0.3530(7)
C24 C 0.9426(11) 0.3244(9) 0.2197(6)
C25 C 0.0296(9) 0.6186(7) 0.4224(6)
C26 C 0.0772(11) 0.7211(10) 0.0567(8)
C27 C 0.0864(10) 0.5046(9) 0.5674(7)
H21 H 0.0413 0.5274 0.5877
H22 H 0.1343 0.5012 0.5819
H23 H 0.0916 0.4564 0.5718
C28 C 1.1068(12) -0.0164(9) 0.3466(8)
H24 H 1.1583 -0.0414 0.3629
C29 C 0.8295(11) 0.4114(9) 0.2161(7)
P1 P 0.5158(4) 0.2061(3) 0.6485(2)
C30 C 0.0726(10) 0.8096(10) 0.2367(8)
C31 C 0.3948(10) 0.6959(9) 0.1517(6)
H25 H 0.3961 0.7399 0.1492
C32 C 0.1323(12) 0.7250(10) 0.0154(9)
H26 H 0.1200 0.7554 -0.0217
C33 C 0.6584(10) 0.4918(9) 0.0336(8)
H27 H 0.6714 0.5107 -0.0032
C34 C 0.8028(11) 0.3907(10) 0.0794(8)
H28 H 0.8203 0.3943 0.0417
H29 H 0.8152 0.3403 0.1007
H30 H 0.8298 0.4090 0.0965
P2 P 0.1537(3) 0.5633(3) 0.2478(2)
C35 C 0.3477(11) 0.2587(10) 0.7999(8)
C36 C 1.0412(12) -0.0190(10) 0.3725(8)
C37 C 0.5585(9) 0.3663(8) 0.3315(7)
H31 H 0.5466 0.3516 0.3692
C38 C 0.9092(11) 0.3919(10) 0.2184(7)
H32 H 0.9348 0.4209 0.2190
P3 P 0.8042(3) 0.1791(3) 0.22604(19)
C39 C 0.4973(10) 0.2141(9) 0.4143(7)
H33 H 0.4599 0.2513 0.3865
C40 C 0.8124(12) -0.0561(10) 0.5757(8)
C41 C 0.4135(12) 0.0248(11) 0.6887(9)
C42 C 0.7918(9) 0.1625(8) 0.4788(7)
C43 C 0.5752(11) 0.1722(9) 0.4052(8)
C44 C 0.0062(10) 0.5916(8) 0.4746(6)
H34 H -0.0458 0.6001 0.4863
C45 C 0.4590(10) 0.6310(9) 0.1556(7)
C46 C 0.6200(10) 0.1733(9) 0.3518(7)
H35 H 0.5827 0.2024 0.3203
H36 H 0.6483 0.1242 0.3508
H37 H 0.6576 0.1940 0.3503
C47 C 0.2110(10) 0.3004(10) 0.5333(8)
H38 H 0.1885 0.2734 0.5247
C48 C 0.4000(10) 0.4850(8) 0.4342(7)
C49 C 0.0738(9) 0.5502(8) 0.5055(7)
C50 C 0.2064(10) 0.6784(9) 0.0368(7)
C51 C 0.3632(9) 0.4759(9) 0.6343(7)
C52 C 0.0915(10) 0.8327(11) 0.2689(8)
H39 H 0.0838 0.8806 0.2629
C53 C 0.3286(10) 0.4294(9) 0.1175(7)
C54 C 0.3927(9) 0.3674(9) 0.1144(7)
C55 C 0.4228(9) 0.5254(8) 0.3839(6)
H40 H 0.4743 0.5214 0.3737
C56 C 0.5455(10) 0.3223(10) 0.1381(7)
H41 H 0.5497 0.2773 0.1352
H42 H 0.5646 0.3135 0.1746
H43 H 0.5772 0.3413 0.1100
C57 C 0.5058(9) 0.5667(8) 0.0267(7)
H44 H 0.4905 0.6111 0.0351
H45 H 0.4669 0.5468 0.0409
H46 H 0.5084 0.5770 -0.0133
C58 C 0.5271(13) -0.0471(12) 0.5793(9)
H47 H 0.5307 -0.0105 0.5455
H48 H 0.4976 -0.0707 0.5713
H49 H 0.5801 -0.0828 0.5933
C59 C 0.4169(9) 0.4382(9) 0.2855(7)
H50 H 0.3984 0.4118 0.2704
H51 H 0.3952 0.4889 0.2629
H52 H 0.3995 0.4336 0.3233
C60 C -0.0223(9) 0.6683(8) 0.3712(6)
H53 H -0.0763 0.6730 0.3786
H54 H -0.0027 0.6483 0.3411
H55 H -0.0213 0.7155 0.3607
C61 C 0.9106(14) -0.0964(13) 0.3390(10)
H56 H 0.9505 -0.1449 0.3567
H57 H 0.9348 -0.0622 0.3292
H58 H 0.8890 -0.0949 0.3058
C62 C 0.2392(10) 0.4505(9) 0.1056(8)
H59 H 0.2348 0.4371 0.0740
H60 H 0.2094 0.5024 0.0973
H61 H 0.2180 0.4252 0.1380
C63 C 0.2479(11) 0.2857(10) 0.5848(8)
C64 C 0.8453(10) 0.1917(9) 0.4523(7)
H62 H 0.8589 0.2237 0.4620
C65 C 0.4827(12) 0.1925(10) 0.4714(8)
C66 C 0.2570(12) 0.3522(10) 0.7389(8)
C67 C 0.1297(11) 0.7672(12) 0.3199(8)
C68 C 0.4531(10) 0.4250(9) 0.4857(7)
H63 H 0.4461 0.3809 0.4928
H64 H 0.4378 0.4411 0.5180
H65 H 0.5083 0.4158 0.4784
C69 C 0.3395(9) 0.6242(8) 0.2942(6)
H66 H 0.3903 0.6222 0.2790
H67 H 0.3059 0.6730 0.2942
H68 H 0.3141 0.6107 0.2716
C70 C 0.5483(11) 0.6130(10) 0.1576(8)
H69 H 0.5704 0.6105 0.1217
H70 H 0.5753 0.5667 0.1860
H71 H 0.5554 0.6505 0.1661
C71 C 0.3085(9) 0.5597(9) 0.5561(7)
C72 C 0.8485(12) -0.0777(11) 0.3765(9)
C73 C 0.2164(9) 0.3635(8) 0.4993(7)
C74 C 0.4058(13) 0.2023(11) 0.8510(9)
H72 H 0.4299 0.2262 0.8643
H73 H 0.4469 0.1634 0.8396
H74 H 0.3763 0.1824 0.8805
C75 C 0.7968(12) -0.0830(10) 0.6309(9)
H75 H 0.8353 -0.1216 0.6573
C76 C 0.4128(10) 0.2193(10) 0.5020(8)
H76 H 0.4220 0.2437 0.5244
H77 H 0.4013 0.1791 0.5261
H78 H 0.3681 0.2531 0.4763
C77 C 0.7092(10) 0.3079(10) 0.3417(8)
H79 H 0.7329 0.3398 0.3424
H80 H 0.7443 0.2737 0.3235
H81 H 0.7013 0.2817 0.3794
C78 C 0.8742(9) 0.1646(8) 0.4095(7)
C79 C 0.9352(10) 0.1808(8) 0.3652(7)
H82 H 0.9464 0.2187 0.3696
H83 H 0.9128 0.1965 0.3282
H84 H 0.9840 0.1373 0.3705
C80 C 0.1848(10) 0.4042(9) 0.4386(7)
H85 H 0.1622 0.3776 0.4272
H86 H 0.2281 0.4083 0.4148
H87 H 0.1443 0.4522 0.4356
C81 C 0.6938(11) -0.0849(10) 0.4823(8)
H88 H 0.6804 -0.1226 0.4798
H89 H 0.6460 -0.0406 0.4772
H90 H 0.7182 -0.1000 0.5186
C82 C 0.7223(12) -0.0491(11) 0.6427(9)
C83 C 0.8821(12) -0.0742(10) 0.5430(8)
H91 H 0.9098 -0.0449 0.5425
H92 H 0.8664 -0.0647 0.5052
H93 H 0.9169 -0.1250 0.5591
C84 C 0.3491(9) 0.5446(8) 0.6040(6)
H94 H 0.3638 0.5762 0.6133
C85 C 0.2426(9) 0.7359(9) 0.1519(7)
H95 H 0.2383 0.7718 0.1681
H96 H 0.2129 0.7087 0.1734
H97 H 0.2212 0.7600 0.1140
C86 C 0.2813(11) 0.6248(9) 0.5043(8)
H98 H 0.2731 0.6676 0.5130
H99 H 0.2319 0.6310 0.4900
H100 H 0.3214 0.6177 0.4766
C87 C 0.2851(10) 0.6647(9) 0.0147(7)
H101 H 0.3035 0.6229 0.0023
H102 H 0.3215 0.6554 0.0435
H103 H 0.2830 0.7067 -0.0164
C88 C 1.0301(11) 0.2709(10) 0.2268(8)
H104 H 1.0621 0.2953 0.2046
H105 H 1.0368 0.2309 0.2146
H106 H 1.0469 0.2525 0.2656
C89 C 0.7595(13) 0.4806(11) 0.2135(10)
H107 H 0.7367 0.4767 0.2498
H108 H 0.7201 0.4902 0.1868
H109 H 0.7762 0.5200 0.2021
C90 C 0.2840(12) 0.3141(11) 0.7981(8)
H110 H 0.2586 0.3284 0.8285
C91 C 0.0313(11) 0.8482(10) 0.1767(8)
H111 H -0.0179 0.8895 0.1772
H112 H 0.0199 0.8143 0.1660
H113 H 0.0664 0.8645 0.1503
C92 C 0.2664(11) 0.2236(10) 0.6419(8)
H114 H 0.2214 0.2109 0.6519
H115 H 0.2762 0.2398 0.6702
H116 H 0.3130 0.1815 0.6391
C93 C -0.0132(11) 0.7574(10) 0.0607(8)
H117 H -0.0361 0.7953 0.0258
H118 H -0.0259 0.7783 0.0904
H119 H -0.0348 0.7216 0.0685
C94 C 1.0244(12) -0.0542(11) 0.4315(9)
H120 H 1.0736 -0.0919 0.4508
H121 H 0.9877 -0.0752 0.4315
H122 H 1.0012 -0.0181 0.4501
C95 C 0.1607(12) 0.7648(11) 0.3707(8)
H123 H 0.1779 0.8036 0.3623
H124 H 0.2054 0.7186 0.3858
H125 H 0.1194 0.7707 0.3977
C96 C 0.7993(13) -0.1091(12) 0.4063(9)
H126 H 0.8004 -0.1519 0.4039
C97 C 0.4049(10) 0.4291(9) 0.6902(7)
H127 H 0.4277 0.4547 0.7026
H128 H 0.4467 0.3844 0.6871
H129 H 0.3670 0.4181 0.7169
Cl1 Cl 0.5761(3) 0.2367(3) 0.73724(19)
Cl2 Cl 0.6233(3) 0.2830(2) 0.62308(19)
Cl3 Cl 0.7858(3) 0.1838(3) 0.1099(2)
Cl4 Cl 0.1753(3) 0.4076(3) 0.2881(2)
Cl5 Cl 0.8671(3) 0.0445(3) 0.1933(2)
Cl6 Cl 0.6959(3) 0.1234(3) 0.1964(2)
Cl7 Cl 0.6881(3) 0.1302(3) 0.6882(2)
Cl8 Cl 0.0275(3) 0.5165(3) 0.3093(2)
Cl9 Cl 0.0616(3) 0.5107(3) 0.1968(2)
Co1 Co 0.25416(13) 0.48540(11) 0.49744(8)
Co2 Co 0.28563(13) 0.56273(12) 0.15097(9)
Co3 Co 0.50066(13) 0.47599(12) 0.16293(9)
Co4 Co 0.70933(13) 0.35416(12) 0.19977(9)
Co5 Co 0.34408(14) 0.34503(13) 0.62888(9)
Co6 Co 0.17817(13) 0.60424(11) 0.35603(9)
Co7 Co 0.72521(15) 0.06075(12) 0.47116(10)
Co8 Co 0.85557(15) 0.06841(12) 0.35425(10)
Co9 Co 0.57694(16) 0.08955(13) 0.57874(10)
N1 N 0.8127(7) 0.3578(7) 0.2132(5)
N2 N 0.7443(9) 0.0013(8) 0.5528(6)
N3 N 0.7908(7) 0.1177(7) 0.4519(5)
N4 N 0.5538(8) 0.1364(7) 0.4959(5)
C98 C 0.7897(10) 0.1324(9) 0.1822(7)
N5 N 0.1317(7) 0.7137(8) 0.3087(6)
N6 N 0.6112(8) 0.1217(7) 0.4570(6)
N7 N 0.3513(8) 0.6133(7) 0.1551(5)
N8 N 0.6860(8) 0.0104(7) 0.5901(6)
N9 N 0.3747(9) 0.2532(8) 0.7490(6)
H130 H 0.4179 0.2205 0.7416
N10 N 0.3163(9) 0.3127(8) 0.7118(6)
N11 N 0.0962(8) 0.7347(8) 0.2586(7)
H131 H 0.0895 0.7073 0.2432
N12 N 0.1992(8) 0.6390(7) 0.0926(5)
N13 N 0.1195(8) 0.6666(7) 0.1032(6)
H132 H 0.0989 0.6518 0.1346
N14 N 0.4364(9) 0.5794(7) 0.1569(5)
N15 N 0.9728(9) 0.0300(8) 0.3379(7)
N16 N 1.0053(9) 0.0571(8) 0.2874(6)
H133 H 0.9771 0.0876 0.2573
N17 N 0.3292(7) 0.4469(7) 0.6089(5)
N18 N 0.2952(7) 0.5014(7) 0.5580(5)
N19 N 0.1402(7) 0.5491(6) 0.4768(5)
N20 N 0.1081(8) 0.5939(6) 0.4217(5)
N21 N 0.3198(7) 0.5088(6) 0.4334(5)
N22 N 0.2892(7) 0.5629(6) 0.3829(5)
N23 N 0.2758(8) 0.3400(7) 0.5787(6)
N24 N 0.2541(7) 0.3868(7) 0.5239(5)
N25 N 0.8879(8) 0.3034(7) 0.2155(5)
H134 H 0.8976 0.2609 0.2143
N26 N 0.4614(9) 0.0618(8) 0.6657(6)
H135 H 0.4356 0.1085 0.6573
N27 N 0.5039(10) 0.0432(9) 0.6204(7)
N28 N 0.7664(8) -0.0096(8) 0.4265(6)
N29 N 0.8230(8) -0.0128(8) 0.3896(6)
N30 N 0.8427(7) 0.1202(7) 0.4086(5)
N31 N 0.3523(8) 0.4730(7) 0.1303(5)
N32 N 0.4344(8) 0.4400(7) 0.1379(5)
N33 N 0.6257(7) 0.3812(6) 0.2540(5)
N34 N 0.5447(7) 0.4162(6) 0.2401(5)
N35 N 0.6711(8) 0.4241(7) 0.1245(5)
N36 N 0.5911(8) 0.4714(7) 0.1102(6)
O1 O 0.2254(6) 0.5333(5) 0.2137(4)
O2 O 0.7942(6) 0.1326(6) 0.2846(5)
O3 O 0.4563(7) 0.2837(7) 0.6269(4)
O4 O 0.1749(6) 0.5553(5) 0.3048(4)
O5 O 0.7365(7) 0.2530(6) 0.2085(5)
O6 O 0.5511(7) 0.1718(6) 0.6036(5)
C99 C 0.7386(9) 0.1767(8) 0.5238(6)
H136 H 0.7518 0.2052 0.5401
H137 H 0.7445 0.1312 0.5519
H138 H 0.6842 0.2033 0.5093
O7 O 0.4879(7) 0.1614(6) 0.6977(5)
O8 O 0.8868(7) 0.1754(5) 0.2141(4)
O9 O 0.0912(6) 0.6376(6) 0.2153(4)
C100 C 0.4345(12) -0.0208(11) 0.6610(9)
H139 H 0.4144 -0.0562 0.6691
C101 C 0.7692(16) -0.0426(16) 0.1187(13)
H140 H 0.7646 0.0040 0.1142
C102 C 0.8008(16) -0.1752(16) 0.1282(13)
H141 H 0.8140 -0.2230 0.1298
C103 C 0.8006(16) -0.0964(15) 0.1703(12)
H142 H 0.8073 -0.0851 0.2012
C104 C 0.8218(17) -0.1696(17) 0.1727(13)
C105 C 0.8645(16) -0.2279(14) 0.2237(11)
H143 H 0.8301 -0.2505 0.2443
H144 H 0.8799 -0.2076 0.2466
H145 H 0.9116 -0.2639 0.2137
C106 C 0.7618(16) -0.1220(16) 0.0781(12)
H146 H 0.7483 -0.1330 0.0492
C107 C 0.7453(16) -0.0514(16) 0.0754(13)
H147 H 0.7183 -0.0114 0.0444
C108 C 0.0768(12) 0.0947(10) 0.0984(8)
C109 C 0.1479(13) 0.0989(12) 0.0766(9)
H148 H 0.1900 0.0599 0.0686
C110 C 0.0696(16) 0.0232(13) 0.1152(12)
H149 H 0.1221 -0.0160 0.1192
H150 H 0.0389 0.0238 0.0868
H151 H 0.0431 0.0160 0.1503
C111 C 0.1515(13) 0.1616(12) 0.0679(9)
H152 H 0.1982 0.1658 0.0525
C112 C 0.0939(14) 0.2211(13) 0.0792(10)
H153 H 0.1005 0.2638 0.0727
C113 C 0.0158(12) 0.1541(11) 0.1093(8)
H154 H -0.0325 0.1520 0.1228
C114 C 0.0266(13) 0.2137(12) 0.1006(9)
H155 H -0.0141 0.2527 0.1096
C115 C 0.0071(13) 0.2768(10) 0.4676(6)
C116 C 0.0837(10) 0.2542(9) 0.4466(8)
H156 H 0.1279 0.2222 0.4709
C117 C 0.0943(8) 0.2794(10) 0.3892(9)
H157 H 0.1456 0.2643 0.3752
C118 C 0.0283(12) 0.3272(9) 0.3528(6)
H158 H 0.0354 0.3441 0.3145
C119 C -0.0484(9) 0.3498(8) 0.3738(8)
H159 H -0.0925 0.3818 0.3495
C120 C -0.0590(9) 0.3246(10) 0.4312(8)
H160 H -0.1103 0.3397 0.4452
C121 C -0.0286(15) 0.2547(14) 0.5154(11)
H161 H 0.0097 0.2307 0.5463
H162 H -0.0486 0.2213 0.5124
H163 H -0.0723 0.2965 0.5215
C122 C 0.5876(17) 0.1925(16) 0.0432(12)
H164 H 0.5747 0.1564 0.0723
H165 H 0.5397 0.2368 0.0304
H166 H 0.6259 0.2024 0.0577
C123 C 0.6244(14) 0.1629(10) -0.0074(8)
C124 C 0.7043(13) 0.1491(11) -0.0191(9)
H167 H 0.7330 0.1614 0.0004
C125 C 0.7412(9) 0.1169(11) -0.0599(9)
H168 H 0.7946 0.1076 -0.0677
C126 C 0.6983(13) 0.0984(10) -0.0891(7)
H169 H 0.7230 0.0769 -0.1164
C127 C 0.6184(13) 0.1122(10) -0.0774(8)
H170 H 0.5897 0.0998 -0.0969
C128 C 0.5814(9) 0.1444(11) -0.0366(9)
H171 H 0.5280 0.1536 -0.0288
C129 C 0.3377(18) 0.007(2) 0.1766(14)
H172 H 0.3455 -0.0415 0.2009
H173 H 0.2884 0.0287 0.1550
H174 H 0.3352 0.0360 0.1987
C130 C 0.4070(17) 0.0017(14) 0.1374(13)
C131 C 0.482(2) -0.0237(12) 0.1620(9)
H175 H 0.4913 -0.0492 0.2002
C132 C 0.5435(14) -0.0110(13) 0.1294(14)
H176 H 0.5938 -0.0280 0.1459
C133 C 0.5299(16) 0.0271(14) 0.0722(13)
H177 H 0.5710 0.0356 0.0504
C134 C 0.455(2) 0.0525(12) 0.0476(9)
H178 H 0.4456 0.0780 0.0093
C135 C 0.3933(13) 0.0398(14) 0.0801(14)
H179 H 0.3430 0.0567 0.0637
loop_
_geom_bond_atom_site_label_1
_geom_bond_atom_site_label_2
_geom_bond_site_symmetry_1
_geom_bond_site_symmetry_2
C1 H1 1_555 1_555
C2 C1 1_555 1_555
H2 C2 1_555 1_555
C3 C2 1_555 1_555
C4 H3 1_555 1_555
C5 C3 1_555 1_555
H4 C5 1_555 1_555
C6 C3 1_555 1_555
H5 C6 1_555 1_555
H6 C6 1_555 1_555
H7 C6 1_555 1_555
C7 C1 1_555 1_555
H8 C7 1_555 1_555
C8 H9 1_555 1_555
H10 C8 1_555 1_555
H11 C8 1_555 1_555
C9 H12 1_555 1_555
H13 C9 1_555 1_555
H14 C9 1_555 1_555
C10 H15 1_555 1_555
H16 C10 1_555 1_555
H17 C10 1_555 1_555
C11 C58 1_555 1_555
C12 H18 1_555 1_555
H19 C12 1_555 1_555
H20 C12 1_555 1_555
C13 P2 1_555 1_555
C14 C37 1_555 1_555
C15 P1 1_555 1_555
C16 C33 1_555 1_555
C17 C81 1_555 1_555
C18 C37 1_555 1_555
C19 C31 1_555 1_555
C20 C10 1_555 1_555
C21 C54 1_555 1_555
C22 C33 1_555 1_555
C23 C55 1_555 1_555
C24 C38 1_555 1_555
C25 C44 1_555 1_555
C26 C32 1_555 1_555
C27 H21 1_555 1_555
H22 C27 1_555 1_555
H23 C27 1_555 1_555
C28 C20 1_555 1_555
H24 C28 1_555 1_555
C29 C38 1_555 1_555
P1 O3 1_555 1_555
C30 C52 1_555 1_555
C31 H25 1_555 1_555
C32 H26 1_555 1_555
C33 H27 1_555 1_555
C34 C22 1_555 1_555
H28 C34 1_555 1_555
H29 C34 1_555 1_555
H30 C34 1_555 1_555
P2 O1 1_555 1_555
C35 C74 1_555 1_555
C36 C28 1_555 1_555
C37 H31 1_555 1_555
C38 H32 1_555 1_555
P3 C98 1_555 1_555
C39 H33 1_555 1_555
C40 C75 1_555 1_555
C41 C12 1_555 1_555
C42 C64 1_555 1_555
C43 C39 1_555 1_555
C44 H34 1_555 1_555
C45 C31 1_555 1_555
C46 C43 1_555 1_555
H35 C46 1_555 1_555
H36 C46 1_555 1_555
H37 C46 1_555 1_555
C47 H38 1_555 1_555
C48 C55 1_555 1_555
C49 C27 1_555 1_555
C50 C32 1_555 1_555
C51 C84 1_555 1_555
C52 H39 1_555 1_555
C53 C54 1_555 1_555
C55 H40 1_555 1_555
C56 C21 1_555 1_555
H41 C56 1_555 1_555
H42 C56 1_555 1_555
H43 C56 1_555 1_555
C57 C16 1_555 1_555
H44 C57 1_555 1_555
H45 C57 1_555 1_555
H46 C57 1_555 1_555
C58 H47 1_555 1_555
H48 C58 1_555 1_555
H49 C58 1_555 1_555
C59 C18 1_555 1_555
H50 C59 1_555 1_555
H51 C59 1_555 1_555
H52 C59 1_555 1_555
C60 C25 1_555 1_555
H53 C60 1_555 1_555
H54 C60 1_555 1_555
H55 C60 1_555 1_555
C61 H56 1_555 1_555
H57 C61 1_555 1_555
H58 C61 1_555 1_555
C62 C53 1_555 1_555
H59 C62 1_555 1_555
H60 C62 1_555 1_555
H61 C62 1_555 1_555
C63 C47 1_555 1_555
C64 H62 1_555 1_555
C65 C39 1_555 1_555
C66 C9 1_555 1_555
C67 C52 1_555 1_555
C68 C48 1_555 1_555
H63 C68 1_555 1_555
H64 C68 1_555 1_555
H65 C68 1_555 1_555
C69 C23 1_555 1_555
H66 C69 1_555 1_555
H67 C69 1_555 1_555
H68 C69 1_555 1_555
C70 C45 1_555 1_555
H69 C70 1_555 1_555
H70 C70 1_555 1_555
H71 C70 1_555 1_555
C71 C84 1_555 1_555
C72 C61 1_555 1_555
C73 C47 1_555 1_555
C74 H72 1_555 1_555
H73 C74 1_555 1_555
H74 C74 1_555 1_555
C75 H75 1_555 1_555
C76 C65 1_555 1_555
H76 C76 1_555 1_555
H77 C76 1_555 1_555
H78 C76 1_555 1_555
C77 C14 1_555 1_555
H79 C77 1_555 1_555
H80 C77 1_555 1_555
H81 C77 1_555 1_555
C78 C64 1_555 1_555
C79 C78 1_555 1_555
H82 C79 1_555 1_555
H83 C79 1_555 1_555
H84 C79 1_555 1_555
C80 C73 1_555 1_555
H85 C80 1_555 1_555
H86 C80 1_555 1_555
H87 C80 1_555 1_555
C81 H88 1_555 1_555
H89 C81 1_555 1_555
H90 C81 1_555 1_555
C82 C8 1_555 1_555
C83 C40 1_555 1_555
H91 C83 1_555 1_555
H92 C83 1_555 1_555
H93 C83 1_555 1_555
C84 H94 1_555 1_555
C85 C19 1_555 1_555
H95 C85 1_555 1_555
H96 C85 1_555 1_555
H97 C85 1_555 1_555
C86 C71 1_555 1_555
H98 C86 1_555 1_555
H99 C86 1_555 1_555
H100 C86 1_555 1_555
C87 C50 1_555 1_555
H101 C87 1_555 1_555
H102 C87 1_555 1_555
H103 C87 1_555 1_555
C88 C24 1_555 1_555
H104 C88 1_555 1_555
H105 C88 1_555 1_555
H106 C88 1_555 1_555
C89 C29 1_555 1_555
H107 C89 1_555 1_555
H108 C89 1_555 1_555
H109 C89 1_555 1_555
C90 C35 1_555 1_555
H110 C90 1_555 1_555
C91 C30 1_555 1_555
H111 C91 1_555 1_555
H112 C91 1_555 1_555
H113 C91 1_555 1_555
C92 C63 1_555 1_555
H114 C92 1_555 1_555
H115 C92 1_555 1_555
H116 C92 1_555 1_555
C93 C26 1_555 1_555
H117 C93 1_555 1_555
H118 C93 1_555 1_555
H119 C93 1_555 1_555
C94 C36 1_555 1_555
H120 C94 1_555 1_555
H121 C94 1_555 1_555
H122 C94 1_555 1_555
C95 C67 1_555 1_555
H123 C95 1_555 1_555
H124 C95 1_555 1_555
H125 C95 1_555 1_555
C96 C17 1_555 1_555
H126 C96 1_555 1_555
C97 C51 1_555 1_555
H127 C97 1_555 1_555
H128 C97 1_555 1_555
H129 C97 1_555 1_555
Cl1 C15 1_555 1_555
Cl2 C15 1_555 1_555
Cl3 C98 1_555 1_555
Cl4 C13 1_555 1_555
Cl5 C98 1_555 1_555
Cl6 C98 1_555 1_555
Cl7 C15 1_555 1_555
Cl8 C13 1_555 1_555
Cl9 C13 1_555 1_555
Co1 N18 1_555 1_555
Co2 N7 1_555 1_555
Co3 N14 1_555 1_555
Co4 N1 1_555 1_555
Co5 N10 1_555 1_555
Co6 N5 1_555 1_555
Co7 N2 1_555 1_555
Co8 N15 1_555 1_555
Co9 N4 1_555 1_555
N1 C29 1_555 1_555
N2 C40 1_555 1_555
N3 C42 1_555 1_555
N4 C65 1_555 1_555
N5 C67 1_555 1_555
N6 C43 1_555 1_555
N7 C19 1_555 1_555
N8 C82 1_555 1_555
N9 C35 1_555 1_555
H130 N9 1_555 1_555
N10 C66 1_555 1_555
N11 C30 1_555 1_555
H131 N11 1_555 1_555
N12 C50 1_555 1_555
N13 C26 1_555 1_555
H132 N13 1_555 1_555
N14 C45 1_555 1_555
N15 C36 1_555 1_555
N16 C20 1_555 1_555
H133 N16 1_555 1_555
N17 C51 1_555 1_555
N18 C71 1_555 1_555
N19 C49 1_555 1_555
N20 C25 1_555 1_555
N21 C48 1_555 1_555
N22 C23 1_555 1_555
N23 C63 1_555 1_555
N24 C73 1_555 1_555
N25 C24 1_555 1_555
H134 N25 1_555 1_555
N26 C41 1_555 1_555
H135 N26 1_555 1_555
N27 C11 1_555 1_555
N28 C17 1_555 1_555
N29 C72 1_555 1_555
N30 C78 1_555 1_555
N31 C53 1_555 1_555
N32 C21 1_555 1_555
N33 C14 1_555 1_555
N34 C18 1_555 1_555
N35 C22 1_555 1_555
N36 C16 1_555 1_555
O1 Co2 1_555 1_555
O2 P3 1_555 1_555
O3 Co5 1_555 1_555
O4 P2 1_555 1_555
O5 P3 1_555 1_555
O6 P1 1_555 1_555
C99 C42 1_555 1_555
H136 C99 1_555 1_555
H137 C99 1_555 1_555
H138 C99 1_555 1_555
O7 P1 1_555 1_555
O8 P3 1_555 1_555
O9 P2 1_555 1_555
C100 C11 1_555 1_555
H139 C100 1_555 1_555
C101 H140 1_555 1_555
C102 H141 1_555 1_555
C103 C101 1_555 1_555
H142 C103 1_555 1_555
C104 C102 1_555 1_555
C105 C104 1_555 1_555
H143 C105 1_555 1_555
H144 C105 1_555 1_555
H145 C105 1_555 1_555
C106 C102 1_555 1_555
H146 C106 1_555 1_555
C107 C101 1_555 1_555
H147 C107 1_555 1_555
C108 C109 1_555 1_555
C109 H148 1_555 1_555
C110 C108 1_555 1_555
H149 C110 1_555 1_555
H150 C110 1_555 1_555
H151 C110 1_555 1_555
C111 C109 1_555 1_555
H152 C111 1_555 1_555
C112 C111 1_555 1_555
H153 C112 1_555 1_555
C113 C108 1_555 1_555
H154 C113 1_555 1_555
C114 C112 1_555 1_555
H155 C114 1_555 1_555
C115 C116 1_555 1_555
C116 H156 1_555 1_555
C117 C116 1_555 1_555
H157 C117 1_555 1_555
C118 C117 1_555 1_555
H158 C118 1_555 1_555
C119 C118 1_555 1_555
H159 C119 1_555 1_555
C120 C115 1_555 1_555
H160 C120 1_555 1_555
C121 C115 1_555 1_555
H161 C121 1_555 1_555
H162 C121 1_555 1_555
H163 C121 1_555 1_555
C122 H164 1_555 1_555
H165 C122 1_555 1_555
H166 C122 1_555 1_555
C123 C122 1_555 1_555
C124 C123 1_555 1_555
H167 C124 1_555 1_555
C125 C124 1_555 1_555
H168 C125 1_555 1_555
C126 C125 1_555 1_555
H169 C126 1_555 1_555
C127 C126 1_555 1_555
H170 C127 1_555 1_555
C128 C123 1_555 1_555
H171 C128 1_555 1_555
C129 H172 1_555 1_555
H173 C129 1_555 1_555
H174 C129 1_555 1_555
C130 C129 1_555 1_555
C131 C130 1_555 1_555
H175 C131 1_555 1_555
C132 C131 1_555 1_555
H176 C132 1_555 1_555
C133 C132 1_555 1_555
H177 C133 1_555 1_555
C134 C133 1_555 1_555
H178 C134 1_555 1_555
C135 C130 1_555 1_555
H179 C135 1_555 1_555
C4 C5 1_555 1_555
C4 C7 1_555 1_555
C41 C100 1_555 1_555
C44 C49 1_555 1_555
C66 C90 1_555 1_555
C72 C96 1_555 1_555
C75 C82 1_555 1_555
Co1 N19 1_555 1_555
Co1 N21 1_555 1_555
Co1 N24 1_555 1_555
Co2 N12 1_555 1_555
Co2 N31 1_555 1_555
Co3 N32 1_555 1_555
Co3 N34 1_555 1_555
Co3 N36 1_555 1_555
Co4 N33 1_555 1_555
Co4 N35 1_555 1_555
Co4 O5 1_555 1_555
Co5 N17 1_555 1_555
Co5 N23 1_555 1_555
Co6 N20 1_555 1_555
Co6 N22 1_555 1_555
Co6 O4 1_555 1_555
Co7 N3 1_555 1_555
Co7 N6 1_555 1_555
Co7 N28 1_555 1_555
Co8 N29 1_555 1_555
Co8 N30 1_555 1_555
Co8 O2 1_555 1_555
Co9 N8 1_555 1_555
Co9 N27 1_555 1_555
Co9 O6 1_555 1_555
N1 N25 1_555 1_555
N2 N8 1_555 1_555
N3 N30 1_555 1_555
N4 N6 1_555 1_555
N5 N11 1_555 1_555
N7 N14 1_555 1_555
N9 N10 1_555 1_555
N12 N13 1_555 1_555
N15 N16 1_555 1_555
N17 N18 1_555 1_555
N19 N20 1_555 1_555
N21 N22 1_555 1_555
N23 N24 1_555 1_555
N26 N27 1_555 1_555
N28 N29 1_555 1_555
N31 N32 1_555 1_555
N33 N34 1_555 1_555
N35 N36 1_555 1_555
C103 C104 1_555 1_555
C106 C107 1_555 1_555
C113 C114 1_555 1_555
C119 C120 1_555 1_555
C127 C128 1_555 1_555
C134 C135 1_555 1_555

#END
