
#######################################################################
#
#                 Cambridge Crystallographic Data Centre
#                                CCDC 
#
#######################################################################
#
# If this CIF has been generated from an entry in the Cambridge 
# Structural Database, then it will include bibliographic, chemical, 
# crystal, experimental, refinement or atomic coordinate data resulting 
# from the CCDC's data processing and validation procedures.
#
#######################################################################

data_XOWCIV
_chemical_formula_moiety         
'C96 H120 N32 Pd8 16+,2(C14 H8 O4 2-),12(N1 O3 1-),41(H2 O1)'
_chemical_name_systematic        
"tetrakis(\m~4~-3,3':5',3'':5'',3'''-Quaterpyridine)-octakis(ethylenediamine)-octa-palladium biphenyl-4,4'-dicarboxylate clathrate biphenyl-4,4'-dicarboxylate dodecanitrate hydrate"
_symmetry_cell_setting           triclinic
_symmetry_space_group_name_H-M   'P -1'
_symmetry_Int_Tables_number      2
_space_group_name_Hall           '-P 1'
loop_
_symmetry_equiv_pos_site_id
_symmetry_equiv_pos_as_xyz
1 x,y,z
2 -x,-y,-z
_cell_length_a                   17.549(2)
_cell_length_b                   20.344(3)
_cell_length_c                   29.840(4)
_cell_angle_alpha                107.271(3)
_cell_angle_beta                 91.243(3)
_cell_angle_gamma                114.438(3)
_cell_volume                     9132.76
_exptl_crystal_colour            white
_exptl_crystal_description       needle
_cell_formula_units_Z            2
loop_
_atom_site_label
_atom_site_type_symbol
_atom_site_fract_x
_atom_site_fract_y
_atom_site_fract_z
Pd1 Pd -0.04446(7) -0.05449(6) -0.25653(4)
Pd2 Pd -0.26436(7) 0.12389(6) 0.01974(4)
Pd7 Pd 0.28289(8) 0.31721(6) -0.07086(4)
Pd8 Pd 0.09813(12) 0.50692(7) 0.20484(5)
N1 N -0.1245(8) -0.0649(7) -0.2087(4)
C1 C -0.1981(9) -0.1282(8) -0.2177(5)
H1 H -0.2141 -0.1666 -0.2482
C2 C -0.2521(10) -0.1403(9) -0.1845(5)
H2 H -0.3019 -0.1870 -0.1908
C3 C -0.2290(10) -0.0795(8) -0.1411(5)
H3 H -0.2662 -0.0836 -0.1184
C4 C -0.1560(9) -0.0163(8) -0.1312(5)
C5 C -0.1063(9) -0.0093(8) -0.1656(5)
H4 H -0.0559 0.0371 -0.1591
N2 N -0.1719(7) 0.1134(7) -0.0179(4)
C6 C -0.1886(10) 0.0573(8) -0.0574(5)
H5 H -0.2457 0.0195 -0.0687
C7 C -0.1288(10) 0.0506(8) -0.0829(5)
C8 C -0.0447(9) 0.1017(8) -0.0672(5)
H6 H -0.0024 0.0966 -0.0853
C9 C -0.0227(10) 0.1619(8) -0.0235(5)
C10 C -0.0898(10) 0.1674(8) -0.0007(5)
H7 H -0.0781 0.2096 0.0274
N3 N 0.2038(8) 0.2929(7) -0.0229(4)
C11 C 0.1233(10) 0.2378(8) -0.0366(5)
H8 H 0.1048 0.2070 -0.0693
C12 C 0.0656(10) 0.2237(8) -0.0049(5)
C13 C 0.0923(10) 0.2727(9) 0.0422(5)
H9 H 0.0542 0.2657 0.0644
C14 C 0.1748(11) 0.3323(9) 0.0571(6)
C15 C 0.2271(11) 0.3391(9) 0.0229(6)
H10 H 0.2832 0.3792 0.0324
N4 N 0.1772(11) 0.4663(8) 0.1732(6)
C16 C 0.1506(13) 0.4135(9) 0.1296(6)
H11 H 0.0938 0.3939 0.1143
C17 C 0.2069(11) 0.3866(10) 0.1062(7)
C18 C 0.2866(12) 0.4154(11) 0.1283(7)
H12 H 0.3251 0.3984 0.1128
C19 C 0.3131(14) 0.4680(12) 0.1721(7)
H13 H 0.3692 0.4864 0.1880
C20 C 0.2591(14) 0.4952(11) 0.1939(7)
H14 H 0.2793 0.5349 0.2239
N13 N 0.0754(9) 0.4421(8) 0.2466(4)
C61 C 0.0469(10) 0.3655(8) 0.2287(5)
H43 H 0.0352 0.3423 0.1950
C62 C 0.0338(10) 0.3189(8) 0.2550(5)
C63 C 0.0538(10) 0.3524(9) 0.3052(5)
H44 H 0.0472 0.3224 0.3252
C64 C 0.0836(12) 0.4313(10) 0.3236(6)
H45 H 0.0977 0.4561 0.3571
C65 C 0.0934(11) 0.4745(9) 0.2947(6)
H46 H 0.1132 0.5283 0.3087
N14 N -0.0008(7) -0.1161(6) -0.2312(4)
C66 C -0.0256(9) -0.1906(8) -0.2497(5)
H47 H -0.0657 -0.2164 -0.2783
C67 C 0.0011(8) 0.2341(8) 0.2330(5)
C68 C -0.0642(9) 0.1942(8) 0.1921(5)
H48 H -0.0855 0.2219 0.1792
C69 C -0.0961(9) 0.1167(8) 0.1714(5)
C70 C 0.0608(8) -0.0802(8) -0.1921(4)
H49 H 0.0813 -0.0263 -0.1777
N15 N -0.2428(8) 0.0701(6) 0.0626(4)
C71 C -0.1789(9) 0.1079(8) 0.1006(5)
H50 H -0.1429 0.1607 0.1070
C72 C -0.1649(9) 0.0718(8) 0.1304(5)
C73 C -0.2152(8) -0.0063(8) 0.1199(4)
H51 H -0.2068 -0.0319 0.1401
C74 C -0.2789(9) -0.0475(8) 0.0788(4)
C75 C -0.2892(9) -0.0062(8) 0.0526(5)
H52 H -0.3322 -0.0331 0.0253
N16 N 0.3363(8) 0.2533(7) -0.0584(4)
C76 C 0.2970(9) 0.1765(8) -0.0729(5)
H53 H 0.2406 0.1519 -0.0898
C77 C -0.3316(9) -0.1305(8) 0.0654(4)
C78 C -0.4142(10) -0.1675(8) 0.0402(5)
H54 H -0.4410 -0.1382 0.0342
C79 C -0.4557(11) -0.2438(9) 0.0245(5)
H55 H -0.5110 -0.2686 0.0062
C80 C 0.4194(10) 0.2864(9) -0.0345(5)
H56 H 0.4516 0.3405 -0.0249
N17 N -0.0885(9) 0.0038(9) -0.2844(5)
H73 H -0.1390 -0.0295 -0.3047
H74 H -0.0984 0.0385 -0.2605
N18 N 0.0332(8) -0.0426(8) -0.3069(4)
H75 H 0.0881 -0.0089 -0.2923
H76 H 0.0321 -0.0892 -0.3231
C109 C -0.0263(16) 0.0445(13) -0.3108(8)
H77 H 0.0220 0.0900 -0.2884
H78 H -0.0531 0.0615 -0.3317
C110 C 0.0047(15) -0.0136(13) -0.3409(7)
H79 H -0.0420 -0.0563 -0.3659
H80 H 0.0522 0.0120 -0.3564
N19 N -0.3551(8) 0.1413(8) 0.0551(4)
H81 H -0.3940 0.0958 0.0576
H82 H -0.3309 0.1757 0.0853
N20 N -0.2966(8) 0.1711(7) -0.0228(4)
H83 H -0.2492 0.2016 -0.0323
H84 H -0.3339 0.1336 -0.0494
C111 C -0.3985(12) 0.1713(11) 0.0291(6)
H85 H -0.4464 0.1283 0.0051
H86 H -0.4213 0.2024 0.0516
C112 C -0.3378(12) 0.2185(10) 0.0057(6)
H87 H -0.2944 0.2658 0.0297
H88 H -0.3671 0.2331 -0.0155
N29 N 0.2366(15) 0.3893(12) -0.0834(9)
H121 H 0.1841 0.3612 -0.1024
H122 H 0.2314 0.4200 -0.0552
N30 N 0.3522(10) 0.3424(7) -0.1219(5)
H123 H 0.4077 0.3761 -0.1085
H124 H 0.3512 0.2986 -0.1431
C121 C 0.296(2) 0.4356(15) -0.1069(12)
H125 H 0.3492 0.4729 -0.0847
H126 H 0.2714 0.4639 -0.1194
C122 C 0.312(2) 0.3787(15) -0.1476(9)
H127 H 0.3511 0.4054 -0.1666
H128 H 0.2581 0.3394 -0.1688
N31 N 0.0180(10) 0.5517(8) 0.2310(5)
H129 H -0.0329 0.5134 0.2320
H130 H 0.0410 0.5860 0.2614
N32 N 0.127(2) 0.5775(11) 0.1658(8)
H131 H 0.1843 0.6049 0.1688
H132 H 0.1043 0.5501 0.1342
C123 C 0.006(2) 0.5892(15) 0.2007(8)
H133 H -0.0179 0.6248 0.2172
H134 H -0.0360 0.5509 0.1719
C124 C 0.085(3) 0.6317(18) 0.1867(13)
H135 H 0.1240 0.6751 0.2147
H136 H 0.0746 0.6528 0.1626
C77A C 0.3316(9) 0.1305(8) -0.0654(4)
C74A C 0.2789(9) 0.0475(8) -0.0788(4)
C73A C 0.2152(8) 0.0063(8) -0.1199(4)
C72A C 0.1649(9) -0.0718(8) -0.1304(5)
C69A C 0.0961(9) -0.1167(8) -0.1714(5)
C68A C 0.0642(9) -0.1942(8) -0.1921(5)
C67A C -0.0011(8) -0.2341(8) -0.2330(5)
C62A C -0.0338(10) -0.3189(8) -0.2550(5)
C61A C -0.0469(10) -0.3655(8) -0.2287(5)
N13A N -0.0754(9) -0.4421(8) -0.2466(4)
Pd8A Pd -0.09813(12) -0.50692(7) -0.20484(5)
N4A N -0.1772(11) -0.4663(8) -0.1732(6)
C16A C -0.1506(13) -0.4135(9) -0.1296(6)
H11A H -0.0938 -0.3939 -0.1143
C17A C -0.2069(11) -0.3866(10) -0.1062(7)
C14A C -0.1748(11) -0.3323(9) -0.0571(6)
C13A C -0.0923(10) -0.2727(9) -0.0422(5)
C12A C -0.0656(10) -0.2237(8) 0.0049(5)
C9A C 0.0227(10) -0.1619(8) 0.0235(5)
C8A C 0.0447(9) -0.1017(8) 0.0672(5)
C7A C 0.1288(10) -0.0506(8) 0.0829(5)
C4A C 0.1560(9) 0.0163(8) 0.1312(5)
C3A C 0.2290(10) 0.0795(8) 0.1411(5)
C2A C 0.2521(10) 0.1403(9) 0.1845(5)
C1A C 0.1981(9) 0.1282(8) 0.2177(5)
N1A N 0.1245(8) 0.0649(7) 0.2087(4)
Pd1A Pd 0.04446(7) 0.05449(6) 0.25653(4)
N14A N 0.0008(7) 0.1161(6) 0.2312(4)
C66A C 0.0256(9) 0.1906(8) 0.2497(5)
H47A H 0.0657 0.2164 0.2783
C70A C -0.0608(8) 0.0802(8) 0.1921(4)
H49A H -0.0813 0.0263 0.1777
N17A N 0.0885(9) -0.0038(9) 0.2844(5)
H73A H 0.1390 0.0295 0.3047
H74A H 0.0984 -0.0385 0.2605
C109A C 0.0263(16) -0.0445(13) 0.3108(8)
H77A H -0.0220 -0.0900 0.2884
H78A H 0.0531 -0.0615 0.3317
C110A C -0.0047(15) 0.0136(13) 0.3409(7)
N18A N -0.0332(8) 0.0426(8) 0.3069(4)
H75A H -0.0881 0.0089 0.2923
H76A H -0.0321 0.0892 0.3231
H79A H 0.0420 0.0563 0.3659
H80A H -0.0522 -0.0120 0.3564
C5A C 0.1063(9) 0.0093(8) 0.1656(5)
H4A H 0.0559 -0.0371 0.1591
H1A H 0.2141 0.1666 0.2482
H2A H 0.3019 0.1870 0.1908
H3A H 0.2662 0.0836 0.1184
C6A C 0.1886(10) -0.0573(8) 0.0574(5)
N2A N 0.1719(7) -0.1134(7) 0.0179(4)
Pd2A Pd 0.26436(7) -0.12389(6) -0.01974(4)
N15A N 0.2428(8) -0.0701(6) -0.0626(4)
C71A C 0.1789(9) -0.1079(8) -0.1006(5)
H50A H 0.1429 -0.1607 -0.1070
C75A C 0.2892(9) 0.0062(8) -0.0526(5)
H52A H 0.3322 0.0331 -0.0253
N19A N 0.3551(8) -0.1413(8) -0.0551(4)
H81A H 0.3940 -0.0958 -0.0576
H82A H 0.3309 -0.1757 -0.0853
C111A C 0.3985(12) -0.1713(11) -0.0291(6)
H85A H 0.4464 -0.1283 -0.0051
H86A H 0.4213 -0.2024 -0.0516
C112A C 0.3378(12) -0.2185(10) -0.0057(6)
N20A N 0.2966(8) -0.1711(7) 0.0228(4)
H83A H 0.2492 -0.2016 0.0323
H84A H 0.3339 -0.1336 0.0494
H87A H 0.2944 -0.2658 -0.0297
H88A H 0.3671 -0.2331 0.0155
C10A C 0.0898(10) -0.1674(8) 0.0007(5)
H7A H 0.0781 -0.2096 -0.0274
H5A H 0.2457 -0.0195 0.0687
H6A H 0.0024 -0.0966 0.0853
C11A C -0.1233(10) -0.2378(8) 0.0366(5)
N3A N -0.2038(8) -0.2929(7) 0.0229(4)
Pd7A Pd -0.28289(8) -0.31721(6) 0.07086(4)
N16A N -0.3363(8) -0.2533(7) 0.0584(4)
C76A C -0.2970(9) -0.1765(8) 0.0729(5)
H53A H -0.2406 -0.1519 0.0898
C80A C -0.4194(10) -0.2864(9) 0.0345(5)
H56A H -0.4516 -0.3405 0.0249
N29A N -0.2366(15) -0.3893(12) 0.0834(9)
H121A H -0.1841 -0.3612 0.1024
H122A H -0.2314 -0.4200 0.0552
C121A C -0.296(2) -0.4356(15) 0.1069(12)
H125A H -0.3492 -0.4729 0.0847
H126A H -0.2714 -0.4639 0.1194
C122A C -0.312(2) -0.3787(15) 0.1476(9)
N30A N -0.3522(10) -0.3424(7) 0.1219(5)
H123A H -0.4077 -0.3761 0.1085
H124A H -0.3512 -0.2986 0.1431
H127A H -0.3511 -0.4054 0.1666
H128A H -0.2581 -0.3394 0.1688
C15A C -0.2271(11) -0.3391(9) -0.0229(6)
H10A H -0.2832 -0.3792 -0.0324
H8A H -0.1048 -0.2070 0.0693
H9A H -0.0542 -0.2657 -0.0644
C18A C -0.2866(12) -0.4154(11) -0.1283(7)
H12A H -0.3251 -0.3984 -0.1128
C19A C -0.3131(14) -0.4680(12) -0.1721(7)
H13A H -0.3692 -0.4864 -0.1880
C20A C -0.2591(14) -0.4952(11) -0.1939(7)
H14A H -0.2793 -0.5349 -0.2239
N31A N -0.0180(10) -0.5517(8) -0.2310(5)
H129A H 0.0329 -0.5134 -0.2320
H130A H -0.0410 -0.5860 -0.2614
C123A C -0.006(2) -0.5892(15) -0.2007(8)
H133A H 0.0179 -0.6248 -0.2172
H134A H 0.0360 -0.5509 -0.1719
C124A C -0.085(3) -0.6317(18) -0.1867(13)
N32A N -0.127(2) -0.5775(11) -0.1658(8)
H131A H -0.1843 -0.6049 -0.1688
H132A H -0.1043 -0.5501 -0.1342
H135A H -0.1240 -0.6751 -0.2147
H136A H -0.0746 -0.6528 -0.1626
C65A C -0.0934(11) -0.4745(9) -0.2947(6)
C64A C -0.0836(12) -0.4313(10) -0.3236(6)
C63A C -0.0538(10) -0.3524(9) -0.3052(5)
H44A H -0.0472 -0.3224 -0.3252
H45A H -0.0977 -0.4561 -0.3571
H46A H -0.1132 -0.5283 -0.3087
H43A H -0.0352 -0.3423 -0.1950
H48A H 0.0855 -0.2219 -0.1792
H51A H 0.2068 0.0319 -0.1401
C78A C 0.4142(10) 0.1675(8) -0.0402(5)
H54A H 0.4410 0.1382 -0.0342
C79A C 0.4557(11) 0.2438(9) -0.0245(5)
H55A H 0.5110 0.2686 -0.0062
Pd3 Pd 0.45601(7) 0.92800(6) 0.23943(4)
Pd4 Pd 0.68407(7) 0.74586(6) 0.36643(4)
Pd5 Pd 0.16620(7) 0.73541(6) 0.46976(4)
Pd6 Pd 0.36321(8) 0.55639(6) 0.57879(4)
N5 N 0.4790(8) 0.6262(6) 0.5708(4)
C21 C 0.4853(9) 0.6580(7) 0.5378(4)
H15 H 0.4340 0.6491 0.5204
C22 C 0.5607(9) 0.7035(8) 0.5261(5)
C23 C 0.6377(9) 0.7140(7) 0.5512(4)
H16 H 0.6915 0.7413 0.5436
C24 C 0.6301(10) 0.6825(8) 0.5868(5)
H17 H 0.6802 0.6915 0.6055
C25 C 0.5523(11) 0.6383(9) 0.5963(5)
H18 H 0.5496 0.6163 0.6206
N6 N 0.6063(7) 0.7541(7) 0.4151(4)
C26 C 0.6148(9) 0.7354(8) 0.4544(5)
H19 H 0.6606 0.7238 0.4598
C27 C 0.5591(9) 0.7326(8) 0.4871(5)
C28 C 0.4940(8) 0.7518(7) 0.4775(4)
H20 H 0.4563 0.7527 0.4998
C29 C 0.4813(9) 0.7696(8) 0.4375(5)
C30 C 0.5411(10) 0.7723(8) 0.4076(5)
H21 H 0.5368 0.7872 0.3807
N7 N 0.2731(7) 0.7761(6) 0.4422(4)
C31 C 0.3398(9) 0.7620(8) 0.4490(4)
H22 H 0.3375 0.7317 0.4682
C32 C 0.4125(9) 0.7901(8) 0.4290(4)
C33 C 0.4113(8) 0.8293(7) 0.3991(4)
H23 H 0.4590 0.8474 0.3839
C34 C 0.3437(9) 0.8435(8) 0.3904(5)
C35 C 0.2757(9) 0.8153(8) 0.4136(5)
H24 H 0.2282 0.8249 0.4085
N8 N 0.3837(7) 0.9269(6) 0.2917(4)
C36 C 0.3883(9) 0.8915(7) 0.3215(5)
H25 H 0.4262 0.8685 0.3179
C37 C 0.3400(9) 0.8863(7) 0.3579(5)
C38 C 0.2836(10) 0.9186(9) 0.3601(5)
H26 H 0.2479 0.9153 0.3837
C39 C 0.2780(10) 0.9556(8) 0.3290(5)
H27 H 0.2388 0.9771 0.3306
C40 C 0.3307(10) 0.9603(8) 0.2956(5)
H28 H 0.3299 0.9876 0.2749
N9 N 0.7718(7) 0.8564(7) 0.4002(4)
C41 C 0.7531(9) 0.9136(7) 0.4013(4)
H29 H 0.6991 0.9028 0.3860
C42 C 0.8128(9) 0.9907(8) 0.4248(4)
C43 C 0.8912(10) 1.0070(9) 0.4456(5)
H30 H 0.9316 1.0584 0.4618
C44 C 0.9104(11) 0.9462(9) 0.4426(5)
H31 H 0.9657 0.9567 0.4558
C45 C 0.8513(10) 0.8710(9) 0.4210(5)
H32 H 0.8647 0.8300 0.4203
N10 N 0.2128(7) 0.8307(6) 0.5299(4)
C46 C 0.1884(9) 0.8866(8) 0.5329(5)
H33 H 0.1546 0.8833 0.5062
C47 C 0.7875(8) 1.0505(7) 0.4252(4)
C48 C 0.7368(9) 1.0481(8) 0.3872(5)
H34 H 0.7198 1.0065 0.3581
C49 C 0.7110(8) 1.1048(7) 0.3910(4)
C50 C 0.2628(8) 0.8354(8) 0.5662(5)
H35 H 0.2810 0.7964 0.5625
N11 N 0.5489(8) 1.0318(7) 0.2825(4)
C51 C 0.5993(9) 1.0332(8) 0.3183(4)
H36 H 0.5959 0.9866 0.3207
C52 C 0.6578(9) 1.1053(8) 0.3528(4)
C53 C 0.6583(9) 1.1701(8) 0.3481(5)
H37 H 0.6964 1.2182 0.3705
C54 C 0.6077(9) 1.1689(7) 0.3135(4)
C55 C 0.5514(9) 1.0986(8) 0.2799(4)
H38 H 0.5150 1.0974 0.2553
N12 N 0.3749(7) 0.6324(6) 0.6436(4)
C56 C 0.3851(9) 0.7033(8) 0.6475(5)
H39 H 0.3869 0.7162 0.6193
C57 C 0.6071(9) 1.2427(8) 0.3110(5)
C58 C 0.6030(9) 1.2570(8) 0.2683(5)
H40 H 0.5942 1.2192 0.2384
C59 C 0.6123(11) 1.3295(9) 0.2723(5)
H41 H 0.6129 1.3431 0.2444
C60 C 0.3794(10) 0.6192(9) 0.6855(5)
H42 H 0.3764 0.5711 0.6847
N21 N 0.3628(8) 0.8238(7) 0.1957(4)
H89 H 0.3587 0.7854 0.2073
H90 H 0.3111 0.8252 0.1944
N22 N 0.5245(8) 0.9171(7) 0.1845(4)
H91 H 0.5237 0.9475 0.1672
H92 H 0.5801 0.9317 0.1963
C113 C 0.3870(11) 0.8091(10) 0.1474(5)
H93 H 0.3716 0.8379 0.1303
H94 H 0.3570 0.7538 0.1286
C114 C 0.4837(12) 0.8359(9) 0.1544(5)
H95 H 0.4986 0.8050 0.1700
H96 H 0.5034 0.8295 0.1233
N23 N 0.6016(9) 0.6355(7) 0.3304(5)
H97 H 0.5796 0.6101 0.3514
H98 H 0.5575 0.6336 0.3120
N24 N 0.7561(9) 0.7307(7) 0.3156(5)
H99 H 0.7729 0.7702 0.3035
H100 H 0.8039 0.7301 0.3285
C115 C 0.6491(13) 0.5980(10) 0.2991(7)
H101 H 0.6089 0.5500 0.2742
H102 H 0.6848 0.5857 0.3183
C116 C 0.7037(14) 0.6558(12) 0.2770(7)
H103 H 0.7412 0.6370 0.2587
H104 H 0.6671 0.6629 0.2549
N25 N 0.0545(8) 0.6917(8) 0.4907(5)
H105 H 0.0233 0.7165 0.4857
H106 H 0.0630 0.6996 0.5227
N26 N 0.1145(9) 0.6384(7) 0.4121(5)
H107 H 0.1405 0.6074 0.4125
H108 H 0.1209 0.6501 0.3846
C117 C 0.0064(14) 0.6082(14) 0.4641(10)
H109 H -0.0549 0.5908 0.4654
H110 H 0.0270 0.5786 0.4778
C118 C 0.0218(15) 0.5983(11) 0.4150(9)
H111 H -0.0001 0.5429 0.3969
H112 H -0.0100 0.6188 0.3998
N27 N 0.3481(9) 0.4795(7) 0.5133(5)
H113 H 0.3630 0.5045 0.4915
H114 H 0.3829 0.4561 0.5143
N28 N 0.2431(8) 0.4816(7) 0.5781(4)
H115 H 0.2375 0.4765 0.6076
H116 H 0.2057 0.4995 0.5709
C119 C 0.2581(12) 0.4209(9) 0.4989(6)
H117 H 0.2244 0.4398 0.4837
H118 H 0.2545 0.3732 0.4755
C120 C 0.2235(11) 0.4052(9) 0.5414(6)
H119 H 0.2503 0.3782 0.5536
H120 H 0.1614 0.3726 0.5333
C57A C 0.3929(9) 0.7573(8) 0.6890(5)
C54A C 0.3923(9) 0.8311(7) 0.6865(4)
C53A C 0.3417(9) 0.8299(8) 0.6519(5)
C52A C 0.3422(9) 0.8947(8) 0.6472(4)
C49A C 0.2890(8) 0.8952(7) 0.6090(4)
C48A C 0.2632(9) 0.9519(8) 0.6128(5)
C47A C 0.2125(8) 0.9495(7) 0.5748(4)
C42A C 0.1872(9) 1.0093(8) 0.5752(4)
C41A C 0.2469(9) 1.0864(7) 0.5987(4)
N9A N 0.2282(7) 1.1436(7) 0.5998(4)
Pd4A Pd 0.31593(7) 1.25414(6) 0.63357(4)
N6A N 0.3937(7) 1.2459(7) 0.5849(4)
C26A C 0.3852(9) 1.2646(8) 0.5456(5)
H19A H 0.3394 1.2762 0.5402
C27A C 0.4409(9) 1.2674(8) 0.5129(5)
C22A C 0.4393(9) 1.2965(8) 0.4739(5)
C21A C 0.5147(9) 1.3420(7) 0.4622(4)
N5A N 0.5210(8) 1.3738(6) 0.4292(4)
Pd6A Pd 0.63679(8) 1.44361(6) 0.42121(4)
N12A N 0.6251(7) 1.3676(6) 0.3564(4)
C56A C 0.6149(9) 1.2967(8) 0.3525(5)
H39A H 0.6131 1.2838 0.3807
C46A C 0.8116(9) 1.1134(8) 0.4671(5)
N10A N 0.7872(7) 1.1693(6) 0.4701(4)
Pd5A Pd 0.83380(7) 1.26459(6) 0.53024(4)
N7A N 0.7269(7) 1.2239(6) 0.5578(4)
C31A C 0.6602(9) 1.2380(8) 0.5510(4)
H22A H 0.6625 1.2683 0.5318
C32A C 0.5875(9) 1.2099(8) 0.5710(4)
C29A C 0.5187(9) 1.2304(8) 0.5625(5)
C28A C 0.5060(8) 1.2482(7) 0.5225(4)
H20A H 0.5437 1.2473 0.5002
C30A C 0.4589(10) 1.2277(8) 0.5924(5)
H21A H 0.4632 1.2128 0.6193
C33A C 0.5887(8) 1.1707(7) 0.6009(4)
H23A H 0.5410 1.1526 0.6161
C34A C 0.6563(9) 1.1565(8) 0.6096(5)
C35A C 0.7243(9) 1.1847(8) 0.5864(5)
H24A H 0.7718 1.1751 0.5915
C37A C 0.6600(9) 1.1137(7) 0.6421(5)
C36A C 0.6117(9) 1.1085(7) 0.6785(5)
N8A N 0.6163(7) 1.0731(6) 0.7083(4)
Pd3A Pd 0.54399(7) 1.07200(6) 0.76057(4)
N11A N 0.4511(8) 0.9682(7) 0.7175(4)
C51A C 0.4007(9) 0.9668(8) 0.6817(4)
H36A H 0.4041 1.0134 0.6793
C55A C 0.4486(9) 0.9014(8) 0.7201(4)
H38A H 0.4850 0.9026 0.7447
N21A N 0.6372(8) 1.1762(7) 0.8043(4)
H89A H 0.6413 1.2146 0.7927
H90A H 0.6889 1.1748 0.8056
C113A C 0.6130(11) 1.1909(10) 0.8526(5)
H93A H 0.6284 1.1621 0.8697
H94A H 0.6430 1.2462 0.8714
C114A C 0.5163(12) 1.1641(9) 0.8456(5)
N22A N 0.4755(8) 1.0829(7) 0.8155(4)
H91A H 0.4763 1.0525 0.8328
H92A H 0.4199 1.0683 0.8037
H95A H 0.5014 1.1950 0.8300
H96A H 0.4966 1.1705 0.8767
C40A C 0.6693(10) 1.0397(8) 0.7044(5)
C39A C 0.7220(10) 1.0444(8) 0.6710(5)
C38A C 0.7164(10) 1.0814(9) 0.6399(5)
H26A H 0.7521 1.0847 0.6163
H27A H 0.7612 1.0229 0.6694
H28A H 0.6701 1.0124 0.7251
H25A H 0.5738 1.1315 0.6821
N25A N 0.9455(8) 1.3083(8) 0.5093(5)
H105A H 0.9767 1.2835 0.5143
H106A H 0.9370 1.3004 0.4773
C117A C 0.9936(14) 1.3918(14) 0.5359(10)
H109A H 1.0549 1.4092 0.5346
H110A H 0.9730 1.4214 0.5222
C118A C 0.9782(15) 1.4017(11) 0.5850(9)
N26A N 0.8855(9) 1.3616(7) 0.5879(5)
H107A H 0.8595 1.3926 0.5875
H108A H 0.8791 1.3499 0.6154
H111A H 1.0001 1.4571 0.6031
H112A H 1.0100 1.3812 0.6002
C50A C 0.7372(8) 1.1646(8) 0.4338(5)
H35A H 0.7190 1.2036 0.4375
H33A H 0.8454 1.1167 0.4938
C60A C 0.6206(10) 1.3808(9) 0.3145(5)
H42A H 0.6236 1.4289 0.3153
N27A N 0.6519(9) 1.5205(7) 0.4867(5)
H113A H 0.6370 1.4955 0.5085
H114A H 0.6171 1.5439 0.4857
C119A C 0.7419(12) 1.5791(9) 0.5011(6)
H117A H 0.7756 1.5602 0.5163
H118A H 0.7455 1.6268 0.5245
C120A C 0.7765(11) 1.5948(9) 0.4586(6)
N28A N 0.7569(8) 1.5184(7) 0.4219(4)
H115A H 0.7625 1.5235 0.3924
H116A H 0.7943 1.5005 0.4291
H119A H 0.7497 1.6218 0.4464
H120A H 0.8386 1.6274 0.4667
C25A C 0.4477(11) 1.3617(9) 0.4037(5)
C24A C 0.3699(10) 1.3175(8) 0.4132(5)
C23A C 0.3623(9) 1.2860(7) 0.4488(4)
H16A H 0.3085 1.2587 0.4564
H17A H 0.3198 1.3085 0.3945
H18A H 0.4504 1.3837 0.3794
H15A H 0.5660 1.3509 0.4796
N23A N 0.3984(9) 1.3645(7) 0.6696(5)
H97A H 0.4204 1.3899 0.6486
H98A H 0.4425 1.3664 0.6880
C115A C 0.3509(13) 1.4020(10) 0.7009(7)
H101A H 0.3911 1.4500 0.7258
H102A H 0.3152 1.4143 0.6817
C116A C 0.2963(14) 1.3442(12) 0.7230(7)
N24A N 0.2439(9) 1.2693(7) 0.6844(5)
H99A H 0.2271 1.2298 0.6965
H100A H 0.1961 1.2699 0.6715
H103A H 0.2588 1.3630 0.7413
H104A H 0.3329 1.3371 0.7451
C45A C 0.1487(10) 1.1290(9) 0.5790(5)
C44A C 0.0896(11) 1.0538(9) 0.5574(5)
C43A C 0.1088(10) 0.9930(9) 0.5544(5)
H30A H 0.0684 0.9416 0.5382
H31A H 0.0343 1.0433 0.5442
H32A H 0.1353 1.1700 0.5797
H29A H 0.3009 1.0972 0.6140
H34A H 0.2802 0.9935 0.6419
H37A H 0.3036 0.7818 0.6295
C58A C 0.3970(9) 0.7430(8) 0.7317(5)
H40A H 0.4058 0.7808 0.7616
C59A C 0.3877(11) 0.6705(9) 0.7277(5)
H41A H 0.3871 0.6569 0.7556
O1 O 0.4381(7) 0.1511(7) 0.3774(4)
O2 O 0.3192(7) 0.1177(6) 0.4090(4)
C81 C 0.4225(9) 0.0877(8) 0.4342(5)
C82 C 0.3797(10) 0.0596(9) 0.4673(5)
H57 H 0.3284 0.0634 0.4731
C83 C 0.4105(10) 0.0258(10) 0.4924(6)
H58 H 0.3790 0.0066 0.5150
C84 C 0.4842(9) 0.0187(8) 0.4862(5)
C85 C 0.5236(11) 0.0455(12) 0.4521(6)
H59 H 0.5726 0.0382 0.4449
C86 C 0.4991(11) 0.0815(11) 0.4279(6)
H60 H 0.5330 0.1025 0.4067
C87 C 0.3907(11) 0.1230(8) 0.4038(5)
C84A C 0.5158(9) -0.0187(8) 0.5138(5)
C83A C 0.5895(10) -0.0258(10) 0.5076(6)
C82A C 0.6203(10) -0.0596(9) 0.5327(5)
C81A C 0.5775(9) -0.0877(8) 0.5658(5)
C86A C 0.5009(11) -0.0815(11) 0.5721(6)
C85A C 0.4764(11) -0.0455(12) 0.5479(6)
H59A H 0.4274 -0.0382 0.5551
H60A H 0.4670 -0.1025 0.5933
C87A C 0.6093(11) -0.1230(8) 0.5962(5)
O1A O 0.5619(7) -0.1511(7) 0.6226(4)
O2A O 0.6808(7) -0.1177(6) 0.5910(4)
H57A H 0.6716 -0.0634 0.5269
H58A H 0.6210 -0.0066 0.4850
O3 O 0.2214(8) 0.0314(6) 0.7252(4)
O4 O 0.3104(7) 0.0708(6) 0.7937(4)
C88 C 0.2367(10) -0.0630(9) 0.7498(5)
C89 C 0.1801(9) -0.1215(9) 0.7110(5)
H61 H 0.1526 -0.1093 0.6891
C90 C 0.1621(9) -0.1962(8) 0.7030(5)
H62 H 0.1234 -0.2350 0.6756
C91 C 0.2015(9) -0.2167(9) 0.7358(5)
C92 C 0.2581(10) -0.1571(9) 0.7749(5)
H63 H 0.2850 -0.1686 0.7975
C93 C 0.2757(10) -0.0840(9) 0.7815(5)
H64 H 0.3156 -0.0449 0.8084
C94 C 0.2568(10) 0.0180(9) 0.7563(5)
O5 O 0.1441(10) -0.5565(7) 0.7302(4)
O6 O 0.1682(8) -0.5602(6) 0.6558(4)
C95 C 0.1626(10) -0.4485(9) 0.7064(5)
C96 C 0.1731(10) -0.4014(9) 0.7530(6)
H65 H 0.1704 -0.4215 0.7783
C97 C 0.1873(10) -0.3273(9) 0.7631(5)
H66 H 0.2010 -0.2955 0.7955
C98 C 0.1825(9) -0.2942(9) 0.7267(5)
C99 C 0.1692(9) -0.3469(9) 0.6784(5)
H67 H 0.1667 -0.3297 0.6523
C100 C 0.1599(9) -0.4217(9) 0.6691(5)
H68 H 0.1518 -0.4540 0.6372
C101 C 0.1575(11) -0.5270(8) 0.6976(5)
O7 O -0.3355(9) -0.2500(9) -0.0681(5)
O8 O -0.2796(10) -0.2635(8) -0.1362(4)
C102 C -0.1867(11) -0.1603(10) -0.0637(6)
C103 C -0.1183(12) -0.1451(11) -0.0865(6)
H69 H -0.1206 -0.1756 -0.1180
C104 C -0.0435(12) -0.0803(10) -0.0596(6)
H70 H 0.0061 -0.0671 -0.0739
C105 C -0.0385(11) -0.0361(10) -0.0149(6)
C106 C -0.1130(12) -0.0570(12) 0.0046(7)
H71 H -0.1131 -0.0281 0.0361
C107 C -0.1832(14) -0.1163(13) -0.0205(7)
H72 H -0.2336 -0.1279 -0.0069
C108 C -0.2756(13) -0.2283(10) -0.0914(7)
C105A C 0.0385(11) 0.0361(10) 0.0149(6)
C104A C 0.0435(12) 0.0803(10) 0.0596(6)
C103A C 0.1183(12) 0.1451(11) 0.0865(6)
C102A C 0.1867(11) 0.1603(10) 0.0637(6)
C107A C 0.1832(14) 0.1163(13) 0.0205(7)
C106A C 0.1130(12) 0.0570(12) -0.0046(7)
H71A H 0.1131 0.0281 -0.0361
H72A H 0.2336 0.1279 0.0069
C108A C 0.2756(13) 0.2283(10) 0.0914(7)
O7A O 0.3355(9) 0.2500(9) 0.0681(5)
O8A O 0.2796(10) 0.2635(8) 0.1362(4)
H69A H 0.1206 0.1756 0.1180
H70A H -0.0061 0.0671 0.0739
N33 N 0.4774(10) 0.4446(8) 0.5844(5)
O9 O 0.5287(9) 0.4361(10) 0.6091(5)
O10 O 0.5020(10) 0.4636(7) 0.5495(4)
O11 O 0.4090(10) 0.4390(12) 0.5971(8)
N34 N -0.0979(9) 0.3213(7) 0.1171(5)
O12 O -0.0683(13) 0.3923(7) 0.1376(6)
O13 O -0.1751(8) 0.2838(9) 0.1089(7)
O14 O -0.0523(7) 0.2879(6) 0.1140(4)
N35 N 0.7840(14) 0.3691(9) 0.4502(7)
O15 O 0.7165(12) 0.3371(11) 0.4651(6)
O16 O 0.8208(11) 0.3302(10) 0.4314(8)
O17 O 0.8273(17) 0.4400(8) 0.4634(9)
N36 N 0.5644(8) 0.8294(7) 0.3004(4)
O18 O 0.6046(8) 0.7907(7) 0.2938(4)
O19 O 0.5214(10) 0.8263(9) 0.2651(4)
O20 O 0.5737(6) 0.8772(6) 0.3398(3)
N37 N 0.4924(9) 0.0141(7) -0.0906(4)
O21 O 0.5426(9) 0.0763(8) -0.0936(5)
O22 O 0.4284(8) -0.0269(8) -0.1225(5)
O23 O 0.5012(11) -0.0038(8) -0.0553(5)
N38 N 0.0235(16) 0.3523(17) -0.0171(9)
O24 O -0.0184(15) 0.3468(15) 0.0162(9)
O25 O 0.0997(14) 0.4033(14) -0.0067(8)
O26 O -0.0058(18) 0.3048(17) -0.0585(9)
N39 N 0.1157(9) 0.1372(7) -0.1647(4)
O27 O 0.0731(16) 0.1056(10) -0.2059(6)
O28 O 0.1763(11) 0.2001(8) -0.1595(6)
O29 O 0.1072(7) 0.1012(6) -0.1368(3)
N40 N 0.7582(17) 0.0870(13) -0.1724(9)
O30 O 0.704(3) 0.053(2) -0.1506(17)
O31 O 0.7785(18) 0.0443(14) -0.2064(9)
O32 O 0.7880(14) 0.1542(12) -0.1721(8)
N41 N 0.2969(15) 0.6543(16) 0.3183(8)
O33 O 0.3708(15) 0.6593(19) 0.3182(10)
O34 O 0.2617(14) 0.6361(14) 0.3523(8)
O35 O 0.2627(14) 0.6733(14) 0.2910(8)
N42 N 0.0007(13) 0.7672(11) 0.6028(6)
O36 O -0.0177(13) 0.7890(11) 0.6436(6)
O37 O -0.0446(17) 0.6954(12) 0.5829(9)
O38 O 0.0717(14) 0.7990(14) 0.5957(9)
N43 N 0.9115(14) 0.1338(12) 0.5857(7)
O39 O 0.962(2) 0.125(2) 0.6125(14)
O40 O 0.9211(19) 0.2010(13) 0.5979(10)
O41 O 0.8531(15) 0.0786(13) 0.5588(8)
N44 N 0.545(2) 0.4807(16) -0.0526(10)
O42 O 0.515(2) 0.4931(17) -0.0865(10)
O43 O 0.5894(18) 0.5411(15) -0.0196(9)
O44 O 0.563(2) 0.4246(17) -0.0652(11)
O45 O 0.1954(9) 0.1566(8) 0.7298(5)
O46 O 0.2396(7) 0.1267(7) 0.3359(4)
O47 O 0.4841(9) 0.3796(9) 0.0882(5)
O48 O 0.6350(8) 0.7778(6) 0.1937(4)
O49 O 1.0327(11) 0.2231(9) 0.5274(8)
O50 O 0.3869(8) 0.1722(8) 0.2981(4)
O51 O 0.4280(10) 0.3132(10) 0.1936(5)
O52 O 0.6035(10) 0.6977(8) 0.7152(4)
O53 O 0.4504(13) 0.5459(11) 0.8129(6)
O54 O 0.8873(11) 0.3278(8) 0.6771(5)
O55 O 0.6222(10) 0.3618(8) 0.0603(5)
O56 O 0.1262(15) 0.2899(9) 0.6198(6)
O57 O 0.3216(11) 0.6797(9) 0.2098(7)
O58 O 0.1799(14) 0.2898(16) 0.1972(9)
O59 O 0.2845(15) 0.5133(11) 0.8016(6)
O60 O 0.5407(13) 0.3433(11) 0.8287(12)
O61 O 0.084(2) 0.2708(15) 0.8024(10)
O62 O 0.5297(13) -0.1915(14) -0.1505(7)
O63 O 0.6949(19) 0.4480(17) -0.0012(10)
O64 O 0.0493(18) 0.4980(18) 0.0725(9)
O65 O 0.5951(15) -0.0845(17) -0.2021(7)
O66 O -0.1754(12) 0.7712(14) 0.6561(7)
O67 O 0.3617(13) -0.2270(16) -0.1512(5)
O68 O 0.2574(13) 0.3244(12) 0.3032(7)
O69 O 0.2490(18) 0.6150(14) 0.8764(8)
O70 O 0.6158(12) -0.0911(16) -0.0590(6)
O71 O -0.1763(12) 0.2526(11) -0.0765(7)
O72 O 0.8320(17) 0.4659(16) 0.5584(8)
O73 O 0.0870(12) 0.2925(9) 0.7193(8)
O74 O -0.1666(16) 0.9511(15) 0.5621(9)
O75 O 0.004(2) 0.227(2) -0.1312(13)
O76 O -0.101(2) 0.4849(18) 0.0698(12)
O77 O -0.100(2) 0.1575(16) 0.7598(12)
O78 O -0.078(2) 0.213(2) 0.6883(12)
O79 O -0.178(3) 0.395(3) -0.0459(19)
O80 O 0.313(3) 0.449(3) 0.3078(18)
O81 O 0.6597(17) 0.440(2) 0.5618(11)
O82 O 0.990(2) 0.5791(18) 0.5700(12)
O83 O 0.080(2) 0.360(2) -0.1208(15)
O84 O 0.4700(19) 0.6089(17) 0.2601(12)
O85 O -0.1403(15) 0.8067(14) 0.5303(8)
loop_
_geom_bond_atom_site_label_1
_geom_bond_atom_site_label_2
_geom_bond_site_symmetry_1
_geom_bond_site_symmetry_2
Pd1 N1 1_555 1_555
Pd2 N2 1_555 1_555
Pd3 N8 1_555 1_555
Pd4 N6 1_555 1_555
Pd5 N7 1_555 1_555
Pd6 N5 1_555 1_555
Pd7 N3 1_555 1_555
Pd8 N4 1_555 1_555
N1 C1 1_555 1_555
C1 H1 1_555 1_555
C2 C1 1_555 1_555
H2 C2 1_555 1_555
C3 C2 1_555 1_555
H3 C3 1_555 1_555
C4 C3 1_555 1_555
C5 N1 1_555 1_555
H4 C5 1_555 1_555
N2 C6 1_555 1_555
C6 H5 1_555 1_555
C7 C4 1_555 1_555
C8 C7 1_555 1_555
H6 C8 1_555 1_555
C9 C8 1_555 1_555
C10 N2 1_555 1_555
H7 C10 1_555 1_555
N3 C11 1_555 1_555
C11 H8 1_555 1_555
C12 C9 1_555 1_555
C13 C12 1_555 1_555
H9 C13 1_555 1_555
C14 C13 1_555 1_555
C15 N3 1_555 1_555
H10 C15 1_555 1_555
N4 C16 1_555 1_555
C16 H11 1_555 1_555
C17 C14 1_555 1_555
C18 C17 1_555 1_555
H12 C18 1_555 1_555
C19 C18 1_555 1_555
H13 C19 1_555 1_555
C20 N4 1_555 1_555
H14 C20 1_555 1_555
N5 C21 1_555 1_555
C21 H15 1_555 1_555
C22 C21 1_555 1_555
C23 C22 1_555 1_555
H16 C23 1_555 1_555
C24 C23 1_555 1_555
H17 C24 1_555 1_555
C25 N5 1_555 1_555
H18 C25 1_555 1_555
N6 C26 1_555 1_555
C26 H19 1_555 1_555
C27 C22 1_555 1_555
C28 C27 1_555 1_555
H20 C28 1_555 1_555
C29 C28 1_555 1_555
C30 N6 1_555 1_555
H21 C30 1_555 1_555
N7 C31 1_555 1_555
C31 H22 1_555 1_555
C32 C29 1_555 1_555
C33 C32 1_555 1_555
H23 C33 1_555 1_555
C34 C33 1_555 1_555
C35 N7 1_555 1_555
H24 C35 1_555 1_555
N8 C36 1_555 1_555
C36 H25 1_555 1_555
C37 C34 1_555 1_555
C38 C37 1_555 1_555
H26 C38 1_555 1_555
C39 C38 1_555 1_555
H27 C39 1_555 1_555
C40 N8 1_555 1_555
H28 C40 1_555 1_555
N9 Pd4 1_555 1_555
C41 N9 1_555 1_555
H29 C41 1_555 1_555
C42 C41 1_555 1_555
C43 C42 1_555 1_555
H30 C43 1_555 1_555
C44 C43 1_555 1_555
H31 C44 1_555 1_555
C45 N9 1_555 1_555
H32 C45 1_555 1_555
N10 Pd5 1_555 1_555
C46 N10 1_555 1_555
H33 C46 1_555 1_555
C47 C42 1_555 1_555
C48 C47 1_555 1_555
H34 C48 1_555 1_555
C49 C48 1_555 1_555
C50 N10 1_555 1_555
H35 C50 1_555 1_555
N11 Pd3 1_555 1_555
C51 N11 1_555 1_555
H36 C51 1_555 1_555
C52 C49 1_555 1_555
C53 C52 1_555 1_555
H37 C53 1_555 1_555
C54 C53 1_555 1_555
C55 N11 1_555 1_555
H38 C55 1_555 1_555
N12 Pd6 1_555 1_555
C56 N12 1_555 1_555
H39 C56 1_555 1_555
C57 C54 1_555 1_555
C58 C57 1_555 1_555
H40 C58 1_555 1_555
C59 C58 1_555 1_555
H41 C59 1_555 1_555
C60 N12 1_555 1_555
H42 C60 1_555 1_555
N13 Pd8 1_555 1_555
C61 N13 1_555 1_555
H43 C61 1_555 1_555
C62 C61 1_555 1_555
C63 C62 1_555 1_555
H44 C63 1_555 1_555
C64 C63 1_555 1_555
H45 C64 1_555 1_555
C65 N13 1_555 1_555
H46 C65 1_555 1_555
N14 Pd1 1_555 1_555
C66 N14 1_555 1_555
H47 C66 1_555 1_555
C67 C62 1_555 1_555
C68 C67 1_555 1_555
H48 C68 1_555 1_555
C69 C68 1_555 1_555
C70 N14 1_555 1_555
H49 C70 1_555 1_555
N15 Pd2 1_555 1_555
C71 N15 1_555 1_555
H50 C71 1_555 1_555
C72 C69 1_555 1_555
C73 C72 1_555 1_555
H51 C73 1_555 1_555
C74 C73 1_555 1_555
C75 N15 1_555 1_555
H52 C75 1_555 1_555
N16 Pd7 1_555 1_555
C76 N16 1_555 1_555
H53 C76 1_555 1_555
C77 C74 1_555 1_555
C78 C77 1_555 1_555
H54 C78 1_555 1_555
C79 C78 1_555 1_555
H55 C79 1_555 1_555
C80 N16 1_555 1_555
H56 C80 1_555 1_555
O1 C87 1_555 1_555
O2 C87 1_555 1_555
C81 C82 1_555 1_555
C82 H57 1_555 1_555
C83 C82 1_555 1_555
H58 C83 1_555 1_555
C84 C83 1_555 1_555
C85 C84 1_555 1_555
H59 C85 1_555 1_555
C86 C81 1_555 1_555
H60 C86 1_555 1_555
C87 C81 1_555 1_555
O3 C94 1_555 1_555
O4 C94 1_555 1_555
C88 C89 1_555 1_555
C89 H61 1_555 1_555
C90 C89 1_555 1_555
H62 C90 1_555 1_555
C91 C90 1_555 1_555
C92 C91 1_555 1_555
H63 C92 1_555 1_555
C93 C88 1_555 1_555
H64 C93 1_555 1_555
C94 C88 1_555 1_555
O5 C101 1_555 1_555
O6 C101 1_555 1_555
C95 C96 1_555 1_555
C96 H65 1_555 1_555
C97 C96 1_555 1_555
H66 C97 1_555 1_555
C98 C91 1_555 1_555
C99 C98 1_555 1_555
H67 C99 1_555 1_555
C100 C95 1_555 1_555
H68 C100 1_555 1_555
C101 C95 1_555 1_555
O7 C108 1_555 1_555
O8 C108 1_555 1_555
C102 C103 1_555 1_555
C103 H69 1_555 1_555
C104 C103 1_555 1_555
H70 C104 1_555 1_555
C105 C104 1_555 1_555
C106 C105 1_555 1_555
H71 C106 1_555 1_555
C107 C102 1_555 1_555
H72 C107 1_555 1_555
C108 C102 1_555 1_555
N17 Pd1 1_555 1_555
H73 N17 1_555 1_555
H74 N17 1_555 1_555
N18 Pd1 1_555 1_555
H75 N18 1_555 1_555
H76 N18 1_555 1_555
C109 N17 1_555 1_555
H77 C109 1_555 1_555
H78 C109 1_555 1_555
C110 N18 1_555 1_555
H79 C110 1_555 1_555
H80 C110 1_555 1_555
N19 Pd2 1_555 1_555
H81 N19 1_555 1_555
H82 N19 1_555 1_555
N20 Pd2 1_555 1_555
H83 N20 1_555 1_555
H84 N20 1_555 1_555
C111 N19 1_555 1_555
H85 C111 1_555 1_555
H86 C111 1_555 1_555
C112 N20 1_555 1_555
H87 C112 1_555 1_555
H88 C112 1_555 1_555
N21 Pd3 1_555 1_555
H89 N21 1_555 1_555
H90 N21 1_555 1_555
N22 Pd3 1_555 1_555
H91 N22 1_555 1_555
H92 N22 1_555 1_555
C113 N21 1_555 1_555
H93 C113 1_555 1_555
H94 C113 1_555 1_555
C114 N22 1_555 1_555
H95 C114 1_555 1_555
H96 C114 1_555 1_555
N23 Pd4 1_555 1_555
H97 N23 1_555 1_555
H98 N23 1_555 1_555
N24 Pd4 1_555 1_555
H99 N24 1_555 1_555
H100 N24 1_555 1_555
C115 N23 1_555 1_555
H101 C115 1_555 1_555
H102 C115 1_555 1_555
C116 N24 1_555 1_555
H103 C116 1_555 1_555
H104 C116 1_555 1_555
N25 Pd5 1_555 1_555
H105 N25 1_555 1_555
H106 N25 1_555 1_555
N26 Pd5 1_555 1_555
H107 N26 1_555 1_555
H108 N26 1_555 1_555
C117 N25 1_555 1_555
H109 C117 1_555 1_555
H110 C117 1_555 1_555
C118 N26 1_555 1_555
H111 C118 1_555 1_555
H112 C118 1_555 1_555
N27 Pd6 1_555 1_555
H113 N27 1_555 1_555
H114 N27 1_555 1_555
N28 Pd6 1_555 1_555
H115 N28 1_555 1_555
H116 N28 1_555 1_555
C119 N27 1_555 1_555
H117 C119 1_555 1_555
H118 C119 1_555 1_555
C120 N28 1_555 1_555
H119 C120 1_555 1_555
H120 C120 1_555 1_555
N29 Pd7 1_555 1_555
H121 N29 1_555 1_555
H122 N29 1_555 1_555
N30 Pd7 1_555 1_555
H123 N30 1_555 1_555
H124 N30 1_555 1_555
C121 N29 1_555 1_555
H125 C121 1_555 1_555
H126 C121 1_555 1_555
C122 N30 1_555 1_555
H127 C122 1_555 1_555
H128 C122 1_555 1_555
N31 Pd8 1_555 1_555
H129 N31 1_555 1_555
H130 N31 1_555 1_555
N32 Pd8 1_555 1_555
H131 N32 1_555 1_555
H132 N32 1_555 1_555
C123 N31 1_555 1_555
H133 C123 1_555 1_555
H134 C123 1_555 1_555
C124 N32 1_555 1_555
H135 C124 1_555 1_555
H136 C124 1_555 1_555
N33 O9 1_555 1_555
O10 N33 1_555 1_555
O11 N33 1_555 1_555
N34 O12 1_555 1_555
O13 N34 1_555 1_555
O14 N34 1_555 1_555
N35 O15 1_555 1_555
O16 N35 1_555 1_555
O17 N35 1_555 1_555
N36 O18 1_555 1_555
O19 N36 1_555 1_555
O20 N36 1_555 1_555
N37 O21 1_555 1_555
O22 N37 1_555 1_555
O23 N37 1_555 1_555
N38 O24 1_555 1_555
O25 N38 1_555 1_555
O26 N38 1_555 1_555
N39 O27 1_555 1_555
O28 N39 1_555 1_555
O29 N39 1_555 1_555
N40 O30 1_555 1_555
O31 N40 1_555 1_555
O32 N40 1_555 1_555
N41 O33 1_555 1_555
O34 N41 1_555 1_555
O35 N41 1_555 1_555
N42 O36 1_555 1_555
O37 N42 1_555 1_555
O38 N42 1_555 1_555
N43 O39 1_555 1_555
O40 N43 1_555 1_555
O41 N43 1_555 1_555
N44 O42 1_555 1_555
O43 N44 1_555 1_555
O44 N44 1_555 1_555
C77A C76 1_555 1_555
C74A C77A 1_555 1_555
C73A C74A 1_555 1_555
C72A C73A 1_555 1_555
C69A C70 1_555 1_555
C68A C69A 1_555 1_555
C67A C66 1_555 1_555
C62A C67A 1_555 1_555
C61A C62A 1_555 1_555
N13A C61A 1_555 1_555
Pd8A N13A 1_555 1_555
N4A Pd8A 1_555 1_555
C16A N4A 1_555 1_555
H11A C16A 1_555 1_555
C17A C16A 1_555 1_555
C14A C17A 1_555 1_555
C13A C14A 1_555 1_555
C12A C13A 1_555 1_555
C9A C12A 1_555 1_555
C8A C9A 1_555 1_555
C7A C8A 1_555 1_555
C4A C7A 1_555 1_555
C3A C4A 1_555 1_555
C2A C3A 1_555 1_555
C1A C2A 1_555 1_555
N1A C1A 1_555 1_555
Pd1A N1A 1_555 1_555
N14A Pd1A 1_555 1_555
C66A C67 1_555 1_555
H47A C66A 1_555 1_555
C70A C69 1_555 1_555
H49A C70A 1_555 1_555
N17A Pd1A 1_555 1_555
H73A N17A 1_555 1_555
H74A N17A 1_555 1_555
C109A N17A 1_555 1_555
H77A C109A 1_555 1_555
H78A C109A 1_555 1_555
C110A C109A 1_555 1_555
N18A Pd1A 1_555 1_555
H75A N18A 1_555 1_555
H76A N18A 1_555 1_555
H79A C110A 1_555 1_555
H80A C110A 1_555 1_555
C5A C4A 1_555 1_555
H4A C5A 1_555 1_555
H1A C1A 1_555 1_555
H2A C2A 1_555 1_555
H3A C3A 1_555 1_555
C6A C7A 1_555 1_555
N2A C6A 1_555 1_555
Pd2A N2A 1_555 1_555
N15A Pd2A 1_555 1_555
C71A C72A 1_555 1_555
H50A C71A 1_555 1_555
C75A C74A 1_555 1_555
H52A C75A 1_555 1_555
N19A Pd2A 1_555 1_555
H81A N19A 1_555 1_555
H82A N19A 1_555 1_555
C111A N19A 1_555 1_555
H85A C111A 1_555 1_555
H86A C111A 1_555 1_555
C112A C111A 1_555 1_555
N20A Pd2A 1_555 1_555
H83A N20A 1_555 1_555
H84A N20A 1_555 1_555
H87A C112A 1_555 1_555
H88A C112A 1_555 1_555
C10A C9A 1_555 1_555
H7A C10A 1_555 1_555
H5A C6A 1_555 1_555
H6A C8A 1_555 1_555
C11A C12A 1_555 1_555
N3A C11A 1_555 1_555
Pd7A N3A 1_555 1_555
N16A Pd7A 1_555 1_555
C76A C77 1_555 1_555
H53A C76A 1_555 1_555
C80A C79 1_555 1_555
H56A C80A 1_555 1_555
N29A Pd7A 1_555 1_555
H121A N29A 1_555 1_555
H122A N29A 1_555 1_555
C121A N29A 1_555 1_555
H125A C121A 1_555 1_555
H126A C121A 1_555 1_555
C122A C121A 1_555 1_555
N30A Pd7A 1_555 1_555
H123A N30A 1_555 1_555
H124A N30A 1_555 1_555
H127A C122A 1_555 1_555
H128A C122A 1_555 1_555
C15A C14A 1_555 1_555
H10A C15A 1_555 1_555
H8A C11A 1_555 1_555
H9A C13A 1_555 1_555
C18A C17A 1_555 1_555
H12A C18A 1_555 1_555
C19A C18A 1_555 1_555
H13A C19A 1_555 1_555
C20A N4A 1_555 1_555
H14A C20A 1_555 1_555
N31A Pd8A 1_555 1_555
H129A N31A 1_555 1_555
H130A N31A 1_555 1_555
C123A N31A 1_555 1_555
H133A C123A 1_555 1_555
H134A C123A 1_555 1_555
C124A C123A 1_555 1_555
N32A Pd8A 1_555 1_555
H131A N32A 1_555 1_555
H132A N32A 1_555 1_555
H135A C124A 1_555 1_555
H136A C124A 1_555 1_555
C65A N13A 1_555 1_555
C64A C65A 1_555 1_555
C63A C62A 1_555 1_555
H44A C63A 1_555 1_555
H45A C64A 1_555 1_555
H46A C65A 1_555 1_555
H43A C61A 1_555 1_555
H48A C68A 1_555 1_555
H51A C73A 1_555 1_555
C78A C77A 1_555 1_555
H54A C78A 1_555 1_555
C79A C80 1_555 1_555
H55A C79A 1_555 1_555
C57A C56 1_555 1_555
C54A C57A 1_555 1_555
C53A C54A 1_555 1_555
C52A C53A 1_555 1_555
C49A C50 1_555 1_555
C48A C49A 1_555 1_555
C47A C46 1_555 1_555
C42A C47A 1_555 1_555
C41A C42A 1_555 1_555
N9A C41A 1_555 1_555
Pd4A N9A 1_555 1_555
N6A Pd4A 1_555 1_555
C26A N6A 1_555 1_555
H19A C26A 1_555 1_555
C27A C26A 1_555 1_555
C22A C27A 1_555 1_555
C21A C22A 1_555 1_555
N5A C21A 1_555 1_555
Pd6A N5A 1_555 1_555
N12A Pd6A 1_555 1_555
C56A C57 1_555 1_555
H39A C56A 1_555 1_555
C46A C47 1_555 1_555
N10A C46A 1_555 1_555
Pd5A N10A 1_555 1_555
N7A Pd5A 1_555 1_555
C31A N7A 1_555 1_555
H22A C31A 1_555 1_555
C32A C31A 1_555 1_555
C29A C32A 1_555 1_555
C28A C27A 1_555 1_555
H20A C28A 1_555 1_555
C30A N6A 1_555 1_555
H21A C30A 1_555 1_555
C33A C32A 1_555 1_555
H23A C33A 1_555 1_555
C34A C33A 1_555 1_555
C35A N7A 1_555 1_555
H24A C35A 1_555 1_555
C37A C34A 1_555 1_555
C36A C37A 1_555 1_555
N8A C36A 1_555 1_555
Pd3A N8A 1_555 1_555
N11A Pd3A 1_555 1_555
C51A C52A 1_555 1_555
H36A C51A 1_555 1_555
C55A C54A 1_555 1_555
H38A C55A 1_555 1_555
N21A Pd3A 1_555 1_555
H89A N21A 1_555 1_555
H90A N21A 1_555 1_555
C113A N21A 1_555 1_555
H93A C113A 1_555 1_555
H94A C113A 1_555 1_555
C114A C113A 1_555 1_555
N22A Pd3A 1_555 1_555
H91A N22A 1_555 1_555
H92A N22A 1_555 1_555
H95A C114A 1_555 1_555
H96A C114A 1_555 1_555
C40A N8A 1_555 1_555
C39A C40A 1_555 1_555
C38A C37A 1_555 1_555
H26A C38A 1_555 1_555
H27A C39A 1_555 1_555
H28A C40A 1_555 1_555
H25A C36A 1_555 1_555
N25A Pd5A 1_555 1_555
H105A N25A 1_555 1_555
H106A N25A 1_555 1_555
C117A N25A 1_555 1_555
H109A C117A 1_555 1_555
H110A C117A 1_555 1_555
C118A C117A 1_555 1_555
N26A Pd5A 1_555 1_555
H107A N26A 1_555 1_555
H108A N26A 1_555 1_555
H111A C118A 1_555 1_555
H112A C118A 1_555 1_555
C50A C49 1_555 1_555
H35A C50A 1_555 1_555
H33A C46A 1_555 1_555
C60A C59 1_555 1_555
H42A C60A 1_555 1_555
N27A Pd6A 1_555 1_555
H113A N27A 1_555 1_555
H114A N27A 1_555 1_555
C119A N27A 1_555 1_555
H117A C119A 1_555 1_555
H118A C119A 1_555 1_555
C120A C119A 1_555 1_555
N28A Pd6A 1_555 1_555
H115A N28A 1_555 1_555
H116A N28A 1_555 1_555
H119A C120A 1_555 1_555
H120A C120A 1_555 1_555
C25A N5A 1_555 1_555
C24A C25A 1_555 1_555
C23A C22A 1_555 1_555
H16A C23A 1_555 1_555
H17A C24A 1_555 1_555
H18A C25A 1_555 1_555
H15A C21A 1_555 1_555
N23A Pd4A 1_555 1_555
H97A N23A 1_555 1_555
H98A N23A 1_555 1_555
C115A N23A 1_555 1_555
H101A C115A 1_555 1_555
H102A C115A 1_555 1_555
C116A C115A 1_555 1_555
N24A Pd4A 1_555 1_555
H99A N24A 1_555 1_555
H100A N24A 1_555 1_555
H103A C116A 1_555 1_555
H104A C116A 1_555 1_555
C45A N9A 1_555 1_555
C44A C45A 1_555 1_555
C43A C42A 1_555 1_555
H30A C43A 1_555 1_555
H31A C44A 1_555 1_555
H32A C45A 1_555 1_555
H29A C41A 1_555 1_555
H34A C48A 1_555 1_555
H37A C53A 1_555 1_555
C58A C57A 1_555 1_555
H40A C58A 1_555 1_555
C59A C60 1_555 1_555
H41A C59A 1_555 1_555
C84A C84 1_555 1_555
C83A C84A 1_555 1_555
C82A C83A 1_555 1_555
C81A C82A 1_555 1_555
C86A C81A 1_555 1_555
C85A C84A 1_555 1_555
H59A C85A 1_555 1_555
H60A C86A 1_555 1_555
C87A C81A 1_555 1_555
O1A C87A 1_555 1_555
O2A C87A 1_555 1_555
H57A C82A 1_555 1_555
H58A C83A 1_555 1_555
C105A C105 1_555 1_555
C104A C105A 1_555 1_555
C103A C104A 1_555 1_555
C102A C103A 1_555 1_555
C107A C102A 1_555 1_555
C106A C105A 1_555 1_555
H71A C106A 1_555 1_555
H72A C107A 1_555 1_555
C108A C102A 1_555 1_555
O7A C108A 1_555 1_555
O8A C108A 1_555 1_555
H69A C103A 1_555 1_555
H70A C104A 1_555 1_555
C4 C5 1_555 1_555
C6 C7 1_555 1_555
C9 C10 1_555 1_555
C11 C12 1_555 1_555
C14 C15 1_555 1_555
C16 C17 1_555 1_555
C19 C20 1_555 1_555
C24 C25 1_555 1_555
C26 C27 1_555 1_555
C29 C30 1_555 1_555
C31 C32 1_555 1_555
C34 C35 1_555 1_555
C36 C37 1_555 1_555
C39 C40 1_555 1_555
C44 C45 1_555 1_555
C51 C52 1_555 1_555
C54 C55 1_555 1_555
C64 C65 1_555 1_555
C71 C72 1_555 1_555
C74 C75 1_555 1_555
C85 C86 1_555 1_555
C92 C93 1_555 1_555
C97 C98 1_555 1_555
C99 C100 1_555 1_555
C106 C107 1_555 1_555
C109 C110 1_555 1_555
C111 C112 1_555 1_555
C113 C114 1_555 1_555
C115 C116 1_555 1_555
C117 C118 1_555 1_555
C119 C120 1_555 1_555
C121 C122 1_555 1_555
C123 C124 1_555 1_555
C72A C69A 1_555 1_555
C68A C67A 1_555 1_555
N1A C5A 1_555 1_555
N14A C66A 1_555 1_555
N14A C70A 1_555 1_555
C110A N18A 1_555 1_555
N2A C10A 1_555 1_555
N15A C71A 1_555 1_555
N15A C75A 1_555 1_555
C112A N20A 1_555 1_555
N3A C15A 1_555 1_555
N16A C76A 1_555 1_555
N16A C80A 1_555 1_555
C122A N30A 1_555 1_555
C19A C20A 1_555 1_555
C124A N32A 1_555 1_555
C64A C63A 1_555 1_555
C78A C79A 1_555 1_555
C52A C49A 1_555 1_555
C48A C47A 1_555 1_555
N12A C56A 1_555 1_555
N12A C60A 1_555 1_555
N10A C50A 1_555 1_555
C29A C28A 1_555 1_555
C29A C30A 1_555 1_555
C34A C35A 1_555 1_555
N11A C51A 1_555 1_555
N11A C55A 1_555 1_555
C114A N22A 1_555 1_555
C39A C38A 1_555 1_555
C118A N26A 1_555 1_555
C120A N28A 1_555 1_555
C24A C23A 1_555 1_555
C116A N24A 1_555 1_555
C44A C43A 1_555 1_555
C58A C59A 1_555 1_555
C86A C85A 1_555 1_555
C107A C106A 1_555 1_555

#END
