
#######################################################################
#
#                 Cambridge Crystallographic Data Centre
#                                CCDC 
#
#######################################################################
#
# If this CIF has been generated from an entry in the Cambridge 
# Structural Database, then it will include bibliographic, chemical, 
# crystal, experimental, refinement or atomic coordinate data resulting 
# from the CCDC's data processing and validation procedures.
#
#######################################################################

data_XOWCOB
_chemical_formula_moiety         
'C120 H148 N40 Pd10 20+,C18 H14,20(N1 O3 1-),28(H2 O1)'
_chemical_name_systematic        
"tetrakis(\m~5~-3,3':5',3'':5'',3''':5''',3''''-Quinquepyridine)-decakis(ethylenediamine)-deca-palladium p-terphenyl clathrate icosanitrate unknown solvate hydrate"
_symmetry_cell_setting           triclinic
_symmetry_space_group_name_H-M   'P -1'
_symmetry_Int_Tables_number      2
_space_group_name_Hall           '-P 1'
loop_
_symmetry_equiv_pos_site_id
_symmetry_equiv_pos_as_xyz
1 x,y,z
2 -x,-y,-z
_cell_length_a                   18.477(2)
_cell_length_b                   18.905(2)
_cell_length_c                   20.012(3)
_cell_angle_alpha                66.452(2)
_cell_angle_beta                 86.410(2)
_cell_angle_gamma                61.910(2)
_cell_volume                     5584.92
_exptl_crystal_colour            white
_exptl_crystal_description       needle
_chemical_melting_point          '245 deg.C(dec.)'
_cell_formula_units_Z            1
loop_
_atom_site_label
_atom_site_type_symbol
_atom_site_fract_x
_atom_site_fract_y
_atom_site_fract_z
Pd1 Pd 0.76524(6) -1.02649(6) 0.97267(5)
Pd2 Pd 0.31398(5) -0.78700(6) 0.59719(5)
Pd3 Pd 0.85232(6) -0.82543(6) 0.57979(5)
Pd4 Pd 0.40989(6) -0.58094(6) 0.19885(5)
Pd5 Pd 0.94594(6) -0.63315(7) 0.20522(5)
N1 N 0.6446(6) -0.9568(6) 0.9252(5)
C1 C 0.6217(7) -0.9235(7) 0.8509(6)
H1 H 0.6633 -0.9319 0.8200
C2 C 0.5368(8) -0.8766(8) 0.8193(6)
C3 C 0.4761(8) -0.8664(9) 0.8658(6)
H2 H 0.4189 -0.8373 0.8467
C4 C 0.5028(8) -0.9008(9) 0.9418(6)
H3 H 0.4633 -0.8937 0.9746
C5 C 0.5856(8) -0.9445(8) 0.9683(7)
H4 H 0.6021 -0.9672 1.0198
N2 N 0.4221(5) -0.8010(6) 0.6357(5)
C6 C 0.4428(7) -0.8329(8) 0.7099(6)
H5 H 0.4086 -0.8498 0.7426
C7 C 0.5169(8) -0.8409(8) 0.7381(6)
C8 C 0.5644(8) -0.8154(8) 0.6885(6)
H6 H 0.6128 -0.8186 0.7061
C9 C 0.5429(8) -0.7851(8) 0.6131(6)
C10 C 0.4711(7) -0.7795(8) 0.5894(6)
H7 H 0.4558 -0.7595 0.5381
N3 N 0.7337(5) -0.7821(6) 0.5428(5)
C11 C 0.6800(7) -0.7969(7) 0.5862(6)
H8 H 0.6994 -0.8322 0.6375
C12 C 0.5984(7) -0.7641(7) 0.5611(6)
C13 C 0.5709(7) -0.7129(7) 0.4854(6)
H9 H 0.5145 -0.6886 0.4661
C14 C 0.6251(7) -0.6970(8) 0.4377(6)
C15 C 0.7065(8) -0.7344(8) 0.4709(6)
H10 H 0.7451 -0.7250 0.4399
N4 N 0.5128(6) -0.5952(6) 0.2477(5)
C16 C 0.5329(8) -0.6333(8) 0.3196(6)
H11 H 0.4972 -0.6524 0.3481
C17 C 0.6014(7) -0.6474(8) 0.3564(6)
C18 C 0.6501(7) -0.6161(7) 0.3129(6)
H12 H 0.6971 -0.6218 0.3361
C19 C 0.6328(8) -0.5770(8) 0.2368(6)
C20 C 0.5600(7) -0.5661(7) 0.2064(6)
H13 H 0.5440 -0.5368 0.1544
N5 N 0.8236(7) -0.5699(7) 0.1709(5)
C21 C 0.7696(7) -0.5927(8) 0.2111(6)
H14 H 0.7915 -0.6435 0.2569
C22 C 0.6855(7) -0.5463(7) 0.1891(6)
C23 C 0.6519(8) -0.4709(9) 0.1208(6)
H15 H 0.5937 -0.4374 0.1042
C24 C 0.7066(9) -0.4465(9) 0.0779(6)
H16 H 0.6862 -0.3973 0.0311
C25 C 0.7898(9) -0.4948(8) 0.1049(7)
H17 H 0.8260 -0.4760 0.0771
N6 N 0.7572(6) -0.9218(7) 0.9848(5)
C26 C 0.7433(7) -0.8493(8) 0.9262(6)
H18 H 0.7356 -0.8476 0.8789
C27 C 0.7392(7) -0.7752(8) 0.9293(6)
C28 C 0.7543(9) -0.7803(8) 0.9991(6)
H19 H 0.7540 -0.7323 1.0042
C29 C 0.7698(12) -0.8571(10) 1.0612(7)
H20 H 0.7820 -0.8632 1.1092
C30 C 0.7672(11) -0.9234(9) 1.0514(7)
H21 H 0.7728 -0.9733 1.0939
N7 N 0.3414(6) -0.4617(7) 0.2000(5)
C31 C 0.3245(7) -0.3869(8) 0.1403(6)
H22 H 0.3471 -0.3917 0.0974
C32 C 0.7240(7) -0.6971(8) 0.8622(6)
C33 C 0.7551(7) -0.7034(8) 0.7987(6)
H23 H 0.7885 -0.7600 0.7988
C34 C 0.7381(8) -0.6279(7) 0.7347(6)
C35 C 0.3103(8) -0.4552(7) 0.2628(6)
H24 H 0.3216 -0.5075 0.3053
N8 N 0.8139(7) -0.7124(6) 0.5913(5)
C36 C 0.7883(8) -0.7055(7) 0.6553(6)
H25 H 0.7856 -0.7537 0.6937
C37 C 0.7665(8) -0.6301(8) 0.6651(6)
C38 C 0.7728(8) -0.5598(8) 0.6086(6)
H26 H 0.7610 -0.5087 0.6155
C39 C 0.7967(7) -0.5655(7) 0.5420(6)
C40 C 0.8182(6) -0.6450(7) 0.5370(6)
H27 H 0.8365 -0.6510 0.4932
N9 N 0.2464(6) -0.6605(6) 0.5887(5)
C41 C 0.2477(7) -0.5952(7) 0.5301(6)
H28 H 0.2808 -0.6078 0.4938
C42 C 0.8008(8) -0.4939(7) 0.4783(6)
C43 C 0.8487(8) -0.5078(8) 0.4230(6)
H29 H 0.8843 -0.5664 0.4281
C44 C 0.8449(8) -0.4379(8) 0.3617(6)
C45 C 0.2036(7) -0.6472(8) 0.6427(6)
H30 H 0.2062 -0.6962 0.6845
N10 N 0.9370(7) -0.5328(7) 0.2246(6)
C46 C 0.8965(7) -0.5178(8) 0.2813(6)
H31 H 0.8718 -0.5527 0.3082
C47 C 0.8908(7) -0.4511(8) 0.3003(6)
C48 C 0.9268(7) -0.4013(8) 0.2606(6)
H32 H 0.9250 -0.3571 0.2733
C49 C 0.9659(8) -0.4155(9) 0.2020(7)
H33 H 0.9898 -0.3803 0.1737
C50 C 0.9696(8) -0.4815(10) 0.1854(7)
H34 H 0.9960 -0.4907 0.1451
N11 N 0.7843(7) -1.1359(7) 0.9609(6)
H35 H 0.7528 -1.1585 0.9894
H36 H 0.7683 -1.1209 0.9124
N12 N 0.8827(6) -1.1045(6) 1.0248(6)
H37 H 0.9170 -1.0859 0.9969
H38 H 0.8865 -1.1025 1.0696
C51 C 0.8694(10) -1.2003(10) 0.9829(11)
H39 H 0.8744 -1.2596 1.0014
H40 H 0.8981 -1.1922 0.9393
C52 C 0.9080(13) -1.1968(12) 1.0361(14)
H41 H 0.9688 -1.2289 1.0373
H42 H 0.8955 -1.2274 1.0846
N13 N 0.2109(6) -0.7804(7) 0.5592(6)
H43 H 0.1673 -0.7547 0.5816
H44 H 0.1967 -0.7462 0.5091
N14 N 0.3719(7) -0.9115(6) 0.6029(6)
H45 H 0.4203 -0.9222 0.5832
H46 H 0.3849 -0.9519 0.6514
C53 C 0.2274(10) -0.8709(9) 0.5754(9)
H47 H 0.1866 -0.8683 0.5434
H48 H 0.2228 -0.9012 0.6275
C54 C 0.3150(11) -0.9205(11) 0.5607(11)
H49 H 0.3317 -0.9836 0.5770
H50 H 0.3175 -0.8952 0.5072
N15 N 0.8937(8) -0.9397(7) 0.5695(8)
H51 H 0.8629 -0.9667 0.5923
H52 H 0.8891 -0.9290 0.5204
N16 N 0.9736(6) -0.8711(6) 0.6103(6)
H53 H 0.9875 -0.8278 0.5844
H54 H 0.9836 -0.8859 0.6598
C55 C 0.9813(11) -0.9968(12) 0.6045(14)
H55 H 0.9841 -1.0306 0.6578
H56 H 1.0100 -1.0397 0.5826
C56 C 1.0232(10) -0.9476(13) 0.5956(12)
H57 H 1.0356 -0.9285 0.5446
H58 H 1.0766 -0.9857 0.6298
N17 N 0.3120(8) -0.5751(10) 0.1525(7)
H59 H 0.2876 -0.5259 0.1084
H60 H 0.2728 -0.5735 0.1834
N18 N 0.4734(9) -0.6975(11) 0.1923(9)
H61 H 0.4989 -0.7419 0.2386
H62 H 0.5140 -0.6969 0.1633
C57 C 0.350(2) -0.6608(17) 0.1402(12)
H63 H 0.3406 -0.6434 0.0865
H64 H 0.3173 -0.6915 0.1631
C58 C 0.4215(17) -0.713(4) 0.163(4)
H65 H 0.4239 -0.7678 0.2010
H66 H 0.4461 -0.7274 0.1216
N19 N 0.9667(9) -0.7413(8) 0.1918(7)
H67 H 0.9341 -0.7638 0.2183
H68 H 0.9533 -0.7265 0.1428
N20 N 1.0698(8) -0.6990(9) 0.2357(6)
H69 H 1.0922 -0.6654 0.2058
H70 H 1.0818 -0.7087 0.2835
C59 C 1.0521(16) -0.8055(18) 0.217(2)
H71 H 1.0551 -0.8541 0.2631
H72 H 1.0717 -0.8303 0.1800
C60 C 1.1068(16) -0.7836(14) 0.230(2)
H73 H 1.1412 -0.7814 0.1903
H74 H 1.1442 -0.8306 0.2770
C42A C 0.1992(8) -0.5061(7) 0.5217(6)
C39A C 0.2033(7) -0.4345(7) 0.4580(6)
C38A C 0.2272(8) -0.4402(8) 0.3914(6)
C37A C 0.2335(8) -0.3699(8) 0.3349(6)
C34A C 0.2619(8) -0.3721(7) 0.2653(6)
C33A C 0.2449(7) -0.2966(8) 0.2013(6)
C32A C 0.2760(7) -0.3029(8) 0.1378(6)
C27A C 0.2608(7) -0.2248(8) 0.0707(6)
C26A C 0.2567(7) -0.1507(8) 0.0738(6)
N6A N 0.2428(6) -0.0782(7) 0.0152(5)
Pd1A Pd 0.23476(6) 0.02649(6) 0.02733(5)
N1A N 0.3554(6) -0.0432(6) 0.0748(5)
C1A C 0.3783(7) -0.0765(7) 0.1491(6)
H1A H 0.3367 -0.0681 0.1800
C2A C 0.4632(8) -0.1234(8) 0.1807(6)
C3A C 0.5239(8) -0.1336(9) 0.1342(6)
H2A H 0.5811 -0.1627 0.1533
C4A C 0.4972(8) -0.0992(9) 0.0582(6)
H3A H 0.5367 -0.1063 0.0254
C5A C 0.4144(8) -0.0555(8) 0.0317(7)
H4A H 0.3979 -0.0328 -0.0198
C7A C 0.4831(8) -0.1591(8) 0.2619(6)
C6A C 0.5572(7) -0.1671(8) 0.2901(6)
N2A N 0.5779(5) -0.1990(6) 0.3643(5)
Pd2A Pd 0.68602(5) -0.21300(6) 0.40281(5)
N9A N 0.7536(6) -0.3395(6) 0.4113(5)
C41A C 0.7523(7) -0.4048(7) 0.4699(6)
H28A H 0.7192 -0.3922 0.5062
C31A C 0.6755(7) -0.6131(8) 0.8597(6)
N7A N 0.6586(6) -0.5383(7) 0.8000(5)
Pd4A Pd 0.59011(6) -0.41906(6) 0.80115(5)
N4A N 0.4872(6) -0.4048(6) 0.7523(5)
C16A C 0.4671(8) -0.3667(8) 0.6804(6)
H11A H 0.5028 -0.3476 0.6519
C17A C 0.3986(7) -0.3526(8) 0.6436(6)
C14A C 0.3749(7) -0.3030(8) 0.5623(6)
C13A C 0.4291(7) -0.2871(7) 0.5146(6)
C12A C 0.4016(7) -0.2359(7) 0.4389(6)
C9A C 0.4571(8) -0.2149(8) 0.3869(6)
C8A C 0.4356(8) -0.1846(8) 0.3115(6)
H6A H 0.3872 -0.1814 0.2939
C10A C 0.5289(7) -0.2205(8) 0.4106(6)
H7A H 0.5442 -0.2405 0.4619
C11A C 0.3200(7) -0.2031(7) 0.4138(6)
N3A N 0.2663(5) -0.2179(6) 0.4572(5)
Pd3A Pd 0.14768(6) -0.17457(6) 0.42021(5)
N8A N 0.1861(7) -0.2876(6) 0.4087(5)
C36A C 0.2117(8) -0.2945(7) 0.3447(6)
H25A H 0.2144 -0.2463 0.3063
C40A C 0.1818(6) -0.3550(7) 0.4630(6)
H27A H 0.1635 -0.3490 0.5068
N15A N 0.1063(8) -0.0603(7) 0.4305(8)
H51A H 0.1371 -0.0333 0.4077
H52A H 0.1109 -0.0710 0.4796
C55A C 0.0187(11) -0.0032(12) 0.3955(14)
H55A H 0.0159 0.0306 0.3422
H56A H -0.0100 0.0397 0.4174
C56A C -0.0232(10) -0.0524(13) 0.4044(12)
N16A N 0.0264(6) -0.1289(6) 0.3897(6)
H53A H 0.0125 -0.1722 0.4156
H54A H 0.0164 -0.1141 0.3402
H57A H -0.0356 -0.0715 0.4554
H58A H -0.0766 -0.0143 0.3702
C15A C 0.2935(8) -0.2656(8) 0.5291(6)
H10A H 0.2549 -0.2750 0.5601
H8A H 0.3006 -0.1678 0.3625
H9A H 0.4855 -0.3114 0.5339
C18A C 0.3499(7) -0.3839(7) 0.6871(6)
H12A H 0.3029 -0.3782 0.6639
C19A C 0.3672(8) -0.4230(8) 0.7632(6)
C20A C 0.4400(7) -0.4339(7) 0.7936(6)
H13A H 0.4560 -0.4632 0.8456
C22A C 0.3145(7) -0.4537(7) 0.8109(6)
C21A C 0.2304(7) -0.4073(8) 0.7889(6)
N5A N 0.1764(7) -0.4301(7) 0.8291(5)
Pd5A Pd 0.05406(6) -0.36685(7) 0.79478(5)
N10A N 0.0630(7) -0.4672(7) 0.7754(6)
C46A C 0.1035(7) -0.4822(8) 0.7187(6)
H31A H 0.1282 -0.4473 0.6918
C47A C 0.1092(7) -0.5489(8) 0.6997(6)
C44A C 0.1551(8) -0.5621(8) 0.6383(6)
C43A C 0.1513(8) -0.4922(8) 0.5770(6)
H29A H 0.1157 -0.4336 0.5719
C48A C 0.0732(7) -0.5987(8) 0.7394(6)
H32A H 0.0750 -0.6429 0.7267
C49A C 0.0341(8) -0.5845(9) 0.7980(7)
H33A H 0.0102 -0.6197 0.8263
C50A C 0.0304(8) -0.5185(10) 0.8146(7)
H34A H 0.0040 -0.5093 0.8549
N19A N 0.0333(9) -0.2587(8) 0.8082(7)
H67A H 0.0659 -0.2362 0.7817
H68A H 0.0467 -0.2735 0.8572
C59A C -0.0521(16) -0.1945(18) 0.783(2)
H71A H -0.0551 -0.1459 0.7369
H72A H -0.0717 -0.1697 0.8200
C60A C -0.1068(16) -0.2164(14) 0.770(2)
N20A N -0.0698(8) -0.3010(9) 0.7643(6)
H69A H -0.0922 -0.3346 0.7942
H70A H -0.0818 -0.2913 0.7165
H73A H -0.1412 -0.2186 0.8097
H74A H -0.1442 -0.1694 0.7230
C25A C 0.2102(9) -0.5052(8) 0.8951(7)
C24A C 0.2934(9) -0.5535(9) 0.9221(6)
C23A C 0.3481(8) -0.5291(9) 0.8792(6)
H15A H 0.4063 -0.5626 0.8958
H16A H 0.3138 -0.6027 0.9689
H17A H 0.1740 -0.5240 0.9229
H14A H 0.2085 -0.3565 0.7431
N17A N 0.6880(8) -0.4249(10) 0.8475(7)
H59A H 0.7124 -0.4741 0.8916
H60A H 0.7272 -0.4265 0.8166
C57A C 0.650(2) -0.3392(17) 0.8598(12)
H63A H 0.6594 -0.3566 0.9135
H64A H 0.6827 -0.3085 0.8369
C58A C 0.5785(17) -0.287(4) 0.837(4)
N18A N 0.5266(9) -0.3025(11) 0.8077(9)
H61A H 0.5011 -0.2581 0.7614
H62A H 0.4860 -0.3031 0.8367
H65A H 0.5761 -0.2322 0.7990
H66A H 0.5539 -0.2726 0.8784
C35A C 0.6897(8) -0.5448(7) 0.7372(6)
H24A H 0.6784 -0.4925 0.6947
H22A H 0.6529 -0.6083 0.9026
C45A C 0.7964(7) -0.3528(8) 0.3573(6)
H30A H 0.7938 -0.3038 0.3155
N13A N 0.7891(6) -0.2196(7) 0.4408(6)
H43A H 0.8327 -0.2453 0.4184
H44A H 0.8033 -0.2538 0.4909
C53A C 0.7726(10) -0.1291(9) 0.4246(9)
H47A H 0.8134 -0.1317 0.4566
H48A H 0.7772 -0.0988 0.3725
C54A C 0.6850(11) -0.0795(11) 0.4393(11)
N14A N 0.6281(7) -0.0885(6) 0.3971(6)
H45A H 0.5797 -0.0778 0.4168
H46A H 0.6151 -0.0481 0.3486
H49A H 0.6683 -0.0164 0.4230
H50A H 0.6825 -0.1048 0.4928
H5A H 0.5914 -0.1502 0.2574
N11A N 0.2157(7) 0.1359(7) 0.0391(6)
H35A H 0.2472 0.1585 0.0106
H36A H 0.2317 0.1209 0.0876
C51A C 0.1306(10) 0.2003(10) 0.0171(11)
H39A H 0.1256 0.2596 -0.0014
H40A H 0.1019 0.1922 0.0607
C52A C 0.0920(13) 0.1968(12) -0.0361(14)
N12A N 0.1173(6) 0.1045(6) -0.0248(6)
H37A H 0.0830 0.0859 0.0031
H38A H 0.1135 0.1025 -0.0696
H41A H 0.0312 0.2289 -0.0373
H42A H 0.1045 0.2274 -0.0846
C30A C 0.2328(11) -0.0766(9) -0.0514(7)
C29A C 0.2302(12) -0.1429(10) -0.0612(7)
C28A C 0.2457(9) -0.2197(8) 0.0009(6)
H19A H 0.2460 -0.2677 -0.0042
H20A H 0.2180 -0.1368 -0.1092
H21A H 0.2272 -0.0267 -0.0939
H18A H 0.2644 -0.1524 0.1211
H23A H 0.2115 -0.2400 0.2012
H26A H 0.2390 -0.4913 0.3845
C61 C 0.4633(10) -0.5777(11) 0.6473(10)
C62 C 0.3873(11) -0.5706(13) 0.6582(11)
H75 H 0.3449 -0.5385 0.6166
C63 C 0.3693(13) -0.6077(12) 0.7262(12)
H76 H 0.3161 -0.6036 0.7312
C64 C 0.4306(12) -0.6528(11) 0.7898(11)
H77 H 0.4186 -0.6776 0.8378
C65 C 0.5087(13) -0.6597(12) 0.7796(11)
H78 H 0.5501 -0.6893 0.8215
C66 C 0.5277(11) -0.6240(11) 0.7092(10)
H79 H 0.5814 -0.6302 0.7027
C67 C 0.4829(9) -0.5372(10) 0.5711(9)
C68 C 0.4404(10) -0.5268(11) 0.5095(9)
H80 H 0.3995 -0.5449 0.5151
C69 C 0.5413(10) -0.5101(11) 0.5600(10)
H81 H 0.5704 -0.5169 0.6015
C69A C 0.4587(10) -0.4899(11) 0.4400(10)
C67A C 0.5171(9) -0.4628(10) 0.4289(9)
C61A C 0.5367(10) -0.4223(11) 0.3527(10)
C62A C 0.6127(11) -0.4294(13) 0.3418(11)
H75A H 0.6551 -0.4615 0.3834
C63A C 0.6307(13) -0.3923(12) 0.2738(12)
H76A H 0.6839 -0.3964 0.2688
C64A C 0.5694(12) -0.3472(11) 0.2102(11)
H77A H 0.5814 -0.3224 0.1622
C65A C 0.4913(13) -0.3403(12) 0.2204(11)
H78A H 0.4499 -0.3107 0.1785
C66A C 0.4723(11) -0.3760(11) 0.2908(10)
H79A H 0.4186 -0.3698 0.2973
C68A C 0.5596(10) -0.4732(11) 0.4905(9)
H80A H 0.6005 -0.4551 0.4849
H81A H 0.4296 -0.4831 0.3985
N21 N 0.9159(9) 0.2653(8) 0.3995(6)
O1 O 0.8431(6) 0.3231(7) 0.3845(5)
O2 O 0.9463(11) 0.2103(13) 0.3761(13)
O3 O 0.9650(8) 0.2660(9) 0.4410(7)
N22 N 0.8211(8) -0.9388(8) 0.7790(6)
O4 O 0.7573(6) -0.8710(6) 0.7631(5)
O5 O 0.8342(8) -1.0102(7) 0.8256(7)
O6 O 0.8806(10) -0.9429(12) 0.7435(10)
N23 N -0.0268(8) -0.2656(9) 0.3623(8)
O7 O -0.0244(8) -0.2668(10) 0.4254(6)
O8 O -0.0833(8) -0.2725(9) 0.3405(8)
O9 O 0.0232(8) -0.2530(9) 0.3243(7)
N24 N 0.6449(7) -0.3158(7) 0.6041(6)
O10 O 0.6239(6) -0.3594(6) 0.5854(5)
O11 O 0.6494(8) -0.3284(7) 0.6708(5)
O12 O 0.6578(8) -0.2577(8) 0.5584(6)
N25 N 0.6324(13) -1.0867(11) 0.8220(9)
O13 O 0.5767(9) -1.0452(9) 0.7691(7)
O14 O 0.7039(10) -1.0946(9) 0.8138(7)
O15 O 0.6189(10) -1.1220(9) 0.8871(7)
N26 N 0.7354(7) -0.2674(8) 0.1319(7)
O16 O 0.7031(8) -0.1885(8) 0.0846(7)
O17 O 0.7754(8) -0.3275(8) 0.1128(6)
O18 O 0.7275(7) -0.2809(8) 0.1959(6)
N27 N 0.930(3) 0.395(2) 0.0007(19)
O19 O 0.9787(14) 0.4193(16) 0.0181(14)
O20 O 0.9202(10) 0.3205(10) 0.0332(8)
O21 O 0.8935(19) 0.458(2) -0.0701(17)
N28 N 0.4597(14) -0.280(2) 1.0009(12)
O22 O 0.4510(9) -0.3477(12) 1.0363(8)
O23 O 0.4255(13) -0.2379(18) 0.9357(12)
O24 O 0.510(2) -0.2643(18) 1.0190(17)
O25 O 0.8767(9) 0.6117(12) -0.0974(8)
O26 O 0.2921(15) -0.8857(13) 0.8078(12)
O27 O 0.1356(11) -0.8711(8) 0.8146(7)
O28 O 0.0352(12) -0.1507(18) -0.0461(14)
O29 O 0.4525(10) -1.0837(11) 0.8790(7)
O30 O 0.5247(17) -0.1534(17) 0.6887(12)
O31 O 0.2765(16) -0.7900(13) 0.3431(12)
O32 O 0.2480(9) 0.2942(8) 0.0347(6)
O33 O 0.0302(11) -0.0513(18) -0.1646(11)
O34 O 0.5192(8) -0.9535(9) 0.5325(9)
O35 O 0.019(3) -0.006(5) 0.055(3)
O36 O 0.0456(11) -0.2721(18) 0.1931(12)
O37 O 0.0668(12) -0.140(2) 0.0993(12)
O38 O 0.3455(11) 0.0401(12) 0.3611(9)
C70? C 1.1286(18) 0.185(2) 0.4063(14)
C71? C 1.1037(18) 0.284(2) 0.3890(14)
C72? C 0.3623(17) -1.0080(17) 0.7661(14)
C73? C 0.3861(13) -1.0472(13) 0.7344(10)
C74? C 0.2772(19) -0.111(2) -0.2601(17)
C75? C 0.256(2) -0.063(2) -0.261(2)
C76? C 0.2479(11) -0.4239(11) 1.0167(10)
C77? C 0.461(3) -0.521(3) 1.024(3)
C78? C 0.370(3) -0.362(4) 0.913(3)
C79? C 0.263(3) -0.243(3) 0.785(2)
C80? C 0.3686(18) -0.4623(19) 0.9996(15)
C81? C 0.2871(14) -0.4164(14) 0.9899(12)
C82? C 0.164(2) -0.198(2) 0.777(2)
C83? C 0.3665(17) -0.2675(18) 0.8588(16)
C84? C 0.178(2) -0.248(3) 0.864(2)
C85? C 0.2711(16) -0.3520(17) 0.9162(15)
C86? C 0.1394(14) -0.1802(14) 0.7325(13)
C87? C 0.1892(16) -0.1039(17) 0.5754(14)
C88? C 0.2595(16) -0.0969(16) 0.5657(15)
C89? C 0.265(2) -0.063(2) 0.498(2)
C90? C 0.355(4) -0.116(4) 0.554(3)
C91? C 0.1717(14) -0.1385(16) 0.5982(13)
C92? C 0.2059(13) 0.0180(14) 0.4208(12)
C93? C 0.452(2) -0.174(2) 0.615(2)
C94? C 0.4639(12) -0.1693(13) 0.5728(12)
C95? C 0.2282(14) -0.0013(15) 0.3276(13)
C96? C 0.3043(19) -0.133(2) 0.6215(18)
C97? C 0.1323(16) 0.0259(17) -0.2540(14)
C98? C 0.0977(17) 0.0333(17) -0.2440(14)
C99? C 1.1706(13) 0.4103(14) 0.2379(12)
C100? C 1.138(4) 0.392(4) 0.324(4)
C101? C 1.126(2) 0.405(3) 0.410(2)
C102? C 1.059(2) 0.409(2) 0.4593(19)
C103? C 1.029(2) 0.451(2) 0.505(2)
C104? C 1.163(3) 0.512(3) 0.241(3)
C105? C 1.1409(16) 0.5962(18) 0.1652(15)
C106? C 1.1522(13) 0.4948(14) 0.2996(13)
loop_
_geom_bond_atom_site_label_1
_geom_bond_atom_site_label_2
_geom_bond_site_symmetry_1
_geom_bond_site_symmetry_2
Pd1 N1 1_555 1_555
Pd2 N2 1_555 1_555
Pd3 N3 1_555 1_555
Pd4 N4 1_555 1_555
Pd5 N5 1_555 1_555
N1 C1 1_555 1_555
C1 H1 1_555 1_555
C2 C1 1_555 1_555
C3 C2 1_555 1_555
H2 C3 1_555 1_555
C4 C3 1_555 1_555
H3 C4 1_555 1_555
C5 N1 1_555 1_555
H4 C5 1_555 1_555
N2 C6 1_555 1_555
C6 H5 1_555 1_555
C7 C2 1_555 1_555
C8 C7 1_555 1_555
H6 C8 1_555 1_555
C9 C8 1_555 1_555
C10 N2 1_555 1_555
H7 C10 1_555 1_555
N3 C11 1_555 1_555
C11 H8 1_555 1_555
C12 C9 1_555 1_555
C13 C12 1_555 1_555
H9 C13 1_555 1_555
C14 C13 1_555 1_555
C15 N3 1_555 1_555
H10 C15 1_555 1_555
N4 C16 1_555 1_555
C16 H11 1_555 1_555
C17 C14 1_555 1_555
C18 C17 1_555 1_555
H12 C18 1_555 1_555
C19 C18 1_555 1_555
C20 N4 1_555 1_555
H13 C20 1_555 1_555
N5 C21 1_555 1_555
C21 H14 1_555 1_555
C22 C19 1_555 1_555
C23 C22 1_555 1_555
H15 C23 1_555 1_555
C24 C23 1_555 1_555
H16 C24 1_555 1_555
C25 N5 1_555 1_555
H17 C25 1_555 1_555
N6 Pd1 1_555 1_555
C26 N6 1_555 1_555
H18 C26 1_555 1_555
C27 C26 1_555 1_555
C28 C27 1_555 1_555
H19 C28 1_555 1_555
C29 C28 1_555 1_555
H20 C29 1_555 1_555
C30 N6 1_555 1_555
H21 C30 1_555 1_555
N7 Pd4 1_555 1_555
C31 N7 1_555 1_555
H22 C31 1_555 1_555
C32 C27 1_555 1_555
C33 C32 1_555 1_555
H23 C33 1_555 1_555
C34 C33 1_555 1_555
C35 N7 1_555 1_555
H24 C35 1_555 1_555
N8 Pd3 1_555 1_555
C36 N8 1_555 1_555
H25 C36 1_555 1_555
C37 C34 1_555 1_555
C38 C37 1_555 1_555
H26 C38 1_555 1_555
C39 C38 1_555 1_555
C40 N8 1_555 1_555
H27 C40 1_555 1_555
N9 Pd2 1_555 1_555
C41 N9 1_555 1_555
H28 C41 1_555 1_555
C42 C39 1_555 1_555
C43 C42 1_555 1_555
H29 C43 1_555 1_555
C44 C43 1_555 1_555
C45 N9 1_555 1_555
H30 C45 1_555 1_555
N10 Pd5 1_555 1_555
C46 N10 1_555 1_555
H31 C46 1_555 1_555
C47 C44 1_555 1_555
C48 C47 1_555 1_555
H32 C48 1_555 1_555
C49 C48 1_555 1_555
H33 C49 1_555 1_555
C50 N10 1_555 1_555
H34 C50 1_555 1_555
N11 Pd1 1_555 1_555
H35 N11 1_555 1_555
H36 N11 1_555 1_555
N12 Pd1 1_555 1_555
H37 N12 1_555 1_555
H38 N12 1_555 1_555
C51 N11 1_555 1_555
H39 C51 1_555 1_555
H40 C51 1_555 1_555
C52 N12 1_555 1_555
H41 C52 1_555 1_555
H42 C52 1_555 1_555
N13 Pd2 1_555 1_555
H43 N13 1_555 1_555
H44 N13 1_555 1_555
N14 Pd2 1_555 1_555
H45 N14 1_555 1_555
H46 N14 1_555 1_555
C53 N13 1_555 1_555
H47 C53 1_555 1_555
H48 C53 1_555 1_555
C54 N14 1_555 1_555
H49 C54 1_555 1_555
H50 C54 1_555 1_555
N15 Pd3 1_555 1_555
H51 N15 1_555 1_555
H52 N15 1_555 1_555
N16 Pd3 1_555 1_555
H53 N16 1_555 1_555
H54 N16 1_555 1_555
C55 N15 1_555 1_555
H55 C55 1_555 1_555
H56 C55 1_555 1_555
C56 N16 1_555 1_555
H57 C56 1_555 1_555
H58 C56 1_555 1_555
N17 Pd4 1_555 1_555
H59 N17 1_555 1_555
H60 N17 1_555 1_555
N18 Pd4 1_555 1_555
H61 N18 1_555 1_555
H62 N18 1_555 1_555
C57 N17 1_555 1_555
H63 C57 1_555 1_555
H64 C57 1_555 1_555
C58 N18 1_555 1_555
H65 C58 1_555 1_555
H66 C58 1_555 1_555
N19 Pd5 1_555 1_555
H67 N19 1_555 1_555
H68 N19 1_555 1_555
N20 Pd5 1_555 1_555
H69 N20 1_555 1_555
H70 N20 1_555 1_555
C59 N19 1_555 1_555
H71 C59 1_555 1_555
H72 C59 1_555 1_555
C60 N20 1_555 1_555
H73 C60 1_555 1_555
H74 C60 1_555 1_555
C61 C62 1_555 1_555
C62 H75 1_555 1_555
C63 C62 1_555 1_555
H76 C63 1_555 1_555
C64 C63 1_555 1_555
H77 C64 1_555 1_555
C65 C64 1_555 1_555
H78 C65 1_555 1_555
C66 C61 1_555 1_555
H79 C66 1_555 1_555
C67 C61 1_555 1_555
C68 C67 1_555 1_555
H80 C68 1_555 1_555
C69 C67 1_555 1_555
H81 C69 1_555 1_555
N21 O1 1_555 1_555
O2 N21 1_555 1_555
O3 N21 1_555 1_555
N22 O4 1_555 1_555
O5 N22 1_555 1_555
O6 N22 1_555 1_555
N23 O7 1_555 1_555
O8 N23 1_555 1_555
O9 N23 1_555 1_555
N24 O10 1_555 1_555
O11 N24 1_555 1_555
O12 N24 1_555 1_555
N25 O13 1_555 1_555
O14 N25 1_555 1_555
O15 N25 1_555 1_555
N26 O16 1_555 1_555
O17 N26 1_555 1_555
O18 N26 1_555 1_555
N27 O19 1_555 1_555
O20 N27 1_555 1_555
O21 N27 1_555 1_555
N28 O22 1_555 1_555
O23 N28 1_555 1_555
O24 N28 1_555 1_555
C42A C41 1_555 1_555
C39A C42A 1_555 1_555
C38A C39A 1_555 1_555
C37A C38A 1_555 1_555
C34A C35 1_555 1_555
C33A C34A 1_555 1_555
C32A C31 1_555 1_555
C27A C32A 1_555 1_555
C26A C27A 1_555 1_555
N6A C26A 1_555 1_555
Pd1A N6A 1_555 1_555
N1A Pd1A 1_555 1_555
C1A N1A 1_555 1_555
H1A C1A 1_555 1_555
C2A C1A 1_555 1_555
C3A C2A 1_555 1_555
H2A C3A 1_555 1_555
C4A C3A 1_555 1_555
H3A C4A 1_555 1_555
C5A N1A 1_555 1_555
H4A C5A 1_555 1_555
C7A C2A 1_555 1_555
C6A C7A 1_555 1_555
N2A C6A 1_555 1_555
Pd2A N2A 1_555 1_555
N9A Pd2A 1_555 1_555
C41A C42 1_555 1_555
H28A C41A 1_555 1_555
C31A C32 1_555 1_555
N7A C31A 1_555 1_555
Pd4A N7A 1_555 1_555
N4A Pd4A 1_555 1_555
C16A N4A 1_555 1_555
H11A C16A 1_555 1_555
C17A C16A 1_555 1_555
C14A C17A 1_555 1_555
C13A C14A 1_555 1_555
C12A C13A 1_555 1_555
C9A C12A 1_555 1_555
C8A C7A 1_555 1_555
H6A C8A 1_555 1_555
C10A N2A 1_555 1_555
H7A C10A 1_555 1_555
C11A C12A 1_555 1_555
N3A C11A 1_555 1_555
Pd3A N3A 1_555 1_555
N8A Pd3A 1_555 1_555
C36A C37A 1_555 1_555
H25A C36A 1_555 1_555
C40A C39A 1_555 1_555
H27A C40A 1_555 1_555
N15A Pd3A 1_555 1_555
H51A N15A 1_555 1_555
H52A N15A 1_555 1_555
C55A N15A 1_555 1_555
H55A C55A 1_555 1_555
H56A C55A 1_555 1_555
C56A C55A 1_555 1_555
N16A Pd3A 1_555 1_555
H53A N16A 1_555 1_555
H54A N16A 1_555 1_555
H57A C56A 1_555 1_555
H58A C56A 1_555 1_555
C15A C14A 1_555 1_555
H10A C15A 1_555 1_555
H8A C11A 1_555 1_555
H9A C13A 1_555 1_555
C18A C17A 1_555 1_555
H12A C18A 1_555 1_555
C19A C18A 1_555 1_555
C20A N4A 1_555 1_555
H13A C20A 1_555 1_555
C22A C19A 1_555 1_555
C21A C22A 1_555 1_555
N5A C21A 1_555 1_555
Pd5A N5A 1_555 1_555
N10A Pd5A 1_555 1_555
C46A N10A 1_555 1_555
H31A C46A 1_555 1_555
C47A C46A 1_555 1_555
C44A C45 1_555 1_555
C43A C42A 1_555 1_555
H29A C43A 1_555 1_555
C48A C47A 1_555 1_555
H32A C48A 1_555 1_555
C49A C48A 1_555 1_555
H33A C49A 1_555 1_555
C50A N10A 1_555 1_555
H34A C50A 1_555 1_555
N19A Pd5A 1_555 1_555
H67A N19A 1_555 1_555
H68A N19A 1_555 1_555
C59A N19A 1_555 1_555
H71A C59A 1_555 1_555
H72A C59A 1_555 1_555
C60A C59A 1_555 1_555
N20A Pd5A 1_555 1_555
H69A N20A 1_555 1_555
H70A N20A 1_555 1_555
H73A C60A 1_555 1_555
H74A C60A 1_555 1_555
C25A N5A 1_555 1_555
C24A C25A 1_555 1_555
C23A C22A 1_555 1_555
H15A C23A 1_555 1_555
H16A C24A 1_555 1_555
H17A C25A 1_555 1_555
H14A C21A 1_555 1_555
N17A Pd4A 1_555 1_555
H59A N17A 1_555 1_555
H60A N17A 1_555 1_555
C57A N17A 1_555 1_555
H63A C57A 1_555 1_555
H64A C57A 1_555 1_555
C58A C57A 1_555 1_555
N18A Pd4A 1_555 1_555
H61A N18A 1_555 1_555
H62A N18A 1_555 1_555
H65A C58A 1_555 1_555
H66A C58A 1_555 1_555
C35A C34 1_555 1_555
H24A C35A 1_555 1_555
H22A C31A 1_555 1_555
C45A C44 1_555 1_555
H30A C45A 1_555 1_555
N13A Pd2A 1_555 1_555
H43A N13A 1_555 1_555
H44A N13A 1_555 1_555
C53A N13A 1_555 1_555
H47A C53A 1_555 1_555
H48A C53A 1_555 1_555
C54A C53A 1_555 1_555
N14A Pd2A 1_555 1_555
H45A N14A 1_555 1_555
H46A N14A 1_555 1_555
H49A C54A 1_555 1_555
H50A C54A 1_555 1_555
H5A C6A 1_555 1_555
N11A Pd1A 1_555 1_555
H35A N11A 1_555 1_555
H36A N11A 1_555 1_555
C51A N11A 1_555 1_555
H39A C51A 1_555 1_555
H40A C51A 1_555 1_555
C52A C51A 1_555 1_555
N12A Pd1A 1_555 1_555
H37A N12A 1_555 1_555
H38A N12A 1_555 1_555
H41A C52A 1_555 1_555
H42A C52A 1_555 1_555
C30A N6A 1_555 1_555
C29A C30A 1_555 1_555
C28A C27A 1_555 1_555
H19A C28A 1_555 1_555
H20A C29A 1_555 1_555
H21A C30A 1_555 1_555
H18A C26A 1_555 1_555
H23A C33A 1_555 1_555
H26A C38A 1_555 1_555
C69A C68 1_555 1_555
C67A C69A 1_555 1_555
C61A C67A 1_555 1_555
C62A C61A 1_555 1_555
H75A C62A 1_555 1_555
C63A C62A 1_555 1_555
H76A C63A 1_555 1_555
C64A C63A 1_555 1_555
H77A C64A 1_555 1_555
C65A C64A 1_555 1_555
H78A C65A 1_555 1_555
C66A C61A 1_555 1_555
H79A C66A 1_555 1_555
C68A C69 1_555 1_555
H80A C68A 1_555 1_555
H81A C69A 1_555 1_555
C4 C5 1_555 1_555
C6 C7 1_555 1_555
C9 C10 1_555 1_555
C11 C12 1_555 1_555
C14 C15 1_555 1_555
C16 C17 1_555 1_555
C19 C20 1_555 1_555
C21 C22 1_555 1_555
C24 C25 1_555 1_555
C29 C30 1_555 1_555
C36 C37 1_555 1_555
C39 C40 1_555 1_555
C46 C47 1_555 1_555
C49 C50 1_555 1_555
C51 C52 1_555 1_555
C53 C54 1_555 1_555
C55 C56 1_555 1_555
C57 C58 1_555 1_555
C59 C60 1_555 1_555
C65 C66 1_555 1_555
C37A C34A 1_555 1_555
C33A C32A 1_555 1_555
C4A C5A 1_555 1_555
N9A C41A 1_555 1_555
N9A C45A 1_555 1_555
N7A C35A 1_555 1_555
C9A C8A 1_555 1_555
C9A C10A 1_555 1_555
N3A C15A 1_555 1_555
N8A C36A 1_555 1_555
N8A C40A 1_555 1_555
C56A N16A 1_555 1_555
C19A C20A 1_555 1_555
C47A C44A 1_555 1_555
C44A C43A 1_555 1_555
C49A C50A 1_555 1_555
C60A N20A 1_555 1_555
C24A C23A 1_555 1_555
C58A N18A 1_555 1_555
C54A N14A 1_555 1_555
C52A N12A 1_555 1_555
C29A C28A 1_555 1_555
C67A C68A 1_555 1_555
C65A C66A 1_555 1_555

#END
