
#######################################################################
#
#                 Cambridge Crystallographic Data Centre
#                                CCDC 
#
#######################################################################
#
# If this CIF has been generated from an entry in the Cambridge 
# Structural Database, then it will include bibliographic, chemical, 
# crystal, experimental, refinement or atomic coordinate data resulting 
# from the CCDC's data processing and validation procedures.
#
#######################################################################

data_XUJVII
_chemical_formula_moiety         'C92 H80 Cd4 F2 N28 6+,6(B1 F4 1-),8(C2 H3 N1)'
_chemical_name_systematic        
'bis(\m~4~-1,2,4,5-tetrakis(3-(2-Pyridyl)pyrazol-1-yl)benzene)-bis(\m~2~-fluoro)-tetrakis(acetonitrile)-tetra-cadmium(ii) hexakis(tetrafluoroborate) acetonitrile solvate'
_symmetry_cell_setting           triclinic
_symmetry_space_group_name_H-M   'P -1'
_symmetry_Int_Tables_number      2
_space_group_name_Hall           '-P 1'
loop_
_symmetry_equiv_pos_site_id
_symmetry_equiv_pos_as_xyz
1 x,y,z
2 -x,-y,-z
_cell_length_a                   13.4883(14)
_cell_length_b                   13.9814(15)
_cell_length_c                   16.7171(18)
_cell_angle_alpha                95.870(6)
_cell_angle_beta                 106.613(5)
_cell_angle_gamma                91.114(5)
_cell_volume                     3001.24
_exptl_crystal_colour            yellow
_exptl_crystal_description       block
_cell_formula_units_Z            1
loop_
_atom_site_label
_atom_site_type_symbol
_atom_site_fract_x
_atom_site_fract_y
_atom_site_fract_z
Cd1 Cd 0.253243(17) 0.789608(15) 0.370374(14)
Cd2 Cd 0.365431(16) 0.643391(15) 0.196847(14)
F1 F 0.37273(14) 0.72249(13) 0.31614(12)
N1 N 0.0771(2) 0.77331(18) 0.28392(17)
C1 C 0.0255(2) 0.6902(2) 0.28536(19)
C2 C -0.0816(3) 0.6785(2) 0.2532(2)
H1 H -0.1164 0.6187 0.2531
C3 C -0.1369(3) 0.7554(3) 0.2212(2)
H2 H -0.2103 0.7495 0.2000
C4 C -0.0842(3) 0.8407(2) 0.2205(2)
H3 H -0.1206 0.8944 0.1988
C5 C 0.0224(3) 0.8466(2) 0.2519(2)
H4 H 0.0586 0.9052 0.2508
N2 N 0.2282(2) 0.55418(17) 0.39445(16)
N3 N 0.1892(2) 0.63628(18) 0.36607(16)
C6 C 0.0888(2) 0.6145(2) 0.3250(2)
C7 C 0.0641(2) 0.5176(2) 0.3280(2)
H5 H -0.0013 0.4839 0.3044
C8 C 0.1554(2) 0.4817(2) 0.3727(2)
H6 H 0.1650 0.4174 0.3857
C9 C 0.3396(2) 0.5552(2) 0.4381(2)
H7 H 0.3558 0.6011 0.4898
H8 H 0.3793 0.5777 0.4014
N4 N 0.1874(2) 0.64060(19) 0.13673(17)
C10 C 0.1331(2) 0.5595(2) 0.13739(19)
C11 C 0.0268(3) 0.5494(3) 0.1006(2)
H9 H -0.0105 0.4911 0.1008
C12 C -0.0239(3) 0.6259(3) 0.0636(2)
H10 H -0.0967 0.6207 0.0384
C13 C 0.0315(3) 0.7094(3) 0.0633(2)
H11 H -0.0021 0.7627 0.0383
C14 C 0.1371(3) 0.7138(2) 0.1005(2)
H12 H 0.1759 0.7713 0.1004
N5 N 0.3170(2) 0.41788(18) 0.26293(16)
N6 N 0.2875(2) 0.50113(18) 0.23086(16)
C15 C 0.1904(2) 0.4818(2) 0.18055(19)
C16 C 0.1583(3) 0.3858(2) 0.1809(2)
H13 H 0.0936 0.3539 0.1506
C17 C 0.2413(3) 0.3481(2) 0.2349(2)
H14 H 0.2446 0.2842 0.2498
C18 C 0.4187(2) 0.4127(2) 0.32462(19)
H15 H 0.4585 0.4748 0.3319
H16 H 0.4577 0.3620 0.3030
N7 N 0.1743(2) 0.85932(19) 0.47375(18)
C19 C 0.2389(3) 0.9101(2) 0.5422(2)
C20 C 0.2036(3) 0.9552(3) 0.6061(2)
H17 H 0.2503 0.9928 0.6527
C21 C 0.1005(3) 0.9449(3) 0.6012(3)
H18 H 0.0755 0.9744 0.6449
C22 C 0.0334(3) 0.8911(3) 0.5320(2)
H19 H -0.0381 0.8820 0.5274
C23 C 0.0740(3) 0.8512(2) 0.4699(2)
H20 H 0.0279 0.8159 0.4215
N8 N 0.4846(2) 0.87518(18) 0.51090(16)
C24 C 0.3492(3) 0.9119(2) 0.5474(2)
C25 C 0.4344(3) 0.9580(2) 0.6096(2)
H21 H 0.4337 0.9981 0.6589
C26 C 0.5186(3) 0.9325(2) 0.5835(2)
H22 H 0.5888 0.9520 0.6119
C27 C 0.5454(2) 0.8244(2) 0.4631(2)
H23 H 0.6102 0.8632 0.4701
H24 H 0.5061 0.8176 0.4027
N9 N 0.3804(2) 0.86075(18) 0.48785(17)
N10 N 0.3830(2) 0.52750(19) 0.08773(17)
C28 C 0.4700(2) 0.4786(2) 0.1063(2)
C29 C 0.4853(3) 0.4005(2) 0.0531(2)
H25 H 0.5472 0.3668 0.0676
C30 C 0.4089(3) 0.3732(2) -0.0209(2)
H26 H 0.4174 0.3199 -0.0580
C31 C 0.3198(3) 0.4239(3) -0.0408(2)
H27 H 0.2666 0.4065 -0.0918
C32 C 0.3100(3) 0.5005(2) 0.0154(2)
H28 H 0.2488 0.5354 0.0019
N11 N 0.6225(2) 0.61088(19) 0.29430(17)
N12 N 0.5333(2) 0.59165(19) 0.23229(16)
C33 C 0.5501(2) 0.5145(2) 0.1844(2)
C34 C 0.6505(3) 0.4846(3) 0.2164(2)
H29 H 0.6816 0.4317 0.1944
C35 C 0.6941(3) 0.5473(3) 0.2858(2)
H30 H 0.7626 0.5466 0.3219
C36 C 0.6328(3) 0.6902(2) 0.3600(2)
H31 H 0.5841 0.7397 0.3378
H32 H 0.7039 0.7198 0.3755
C37 C 0.5727(2) 0.7253(2) 0.4895(2)
C38 C 0.5624(2) 0.6987(2) 0.5648(2)
H33 H 0.5352 0.7428 0.5992
C39 C 0.4091(2) 0.3908(2) 0.4088(2)
C40 C 0.3725(2) 0.4566(2) 0.46072(19)
C41 C 0.3626(2) 0.4300(2) 0.5361(2)
H34 H 0.3372 0.4748 0.5712
C42 C 0.6114(2) 0.6598(2) 0.4382(2)
N13 N 0.2727(2) 0.9037(2) 0.28430(19)
C43 C 0.2992(3) 0.9510(2) 0.2426(2)
C44 C 0.3343(4) 1.0129(3) 0.1905(3)
H35 H 0.3388 1.0800 0.2154
H36 H 0.2850 1.0061 0.1341
H37 H 0.4026 0.9944 0.1868
N14 N 0.3839(2) 0.7670(2) 0.1155(2)
C45 C 0.3868(3) 0.8106(2) 0.0622(2)
C46 C 0.3894(3) 0.8662(3) -0.0060(2)
H38 H 0.3218 0.8591 -0.0488
H39 H 0.4429 0.8428 -0.0312
H40 H 0.4052 0.9343 0.0158
Cd1A Cd 0.746757(17) 0.210392(15) 0.629626(14)
Cd2A Cd 0.634569(16) 0.356609(15) 0.803153(14)
F1A F 0.62727(14) 0.27751(13) 0.68386(12)
N1A N 0.9229(2) 0.22669(18) 0.71608(17)
C1A C 0.9745(2) 0.3098(2) 0.71464(19)
C2A C 1.0816(3) 0.3215(2) 0.7468(2)
H1A H 1.1164 0.3813 0.7469
C3A C 1.1369(3) 0.2446(3) 0.7788(2)
H2A H 1.2103 0.2505 0.8000
C4A C 1.0842(3) 0.1593(2) 0.7795(2)
H3A H 1.1206 0.1056 0.8012
C5A C 0.9776(3) 0.1534(2) 0.7481(2)
H4A H 0.9414 0.0948 0.7492
N2A N 0.7718(2) 0.44582(17) 0.60555(16)
N3A N 0.8108(2) 0.36372(18) 0.63393(16)
C6A C 0.9112(2) 0.3855(2) 0.6750(2)
C7A C 0.9359(2) 0.4824(2) 0.6720(2)
H5A H 1.0013 0.5161 0.6956
C8A C 0.8446(2) 0.5183(2) 0.6273(2)
H6A H 0.8350 0.5826 0.6143
C9A C 0.6604(2) 0.4448(2) 0.5619(2)
H7A H 0.6442 0.3989 0.5102
H8A H 0.6207 0.4223 0.5986
N4A N 0.8126(2) 0.35940(19) 0.86327(17)
C10A C 0.8669(2) 0.4405(2) 0.86261(19)
C11A C 0.9732(3) 0.4506(3) 0.8994(2)
H9A H 1.0105 0.5089 0.8992
C12A C 1.0239(3) 0.3741(3) 0.9364(2)
H10A H 1.0967 0.3793 0.9616
C13A C 0.9685(3) 0.2906(3) 0.9367(2)
H11A H 1.0021 0.2373 0.9617
C14A C 0.8629(3) 0.2862(2) 0.8995(2)
H12A H 0.8241 0.2287 0.8996
N5A N 0.6830(2) 0.58212(18) 0.73707(16)
N6A N 0.7125(2) 0.49887(18) 0.76914(16)
C15A C 0.8096(2) 0.5182(2) 0.81945(19)
C16A C 0.8417(3) 0.6142(2) 0.8191(2)
H13A H 0.9064 0.6461 0.8494
C17A C 0.7587(3) 0.6519(2) 0.7651(2)
H14A H 0.7554 0.7158 0.7502
C18A C 0.5813(2) 0.5873(2) 0.67538(19)
H15A H 0.5415 0.5252 0.6681
H16A H 0.5423 0.6380 0.6970
N7A N 0.8257(2) 0.14068(19) 0.52625(18)
C19A C 0.7611(3) 0.0899(2) 0.4578(2)
C20A C 0.7964(3) 0.0448(3) 0.3939(2)
H17A H 0.7497 0.0072 0.3473
C21A C 0.8995(3) 0.0551(3) 0.3988(3)
H18A H 0.9245 0.0256 0.3551
C22A C 0.9666(3) 0.1089(3) 0.4680(2)
H19A H 1.0381 0.1180 0.4726
C23A C 0.9260(3) 0.1488(2) 0.5301(2)
H20A H 0.9721 0.1841 0.5785
N8A N 0.5154(2) 0.12482(18) 0.48910(16)
C24A C 0.6508(3) 0.0881(2) 0.4526(2)
C25A C 0.5656(3) 0.0420(2) 0.3904(2)
H21A H 0.5663 0.0019 0.3411
C26A C 0.4814(3) 0.0675(2) 0.4165(2)
H22A H 0.4112 0.0480 0.3881
C27A C 0.4546(2) 0.1756(2) 0.5369(2)
H23A H 0.3898 0.1368 0.5299
H24A H 0.4939 0.1824 0.5973
N9A N 0.6196(2) 0.13925(18) 0.51215(17)
N10A N 0.6170(2) 0.47250(19) 0.91227(17)
C28A C 0.5300(2) 0.5214(2) 0.8937(2)
C29A C 0.5147(3) 0.5995(2) 0.9469(2)
H25A H 0.4528 0.6332 0.9324
C30A C 0.5911(3) 0.6268(2) 1.0209(2)
H26A H 0.5826 0.6801 1.0580
C31A C 0.6802(3) 0.5761(3) 1.0408(2)
H27A H 0.7334 0.5935 1.0918
C32A C 0.6900(3) 0.4995(2) 0.9846(2)
H28A H 0.7512 0.4646 0.9981
N11A N 0.3775(2) 0.38912(19) 0.70570(17)
N12A N 0.4667(2) 0.40835(19) 0.76771(16)
C33A C 0.4499(2) 0.4855(2) 0.8156(2)
C34A C 0.3495(3) 0.5154(3) 0.7836(2)
H29A H 0.3184 0.5683 0.8056
C35A C 0.3059(3) 0.4527(3) 0.7142(2)
H30A H 0.2374 0.4534 0.6781
C36A C 0.3672(3) 0.3098(2) 0.6400(2)
H31A H 0.4159 0.2603 0.6622
H32A H 0.2961 0.2802 0.6245
C37A C 0.4273(2) 0.2747(2) 0.5105(2)
C38A C 0.4376(2) 0.3013(2) 0.4352(2)
H33A H 0.4648 0.2572 0.4008
C39A C 0.5909(2) 0.6092(2) 0.5912(2)
C40A C 0.6275(2) 0.5434(2) 0.53928(19)
C41A C 0.6374(2) 0.5700(2) 0.4639(2)
H34A H 0.6628 0.5252 0.4288
C42A C 0.3886(2) 0.3402(2) 0.5618(2)
N13A N 0.7273(2) 0.0963(2) 0.71570(19)
C43A C 0.7008(3) 0.0490(2) 0.7574(2)
C44A C 0.6657(4) -0.0129(3) 0.8095(3)
H35A H 0.6612 -0.0800 0.7846
H36A H 0.7150 -0.0061 0.8659
H37A H 0.5974 0.0056 0.8132
N14A N 0.6161(2) 0.2330(2) 0.8845(2)
C45A C 0.6132(3) 0.1894(2) 0.9378(2)
C46A C 0.6106(3) 0.1338(3) 1.0060(2)
H38A H 0.6782 0.1409 1.0488
H39A H 0.5571 0.1572 1.0312
H40A H 0.5948 0.0657 0.9842
B1 B 0.63729(18) 0.92657(16) 0.16748(15)
F2 F 0.6358(4) 0.8471(3) 0.1108(3)
F3 F 0.5510(3) 0.9804(3) 0.1608(4)
F4 F 0.6594(5) 0.8824(3) 0.2407(2)
F5 F 0.7222(3) 0.9855(3) 0.1677(4)
B2 B 0.84486(16) 0.35008(16) 0.14731(14)
F6 F 0.9167(4) 0.3113(4) 0.1100(5)
F7 F 0.8661(4) 0.3283(6) 0.2295(3)
F8 F 0.8497(4) 0.45111(19) 0.1482(5)
F9 F 0.7453(3) 0.3149(4) 0.1013(3)
B3 B 0.17795(18) 0.13885(16) 0.36145(15)
F10 F 0.2168(4) 0.1202(5) 0.4453(3)
F11 F 0.2586(4) 0.1436(3) 0.3261(4)
F12 F 0.1022(4) 0.0698(3) 0.3181(3)
F13 F 0.1340(4) 0.2297(2) 0.3623(4)
N15 N 0.6694(3) 0.3160(3) 0.3776(2)
C47 C 0.6673(3) 0.2656(3) 0.3197(2)
C48 C 0.6656(3) 0.2018(3) 0.2453(3)
H41 H 0.6472 0.2376 0.1961
H42 H 0.6142 0.1486 0.2377
H43 H 0.7342 0.1761 0.2518
N16 N -0.1039(7) 0.6314(11) 0.4457(5)
C49 C -0.0335(8) 0.6410(11) 0.5024(6)
C50 C 0.0548(9) 0.6548(9) 0.5785(7)
H44 H 0.0362 0.6972 0.6219
H45 H 0.1142 0.6841 0.5656
H46 H 0.0729 0.5924 0.5989
N17 N 0.8817(11) 0.0586(8) -0.0233(7)
C51 C 0.9203(11) 0.0745(8) 0.0460(7)
C52 C 0.9833(13) 0.0983(9) 0.1344(7)
H47 H 1.0158 0.0405 0.1560
H48 H 0.9388 0.1226 0.1683
H49 H 1.0371 0.1478 0.1375
N18 N 0.4126(5) 0.2351(7) 0.1560(7)
C53 C 0.3432(7) 0.2163(7) 0.1025(8)
C54 C 0.2463(7) 0.1929(8) 0.0339(8)
H50 H 0.2128 0.1337 0.0427
H51 H 0.2621 0.1837 -0.0200
H52 H 0.1996 0.2459 0.0334
loop_
_geom_bond_atom_site_label_1
_geom_bond_atom_site_label_2
_geom_bond_site_symmetry_1
_geom_bond_site_symmetry_2
Cd1 F1 1_555 1_555
Cd2 F1 1_555 1_555
N1 Cd1 1_555 1_555
C1 N1 1_555 1_555
C2 C1 1_555 1_555
H1 C2 1_555 1_555
C3 C2 1_555 1_555
H2 C3 1_555 1_555
C4 C3 1_555 1_555
H3 C4 1_555 1_555
C5 N1 1_555 1_555
H4 C5 1_555 1_555
N2 N3 1_555 1_555
N3 Cd1 1_555 1_555
C6 C1 1_555 1_555
C7 C6 1_555 1_555
H5 C7 1_555 1_555
C8 N2 1_555 1_555
H6 C8 1_555 1_555
C9 N2 1_555 1_555
H7 C9 1_555 1_555
H8 C9 1_555 1_555
N4 Cd2 1_555 1_555
C10 N4 1_555 1_555
C11 C10 1_555 1_555
H9 C11 1_555 1_555
C12 C11 1_555 1_555
H10 C12 1_555 1_555
C13 C12 1_555 1_555
H11 C13 1_555 1_555
C14 N4 1_555 1_555
H12 C14 1_555 1_555
N5 N6 1_555 1_555
N6 Cd2 1_555 1_555
C15 C10 1_555 1_555
C16 C15 1_555 1_555
H13 C16 1_555 1_555
C17 N5 1_555 1_555
H14 C17 1_555 1_555
C18 N5 1_555 1_555
H15 C18 1_555 1_555
H16 C18 1_555 1_555
N7 Cd1 1_555 1_555
C19 N7 1_555 1_555
C20 C19 1_555 1_555
H17 C20 1_555 1_555
C21 C20 1_555 1_555
H18 C21 1_555 1_555
C22 C21 1_555 1_555
H19 C22 1_555 1_555
C23 N7 1_555 1_555
H20 C23 1_555 1_555
N8 C26 1_555 1_555
C24 C19 1_555 1_555
C25 C24 1_555 1_555
H21 C25 1_555 1_555
C26 C25 1_555 1_555
H22 C26 1_555 1_555
C27 N8 1_555 1_555
H23 C27 1_555 1_555
H24 C27 1_555 1_555
N9 Cd1 1_555 1_555
N10 Cd2 1_555 1_555
C28 N10 1_555 1_555
C29 C28 1_555 1_555
H25 C29 1_555 1_555
C30 C29 1_555 1_555
H26 C30 1_555 1_555
C31 C30 1_555 1_555
H27 C31 1_555 1_555
C32 N10 1_555 1_555
H28 C32 1_555 1_555
N11 N12 1_555 1_555
N12 Cd2 1_555 1_555
C33 C28 1_555 1_555
C34 C33 1_555 1_555
H29 C34 1_555 1_555
C35 N11 1_555 1_555
H30 C35 1_555 1_555
C36 N11 1_555 1_555
H31 C36 1_555 1_555
H32 C36 1_555 1_555
C37 C27 1_555 1_555
C38 C37 1_555 1_555
H33 C38 1_555 1_555
C39 C18 1_555 1_555
C40 C9 1_555 1_555
C41 C40 1_555 1_555
H34 C41 1_555 1_555
C42 C36 1_555 1_555
N13 Cd1 1_555 1_555
C43 N13 1_555 1_555
C44 C43 1_555 1_555
H35 C44 1_555 1_555
H36 C44 1_555 1_555
H37 C44 1_555 1_555
N14 Cd2 1_555 1_555
C45 N14 1_555 1_555
C46 C45 1_555 1_555
H38 C46 1_555 1_555
H39 C46 1_555 1_555
H40 C46 1_555 1_555
B1 F2 1_555 1_555
F3 B1 1_555 1_555
F4 B1 1_555 1_555
F5 B1 1_555 1_555
B2 F6 1_555 1_555
F7 B2 1_555 1_555
F8 B2 1_555 1_555
F9 B2 1_555 1_555
B3 F10 1_555 1_555
F11 B3 1_555 1_555
F12 B3 1_555 1_555
F13 B3 1_555 1_555
N15 C47 1_555 1_555
C47 C48 1_555 1_555
C48 H41 1_555 1_555
H42 C48 1_555 1_555
H43 C48 1_555 1_555
N16 C49 1_555 1_555
C49 C50 1_555 1_555
C50 H44 1_555 1_555
H45 C50 1_555 1_555
H46 C50 1_555 1_555
N17 C51 1_555 1_555
C51 C52 1_555 1_555
C52 H47 1_555 1_555
H48 C52 1_555 1_555
H49 C52 1_555 1_555
N18 C53 1_555 1_555
C53 C54 1_555 1_555
C54 H50 1_555 1_555
H51 C54 1_555 1_555
H52 C54 1_555 1_555
Cd1A F1A 1_555 1_555
Cd2A F1A 1_555 1_555
N1A Cd1A 1_555 1_555
C1A N1A 1_555 1_555
C2A C1A 1_555 1_555
H1A C2A 1_555 1_555
C3A C2A 1_555 1_555
H2A C3A 1_555 1_555
C4A C3A 1_555 1_555
H3A C4A 1_555 1_555
C5A N1A 1_555 1_555
H4A C5A 1_555 1_555
N2A N3A 1_555 1_555
N3A Cd1A 1_555 1_555
C6A C1A 1_555 1_555
C7A C6A 1_555 1_555
H5A C7A 1_555 1_555
C8A N2A 1_555 1_555
H6A C8A 1_555 1_555
C9A N2A 1_555 1_555
H7A C9A 1_555 1_555
H8A C9A 1_555 1_555
N4A Cd2A 1_555 1_555
C10A N4A 1_555 1_555
C11A C10A 1_555 1_555
H9A C11A 1_555 1_555
C12A C11A 1_555 1_555
H10A C12A 1_555 1_555
C13A C12A 1_555 1_555
H11A C13A 1_555 1_555
C14A N4A 1_555 1_555
H12A C14A 1_555 1_555
N5A N6A 1_555 1_555
N6A Cd2A 1_555 1_555
C15A C10A 1_555 1_555
C16A C15A 1_555 1_555
H13A C16A 1_555 1_555
C17A N5A 1_555 1_555
H14A C17A 1_555 1_555
C18A N5A 1_555 1_555
H15A C18A 1_555 1_555
H16A C18A 1_555 1_555
N7A Cd1A 1_555 1_555
C19A N7A 1_555 1_555
C20A C19A 1_555 1_555
H17A C20A 1_555 1_555
C21A C20A 1_555 1_555
H18A C21A 1_555 1_555
C22A C21A 1_555 1_555
H19A C22A 1_555 1_555
C23A N7A 1_555 1_555
H20A C23A 1_555 1_555
N8A C26A 1_555 1_555
C24A C19A 1_555 1_555
C25A C24A 1_555 1_555
H21A C25A 1_555 1_555
C26A C25A 1_555 1_555
H22A C26A 1_555 1_555
C27A N8A 1_555 1_555
H23A C27A 1_555 1_555
H24A C27A 1_555 1_555
N9A Cd1A 1_555 1_555
N10A Cd2A 1_555 1_555
C28A N10A 1_555 1_555
C29A C28A 1_555 1_555
H25A C29A 1_555 1_555
C30A C29A 1_555 1_555
H26A C30A 1_555 1_555
C31A C30A 1_555 1_555
H27A C31A 1_555 1_555
C32A N10A 1_555 1_555
H28A C32A 1_555 1_555
N11A N12A 1_555 1_555
N12A Cd2A 1_555 1_555
C33A C28A 1_555 1_555
C34A C33A 1_555 1_555
H29A C34A 1_555 1_555
C35A N11A 1_555 1_555
H30A C35A 1_555 1_555
C36A N11A 1_555 1_555
H31A C36A 1_555 1_555
H32A C36A 1_555 1_555
C37A C27A 1_555 1_555
C38A C39 1_555 1_555
H33A C38A 1_555 1_555
C39A C38 1_555 1_555
C40A C9A 1_555 1_555
C41A C42 1_555 1_555
H34A C41A 1_555 1_555
C42A C41 1_555 1_555
N13A Cd1A 1_555 1_555
C43A N13A 1_555 1_555
C44A C43A 1_555 1_555
H35A C44A 1_555 1_555
H36A C44A 1_555 1_555
H37A C44A 1_555 1_555
N14A Cd2A 1_555 1_555
C45A N14A 1_555 1_555
C46A C45A 1_555 1_555
H38A C46A 1_555 1_555
H39A C46A 1_555 1_555
H40A C46A 1_555 1_555
C4 C5 1_555 1_555
N3 C6 1_555 1_555
C7 C8 1_555 1_555
C13 C14 1_555 1_555
N6 C15 1_555 1_555
C16 C17 1_555 1_555
C22 C23 1_555 1_555
N8 N9 1_555 1_555
C24 N9 1_555 1_555
C31 C32 1_555 1_555
N12 C33 1_555 1_555
C34 C35 1_555 1_555
C37 C42 1_555 1_555
C39 C40 1_555 1_555
C4A C5A 1_555 1_555
N3A C6A 1_555 1_555
C7A C8A 1_555 1_555
C13A C14A 1_555 1_555
N6A C15A 1_555 1_555
C16A C17A 1_555 1_555
C18A C39A 1_555 1_555
C22A C23A 1_555 1_555
N8A N9A 1_555 1_555
C24A N9A 1_555 1_555
C31A C32A 1_555 1_555
N12A C33A 1_555 1_555
C34A C35A 1_555 1_555
C36A C42A 1_555 1_555
C37A C38A 1_555 1_555
C37A C42A 1_555 1_555
C39A C40A 1_555 1_555
C40A C41A 1_555 1_555

#END
