
#######################################################################
#
#                 Cambridge Crystallographic Data Centre
#                                CCDC 
#
#######################################################################
#
# If this CIF has been generated from an entry in the Cambridge 
# Structural Database, then it will include bibliographic, chemical, 
# crystal, experimental, refinement or atomic coordinate data resulting 
# from the CCDC's data processing and validation procedures.
#
#######################################################################

data_XUJVAA
_chemical_formula_moiety         
'C88 H84 Cd4 F2 N24 O4 6+,6(B1 F4 1-),6(C1 H4 O1)'
_chemical_name_systematic        
'bis(\m~4~-1,2,4,5-tetrakis(3-(2-Pyridyl)pyrazol-1-yl)benzene)-bis(\m~2~-fluoro)-tetrakis(methanol)-tetra-cadmium(ii) hexakis(tetrafluoroborate) methanol solvate'
_symmetry_cell_setting           monoclinic
_symmetry_space_group_name_H-M   'P 21/n'
_symmetry_Int_Tables_number      14
_space_group_name_Hall           '-P 2yn'
loop_
_symmetry_equiv_pos_site_id
_symmetry_equiv_pos_as_xyz
1 x,y,z
2 1/2-x,1/2+y,1/2-z
3 -x,-y,-z
4 1/2+x,1/2-y,1/2+z
_cell_length_a                   13.8873(11)
_cell_length_b                   27.175(2)
_cell_length_c                   14.4995(11)
_cell_angle_alpha                90
_cell_angle_beta                 99.468(4)
_cell_angle_gamma                90
_cell_volume                     5397.39
_exptl_crystal_colour            colorless
_exptl_crystal_description       plate
_cell_formula_units_Z            2
loop_
_atom_site_label
_atom_site_type_symbol
_atom_site_fract_x
_atom_site_fract_y
_atom_site_fract_z
Cd1 Cd 0.76185(4) 0.36208(2) 0.47583(4)
Cd2 Cd 0.56058(4) 0.36484(2) 0.24380(4)
F1 F 0.6158(3) 0.35886(18) 0.3943(3)
O1 O 0.7620(5) 0.2784(2) 0.4503(5)
C1 C 0.8417(9) 0.2480(4) 0.4872(8)
H1 H 0.9010 0.2680 0.5010
H2 H 0.8506 0.2226 0.4414
H3 H 0.8286 0.2324 0.5448
O2 O 0.5763(5) 0.2792(2) 0.2410(6)
C2 C 0.4983(8) 0.2475(4) 0.2163(9)
H4 H 0.4749 0.2361 0.2728
H5 H 0.5192 0.2192 0.1828
H6 H 0.4455 0.2648 0.1759
N1 N 0.8664(5) 0.3676(3) 0.3635(5)
C3 C 0.9049(5) 0.4130(3) 0.3538(6)
C4 C 0.9727(7) 0.4205(3) 0.2969(6)
H7 H 1.0005 0.4522 0.2931
C5 C 1.0010(7) 0.3821(4) 0.2451(7)
H8 H 1.0468 0.3871 0.2040
C6 C 0.9605(7) 0.3355(4) 0.2547(6)
H9 H 0.9786 0.3081 0.2206
C7 C 0.8944(6) 0.3302(3) 0.3139(6)
H10 H 0.8670 0.2986 0.3203
N2 N 0.7696(5) 0.4880(2) 0.4858(5)
N3 N 0.7895(4) 0.4450(2) 0.4458(5)
C8 C 0.8671(5) 0.4529(3) 0.4047(6)
C9 C 0.8979(6) 0.5019(3) 0.4187(7)
H11 H 0.9516 0.5173 0.3974
C10 C 0.8338(6) 0.5229(3) 0.4696(6)
H12 H 0.8346 0.5562 0.4900
C11 C 0.6854(6) 0.4919(3) 0.5337(6)
H13 H 0.7081 0.4949 0.6018
H14 H 0.6456 0.4616 0.5226
N4 N 0.6925(5) 0.3668(2) 0.1605(5)
C12 C 0.7221(5) 0.4126(3) 0.1405(5)
C13 C 0.7831(6) 0.4201(3) 0.0745(6)
H15 H 0.8003 0.4524 0.0587
C14 C 0.8184(7) 0.3796(4) 0.0322(7)
H16 H 0.8613 0.3838 -0.0119
C15 C 0.7899(7) 0.3331(3) 0.0553(7)
H17 H 0.8140 0.3047 0.0283
C16 C 0.7267(6) 0.3284(3) 0.1175(6)
H18 H 0.7058 0.2963 0.1311
N5 N 0.6071(5) 0.4879(2) 0.2894(5)
N6 N 0.6209(5) 0.4441(2) 0.2474(5)
C17 C 0.6864(6) 0.4532(3) 0.1916(6)
C18 C 0.7137(6) 0.5025(3) 0.1969(6)
H19 H 0.7591 0.5184 0.1643
C19 C 0.6612(6) 0.5236(3) 0.2594(6)
H20 H 0.6630 0.5571 0.2778
C20 C 0.5359(6) 0.4909(3) 0.3540(6)
H21 H 0.5406 0.4609 0.3931
H22 H 0.4691 0.4925 0.3176
N7 N 0.9012(5) 0.3663(3) 0.5996(5)
C21 C 0.8817(6) 0.3671(3) 0.6867(6)
C22 C 0.9532(6) 0.3753(3) 0.7657(6)
H23 H 0.9369 0.3766 0.8268
C23 C 1.0489(6) 0.3814(3) 0.7506(7)
H24 H 1.0996 0.3867 0.8021
C24 C 1.0704(6) 0.3797(3) 0.6609(7)
H25 H 1.1356 0.3830 0.6498
C25 C 0.9942(6) 0.3729(3) 0.5883(7)
H26 H 1.0084 0.3730 0.5264
N8 N 0.6290(5) 0.3400(2) 0.6535(5)
N9 N 0.7111(5) 0.3538(2) 0.6209(5)
C26 C 0.7804(6) 0.3562(3) 0.6986(6)
C27 C 0.7417(7) 0.3441(4) 0.7785(6)
H27 H 0.7748 0.3431 0.8413
C28 C 0.6450(7) 0.3341(4) 0.7461(7)
H28 H 0.5977 0.3247 0.7833
C29 C 0.5395(6) 0.3317(3) 0.5880(6)
H29 H 0.4965 0.3097 0.6174
H30 H 0.5555 0.3147 0.5321
N10 N 0.4599(5) 0.3736(2) 0.0906(5)
C30 C 0.3632(6) 0.3706(3) 0.0901(6)
C31 C 0.2949(6) 0.3770(3) 0.0087(6)
H31 H 0.2269 0.3755 0.0105
C32 C 0.3281(6) 0.3856(3) -0.0740(6)
H32 H 0.2833 0.3898 -0.1304
C33 C 0.4270(7) 0.3882(3) -0.0740(6)
H33 H 0.4515 0.3936 -0.1306
C34 C 0.4900(6) 0.3827(3) 0.0092(6)
H34 H 0.5581 0.3856 0.0088
N11 N 0.3487(5) 0.3384(2) 0.3244(5)
N12 N 0.3980(5) 0.3551(2) 0.2576(5)
C35 C 0.3320(6) 0.3574(3) 0.1778(6)
C36 C 0.2400(6) 0.3423(3) 0.1962(6)
H35 H 0.1809 0.3406 0.1528
C37 C 0.2532(6) 0.3307(3) 0.2893(7)
H36 H 0.2045 0.3194 0.3231
C38 C 0.3994(6) 0.3313(3) 0.4191(6)
H37 H 0.4633 0.3157 0.4166
H38 H 0.3610 0.3084 0.4517
C39 C 0.6225(3) 0.53663(14) 0.4989(3)
C40 C 0.5544(4) 0.53621(14) 0.4172(3)
C41 C 0.5009(3) 0.57838(17) 0.3890(3)
H39 H 0.4543 0.5781 0.3331
C42 C 0.4845(3) 0.37903(14) 0.5575(3)
C43 C 0.4164(4) 0.37861(14) 0.4757(3)
C44 C 0.6371(3) 0.57922(17) 0.5525(3)
H40 H 0.6837 0.5795 0.6084
Cd1B Cd 0.23815(4) 0.63792(2) 0.52417(4)
Cd2B Cd 0.43942(4) 0.63516(2) 0.75620(4)
F1B F 0.3842(3) 0.64114(18) 0.6057(3)
O1B O 0.2380(5) 0.7216(2) 0.5497(5)
C1B C 0.1583(9) 0.7520(4) 0.5128(8)
H1B H 0.0990 0.7320 0.4990
H2B H 0.1494 0.7774 0.5586
H3B H 0.1714 0.7676 0.4552
O2B O 0.4237(5) 0.7208(2) 0.7590(6)
C2B C 0.5017(8) 0.7525(4) 0.7837(9)
H4B H 0.5251 0.7639 0.7272
H5B H 0.4808 0.7808 0.8172
H6B H 0.5545 0.7352 0.8241
N1B N 0.1336(5) 0.6324(3) 0.6365(5)
C3B C 0.0951(5) 0.5870(3) 0.6462(6)
C4B C 0.0273(7) 0.5795(3) 0.7031(6)
H7B H -0.0005 0.5478 0.7069
C5B C -0.0010(7) 0.6179(4) 0.7549(7)
H8B H -0.0468 0.6129 0.7960
C6B C 0.0395(7) 0.6645(4) 0.7453(6)
H9B H 0.0214 0.6919 0.7794
C7B C 0.1056(6) 0.6698(3) 0.6861(6)
H10B H 0.1330 0.7014 0.6797
N2B N 0.2304(5) 0.5120(2) 0.5142(5)
N3B N 0.2105(4) 0.5550(2) 0.5542(5)
C8B C 0.1329(5) 0.5471(3) 0.5953(6)
C9B C 0.1021(6) 0.4981(3) 0.5813(7)
H11B H 0.0484 0.4827 0.6026
C10B C 0.1662(6) 0.4771(3) 0.5304(6)
H12B H 0.1654 0.4438 0.5100
C11B C 0.3146(6) 0.5081(3) 0.4663(6)
H13B H 0.2919 0.5051 0.3982
H14B H 0.3544 0.5384 0.4774
N4B N 0.3075(5) 0.6332(2) 0.8395(5)
C12B C 0.2779(5) 0.5874(3) 0.8595(5)
C13B C 0.2169(6) 0.5799(3) 0.9255(6)
H15B H 0.1997 0.5476 0.9413
C14B C 0.1816(7) 0.6204(4) 0.9678(7)
H16B H 0.1387 0.6162 1.0119
C15B C 0.2101(7) 0.6669(3) 0.9447(7)
H17B H 0.1860 0.6953 0.9717
C16B C 0.2733(6) 0.6716(3) 0.8825(6)
H18B H 0.2942 0.7037 0.8689
N5B N 0.3929(5) 0.5121(2) 0.7106(5)
N6B N 0.3791(5) 0.5559(2) 0.7526(5)
C17B C 0.3136(6) 0.5468(3) 0.8084(6)
C18B C 0.2863(6) 0.4975(3) 0.8031(6)
H19B H 0.2409 0.4816 0.8357
C19B C 0.3388(6) 0.4764(3) 0.7406(6)
H20B H 0.3370 0.4429 0.7222
C20B C 0.4641(6) 0.5091(3) 0.6460(6)
H21B H 0.4594 0.5391 0.6069
H22B H 0.5309 0.5075 0.6824
N7B N 0.0988(5) 0.6337(3) 0.4004(5)
C21B C 0.1183(6) 0.6329(3) 0.3133(6)
C22B C 0.0468(6) 0.6247(3) 0.2343(6)
H23B H 0.0631 0.6234 0.1732
C23B C -0.0489(6) 0.6186(3) 0.2494(7)
H24B H -0.0996 0.6133 0.1979
C24B C -0.0704(6) 0.6203(3) 0.3391(7)
H25B H -0.1356 0.6170 0.3502
C25B C 0.0058(6) 0.6271(3) 0.4117(7)
H26B H -0.0084 0.6270 0.4736
N8B N 0.3710(5) 0.6600(2) 0.3465(5)
N9B N 0.2889(5) 0.6462(2) 0.3791(5)
C26B C 0.2196(6) 0.6438(3) 0.3014(6)
C27B C 0.2583(7) 0.6559(4) 0.2215(6)
H27B H 0.2252 0.6569 0.1587
C28B C 0.3550(7) 0.6659(4) 0.2539(7)
H28B H 0.4023 0.6753 0.2167
C29B C 0.4605(6) 0.6683(3) 0.4120(6)
H29B H 0.5035 0.6903 0.3826
H30B H 0.4445 0.6853 0.4679
N10B N 0.5401(5) 0.6264(2) 0.9094(5)
C30B C 0.6368(6) 0.6294(3) 0.9099(6)
C31B C 0.7051(6) 0.6230(3) 0.9913(6)
H31B H 0.7731 0.6245 0.9895
C32B C 0.6719(6) 0.6144(3) 1.0740(6)
H32B H 0.7167 0.6102 1.1304
C33B C 0.5730(7) 0.6118(3) 1.0740(6)
H33B H 0.5485 0.6064 1.1306
C34B C 0.5100(6) 0.6173(3) 0.9908(6)
H34B H 0.4419 0.6144 0.9912
N11B N 0.6513(5) 0.6616(2) 0.6756(5)
N12B N 0.6020(5) 0.6449(2) 0.7424(5)
C35B C 0.6680(6) 0.6426(3) 0.8222(6)
C36B C 0.7600(6) 0.6577(3) 0.8038(6)
H35B H 0.8191 0.6594 0.8472
C37B C 0.7468(6) 0.6693(3) 0.7107(7)
H36B H 0.7955 0.6806 0.6769
C38B C 0.6006(6) 0.6687(3) 0.5809(6)
H37B H 0.5367 0.6843 0.5834
H38B H 0.6390 0.6916 0.5483
C39B C 0.3775(3) 0.46337(14) 0.5011(3)
C40B C 0.4456(4) 0.46379(14) 0.5828(3)
C41B C 0.4991(3) 0.42162(17) 0.6110(3)
H39B H 0.5457 0.4219 0.6669
C42B C 0.5155(3) 0.62097(14) 0.4425(3)
C43B C 0.5836(4) 0.62139(14) 0.5243(3)
C44B C 0.3629(3) 0.42078(17) 0.4475(3)
H40B H 0.3163 0.4205 0.3916
B1 B 0.5350(7) 0.1997(4) 0.4817(8)
F2 F 0.5495(4) 0.1499(2) 0.4835(5)
F3 F 0.4422(4) 0.2107(2) 0.4337(4)
F4 F 0.6032(4) 0.2218(3) 0.4327(5)
F5 F 0.5468(5) 0.2182(2) 0.5712(4)
B2 B 0.8188(7) 0.1941(4) 0.2069(7)
F6 F 0.9111(4) 0.2069(2) 0.2541(4)
F7 F 0.7479(4) 0.2144(2) 0.2528(4)
F8 F 0.8094(4) 0.14338(19) 0.2041(4)
F9 F 0.8078(5) 0.2118(2) 0.1155(4)
B3 B 0.3074(8) 0.9925(4) 0.2951(9)
F10 F 0.2976(4) 1.0358(2) 0.3456(4)
F11 F 0.3606(4) 1.0022(3) 0.2251(4)
F12 F 0.3529(5) 0.9567(2) 0.3571(4)
F13 F 0.2146(4) 0.9753(2) 0.2560(4)
O3 O 0.0978(5) 0.0527(2) 0.3517(5)
C45 C 0.0777(7) 0.0100(4) 0.4021(7)
H41 H 0.1158 0.0111 0.4653
H42 H 0.0956 -0.0195 0.3697
H43 H 0.0080 0.0089 0.4060
O4 O 0.3611(5) 0.9627(3) 0.5557(5)
C46 C 0.4541(8) 0.9791(4) 0.5962(10)
H44 H 0.4646 1.0125 0.5741
H45 H 0.5037 0.9570 0.5785
H46 H 0.4591 0.9794 0.6644
O5 O 0.1430(11) 0.3043(6) 0.4742(11)
C47 C 0.1054(14) 0.2554(7) 0.4436(14)
H47 H 0.1601 0.2335 0.4377
H48 H 0.0627 0.2582 0.3829
H49 H 0.0683 0.2419 0.4897
loop_
_geom_bond_atom_site_label_1
_geom_bond_atom_site_label_2
_geom_bond_site_symmetry_1
_geom_bond_site_symmetry_2
Cd1 F1 1_555 1_555
Cd2 F1 1_555 1_555
O1 Cd1 1_555 1_555
C1 O1 1_555 1_555
H1 C1 1_555 1_555
H2 C1 1_555 1_555
H3 C1 1_555 1_555
O2 Cd2 1_555 1_555
C2 O2 1_555 1_555
H4 C2 1_555 1_555
H5 C2 1_555 1_555
H6 C2 1_555 1_555
N1 Cd1 1_555 1_555
C3 N1 1_555 1_555
C4 C3 1_555 1_555
H7 C4 1_555 1_555
C5 C4 1_555 1_555
H8 C5 1_555 1_555
C6 C5 1_555 1_555
H9 C6 1_555 1_555
C7 N1 1_555 1_555
H10 C7 1_555 1_555
N2 N3 1_555 1_555
N3 Cd1 1_555 1_555
C8 C3 1_555 1_555
C9 C8 1_555 1_555
H11 C9 1_555 1_555
C10 N2 1_555 1_555
H12 C10 1_555 1_555
C11 N2 1_555 1_555
H13 C11 1_555 1_555
H14 C11 1_555 1_555
N4 Cd2 1_555 1_555
C12 N4 1_555 1_555
C13 C12 1_555 1_555
H15 C13 1_555 1_555
C14 C13 1_555 1_555
H16 C14 1_555 1_555
C15 C14 1_555 1_555
H17 C15 1_555 1_555
C16 N4 1_555 1_555
H18 C16 1_555 1_555
N5 N6 1_555 1_555
N6 Cd2 1_555 1_555
C17 C12 1_555 1_555
C18 C17 1_555 1_555
H19 C18 1_555 1_555
C19 N5 1_555 1_555
H20 C19 1_555 1_555
C20 N5 1_555 1_555
H21 C20 1_555 1_555
H22 C20 1_555 1_555
N7 Cd1 1_555 1_555
C21 N7 1_555 1_555
C22 C21 1_555 1_555
H23 C22 1_555 1_555
C23 C22 1_555 1_555
H24 C23 1_555 1_555
C24 C23 1_555 1_555
H25 C24 1_555 1_555
C25 N7 1_555 1_555
H26 C25 1_555 1_555
N8 N9 1_555 1_555
N9 Cd1 1_555 1_555
C26 C21 1_555 1_555
C27 C26 1_555 1_555
H27 C27 1_555 1_555
C28 N8 1_555 1_555
H28 C28 1_555 1_555
C29 N8 1_555 1_555
H29 C29 1_555 1_555
H30 C29 1_555 1_555
N10 Cd2 1_555 1_555
C30 N10 1_555 1_555
C31 C30 1_555 1_555
H31 C31 1_555 1_555
C32 C31 1_555 1_555
H32 C32 1_555 1_555
C33 C32 1_555 1_555
H33 C33 1_555 1_555
C34 N10 1_555 1_555
H34 C34 1_555 1_555
N11 N12 1_555 1_555
N12 Cd2 1_555 1_555
C35 C30 1_555 1_555
C36 C35 1_555 1_555
H35 C36 1_555 1_555
C37 N11 1_555 1_555
H36 C37 1_555 1_555
C38 N11 1_555 1_555
H37 C38 1_555 1_555
H38 C38 1_555 1_555
C39 C11 1_555 1_555
C40 C20 1_555 1_555
C41 C40 1_555 1_555
H39 C41 1_555 1_555
C42 C29 1_555 1_555
C43 C38 1_555 1_555
C44 C39 1_555 1_555
H40 C44 1_555 1_555
B1 F2 1_555 1_555
F3 B1 1_555 1_555
F4 B1 1_555 1_555
F5 B1 1_555 1_555
B2 F6 1_555 1_555
F7 B2 1_555 1_555
F8 B2 1_555 1_555
F9 B2 1_555 1_555
B3 F10 1_555 1_555
F11 B3 1_555 1_555
F12 B3 1_555 1_555
F13 B3 1_555 1_555
O3 C45 1_555 1_555
C45 H41 1_555 1_555
H42 C45 1_555 1_555
H43 C45 1_555 1_555
O4 C46 1_555 1_555
C46 H44 1_555 1_555
H45 C46 1_555 1_555
H46 C46 1_555 1_555
O5 C47 1_555 1_555
C47 H47 1_555 1_555
H48 C47 1_555 1_555
H49 C47 1_555 1_555
Cd1B F1B 1_555 1_555
Cd2B F1B 1_555 1_555
O1B Cd1B 1_555 1_555
C1B O1B 1_555 1_555
H1B C1B 1_555 1_555
H2B C1B 1_555 1_555
H3B C1B 1_555 1_555
O2B Cd2B 1_555 1_555
C2B O2B 1_555 1_555
H4B C2B 1_555 1_555
H5B C2B 1_555 1_555
H6B C2B 1_555 1_555
N1B Cd1B 1_555 1_555
C3B N1B 1_555 1_555
C4B C3B 1_555 1_555
H7B C4B 1_555 1_555
C5B C4B 1_555 1_555
H8B C5B 1_555 1_555
C6B C5B 1_555 1_555
H9B C6B 1_555 1_555
C7B N1B 1_555 1_555
H10B C7B 1_555 1_555
N2B N3B 1_555 1_555
N3B Cd1B 1_555 1_555
C8B C3B 1_555 1_555
C9B C8B 1_555 1_555
H11B C9B 1_555 1_555
C10B N2B 1_555 1_555
H12B C10B 1_555 1_555
C11B N2B 1_555 1_555
H13B C11B 1_555 1_555
H14B C11B 1_555 1_555
N4B Cd2B 1_555 1_555
C12B N4B 1_555 1_555
C13B C12B 1_555 1_555
H15B C13B 1_555 1_555
C14B C13B 1_555 1_555
H16B C14B 1_555 1_555
C15B C14B 1_555 1_555
H17B C15B 1_555 1_555
C16B N4B 1_555 1_555
H18B C16B 1_555 1_555
N5B N6B 1_555 1_555
N6B Cd2B 1_555 1_555
C17B C12B 1_555 1_555
C18B C17B 1_555 1_555
H19B C18B 1_555 1_555
C19B N5B 1_555 1_555
H20B C19B 1_555 1_555
C20B N5B 1_555 1_555
H21B C20B 1_555 1_555
H22B C20B 1_555 1_555
N7B Cd1B 1_555 1_555
C21B N7B 1_555 1_555
C22B C21B 1_555 1_555
H23B C22B 1_555 1_555
C23B C22B 1_555 1_555
H24B C23B 1_555 1_555
C24B C23B 1_555 1_555
H25B C24B 1_555 1_555
C25B N7B 1_555 1_555
H26B C25B 1_555 1_555
N8B N9B 1_555 1_555
N9B Cd1B 1_555 1_555
C26B C21B 1_555 1_555
C27B C26B 1_555 1_555
H27B C27B 1_555 1_555
C28B N8B 1_555 1_555
H28B C28B 1_555 1_555
C29B N8B 1_555 1_555
H29B C29B 1_555 1_555
H30B C29B 1_555 1_555
N10B Cd2B 1_555 1_555
C30B N10B 1_555 1_555
C31B C30B 1_555 1_555
H31B C31B 1_555 1_555
C32B C31B 1_555 1_555
H32B C32B 1_555 1_555
C33B C32B 1_555 1_555
H33B C33B 1_555 1_555
C34B N10B 1_555 1_555
H34B C34B 1_555 1_555
N11B N12B 1_555 1_555
N12B Cd2B 1_555 1_555
C35B C30B 1_555 1_555
C36B C35B 1_555 1_555
H35B C36B 1_555 1_555
C37B N11B 1_555 1_555
H36B C37B 1_555 1_555
C38B N11B 1_555 1_555
H37B C38B 1_555 1_555
H38B C38B 1_555 1_555
C39B C11B 1_555 1_555
C40B C20B 1_555 1_555
C41B C42 1_555 1_555
H39B C41B 1_555 1_555
C42B C41 1_555 1_555
C43B C44 1_555 1_555
C44B C43 1_555 1_555
H40B C44B 1_555 1_555
C6 C7 1_555 1_555
N3 C8 1_555 1_555
C9 C10 1_555 1_555
C15 C16 1_555 1_555
N6 C17 1_555 1_555
C18 C19 1_555 1_555
C24 C25 1_555 1_555
N9 C26 1_555 1_555
C27 C28 1_555 1_555
C33 C34 1_555 1_555
N12 C35 1_555 1_555
C36 C37 1_555 1_555
C39 C40 1_555 1_555
C42 C43 1_555 1_555
C6B C7B 1_555 1_555
N3B C8B 1_555 1_555
C9B C10B 1_555 1_555
C15B C16B 1_555 1_555
N6B C17B 1_555 1_555
C18B C19B 1_555 1_555
C24B C25B 1_555 1_555
N9B C26B 1_555 1_555
C27B C28B 1_555 1_555
C29B C42B 1_555 1_555
C33B C34B 1_555 1_555
N12B C35B 1_555 1_555
C36B C37B 1_555 1_555
C38B C43B 1_555 1_555
C39B C40B 1_555 1_555
C39B C44B 1_555 1_555
C40B C41B 1_555 1_555
C42B C43B 1_555 1_555

#END
