# generated using pymatgen
data_Ag3H96Pt3C102S12N18O41F18
_symmetry_space_group_name_H-M   'P 1'
_cell_length_a   23.56320000
_cell_length_b   23.56320000
_cell_length_c   28.25120000
_cell_angle_alpha   90.00000000
_cell_angle_beta   90.00000000
_cell_angle_gamma   120.00000000
_symmetry_Int_Tables_number   1
_chemical_formula_structural   Ag3H96Pt3C102S12N18O41F18
_chemical_formula_sum   'Ag12 H384 Pt12 C408 S48 N72 O164 F72'
_cell_volume   13584.26265962
_cell_formula_units_Z   4
loop_
 _symmetry_equiv_pos_site_id
 _symmetry_equiv_pos_as_xyz
  1  'x, y, z'
loop_
 _atom_site_type_symbol
 _atom_site_label
 _atom_site_symmetry_multiplicity
 _atom_site_fract_x
 _atom_site_fract_y
 _atom_site_fract_z
 _atom_site_occupancy
  Ag  Ag1  1  0.180920  0.523070  0.971680  1.0
  Ag  Ag2  1  0.523070  0.342150  0.471680  1.0
  Ag  Ag3  1  0.342150  0.819080  0.971680  1.0
  Ag  Ag4  1  0.819080  0.476930  0.471680  1.0
  Ag  Ag5  1  0.476930  0.657850  0.971680  1.0
  Ag  Ag6  1  0.657850  0.180920  0.471680  1.0
  Ag  Ag7  1  0.819080  0.476930  0.028320  1.0
  Ag  Ag8  1  0.476930  0.657850  0.528320  1.0
  Ag  Ag9  1  0.657850  0.180920  0.028320  1.0
  Ag  Ag10  1  0.180920  0.523070  0.528320  1.0
  Ag  Ag11  1  0.523070  0.342150  0.028320  1.0
  Ag  Ag12  1  0.342150  0.819080  0.528320  1.0
  H  H13  1  0.313700  0.524900  0.999400  1.0
  H  H14  1  0.524900  0.211200  0.499400  1.0
  H  H15  1  0.211200  0.686300  0.999400  1.0
  H  H16  1  0.686300  0.475100  0.499400  1.0
  H  H17  1  0.475100  0.788800  0.999400  1.0
  H  H18  1  0.788800  0.313700  0.499400  1.0
  H  H19  1  0.686300  0.475100  0.000600  1.0
  H  H20  1  0.475100  0.788800  0.500600  1.0
  H  H21  1  0.788800  0.313700  0.000600  1.0
  H  H22  1  0.313700  0.524900  0.500600  1.0
  H  H23  1  0.524900  0.211200  0.000600  1.0
  H  H24  1  0.211200  0.686300  0.500600  1.0
  H  H25  1  0.248200  0.412300  0.985700  1.0
  H  H26  1  0.412300  0.164100  0.485700  1.0
  H  H27  1  0.164100  0.751800  0.985700  1.0
  H  H28  1  0.751800  0.587700  0.485700  1.0
  H  H29  1  0.587700  0.835900  0.985700  1.0
  H  H30  1  0.835900  0.248200  0.485700  1.0
  H  H31  1  0.751800  0.587700  0.014300  1.0
  H  H32  1  0.587700  0.835900  0.514300  1.0
  H  H33  1  0.835900  0.248200  0.014300  1.0
  H  H34  1  0.248200  0.412300  0.514300  1.0
  H  H35  1  0.412300  0.164100  0.014300  1.0
  H  H36  1  0.164100  0.751800  0.514300  1.0
  H  H37  1  0.155000  0.392200  0.110400  1.0
  H  H38  1  0.392200  0.237200  0.610400  1.0
  H  H39  1  0.237200  0.845000  0.110400  1.0
  H  H40  1  0.845000  0.607800  0.610400  1.0
  H  H41  1  0.607800  0.762800  0.110400  1.0
  H  H42  1  0.762800  0.155000  0.610400  1.0
  H  H43  1  0.845000  0.607800  0.889600  1.0
  H  H44  1  0.607800  0.762800  0.389600  1.0
  H  H45  1  0.762800  0.155000  0.889600  1.0
  H  H46  1  0.155000  0.392200  0.389600  1.0
  H  H47  1  0.392200  0.237200  0.889600  1.0
  H  H48  1  0.237200  0.845000  0.389600  1.0
  H  H49  1  0.220500  0.504700  0.124200  1.0
  H  H50  1  0.504700  0.284200  0.624200  1.0
  H  H51  1  0.284200  0.779500  0.124200  1.0
  H  H52  1  0.779500  0.495300  0.624200  1.0
  H  H53  1  0.495300  0.715800  0.124200  1.0
  H  H54  1  0.715800  0.220500  0.624200  1.0
  H  H55  1  0.779500  0.495300  0.875800  1.0
  H  H56  1  0.495300  0.715800  0.375800  1.0
  H  H57  1  0.715800  0.220500  0.875800  1.0
  H  H58  1  0.220500  0.504700  0.375800  1.0
  H  H59  1  0.504700  0.284200  0.875800  1.0
  H  H60  1  0.284200  0.779500  0.375800  1.0
  H  H61  1  0.117200  0.208400  0.976100  1.0
  H  H62  1  0.208400  0.091200  0.476100  1.0
  H  H63  1  0.091200  0.882800  0.976100  1.0
  H  H64  1  0.882800  0.791600  0.476100  1.0
  H  H65  1  0.791600  0.908800  0.976100  1.0
  H  H66  1  0.908800  0.117200  0.476100  1.0
  H  H67  1  0.882800  0.791600  0.023900  1.0
  H  H68  1  0.791600  0.908800  0.523900  1.0
  H  H69  1  0.908800  0.117200  0.023900  1.0
  H  H70  1  0.117200  0.208400  0.523900  1.0
  H  H71  1  0.208400  0.091200  0.023900  1.0
  H  H72  1  0.091200  0.882800  0.523900  1.0
  H  H73  1  0.064100  0.227100  0.956900  1.0
  H  H74  1  0.227100  0.163000  0.456900  1.0
  H  H75  1  0.163000  0.935900  0.956900  1.0
  H  H76  1  0.935900  0.772900  0.456900  1.0
  H  H77  1  0.772900  0.837000  0.956900  1.0
  H  H78  1  0.837000  0.064100  0.456900  1.0
  H  H79  1  0.935900  0.772900  0.043100  1.0
  H  H80  1  0.772900  0.837000  0.543100  1.0
  H  H81  1  0.837000  0.064100  0.043100  1.0
  H  H82  1  0.064100  0.227100  0.543100  1.0
  H  H83  1  0.227100  0.163000  0.043100  1.0
  H  H84  1  0.163000  0.935900  0.543100  1.0
  H  H85  1  0.063800  0.180800  0.041100  1.0
  H  H86  1  0.180800  0.117000  0.541100  1.0
  H  H87  1  0.117000  0.936200  0.041100  1.0
  H  H88  1  0.936200  0.819200  0.541100  1.0
  H  H89  1  0.819200  0.883000  0.041100  1.0
  H  H90  1  0.883000  0.063800  0.541100  1.0
  H  H91  1  0.936200  0.819200  0.958900  1.0
  H  H92  1  0.819200  0.883000  0.458900  1.0
  H  H93  1  0.883000  0.063800  0.958900  1.0
  H  H94  1  0.063800  0.180800  0.458900  1.0
  H  H95  1  0.180800  0.117000  0.958900  1.0
  H  H96  1  0.117000  0.936200  0.458900  1.0
  H  H97  1  0.020400  0.212700  0.025200  1.0
  H  H98  1  0.212700  0.192300  0.525200  1.0
  H  H99  1  0.192300  0.979600  0.025200  1.0
  H  H100  1  0.979600  0.787300  0.525200  1.0
  H  H101  1  0.787300  0.807700  0.025200  1.0
  H  H102  1  0.807700  0.020400  0.525200  1.0
  H  H103  1  0.979600  0.787300  0.974800  1.0
  H  H104  1  0.787300  0.807700  0.474800  1.0
  H  H105  1  0.807700  0.020400  0.974800  1.0
  H  H106  1  0.020400  0.212700  0.474800  1.0
  H  H107  1  0.212700  0.192300  0.974800  1.0
  H  H108  1  0.192300  0.979600  0.474800  1.0
  H  H109  1  0.022600  0.336600  0.193100  1.0
  H  H110  1  0.336600  0.314000  0.693100  1.0
  H  H111  1  0.314000  0.977400  0.193100  1.0
  H  H112  1  0.977400  0.663400  0.693100  1.0
  H  H113  1  0.663400  0.686000  0.193100  1.0
  H  H114  1  0.686000  0.022600  0.693100  1.0
  H  H115  1  0.977400  0.663400  0.806900  1.0
  H  H116  1  0.663400  0.686000  0.306900  1.0
  H  H117  1  0.686000  0.022600  0.806900  1.0
  H  H118  1  0.022600  0.336600  0.306900  1.0
  H  H119  1  0.336600  0.314000  0.806900  1.0
  H  H120  1  0.314000  0.977400  0.306900  1.0
  H  H121  1  0.952900  0.271600  0.199200  1.0
  H  H122  1  0.271600  0.318700  0.699200  1.0
  H  H123  1  0.318700  0.047100  0.199200  1.0
  H  H124  1  0.047100  0.728400  0.699200  1.0
  H  H125  1  0.728400  0.681300  0.199200  1.0
  H  H126  1  0.681300  0.952900  0.699200  1.0
  H  H127  1  0.047100  0.728400  0.800800  1.0
  H  H128  1  0.728400  0.681300  0.300800  1.0
  H  H129  1  0.681300  0.952900  0.800800  1.0
  H  H130  1  0.952900  0.271600  0.300800  1.0
  H  H131  1  0.271600  0.318700  0.800800  1.0
  H  H132  1  0.318700  0.047100  0.300800  1.0
  H  H133  1  0.120100  0.158500  0.185600  1.0
  H  H134  1  0.158500  0.038400  0.685600  1.0
  H  H135  1  0.038400  0.879900  0.185600  1.0
  H  H136  1  0.879900  0.841500  0.685600  1.0
  H  H137  1  0.841500  0.961600  0.185600  1.0
  H  H138  1  0.961600  0.120100  0.685600  1.0
  H  H139  1  0.879900  0.841500  0.814400  1.0
  H  H140  1  0.841500  0.961600  0.314400  1.0
  H  H141  1  0.961600  0.120100  0.814400  1.0
  H  H142  1  0.120100  0.158500  0.314400  1.0
  H  H143  1  0.158500  0.038400  0.814400  1.0
  H  H144  1  0.038400  0.879900  0.314400  1.0
  H  H145  1  0.188100  0.211600  0.209400  1.0
  H  H146  1  0.211600  0.023500  0.709400  1.0
  H  H147  1  0.023500  0.811900  0.209400  1.0
  H  H148  1  0.811900  0.788400  0.709400  1.0
  H  H149  1  0.788400  0.976500  0.209400  1.0
  H  H150  1  0.976500  0.188100  0.709400  1.0
  H  H151  1  0.811900  0.788400  0.790600  1.0
  H  H152  1  0.788400  0.976500  0.290600  1.0
  H  H153  1  0.976500  0.188100  0.790600  1.0
  H  H154  1  0.188100  0.211600  0.290600  1.0
  H  H155  1  0.211600  0.023500  0.790600  1.0
  H  H156  1  0.023500  0.811900  0.290600  1.0
  H  H157  1  0.976500  0.282500  0.076500  1.0
  H  H158  1  0.282500  0.306000  0.576500  1.0
  H  H159  1  0.306000  0.023500  0.076500  1.0
  H  H160  1  0.023500  0.717500  0.576500  1.0
  H  H161  1  0.717500  0.694000  0.076500  1.0
  H  H162  1  0.694000  0.976500  0.576500  1.0
  H  H163  1  0.023500  0.717500  0.923500  1.0
  H  H164  1  0.717500  0.694000  0.423500  1.0
  H  H165  1  0.694000  0.976500  0.923500  1.0
  H  H166  1  0.976500  0.282500  0.423500  1.0
  H  H167  1  0.282500  0.306000  0.923500  1.0
  H  H168  1  0.306000  0.023500  0.423500  1.0
  H  H169  1  0.951300  0.311300  0.117500  1.0
  H  H170  1  0.311300  0.360000  0.617500  1.0
  H  H171  1  0.360000  0.048700  0.117500  1.0
  H  H172  1  0.048700  0.688700  0.617500  1.0
  H  H173  1  0.688700  0.640000  0.117500  1.0
  H  H174  1  0.640000  0.951300  0.617500  1.0
  H  H175  1  0.048700  0.688700  0.882500  1.0
  H  H176  1  0.688700  0.640000  0.382500  1.0
  H  H177  1  0.640000  0.951300  0.882500  1.0
  H  H178  1  0.951300  0.311300  0.382500  1.0
  H  H179  1  0.311300  0.360000  0.882500  1.0
  H  H180  1  0.360000  0.048700  0.382500  1.0
  H  H181  1  0.026700  0.349800  0.102100  1.0
  H  H182  1  0.349800  0.323100  0.602100  1.0
  H  H183  1  0.323100  0.973300  0.102100  1.0
  H  H184  1  0.973300  0.650200  0.602100  1.0
  H  H185  1  0.650200  0.676900  0.102100  1.0
  H  H186  1  0.676900  0.026700  0.602100  1.0
  H  H187  1  0.973300  0.650200  0.897900  1.0
  H  H188  1  0.650200  0.676900  0.397900  1.0
  H  H189  1  0.676900  0.026700  0.897900  1.0
  H  H190  1  0.026700  0.349800  0.397900  1.0
  H  H191  1  0.349800  0.323100  0.897900  1.0
  H  H192  1  0.323100  0.973300  0.397900  1.0
  H  H193  1  0.943600  0.196500  0.098200  1.0
  H  H194  1  0.196500  0.252900  0.598200  1.0
  H  H195  1  0.252900  0.056400  0.098200  1.0
  H  H196  1  0.056400  0.803500  0.598200  1.0
  H  H197  1  0.803500  0.747100  0.098200  1.0
  H  H198  1  0.747100  0.943600  0.598200  1.0
  H  H199  1  0.056400  0.803500  0.901800  1.0
  H  H200  1  0.803500  0.747100  0.401800  1.0
  H  H201  1  0.747100  0.943600  0.901800  1.0
  H  H202  1  0.943600  0.196500  0.401800  1.0
  H  H203  1  0.196500  0.252900  0.901800  1.0
  H  H204  1  0.252900  0.056400  0.401800  1.0
  H  H205  1  0.946600  0.172800  0.150700  1.0
  H  H206  1  0.172800  0.226200  0.650700  1.0
  H  H207  1  0.226200  0.053400  0.150700  1.0
  H  H208  1  0.053400  0.827200  0.650700  1.0
  H  H209  1  0.827200  0.773800  0.150700  1.0
  H  H210  1  0.773800  0.946600  0.650700  1.0
  H  H211  1  0.053400  0.827200  0.849300  1.0
  H  H212  1  0.827200  0.773800  0.349300  1.0
  H  H213  1  0.773800  0.946600  0.849300  1.0
  H  H214  1  0.946600  0.172800  0.349300  1.0
  H  H215  1  0.172800  0.226200  0.849300  1.0
  H  H216  1  0.226200  0.053400  0.349300  1.0
  H  H217  1  0.905100  0.208300  0.140200  1.0
  H  H218  1  0.208300  0.303200  0.640200  1.0
  H  H219  1  0.303200  0.094900  0.140200  1.0
  H  H220  1  0.094900  0.791700  0.640200  1.0
  H  H221  1  0.791700  0.696800  0.140200  1.0
  H  H222  1  0.696800  0.905100  0.640200  1.0
  H  H223  1  0.094900  0.791700  0.859800  1.0
  H  H224  1  0.791700  0.696800  0.359800  1.0
  H  H225  1  0.696800  0.905100  0.859800  1.0
  H  H226  1  0.905100  0.208300  0.359800  1.0
  H  H227  1  0.208300  0.303200  0.859800  1.0
  H  H228  1  0.303200  0.094900  0.359800  1.0
  H  H229  1  0.224000  0.340600  0.136100  1.0
  H  H230  1  0.340600  0.116600  0.636100  1.0
  H  H231  1  0.116600  0.776000  0.136100  1.0
  H  H232  1  0.776000  0.659400  0.636100  1.0
  H  H233  1  0.659400  0.883400  0.136100  1.0
  H  H234  1  0.883400  0.224000  0.636100  1.0
  H  H235  1  0.776000  0.659400  0.863900  1.0
  H  H236  1  0.659400  0.883400  0.363900  1.0
  H  H237  1  0.883400  0.224000  0.863900  1.0
  H  H238  1  0.224000  0.340600  0.363900  1.0
  H  H239  1  0.340600  0.116600  0.863900  1.0
  H  H240  1  0.116600  0.776000  0.363900  1.0
  H  H241  1  0.220700  0.323800  0.191200  1.0
  H  H242  1  0.323800  0.103100  0.691200  1.0
  H  H243  1  0.103100  0.779300  0.191200  1.0
  H  H244  1  0.779300  0.676200  0.691200  1.0
  H  H245  1  0.676200  0.896900  0.191200  1.0
  H  H246  1  0.896900  0.220700  0.691200  1.0
  H  H247  1  0.779300  0.676200  0.808800  1.0
  H  H248  1  0.676200  0.896900  0.308800  1.0
  H  H249  1  0.896900  0.220700  0.808800  1.0
  H  H250  1  0.220700  0.323800  0.308800  1.0
  H  H251  1  0.323800  0.103100  0.808800  1.0
  H  H252  1  0.103100  0.779300  0.308800  1.0
  H  H253  1  0.262500  0.305700  0.156000  1.0
  H  H254  1  0.305700  0.043200  0.656000  1.0
  H  H255  1  0.043200  0.737500  0.156000  1.0
  H  H256  1  0.737500  0.694300  0.656000  1.0
  H  H257  1  0.694300  0.956800  0.156000  1.0
  H  H258  1  0.956800  0.262500  0.656000  1.0
  H  H259  1  0.737500  0.694300  0.844000  1.0
  H  H260  1  0.694300  0.956800  0.344000  1.0
  H  H261  1  0.956800  0.262500  0.844000  1.0
  H  H262  1  0.262500  0.305700  0.344000  1.0
  H  H263  1  0.305700  0.043200  0.844000  1.0
  H  H264  1  0.043200  0.737500  0.344000  1.0
  H  H265  1  0.178800  0.239200  0.081000  1.0
  H  H266  1  0.239200  0.060400  0.581000  1.0
  H  H267  1  0.060400  0.821200  0.081000  1.0
  H  H268  1  0.821200  0.760800  0.581000  1.0
  H  H269  1  0.760800  0.939600  0.081000  1.0
  H  H270  1  0.939600  0.178800  0.581000  1.0
  H  H271  1  0.821200  0.760800  0.919000  1.0
  H  H272  1  0.760800  0.939600  0.419000  1.0
  H  H273  1  0.939600  0.178800  0.919000  1.0
  H  H274  1  0.178800  0.239200  0.419000  1.0
  H  H275  1  0.239200  0.060400  0.919000  1.0
  H  H276  1  0.060400  0.821200  0.419000  1.0
  H  H277  1  0.224100  0.222600  0.113500  1.0
  H  H278  1  0.222600  0.998500  0.613500  1.0
  H  H279  1  0.998500  0.775900  0.113500  1.0
  H  H280  1  0.775900  0.777400  0.613500  1.0
  H  H281  1  0.777400  0.001500  0.113500  1.0
  H  H282  1  0.001500  0.224100  0.613500  1.0
  H  H283  1  0.775900  0.777400  0.886500  1.0
  H  H284  1  0.777400  0.001500  0.386500  1.0
  H  H285  1  0.001500  0.224100  0.886500  1.0
  H  H286  1  0.224100  0.222600  0.386500  1.0
  H  H287  1  0.222600  0.998500  0.886500  1.0
  H  H288  1  0.998500  0.775900  0.386500  1.0
  H  H289  1  0.147900  0.170100  0.107600  1.0
  H  H290  1  0.170100  0.022200  0.607600  1.0
  H  H291  1  0.022200  0.852100  0.107600  1.0
  H  H292  1  0.852100  0.829900  0.607600  1.0
  H  H293  1  0.829900  0.977800  0.107600  1.0
  H  H294  1  0.977800  0.147900  0.607600  1.0
  H  H295  1  0.852100  0.829900  0.892400  1.0
  H  H296  1  0.829900  0.977800  0.392400  1.0
  H  H297  1  0.977800  0.147900  0.892400  1.0
  H  H298  1  0.147900  0.170100  0.392400  1.0
  H  H299  1  0.170100  0.022200  0.892400  1.0
  H  H300  1  0.022200  0.852100  0.392400  1.0
  H  H301  1  0.060700  0.547300  0.114700  1.0
  H  H302  1  0.547300  0.486600  0.614700  1.0
  H  H303  1  0.486600  0.939300  0.114700  1.0
  H  H304  1  0.939300  0.452700  0.614700  1.0
  H  H305  1  0.452700  0.513400  0.114700  1.0
  H  H306  1  0.513400  0.060700  0.614700  1.0
  H  H307  1  0.939300  0.452700  0.885300  1.0
  H  H308  1  0.452700  0.513400  0.385300  1.0
  H  H309  1  0.513400  0.060700  0.885300  1.0
  H  H310  1  0.060700  0.547300  0.385300  1.0
  H  H311  1  0.547300  0.486600  0.885300  1.0
  H  H312  1  0.486600  0.939300  0.385300  1.0
  H  H313  1  0.084500  0.494700  0.123200  1.0
  H  H314  1  0.494700  0.410200  0.623200  1.0
  H  H315  1  0.410200  0.915500  0.123200  1.0
  H  H316  1  0.915500  0.505300  0.623200  1.0
  H  H317  1  0.505300  0.589800  0.123200  1.0
  H  H318  1  0.589800  0.084500  0.623200  1.0
  H  H319  1  0.915500  0.505300  0.876800  1.0
  H  H320  1  0.505300  0.589800  0.376800  1.0
  H  H321  1  0.589800  0.084500  0.876800  1.0
  H  H322  1  0.084500  0.494700  0.376800  1.0
  H  H323  1  0.494700  0.410200  0.876800  1.0
  H  H324  1  0.410200  0.915500  0.376800  1.0
  H  H325  1  0.064500  0.540300  0.039300  1.0
  H  H326  1  0.540300  0.475800  0.539300  1.0
  H  H327  1  0.475800  0.935500  0.039300  1.0
  H  H328  1  0.935500  0.459700  0.539300  1.0
  H  H329  1  0.459700  0.524200  0.039300  1.0
  H  H330  1  0.524200  0.064500  0.539300  1.0
  H  H331  1  0.935500  0.459700  0.960700  1.0
  H  H332  1  0.459700  0.524200  0.460700  1.0
  H  H333  1  0.524200  0.064500  0.960700  1.0
  H  H334  1  0.064500  0.540300  0.460700  1.0
  H  H335  1  0.540300  0.475800  0.960700  1.0
  H  H336  1  0.475800  0.935500  0.460700  1.0
  H  H337  1  0.065500  0.473700  0.049000  1.0
  H  H338  1  0.473700  0.408200  0.549000  1.0
  H  H339  1  0.408200  0.934500  0.049000  1.0
  H  H340  1  0.934500  0.526300  0.549000  1.0
  H  H341  1  0.526300  0.591800  0.049000  1.0
  H  H342  1  0.591800  0.065500  0.549000  1.0
  H  H343  1  0.934500  0.526300  0.951000  1.0
  H  H344  1  0.526300  0.591800  0.451000  1.0
  H  H345  1  0.591800  0.065500  0.951000  1.0
  H  H346  1  0.065500  0.473700  0.451000  1.0
  H  H347  1  0.473700  0.408200  0.951000  1.0
  H  H348  1  0.408200  0.934500  0.451000  1.0
  H  H349  1  0.174000  0.365200  0.843400  1.0
  H  H350  1  0.365200  0.191200  0.343400  1.0
  H  H351  1  0.191200  0.826000  0.843400  1.0
  H  H352  1  0.826000  0.634800  0.343400  1.0
  H  H353  1  0.634800  0.808800  0.843400  1.0
  H  H354  1  0.808800  0.174000  0.343400  1.0
  H  H355  1  0.826000  0.634800  0.156600  1.0
  H  H356  1  0.634800  0.808800  0.656600  1.0
  H  H357  1  0.808800  0.174000  0.156600  1.0
  H  H358  1  0.174000  0.365200  0.656600  1.0
  H  H359  1  0.365200  0.191200  0.156600  1.0
  H  H360  1  0.191200  0.826000  0.656600  1.0
  H  H361  1  0.141500  0.394700  0.919500  1.0
  H  H362  1  0.394700  0.253200  0.419500  1.0
  H  H363  1  0.253200  0.858500  0.919500  1.0
  H  H364  1  0.858500  0.605300  0.419500  1.0
  H  H365  1  0.605300  0.746800  0.919500  1.0
  H  H366  1  0.746800  0.141500  0.419500  1.0
  H  H367  1  0.858500  0.605300  0.080500  1.0
  H  H368  1  0.605300  0.746800  0.580500  1.0
  H  H369  1  0.746800  0.141500  0.080500  1.0
  H  H370  1  0.141500  0.394700  0.580500  1.0
  H  H371  1  0.394700  0.253200  0.080500  1.0
  H  H372  1  0.253200  0.858500  0.580500  1.0
  H  H373  1  0.458200  0.490400  0.843500  1.0
  H  H374  1  0.490400  0.032200  0.343500  1.0
  H  H375  1  0.032200  0.541800  0.843500  1.0
  H  H376  1  0.541800  0.509600  0.343500  1.0
  H  H377  1  0.509600  0.967800  0.843500  1.0
  H  H378  1  0.967800  0.458200  0.343500  1.0
  H  H379  1  0.541800  0.509600  0.156500  1.0
  H  H380  1  0.509600  0.967800  0.656500  1.0
  H  H381  1  0.967800  0.458200  0.156500  1.0
  H  H382  1  0.458200  0.490400  0.656500  1.0
  H  H383  1  0.490400  0.032200  0.156500  1.0
  H  H384  1  0.032200  0.541800  0.656500  1.0
  H  H385  1  0.399800  0.462700  0.920600  1.0
  H  H386  1  0.462700  0.062900  0.420600  1.0
  H  H387  1  0.062900  0.600200  0.920600  1.0
  H  H388  1  0.600200  0.537300  0.420600  1.0
  H  H389  1  0.537300  0.937100  0.920600  1.0
  H  H390  1  0.937100  0.399800  0.420600  1.0
  H  H391  1  0.600200  0.537300  0.079400  1.0
  H  H392  1  0.537300  0.937100  0.579400  1.0
  H  H393  1  0.937100  0.399800  0.079400  1.0
  H  H394  1  0.399800  0.462700  0.579400  1.0
  H  H395  1  0.462700  0.062900  0.079400  1.0
  H  H396  1  0.062900  0.600200  0.579400  1.0
  Pt  Pt397  1  0.086090  0.261660  0.134260  1.0
  Pt  Pt398  1  0.261660  0.175570  0.634260  1.0
  Pt  Pt399  1  0.175570  0.913910  0.134260  1.0
  Pt  Pt400  1  0.913910  0.738340  0.634260  1.0
  Pt  Pt401  1  0.738340  0.824430  0.134260  1.0
  Pt  Pt402  1  0.824430  0.086090  0.634260  1.0
  Pt  Pt403  1  0.913910  0.738340  0.865740  1.0
  Pt  Pt404  1  0.738340  0.824430  0.365740  1.0
  Pt  Pt405  1  0.824430  0.086090  0.865740  1.0
  Pt  Pt406  1  0.086090  0.261660  0.365740  1.0
  Pt  Pt407  1  0.261660  0.175570  0.865740  1.0
  Pt  Pt408  1  0.175570  0.913910  0.365740  1.0
  C  C409  1  0.714500  0.076400  0.250000  1
  C  C410  1  0.076400  0.361900  0.750000  1
  C  C411  1  0.361900  0.285500  0.250000  1
  C  C412  1  0.285500  0.923600  0.750000  1
  C  C413  1  0.923600  0.638100  0.250000  1
  C  C414  1  0.638100  0.714500  0.750000  1
  C  C415  1  0.425700  0.500700  0.250000  1
  C  C416  1  0.500700  0.075000  0.750000  1
  C  C417  1  0.075000  0.574300  0.250000  1
  C  C418  1  0.574300  0.499300  0.750000  1
  C  C419  1  0.499300  0.925000  0.250000  1
  C  C420  1  0.925000  0.425700  0.750000  1
  C  C421  1  0.587000  0.748000  0.250000  1
  C  C422  1  0.748000  0.161000  0.750000  1
  C  C423  1  0.161000  0.413000  0.250000  1
  C  C424  1  0.413000  0.252000  0.750000  1
  C  C425  1  0.252000  0.839000  0.250000  1
  C  C426  1  0.839000  0.587000  0.750000  1
  C  C427  1  0.625000  0.624800  0.575700  1
  C  C428  1  0.624800  0.999800  0.075700  1
  C  C429  1  0.999800  0.375000  0.575700  1
  C  C430  1  0.375000  0.375200  0.075700  1
  C  C431  1  0.375200  0.000200  0.575700  1
  C  C432  1  0.000200  0.625000  0.075700  1
  C  C433  1  0.375000  0.375200  0.424300  1
  C  C434  1  0.375200  0.000200  0.924300  1
  C  C435  1  0.000200  0.625000  0.424300  1
  C  C436  1  0.625000  0.624800  0.924300  1
  C  C437  1  0.624800  0.999800  0.424300  1
  C  C438  1  0.999800  0.375000  0.924300  1
  C  C439  1  0.369000  0.736000  0.750000  1
  C  C440  1  0.736000  0.367000  0.250000  1
  C  C441  1  0.367000  0.631000  0.750000  1
  C  C442  1  0.631000  0.264000  0.250000  1
  C  C443  1  0.264000  0.633000  0.750000  1
  C  C444  1  0.633000  0.369000  0.250000  1
  C  C445  1  0.306500  0.599300  0.066400  1.0
  C  C446  1  0.599300  0.292800  0.566400  1.0
  C  C447  1  0.292800  0.693500  0.066400  1.0
  C  C448  1  0.693500  0.400700  0.566400  1.0
  C  C449  1  0.400700  0.707200  0.066400  1.0
  C  C450  1  0.707200  0.306500  0.566400  1.0
  C  C451  1  0.693500  0.400700  0.933600  1.0
  C  C452  1  0.400700  0.707200  0.433600  1.0
  C  C453  1  0.707200  0.306500  0.933600  1.0
  C  C454  1  0.306500  0.599300  0.433600  1.0
  C  C455  1  0.599300  0.292800  0.933600  1.0
  C  C456  1  0.292800  0.693500  0.433600  1.0
  C  C457  1  0.266100  0.626100  0.067500  1.0
  C  C458  1  0.626100  0.360000  0.567500  1.0
  C  C459  1  0.360000  0.733900  0.067500  1.0
  C  C460  1  0.733900  0.373900  0.567500  1.0
  C  C461  1  0.373900  0.640000  0.067500  1.0
  C  C462  1  0.640000  0.266100  0.567500  1.0
  C  C463  1  0.733900  0.373900  0.932500  1.0
  C  C464  1  0.373900  0.640000  0.432500  1.0
  C  C465  1  0.640000  0.266100  0.932500  1.0
  C  C466  1  0.266100  0.626100  0.432500  1.0
  C  C467  1  0.626100  0.360000  0.932500  1.0
  C  C468  1  0.360000  0.733900  0.432500  1.0
  C  C469  1  0.273200  0.525400  0.063100  1.0
  C  C470  1  0.525400  0.252200  0.563100  1.0
  C  C471  1  0.252200  0.726800  0.063100  1.0
  C  C472  1  0.726800  0.474600  0.563100  1.0
  C  C473  1  0.474600  0.747800  0.063100  1.0
  C  C474  1  0.747800  0.273200  0.563100  1.0
  C  C475  1  0.726800  0.474600  0.936900  1.0
  C  C476  1  0.474600  0.747800  0.436900  1.0
  C  C477  1  0.747800  0.273200  0.936900  1.0
  C  C478  1  0.273200  0.525400  0.436900  1.0
  C  C479  1  0.525400  0.252200  0.936900  1.0
  C  C480  1  0.252200  0.726800  0.436900  1.0
  C  C481  1  0.281500  0.497900  0.022000  1.0
  C  C482  1  0.497900  0.216400  0.522000  1.0
  C  C483  1  0.216400  0.718500  0.022000  1.0
  C  C484  1  0.718500  0.502100  0.522000  1.0
  C  C485  1  0.502100  0.783600  0.022000  1.0
  C  C486  1  0.783600  0.281500  0.522000  1.0
  C  C487  1  0.718500  0.502100  0.978000  1.0
  C  C488  1  0.502100  0.783600  0.478000  1.0
  C  C489  1  0.783600  0.281500  0.978000  1.0
  C  C490  1  0.281500  0.497900  0.478000  1.0
  C  C491  1  0.497900  0.216400  0.978000  1.0
  C  C492  1  0.216400  0.718500  0.478000  1.0
  C  C493  1  0.242600  0.431100  0.013800  1.0
  C  C494  1  0.431100  0.188500  0.513800  1.0
  C  C495  1  0.188500  0.757400  0.013800  1.0
  C  C496  1  0.757400  0.568900  0.513800  1.0
  C  C497  1  0.568900  0.811500  0.013800  1.0
  C  C498  1  0.811500  0.242600  0.513800  1.0
  C  C499  1  0.757400  0.568900  0.986200  1.0
  C  C500  1  0.568900  0.811500  0.486200  1.0
  C  C501  1  0.811500  0.242600  0.986200  1.0
  C  C502  1  0.242600  0.431100  0.486200  1.0
  C  C503  1  0.431100  0.188500  0.986200  1.0
  C  C504  1  0.188500  0.757400  0.486200  1.0
  C  C505  1  0.195400  0.391600  0.046800  1.0
  C  C506  1  0.391600  0.196200  0.546800  1.0
  C  C507  1  0.196200  0.804600  0.046800  1.0
  C  C508  1  0.804600  0.608400  0.546800  1.0
  C  C509  1  0.608400  0.803800  0.046800  1.0
  C  C510  1  0.803800  0.195400  0.546800  1.0
  C  C511  1  0.804600  0.608400  0.953200  1.0
  C  C512  1  0.608400  0.803800  0.453200  1.0
  C  C513  1  0.803800  0.195400  0.953200  1.0
  C  C514  1  0.195400  0.391600  0.453200  1.0
  C  C515  1  0.391600  0.196200  0.953200  1.0
  C  C516  1  0.196200  0.804600  0.453200  1.0
  C  C517  1  0.187200  0.419100  0.087900  1.0
  C  C518  1  0.419100  0.231900  0.587900  1.0
  C  C519  1  0.231900  0.812800  0.087900  1.0
  C  C520  1  0.812800  0.580900  0.587900  1.0
  C  C521  1  0.580900  0.768100  0.087900  1.0
  C  C522  1  0.768100  0.187200  0.587900  1.0
  C  C523  1  0.812800  0.580900  0.912100  1.0
  C  C524  1  0.580900  0.768100  0.412100  1.0
  C  C525  1  0.768100  0.187200  0.912100  1.0
  C  C526  1  0.187200  0.419100  0.412100  1.0
  C  C527  1  0.419100  0.231900  0.912100  1.0
  C  C528  1  0.231900  0.812800  0.412100  1.0
  C  C529  1  0.226100  0.486000  0.096100  1.0
  C  C530  1  0.486000  0.259900  0.596100  1.0
  C  C531  1  0.259900  0.773900  0.096100  1.0
  C  C532  1  0.773900  0.514000  0.596100  1.0
  C  C533  1  0.514000  0.740100  0.096100  1.0
  C  C534  1  0.740100  0.226100  0.596100  1.0
  C  C535  1  0.773900  0.514000  0.903900  1.0
  C  C536  1  0.514000  0.740100  0.403900  1.0
  C  C537  1  0.740100  0.226100  0.903900  1.0
  C  C538  1  0.226100  0.486000  0.403900  1.0
  C  C539  1  0.486000  0.259900  0.903900  1.0
  C  C540  1  0.259900  0.773900  0.403900  1.0
  C  C541  1  0.146800  0.322800  0.031900  1.0
  C  C542  1  0.322800  0.176000  0.531900  1.0
  C  C543  1  0.176000  0.853200  0.031900  1.0
  C  C544  1  0.853200  0.677200  0.531900  1.0
  C  C545  1  0.677200  0.824000  0.031900  1.0
  C  C546  1  0.824000  0.146800  0.531900  1.0
  C  C547  1  0.853200  0.677200  0.968100  1.0
  C  C548  1  0.677200  0.824000  0.468100  1.0
  C  C549  1  0.824000  0.146800  0.968100  1.0
  C  C550  1  0.146800  0.322800  0.468100  1.0
  C  C551  1  0.322800  0.176000  0.968100  1.0
  C  C552  1  0.176000  0.853200  0.468100  1.0
  C  C553  1  0.096100  0.235000  0.982300  1.0
  C  C554  1  0.235000  0.138900  0.482300  1.0
  C  C555  1  0.138900  0.903900  0.982300  1.0
  C  C556  1  0.903900  0.765000  0.482300  1.0
  C  C557  1  0.765000  0.861100  0.982300  1.0
  C  C558  1  0.861100  0.096100  0.482300  1.0
  C  C559  1  0.903900  0.765000  0.017700  1.0
  C  C560  1  0.765000  0.861100  0.517700  1.0
  C  C561  1  0.861100  0.096100  0.017700  1.0
  C  C562  1  0.096100  0.235000  0.517700  1.0
  C  C563  1  0.235000  0.138900  0.017700  1.0
  C  C564  1  0.138900  0.903900  0.517700  1.0
  C  C565  1  0.065700  0.220800  0.028000  1.0
  C  C566  1  0.220800  0.155100  0.528000  1.0
  C  C567  1  0.155100  0.934300  0.028000  1.0
  C  C568  1  0.934300  0.779200  0.528000  1.0
  C  C569  1  0.779200  0.844900  0.028000  1.0
  C  C570  1  0.844900  0.065700  0.528000  1.0
  C  C571  1  0.934300  0.779200  0.972000  1.0
  C  C572  1  0.779200  0.844900  0.472000  1.0
  C  C573  1  0.844900  0.065700  0.972000  1.0
  C  C574  1  0.065700  0.220800  0.472000  1.0
  C  C575  1  0.220800  0.155100  0.972000  1.0
  C  C576  1  0.155100  0.934300  0.472000  1.0
  C  C577  1  0.999400  0.288200  0.190600  1.0
  C  C578  1  0.288200  0.288800  0.690600  1.0
  C  C579  1  0.288800  0.000600  0.190600  1.0
  C  C580  1  0.000600  0.711800  0.690600  1.0
  C  C581  1  0.711800  0.711200  0.190600  1.0
  C  C582  1  0.711200  0.999400  0.690600  1.0
  C  C583  1  0.000600  0.711800  0.809400  1.0
  C  C584  1  0.711800  0.711200  0.309400  1.0
  C  C585  1  0.711200  0.999400  0.809400  1.0
  C  C586  1  0.999400  0.288200  0.309400  1.0
  C  C587  1  0.288200  0.288800  0.809400  1.0
  C  C588  1  0.288800  0.000600  0.309400  1.0
  C  C589  1  0.028900  0.262000  0.225500  1.0
  C  C590  1  0.262000  0.233100  0.725500  1.0
  C  C591  1  0.233100  0.971100  0.225500  1.0
  C  C592  1  0.971100  0.738000  0.725500  1.0
  C  C593  1  0.738000  0.766900  0.225500  1.0
  C  C594  1  0.766900  0.028900  0.725500  1.0
  C  C595  1  0.971100  0.738000  0.774500  1.0
  C  C596  1  0.738000  0.766900  0.274500  1.0
  C  C597  1  0.766900  0.028900  0.774500  1.0
  C  C598  1  0.028900  0.262000  0.274500  1.0
  C  C599  1  0.262000  0.233100  0.774500  1.0
  C  C600  1  0.233100  0.971100  0.274500  1.0
  C  C601  1  0.071800  0.246700  0.203200  1.0
  C  C602  1  0.246700  0.174900  0.703200  1.0
  C  C603  1  0.174900  0.928200  0.203200  1.0
  C  C604  1  0.928200  0.753300  0.703200  1.0
  C  C605  1  0.753300  0.825100  0.203200  1.0
  C  C606  1  0.825100  0.071800  0.703200  1.0
  C  C607  1  0.928200  0.753300  0.796800  1.0
  C  C608  1  0.753300  0.825100  0.296800  1.0
  C  C609  1  0.825100  0.071800  0.796800  1.0
  C  C610  1  0.071800  0.246700  0.296800  1.0
  C  C611  1  0.246700  0.174900  0.796800  1.0
  C  C612  1  0.174900  0.928200  0.296800  1.0
  C  C613  1  0.111400  0.227400  0.225500  1.0
  C  C614  1  0.227400  0.116000  0.725500  1.0
  C  C615  1  0.116000  0.888600  0.225500  1.0
  C  C616  1  0.888600  0.772600  0.725500  1.0
  C  C617  1  0.772600  0.884000  0.225500  1.0
  C  C618  1  0.884000  0.111400  0.725500  1.0
  C  C619  1  0.888600  0.772600  0.774500  1.0
  C  C620  1  0.772600  0.884000  0.274500  1.0
  C  C621  1  0.884000  0.111400  0.774500  1.0
  C  C622  1  0.111400  0.227400  0.274500  1.0
  C  C623  1  0.227400  0.116000  0.774500  1.0
  C  C624  1  0.116000  0.888600  0.274500  1.0
  C  C625  1  0.148000  0.205500  0.193500  1.0
  C  C626  1  0.205500  0.057500  0.693500  1.0
  C  C627  1  0.057500  0.852000  0.193500  1.0
  C  C628  1  0.852000  0.794500  0.693500  1.0
  C  C629  1  0.794500  0.942500  0.193500  1.0
  C  C630  1  0.942500  0.148000  0.693500  1.0
  C  C631  1  0.852000  0.794500  0.806500  1.0
  C  C632  1  0.794500  0.942500  0.306500  1.0
  C  C633  1  0.942500  0.148000  0.806500  1.0
  C  C634  1  0.148000  0.205500  0.306500  1.0
  C  C635  1  0.205500  0.057500  0.806500  1.0
  C  C636  1  0.057500  0.852000  0.306500  1.0
  C  C637  1  0.988100  0.306400  0.106600  1.0
  C  C638  1  0.306400  0.318300  0.606600  1.0
  C  C639  1  0.318300  0.011900  0.106600  1.0
  C  C640  1  0.011900  0.693600  0.606600  1.0
  C  C641  1  0.693600  0.681700  0.106600  1.0
  C  C642  1  0.681700  0.988100  0.606600  1.0
  C  C643  1  0.011900  0.693600  0.893400  1.0
  C  C644  1  0.693600  0.681700  0.393400  1.0
  C  C645  1  0.681700  0.988100  0.893400  1.0
  C  C646  1  0.988100  0.306400  0.393400  1.0
  C  C647  1  0.306400  0.318300  0.893400  1.0
  C  C648  1  0.318300  0.011900  0.393400  1.0
  C  C649  1  0.944700  0.206800  0.131900  1.0
  C  C650  1  0.206800  0.262100  0.631900  1.0
  C  C651  1  0.262100  0.055300  0.131900  1.0
  C  C652  1  0.055300  0.793200  0.631900  1.0
  C  C653  1  0.793200  0.737900  0.131900  1.0
  C  C654  1  0.737900  0.944700  0.631900  1.0
  C  C655  1  0.055300  0.793200  0.868100  1.0
  C  C656  1  0.793200  0.737900  0.368100  1.0
  C  C657  1  0.737900  0.944700  0.868100  1.0
  C  C658  1  0.944700  0.206800  0.368100  1.0
  C  C659  1  0.206800  0.262100  0.868100  1.0
  C  C660  1  0.262100  0.055300  0.368100  1.0
  C  C661  1  0.222800  0.309100  0.159200  1.0
  C  C662  1  0.309100  0.086300  0.659200  1.0
  C  C663  1  0.086300  0.777200  0.159200  1.0
  C  C664  1  0.777200  0.690900  0.659200  1.0
  C  C665  1  0.690900  0.913700  0.159200  1.0
  C  C666  1  0.913700  0.222800  0.659200  1.0
  C  C667  1  0.777200  0.690900  0.840800  1.0
  C  C668  1  0.690900  0.913700  0.340800  1.0
  C  C669  1  0.913700  0.222800  0.840800  1.0
  C  C670  1  0.222800  0.309100  0.340800  1.0
  C  C671  1  0.309100  0.086300  0.840800  1.0
  C  C672  1  0.086300  0.777200  0.340800  1.0
  C  C673  1  0.180200  0.216900  0.109800  1.0
  C  C674  1  0.216900  0.036700  0.609800  1.0
  C  C675  1  0.036700  0.819800  0.109800  1.0
  C  C676  1  0.819800  0.783100  0.609800  1.0
  C  C677  1  0.783100  0.963300  0.109800  1.0
  C  C678  1  0.963300  0.180200  0.609800  1.0
  C  C679  1  0.819800  0.783100  0.890200  1.0
  C  C680  1  0.783100  0.963300  0.390200  1.0
  C  C681  1  0.963300  0.180200  0.890200  1.0
  C  C682  1  0.180200  0.216900  0.390200  1.0
  C  C683  1  0.216900  0.036700  0.890200  1.0
  C  C684  1  0.036700  0.819800  0.390200  1.0
  C  C685  1  0.192400  0.590000  0.069900  1.0
  C  C686  1  0.590000  0.397600  0.569900  1.0
  C  C687  1  0.397600  0.807600  0.069900  1.0
  C  C688  1  0.807600  0.410000  0.569900  1.0
  C  C689  1  0.410000  0.602400  0.069900  1.0
  C  C690  1  0.602400  0.192400  0.569900  1.0
  C  C691  1  0.807600  0.410000  0.930100  1.0
  C  C692  1  0.410000  0.602400  0.430100  1.0
  C  C693  1  0.602400  0.192400  0.930100  1.0
  C  C694  1  0.192400  0.590000  0.430100  1.0
  C  C695  1  0.590000  0.397600  0.930100  1.0
  C  C696  1  0.397600  0.807600  0.430100  1.0
  C  C697  1  0.092500  0.533700  0.104800  1.0
  C  C698  1  0.533700  0.441200  0.604800  1.0
  C  C699  1  0.441200  0.907500  0.104800  1.0
  C  C700  1  0.907500  0.466300  0.604800  1.0
  C  C701  1  0.466300  0.558800  0.104800  1.0
  C  C702  1  0.558800  0.092500  0.604800  1.0
  C  C703  1  0.907500  0.466300  0.895200  1.0
  C  C704  1  0.466300  0.558800  0.395200  1.0
  C  C705  1  0.558800  0.092500  0.895200  1.0
  C  C706  1  0.092500  0.533700  0.395200  1.0
  C  C707  1  0.533700  0.441200  0.895200  1.0
  C  C708  1  0.441200  0.907500  0.395200  1.0
  C  C709  1  0.089000  0.521500  0.054900  1.0
  C  C710  1  0.521500  0.432500  0.554900  1.0
  C  C711  1  0.432500  0.911000  0.054900  1.0
  C  C712  1  0.911000  0.478500  0.554900  1.0
  C  C713  1  0.478500  0.567500  0.054900  1.0
  C  C714  1  0.567500  0.089000  0.554900  1.0
  C  C715  1  0.911000  0.478500  0.945100  1.0
  C  C716  1  0.478500  0.567500  0.445100  1.0
  C  C717  1  0.567500  0.089000  0.945100  1.0
  C  C718  1  0.089000  0.521500  0.445100  1.0
  C  C719  1  0.521500  0.432500  0.945100  1.0
  C  C720  1  0.432500  0.911000  0.445100  1.0
  C  C721  1  0.292400  0.600700  0.875400  1.0
  C  C722  1  0.600700  0.308300  0.375400  1.0
  C  C723  1  0.308300  0.707600  0.875400  1.0
  C  C724  1  0.707600  0.399300  0.375400  1.0
  C  C725  1  0.399300  0.691700  0.875400  1.0
  C  C726  1  0.691700  0.292400  0.375400  1.0
  C  C727  1  0.707600  0.399300  0.124600  1.0
  C  C728  1  0.399300  0.691700  0.624600  1.0
  C  C729  1  0.691700  0.292400  0.124600  1.0
  C  C730  1  0.292400  0.600700  0.624600  1.0
  C  C731  1  0.600700  0.308300  0.124600  1.0
  C  C732  1  0.308300  0.707600  0.624600  1.0
  C  C733  1  0.359300  0.624300  0.875000  1.0
  C  C734  1  0.624300  0.265000  0.375000  1.0
  C  C735  1  0.265000  0.640700  0.875000  1.0
  C  C736  1  0.640700  0.375700  0.375000  1.0
  C  C737  1  0.375700  0.735000  0.875000  1.0
  C  C738  1  0.735000  0.359300  0.375000  1.0
  C  C739  1  0.640700  0.375700  0.125000  1.0
  C  C740  1  0.375700  0.735000  0.625000  1.0
  C  C741  1  0.735000  0.359300  0.125000  1.0
  C  C742  1  0.359300  0.624300  0.625000  1.0
  C  C743  1  0.624300  0.265000  0.125000  1.0
  C  C744  1  0.265000  0.640700  0.625000  1.0
  C  C745  1  0.251000  0.527200  0.874800  1.0
  C  C746  1  0.527200  0.276200  0.374800  1.0
  C  C747  1  0.276200  0.749000  0.874800  1.0
  C  C748  1  0.749000  0.472800  0.374800  1.0
  C  C749  1  0.472800  0.723800  0.874800  1.0
  C  C750  1  0.723800  0.251000  0.374800  1.0
  C  C751  1  0.749000  0.472800  0.125200  1.0
  C  C752  1  0.472800  0.723800  0.625200  1.0
  C  C753  1  0.723800  0.251000  0.125200  1.0
  C  C754  1  0.251000  0.527200  0.625200  1.0
  C  C755  1  0.527200  0.276200  0.125200  1.0
  C  C756  1  0.276200  0.749000  0.625200  1.0
  C  C757  1  0.190300  0.408500  0.854900  1.0
  C  C758  1  0.408500  0.218200  0.354900  1.0
  C  C759  1  0.218200  0.809700  0.854900  1.0
  C  C760  1  0.809700  0.591500  0.354900  1.0
  C  C761  1  0.591500  0.781800  0.854900  1.0
  C  C762  1  0.781800  0.190300  0.354900  1.0
  C  C763  1  0.809700  0.591500  0.145100  1.0
  C  C764  1  0.591500  0.781800  0.645100  1.0
  C  C765  1  0.781800  0.190300  0.145100  1.0
  C  C766  1  0.190300  0.408500  0.645100  1.0
  C  C767  1  0.408500  0.218200  0.145100  1.0
  C  C768  1  0.218200  0.809700  0.645100  1.0
  C  C769  1  0.173700  0.426000  0.898900  1.0
  C  C770  1  0.426000  0.252300  0.398900  1.0
  C  C771  1  0.252300  0.826300  0.898900  1.0
  C  C772  1  0.826300  0.574000  0.398900  1.0
  C  C773  1  0.574000  0.747700  0.898900  1.0
  C  C774  1  0.747700  0.173700  0.398900  1.0
  C  C775  1  0.826300  0.574000  0.101100  1.0
  C  C776  1  0.574000  0.747700  0.601100  1.0
  C  C777  1  0.747700  0.173700  0.101100  1.0
  C  C778  1  0.173700  0.426000  0.601100  1.0
  C  C779  1  0.426000  0.252300  0.101100  1.0
  C  C780  1  0.252300  0.826300  0.601100  1.0
  C  C781  1  0.385100  0.577100  0.877600  1.0
  C  C782  1  0.577100  0.192000  0.377600  1.0
  C  C783  1  0.192000  0.614900  0.877600  1.0
  C  C784  1  0.614900  0.422900  0.377600  1.0
  C  C785  1  0.422900  0.808000  0.877600  1.0
  C  C786  1  0.808000  0.385100  0.377600  1.0
  C  C787  1  0.614900  0.422900  0.122400  1.0
  C  C788  1  0.422900  0.808000  0.622400  1.0
  C  C789  1  0.808000  0.385100  0.122400  1.0
  C  C790  1  0.385100  0.577100  0.622400  1.0
  C  C791  1  0.577100  0.192000  0.122400  1.0
  C  C792  1  0.192000  0.614900  0.622400  1.0
  C  C793  1  0.435700  0.511000  0.856100  1.0
  C  C794  1  0.511000  0.075300  0.356100  1.0
  C  C795  1  0.075300  0.564300  0.856100  1.0
  C  C796  1  0.564300  0.489000  0.356100  1.0
  C  C797  1  0.489000  0.924700  0.856100  1.0
  C  C798  1  0.924700  0.435700  0.356100  1.0
  C  C799  1  0.564300  0.489000  0.143900  1.0
  C  C800  1  0.489000  0.924700  0.643900  1.0
  C  C801  1  0.924700  0.435700  0.143900  1.0
  C  C802  1  0.435700  0.511000  0.643900  1.0
  C  C803  1  0.511000  0.075300  0.143900  1.0
  C  C804  1  0.075300  0.564300  0.643900  1.0
  C  C805  1  0.403200  0.496700  0.900700  1.0
  C  C806  1  0.496700  0.093500  0.400700  1.0
  C  C807  1  0.093500  0.596800  0.900700  1.0
  C  C808  1  0.596800  0.503300  0.400700  1.0
  C  C809  1  0.503300  0.906500  0.900700  1.0
  C  C810  1  0.906500  0.403200  0.400700  1.0
  C  C811  1  0.596800  0.503300  0.099300  1.0
  C  C812  1  0.503300  0.906500  0.599300  1.0
  C  C813  1  0.906500  0.403200  0.099300  1.0
  C  C814  1  0.403200  0.496700  0.599300  1.0
  C  C815  1  0.496700  0.093500  0.099300  1.0
  C  C816  1  0.093500  0.596800  0.599300  1.0
  S  S817  1  0.800800  0.117300  0.250000  1
  S  S818  1  0.117300  0.316500  0.750000  1
  S  S819  1  0.316500  0.199200  0.250000  1
  S  S820  1  0.199200  0.882700  0.750000  1
  S  S821  1  0.882700  0.683500  0.250000  1
  S  S822  1  0.683500  0.800800  0.750000  1
  S  S823  1  0.511800  0.545100  0.250000  1
  S  S824  1  0.545100  0.033300  0.750000  1
  S  S825  1  0.033300  0.488200  0.250000  1
  S  S826  1  0.488200  0.454900  0.750000  1
  S  S827  1  0.454900  0.966700  0.250000  1
  S  S828  1  0.966700  0.511800  0.750000  1
  S  S829  1  0.645000  0.654200  0.517560  1
  S  S830  1  0.654200  0.009200  0.017560  1
  S  S831  1  0.009200  0.355000  0.517560  1
  S  S832  1  0.355000  0.345800  0.017560  1
  S  S833  1  0.345800  0.990800  0.517560  1
  S  S834  1  0.990800  0.645000  0.017560  1
  S  S835  1  0.355000  0.345800  0.482440  1
  S  S836  1  0.345800  0.990800  0.982440  1
  S  S837  1  0.990800  0.645000  0.482440  1
  S  S838  1  0.645000  0.654200  0.982440  1
  S  S839  1  0.654200  0.009200  0.482440  1
  S  S840  1  0.009200  0.355000  0.982440  1
  S  S841  1  0.244700  0.478900  0.826720  1.0
  S  S842  1  0.478900  0.234200  0.326720  1.0
  S  S843  1  0.234200  0.755300  0.826720  1.0
  S  S844  1  0.755300  0.521100  0.326720  1.0
  S  S845  1  0.521100  0.765800  0.826720  1.0
  S  S846  1  0.765800  0.244700  0.326720  1.0
  S  S847  1  0.755300  0.521100  0.173280  1.0
  S  S848  1  0.521100  0.765800  0.673280  1.0
  S  S849  1  0.765800  0.244700  0.173280  1.0
  S  S850  1  0.244700  0.478900  0.673280  1.0
  S  S851  1  0.478900  0.234200  0.173280  1.0
  S  S852  1  0.234200  0.755300  0.673280  1.0
  S  S853  1  0.427400  0.570800  0.829480  1.0
  S  S854  1  0.570800  0.143400  0.329480  1.0
  S  S855  1  0.143400  0.572600  0.829480  1.0
  S  S856  1  0.572600  0.429200  0.329480  1.0
  S  S857  1  0.429200  0.856600  0.829480  1.0
  S  S858  1  0.856600  0.427400  0.329480  1.0
  S  S859  1  0.572600  0.429200  0.170520  1.0
  S  S860  1  0.429200  0.856600  0.670520  1.0
  S  S861  1  0.856600  0.427400  0.170520  1.0
  S  S862  1  0.427400  0.570800  0.670520  1.0
  S  S863  1  0.570800  0.143400  0.170520  1.0
  S  S864  1  0.143400  0.572600  0.670520  1.0
  N  N865  1  0.102300  0.274300  0.058500  1.0
  N  N866  1  0.274300  0.172000  0.558500  1.0
  N  N867  1  0.172000  0.897700  0.058500  1.0
  N  N868  1  0.897700  0.725700  0.558500  1.0
  N  N869  1  0.725700  0.828000  0.058500  1.0
  N  N870  1  0.828000  0.102300  0.558500  1.0
  N  N871  1  0.897700  0.725700  0.941500  1.0
  N  N872  1  0.725700  0.828000  0.441500  1.0
  N  N873  1  0.828000  0.102300  0.941500  1.0
  N  N874  1  0.102300  0.274300  0.441500  1.0
  N  N875  1  0.274300  0.172000  0.941500  1.0
  N  N876  1  0.172000  0.897700  0.441500  1.0
  N  N877  1  0.152800  0.550200  0.036000  1.0
  N  N878  1  0.550200  0.397400  0.536000  1.0
  N  N879  1  0.397400  0.847200  0.036000  1.0
  N  N880  1  0.847200  0.449800  0.536000  1.0
  N  N881  1  0.449800  0.602600  0.036000  1.0
  N  N882  1  0.602600  0.152800  0.536000  1.0
  N  N883  1  0.847200  0.449800  0.964000  1.0
  N  N884  1  0.449800  0.602600  0.464000  1.0
  N  N885  1  0.602600  0.152800  0.964000  1.0
  N  N886  1  0.152800  0.550200  0.464000  1.0
  N  N887  1  0.550200  0.397400  0.964000  1.0
  N  N888  1  0.397400  0.847200  0.464000  1.0
  N  N889  1  0.002400  0.270200  0.141700  1.0
  N  N890  1  0.270200  0.267800  0.641700  1.0
  N  N891  1  0.267800  0.997600  0.141700  1.0
  N  N892  1  0.997600  0.729800  0.641700  1.0
  N  N893  1  0.729800  0.732200  0.141700  1.0
  N  N894  1  0.732200  0.002400  0.641700  1.0
  N  N895  1  0.997600  0.729800  0.858300  1.0
  N  N896  1  0.729800  0.732200  0.358300  1.0
  N  N897  1  0.732200  0.002400  0.858300  1.0
  N  N898  1  0.002400  0.270200  0.358300  1.0
  N  N899  1  0.270200  0.267800  0.858300  1.0
  N  N900  1  0.267800  0.997600  0.358300  1.0
  N  N901  1  0.165300  0.245100  0.150600  1.0
  N  N902  1  0.245100  0.079800  0.650600  1.0
  N  N903  1  0.079800  0.834700  0.150600  1.0
  N  N904  1  0.834700  0.754900  0.650600  1.0
  N  N905  1  0.754900  0.920200  0.150600  1.0
  N  N906  1  0.920200  0.165300  0.650600  1.0
  N  N907  1  0.834700  0.754900  0.849400  1.0
  N  N908  1  0.754900  0.920200  0.349400  1.0
  N  N909  1  0.920200  0.165300  0.849400  1.0
  N  N910  1  0.165300  0.245100  0.349400  1.0
  N  N911  1  0.245100  0.079800  0.849400  1.0
  N  N912  1  0.079800  0.834700  0.349400  1.0
  N  N913  1  0.208700  0.493200  0.909300  1.0
  N  N914  1  0.493200  0.284500  0.409300  1.0
  N  N915  1  0.284500  0.791300  0.909300  1.0
  N  N916  1  0.791300  0.506800  0.409300  1.0
  N  N917  1  0.506800  0.715500  0.909300  1.0
  N  N918  1  0.715500  0.208700  0.409300  1.0
  N  N919  1  0.791300  0.506800  0.090700  1.0
  N  N920  1  0.506800  0.715500  0.590700  1.0
  N  N921  1  0.715500  0.208700  0.090700  1.0
  N  N922  1  0.208700  0.493200  0.590700  1.0
  N  N923  1  0.493200  0.284500  0.090700  1.0
  N  N924  1  0.284500  0.791300  0.590700  1.0
  N  N925  1  0.376400  0.535900  0.913300  1.0
  N  N926  1  0.535900  0.159500  0.413300  1.0
  N  N927  1  0.159500  0.623600  0.913300  1.0
  N  N928  1  0.623600  0.464100  0.413300  1.0
  N  N929  1  0.464100  0.840500  0.913300  1.0
  N  N930  1  0.840500  0.376400  0.413300  1.0
  N  N931  1  0.623600  0.464100  0.086700  1.0
  N  N932  1  0.464100  0.840500  0.586700  1.0
  N  N933  1  0.840500  0.376400  0.086700  1.0
  N  N934  1  0.376400  0.535900  0.586700  1.0
  N  N935  1  0.535900  0.159500  0.086700  1.0
  N  N936  1  0.159500  0.623600  0.586700  1.0
  O  O937  1  0.813000  0.184800  0.250000  1
  O  O938  1  0.184800  0.371800  0.750000  1
  O  O939  1  0.371800  0.187000  0.250000  1
  O  O940  1  0.187000  0.815200  0.750000  1
  O  O941  1  0.815200  0.628200  0.250000  1
  O  O942  1  0.628200  0.813000  0.750000  1
  O  O943  1  0.496000  0.476700  0.250000  1
  O  O944  1  0.476700  0.980700  0.750000  1
  O  O945  1  0.980700  0.504000  0.250000  1
  O  O946  1  0.504000  0.523300  0.750000  1
  O  O947  1  0.523300  0.019300  0.250000  1
  O  O948  1  0.019300  0.496000  0.750000  1
  O  O949  1  0.075000  0.070000  0.468700  1
  O  O950  1  0.070000  0.995000  0.968700  1
  O  O951  1  0.995000  0.925000  0.468700  1
  O  O952  1  0.925000  0.930000  0.968700  1
  O  O953  1  0.930000  0.005000  0.468700  1
  O  O954  1  0.005000  0.075000  0.968700  1
  O  O955  1  0.925000  0.930000  0.531300  1
  O  O956  1  0.930000  0.005000  0.031300  1
  O  O957  1  0.005000  0.075000  0.531300  1
  O  O958  1  0.075000  0.070000  0.031300  1
  O  O959  1  0.070000  0.995000  0.531300  1
  O  O960  1  0.995000  0.925000  0.031300  1
  O  O961  1  0.133000  0.036000  0.250000  1
  O  O962  1  0.036000  0.903000  0.750000  1
  O  O963  1  0.903000  0.867000  0.250000  1
  O  O964  1  0.867000  0.964000  0.750000  1
  O  O965  1  0.964000  0.097000  0.250000  1
  O  O966  1  0.097000  0.133000  0.750000  1
  O  O967  1  0.716100  0.698700  0.519800  1
  O  O968  1  0.698700  0.982600  0.019800  1
  O  O969  1  0.982600  0.283900  0.519800  1
  O  O970  1  0.283900  0.301300  0.019800  1
  O  O971  1  0.301300  0.017400  0.519800  1
  O  O972  1  0.017400  0.716100  0.019800  1
  O  O973  1  0.283900  0.301300  0.480200  1
  O  O974  1  0.301300  0.017400  0.980200  1
  O  O975  1  0.017400  0.716100  0.480200  1
  O  O976  1  0.716100  0.698700  0.980200  1
  O  O977  1  0.698700  0.982600  0.480200  1
  O  O978  1  0.982600  0.283900  0.980200  1
  O  O979  1  0.621400  0.594100  0.489700  1
  O  O980  1  0.594100  0.972700  0.989700  1
  O  O981  1  0.972700  0.378600  0.489700  1
  O  O982  1  0.378600  0.405900  0.989700  1
  O  O983  1  0.405900  0.027300  0.489700  1
  O  O984  1  0.027300  0.621400  0.989700  1
  O  O985  1  0.378600  0.405900  0.510300  1
  O  O986  1  0.405900  0.027300  0.010300  1
  O  O987  1  0.027300  0.621400  0.510300  1
  O  O988  1  0.621400  0.594100  0.010300  1
  O  O989  1  0.594100  0.972700  0.510300  1
  O  O990  1  0.972700  0.378600  0.010300  1
  O  O991  1  0.605200  0.685300  0.509700  1
  O  O992  1  0.685300  0.080100  0.009700  1
  O  O993  1  0.080100  0.394800  0.509700  1
  O  O994  1  0.394800  0.314700  0.009700  1
  O  O995  1  0.314700  0.919900  0.509700  1
  O  O996  1  0.919900  0.605200  0.009700  1
  O  O997  1  0.394800  0.314700  0.490300  1
  O  O998  1  0.314700  0.919900  0.990300  1
  O  O999  1  0.919900  0.605200  0.490300  1
  O  O1000  1  0.605200  0.685300  0.990300  1
  O  O1001  1  0.685300  0.080100  0.490300  1
  O  O1002  1  0.080100  0.394800  0.990300  1
  O  O1003  1  0.333333  0.666667  0.750000  1
  O  O1004  1  0.666667  0.333333  0.250000  1
  O  O1005  1  0.052000  0.045000  0.492000  1
  O  O1006  1  0.045000  0.993000  0.992000  1
  O  O1007  1  0.993000  0.948000  0.492000  1
  O  O1008  1  0.948000  0.955000  0.992000  1
  O  O1009  1  0.955000  0.007000  0.492000  1
  O  O1010  1  0.007000  0.052000  0.992000  1
  O  O1011  1  0.948000  0.955000  0.508000  1
  O  O1012  1  0.955000  0.007000  0.008000  1
  O  O1013  1  0.007000  0.052000  0.508000  1
  O  O1014  1  0.052000  0.045000  0.008000  1
  O  O1015  1  0.045000  0.993000  0.508000  1
  O  O1016  1  0.993000  0.948000  0.008000  1
  O  O1017  1  0.013000  0.024000  0.346000  1
  O  O1018  1  0.024000  0.011000  0.846000  1
  O  O1019  1  0.011000  0.987000  0.346000  1
  O  O1020  1  0.987000  0.976000  0.846000  1
  O  O1021  1  0.976000  0.989000  0.346000  1
  O  O1022  1  0.989000  0.013000  0.846000  1
  O  O1023  1  0.987000  0.976000  0.654000  1
  O  O1024  1  0.976000  0.989000  0.154000  1
  O  O1025  1  0.989000  0.013000  0.654000  1
  O  O1026  1  0.013000  0.024000  0.154000  1
  O  O1027  1  0.024000  0.011000  0.654000  1
  O  O1028  1  0.011000  0.987000  0.154000  1
  O  O1029  1  0.986000  0.023000  0.293000  1
  O  O1030  1  0.023000  0.037000  0.793000  1
  O  O1031  1  0.037000  0.014000  0.293000  1
  O  O1032  1  0.014000  0.977000  0.793000  1
  O  O1033  1  0.977000  0.963000  0.293000  1
  O  O1034  1  0.963000  0.986000  0.793000  1
  O  O1035  1  0.014000  0.977000  0.707000  1
  O  O1036  1  0.977000  0.963000  0.207000  1
  O  O1037  1  0.963000  0.986000  0.707000  1
  O  O1038  1  0.986000  0.023000  0.207000  1
  O  O1039  1  0.023000  0.037000  0.707000  1
  O  O1040  1  0.037000  0.014000  0.207000  1
  O  O1041  1  0.817400  0.094900  0.293500  1.0
  O  O1042  1  0.094900  0.277500  0.793500  1.0
  O  O1043  1  0.277500  0.182600  0.293500  1.0
  O  O1044  1  0.182600  0.905100  0.793500  1.0
  O  O1045  1  0.905100  0.722500  0.293500  1.0
  O  O1046  1  0.722500  0.817400  0.793500  1.0
  O  O1047  1  0.182600  0.905100  0.706500  1.0
  O  O1048  1  0.905100  0.722500  0.206500  1.0
  O  O1049  1  0.722500  0.817400  0.706500  1.0
  O  O1050  1  0.817400  0.094900  0.206500  1.0
  O  O1051  1  0.094900  0.277500  0.706500  1.0
  O  O1052  1  0.277500  0.182600  0.206500  1.0
  O  O1053  1  0.531800  0.586600  0.207700  1.0
  O  O1054  1  0.586600  0.054800  0.707700  1.0
  O  O1055  1  0.054800  0.468200  0.207700  1.0
  O  O1056  1  0.468200  0.413400  0.707700  1.0
  O  O1057  1  0.413400  0.945200  0.207700  1.0
  O  O1058  1  0.945200  0.531800  0.707700  1.0
  O  O1059  1  0.468200  0.413400  0.792300  1.0
  O  O1060  1  0.413400  0.945200  0.292300  1.0
  O  O1061  1  0.945200  0.531800  0.792300  1.0
  O  O1062  1  0.531800  0.586600  0.292300  1.0
  O  O1063  1  0.586600  0.054800  0.792300  1.0
  O  O1064  1  0.054800  0.468200  0.292300  1.0
  O  O1065  1  0.546000  0.695000  0.279000  1.0
  O  O1066  1  0.695000  0.149000  0.779000  1.0
  O  O1067  1  0.149000  0.454000  0.279000  1.0
  O  O1068  1  0.454000  0.305000  0.779000  1.0
  O  O1069  1  0.305000  0.851000  0.279000  1.0
  O  O1070  1  0.851000  0.546000  0.779000  1.0
  O  O1071  1  0.454000  0.305000  0.721000  1.0
  O  O1072  1  0.305000  0.851000  0.221000  1.0
  O  O1073  1  0.851000  0.546000  0.721000  1.0
  O  O1074  1  0.546000  0.695000  0.221000  1.0
  O  O1075  1  0.695000  0.149000  0.721000  1.0
  O  O1076  1  0.149000  0.454000  0.221000  1.0
  O  O1077  1  0.147900  0.309100  0.986600  1.0
  O  O1078  1  0.309100  0.161200  0.486600  1.0
  O  O1079  1  0.161200  0.852100  0.986600  1.0
  O  O1080  1  0.852100  0.690900  0.486600  1.0
  O  O1081  1  0.690900  0.838800  0.986600  1.0
  O  O1082  1  0.838800  0.147900  0.486600  1.0
  O  O1083  1  0.852100  0.690900  0.013400  1.0
  O  O1084  1  0.690900  0.838800  0.513400  1.0
  O  O1085  1  0.838800  0.147900  0.013400  1.0
  O  O1086  1  0.147900  0.309100  0.513400  1.0
  O  O1087  1  0.309100  0.161200  0.013400  1.0
  O  O1088  1  0.161200  0.852100  0.513400  1.0
  O  O1089  1  0.164300  0.590600  0.110400  1.0
  O  O1090  1  0.590600  0.426300  0.610400  1.0
  O  O1091  1  0.426300  0.835700  0.110400  1.0
  O  O1092  1  0.835700  0.409400  0.610400  1.0
  O  O1093  1  0.409400  0.573700  0.110400  1.0
  O  O1094  1  0.573700  0.164300  0.610400  1.0
  O  O1095  1  0.835700  0.409400  0.889600  1.0
  O  O1096  1  0.409400  0.573700  0.389600  1.0
  O  O1097  1  0.573700  0.164300  0.889600  1.0
  O  O1098  1  0.164300  0.590600  0.389600  1.0
  O  O1099  1  0.590600  0.426300  0.889600  1.0
  O  O1100  1  0.426300  0.835700  0.389600  1.0
  F  F1101  1  0.681600  0.008700  0.250000  1
  F  F1102  1  0.008700  0.327100  0.750000  1
  F  F1103  1  0.327100  0.318400  0.250000  1
  F  F1104  1  0.318400  0.991300  0.750000  1
  F  F1105  1  0.991300  0.672900  0.250000  1
  F  F1106  1  0.672900  0.681600  0.750000  1
  F  F1107  1  0.403000  0.544000  0.250000  1
  F  F1108  1  0.544000  0.141000  0.750000  1
  F  F1109  1  0.141000  0.597000  0.250000  1
  F  F1110  1  0.597000  0.456000  0.750000  1
  F  F1111  1  0.456000  0.859000  0.250000  1
  F  F1112  1  0.859000  0.403000  0.750000  1
  F  F1113  1  0.655900  0.591300  0.590000  1
  F  F1114  1  0.591300  0.935400  0.090000  1
  F  F1115  1  0.935400  0.344100  0.590000  1
  F  F1116  1  0.344100  0.408700  0.090000  1
  F  F1117  1  0.408700  0.064600  0.590000  1
  F  F1118  1  0.064600  0.655900  0.090000  1
  F  F1119  1  0.344100  0.408700  0.410000  1
  F  F1120  1  0.408700  0.064600  0.910000  1
  F  F1121  1  0.064600  0.655900  0.410000  1
  F  F1122  1  0.655900  0.591300  0.910000  1
  F  F1123  1  0.591300  0.935400  0.410000  1
  F  F1124  1  0.935400  0.344100  0.910000  1
  F  F1125  1  0.559300  0.583600  0.583900  1
  F  F1126  1  0.583600  0.024300  0.083900  1
  F  F1127  1  0.024300  0.440700  0.583900  1
  F  F1128  1  0.440700  0.416400  0.083900  1
  F  F1129  1  0.416400  0.975700  0.583900  1
  F  F1130  1  0.975700  0.559300  0.083900  1
  F  F1131  1  0.440700  0.416400  0.416100  1
  F  F1132  1  0.416400  0.975700  0.916100  1
  F  F1133  1  0.975700  0.559300  0.416100  1
  F  F1134  1  0.559300  0.583600  0.916100  1
  F  F1135  1  0.583600  0.024300  0.416100  1
  F  F1136  1  0.024300  0.440700  0.916100  1
  F  F1137  1  0.653700  0.675900  0.607300  1
  F  F1138  1  0.675900  0.022200  0.107300  1
  F  F1139  1  0.022200  0.346300  0.607300  1
  F  F1140  1  0.346300  0.324100  0.107300  1
  F  F1141  1  0.324100  0.977800  0.607300  1
  F  F1142  1  0.977800  0.653700  0.107300  1
  F  F1143  1  0.346300  0.324100  0.392700  1
  F  F1144  1  0.324100  0.977800  0.892700  1
  F  F1145  1  0.977800  0.653700  0.392700  1
  F  F1146  1  0.653700  0.675900  0.892700  1
  F  F1147  1  0.675900  0.022200  0.392700  1
  F  F1148  1  0.022200  0.346300  0.892700  1
  F  F1149  1  0.680500  0.082600  0.212200  1.0
  F  F1150  1  0.082600  0.402100  0.712200  1.0
  F  F1151  1  0.402100  0.319500  0.212200  1.0
  F  F1152  1  0.319500  0.917400  0.712200  1.0
  F  F1153  1  0.917400  0.597900  0.212200  1.0
  F  F1154  1  0.597900  0.680500  0.712200  1.0
  F  F1155  1  0.319500  0.917400  0.787800  1.0
  F  F1156  1  0.917400  0.597900  0.287800  1.0
  F  F1157  1  0.597900  0.680500  0.787800  1.0
  F  F1158  1  0.680500  0.082600  0.287800  1.0
  F  F1159  1  0.082600  0.402100  0.787800  1.0
  F  F1160  1  0.402100  0.319500  0.287800  1.0
  F  F1161  1  0.406000  0.454100  0.285100  1.0
  F  F1162  1  0.454100  0.048100  0.785100  1.0
  F  F1163  1  0.048100  0.594000  0.285100  1.0
  F  F1164  1  0.594000  0.545900  0.785100  1.0
  F  F1165  1  0.545900  0.951900  0.285100  1.0
  F  F1166  1  0.951900  0.406000  0.785100  1.0
  F  F1167  1  0.594000  0.545900  0.714900  1.0
  F  F1168  1  0.545900  0.951900  0.214900  1.0
  F  F1169  1  0.951900  0.406000  0.714900  1.0
  F  F1170  1  0.406000  0.454100  0.214900  1.0
  F  F1171  1  0.454100  0.048100  0.714900  1.0
  F  F1172  1  0.048100  0.594000  0.214900  1.0
