
#######################################################################
#
#                 Cambridge Crystallographic Data Centre
#                                CCDC 
#
#######################################################################
#
# If this CIF has been generated from an entry in the Cambridge 
# Structural Database, then it will include bibliographic, chemical, 
# crystal, experimental, refinement or atomic coordinate data resulting 
# from the CCDC's data processing and validation procedures.
#
#######################################################################

data_XUPPII
_chemical_formula_moiety         
'C138 H168 N24 O12 Pt6 6+,6(C1 F3 O3 S1 1-),6(C1 H4 O1),30(H2 O1)'
_chemical_name_systematic        
'bis(\m~3~-1,3,5-tris(4-(1,3-oxazol-2-yl)phenyl)-2,4,6-tris(oxazol-2-yl)benzene)-tris(\m~2~-2,3,5,6-tetrakis(dimethylaminomethyl)-1,4-phenylene)-hexa-platinum hexakis(trifluoromethanesulfonate) methanol solvate hydrate'
_symmetry_cell_setting           rhombohedral
_symmetry_space_group_name_H-M   'R 3 2'
_symmetry_Int_Tables_number      155
_space_group_name_Hall           'R 3 2"'
loop_
_symmetry_equiv_pos_site_id
_symmetry_equiv_pos_as_xyz
1 x,y,z
2 -y,x-y,z
3 -x+y,-x,z
4 y,x,-z
5 x-y,-y,-z
6 -x,-x+y,-z
7 2/3+x,1/3+y,1/3+z
8 2/3-y,1/3+x-y,1/3+z
9 2/3-x+y,1/3-x,1/3+z
10 2/3+y,1/3+x,1/3-z
11 2/3+x-y,1/3-y,1/3-z
12 2/3-x,1/3-x+y,1/3-z
13 1/3+x,2/3+y,2/3+z
14 1/3-y,2/3+x-y,2/3+z
15 1/3-x+y,2/3-x,2/3+z
16 1/3+y,2/3+x,2/3-z
17 1/3+x-y,2/3-y,2/3-z
18 1/3-x,2/3-x+y,2/3-z
_cell_length_a                   19.4486(7)
_cell_length_b                   19.4486(7)
_cell_length_c                   53.926(4)
_cell_angle_alpha                90
_cell_angle_beta                 90
_cell_angle_gamma                120
_cell_volume                     17664.7
_exptl_crystal_colour            colorless
_exptl_crystal_description       block
_cell_formula_units_Z            3
loop_
_atom_site_label
_atom_site_type_symbol
_atom_site_fract_x
_atom_site_fract_y
_atom_site_fract_z
Pt1 Pt 0.37274(5) 0.95900(5) 0.440490(9)
C1 C 0.3262(8) 0.9271(9) 0.38382(18)
O1 O 0.3509(6) 0.9200(6) 0.36107(12)
C2 C 0.4228(9) 0.9202(11) 0.36407(18)
H1 H 0.4656 0.9639 0.3544
H2 H 0.4172 0.8692 0.3584
C3 C 0.4418(8) 0.9320(10) 0.39194(18)
H3 H 0.4479 0.8882 0.3989
H4 H 0.4906 0.9832 0.3953
N1 N 0.3692(7) 0.9312(8) 0.40224(15)
C4 C 0.1614(8) 1.1262(9) 0.3869(2)
O2 O 0.1875(6) 1.1596(7) 0.36444(15)
C5 C 0.2673(8) 1.2193(11) 0.3674(3)
H5 H 0.2730 1.2725 0.3653
H6 H 0.3013 1.2130 0.3550
C6 C 0.2908(8) 1.2095(11) 0.3938(2)
H7 H 0.3307 1.1920 0.3936
H8 H 0.3120 1.2594 0.4034
N2 N 0.2122(7) 1.1456(8) 0.40417(18)
C7 C 0.0642(9) 0.9810(9) 0.3875(2)
C8 C 0.0785(7) 1.0606(8) 0.3864(2)
C9 C 0.1248(5) 0.9595(7) 0.38565(14)
C10 C 0.1741(6) 0.9824(6) 0.36498(12)
H9 H 0.1633 1.0058 0.3512
C11 C 0.2392(5) 0.9710(6) 0.36452(11)
H10 H 0.2728 0.9866 0.3504
C12 C 0.2550(5) 0.9367(6) 0.38474(14)
C13 C 0.2057(6) 0.9138(6) 0.40541(11)
H11 H 0.2165 0.8904 0.4192
C14 C 0.1406(5) 0.9253(6) 0.40586(12)
H12 H 0.1069 0.9096 0.4200
N3 N 0.4047(7) 1.0769(7) 0.43767(16)
C15 C 0.4563(8) 1.1186(10) 0.46074(19)
H13 H 0.5117 1.1312 0.4579
H14 H 0.4565 1.1686 0.4642
C16 C 0.3325(8) 1.0884(9) 0.4384(2)
H15 H 0.3502 1.1452 0.4380
H16 H 0.3023 1.0649 0.4536
H17 H 0.2987 1.0623 0.4240
C17 C 0.4573(9) 1.1178(11) 0.4160(2)
H18 H 0.5107 1.1560 0.4219
H19 H 0.4357 1.1457 0.4065
H20 H 0.4600 1.0784 0.4053
N4 N 0.3410(11) 0.8503(9) 0.4543(2)
C18 C 0.3058(11) 0.8415(9) 0.4805(2)
H21 H 0.2487 0.8249 0.4795
H22 H 0.3115 0.8014 0.4901
C19 C 0.4199(11) 0.8513(12) 0.4568(3)
H23 H 0.4116 0.7983 0.4532
H24 H 0.4401 0.8667 0.4737
H25 H 0.4584 0.8896 0.4450
C20 C 0.2807(13) 0.7805(11) 0.4400(3)
H26 H 0.2985 0.7843 0.4228
H27 H 0.2299 0.7798 0.4403
H28 H 0.2739 0.7316 0.4475
C21 C 0.4198(8) 1.0609(8) 0.48261(18)
C22 C 0.3813(9) 0.9830(7) 0.4760(2)
C23 C 0.3521(10) 0.9227(9) 0.49269(17)
Pt1B Pt -0.41374(7) 0.62726(5) 0.440490(9)
Pt1E Pt -0.37274(5) 0.58626(7) 0.559510(9)
Pt1D Pt 0.41374(7) 1.04100(5) 0.559510(9)
Pt1C Pt -0.04100(5) 1.37274(5) 0.559510(9)
Pt1A Pt 0.04100(5) 1.41374(7) 0.440490(9)
C1B C -0.3991(12) 0.6738(8) 0.38382(18)
C1E C -0.3262(8) 0.6009(12) 0.61618(18)
C1D C 0.3991(12) 1.0729(9) 0.61618(18)
C1C C -0.0729(9) 1.3262(8) 0.61618(18)
C1A C 0.0729(9) 1.3991(12) 0.38382(18)
O1B O -0.4309(8) 0.6491(6) 0.36107(12)
O1E O -0.3509(6) 0.5691(8) 0.63893(12)
O1D O 0.4309(8) 1.0800(6) 0.63893(12)
O1C O -0.0800(6) 1.3509(6) 0.63893(12)
O1A O 0.0800(6) 1.4309(8) 0.36107(12)
C2B C -0.5026(14) 0.5772(9) 0.36407(18)
C2E C -0.4228(9) 0.4974(14) 0.63593(18)
C2D C 0.5026(14) 1.0798(11) 0.63593(18)
C2C C -0.0798(11) 1.4228(9) 0.63593(18)
C2A C 0.0798(11) 1.5026(14) 0.36407(18)
H1B H -0.5017 0.5344 0.3544
H1E H -0.4656 0.4983 0.6456
H1D H 0.5017 1.0361 0.6456
H1C H -0.0361 1.4656 0.6456
H1A H 0.0361 1.5017 0.3544
H2B H -0.5480 0.5828 0.3584
H2E H -0.4172 0.4520 0.6416
H2D H 0.5480 1.1308 0.6416
H2C H -0.1308 1.4172 0.6416
H2A H 0.1308 1.5480 0.3584
C3B C -0.5098(13) 0.5582(8) 0.39194(18)
C3E C -0.4418(8) 0.4902(13) 0.60806(18)
C3D C 0.5098(13) 1.0680(10) 0.60806(18)
C3C C -0.0680(10) 1.4418(8) 0.60806(18)
C3A C 0.0680(10) 1.5098(13) 0.39194(18)
H3B H -0.5597 0.5521 0.3989
H3E H -0.4479 0.4403 0.6011
H3D H 0.5597 1.1118 0.6011
H3C H -0.1118 1.4479 0.6011
H3A H 0.1118 1.5597 0.3989
H4B H -0.5074 0.5094 0.3953
H4E H -0.4906 0.4926 0.6047
H4D H 0.5074 1.0168 0.6047
H4C H -0.0168 1.4906 0.6047
H4A H 0.0168 1.5074 0.3953
N1B N -0.4380(11) 0.6308(7) 0.40224(15)
N1E N -0.3692(7) 0.5620(11) 0.59776(15)
N1D N 0.4380(11) 1.0688(8) 0.59776(15)
N1C N -0.0688(8) 1.3692(7) 0.59776(15)
N1A N 0.0688(8) 1.4380(11) 0.40224(15)
C4A C -0.1262(9) 1.0352(12) 0.3869(2)
C4B C -0.0352(12) 0.8386(8) 0.3869(2)
C4E C -0.1614(8) 0.9648(12) 0.6131(2)
C4C C 0.1262(9) 1.1614(8) 0.6131(2)
C4D C 0.0352(12) 0.8738(9) 0.6131(2)
O2A O -0.1596(7) 1.0279(9) 0.36444(15)
O2B O -0.0279(9) 0.8125(6) 0.36444(15)
O2E O -0.1875(6) 0.9721(9) 0.63556(15)
O2C O 0.1596(7) 1.1875(6) 0.63556(15)
O2D O 0.0279(9) 0.8404(7) 0.63556(15)
C5A C -0.2193(11) 1.0480(14) 0.3674(3)
C5B C -0.0480(14) 0.7327(8) 0.3674(3)
C5E C -0.2673(8) 0.9520(14) 0.6326(3)
C5C C 0.2193(11) 1.2673(8) 0.6326(3)
C5D C 0.0480(14) 0.7807(11) 0.6326(3)
H5A H -0.2725 1.0005 0.3653
H5B H -0.0005 0.7270 0.3653
H5E H -0.2730 0.9995 0.6347
H5C H 0.2725 1.2730 0.6347
H5D H 0.0005 0.7275 0.6347
H6A H -0.2130 1.0883 0.3550
H6B H -0.0883 0.6987 0.3550
H6E H -0.3013 0.9117 0.6450
H6C H 0.2130 1.3013 0.6450
H6D H 0.0883 0.7870 0.6450
C6A C -0.2095(11) 1.0813(14) 0.3938(2)
C6B C -0.0813(14) 0.7092(8) 0.3938(2)
C6E C -0.2908(8) 0.9187(14) 0.6062(2)
C6C C 0.2095(11) 1.2908(8) 0.6062(2)
C6D C 0.0813(14) 0.7905(11) 0.6062(2)
H7A H -0.1920 1.1387 0.3936
H7B H -0.1387 0.6693 0.3936
H7E H -0.3307 0.8613 0.6064
H7C H 0.1920 1.3307 0.6064
H7D H 0.1387 0.8080 0.6064
H8A H -0.2594 1.0526 0.4034
H8B H -0.0526 0.6880 0.4034
H8E H -0.3120 0.9474 0.5966
H8C H 0.2594 1.3120 0.5966
H8D H 0.0526 0.7406 0.5966
N2A N -0.1456(8) 1.0666(11) 0.40417(18)
N2B N -0.0666(11) 0.7878(7) 0.40417(18)
N2E N -0.2122(7) 0.9334(11) 0.59583(18)
N2C N 0.1456(8) 1.2122(7) 0.59583(18)
N2D N 0.0666(11) 0.8544(8) 0.59583(18)
C7A C 0.0190(9) 1.0832(13) 0.3875(2)
C7B C -0.0832(13) 0.9358(9) 0.3875(2)
C7E C -0.0642(9) 0.9168(13) 0.6125(2)
C7C C -0.0190(9) 1.0642(9) 0.6125(2)
C7D C 0.0832(13) 1.0190(9) 0.6125(2)
C8A C -0.0606(8) 1.0179(11) 0.3864(2)
C8B C -0.0179(11) 0.9215(7) 0.3864(2)
C8E C -0.0785(7) 0.9821(11) 0.6136(2)
C8C C 0.0606(8) 1.0785(7) 0.6136(2)
C8D C 0.0179(11) 0.9394(8) 0.6136(2)
C9B C -0.1653(9) 0.8752(5) 0.38565(14)
C9E C -0.1248(5) 0.8347(9) 0.61435(14)
C9D C 0.1653(9) 1.0405(7) 0.61435(14)
C9C C -0.0405(7) 1.1248(5) 0.61435(14)
C9A C 0.0405(7) 1.1653(9) 0.38565(14)
C10B C -0.1917(8) 0.8259(6) 0.36498(12)
C10E C -0.1741(6) 0.8083(8) 0.63502(12)
C10D C 0.1917(8) 1.0176(6) 0.63502(12)
C10C C -0.0176(6) 1.1741(6) 0.63502(12)
C10A C 0.0176(6) 1.1917(8) 0.36498(12)
H9B H -0.1575 0.8367 0.3512
H9D H 0.1575 0.9942 0.6488
H9C H 0.0058 1.1633 0.6488
H9A H -0.0058 1.1575 0.3512
H9E H -0.1633 0.8425 0.6488
C11B C -0.2682(8) 0.7608(5) 0.36452(11)
C11E C -0.2392(5) 0.7318(8) 0.63548(11)
C11D C 0.2682(8) 1.0290(6) 0.63548(11)
C11C C -0.0290(6) 1.2392(5) 0.63548(11)
C11A C 0.0290(6) 1.2682(8) 0.36452(11)
H10B H -0.2862 0.7272 0.3504
H10D H 0.2862 1.0134 0.6496
H10C H -0.0134 1.2728 0.6496
H10A H 0.0134 1.2862 0.3504
H10E H -0.2728 0.7138 0.6496
C12B C -0.3183(8) 0.7450(5) 0.38474(14)
C12E C -0.2550(5) 0.6817(8) 0.61526(14)
C12D C 0.3183(8) 1.0633(6) 0.61526(14)
C12C C -0.0633(6) 1.2550(5) 0.61526(14)
C12A C 0.0633(6) 1.3183(8) 0.38474(14)
C13D C 0.2919(8) 1.0862(6) 0.59459(11)
C13A C 0.0862(6) 1.2919(8) 0.40541(11)
C13C C -0.0862(6) 1.2057(6) 0.59459(11)
C13E C -0.2057(6) 0.7081(8) 0.59459(11)
C13B C -0.2919(8) 0.7943(6) 0.40541(11)
H11D H 0.3261 1.1096 0.5808
H11A H 0.1096 1.3261 0.4192
H11C H -0.1096 1.2165 0.5808
H11E H -0.2165 0.6739 0.5808
H11B H -0.3261 0.7835 0.4192
C14D C 0.2153(8) 1.0747(6) 0.59414(12)
C14A C 0.0747(6) 1.2153(8) 0.40586(12)
C14C C -0.0747(6) 1.1406(5) 0.59414(12)
C14E C -0.1406(5) 0.7847(8) 0.59414(12)
C14B C -0.2153(8) 0.8594(5) 0.40586(12)
H12D H 0.1973 1.0904 0.5800
H12A H 0.0904 1.1973 0.4200
H12C H -0.0904 1.1069 0.5800
H12E H -0.1069 0.8027 0.5800
H12B H -0.1973 0.8931 0.4200
N3B N -0.3278(10) 0.5953(7) 0.43767(16)
N3E N -0.4047(7) 0.6722(10) 0.56233(16)
N3D N 0.3278(10) 0.9231(7) 0.56233(16)
N3C N 0.0769(7) 1.4047(7) 0.56233(16)
N3A N -0.0769(7) 1.3278(10) 0.43767(16)
C15B C -0.3377(13) 0.5437(8) 0.46074(19)
C15E C -0.4563(8) 0.6623(13) 0.53926(19)
C15D C 0.3377(13) 0.8814(10) 0.53926(19)
C15C C 0.1186(10) 1.4563(8) 0.53926(19)
C15A C -0.1186(10) 1.3377(13) 0.46074(19)
H13B H -0.3805 0.4883 0.4579
H13D H 0.3805 0.8688 0.5421
H13C H 0.1312 1.5117 0.5421
H13A H -0.1312 1.3805 0.4579
H13E H -0.5117 0.6195 0.5421
H14B H -0.2879 0.5435 0.4642
H14D H 0.2879 0.8314 0.5358
H14C H 0.1686 1.4565 0.5358
H14A H -0.1686 1.2879 0.4642
H14E H -0.4565 0.7121 0.5358
C16D C 0.2441(12) 0.9116(9) 0.5616(2)
C16A C -0.0884(9) 1.2441(12) 0.4384(2)
C16C C 0.0884(9) 1.3325(8) 0.5616(2)
C16E C -0.3325(8) 0.7559(12) 0.5616(2)
C16B C -0.2441(12) 0.6675(8) 0.4384(2)
H15D H 0.2050 0.8548 0.5620
H15A H -0.1452 1.2050 0.4380
H15C H 0.1452 1.3502 0.5620
H15E H -0.3502 0.7950 0.5620
H15B H -0.2050 0.6498 0.4380
H16D H 0.2374 0.9351 0.5464
H16A H -0.0649 1.2374 0.4536
H16C H 0.0649 1.3023 0.5464
H16E H -0.3023 0.7626 0.5464
H16B H -0.2374 0.6977 0.4536
H17D H 0.2364 0.9377 0.5760
H17A H -0.0623 1.2364 0.4240
H17C H 0.0623 1.2987 0.5760
H17E H -0.2987 0.7636 0.5760
H17B H -0.2364 0.7013 0.4240
C17D C 0.3395(14) 0.8822(11) 0.5840(2)
C17A C -0.1178(11) 1.3395(14) 0.4160(2)
C17C C 0.1178(11) 1.4573(9) 0.5840(2)
C17E C -0.4573(9) 0.6605(14) 0.5840(2)
C17B C -0.3395(14) 0.5427(9) 0.4160(2)
H18D H 0.3547 0.8440 0.5781
H18A H -0.1560 1.3547 0.4219
H18C H 0.1560 1.5107 0.5781
H18E H -0.5107 0.6453 0.5781
H18B H -0.3547 0.4893 0.4219
H19D H 0.2900 0.8543 0.5935
H19A H -0.1457 1.2900 0.4065
H19C H 0.1457 1.4357 0.5935
H19E H -0.4357 0.7100 0.5935
H19B H -0.2900 0.5643 0.4065
H20D H 0.3816 0.9216 0.5947
H20A H -0.0784 1.3816 0.4053
H20C H 0.0784 1.4600 0.5947
H20E H -0.4600 0.6184 0.5947
H20B H -0.3816 0.5400 0.4053
N4B N -0.4907(14) 0.6590(11) 0.4543(2)
N4D N 0.4907(14) 1.1497(9) 0.5457(2)
N4C N -0.1497(9) 1.3410(11) 0.5457(2)
N4A N 0.1497(9) 1.4907(14) 0.4543(2)
N4E N -0.3410(11) 0.5093(14) 0.5457(2)
C18B C -0.4643(14) 0.6942(11) 0.4805(2)
C18D C 0.4643(14) 1.1585(9) 0.5195(2)
C18C C -0.1585(9) 1.3058(11) 0.5195(2)
C18A C 0.1585(9) 1.4643(14) 0.4805(2)
C18E C -0.3058(11) 0.5357(14) 0.5195(2)
H21B H -0.4238 0.7513 0.4795
H21D H 0.4238 1.1751 0.5205
H21C H -0.1751 1.2487 0.5205
H21A H 0.1751 1.4238 0.4795
H21E H -0.2487 0.5762 0.5205
H22B H -0.5101 0.6885 0.4901
H22D H 0.5101 1.1986 0.5099
H22C H -0.1986 1.3115 0.5099
H22A H 0.1986 1.5101 0.4901
H22E H -0.3115 0.4899 0.5099
C19D C 0.5686(16) 1.1487(12) 0.5432(3)
C19A C 0.1487(12) 1.5686(16) 0.4568(3)
C19C C -0.1487(12) 1.4199(11) 0.5432(3)
C19E C -0.4199(11) 0.4314(16) 0.5432(3)
C19B C -0.5686(16) 0.5801(11) 0.4568(3)
H23D H 0.6133 1.2017 0.5468
H23A H 0.2017 1.6133 0.4532
H23C H -0.2017 1.4116 0.5468
H23E H -0.4116 0.3867 0.5468
H23B H -0.6133 0.5884 0.4532
H24D H 0.5734 1.1333 0.5263
H24A H 0.1333 1.5734 0.4737
H24C H -0.1333 1.4401 0.5263
H24E H -0.4401 0.4266 0.5263
H24B H -0.5734 0.5599 0.4737
H25D H 0.5688 1.1104 0.5550
H25A H 0.1104 1.5688 0.4450
H25C H -0.1104 1.4584 0.5550
H25E H -0.4584 0.4312 0.5550
H25B H -0.5688 0.5416 0.4450
C20D C 0.5002(17) 1.2195(11) 0.5600(3)
C20A C 0.2195(11) 1.5002(17) 0.4400(3)
C20C C -0.2195(11) 1.2807(13) 0.5600(3)
C20E C -0.2807(13) 0.4998(17) 0.5600(3)
C20B C -0.5002(17) 0.7193(13) 0.4400(3)
H26D H 0.5142 1.2157 0.5772
H26A H 0.2157 1.5142 0.4228
H26C H -0.2157 1.2985 0.5772
H26E H -0.2985 0.4858 0.5772
H26B H -0.5142 0.7015 0.4228
H27D H 0.4501 1.2202 0.5597
H27A H 0.2202 1.4501 0.4403
H27C H -0.2202 1.2299 0.5597
H27E H -0.2299 0.5499 0.5597
H27B H -0.4501 0.7701 0.4403
H28D H 0.5423 1.2684 0.5525
H28A H 0.2684 1.5423 0.4475
H28C H -0.2684 1.2739 0.5525
H28E H -0.2739 0.4577 0.5525
H28B H -0.5423 0.7261 0.4475
C21B C -0.3589(11) 0.5802(8) 0.48261(18)
C21E C -0.4198(8) 0.6411(11) 0.51739(18)
C21D C 0.3589(11) 0.9391(8) 0.51739(18)
C21C C 0.0609(8) 1.4198(8) 0.51739(18)
C21A C -0.0609(8) 1.3589(11) 0.48261(18)
C22B C -0.3983(11) 0.6187(9) 0.4760(2)
C22D C 0.3983(11) 1.0170(7) 0.5240(2)
C22C C -0.0170(7) 1.3813(9) 0.5240(2)
C22A C 0.0170(7) 1.3983(11) 0.4760(2)
C22E C -0.3813(9) 0.6017(11) 0.5240(2)
C23B C -0.4294(13) 0.6479(10) 0.49269(17)
C23D C 0.4294(13) 1.0773(9) 0.50731(17)
C23C C -0.0773(9) 1.3521(10) 0.50731(17)
C23A C 0.0773(9) 1.4294(13) 0.49269(17)
C23E C -0.3521(10) 0.5706(13) 0.50731(17)
S1 S 0.3333 0.6667 0.51889(10)
O3 O 0.3937(7) 0.7445(6) 0.51346(17)
C24 C 0.3333 0.6667 0.5518(5)
F1 F 0.3084(9) 0.7103(9) 0.56145(15)
O3A O 0.2555(6) 0.6492(9) 0.51346(17)
O3B O 0.3508(9) 0.6063(7) 0.51346(17)
F1A F 0.2897(9) 0.5981(13) 0.56145(15)
F1B F 0.4019(13) 0.6916(9) 0.56145(15)
S2 S 0.3333 0.6667 0.38456(11)
O4 O 0.3396(9) 0.5999(7) 0.39051(19)
C25 C 0.3333 0.6667 0.3519(5)
F2 F 0.2796(11) 0.6045(10) 0.34174(16)
O4A O 0.4001(7) 0.7397(11) 0.39051(19)
O4B O 0.2603(11) 0.6604(9) 0.39051(19)
F2A F 0.3955(10) 0.6751(15) 0.34174(16)
F2B F 0.3249(15) 0.7204(11) 0.34174(16)
C26 C 0.154(3) 0.738(2) 0.3589(7)
O5 O 0.1679(17) 0.7255(16) 0.3832(5)
O6 O 0.098(2) 0.6353(17) 0.5610(10)
O7 O 0.074(2) 0.701(3) 0.4284(10)
O8 O 0.104(3) 0.7950(19) 0.4669(9)
O9 O 0.1667(18) 1.0953(19) 0.4525(3)
loop_
_geom_bond_atom_site_label_1
_geom_bond_atom_site_label_2
_geom_bond_site_symmetry_1
_geom_bond_site_symmetry_2
Pt1 N1 1_555 1_555
C1 O1 1_555 1_555
O1 C2 1_555 1_555
C2 H1 1_555 1_555
H2 C2 1_555 1_555
C3 C2 1_555 1_555
H3 C3 1_555 1_555
H4 C3 1_555 1_555
N1 C1 1_555 1_555
C4 O2 1_555 1_555
O2 C5 1_555 1_555
C5 H5 1_555 1_555
H6 C5 1_555 1_555
C6 C5 1_555 1_555
H7 C6 1_555 1_555
H8 C6 1_555 1_555
N2 C4 1_555 1_555
C7 C8 1_555 1_555
C8 C4 1_555 1_555
C9 C7 1_555 1_555
C10 C9 1_555 1_555
H9 C10 1_555 1_555
C11 C10 1_555 1_555
H10 C11 1_555 1_555
C12 C1 1_555 1_555
C13 C12 1_555 1_555
H11 C13 1_555 1_555
C14 C9 1_555 1_555
H12 C14 1_555 1_555
N3 Pt1 1_555 1_555
C15 N3 1_555 1_555
H13 C15 1_555 1_555
H14 C15 1_555 1_555
C16 N3 1_555 1_555
H15 C16 1_555 1_555
H16 C16 1_555 1_555
H17 C16 1_555 1_555
C17 N3 1_555 1_555
H18 C17 1_555 1_555
H19 C17 1_555 1_555
H20 C17 1_555 1_555
N4 Pt1 1_555 1_555
C18 N4 1_555 1_555
H21 C18 1_555 1_555
H22 C18 1_555 1_555
C19 N4 1_555 1_555
H23 C19 1_555 1_555
H24 C19 1_555 1_555
H25 C19 1_555 1_555
C20 N4 1_555 1_555
H26 C20 1_555 1_555
H27 C20 1_555 1_555
H28 C20 1_555 1_555
C21 C15 1_555 1_555
C22 Pt1 1_555 1_555
C23 C18 1_555 1_555
S1 O3 1_555 1_555
C24 S1 1_555 1_555
F1 C24 1_555 1_555
S2 O4 1_555 1_555
C25 S2 1_555 1_555
F2 C25 1_555 1_555
C26 O5 1_555 1_555
Pt1B N1B 1_555 1_555
Pt1E N1E 1_555 1_555
Pt1D N1D 1_555 1_555
Pt1C N1C 1_555 1_555
Pt1A N1A 1_555 1_555
C1B O1B 1_555 1_555
C1E O1E 1_555 1_555
C1D O1D 1_555 1_555
C1C O1C 1_555 1_555
C1A O1A 1_555 1_555
O1B C2B 1_555 1_555
O1E C2E 1_555 1_555
O1D C2D 1_555 1_555
O1C C2C 1_555 1_555
O1A C2A 1_555 1_555
C2B H1B 1_555 1_555
C2E H1E 1_555 1_555
C2D H1D 1_555 1_555
C2C H1C 1_555 1_555
C2A H1A 1_555 1_555
H2B C2B 1_555 1_555
H2E C2E 1_555 1_555
H2D C2D 1_555 1_555
H2C C2C 1_555 1_555
H2A C2A 1_555 1_555
C3B C2B 1_555 1_555
C3E C2E 1_555 1_555
C3D C2D 1_555 1_555
C3C C2C 1_555 1_555
C3A C2A 1_555 1_555
H3B C3B 1_555 1_555
H3E C3E 1_555 1_555
H3D C3D 1_555 1_555
H3C C3C 1_555 1_555
H3A C3A 1_555 1_555
H4B C3B 1_555 1_555
H4E C3E 1_555 1_555
H4D C3D 1_555 1_555
H4C C3C 1_555 1_555
H4A C3A 1_555 1_555
N1B C1B 1_555 1_555
N1E C1E 1_555 1_555
N1D C1D 1_555 1_555
N1C C1C 1_555 1_555
N1A C1A 1_555 1_555
C4A O2A 1_555 1_555
C4B O2B 1_555 1_555
C4E O2E 1_555 1_555
C4C O2C 1_555 1_555
C4D O2D 1_555 1_555
O2A C5A 1_555 1_555
O2B C5B 1_555 1_555
O2E C5E 1_555 1_555
O2C C5C 1_555 1_555
O2D C5D 1_555 1_555
C5A H5A 1_555 1_555
C5B H5B 1_555 1_555
C5E H5E 1_555 1_555
C5C H5C 1_555 1_555
C5D H5D 1_555 1_555
H6A C5A 1_555 1_555
H6B C5B 1_555 1_555
H6E C5E 1_555 1_555
H6C C5C 1_555 1_555
H6D C5D 1_555 1_555
C6A C5A 1_555 1_555
C6B C5B 1_555 1_555
C6E C5E 1_555 1_555
C6C C5C 1_555 1_555
C6D C5D 1_555 1_555
H7A C6A 1_555 1_555
H7B C6B 1_555 1_555
H7E C6E 1_555 1_555
H7C C6C 1_555 1_555
H7D C6D 1_555 1_555
H8A C6A 1_555 1_555
H8B C6B 1_555 1_555
H8E C6E 1_555 1_555
H8C C6C 1_555 1_555
H8D C6D 1_555 1_555
N2A C4A 1_555 1_555
N2B C4B 1_555 1_555
N2E C4E 1_555 1_555
N2C C4C 1_555 1_555
N2D C4D 1_555 1_555
C7A C8 1_555 1_555
C7B C8A 1_555 1_555
C7E C8E 1_555 1_555
C7C C8E 1_555 1_555
C7D C8C 1_555 1_555
C8A C4A 1_555 1_555
C8B C7 1_555 1_555
C8E C4E 1_555 1_555
C8C C4C 1_555 1_555
C8D C4D 1_555 1_555
C9B C7B 1_555 1_555
C9E C7E 1_555 1_555
C9D C7D 1_555 1_555
C9C C7C 1_555 1_555
C9A C7A 1_555 1_555
C10B C9B 1_555 1_555
C10E C9E 1_555 1_555
C10D C9D 1_555 1_555
C10C C9C 1_555 1_555
C10A C9A 1_555 1_555
H9B C10B 1_555 1_555
H9D C10D 1_555 1_555
H9C C10C 1_555 1_555
H9A C10A 1_555 1_555
H9E C10E 1_555 1_555
C11B C10B 1_555 1_555
C11E C10E 1_555 1_555
C11D C10D 1_555 1_555
C11C C10C 1_555 1_555
C11A C10A 1_555 1_555
H10B C11B 1_555 1_555
H10D C11D 1_555 1_555
H10C C11C 1_555 1_555
H10A C11A 1_555 1_555
H10E C11E 1_555 1_555
C12B C1B 1_555 1_555
C12E C1E 1_555 1_555
C12D C1D 1_555 1_555
C12C C1C 1_555 1_555
C12A C1A 1_555 1_555
C13D C12D 1_555 1_555
C13A C12A 1_555 1_555
C13C C12C 1_555 1_555
C13E C12E 1_555 1_555
C13B C12B 1_555 1_555
H11D C13D 1_555 1_555
H11A C13A 1_555 1_555
H11C C13C 1_555 1_555
H11E C13E 1_555 1_555
H11B C13B 1_555 1_555
C14D C9D 1_555 1_555
C14A C9A 1_555 1_555
C14C C9C 1_555 1_555
C14E C9E 1_555 1_555
C14B C9B 1_555 1_555
H12D C14D 1_555 1_555
H12A C14A 1_555 1_555
H12C C14C 1_555 1_555
H12E C14E 1_555 1_555
H12B C14B 1_555 1_555
N3B Pt1B 1_555 1_555
N3E Pt1E 1_555 1_555
N3D Pt1D 1_555 1_555
N3C Pt1C 1_555 1_555
N3A Pt1A 1_555 1_555
C15B N3B 1_555 1_555
C15E N3E 1_555 1_555
C15D N3D 1_555 1_555
C15C N3C 1_555 1_555
C15A N3A 1_555 1_555
H13B C15B 1_555 1_555
H13D C15D 1_555 1_555
H13C C15C 1_555 1_555
H13A C15A 1_555 1_555
H13E C15E 1_555 1_555
H14B C15B 1_555 1_555
H14D C15D 1_555 1_555
H14C C15C 1_555 1_555
H14A C15A 1_555 1_555
H14E C15E 1_555 1_555
C16D N3D 1_555 1_555
C16A N3A 1_555 1_555
C16C N3C 1_555 1_555
C16E N3E 1_555 1_555
C16B N3B 1_555 1_555
H15D C16D 1_555 1_555
H15A C16A 1_555 1_555
H15C C16C 1_555 1_555
H15E C16E 1_555 1_555
H15B C16B 1_555 1_555
H16D C16D 1_555 1_555
H16A C16A 1_555 1_555
H16C C16C 1_555 1_555
H16E C16E 1_555 1_555
H16B C16B 1_555 1_555
H17D C16D 1_555 1_555
H17A C16A 1_555 1_555
H17C C16C 1_555 1_555
H17E C16E 1_555 1_555
H17B C16B 1_555 1_555
C17D N3D 1_555 1_555
C17A N3A 1_555 1_555
C17C N3C 1_555 1_555
C17E N3E 1_555 1_555
C17B N3B 1_555 1_555
H18D C17D 1_555 1_555
H18A C17A 1_555 1_555
H18C C17C 1_555 1_555
H18E C17E 1_555 1_555
H18B C17B 1_555 1_555
H19D C17D 1_555 1_555
H19A C17A 1_555 1_555
H19C C17C 1_555 1_555
H19E C17E 1_555 1_555
H19B C17B 1_555 1_555
H20D C17D 1_555 1_555
H20A C17A 1_555 1_555
H20C C17C 1_555 1_555
H20E C17E 1_555 1_555
H20B C17B 1_555 1_555
N4B Pt1B 1_555 1_555
N4D Pt1D 1_555 1_555
N4C Pt1C 1_555 1_555
N4A Pt1A 1_555 1_555
N4E Pt1E 1_555 1_555
C18B N4B 1_555 1_555
C18D N4D 1_555 1_555
C18C N4C 1_555 1_555
C18A N4A 1_555 1_555
C18E N4E 1_555 1_555
H21B C18B 1_555 1_555
H21D C18D 1_555 1_555
H21C C18C 1_555 1_555
H21A C18A 1_555 1_555
H21E C18E 1_555 1_555
H22B C18B 1_555 1_555
H22D C18D 1_555 1_555
H22C C18C 1_555 1_555
H22A C18A 1_555 1_555
H22E C18E 1_555 1_555
C19D N4D 1_555 1_555
C19A N4A 1_555 1_555
C19C N4C 1_555 1_555
C19E N4E 1_555 1_555
C19B N4B 1_555 1_555
H23D C19D 1_555 1_555
H23A C19A 1_555 1_555
H23C C19C 1_555 1_555
H23E C19E 1_555 1_555
H23B C19B 1_555 1_555
H24D C19D 1_555 1_555
H24A C19A 1_555 1_555
H24C C19C 1_555 1_555
H24E C19E 1_555 1_555
H24B C19B 1_555 1_555
H25D C19D 1_555 1_555
H25A C19A 1_555 1_555
H25C C19C 1_555 1_555
H25E C19E 1_555 1_555
H25B C19B 1_555 1_555
C20D N4D 1_555 1_555
C20A N4A 1_555 1_555
C20C N4C 1_555 1_555
C20E N4E 1_555 1_555
C20B N4B 1_555 1_555
H26D C20D 1_555 1_555
H26A C20A 1_555 1_555
H26C C20C 1_555 1_555
H26E C20E 1_555 1_555
H26B C20B 1_555 1_555
H27D C20D 1_555 1_555
H27A C20A 1_555 1_555
H27C C20C 1_555 1_555
H27E C20E 1_555 1_555
H27B C20B 1_555 1_555
H28D C20D 1_555 1_555
H28A C20A 1_555 1_555
H28C C20C 1_555 1_555
H28E C20E 1_555 1_555
H28B C20B 1_555 1_555
C21B C15B 1_555 1_555
C21E C15E 1_555 1_555
C21D C23 1_555 1_555
C21C C15C 1_555 1_555
C21A C15A 1_555 1_555
C22B Pt1B 1_555 1_555
C22D Pt1D 1_555 1_555
C22C Pt1C 1_555 1_555
C22A Pt1A 1_555 1_555
C22E Pt1E 1_555 1_555
C23B C18B 1_555 1_555
C23D C21 1_555 1_555
C23C C18C 1_555 1_555
C23A C18A 1_555 1_555
C23E C18E 1_555 1_555
O3A S1 1_555 1_555
O3B S1 1_555 1_555
F1A C24 1_555 1_555
F1B C24 1_555 1_555
O4A S2 1_555 1_555
O4B S2 1_555 1_555
F2A C25 1_555 1_555
F2B C25 1_555 1_555
C3 N1 1_555 1_555
C6 N2 1_555 1_555
C11 C12 1_555 1_555
C13 C14 1_555 1_555
C21 C22 1_555 1_555
C22 C23 1_555 1_555
C3B N1B 1_555 1_555
C3E N1E 1_555 1_555
C3D N1D 1_555 1_555
C3C N1C 1_555 1_555
C3A N1A 1_555 1_555
C4B C8B 1_555 1_555
C6A N2A 1_555 1_555
C6B N2B 1_555 1_555
C6E N2E 1_555 1_555
C6C N2C 1_555 1_555
C6D N2D 1_555 1_555
C7A C8A 1_555 1_555
C7B C8B 1_555 1_555
C7E C8D 1_555 1_555
C7C C8C 1_555 1_555
C7D C8D 1_555 1_555
C11B C12B 1_555 1_555
C11E C12E 1_555 1_555
C11D C12D 1_555 1_555
C11C C12C 1_555 1_555
C11A C12A 1_555 1_555
C13D C14D 1_555 1_555
C13A C14A 1_555 1_555
C13C C14C 1_555 1_555
C13E C14E 1_555 1_555
C13B C14B 1_555 1_555
C15D C21D 1_555 1_555
C18D C23D 1_555 1_555
C21B C22B 1_555 1_555
C21B C23E 1_555 1_555
C21E C22E 1_555 1_555
C21E C23B 1_555 1_555
C21D C22D 1_555 1_555
C21C C22C 1_555 1_555
C21C C23A 1_555 1_555
C21A C22A 1_555 1_555
C21A C23C 1_555 1_555
C22B C23B 1_555 1_555
C22D C23D 1_555 1_555
C22C C23C 1_555 1_555
C22A C23A 1_555 1_555
C22E C23E 1_555 1_555

#END
