
#######################################################################
#
#                 Cambridge Crystallographic Data Centre
#                                CCDC 
#
#######################################################################
#
# If this CIF has been generated from an entry in the Cambridge 
# Structural Database, then it will include bibliographic, chemical, 
# crystal, experimental, refinement or atomic coordinate data resulting 
# from the CCDC's data processing and validation procedures.
#
#######################################################################

data_XUPPOO
_chemical_formula_moiety         
'C186 H192 Ag6 N36 O12 Pt6 S12 12+,12(C1 F3 O3 S1 1-),4(C1 H4 O1),5(H2 O1)'
_chemical_name_systematic        
'bis(\m~6~-1,3,5-tris(4-(1,3-oxazol-2-yl)phenyl)-2,4,6-tris(oxazol-2-yl)benzene)-bis(\m~3~-hexakis(1,3-thiazol-5-yl)benzene)-tris(\m~2~-2,3,5,6-tetrakis(dimethylaminomethyl)-1,4-phenylene)-hexa-platinum-hexa-silver dodeca(trifluoromethanesulfonate) methanol solvate pentahydrate'
_symmetry_cell_setting           hexagonal
_symmetry_space_group_name_H-M   'P 63/m'
_symmetry_Int_Tables_number      176
_space_group_name_Hall           '-P 6c'
loop_
_symmetry_equiv_pos_site_id
_symmetry_equiv_pos_as_xyz
1 x,y,z
2 x-y,x,1/2+z
3 -y,x-y,z
4 -x,-y,1/2+z
5 -x+y,-x,z
6 y,-x+y,1/2+z
7 -x,-y,-z
8 -x+y,-x,1/2-z
9 y,-x+y,-z
10 x,y,1/2-z
11 x-y,x,-z
12 -y,x-y,1/2-z
_cell_length_a                   23.5632(5)
_cell_length_b                   23.5632(5)
_cell_length_c                   28.2512(20)
_cell_angle_alpha                90
_cell_angle_beta                 90
_cell_angle_gamma                120
_cell_volume                     13584.3
_exptl_crystal_colour            colorless
_exptl_crystal_description       block
_cell_formula_units_Z            2
loop_
_atom_site_label
_atom_site_type_symbol
_atom_site_fract_x
_atom_site_fract_y
_atom_site_fract_z
S2 S 0.1992(4) 0.3165(4) 0.7500
O4 O 0.1826(7) 0.2775(7) 0.7065(4)
O5 O 0.1870(10) 0.3718(8) 0.7500
C2 C 0.2855(12) 0.3619(15) 0.7500
F4 F 0.3195(10) 0.4021(10) 0.7878(6)
F5 F 0.3184(15) 0.3271(14) 0.7500
O4I O 0.1826(7) 0.2775(7) 0.7935(4)
F4I F 0.3195(10) 0.4021(10) 0.7122(6)
S3 S 0.4882(9) 0.0333(10) 0.7500
O6 O 0.4682(15) 0.0548(14) 0.7923(7)
O7 O 0.504(2) -0.0193(18) 0.7500
C3 C 0.5743(16) 0.075(2) 0.7500
F6 F 0.597(3) 0.141(3) 0.7500
F7 F 0.594(2) 0.0481(19) 0.7149(12)
O6I O 0.4682(15) 0.0548(14) 0.7077(7)
F7I F 0.594(2) 0.0481(19) 0.7851(12)
O8 O 0.454(5) 0.149(5) 0.721(3)
C4 C 0.413(5) 0.161(5) 0.7500
O8I O 0.454(5) 0.149(5) 0.779(3)
O9 O -0.075(2) -0.005(2) 0.5313(16)
O10 O -0.133(3) -0.097(3) 0.7500
Pt1 Pt 0.91391(4) 0.17557(6) 0.86574(3)
Ag1 Ag 0.81908(6) 0.34215(9) 1.02832(5)
S4 S 0.7553(4) 0.2342(3) 1.17328(15)
S5 S 0.5726(5) 0.1434(4) 1.17052(18)
O11 O 0.8521(9) 0.1612(7) 1.0134(4)
O12 O 0.8357(10) 0.4263(8) 0.8896(4)
N1 N 0.8977(11) 0.1720(9) 0.9415(5)
N2 N 0.8472(10) 0.3974(8) 0.9640(4)
N3 N 0.9976(13) 0.2678(10) 0.8583(5)
N4 N 0.8347(11) 0.0798(7) 0.8494(5)
N5 N 0.7913(10) 0.2845(8) 1.0907(4)
N6 N 0.6236(10) 0.1595(8) 1.0867(5)
C5 C 0.6935(9) 0.2928(8) 0.9336(6)
C6 C 0.7339(10) 0.3600(8) 0.9325(5)
C7 C 0.7268(7) 0.2522(6) 0.9369(4)
C8 C 0.7185(7) 0.2164(6) 0.9780(3)
H1 H 0.6863 0.2112 1.0006
C9 C 0.7574(9) 0.1885(7) 0.9862(3)
H2 H 0.7518 0.1641 1.0143
C10 C 0.8046(7) 0.1962(6) 0.9532(4)
C11 C 0.8128(7) 0.2319(6) 0.9121(3)
H3 H 0.8450 0.2372 0.8896
C12 C 0.7739(7) 0.2599(6) 0.9039(3)
H4 H 0.7795 0.2842 0.8758
C13 C 0.8532(11) 0.1760(9) 0.9681(5)
C14 C 0.9039(14) 0.1389(11) 1.0177(6)
H5 H 0.8828 0.0912 1.0239
H6 H 0.9359 0.1630 1.0431
C15 C 0.9343(15) 0.1551(12) 0.9720(5)
H7 H 0.9362 0.1170 0.9589
H8 H 0.9796 0.1923 0.9748
C16 C 1.0006(16) 0.2888(12) 0.8094(5)
H9 H 0.9774 0.3140 0.8069
H10 H 1.0471 0.3187 0.8008
C17 C 0.9711(16) 0.2331(12) 0.77450(17)
C18 C 0.9282(16) 0.1749(12) 0.7968(7)
C19 C 0.8886(13) 0.1160(10) 0.77450(17)
C20 C 0.8520(16) 0.0575(11) 0.8065(5)
H11 H 0.8799 0.0384 0.8144
H12 H 0.8119 0.0235 0.7906
C21 C 1.0119(19) 0.3183(14) 0.8934(8)
H13 H 1.0235 0.3060 0.9235
H14 H 1.0487 0.3600 0.8825
H15 H 0.9733 0.3231 0.8979
C22 C 1.0553(17) 0.2621(12) 0.8681(8)
H16 H 1.0564 0.2529 0.9018
H17 H 1.0534 0.2262 0.8493
H18 H 1.0949 0.3032 0.8598
C23 C 0.7772(13) 0.0863(9) 0.8408(7)
H19 H 0.7760 0.1166 0.8639
H20 H 0.7793 0.1031 0.8088
H21 H 0.7375 0.0432 0.8440
C24 C 0.8198(16) 0.0367(11) 0.8902(6)
H22 H 0.8212 0.0604 0.9190
H23 H 0.7759 -0.0015 0.8865
H24 H 0.8521 0.0222 0.8924
C25 C 0.8076(13) 0.3976(10) 0.9301(5)
C26 C 0.9075(14) 0.4412(11) 0.8952(6)
H25 H 0.9393 0.4866 0.8853
H26 H 0.9155 0.4102 0.8768
C27 C 0.9110(14) 0.4325(11) 0.9451(6)
H27 H 0.9355 0.4758 0.9607
H28 H 0.9345 0.4082 0.9510
C28 C 0.7076(10) 0.3083(8) 1.1246(6)
C29 C 0.6407(10) 0.2650(8) 1.1250(5)
C30 C 0.7490(11) 0.2762(9) 1.1252(5)
C31 C 0.8097(14) 0.2182(11) 1.1451(6)
H29 H 0.8260 0.1912 1.1566
C32 C 0.8263(12) 0.2523(10) 1.1011(6)
H30 H 0.8585 0.2532 1.0805
C33 C 0.6149(13) 0.1920(11) 1.1224(5)
C34 C 0.5643(16) 0.0753(13) 1.1439(6)
H31 H 0.5418 0.0322 1.1565
C35 C 0.5968(16) 0.0935(13) 1.0993(6)
H32 H 0.6002 0.0629 1.0794
Pt1D Pt 0.26166(7) 0.08609(4) 0.86574(3)
Pt1G Pt 0.26166(7) 0.08609(4) 0.63426(3)
Pt1K Pt 0.82443(6) 0.73834(7) 0.63426(3)
Pt1B Pt 0.82443(6) 0.73834(7) 0.86574(3)
Pt1I Pt 0.91391(4) 0.17557(6) 0.63426(3)
Ag1D Ag 0.52307(11) 0.18092(6) 1.02832(5)
Ag1B Ag 0.65785(9) 0.47693(11) 1.02832(5)
Ag1K Ag 0.65785(9) 0.47693(11) 0.47168(5)
Ag1G Ag 0.52307(11) 0.18092(6) 0.47168(5)
Ag1I Ag 0.81908(6) 0.34215(9) 0.47168(5)
S4D S 0.4789(5) 0.2447(4) 1.17328(15)
S4B S 0.7658(3) 0.5211(5) 1.17328(15)
S4K S 0.7658(3) 0.5211(5) 0.32672(15)
S4G S 0.4789(5) 0.2447(4) 0.32672(15)
S4I S 0.7553(4) 0.2342(3) 0.32672(15)
S5B S 0.8566(4) 0.4292(6) 1.17052(18)
S5D S 0.5708(6) 0.4274(5) 1.17052(18)
S5G S 0.5708(6) 0.4274(5) 0.32948(18)
S5I S 0.5726(5) 0.1434(4) 0.32948(18)
S5K S 0.8566(4) 0.4292(6) 0.32948(18)
O11D O 0.3091(11) 0.1479(9) 1.0134(4)
O11G O 0.3091(11) 0.1479(9) 0.4866(4)
O11K O 0.8388(7) 0.6909(11) 0.4866(4)
O11B O 0.8388(7) 0.6909(11) 1.0134(4)
O11I O 0.8521(9) 0.1612(7) 0.4866(4)
O12D O 0.5906(13) 0.1643(10) 0.8896(4)
O12B O 0.5737(8) 0.4094(13) 0.8896(4)
O12K O 0.5737(8) 0.4094(13) 0.6104(4)
O12G O 0.5906(13) 0.1643(10) 0.6104(4)
O12I O 0.8357(10) 0.4263(8) 0.6104(4)
N1D N 0.2743(14) 0.1023(11) 0.9415(5)
N1G N 0.2743(14) 0.1023(11) 0.5585(5)
N1K N 0.8280(9) 0.7257(14) 0.5585(5)
N1B N 0.8280(9) 0.7257(14) 0.9415(5)
N1I N 0.8977(11) 0.1720(9) 0.5585(5)
N2D N 0.5502(13) 0.1528(10) 0.9640(4)
N2B N 0.6026(8) 0.4498(13) 0.9640(4)
N2K N 0.6026(8) 0.4498(13) 0.5360(4)
N2G N 0.5502(13) 0.1528(10) 0.5360(4)
N2I N 0.8472(10) 0.3974(8) 0.5360(4)
N3D N 0.2702(16) 0.0024(13) 0.8583(5)
N3G N 0.2702(16) 0.0024(13) 0.6417(5)
N3K N 0.7322(10) 0.7298(16) 0.6417(5)
N3B N 0.7322(10) 0.7298(16) 0.8583(5)
N3I N 0.9976(13) 0.2678(10) 0.6417(5)
N4B N 0.9202(7) 0.7549(13) 0.8494(5)
N4K N 0.9202(7) 0.7549(13) 0.6506(5)
N4I N 0.8347(11) 0.0798(7) 0.6506(5)
N4G N 0.2451(13) 0.1653(11) 0.6506(5)
N4D N 0.2451(13) 0.1653(11) 0.8494(5)
N5D N 0.4932(13) 0.2087(10) 1.0907(4)
N5B N 0.7155(8) 0.5068(13) 1.0907(4)
N5K N 0.7155(8) 0.5068(13) 0.4093(4)
N5G N 0.4932(13) 0.2087(10) 0.4093(4)
N5I N 0.7913(10) 0.2845(8) 0.4093(4)
N6B N 0.8405(8) 0.4641(13) 1.0867(5)
N6D N 0.5359(13) 0.3764(10) 1.0867(5)
N6G N 0.5359(13) 0.3764(10) 0.4133(5)
N6I N 0.6236(10) 0.1595(8) 0.4133(5)
N6K N 0.8405(8) 0.4641(13) 0.4133(5)
C5B C 0.7072(8) 0.4007(12) 0.9336(6)
C5D C 0.5993(12) 0.3065(9) 0.9336(6)
C5G C 0.5993(12) 0.3065(9) 0.5664(6)
C5I C 0.6935(9) 0.2928(8) 0.5664(6)
C5K C 0.7072(8) 0.4007(12) 0.5664(6)
C6B C 0.6400(8) 0.3739(13) 0.9325(5)
C6D C 0.6261(13) 0.2661(10) 0.9325(5)
C6G C 0.6261(13) 0.2661(10) 0.5675(5)
C6I C 0.7339(10) 0.3600(8) 0.5675(5)
C6K C 0.6400(8) 0.3739(13) 0.5675(5)
C7D C 0.5254(9) 0.2732(7) 0.9369(4)
C7G C 0.5254(9) 0.2732(7) 0.5631(4)
C7K C 0.7478(6) 0.4746(9) 0.5631(4)
C7B C 0.7478(6) 0.4746(9) 0.9369(4)
C7I C 0.7268(7) 0.2522(6) 0.5631(4)
C8D C 0.4979(9) 0.2815(7) 0.9780(3)
C8G C 0.4979(9) 0.2815(7) 0.5220(3)
C8K C 0.7836(6) 0.5021(9) 0.5220(3)
C8B C 0.7836(6) 0.5021(9) 0.9780(3)
C8I C 0.7185(7) 0.2164(6) 0.5220(3)
H1D H 0.5249 0.3137 1.0006
H1K H 0.7888 0.4751 0.4994
H1B H 0.7888 0.4751 1.0006
H1I H 0.6863 0.2112 0.4994
H1G H 0.5249 0.3137 0.4994
C9D C 0.4311(11) 0.2426(9) 0.9862(3)
C9G C 0.4311(11) 0.2426(9) 0.5138(3)
C9K C 0.8115(7) 0.5689(11) 0.5138(3)
C9B C 0.8115(7) 0.5689(11) 0.9862(3)
C9I C 0.7574(9) 0.1885(7) 0.5138(3)
H2D H 0.4123 0.2482 1.0143
H2K H 0.8359 0.5877 0.4857
H2B H 0.8359 0.5877 1.0143
H2I H 0.7518 0.1641 0.4857
H2G H 0.4123 0.2482 0.4857
C10D C 0.3916(9) 0.1954(7) 0.9532(4)
C10G C 0.3916(9) 0.1954(7) 0.5468(4)
C10K C 0.8038(6) 0.6084(9) 0.5468(4)
C10B C 0.8038(6) 0.6084(9) 0.9532(4)
C10I C 0.8046(7) 0.1962(6) 0.5468(4)
C11D C 0.4191(9) 0.1872(7) 0.9121(3)
C11K C 0.7681(6) 0.5809(9) 0.5879(3)
C11B C 0.7681(6) 0.5809(9) 0.9121(3)
C11I C 0.8128(7) 0.2319(6) 0.5879(3)
C11G C 0.4191(9) 0.1872(7) 0.5879(3)
H3D H 0.3922 0.1550 0.8896
H3K H 0.7628 0.6078 0.6104
H3B H 0.7628 0.6078 0.8896
H3I H 0.8450 0.2372 0.6104
H3G H 0.3922 0.1550 0.6104
C12D C 0.4860(9) 0.2261(7) 0.9039(3)
C12K C 0.7401(6) 0.5140(9) 0.5961(3)
C12B C 0.7401(6) 0.5140(9) 0.9039(3)
C12I C 0.7739(7) 0.2599(6) 0.5961(3)
C12G C 0.4860(9) 0.2261(7) 0.5961(3)
H4D H 0.5047 0.2205 0.8758
H4K H 0.7158 0.4953 0.6242
H4B H 0.7158 0.4953 0.8758
H4I H 0.7795 0.2842 0.6242
H4G H 0.5047 0.2205 0.6242
C13D C 0.3228(14) 0.1468(11) 0.9681(5)
C13G C 0.3228(14) 0.1468(11) 0.5319(5)
C13K C 0.8240(9) 0.6772(14) 0.5319(5)
C13B C 0.8240(9) 0.6772(14) 0.9681(5)
C13I C 0.8532(11) 0.1760(9) 0.5319(5)
C14D C 0.2350(18) 0.0961(14) 1.0177(6)
C14G C 0.2350(18) 0.0961(14) 0.4823(6)
C14K C 0.8611(11) 0.7650(18) 0.4823(6)
C14B C 0.8611(11) 0.7650(18) 1.0177(6)
C14I C 0.9039(14) 0.1389(11) 0.4823(6)
H5D H 0.2084 0.1172 1.0239
H5G H 0.2084 0.1172 0.4761
H5K H 0.9088 0.7916 0.4761
H5B H 0.9088 0.7916 1.0239
H5I H 0.8828 0.0912 0.4761
H6D H 0.2271 0.0641 1.0431
H6G H 0.2271 0.0641 0.4569
H6K H 0.8370 0.7729 0.4569
H6B H 0.8370 0.7729 1.0431
H6I H 0.9359 0.1630 0.4569
C15D C 0.2208(19) 0.0657(15) 0.9720(5)
C15G C 0.2208(19) 0.0657(15) 0.5280(5)
C15K C 0.8449(12) 0.7792(19) 0.5280(5)
C15B C 0.8449(12) 0.7792(19) 0.9720(5)
C15I C 0.9343(15) 0.1551(12) 0.5280(5)
H7G H 0.1808 0.0638 0.5411
H7B H 0.8830 0.8192 0.9589
H7K H 0.8830 0.8192 0.5411
H7I H 0.9362 0.1170 0.5411
H7D H 0.1808 0.0638 0.9589
H8G H 0.2127 0.0204 0.5252
H8B H 0.8077 0.7873 0.9748
H8K H 0.8077 0.7873 0.5252
H8I H 0.9796 0.1923 0.5252
H8D H 0.2127 0.0204 0.9748
C16D C 0.2882(20) -0.0006(16) 0.8094(5)
C16G C 0.2882(20) -0.0006(16) 0.6906(5)
C16K C 0.7112(12) 0.7118(20) 0.6906(5)
C16B C 0.7112(12) 0.7118(20) 0.8094(5)
C16I C 1.0006(16) 0.2888(12) 0.6906(5)
H9D H 0.3366 0.0226 0.8069
H9K H 0.6860 0.6634 0.6931
H9B H 0.6860 0.6634 0.8069
H9I H 0.9774 0.3140 0.6931
H9G H 0.3366 0.0226 0.6931
H10D H 0.2716 -0.0471 0.8008
H10K H 0.6813 0.7284 0.6992
H10B H 0.6813 0.7284 0.8008
H10I H 1.0471 0.3187 0.6992
H10G H 0.2716 -0.0471 0.6992
C17D C 0.2620(20) 0.0289(16) 0.77450(17)
C17G C 0.2620(20) 0.0289(16) 0.72550(17)
C17K C 0.7669(12) 0.7380(20) 0.72550(17)
C17B C 0.7669(12) 0.7380(20) 0.77450(17)
C17I C 0.9711(16) 0.2331(12) 0.72550(17)
C18B C 0.8251(12) 0.7533(20) 0.7968(7)
C18K C 0.8251(12) 0.7533(20) 0.7032(7)
C18I C 0.9282(16) 0.1749(12) 0.7032(7)
C18G C 0.2467(20) 0.0718(16) 0.7032(7)
C18D C 0.2467(20) 0.0718(16) 0.7968(7)
C19B C 0.8840(10) 0.7726(16) 0.77450(17)
C19K C 0.8840(10) 0.7726(16) 0.72550(17)
C19I C 0.8886(13) 0.1160(10) 0.72550(17)
C19G C 0.2274(16) 0.1114(13) 0.72550(17)
C19D C 0.2274(16) 0.1114(13) 0.77450(17)
C20B C 0.9425(11) 0.7945(19) 0.8065(5)
C20K C 0.9425(11) 0.7945(19) 0.6935(5)
C20I C 0.8520(16) 0.0575(11) 0.6935(5)
C20G C 0.2055(19) 0.1480(16) 0.6935(5)
C20D C 0.2055(19) 0.1480(16) 0.8065(5)
H11K H 0.9616 0.8415 0.6856
H11B H 0.9616 0.8415 0.8144
H11I H 0.8799 0.0384 0.6856
H11G H 0.1585 0.1201 0.6856
H11D H 0.1585 0.1201 0.8144
H12K H 0.9765 0.7884 0.7094
H12B H 0.9765 0.7884 0.7906
H12I H 0.8119 0.0235 0.7094
H12G H 0.2116 0.1881 0.7094
H12D H 0.2116 0.1881 0.7906
C21B C 0.6817(14) 0.6936(24) 0.8934(8)
C21K C 0.6817(14) 0.6936(24) 0.6066(8)
C21I C 1.0119(19) 0.3183(14) 0.6066(8)
C21G C 0.3064(24) -0.0119(19) 0.6066(8)
C21D C 0.3064(24) -0.0119(19) 0.8934(8)
H13B H 0.6940 0.7175 0.9235
H13K H 0.6940 0.7175 0.5765
H13I H 1.0235 0.3060 0.5765
H13G H 0.2825 -0.0235 0.5765
H13D H 0.2825 -0.0235 0.9235
H14B H 0.6400 0.6887 0.8825
H14K H 0.6400 0.6887 0.6175
H14I H 1.0487 0.3600 0.6175
H14G H 0.3113 -0.0487 0.6175
H14D H 0.3113 -0.0487 0.8825
H15B H 0.6769 0.6502 0.8979
H15K H 0.6769 0.6502 0.6021
H15I H 0.9733 0.3231 0.6021
H15G H 0.3498 0.0267 0.6021
H15D H 0.3498 0.0267 0.8979
C22B C 0.7379(12) 0.7932(21) 0.8681(8)
C22K C 0.7379(12) 0.7932(21) 0.6319(8)
C22I C 1.0553(17) 0.2621(12) 0.6319(8)
C22G C 0.2068(21) -0.0553(17) 0.6319(8)
C22D C 0.2068(21) -0.0553(17) 0.8681(8)
H16B H 0.7471 0.8035 0.9018
H16K H 0.7471 0.8035 0.5982
H16I H 1.0564 0.2529 0.5982
H16G H 0.1965 -0.0564 0.5982
H16D H 0.1965 -0.0564 0.9018
H17B H 0.7738 0.8272 0.8493
H17K H 0.7738 0.8272 0.6507
H17I H 1.0534 0.2262 0.6507
H17G H 0.1728 -0.0534 0.6507
H17D H 0.1728 -0.0534 0.8493
H18B H 0.6968 0.7917 0.8598
H18K H 0.6968 0.7917 0.6402
H18I H 1.0949 0.3032 0.6402
H18G H 0.2083 -0.0949 0.6402
H18D H 0.2083 -0.0949 0.8598
C23K C 0.9137(9) 0.6909(16) 0.6592(7)
C23B C 0.9137(9) 0.6909(16) 0.8408(7)
C23I C 0.7772(13) 0.0863(9) 0.6592(7)
C23G C 0.3091(16) 0.2228(13) 0.6592(7)
C23D C 0.3091(16) 0.2228(13) 0.8408(7)
H19K H 0.8834 0.6594 0.6361
H19B H 0.8834 0.6594 0.8639
H19I H 0.7760 0.1166 0.6361
H19G H 0.3406 0.2240 0.6361
H19D H 0.3406 0.2240 0.8639
H20K H 0.8969 0.6762 0.6912
H20B H 0.8969 0.6762 0.8088
H20I H 0.7793 0.1031 0.6912
H20G H 0.3238 0.2207 0.6912
H20D H 0.3238 0.2207 0.8088
H21K H 0.9568 0.6943 0.6560
H21B H 0.9568 0.6943 0.8440
H21I H 0.7375 0.0432 0.6560
H21G H 0.3057 0.2625 0.6560
H21D H 0.3057 0.2625 0.8440
C24K C 0.9633(11) 0.7831(19) 0.6098(6)
C24B C 0.9633(11) 0.7831(19) 0.8902(6)
C24I C 0.8198(16) 0.0367(11) 0.6098(6)
C24G C 0.2169(19) 0.1802(16) 0.6098(6)
C24D C 0.2169(19) 0.1802(16) 0.8902(6)
H22K H 0.9396 0.7608 0.5810
H22B H 0.9396 0.7608 0.9190
H22I H 0.8212 0.0604 0.5810
H22G H 0.2392 0.1788 0.5810
H22D H 0.2392 0.1788 0.9190
H23K H 1.0015 0.7774 0.6135
H23B H 1.0015 0.7774 0.8865
H23I H 0.7759 -0.0015 0.6135
H23G H 0.2226 0.2241 0.6135
H23D H 0.2226 0.2241 0.8865
H24K H 0.9778 0.8299 0.6076
H24B H 0.9778 0.8299 0.8924
H24I H 0.8521 0.0222 0.6076
H24G H 0.1701 0.1479 0.6076
H24D H 0.1701 0.1479 0.8924
C25D C 0.5900(16) 0.1924(13) 0.9301(5)
C25B C 0.6024(10) 0.4100(16) 0.9301(5)
C25K C 0.6024(10) 0.4100(16) 0.5699(5)
C25G C 0.5900(16) 0.1924(13) 0.5699(5)
C25I C 0.8076(13) 0.3976(10) 0.5699(5)
C26D C 0.5337(18) 0.0925(14) 0.8952(6)
C26B C 0.5588(11) 0.4663(18) 0.8952(6)
C26K C 0.5588(11) 0.4663(18) 0.6048(6)
C26G C 0.5337(18) 0.0925(14) 0.6048(6)
C26I C 0.9075(14) 0.4412(11) 0.6048(6)
H25D H 0.5473 0.0607 0.8853
H25B H 0.5134 0.4527 0.8853
H25K H 0.5134 0.4527 0.6147
H25G H 0.5473 0.0607 0.6147
H25I H 0.9393 0.4866 0.6147
H26D H 0.4947 0.0845 0.8768
H26B H 0.5898 0.5053 0.8768
H26K H 0.5898 0.5053 0.6232
H26G H 0.4947 0.0845 0.6232
H26I H 0.9155 0.4102 0.6232
C27D C 0.5215(18) 0.0890(14) 0.9451(6)
C27B C 0.5675(11) 0.4785(18) 0.9451(6)
C27K C 0.5675(11) 0.4785(18) 0.5549(6)
C27G C 0.5215(18) 0.0890(14) 0.5549(6)
C27I C 0.9110(14) 0.4325(11) 0.5549(6)
H27B H 0.5242 0.4597 0.9607
H27D H 0.5403 0.0645 0.9607
H27G H 0.5403 0.0645 0.5393
H27I H 0.9355 0.4758 0.5393
H27K H 0.5242 0.4597 0.5393
H28B H 0.5918 0.5263 0.9510
H28D H 0.4737 0.0655 0.9510
H28G H 0.4737 0.0655 0.5490
H28I H 0.9345 0.4082 0.5490
H28K H 0.5918 0.5263 0.5490
C28D C 0.6007(13) 0.2924(10) 1.1246(6)
C28B C 0.6917(8) 0.3993(13) 1.1246(6)
C28K C 0.6917(8) 0.3993(13) 0.3754(6)
C28I C 0.7076(10) 0.3083(8) 0.3754(6)
C28G C 0.6007(13) 0.2924(10) 0.3754(6)
C29D C 0.6243(13) 0.3593(10) 1.1250(5)
C29B C 0.7350(8) 0.3757(13) 1.1250(5)
C29K C 0.7350(8) 0.3757(13) 0.3750(5)
C29I C 0.6407(10) 0.2650(8) 0.3750(5)
C29G C 0.6243(13) 0.3593(10) 0.3750(5)
C30D C 0.5272(14) 0.2510(11) 1.1252(5)
C30B C 0.7238(9) 0.4728(14) 1.1252(5)
C30K C 0.7238(9) 0.4728(14) 0.3748(5)
C30G C 0.5272(14) 0.2510(11) 0.3748(5)
C30I C 0.7490(11) 0.2762(9) 0.3748(5)
C31D C 0.4085(18) 0.1903(14) 1.1451(6)
C31B C 0.7818(11) 0.5915(18) 1.1451(6)
C31K C 0.7818(11) 0.5915(18) 0.3549(6)
C31G C 0.4085(18) 0.1903(14) 0.3549(6)
C31I C 0.8097(14) 0.2182(11) 0.3549(6)
H29D H 0.3652 0.1740 1.1566
H29B H 0.8088 0.6348 1.1566
H29K H 0.8088 0.6348 0.3434
H29G H 0.3652 0.1740 0.3434
H29I H 0.8260 0.1912 0.3434
C32D C 0.4260(16) 0.1737(12) 1.1011(6)
C32B C 0.7477(10) 0.5740(16) 1.1011(6)
C32K C 0.7477(10) 0.5740(16) 0.3989(6)
C32G C 0.4260(16) 0.1737(12) 0.3989(6)
C32I C 0.8263(12) 0.2523(10) 0.3989(6)
H30D H 0.3947 0.1415 1.0805
H30B H 0.7468 0.6053 1.0805
H30K H 0.7468 0.6053 0.4195
H30G H 0.3947 0.1415 0.4195
H30I H 0.8585 0.2532 0.4195
C33B C 0.8080(11) 0.4229(17) 1.1224(5)
C33D C 0.5771(17) 0.3851(13) 1.1224(5)
C33G C 0.5771(17) 0.3851(13) 0.3776(5)
C33I C 0.6149(13) 0.1920(11) 0.3776(5)
C33K C 0.8080(11) 0.4229(17) 0.3776(5)
C34B C 0.9247(13) 0.4890(21) 1.1439(6)
C34D C 0.5110(21) 0.4357(16) 1.1439(6)
C34G C 0.5110(21) 0.4357(16) 0.3561(6)
C34I C 0.5643(16) 0.0753(13) 0.3561(6)
C34K C 0.9247(13) 0.4890(21) 0.3561(6)
H31B H 0.9678 0.5096 1.1565
H31D H 0.4904 0.4582 1.1565
H31G H 0.4904 0.4582 0.3435
H31I H 0.5418 0.0322 0.3435
H31K H 0.9678 0.5096 0.3435
C35B C 0.9065(13) 0.5033(21) 1.0993(6)
C35D C 0.4967(21) 0.4032(16) 1.0993(6)
C35G C 0.4967(21) 0.4032(16) 0.4007(6)
C35I C 0.5968(16) 0.0935(13) 0.4007(6)
C35K C 0.9065(13) 0.5033(21) 0.4007(6)
H32B H 0.9371 0.5373 1.0794
H32D H 0.4627 0.3998 1.0794
H32G H 0.4627 0.3998 0.4206
H32I H 0.6002 0.0629 0.4206
H32K H 0.9371 0.5373 0.4206
S1 S 0.3550(3) 0.0092(3) 0.48244(18)
O1 O 0.2839(5) -0.0174(6) 0.4802(4)
O2 O 0.3786(7) -0.0273(7) 0.5103(5)
O3 O 0.3948(5) 0.0801(4) 0.4903(4)
C1 C 0.3750(7) -0.0002(7) 0.4243(8)
F1 F 0.3441(7) -0.0646(7) 0.4100(5)
F2 F 0.4407(7) 0.0243(7) 0.4161(5)
F3 F 0.3463(8) 0.0222(8) 0.3927(5)
O13? O 0.6667 0.3333 0.2500
C36? C 0.631(17) 0.367(17) 0.2500
O14? O -0.052(5) -0.007(4) 0.508(3)
O15? O -0.013(7) 0.011(7) 0.654(2)
O16? O 0.014(6) 0.037(4) 0.707(3)
loop_
_geom_bond_atom_site_label_1
_geom_bond_atom_site_label_2
_geom_bond_site_symmetry_1
_geom_bond_site_symmetry_2
S1 O1 1_555 1_555
O2 S1 1_555 1_555
O3 S1 1_555 1_555
C1 S1 1_555 1_555
F1 C1 1_555 1_555
F2 C1 1_555 1_555
F3 C1 1_555 1_555
S2 O4 1_555 1_555
O5 S2 1_555 1_555
C2 S2 1_555 1_555
F4 C2 1_555 1_555
F5 C2 1_555 1_555
S3 O6 1_555 1_555
O7 S3 1_555 1_555
C3 S3 1_555 1_555
F6 C3 1_555 1_555
F7 C3 1_555 1_555
O8 C4 1_555 1_555
C4 O8I 1_555 1_555
Pt1 N1 1_555 1_555
Ag1 N2 1_555 1_555
S4 C30 1_555 1_555
S5 C33 1_555 1_555
O11 C13 1_555 1_555
O12 C25 1_555 1_555
N1 C13 1_555 1_555
N2 C25 1_555 1_555
N3 Pt1 1_555 1_555
N4 Pt1 1_555 1_555
N5 Ag1 1_555 1_555
N6 C33 1_555 1_555
C5 C6 1_555 1_555
C6 C25 1_555 1_555
C7 C5 1_555 1_555
C8 C7 1_555 1_555
H1 C8 1_555 1_555
C9 C8 1_555 1_555
H2 C9 1_555 1_555
C10 C9 1_555 1_555
C11 C10 1_555 1_555
H3 C11 1_555 1_555
C12 C7 1_555 1_555
H4 C12 1_555 1_555
C13 C10 1_555 1_555
C14 O11 1_555 1_555
H5 C14 1_555 1_555
H6 C14 1_555 1_555
C15 N1 1_555 1_555
H7 C15 1_555 1_555
H8 C15 1_555 1_555
C16 N3 1_555 1_555
H9 C16 1_555 1_555
H10 C16 1_555 1_555
C17 C16 1_555 1_555
C18 Pt1 1_555 1_555
C19 C18 1_555 1_555
C20 N4 1_555 1_555
H11 C20 1_555 1_555
H12 C20 1_555 1_555
C21 N3 1_555 1_555
H13 C21 1_555 1_555
H14 C21 1_555 1_555
H15 C21 1_555 1_555
C22 N3 1_555 1_555
H16 C22 1_555 1_555
H17 C22 1_555 1_555
H18 C22 1_555 1_555
C23 N4 1_555 1_555
H19 C23 1_555 1_555
H20 C23 1_555 1_555
H21 C23 1_555 1_555
C24 N4 1_555 1_555
H22 C24 1_555 1_555
H23 C24 1_555 1_555
H24 C24 1_555 1_555
C26 O12 1_555 1_555
H25 C26 1_555 1_555
H26 C26 1_555 1_555
C27 N2 1_555 1_555
H27 C27 1_555 1_555
H28 C27 1_555 1_555
C28 C29 1_555 1_555
C29 C33 1_555 1_555
C30 N5 1_555 1_555
C31 S4 1_555 1_555
H29 C31 1_555 1_555
C32 N5 1_555 1_555
H30 C32 1_555 1_555
C34 S5 1_555 1_555
H31 C34 1_555 1_555
C35 N6 1_555 1_555
H32 C35 1_555 1_555
O4I S2 1_555 1_555
F4I C2 1_555 1_555
O6I S3 1_555 1_555
F7I C3 1_555 1_555
Pt1D N1D 1_555 1_555
Pt1G N1G 1_555 1_555
Pt1K N1K 1_555 1_555
Pt1B N1B 1_555 1_555
Pt1I N1I 1_555 1_555
Ag1D N2D 1_555 1_555
Ag1B N2B 1_555 1_555
Ag1K N2K 1_555 1_555
Ag1G N2G 1_555 1_555
Ag1I N2I 1_555 1_555
S4D C30D 1_555 1_555
S4B C30B 1_555 1_555
S4K C30K 1_555 1_555
S4G C30G 1_555 1_555
S4I C30I 1_555 1_555
S5B C33B 1_555 1_555
S5D C33D 1_555 1_555
S5G C33G 1_555 1_555
S5I C33I 1_555 1_555
S5K C33K 1_555 1_555
O11D C13D 1_555 1_555
O11G C13G 1_555 1_555
O11K C13K 1_555 1_555
O11B C13B 1_555 1_555
O11I C13I 1_555 1_555
O12D C25D 1_555 1_555
O12B C25B 1_555 1_555
O12K C25K 1_555 1_555
O12G C25G 1_555 1_555
O12I C25I 1_555 1_555
N1D C13D 1_555 1_555
N1G C13G 1_555 1_555
N1K C13K 1_555 1_555
N1B C13B 1_555 1_555
N1I C13I 1_555 1_555
N2D C25D 1_555 1_555
N2B C25B 1_555 1_555
N2K C25K 1_555 1_555
N2G C25G 1_555 1_555
N2I C25I 1_555 1_555
N3D Pt1D 1_555 1_555
N3G Pt1G 1_555 1_555
N3K Pt1K 1_555 1_555
N3B Pt1B 1_555 1_555
N3I Pt1I 1_555 1_555
N4B Pt1B 1_555 1_555
N4K Pt1K 1_555 1_555
N4I Pt1I 1_555 1_555
N4G Pt1G 1_555 1_555
N4D Pt1D 1_555 1_555
N5D Ag1D 1_555 1_555
N5B Ag1B 1_555 1_555
N5K Ag1K 1_555 1_555
N5G Ag1G 1_555 1_555
N5I Ag1I 1_555 1_555
N6B C33B 1_555 1_555
N6D C33D 1_555 1_555
N6G C33G 1_555 1_555
N6I C33I 1_555 1_555
N6K C33K 1_555 1_555
C5B C6 1_555 1_555
C5D C6B 1_555 1_555
C5G C6G 1_555 1_555
C5I C6G 1_555 1_555
C5K C6I 1_555 1_555
C6B C5B 1_555 1_555
C6D C5 1_555 1_555
C6G C25G 1_555 1_555
C6I C5I 1_555 1_555
C6K C5G 1_555 1_555
C7D C5D 1_555 1_555
C7G C5G 1_555 1_555
C7K C5K 1_555 1_555
C7B C5B 1_555 1_555
C7I C5I 1_555 1_555
C8D C7D 1_555 1_555
C8G C7G 1_555 1_555
C8K C7K 1_555 1_555
C8B C7B 1_555 1_555
C8I C7I 1_555 1_555
H1D C8D 1_555 1_555
H1K C8K 1_555 1_555
H1B C8B 1_555 1_555
H1I C8I 1_555 1_555
H1G C8G 1_555 1_555
C9D C8D 1_555 1_555
C9G C8G 1_555 1_555
C9K C8K 1_555 1_555
C9B C8B 1_555 1_555
C9I C8I 1_555 1_555
H2D C9D 1_555 1_555
H2K C9K 1_555 1_555
H2B C9B 1_555 1_555
H2I C9I 1_555 1_555
H2G C9G 1_555 1_555
C10D C9D 1_555 1_555
C10G C9G 1_555 1_555
C10K C9K 1_555 1_555
C10B C9B 1_555 1_555
C10I C9I 1_555 1_555
C11D C10D 1_555 1_555
C11K C10K 1_555 1_555
C11B C10B 1_555 1_555
C11I C10I 1_555 1_555
C11G C10G 1_555 1_555
H3D C11D 1_555 1_555
H3K C11K 1_555 1_555
H3B C11B 1_555 1_555
H3I C11I 1_555 1_555
H3G C11G 1_555 1_555
C12D C7D 1_555 1_555
C12K C7K 1_555 1_555
C12B C7B 1_555 1_555
C12I C7I 1_555 1_555
C12G C7G 1_555 1_555
H4D C12D 1_555 1_555
H4K C12K 1_555 1_555
H4B C12B 1_555 1_555
H4I C12I 1_555 1_555
H4G C12G 1_555 1_555
C13D C10D 1_555 1_555
C13G C10G 1_555 1_555
C13K C10K 1_555 1_555
C13B C10B 1_555 1_555
C13I C10I 1_555 1_555
C14D O11D 1_555 1_555
C14G O11G 1_555 1_555
C14K O11K 1_555 1_555
C14B O11B 1_555 1_555
C14I O11I 1_555 1_555
H5D C14D 1_555 1_555
H5G C14G 1_555 1_555
H5K C14K 1_555 1_555
H5B C14B 1_555 1_555
H5I C14I 1_555 1_555
H6D C14D 1_555 1_555
H6G C14G 1_555 1_555
H6K C14K 1_555 1_555
H6B C14B 1_555 1_555
H6I C14I 1_555 1_555
C15D N1D 1_555 1_555
C15G N1G 1_555 1_555
C15K N1K 1_555 1_555
C15B N1B 1_555 1_555
C15I N1I 1_555 1_555
H7G C15G 1_555 1_555
H7B C15B 1_555 1_555
H7K C15K 1_555 1_555
H7I C15I 1_555 1_555
H7D C15D 1_555 1_555
H8G C15G 1_555 1_555
H8B C15B 1_555 1_555
H8K C15K 1_555 1_555
H8I C15I 1_555 1_555
H8D C15D 1_555 1_555
C16D N3D 1_555 1_555
C16G N3G 1_555 1_555
C16K N3K 1_555 1_555
C16B N3B 1_555 1_555
C16I N3I 1_555 1_555
H9D C16D 1_555 1_555
H9K C16K 1_555 1_555
H9B C16B 1_555 1_555
H9I C16I 1_555 1_555
H9G C16G 1_555 1_555
H10D C16D 1_555 1_555
H10K C16K 1_555 1_555
H10B C16B 1_555 1_555
H10I C16I 1_555 1_555
H10G C16G 1_555 1_555
C17D C16D 1_555 1_555
C17G C16G 1_555 1_555
C17K C16K 1_555 1_555
C17B C16B 1_555 1_555
C17I C17 1_555 1_555
C18B Pt1B 1_555 1_555
C18K Pt1K 1_555 1_555
C18I Pt1I 1_555 1_555
C18G Pt1G 1_555 1_555
C18D Pt1D 1_555 1_555
C19B C18B 1_555 1_555
C19K C18K 1_555 1_555
C19I C19 1_555 1_555
C19G C18G 1_555 1_555
C19D C18D 1_555 1_555
C20B N4B 1_555 1_555
C20K N4K 1_555 1_555
C20I N4I 1_555 1_555
C20G N4G 1_555 1_555
C20D N4D 1_555 1_555
H11K C20K 1_555 1_555
H11B C20B 1_555 1_555
H11I C20I 1_555 1_555
H11G C20G 1_555 1_555
H11D C20D 1_555 1_555
H12K C20K 1_555 1_555
H12B C20B 1_555 1_555
H12I C20I 1_555 1_555
H12G C20G 1_555 1_555
H12D C20D 1_555 1_555
C21B N3B 1_555 1_555
C21K N3K 1_555 1_555
C21I N3I 1_555 1_555
C21G N3G 1_555 1_555
C21D N3D 1_555 1_555
H13B C21B 1_555 1_555
H13K C21K 1_555 1_555
H13I C21I 1_555 1_555
H13G C21G 1_555 1_555
H13D C21D 1_555 1_555
H14B C21B 1_555 1_555
H14K C21K 1_555 1_555
H14I C21I 1_555 1_555
H14G C21G 1_555 1_555
H14D C21D 1_555 1_555
H15B C21B 1_555 1_555
H15K C21K 1_555 1_555
H15I C21I 1_555 1_555
H15G C21G 1_555 1_555
H15D C21D 1_555 1_555
C22B N3B 1_555 1_555
C22K N3K 1_555 1_555
C22I N3I 1_555 1_555
C22G N3G 1_555 1_555
C22D N3D 1_555 1_555
H16B C22B 1_555 1_555
H16K C22K 1_555 1_555
H16I C22I 1_555 1_555
H16G C22G 1_555 1_555
H16D C22D 1_555 1_555
H17B C22B 1_555 1_555
H17K C22K 1_555 1_555
H17I C22I 1_555 1_555
H17G C22G 1_555 1_555
H17D C22D 1_555 1_555
H18B C22B 1_555 1_555
H18K C22K 1_555 1_555
H18I C22I 1_555 1_555
H18G C22G 1_555 1_555
H18D C22D 1_555 1_555
C23K N4K 1_555 1_555
C23B N4B 1_555 1_555
C23I N4I 1_555 1_555
C23G N4G 1_555 1_555
C23D N4D 1_555 1_555
H19K C23K 1_555 1_555
H19B C23B 1_555 1_555
H19I C23I 1_555 1_555
H19G C23G 1_555 1_555
H19D C23D 1_555 1_555
H20K C23K 1_555 1_555
H20B C23B 1_555 1_555
H20I C23I 1_555 1_555
H20G C23G 1_555 1_555
H20D C23D 1_555 1_555
H21K C23K 1_555 1_555
H21B C23B 1_555 1_555
H21I C23I 1_555 1_555
H21G C23G 1_555 1_555
H21D C23D 1_555 1_555
C24K N4K 1_555 1_555
C24B N4B 1_555 1_555
C24I N4I 1_555 1_555
C24G N4G 1_555 1_555
C24D N4D 1_555 1_555
H22K C24K 1_555 1_555
H22B C24B 1_555 1_555
H22I C24I 1_555 1_555
H22G C24G 1_555 1_555
H22D C24D 1_555 1_555
H23K C24K 1_555 1_555
H23B C24B 1_555 1_555
H23I C24I 1_555 1_555
H23G C24G 1_555 1_555
H23D C24D 1_555 1_555
H24K C24K 1_555 1_555
H24B C24B 1_555 1_555
H24I C24I 1_555 1_555
H24G C24G 1_555 1_555
H24D C24D 1_555 1_555
C25D C6D 1_555 1_555
C25B C6B 1_555 1_555
C25K C6K 1_555 1_555
C25I C6I 1_555 1_555
C26D O12D 1_555 1_555
C26B O12B 1_555 1_555
C26K O12K 1_555 1_555
C26G O12G 1_555 1_555
C26I O12I 1_555 1_555
H25D C26D 1_555 1_555
H25B C26B 1_555 1_555
H25K C26K 1_555 1_555
H25G C26G 1_555 1_555
H25I C26I 1_555 1_555
H26D C26D 1_555 1_555
H26B C26B 1_555 1_555
H26K C26K 1_555 1_555
H26G C26G 1_555 1_555
H26I C26I 1_555 1_555
C27D N2D 1_555 1_555
C27B N2B 1_555 1_555
C27K N2K 1_555 1_555
C27G N2G 1_555 1_555
C27I N2I 1_555 1_555
H27B C27B 1_555 1_555
H27D C27D 1_555 1_555
H27G C27G 1_555 1_555
H27I C27I 1_555 1_555
H27K C27K 1_555 1_555
H28B C27B 1_555 1_555
H28D C27D 1_555 1_555
H28G C27G 1_555 1_555
H28I C27I 1_555 1_555
H28K C27K 1_555 1_555
C28D C29 1_555 1_555
C28B C29D 1_555 1_555
C28K C29K 1_555 1_555
C28I C29K 1_555 1_555
C28G C29I 1_555 1_555
C29D C28D 1_555 1_555
C29B C28 1_555 1_555
C29K C33K 1_555 1_555
C29I C28I 1_555 1_555
C29G C28K 1_555 1_555
C30D N5D 1_555 1_555
C30B N5B 1_555 1_555
C30K N5K 1_555 1_555
C30G N5G 1_555 1_555
C30I N5I 1_555 1_555
C31D S4D 1_555 1_555
C31B S4B 1_555 1_555
C31K S4K 1_555 1_555
C31G S4G 1_555 1_555
C31I S4I 1_555 1_555
H29D C31D 1_555 1_555
H29B C31B 1_555 1_555
H29K C31K 1_555 1_555
H29G C31G 1_555 1_555
H29I C31I 1_555 1_555
C32D N5D 1_555 1_555
C32B N5B 1_555 1_555
C32K N5K 1_555 1_555
C32G N5G 1_555 1_555
C32I N5I 1_555 1_555
H30D C32D 1_555 1_555
H30B C32B 1_555 1_555
H30K C32K 1_555 1_555
H30G C32G 1_555 1_555
H30I C32I 1_555 1_555
C33B C29B 1_555 1_555
C33D C29D 1_555 1_555
C33G C29G 1_555 1_555
C33I C29I 1_555 1_555
C34B S5B 1_555 1_555
C34D S5D 1_555 1_555
C34G S5G 1_555 1_555
C34I S5I 1_555 1_555
C34K S5K 1_555 1_555
H31B C34B 1_555 1_555
H31D C34D 1_555 1_555
H31G C34G 1_555 1_555
H31I C34I 1_555 1_555
H31K C34K 1_555 1_555
C35B N6B 1_555 1_555
C35D N6D 1_555 1_555
C35G N6G 1_555 1_555
C35I N6I 1_555 1_555
C35K N6K 1_555 1_555
H32B C35B 1_555 1_555
H32D C35D 1_555 1_555
H32G C35G 1_555 1_555
H32I C35I 1_555 1_555
H32K C35K 1_555 1_555
C11 C12 1_555 1_555
C14 C15 1_555 1_555
C17 C18 1_555 1_555
C19 C20 1_555 1_555
C26 C27 1_555 1_555
C28 C30 1_555 1_555
C31 C32 1_555 1_555
C34 C35 1_555 1_555
C5D C6D 1_555 1_555
C5K C6K 1_555 1_555
C11D C12D 1_555 1_555
C11K C12K 1_555 1_555
C11B C12B 1_555 1_555
C11I C12I 1_555 1_555
C11G C12G 1_555 1_555
C14D C15D 1_555 1_555
C14G C15G 1_555 1_555
C14K C15K 1_555 1_555
C14B C15B 1_555 1_555
C14I C15I 1_555 1_555
C16I C17I 1_555 1_555
C17D C17G 1_555 1_555
C17D C18D 1_555 1_555
C17G C18G 1_555 1_555
C17K C17B 1_555 1_555
C17K C18K 1_555 1_555
C17B C18B 1_555 1_555
C17I C18I 1_555 1_555
C18I C19I 1_555 1_555
C19B C19K 1_555 1_555
C19B C20B 1_555 1_555
C19K C20K 1_555 1_555
C19I C20I 1_555 1_555
C19G C19D 1_555 1_555
C19G C20G 1_555 1_555
C19D C20D 1_555 1_555
C26D C27D 1_555 1_555
C26B C27B 1_555 1_555
C26K C27K 1_555 1_555
C26G C27G 1_555 1_555
C26I C27I 1_555 1_555
C28D C30D 1_555 1_555
C28B C29B 1_555 1_555
C28B C30B 1_555 1_555
C28K C30K 1_555 1_555
C28I C30I 1_555 1_555
C28G C29G 1_555 1_555
C28G C30G 1_555 1_555
C31D C32D 1_555 1_555
C31B C32B 1_555 1_555
C31K C32K 1_555 1_555
C31G C32G 1_555 1_555
C31I C32I 1_555 1_555
C34B C35B 1_555 1_555
C34D C35D 1_555 1_555
C34G C35G 1_555 1_555
C34I C35I 1_555 1_555
C34K C35K 1_555 1_555

#END
