
#######################################################################
#
#                 Cambridge Crystallographic Data Centre
#                                CCDC 
#
#######################################################################
#
# If this CIF has been generated from an entry in the Cambridge 
# Structural Database, then it will include bibliographic, chemical, 
# crystal, experimental, refinement or atomic coordinate data resulting 
# from the CCDC's data processing and validation procedures.
#
#######################################################################

data_XUQJUQ
_chemical_formula_moiety         'C96 H48 Mo6 O24'
_chemical_name_systematic        
"hexakis(\m~4~-3,3'-Ethyne-1,2-diyldibenzoato)-hexa-molybdenum unknown solvate"
_symmetry_cell_setting           monoclinic
_symmetry_space_group_name_H-M   'P 21/c'
_symmetry_Int_Tables_number      14
_space_group_name_Hall           '-P 2ybc'
loop_
_symmetry_equiv_pos_site_id
_symmetry_equiv_pos_as_xyz
1 x,y,z
2 -x,1/2+y,1/2-z
3 -x,-y,-z
4 x,1/2-y,1/2+z
_cell_length_a                   11.620(7)
_cell_length_b                   26.165(16)
_cell_length_c                   52.45(3)
_cell_angle_alpha                90
_cell_angle_beta                 93.314(8)
_cell_angle_gamma                90
_cell_volume                     15920.1
_exptl_crystal_colour            'dark red'
_exptl_crystal_description       block
_cell_formula_units_Z            4
loop_
_atom_site_label
_atom_site_type_symbol
_atom_site_fract_x
_atom_site_fract_y
_atom_site_fract_z
Mo1 Mo -0.14010(7) 0.31657(3) 0.092276(15)
Mo2 Mo -0.09307(7) 0.38670(3) 0.110188(14)
Mo3 Mo 0.23395(6) 0.57406(3) 0.291904(15)
Mo4 Mo 0.17040(7) 0.57178(3) 0.253203(15)
Mo5 Mo 0.01211(7) 0.81171(3) 0.075787(16)
Mo6 Mo 0.01604(7) 0.74368(3) 0.097612(15)
O1 O -0.2928(5) 0.3482(2) 0.07574(10)
O2 O -0.2401(5) 0.4228(2) 0.09419(10)
O3 O -0.1407(5) 0.7889(3) 0.05505(11)
O4 O -0.1379(5) 0.7167(2) 0.07790(11)
O5 O -0.0528(5) 0.3357(2) 0.05912(12)
O6 O -0.0079(5) 0.4096(3) 0.07853(13)
O7 O 0.1046(5) 0.7758(2) 0.04681(12)
O8 O 0.1046(5) 0.7026(2) 0.06981(10)
O9 O -0.2238(5) 0.2910(2) 0.12507(11)
O10 O -0.1714(5) 0.3652(2) 0.14393(10)
O11 O 0.0980(5) 0.5278(2) 0.30333(10)
O12 O 0.0311(5) 0.5240(2) 0.26274(10)
O13 O 0.0130(5) 0.2795(2) 0.10711(11)
O14 O 0.0611(5) 0.3546(2) 0.12655(11)
O15 O 0.3334(5) 0.5080(2) 0.28697(10)
O16 O 0.2639(5) 0.5052(2) 0.24597(11)
O17 O 0.1400(5) 0.6427(2) 0.29840(11)
O18 O 0.0762(5) 0.63884(19) 0.25727(11)
O19 O -0.0775(5) 0.8521(2) 0.10355(12)
O20 O -0.0711(5) 0.7796(2) 0.12690(11)
O21 O 0.3793(5) 0.6167(2) 0.28274(13)
O22 O 0.3101(5) 0.6162(2) 0.24182(11)
O23 O 0.1670(5) 0.8374(2) 0.09490(11)
O24 O 0.1721(5) 0.7655(2) 0.11787(10)
C1 C -0.3047(8) 0.3975(4) 0.07867(17)
C2 C -0.3975(7) 0.4249(4) 0.06282(15)
C3 C -0.4819(7) 0.3950(4) 0.04841(16)
H1 H -0.4839 0.3588 0.0498
C4 C -0.5608(7) 0.4215(4) 0.03228(18)
H2 H -0.6200 0.4028 0.0232
C5 C -0.5562(9) 0.4741(4) 0.0290(2)
H3 H -0.6098 0.4910 0.0176
C6 C -0.4701(8) 0.5020(4) 0.04320(18)
C7 C -0.3949(8) 0.4747(3) 0.06059(15)
H4 H -0.3403 0.4933 0.0711
C8 C -0.4606(8) 0.5558(4) 0.0408(2)
C9 C -0.4370(8) 0.6010(4) 0.03707(19)
C10 C -0.4091(9) 0.6543(4) 0.0341(2)
C11 C -0.4656(10) 0.6845(5) 0.0159(3)
H5 H -0.5322 0.6714 0.0067
C12 C -0.4284(11) 0.7329(4) 0.0106(3)
H6 H -0.4620 0.7513 -0.0035
C13 C -0.3413(10) 0.7544(5) 0.0262(2)
H7 H -0.3215 0.7894 0.0244
C14 C -0.2817(9) 0.7234(4) 0.04503(18)
C15 C -0.3164(7) 0.6750(3) 0.04871(17)
H8 H -0.2772 0.6547 0.0615
C16 C -0.1782(8) 0.7456(4) 0.06059(16)
C17 C -0.0053(7) 0.3802(3) 0.05929(18)
C18 C 0.0497(7) 0.3966(3) 0.03602(16)
C19 C 0.0668(8) 0.3627(5) 0.0157(2)
H9 H 0.0407 0.3284 0.0168
C20 C 0.1201(8) 0.3781(5) -0.0054(2)
H10 H 0.1345 0.3542 -0.0185
C21 C 0.1546(8) 0.4303(4) -0.00798(18)
H11 H 0.1892 0.4416 -0.0230
C22 C 0.1365(7) 0.4645(4) 0.01190(16)
C23 C 0.0851(6) 0.4463(3) 0.03344(16)
H12 H 0.0739 0.4695 0.0470
C24 C 0.1687(7) 0.5184(5) 0.01020(19)
C25 C 0.1878(7) 0.5634(4) 0.00917(16)
C26 C 0.2032(8) 0.6180(4) 0.00827(18)
C27 C 0.2407(7) 0.6405(4) -0.01289(17)
H13 H 0.2632 0.6206 -0.0269
C28 C 0.2458(8) 0.6975(4) -0.01351(17)
H14 H 0.2738 0.7147 -0.0278
C29 C 0.2100(8) 0.7241(4) 0.00662(17)
H15 H 0.2102 0.7604 0.0062
C30 C 0.1717(8) 0.6980(4) 0.02870(17)
C31 C 0.1680(7) 0.6467(4) 0.02912(16)
H16 H 0.1414 0.6296 0.0436
C32 C 0.1230(8) 0.7267(4) 0.04968(16)
C33 C -0.2163(8) 0.3211(4) 0.14466(15)
C34 C -0.2597(8) 0.3011(3) 0.16924(16)
C35 C -0.3097(8) 0.2547(3) 0.17036(16)
H17 H -0.3238 0.2354 0.1551
C36 C -0.3408(7) 0.2346(3) 0.19356(17)
H18 H -0.3813 0.2032 0.1942
C37 C -0.3112(7) 0.2618(3) 0.21576(15)
H19 H -0.3268 0.2469 0.2317
C38 C -0.2583(7) 0.3111(3) 0.21565(15)
C39 C -0.2330(7) 0.3301(3) 0.19245(18)
H20 H -0.1975 0.3626 0.1914
C40 C -0.2243(7) 0.3360(3) 0.23889(16)
C41 C -0.1961(7) 0.3585(3) 0.25704(16)
C42 C -0.1587(6) 0.3925(3) 0.27796(16)
C43 C -0.1797(7) 0.3828(4) 0.30344(17)
H21 H -0.2213 0.3529 0.3074
C44 C -0.1418(8) 0.4154(3) 0.32332(19)
H22 H -0.1620 0.4091 0.3403
C45 C -0.0733(7) 0.4577(3) 0.31762(16)
H23 H -0.0436 0.4793 0.3310
C46 C -0.0486(7) 0.4679(3) 0.29236(17)
C47 C -0.0935(7) 0.4370(3) 0.27263(18)
H24 H -0.0806 0.4457 0.2554
C48 C 0.0313(7) 0.5094(3) 0.28567(18)
C49 C 0.0781(7) 0.3085(3) 0.12227(15)
C50 C 0.1797(7) 0.2815(3) 0.13584(16)
C51 C 0.2057(9) 0.2290(4) 0.13051(18)
H25 H 0.1649 0.2107 0.1172
C52 C 0.2921(9) 0.2063(4) 0.14559(19)
H26 H 0.3109 0.1714 0.1429
C53 C 0.3528(8) 0.2344(4) 0.16495(18)
H27 H 0.4167 0.2188 0.1740
C54 C 0.3229(8) 0.2836(4) 0.17118(16)
C55 C 0.2404(8) 0.3086(4) 0.15495(17)
H28 H 0.2264 0.3441 0.1571
C56 C 0.3757(7) 0.3117(3) 0.19254(16)
C57 C 0.4023(7) 0.3357(4) 0.21085(18)
C58 C 0.4250(7) 0.3657(3) 0.23424(16)
C59 C 0.4985(8) 0.3466(4) 0.25439(18)
H29 H 0.5344 0.3143 0.2524
C60 C 0.5196(7) 0.3731(3) 0.27664(18)
H30 H 0.5719 0.3601 0.2897
C61 C 0.4630(7) 0.4196(4) 0.27996(16)
H31 H 0.4752 0.4384 0.2954
C62 C 0.3896(7) 0.4378(3) 0.26065(15)
C63 C 0.3725(7) 0.4120(4) 0.23819(16)
H32 H 0.3233 0.4263 0.2250
C64 C 0.3267(7) 0.4875(3) 0.26502(18)
C65 C 0.0834(7) 0.6615(3) 0.27919(17)
C66 C 0.0269(7) 0.7105(3) 0.28133(17)
C67 C 0.0187(8) 0.7344(3) 0.30560(17)
H33 H 0.0458 0.7176 0.3208
C68 C -0.0306(8) 0.7833(4) 0.30638(18)
H34 H -0.0350 0.8000 0.3224
C69 C -0.0727(8) 0.8076(3) 0.28451(17)
H35 H -0.1106 0.8396 0.2857
C70 C -0.0604(7) 0.7862(3) 0.26104(18)
C71 C -0.0136(7) 0.7370(3) 0.25927(16)
H36 H -0.0092 0.7215 0.2430
C72 C -0.0975(7) 0.8132(3) 0.23727(17)
C73 C -0.1254(7) 0.8341(3) 0.21746(16)
C74 C -0.1503(7) 0.8559(3) 0.19304(17)
C75 C -0.1940(7) 0.9059(3) 0.19039(17)
H37 H -0.2117 0.9247 0.2052
C76 C -0.2113(7) 0.9282(3) 0.16665(17)
H38 H -0.2441 0.9614 0.1651
C77 C -0.1800(7) 0.9012(3) 0.14435(17)
H39 H -0.1924 0.9160 0.1279
C78 C -0.1328(7) 0.8544(3) 0.14706(17)
C79 C -0.1187(7) 0.8312(3) 0.17145(19)
H40 H -0.0868 0.7979 0.1729
C80 C -0.0929(8) 0.8264(4) 0.12383(18)
C81 C 0.3858(8) 0.6298(3) 0.25949(19)
C82 C 0.4817(7) 0.6630(3) 0.25244(18)
C83 C 0.5766(7) 0.6727(3) 0.26919(17)
H41 H 0.5821 0.6565 0.2854
C84 C 0.6613(8) 0.7049(3) 0.2626(2)
H42 H 0.7276 0.7089 0.2739
C85 C 0.6540(10) 0.7328(5) 0.2395(2)
H43 H 0.7094 0.7581 0.2358
C86 C 0.5578(9) 0.7208(4) 0.2218(2)
C87 C 0.4740(8) 0.6886(4) 0.22848(19)
H44 H 0.4089 0.6828 0.2170
C88 C 0.5389(9) 0.7497(4) 0.1980(2)
C89 C 0.5127(9) 0.7768(4) 0.18068(19)
C90 C 0.4687(8) 0.8105(3) 0.16002(17)
C91 C 0.5203(9) 0.8534(4) 0.1543(2)
H45 H 0.5918 0.8621 0.1629
C92 C 0.4689(10) 0.8880(4) 0.1350(2)
H46 H 0.5004 0.9209 0.1322
C93 C 0.3731(9) 0.8710(4) 0.1209(2)
H47 H 0.3415 0.8910 0.1071
C94 C 0.3227(7) 0.8255(3) 0.12658(17)
C95 C 0.3691(8) 0.7951(4) 0.14612(18)
H48 H 0.3330 0.7637 0.1501
C96 C 0.2130(9) 0.8085(3) 0.11197(18)
loop_
_geom_bond_atom_site_label_1
_geom_bond_atom_site_label_2
_geom_bond_site_symmetry_1
_geom_bond_site_symmetry_2
Mo1 Mo2 1_555 1_555
Mo2 O2 1_555 1_555
Mo3 Mo4 1_555 1_555
Mo4 O12 1_555 1_555
Mo5 Mo6 1_555 1_555
Mo6 O4 1_555 1_555
O1 Mo1 1_555 1_555
O2 C1 1_555 1_555
O3 Mo5 1_555 1_555
O4 C16 1_555 1_555
O5 Mo1 1_555 1_555
O6 Mo2 1_555 1_555
O7 Mo5 1_555 1_555
O8 Mo6 1_555 1_555
O9 Mo1 1_555 1_555
O10 Mo2 1_555 1_555
O11 Mo3 1_555 1_555
O12 C48 1_555 1_555
O13 Mo1 1_555 1_555
O14 Mo2 1_555 1_555
O15 Mo3 1_555 1_555
O16 Mo4 1_555 1_555
O17 Mo3 1_555 1_555
O18 Mo4 1_555 1_555
O19 Mo5 1_555 1_555
O20 Mo6 1_555 1_555
O21 Mo3 1_555 1_555
O22 Mo4 1_555 1_555
O23 Mo5 1_555 1_555
O24 Mo6 1_555 1_555
C1 O1 1_555 1_555
C2 C1 1_555 1_555
C3 C2 1_555 1_555
H1 C3 1_555 1_555
C4 C3 1_555 1_555
H2 C4 1_555 1_555
C5 C4 1_555 1_555
H3 C5 1_555 1_555
C6 C5 1_555 1_555
C7 C2 1_555 1_555
H4 C7 1_555 1_555
C8 C6 1_555 1_555
C9 C8 1_555 1_555
C10 C9 1_555 1_555
C11 C10 1_555 1_555
H5 C11 1_555 1_555
C12 C11 1_555 1_555
H6 C12 1_555 1_555
C13 C12 1_555 1_555
H7 C13 1_555 1_555
C14 C13 1_555 1_555
C15 C10 1_555 1_555
H8 C15 1_555 1_555
C16 O3 1_555 1_555
C17 O5 1_555 1_555
C18 C17 1_555 1_555
C19 C18 1_555 1_555
H9 C19 1_555 1_555
C20 C19 1_555 1_555
H10 C20 1_555 1_555
C21 C20 1_555 1_555
H11 C21 1_555 1_555
C22 C21 1_555 1_555
C23 C18 1_555 1_555
H12 C23 1_555 1_555
C24 C22 1_555 1_555
C25 C24 1_555 1_555
C26 C25 1_555 1_555
C27 C26 1_555 1_555
H13 C27 1_555 1_555
C28 C27 1_555 1_555
H14 C28 1_555 1_555
C29 C28 1_555 1_555
H15 C29 1_555 1_555
C30 C29 1_555 1_555
C31 C26 1_555 1_555
H16 C31 1_555 1_555
C32 O7 1_555 1_555
C33 O9 1_555 1_555
C34 C33 1_555 1_555
C35 C34 1_555 1_555
H17 C35 1_555 1_555
C36 C35 1_555 1_555
H18 C36 1_555 1_555
C37 C36 1_555 1_555
H19 C37 1_555 1_555
C38 C37 1_555 1_555
C39 C34 1_555 1_555
H20 C39 1_555 1_555
C40 C38 1_555 1_555
C41 C40 1_555 1_555
C42 C41 1_555 1_555
C43 C42 1_555 1_555
H21 C43 1_555 1_555
C44 C43 1_555 1_555
H22 C44 1_555 1_555
C45 C44 1_555 1_555
H23 C45 1_555 1_555
C46 C45 1_555 1_555
C47 C42 1_555 1_555
H24 C47 1_555 1_555
C48 O11 1_555 1_555
C49 O13 1_555 1_555
C50 C49 1_555 1_555
C51 C50 1_555 1_555
H25 C51 1_555 1_555
C52 C51 1_555 1_555
H26 C52 1_555 1_555
C53 C52 1_555 1_555
H27 C53 1_555 1_555
C54 C53 1_555 1_555
C55 C50 1_555 1_555
H28 C55 1_555 1_555
C56 C54 1_555 1_555
C57 C56 1_555 1_555
C58 C57 1_555 1_555
C59 C58 1_555 1_555
H29 C59 1_555 1_555
C60 C59 1_555 1_555
H30 C60 1_555 1_555
C61 C60 1_555 1_555
H31 C61 1_555 1_555
C62 C61 1_555 1_555
C63 C58 1_555 1_555
H32 C63 1_555 1_555
C64 O15 1_555 1_555
C65 O17 1_555 1_555
C66 C65 1_555 1_555
C67 C66 1_555 1_555
H33 C67 1_555 1_555
C68 C67 1_555 1_555
H34 C68 1_555 1_555
C69 C68 1_555 1_555
H35 C69 1_555 1_555
C70 C69 1_555 1_555
C71 C66 1_555 1_555
H36 C71 1_555 1_555
C72 C70 1_555 1_555
C73 C72 1_555 1_555
C74 C73 1_555 1_555
C75 C74 1_555 1_555
H37 C75 1_555 1_555
C76 C75 1_555 1_555
H38 C76 1_555 1_555
C77 C76 1_555 1_555
H39 C77 1_555 1_555
C78 C77 1_555 1_555
C79 C74 1_555 1_555
H40 C79 1_555 1_555
C80 O19 1_555 1_555
C81 O21 1_555 1_555
C82 C81 1_555 1_555
C83 C82 1_555 1_555
H41 C83 1_555 1_555
C84 C83 1_555 1_555
H42 C84 1_555 1_555
C85 C84 1_555 1_555
H43 C85 1_555 1_555
C86 C85 1_555 1_555
C87 C82 1_555 1_555
H44 C87 1_555 1_555
C88 C86 1_555 1_555
C89 C88 1_555 1_555
C90 C89 1_555 1_555
C91 C90 1_555 1_555
H45 C91 1_555 1_555
C92 C91 1_555 1_555
H46 C92 1_555 1_555
C93 C92 1_555 1_555
H47 C93 1_555 1_555
C94 C93 1_555 1_555
C95 C90 1_555 1_555
H48 C95 1_555 1_555
C96 O23 1_555 1_555
O6 C17 1_555 1_555
O8 C32 1_555 1_555
O10 C33 1_555 1_555
O14 C49 1_555 1_555
O16 C64 1_555 1_555
O18 C65 1_555 1_555
O20 C80 1_555 1_555
O22 C81 1_555 1_555
O24 C96 1_555 1_555
C6 C7 1_555 1_555
C14 C15 1_555 1_555
C14 C16 1_555 1_555
C22 C23 1_555 1_555
C30 C31 1_555 1_555
C30 C32 1_555 1_555
C38 C39 1_555 1_555
C46 C47 1_555 1_555
C46 C48 1_555 1_555
C54 C55 1_555 1_555
C62 C63 1_555 1_555
C62 C64 1_555 1_555
C70 C71 1_555 1_555
C78 C79 1_555 1_555
C78 C80 1_555 1_555
C86 C87 1_555 1_555
C94 C95 1_555 1_555
C94 C96 1_555 1_555

#END
