
#######################################################################
#
#                 Cambridge Crystallographic Data Centre
#                                CCDC 
#
#######################################################################
#
# If this CIF has been generated from an entry in the Cambridge 
# Structural Database, then it will include bibliographic, chemical, 
# crystal, experimental, refinement or atomic coordinate data resulting 
# from the CCDC's data processing and validation procedures.
#
#######################################################################

data_XUQJOK
_chemical_formula_moiety         'C116 H100 Mo4 N4 O20 S4,4(C2 H6 O1 S1)'
_chemical_name_systematic        
"tetrakis(\m~4~-3,3'-((2-Amino-5-isopropyl-1,3-phenylene)diethyne-2,1-diyl)dibenzoato)-tetrakis(dimethyl sulfoxide)-tetra-molybdenum dimethyl sulfoxide solvate"
_symmetry_cell_setting           monoclinic
_symmetry_space_group_name_H-M   'C 2/c'
_symmetry_Int_Tables_number      15
_space_group_name_Hall           '-C 2yn'
loop_
_symmetry_equiv_pos_site_id
_symmetry_equiv_pos_as_xyz
1 x,y,z
2 -x,y,1/2-z
3 1/2+x,1/2+y,z
4 1/2-x,1/2+y,1/2-z
5 -x,-y,-z
6 x,-y,1/2+z
7 1/2-x,1/2-y,-z
8 1/2+x,1/2-y,1/2+z
_cell_length_a                   21.868(16)
_cell_length_b                   30.763(16)
_cell_length_c                   21.215(13)
_cell_angle_alpha                90
_cell_angle_beta                 90.322(11)
_cell_angle_gamma                90
_cell_volume                     14271.6
_exptl_crystal_colour            'dark red'
_exptl_crystal_description       block
_cell_formula_units_Z            4
loop_
_atom_site_label
_atom_site_type_symbol
_atom_site_fract_x
_atom_site_fract_y
_atom_site_fract_z
Mo1 Mo 0.13042(2) 0.044950(17) -0.06774(2)
Mo2 Mo 0.16656(2) 0.106793(17) -0.04694(2)
S1 S 0.05090(9) -0.03097(6) -0.17013(8)
S2 S 0.26766(8) 0.19479(6) 0.01733(9)
O1 O 0.04359(18) 0.06322(13) -0.03639(17)
O2 O 0.08220(18) 0.12867(13) -0.01408(17)
O3 O 0.28390(18) 0.47766(13) 0.09776(18)
O4 O 0.24566(18) 0.41207(13) 0.07634(18)
O5 O 0.15052(18) 0.02096(13) 0.02221(18)
O6 O 0.18892(17) 0.08612(13) 0.04510(17)
O7 O 0.39538(18) 0.43391(13) 0.15935(17)
O8 O 0.35667(17) 0.36899(13) 0.13659(17)
O9 O 0.0903(3) -0.02090(15) -0.1138(2)
O10 O 0.2122(2) 0.17733(16) -0.0139(3)
N1 N 0.0017(2) 0.3107(2) 0.1016(3)
H1 H 0.0049 0.2860 0.0809
H2 H 0.0307 0.3304 0.0986
N2 N 0.3008(3) 0.19189(19) 0.2734(2)
H3 H 0.2852 0.1737 0.2457
H4 H 0.3136 0.2176 0.2612
C1 C 0.0376(3) 0.1013(2) -0.0154(3)
C2 C -0.0214(3) 0.1161(2) 0.0081(3)
C3 C -0.0724(3) 0.0883(2) 0.0064(3)
H5 H -0.0686 0.0596 -0.0095
C4 C -0.1278(3) 0.1030(2) 0.0280(3)
H6 H -0.1624 0.0844 0.0258
C5 C -0.1343(3) 0.1442(2) 0.0528(3)
H7 H -0.1729 0.1539 0.0676
C6 C -0.0833(3) 0.1716(2) 0.0558(3)
C7 C -0.0272(3) 0.1579(2) 0.0333(3)
H8 H 0.0071 0.1768 0.0349
C8 C -0.0881(3) 0.2140(2) 0.0843(3)
C9 C -0.0917(3) 0.2482(2) 0.1113(3)
C10 C -0.0950(3) 0.2878(2) 0.1439(3)
C11 C -0.1437(3) 0.2957(2) 0.1855(3)
H9 H -0.1743 0.2741 0.1904
C12 C -0.1482(2) 0.33331(19) 0.2188(3)
C13 C -0.1026(3) 0.3643(2) 0.2112(3)
H10 H -0.1049 0.3905 0.2346
C14 C -0.0539(3) 0.3580(2) 0.1706(3)
C15 C -0.0477(3) 0.3183(2) 0.1378(3)
C16 C -0.1934(2) 0.34387(16) 0.2717(2)
H11 H -0.1697 0.3493 0.3113
C17 C -0.2372(3) 0.30578(19) 0.2822(4)
H12 H -0.2600 0.2999 0.2431
H13 H -0.2659 0.3131 0.3158
H14 H -0.2138 0.2799 0.2942
C18 C -0.2308(3) 0.38442(18) 0.2550(4)
H15 H -0.2602 0.3903 0.2887
H16 H -0.2528 0.3796 0.2153
H17 H -0.2033 0.4094 0.2504
C19 C -0.0094(3) 0.3915(2) 0.1619(3)
C20 C 0.0275(3) 0.4192(2) 0.1534(3)
C21 C 0.0748(3) 0.4507(2) 0.1459(3)
C22 C 0.1309(3) 0.4370(2) 0.1203(3)
H18 H 0.1359 0.4079 0.1063
C23 C 0.1787(3) 0.46634(19) 0.1159(3)
C24 C 0.1707(3) 0.5092(2) 0.1342(3)
H19 H 0.2033 0.5295 0.1307
C25 C 0.1149(3) 0.5220(2) 0.1574(3)
H20 H 0.1092 0.5514 0.1694
C26 C 0.0674(3) 0.4933(2) 0.1636(3)
H21 H 0.0295 0.5029 0.1801
C27 C 0.2397(3) 0.45093(19) 0.0955(3)
C28 C 0.1756(3) 0.04770(19) 0.0603(3)
C29 C 0.1874(3) 0.03333(19) 0.1255(3)
C30 C 0.1749(3) -0.0083(2) 0.1458(3)
H22 H 0.1604 -0.0293 0.1166
C31 C 0.1830(3) -0.0196(2) 0.2072(3)
H23 H 0.1742 -0.0485 0.2200
C32 C 0.2038(3) 0.0102(2) 0.2515(3)
H24 H 0.2079 0.0022 0.2945
C33 C 0.2186(3) 0.0525(2) 0.2315(3)
C34 C 0.2105(3) 0.0636(2) 0.1687(3)
H25 H 0.2208 0.0920 0.1548
C35 C 0.2415(3) 0.0836(2) 0.2756(3)
C36 C 0.2613(3) 0.1089(2) 0.3133(3)
C37 C 0.2853(3) 0.1396(2) 0.3572(3)
C38 C 0.2889(3) 0.1296(2) 0.4209(3)
H26 H 0.2760 0.1016 0.4342
C39 C 0.3100(3) 0.1581(2) 0.4654(3)
C40 C 0.3314(3) 0.1979(2) 0.4442(3)
H27 H 0.3478 0.2180 0.4738
C41 C 0.3295(3) 0.2093(2) 0.3806(3)
C42 C 0.3051(3) 0.1802(2) 0.3354(3)
C43 C 0.3084(3) 0.1494(2) 0.5363(3)
H28 H 0.3475 0.1608 0.5545
C44 C 0.3049(4) 0.1019(3) 0.5528(3)
H29 H 0.3078 0.0985 0.5986
H30 H 0.3388 0.0864 0.5327
H31 H 0.2660 0.0900 0.5377
C45 C 0.2563(3) 0.1747(3) 0.5669(3)
H32 H 0.2533 0.1666 0.6114
H33 H 0.2177 0.1678 0.5453
H34 H 0.2643 0.2060 0.5635
C46 C 0.3507(3) 0.2510(2) 0.3593(3)
C47 C 0.3687(3) 0.2845(2) 0.3409(3)
C48 C 0.3902(3) 0.3264(2) 0.3196(3)
C49 C 0.3804(3) 0.3393(2) 0.2575(3)
H35 H 0.3605 0.3203 0.2286
C50 C 0.3996(3) 0.3798(2) 0.2381(3)
C51 C 0.4314(3) 0.4069(2) 0.2802(3)
H36 H 0.4460 0.4344 0.2666
C52 C 0.4413(3) 0.3934(2) 0.3411(3)
H37 H 0.4630 0.4118 0.3694
C53 C 0.4207(3) 0.3541(2) 0.3615(3)
H38 H 0.4269 0.3455 0.4041
C54 C 0.3831(3) 0.3954(2) 0.1740(3)
C55 C -0.0238(4) -0.0355(4) -0.1415(4)
H39 H -0.0396 -0.0065 -0.1318
H40 H -0.0236 -0.0533 -0.1032
H41 H -0.0498 -0.0492 -0.1735
C56 C 0.0667(5) -0.0852(3) -0.1831(4)
H42 H 0.1082 -0.0881 -0.1996
H43 H 0.0374 -0.0970 -0.2138
H44 H 0.0634 -0.1012 -0.1434
C57 C 0.3105(3) 0.15121(19) 0.0471(4)
H45 H 0.2947 0.1429 0.0886
H46 H 0.3534 0.1599 0.0513
H47 H 0.3073 0.1264 0.0183
C58 C 0.2252(5) 0.2087(4) 0.0841(3)
H48 H 0.1985 0.2333 0.0742
H49 H 0.2532 0.2167 0.1185
H50 H 0.2004 0.1838 0.0971
Mo1F Mo 0.36958(2) 0.455050(17) 0.06774(2)
Mo2F Mo 0.33344(2) 0.393207(17) 0.04694(2)
S1F S 0.44910(9) 0.53097(6) 0.17013(8)
S2F S 0.23234(8) 0.30521(6) -0.01733(9)
O1F O 0.45641(18) 0.43678(13) 0.03639(17)
O2F O 0.41780(18) 0.37133(13) 0.01408(17)
O3F O 0.21610(18) 0.02234(13) -0.09776(18)
O4F O 0.25434(18) 0.08793(13) -0.07634(18)
O5F O 0.34948(18) 0.47904(13) -0.02221(18)
O6F O 0.31108(17) 0.41388(13) -0.04510(17)
O7F O 0.10462(18) 0.06609(13) -0.15935(17)
O8F O 0.14333(17) 0.13101(13) -0.13659(17)
O9F O 0.4097(3) 0.52090(15) 0.1138(2)
O10F O 0.2878(2) 0.32267(16) 0.0139(3)
N1F N 0.4983(2) 0.1893(2) -0.1016(3)
H1F H 0.4951 0.2140 -0.0809
H2F H 0.4693 0.1696 -0.0986
N2F N 0.1992(3) 0.30811(19) -0.2734(2)
H3F H 0.2148 0.3263 -0.2457
H4F H 0.1864 0.2824 -0.2612
C1F C 0.4624(3) 0.3987(2) 0.0154(3)
C2F C 0.5214(3) 0.3839(2) -0.0081(3)
C3F C 0.5724(3) 0.4117(2) -0.0064(3)
H5F H 0.5686 0.4404 0.0095
C4F C 0.6278(3) 0.3970(2) -0.0280(3)
H6F H 0.6624 0.4156 -0.0258
C5F C 0.6343(3) 0.3558(2) -0.0528(3)
H7F H 0.6729 0.3461 -0.0676
C6F C 0.5833(3) 0.3284(2) -0.0558(3)
C7F C 0.5272(3) 0.3421(2) -0.0333(3)
H8F H 0.4929 0.3232 -0.0349
C8F C 0.5881(3) 0.2860(2) -0.0843(3)
C9F C 0.5917(3) 0.2518(2) -0.1113(3)
C10F C 0.5950(3) 0.2122(2) -0.1439(3)
C11F C 0.6437(3) 0.2043(2) -0.1855(3)
H9F H 0.6743 0.2259 -0.1904
C12F C 0.6482(2) 0.16669(19) -0.2188(3)
C13F C 0.6026(3) 0.1357(2) -0.2112(3)
H10F H 0.6049 0.1095 -0.2346
C14F C 0.5539(3) 0.1420(2) -0.1706(3)
C15F C 0.5477(3) 0.1817(2) -0.1378(3)
C16F C 0.6934(2) 0.15613(16) -0.2717(2)
H11F H 0.6697 0.1507 -0.3113
C17F C 0.7372(3) 0.19422(19) -0.2822(4)
H12F H 0.7600 0.2001 -0.2431
H13F H 0.7659 0.1869 -0.3158
H14F H 0.7138 0.2201 -0.2942
C18F C 0.7308(3) 0.11558(18) -0.2550(4)
H15F H 0.7602 0.1097 -0.2887
H16F H 0.7528 0.1204 -0.2153
H17F H 0.7033 0.0906 -0.2504
C19F C 0.5094(3) 0.1085(2) -0.1619(3)
C20F C 0.4725(3) 0.0808(2) -0.1534(3)
C21F C 0.4252(3) 0.0493(2) -0.1459(3)
C22F C 0.3691(3) 0.0630(2) -0.1203(3)
H18F H 0.3641 0.0921 -0.1063
C23F C 0.3213(3) 0.03366(19) -0.1159(3)
C24F C 0.3293(3) -0.0092(2) -0.1342(3)
H19F H 0.2967 -0.0295 -0.1307
C25F C 0.3851(3) -0.0220(2) -0.1574(3)
H20F H 0.3908 -0.0514 -0.1694
C26F C 0.4326(3) 0.0067(2) -0.1636(3)
H21F H 0.4705 -0.0029 -0.1801
C27F C 0.2603(3) 0.04907(19) -0.0955(3)
C28F C 0.3244(3) 0.45230(19) -0.0603(3)
C29F C 0.3126(3) 0.46667(19) -0.1255(3)
C30F C 0.3251(3) 0.5083(2) -0.1458(3)
H22F H 0.3396 0.5293 -0.1166
C31F C 0.3170(3) 0.5196(2) -0.2072(3)
H23F H 0.3258 0.5485 -0.2200
C32F C 0.2962(3) 0.4898(2) -0.2515(3)
H24F H 0.2921 0.4978 -0.2945
C33F C 0.2814(3) 0.4475(2) -0.2315(3)
C34F C 0.2895(3) 0.4364(2) -0.1687(3)
H25F H 0.2792 0.4080 -0.1548
C35F C 0.2585(3) 0.4164(2) -0.2756(3)
C36F C 0.2387(3) 0.3911(2) -0.3133(3)
C37F C 0.2147(3) 0.3604(2) -0.3572(3)
C38F C 0.2111(3) 0.3704(2) -0.4209(3)
H26F H 0.2240 0.3984 -0.4342
C39F C 0.1900(3) 0.3419(2) -0.4654(3)
C40F C 0.1686(3) 0.3021(2) -0.4442(3)
H27F H 0.1522 0.2820 -0.4738
C41F C 0.1705(3) 0.2907(2) -0.3806(3)
C42F C 0.1949(3) 0.3198(2) -0.3354(3)
C43F C 0.1916(3) 0.3506(2) -0.5363(3)
H28F H 0.1525 0.3392 -0.5545
C44F C 0.1951(4) 0.3981(3) -0.5528(3)
H29F H 0.1922 0.4015 -0.5986
H30F H 0.1612 0.4136 -0.5327
H31F H 0.2340 0.4100 -0.5377
C45F C 0.2437(3) 0.3253(3) -0.5669(3)
H32F H 0.2467 0.3334 -0.6114
H33F H 0.2823 0.3322 -0.5453
H34F H 0.2357 0.2940 -0.5635
C46F C 0.1493(3) 0.2490(2) -0.3593(3)
C47F C 0.1313(3) 0.2155(2) -0.3409(3)
C48F C 0.1098(3) 0.1736(2) -0.3196(3)
C49F C 0.1196(3) 0.1607(2) -0.2575(3)
H35F H 0.1395 0.1797 -0.2286
C50F C 0.1004(3) 0.1202(2) -0.2381(3)
C51F C 0.0686(3) 0.0931(2) -0.2802(3)
H36F H 0.0540 0.0656 -0.2666
C52F C 0.0587(3) 0.1066(2) -0.3411(3)
H37F H 0.0370 0.0882 -0.3694
C53F C 0.0793(3) 0.1459(2) -0.3615(3)
H38F H 0.0731 0.1545 -0.4041
C54F C 0.1169(3) 0.1046(2) -0.1740(3)
C55F C 0.5238(4) 0.5355(4) 0.1415(4)
H39F H 0.5396 0.5065 0.1318
H40F H 0.5236 0.5533 0.1032
H41F H 0.5498 0.5492 0.1735
C56F C 0.4333(5) 0.5852(3) 0.1831(4)
H42F H 0.3918 0.5881 0.1996
H43F H 0.4626 0.5970 0.2138
H44F H 0.4366 0.6012 0.1434
C57F C 0.1895(3) 0.34879(19) -0.0471(4)
H45F H 0.2053 0.3571 -0.0886
H46F H 0.1466 0.3401 -0.0513
H47F H 0.1927 0.3736 -0.0183
C58F C 0.2748(5) 0.2913(4) -0.0841(3)
H48F H 0.3015 0.2667 -0.0742
H49F H 0.2468 0.2833 -0.1185
H50F H 0.2996 0.3162 -0.0971
S3 S -0.01683(9) 0.38790(7) -0.00420(10)
O11 O 0.0505(2) 0.3791(2) 0.0057(3)
C60 C -0.0241(4) 0.4448(3) -0.0084(4)
H54 H -0.0170 0.4574 0.0334
H55 H -0.0653 0.4523 -0.0230
H56 H 0.0061 0.4564 -0.0380
C61 C -0.0321(4) 0.3760(3) -0.0848(4)
H57 H -0.0284 0.3446 -0.0918
H58 H -0.0027 0.3914 -0.1114
H59 H -0.0737 0.3854 -0.0956
S4 S 0.37239(10) 0.04371(8) 0.13951(11)
O12 O 0.4392(3) 0.0458(2) 0.1441(3)
C62 C 0.3546(4) 0.0348(3) 0.0604(4)
H60 H 0.3633 0.0612 0.0361
H61 H 0.3112 0.0275 0.0562
H62 H 0.3794 0.0107 0.0443
C63 C 0.3518(4) -0.0088(3) 0.1673(4)
H63 H 0.3586 -0.0102 0.2130
H64 H 0.3770 -0.0308 0.1464
H65 H 0.3085 -0.0142 0.1579
loop_
_geom_bond_atom_site_label_1
_geom_bond_atom_site_label_2
_geom_bond_site_symmetry_1
_geom_bond_site_symmetry_2
Mo1 Mo2 1_555 1_555
Mo2 O2 1_555 1_555
S1 O9 1_555 1_555
S2 O10 1_555 1_555
O1 Mo1 1_555 1_555
O2 C1 1_555 1_555
O3 C27 1_555 1_555
O4 C27 1_555 1_555
O5 Mo1 1_555 1_555
O6 Mo2 1_555 1_555
O7 C54 1_555 1_555
O8 C54 1_555 1_555
O9 Mo1 1_555 1_555
O10 Mo2 1_555 1_555
N1 H1 1_555 1_555
H2 N1 1_555 1_555
N2 H3 1_555 1_555
H4 N2 1_555 1_555
C1 O1 1_555 1_555
C2 C1 1_555 1_555
C3 C2 1_555 1_555
H5 C3 1_555 1_555
C4 C3 1_555 1_555
H6 C4 1_555 1_555
C5 C4 1_555 1_555
H7 C5 1_555 1_555
C6 C5 1_555 1_555
C7 C2 1_555 1_555
H8 C7 1_555 1_555
C8 C6 1_555 1_555
C9 C8 1_555 1_555
C10 C9 1_555 1_555
C11 C10 1_555 1_555
H9 C11 1_555 1_555
C12 C11 1_555 1_555
C13 C12 1_555 1_555
H10 C13 1_555 1_555
C14 C13 1_555 1_555
C15 N1 1_555 1_555
C16 C12 1_555 1_555
H11 C16 1_555 1_555
C17 C16 1_555 1_555
H12 C17 1_555 1_555
H13 C17 1_555 1_555
H14 C17 1_555 1_555
C18 C16 1_555 1_555
H15 C18 1_555 1_555
H16 C18 1_555 1_555
H17 C18 1_555 1_555
C19 C14 1_555 1_555
C20 C19 1_555 1_555
C21 C20 1_555 1_555
C22 C21 1_555 1_555
H18 C22 1_555 1_555
C23 C22 1_555 1_555
C24 C23 1_555 1_555
H19 C24 1_555 1_555
C25 C24 1_555 1_555
H20 C25 1_555 1_555
C26 C21 1_555 1_555
H21 C26 1_555 1_555
C27 C23 1_555 1_555
C28 O5 1_555 1_555
C29 C28 1_555 1_555
C30 C29 1_555 1_555
H22 C30 1_555 1_555
C31 C30 1_555 1_555
H23 C31 1_555 1_555
C32 C31 1_555 1_555
H24 C32 1_555 1_555
C33 C32 1_555 1_555
C34 C29 1_555 1_555
H25 C34 1_555 1_555
C35 C33 1_555 1_555
C36 C35 1_555 1_555
C37 C36 1_555 1_555
C38 C37 1_555 1_555
H26 C38 1_555 1_555
C39 C38 1_555 1_555
C40 C39 1_555 1_555
H27 C40 1_555 1_555
C41 C40 1_555 1_555
C42 N2 1_555 1_555
C43 C39 1_555 1_555
H28 C43 1_555 1_555
C44 C43 1_555 1_555
H29 C44 1_555 1_555
H30 C44 1_555 1_555
H31 C44 1_555 1_555
C45 C43 1_555 1_555
H32 C45 1_555 1_555
H33 C45 1_555 1_555
H34 C45 1_555 1_555
C46 C41 1_555 1_555
C47 C46 1_555 1_555
C48 C47 1_555 1_555
C49 C48 1_555 1_555
H35 C49 1_555 1_555
C50 C49 1_555 1_555
C51 C50 1_555 1_555
H36 C51 1_555 1_555
C52 C51 1_555 1_555
H37 C52 1_555 1_555
C53 C48 1_555 1_555
H38 C53 1_555 1_555
C54 C50 1_555 1_555
C55 S1 1_555 1_555
H39 C55 1_555 1_555
H40 C55 1_555 1_555
H41 C55 1_555 1_555
C56 S1 1_555 1_555
H42 C56 1_555 1_555
H43 C56 1_555 1_555
H44 C56 1_555 1_555
C57 S2 1_555 1_555
H45 C57 1_555 1_555
H46 C57 1_555 1_555
H47 C57 1_555 1_555
C58 S2 1_555 1_555
H48 C58 1_555 1_555
H49 C58 1_555 1_555
H50 C58 1_555 1_555
S3 O11 1_555 1_555
C60 S3 1_555 1_555
H54 C60 1_555 1_555
H55 C60 1_555 1_555
H56 C60 1_555 1_555
C61 S3 1_555 1_555
H57 C61 1_555 1_555
H58 C61 1_555 1_555
H59 C61 1_555 1_555
S4 O12 1_555 1_555
C62 S4 1_555 1_555
H60 C62 1_555 1_555
H61 C62 1_555 1_555
H62 C62 1_555 1_555
C63 S4 1_555 1_555
H63 C63 1_555 1_555
H64 C63 1_555 1_555
H65 C63 1_555 1_555
Mo1F O3 1_555 1_555
Mo2F O4 1_555 1_555
S1F O9F 1_555 1_555
S2F O10F 1_555 1_555
O1F Mo1F 1_555 1_555
O2F Mo2F 1_555 1_555
O3F Mo1 1_555 1_555
O4F Mo2 1_555 1_555
O5F Mo1F 1_555 1_555
O6F Mo2F 1_555 1_555
O7F Mo1 1_555 1_555
O8F Mo2 1_555 1_555
O9F Mo1F 1_555 1_555
O10F Mo2F 1_555 1_555
N1F H1F 1_555 1_555
H2F N1F 1_555 1_555
N2F H3F 1_555 1_555
H4F N2F 1_555 1_555
C1F O1F 1_555 1_555
C2F C1F 1_555 1_555
C3F C2F 1_555 1_555
H5F C3F 1_555 1_555
C4F C3F 1_555 1_555
H6F C4F 1_555 1_555
C5F C4F 1_555 1_555
H7F C5F 1_555 1_555
C6F C5F 1_555 1_555
C7F C2F 1_555 1_555
H8F C7F 1_555 1_555
C8F C6F 1_555 1_555
C9F C8F 1_555 1_555
C10F C9F 1_555 1_555
C11F C10F 1_555 1_555
H9F C11F 1_555 1_555
C12F C11F 1_555 1_555
C13F C12F 1_555 1_555
H10F C13F 1_555 1_555
C14F C13F 1_555 1_555
C15F N1F 1_555 1_555
C16F C12F 1_555 1_555
H11F C16F 1_555 1_555
C17F C16F 1_555 1_555
H12F C17F 1_555 1_555
H13F C17F 1_555 1_555
H14F C17F 1_555 1_555
C18F C16F 1_555 1_555
H15F C18F 1_555 1_555
H16F C18F 1_555 1_555
H17F C18F 1_555 1_555
C19F C14F 1_555 1_555
C20F C19F 1_555 1_555
C21F C20F 1_555 1_555
C22F C21F 1_555 1_555
H18F C22F 1_555 1_555
C23F C22F 1_555 1_555
C24F C23F 1_555 1_555
H19F C24F 1_555 1_555
C25F C24F 1_555 1_555
H20F C25F 1_555 1_555
C26F C21F 1_555 1_555
H21F C26F 1_555 1_555
C27F O3F 1_555 1_555
C28F O5F 1_555 1_555
C29F C28F 1_555 1_555
C30F C29F 1_555 1_555
H22F C30F 1_555 1_555
C31F C30F 1_555 1_555
H23F C31F 1_555 1_555
C32F C31F 1_555 1_555
H24F C32F 1_555 1_555
C33F C32F 1_555 1_555
C34F C29F 1_555 1_555
H25F C34F 1_555 1_555
C35F C33F 1_555 1_555
C36F C35F 1_555 1_555
C37F C36F 1_555 1_555
C38F C37F 1_555 1_555
H26F C38F 1_555 1_555
C39F C38F 1_555 1_555
C40F C39F 1_555 1_555
H27F C40F 1_555 1_555
C41F C40F 1_555 1_555
C42F N2F 1_555 1_555
C43F C39F 1_555 1_555
H28F C43F 1_555 1_555
C44F C43F 1_555 1_555
H29F C44F 1_555 1_555
H30F C44F 1_555 1_555
H31F C44F 1_555 1_555
C45F C43F 1_555 1_555
H32F C45F 1_555 1_555
H33F C45F 1_555 1_555
H34F C45F 1_555 1_555
C46F C41F 1_555 1_555
C47F C46F 1_555 1_555
C48F C47F 1_555 1_555
C49F C48F 1_555 1_555
H35F C49F 1_555 1_555
C50F C49F 1_555 1_555
C51F C50F 1_555 1_555
H36F C51F 1_555 1_555
C52F C51F 1_555 1_555
H37F C52F 1_555 1_555
C53F C48F 1_555 1_555
H38F C53F 1_555 1_555
C54F O7F 1_555 1_555
C55F S1F 1_555 1_555
H39F C55F 1_555 1_555
H40F C55F 1_555 1_555
H41F C55F 1_555 1_555
C56F S1F 1_555 1_555
H42F C56F 1_555 1_555
H43F C56F 1_555 1_555
H44F C56F 1_555 1_555
C57F S2F 1_555 1_555
H45F C57F 1_555 1_555
H46F C57F 1_555 1_555
H47F C57F 1_555 1_555
C58F S2F 1_555 1_555
H48F C58F 1_555 1_555
H49F C58F 1_555 1_555
H50F C58F 1_555 1_555
O6 C28 1_555 1_555
O7 Mo1F 1_555 1_555
O8 Mo2F 1_555 1_555
C6 C7 1_555 1_555
C10 C15 1_555 1_555
C14 C15 1_555 1_555
C25 C26 1_555 1_555
C33 C34 1_555 1_555
C37 C42 1_555 1_555
C41 C42 1_555 1_555
C52 C53 1_555 1_555
Mo1F Mo2F 1_555 1_555
O2F C1F 1_555 1_555
O4F C27F 1_555 1_555
O6F C28F 1_555 1_555
O8F C54F 1_555 1_555
C6F C7F 1_555 1_555
C10F C15F 1_555 1_555
C14F C15F 1_555 1_555
C23F C27F 1_555 1_555
C25F C26F 1_555 1_555
C33F C34F 1_555 1_555
C37F C42F 1_555 1_555
C41F C42F 1_555 1_555
C50F C54F 1_555 1_555
C52F C53F 1_555 1_555

#END
