
#######################################################################
#
#                 Cambridge Crystallographic Data Centre
#                                CCDC 
#
#######################################################################
#
# If this CIF has been generated from an entry in the Cambridge 
# Structural Database, then it will include bibliographic, chemical, 
# crystal, experimental, refinement or atomic coordinate data resulting 
# from the CCDC's data processing and validation procedures.
#
#######################################################################

data_XUQJIE
_chemical_formula_moiety         'C106 H66 Mo4 N2 O18,2(C5 H9 N1 O1)'
_chemical_name_systematic        
"tetrakis(\m~2~-3,3'-(1,3-Phenylenediethyne-2,1-diyl)dibenzoato)-bis(1-methylpyrrolidin-2-one-O)-tetra-molybdenum 1-methylpyrrolidin-2-one solvate"
_symmetry_cell_setting           triclinic
_symmetry_space_group_name_H-M   'P -1'
_symmetry_Int_Tables_number      2
_space_group_name_Hall           '-P 1'
loop_
_symmetry_equiv_pos_site_id
_symmetry_equiv_pos_as_xyz
1 x,y,z
2 -x,-y,-z
_cell_length_a                   13.914(4)
_cell_length_b                   14.263(4)
_cell_length_c                   17.484(5)
_cell_angle_alpha                72.778(3)
_cell_angle_beta                 87.742(3)
_cell_angle_gamma                67.930(3)
_cell_volume                     3061.24
_exptl_crystal_colour            'dark red'
_exptl_crystal_description       block
_cell_formula_units_Z            1
loop_
_atom_site_label
_atom_site_type_symbol
_atom_site_fract_x
_atom_site_fract_y
_atom_site_fract_z
Mo1 Mo 0.28275(3) 0.33597(3) 0.61909(2)
Mo2 Mo 0.35104(3) 0.22937(3) 0.73334(2)
O1 O 0.4273(2) 0.3387(2) 0.58085(16)
O2 O 0.5005(2) 0.2238(2) 0.70052(15)
O3 O 0.8656(2) -0.3404(2) 1.34799(16)
O4 O 0.7934(2) -0.2299(2) 1.22697(16)
O5 O 0.7436(2) -0.4681(2) 1.34157(15)
O6 O 0.6707(2) -0.3563(2) 1.22116(15)
O7 O 0.3060(2) 0.2092(2) 0.57204(16)
O8 O 0.3743(2) 0.0970(2) 0.69349(16)
C1 C 0.5070(3) 0.2810(3) 0.6305(2)
C2 C 0.6111(3) 0.2792(3) 0.6062(2)
C3 C 0.6191(4) 0.3535(4) 0.5348(3)
H1 H 0.5581 0.4058 0.5029
C4 C 0.7159(4) 0.3499(4) 0.5116(3)
H2 H 0.7212 0.4008 0.4639
C5 C 0.8052(4) 0.2735(4) 0.5565(3)
H3 H 0.8714 0.2714 0.5394
C6 C 0.7984(4) 0.1981(4) 0.6280(3)
C7 C 0.7002(3) 0.2033(3) 0.6522(3)
H4 H 0.6945 0.1542 0.7008
C8 C 0.8912(4) 0.1236(4) 0.6781(3)
C9 C 0.9675(4) 0.0688(4) 0.7232(3)
C10 C 1.0540(4) 0.0142(3) 0.7827(3)
C11 C 1.1510(4) 0.0208(3) 0.7655(3)
H5 H 1.1617 0.0553 0.7123
C12 C 1.2303(4) -0.0223(3) 0.8248(3)
H6 H 1.2956 -0.0170 0.8126
C13 C 1.2159(4) -0.0732(3) 0.9020(3)
H7 H 1.2710 -0.1015 0.9429
C14 C 1.1208(4) -0.0838(3) 0.9210(3)
C15 C 1.0401(4) -0.0388(4) 0.8604(3)
H8 H 0.9749 -0.0444 0.8723
C16 C 1.1072(4) -0.1388(4) 1.0019(3)
C17 C 1.0965(4) -0.1847(4) 1.0683(3)
C18 C 1.0848(4) -0.2421(4) 1.1495(3)
C19 C 1.1722(4) -0.3035(4) 1.2036(3)
H9 H 1.2392 -0.3073 1.1873
C20 C 1.1615(4) -0.3589(4) 1.2811(3)
H10 H 1.2212 -0.4006 1.3179
C21 C 1.0643(4) -0.3536(3) 1.3051(3)
H11 H 1.0572 -0.3912 1.3584
C22 C 0.9770(4) -0.2934(3) 1.2512(2)
C23 C 0.9867(4) -0.2365(3) 1.1737(3)
H12 H 0.9267 -0.1939 1.1374
C24 C 0.8729(3) -0.2868(3) 1.2769(2)
C25 C 0.7151(3) -0.4507(3) 1.2689(2)
C26 C 0.7320(3) -0.5422(3) 1.2385(2)
C27 C 0.7815(4) -0.6449(4) 1.2886(3)
H13 H 0.8065 -0.6569 1.3418
C28 C 0.7944(5) -0.7291(4) 1.2610(4)
H14 H 0.8289 -0.7995 1.2953
C29 C 0.7580(5) -0.7129(4) 1.1849(3)
H15 H 0.7664 -0.7722 1.1671
C30 C 0.7092(4) -0.6115(4) 1.1336(3)
C31 C 0.6959(4) -0.5258(3) 1.1620(3)
H16 H 0.6615 -0.4554 1.1277
C32 C 0.6698(4) -0.5954(4) 1.0549(3)
C33 C 0.6356(4) -0.5831(4) 0.9885(3)
C34 C 0.5976(4) -0.5699(4) 0.9093(3)
C35 C 0.5921(4) -0.6565(4) 0.8907(3)
H17 H 0.6114 -0.7233 0.9312
C36 C 0.5590(4) -0.6463(4) 0.8144(3)
H18 H 0.5562 -0.7060 0.8023
C37 C 0.5297(4) -0.5490(4) 0.7551(3)
H19 H 0.5079 -0.5423 0.7022
C38 C 0.5322(4) -0.4606(4) 0.7733(3)
C39 C 0.5670(4) -0.4730(4) 0.8501(3)
H20 H 0.5698 -0.4135 0.8624
C40 C 0.4965(4) -0.3584(4) 0.7141(3)
C41 C 0.4657(4) -0.2713(4) 0.6675(3)
C42 C 0.4306(4) -0.1651(4) 0.6124(3)
C43 C 0.4236(4) -0.1481(4) 0.5300(3)
H21 H 0.4426 -0.2069 0.5097
C44 C 0.3891(5) -0.0464(4) 0.4775(3)
H22 H 0.3837 -0.0355 0.4213
C45 C 0.3623(4) 0.0404(4) 0.5061(3)
H23 H 0.3372 0.1104 0.4699
C46 C 0.3726(3) 0.0239(3) 0.5883(3)
C47 C 0.4062(3) -0.0783(3) 0.6415(3)
H24 H 0.4127 -0.0891 0.6977
C48 C 0.3496(3) 0.1147(3) 0.6202(2)
O9 O 0.1854(2) 0.4376(2) 0.48462(17)
N1 N 0.1263(5) 0.3709(8) 0.4050(5)
C49 C 0.1960(6) 0.3970(8) 0.4320(5)
C50 C 0.2939(6) 0.3624(10) 0.3897(6)
H25 H 0.3172 0.4219 0.3671
H26 H 0.3506 0.3028 0.4272
C51 C 0.2643(7) 0.3278(9) 0.3235(6)
H27 H 0.3161 0.2575 0.3237
H28 H 0.2603 0.3798 0.2704
C52 C 0.1591(7) 0.3221(9) 0.3409(6)
H29 H 0.1093 0.3618 0.2926
H30 H 0.1645 0.2475 0.3586
C53 C 0.0262(6) 0.3872(11) 0.4394(7)
H31 H 0.0223 0.4197 0.4822
H32 H 0.0191 0.3187 0.4617
H33 H -0.0301 0.4341 0.3974
Mo1A Mo 0.71725(3) -0.33597(3) 1.38091(2)
Mo2A Mo 0.64896(3) -0.22937(3) 1.26666(2)
O1A O 0.5727(2) -0.3387(2) 1.41915(16)
O2A O 0.4995(2) -0.2238(2) 1.29948(15)
O3A O 0.1344(2) 0.3404(2) 0.65201(16)
O4A O 0.2066(2) 0.2299(2) 0.77303(16)
O5A O 0.2564(2) 0.4681(2) 0.65843(15)
O6A O 0.3293(2) 0.3563(2) 0.77884(15)
O7A O 0.6940(2) -0.2092(2) 1.42796(16)
O8A O 0.6257(2) -0.0970(2) 1.30651(16)
C1A C 0.4930(3) -0.2810(3) 1.3695(2)
C2A C 0.3889(3) -0.2792(3) 1.3938(2)
C3A C 0.3809(4) -0.3535(4) 1.4652(3)
H1A H 0.4419 -0.4058 1.4971
C4A C 0.2841(4) -0.3499(4) 1.4884(3)
H2A H 0.2788 -0.4008 1.5361
C5A C 0.1948(4) -0.2735(4) 1.4435(3)
H3A H 0.1286 -0.2714 1.4606
C6A C 0.2016(4) -0.1981(4) 1.3720(3)
C7A C 0.2998(3) -0.2033(3) 1.3478(3)
H4A H 0.3055 -0.1542 1.2992
C8A C 0.1088(4) -0.1236(4) 1.3219(3)
C9A C 0.0325(4) -0.0688(4) 1.2768(3)
C10A C -0.0540(4) -0.0142(3) 1.2173(3)
C11A C -0.1510(4) -0.0208(3) 1.2345(3)
H5A H -0.1617 -0.0553 1.2877
C12A C -0.2303(4) 0.0223(3) 1.1752(3)
H6A H -0.2956 0.0170 1.1874
C13A C -0.2159(4) 0.0732(3) 1.0980(3)
H7A H -0.2710 0.1015 1.0571
C14A C -0.1208(4) 0.0838(3) 1.0790(3)
C15A C -0.0401(4) 0.0388(4) 1.1396(3)
H8A H 0.0251 0.0444 1.1277
C16A C -0.1072(4) 0.1388(4) 0.9981(3)
C17A C -0.0965(4) 0.1847(4) 0.9317(3)
C18A C -0.0848(4) 0.2421(4) 0.8505(3)
C19A C -0.1722(4) 0.3035(4) 0.7964(3)
H9A H -0.2392 0.3073 0.8127
C20A C -0.1615(4) 0.3589(4) 0.7189(3)
H10A H -0.2212 0.4006 0.6821
C21A C -0.0643(4) 0.3536(3) 0.6949(3)
H11A H -0.0572 0.3912 0.6416
C22A C 0.0230(4) 0.2934(3) 0.7488(2)
C23A C 0.0133(4) 0.2365(3) 0.8263(3)
H12A H 0.0733 0.1939 0.8626
C24A C 0.1271(3) 0.2868(3) 0.7231(2)
C25A C 0.2849(3) 0.4507(3) 0.7311(2)
C26A C 0.2680(3) 0.5422(3) 0.7615(2)
C27A C 0.2185(4) 0.6449(4) 0.7114(3)
H13A H 0.1935 0.6569 0.6582
C28A C 0.2056(5) 0.7291(4) 0.7390(4)
H14A H 0.1711 0.7995 0.7047
C29A C 0.2420(5) 0.7129(4) 0.8151(3)
H15A H 0.2336 0.7722 0.8329
C30A C 0.2908(4) 0.6115(4) 0.8664(3)
C31A C 0.3041(4) 0.5258(3) 0.8380(3)
H16A H 0.3385 0.4554 0.8723
C32A C 0.3302(4) 0.5954(4) 0.9451(3)
C33A C 0.3644(4) 0.5831(4) 1.0115(3)
C34A C 0.4024(4) 0.5699(4) 1.0907(3)
C35A C 0.4079(4) 0.6565(4) 1.1093(3)
H17A H 0.3886 0.7233 1.0688
C36A C 0.4410(4) 0.6463(4) 1.1856(3)
H18A H 0.4438 0.7060 1.1977
C37A C 0.4703(4) 0.5490(4) 1.2449(3)
H19A H 0.4921 0.5423 1.2978
C38A C 0.4678(4) 0.4606(4) 1.2267(3)
C39A C 0.4330(4) 0.4730(4) 1.1499(3)
H20A H 0.4302 0.4135 1.1376
C40A C 0.5035(4) 0.3584(4) 1.2859(3)
C41A C 0.5343(4) 0.2713(4) 1.3325(3)
C42A C 0.5694(4) 0.1651(4) 1.3876(3)
C43A C 0.5764(4) 0.1481(4) 1.4700(3)
H21A H 0.5574 0.2069 1.4903
C44A C 0.6109(5) 0.0464(4) 1.5225(3)
H22A H 0.6163 0.0355 1.5787
C45A C 0.6377(4) -0.0404(4) 1.4939(3)
H23A H 0.6628 -0.1104 1.5301
C46A C 0.6274(3) -0.0239(3) 1.4117(3)
C47A C 0.5938(3) 0.0783(3) 1.3585(3)
H24A H 0.5873 0.0891 1.3023
C48A C 0.6504(3) -0.1147(3) 1.3798(2)
O9A O 0.8146(2) -0.4376(2) 1.51538(17)
N1A N 0.8737(5) -0.3709(8) 1.5950(5)
C49A C 0.8040(6) -0.3970(8) 1.5680(5)
C50A C 0.7061(6) -0.3624(10) 1.6103(6)
H25A H 0.6828 -0.4219 1.6329
H26A H 0.6494 -0.3028 1.5728
C51A C 0.7357(7) -0.3278(9) 1.6765(6)
H27A H 0.6839 -0.2575 1.6763
H28A H 0.7397 -0.3798 1.7296
C52A C 0.8409(7) -0.3221(9) 1.6591(6)
H29A H 0.8907 -0.3618 1.7074
H30A H 0.8355 -0.2475 1.6414
C53A C 0.9738(6) -0.3872(11) 1.5606(7)
H31A H 0.9777 -0.4197 1.5178
H32A H 0.9809 -0.3187 1.5383
H33A H 1.0301 -0.4341 1.6026
O10 O 0.4836(5) 0.0744(5) 0.8518(4)
N3 N 0.6455(5) -0.0182(7) 0.8282(5)
C59 C 0.5763(5) 0.0429(8) 0.8638(5)
C60 C 0.6338(6) 0.0565(9) 0.9286(5)
H43 H 0.6062 0.1315 0.9284
H44 H 0.6275 0.0113 0.9822
C61 C 0.7457(7) 0.0225(8) 0.9079(6)
H45 H 0.7633 0.0852 0.8821
H46 H 0.7934 -0.0218 0.9568
C62 C 0.7536(6) -0.0406(8) 0.8506(6)
H47 H 0.7892 -0.0171 0.8028
H48 H 0.7920 -0.1174 0.8771
C63 C 0.6222(9) -0.0554(9) 0.7645(6)
H49 H 0.5468 -0.0348 0.7569
H50 H 0.6566 -0.1329 0.7795
H51 H 0.6475 -0.0234 0.7144
loop_
_geom_bond_atom_site_label_1
_geom_bond_atom_site_label_2
_geom_bond_site_symmetry_1
_geom_bond_site_symmetry_2
Mo1 Mo2 1_555 1_555
Mo2 O2 1_555 1_555
O1 Mo1 1_555 1_555
O2 C1 1_555 1_555
O3 C24 1_555 1_555
O4 C24 1_555 1_555
O5 C25 1_555 1_555
O6 C25 1_555 1_555
O7 Mo1 1_555 1_555
O8 Mo2 1_555 1_555
C1 O1 1_555 1_555
C2 C1 1_555 1_555
C3 C2 1_555 1_555
H1 C3 1_555 1_555
C4 C3 1_555 1_555
H2 C4 1_555 1_555
C5 C4 1_555 1_555
H3 C5 1_555 1_555
C6 C5 1_555 1_555
C7 C2 1_555 1_555
H4 C7 1_555 1_555
C8 C6 1_555 1_555
C9 C8 1_555 1_555
C10 C9 1_555 1_555
C11 C10 1_555 1_555
H5 C11 1_555 1_555
C12 C11 1_555 1_555
H6 C12 1_555 1_555
C13 C12 1_555 1_555
H7 C13 1_555 1_555
C14 C13 1_555 1_555
C15 C10 1_555 1_555
H8 C15 1_555 1_555
C16 C14 1_555 1_555
C17 C16 1_555 1_555
C18 C17 1_555 1_555
C19 C18 1_555 1_555
H9 C19 1_555 1_555
C20 C19 1_555 1_555
H10 C20 1_555 1_555
C21 C20 1_555 1_555
H11 C21 1_555 1_555
C22 C21 1_555 1_555
C23 C18 1_555 1_555
H12 C23 1_555 1_555
C24 C22 1_555 1_555
C25 C26 1_555 1_555
C26 C27 1_555 1_555
C27 H13 1_555 1_555
C28 C27 1_555 1_555
H14 C28 1_555 1_555
C29 C28 1_555 1_555
H15 C29 1_555 1_555
C30 C29 1_555 1_555
C31 C26 1_555 1_555
H16 C31 1_555 1_555
C32 C30 1_555 1_555
C33 C32 1_555 1_555
C34 C33 1_555 1_555
C35 C34 1_555 1_555
H17 C35 1_555 1_555
C36 C35 1_555 1_555
H18 C36 1_555 1_555
C37 C36 1_555 1_555
H19 C37 1_555 1_555
C38 C37 1_555 1_555
C39 C34 1_555 1_555
H20 C39 1_555 1_555
C40 C38 1_555 1_555
C41 C40 1_555 1_555
C42 C41 1_555 1_555
C43 C42 1_555 1_555
H21 C43 1_555 1_555
C44 C43 1_555 1_555
H22 C44 1_555 1_555
C45 C44 1_555 1_555
H23 C45 1_555 1_555
C46 C45 1_555 1_555
C47 C42 1_555 1_555
H24 C47 1_555 1_555
C48 O7 1_555 1_555
O9 Mo1 1_555 1_555
N1 C49 1_555 1_555
C49 O9 1_555 1_555
C50 C49 1_555 1_555
H25 C50 1_555 1_555
H26 C50 1_555 1_555
C51 C50 1_555 1_555
H27 C51 1_555 1_555
H28 C51 1_555 1_555
C52 N1 1_555 1_555
H29 C52 1_555 1_555
H30 C52 1_555 1_555
C53 N1 1_555 1_555
H31 C53 1_555 1_555
H32 C53 1_555 1_555
H33 C53 1_555 1_555
O10 C59 1_555 1_555
N3 C59 1_555 1_555
C59 C60 1_555 1_555
C60 H43 1_555 1_555
H44 C60 1_555 1_555
C61 C60 1_555 1_555
H45 C61 1_555 1_555
H46 C61 1_555 1_555
C62 N3 1_555 1_555
H47 C62 1_555 1_555
H48 C62 1_555 1_555
C63 N3 1_555 1_555
H49 C63 1_555 1_555
H50 C63 1_555 1_555
H51 C63 1_555 1_555
Mo1A O3 1_555 1_555
Mo2A O4 1_555 1_555
O1A Mo1A 1_555 1_555
O2A Mo2A 1_555 1_555
O3A Mo1 1_555 1_555
O4A Mo2 1_555 1_555
O5A Mo1 1_555 1_555
O6A Mo2 1_555 1_555
O7A Mo1A 1_555 1_555
O8A Mo2A 1_555 1_555
C1A O1A 1_555 1_555
C2A C1A 1_555 1_555
C3A C2A 1_555 1_555
H1A C3A 1_555 1_555
C4A C3A 1_555 1_555
H2A C4A 1_555 1_555
C5A C4A 1_555 1_555
H3A C5A 1_555 1_555
C6A C5A 1_555 1_555
C7A C2A 1_555 1_555
H4A C7A 1_555 1_555
C8A C6A 1_555 1_555
C9A C8A 1_555 1_555
C10A C9A 1_555 1_555
C11A C10A 1_555 1_555
H5A C11A 1_555 1_555
C12A C11A 1_555 1_555
H6A C12A 1_555 1_555
C13A C12A 1_555 1_555
H7A C13A 1_555 1_555
C14A C13A 1_555 1_555
C15A C10A 1_555 1_555
H8A C15A 1_555 1_555
C16A C14A 1_555 1_555
C17A C16A 1_555 1_555
C18A C17A 1_555 1_555
C19A C18A 1_555 1_555
H9A C19A 1_555 1_555
C20A C19A 1_555 1_555
H10A C20A 1_555 1_555
C21A C20A 1_555 1_555
H11A C21A 1_555 1_555
C22A C21A 1_555 1_555
C23A C18A 1_555 1_555
H12A C23A 1_555 1_555
C24A O3A 1_555 1_555
C25A O5A 1_555 1_555
C26A C25A 1_555 1_555
C27A C26A 1_555 1_555
H13A C27A 1_555 1_555
C28A C27A 1_555 1_555
H14A C28A 1_555 1_555
C29A C28A 1_555 1_555
H15A C29A 1_555 1_555
C30A C29A 1_555 1_555
C31A C26A 1_555 1_555
H16A C31A 1_555 1_555
C32A C30A 1_555 1_555
C33A C32A 1_555 1_555
C34A C33A 1_555 1_555
C35A C34A 1_555 1_555
H17A C35A 1_555 1_555
C36A C35A 1_555 1_555
H18A C36A 1_555 1_555
C37A C36A 1_555 1_555
H19A C37A 1_555 1_555
C38A C37A 1_555 1_555
C39A C34A 1_555 1_555
H20A C39A 1_555 1_555
C40A C38A 1_555 1_555
C41A C40A 1_555 1_555
C42A C41A 1_555 1_555
C43A C42A 1_555 1_555
H21A C43A 1_555 1_555
C44A C43A 1_555 1_555
H22A C44A 1_555 1_555
C45A C44A 1_555 1_555
H23A C45A 1_555 1_555
C46A C45A 1_555 1_555
C47A C42A 1_555 1_555
H24A C47A 1_555 1_555
C48A O7A 1_555 1_555
O9A Mo1A 1_555 1_555
N1A C49A 1_555 1_555
C49A O9A 1_555 1_555
C50A C49A 1_555 1_555
H25A C50A 1_555 1_555
H26A C50A 1_555 1_555
C51A C50A 1_555 1_555
H27A C51A 1_555 1_555
H28A C51A 1_555 1_555
C52A N1A 1_555 1_555
H29A C52A 1_555 1_555
H30A C52A 1_555 1_555
C53A N1A 1_555 1_555
H31A C53A 1_555 1_555
H32A C53A 1_555 1_555
H33A C53A 1_555 1_555
O5 Mo1A 1_555 1_555
O6 Mo2A 1_555 1_555
O8 C48 1_555 1_555
C6 C7 1_555 1_555
C14 C15 1_555 1_555
C22 C23 1_555 1_555
C30 C31 1_555 1_555
C38 C39 1_555 1_555
C46 C47 1_555 1_555
C46 C48 1_555 1_555
C51 C52 1_555 1_555
C61 C62 1_555 1_555
Mo1A Mo2A 1_555 1_555
O2A C1A 1_555 1_555
O4A C24A 1_555 1_555
O6A C25A 1_555 1_555
O8A C48A 1_555 1_555
C6A C7A 1_555 1_555
C14A C15A 1_555 1_555
C22A C23A 1_555 1_555
C22A C24A 1_555 1_555
C30A C31A 1_555 1_555
C38A C39A 1_555 1_555
C46A C47A 1_555 1_555
C46A C48A 1_555 1_555
C51A C52A 1_555 1_555

#END
