
#######################################################################
#
#                 Cambridge Crystallographic Data Centre
#                                CCDC 
#
#######################################################################
#
# If this CIF has been generated from an entry in the Cambridge 
# Structural Database, then it will include bibliographic, chemical, 
# crystal, experimental, refinement or atomic coordinate data resulting 
# from the CCDC's data processing and validation procedures.
#
#######################################################################

data_XUQJEA
_chemical_formula_moiety         'C76 H44 Mo4 N4 O16'
_chemical_name_systematic        
"tetrakis(\m~4~-3,3'-Pyridine-2,6-diyldibenzoato)-tetra-molybdenum unknown solvate"
_symmetry_cell_setting           tetragonal
_symmetry_space_group_name_H-M   'I 4/m'
_symmetry_Int_Tables_number      87
_space_group_name_Hall           '-I 4'
loop_
_symmetry_equiv_pos_site_id
_symmetry_equiv_pos_as_xyz
1 x,y,z
2 -x,-y,z
3 -y,x,z
4 y,-x,z
5 1/2+x,1/2+y,1/2+z
6 1/2-x,1/2-y,1/2+z
7 1/2-y,1/2+x,1/2+z
8 1/2+y,1/2-x,1/2+z
9 -x,-y,-z
10 x,y,-z
11 y,-x,-z
12 -y,x,-z
13 1/2-x,1/2-y,1/2-z
14 1/2+x,1/2+y,1/2-z
15 1/2+y,1/2-x,1/2-z
16 1/2-y,1/2+x,1/2-z
_cell_length_a                   12.3235(7)
_cell_length_b                   12.3235(7)
_cell_length_c                   24.440(4)
_cell_angle_alpha                90
_cell_angle_beta                 90
_cell_angle_gamma                90
_cell_volume                     3711.67
_exptl_crystal_colour            orange
_exptl_crystal_description       Needle
_cell_formula_units_Z            2
loop_
_atom_site_label
_atom_site_type_symbol
_atom_site_fract_x
_atom_site_fract_y
_atom_site_fract_z
Mo1 Mo 0.0000 0.0000 0.18502(8)
Mo2 Mo 0.0000 0.0000 0.09900(8)
N1 N 0.4892(7) 0.1785(6) 0.0000
O1 O 0.1522(9) 0.0752(9) 0.1926(4)
O2 O 0.1563(9) 0.0713(9) 0.1007(4)
C1 C 0.1976(13) 0.0938(16) 0.1448(10)
C2 C 0.3099(6) 0.1449(10) 0.1437(4)
C3 C 0.3517(7) 0.1883(9) 0.1918(3)
H1 H 0.3075 0.1914 0.2241
C4 C 0.4575(8) 0.2274(9) 0.1931(3)
H2 H 0.4864 0.2574 0.2262
C5 C 0.5214(6) 0.2230(8) 0.1463(3)
H3 H 0.5945 0.2499 0.1471
C6 C 0.4796(7) 0.1795(5) 0.0982(2)
C7 C 0.3738(8) 0.1405(8) 0.0969(3)
H4 H 0.3449 0.1105 0.0638
C8 C 0.5445(7) 0.1731(6) 0.04733(2)
C9 C 0.6557(7) 0.1620(11) 0.04853(2)
H5 H 0.6935 0.1580 0.0828
C10 C 0.7118(7) 0.1564(15) 0.0000
H6 H 0.7893 0.1486 0.0000
O1I O 0.1522(9) 0.0752(9) -0.1926(4)
O2I O 0.1563(9) 0.0713(9) -0.1007(4)
C1I C 0.1976(13) 0.0938(16) -0.1448(10)
C2I C 0.3099(6) 0.1449(10) -0.1437(4)
C3I C 0.3517(7) 0.1883(9) -0.1918(3)
H1I H 0.3075 0.1914 -0.2241
C4I C 0.4575(8) 0.2274(9) -0.1931(3)
H2I H 0.4864 0.2574 -0.2262
C5I C 0.5214(6) 0.2230(8) -0.1463(3)
H3I H 0.5945 0.2499 -0.1471
C6I C 0.4796(7) 0.1795(5) -0.0982(2)
C7I C 0.3738(8) 0.1405(8) -0.0969(3)
H4I H 0.3449 0.1105 -0.0638
C8I C 0.5445(7) 0.1731(6) -0.04733(2)
C9I C 0.6557(7) 0.1620(11) -0.04853(2)
H5I H 0.6935 0.1580 -0.0828
N1A N -0.4892(7) -0.1785(6) 0.0000
O1A O -0.1522(9) -0.0752(9) 0.1926(4)
O2A O -0.1563(9) -0.0713(9) 0.1007(4)
C1A C -0.1976(13) -0.0938(16) 0.1448(10)
C2A C -0.3099(6) -0.1449(10) 0.1437(4)
C3A C -0.3517(7) -0.1883(9) 0.1918(3)
H1A H -0.3075 -0.1914 0.2241
C4A C -0.4575(8) -0.2274(9) 0.1931(3)
H2A H -0.4864 -0.2574 0.2262
C5A C -0.5214(6) -0.2230(8) 0.1463(3)
H3A H -0.5945 -0.2499 0.1471
C6A C -0.4796(7) -0.1795(5) 0.0982(2)
C7A C -0.3738(8) -0.1405(8) 0.0969(3)
H4A H -0.3449 -0.1105 0.0638
C8A C -0.5445(7) -0.1731(6) 0.04733(2)
C9A C -0.6557(7) -0.1620(11) 0.04853(2)
H5A H -0.6935 -0.1580 0.0828
C10A C -0.7118(7) -0.1564(15) 0.0000
H6A H -0.7893 -0.1486 0.0000
O1H O -0.1522(9) -0.0752(9) -0.1926(4)
O2H O -0.1563(9) -0.0713(9) -0.1007(4)
C1H C -0.1976(13) -0.0938(16) -0.1448(10)
C2H C -0.3099(6) -0.1449(10) -0.1437(4)
C3H C -0.3517(7) -0.1883(9) -0.1918(3)
H1H H -0.3075 -0.1914 -0.2241
C4H C -0.4575(8) -0.2274(9) -0.1931(3)
H2H H -0.4864 -0.2574 -0.2262
C5H C -0.5214(6) -0.2230(8) -0.1463(3)
H3H H -0.5945 -0.2499 -0.1471
C6H C -0.4796(7) -0.1795(5) -0.0982(2)
C7H C -0.3738(8) -0.1405(8) -0.0969(3)
H4H H -0.3449 -0.1105 -0.0638
C8H C -0.5445(7) -0.1731(6) -0.04733(2)
C9H C -0.6557(7) -0.1620(11) -0.04853(2)
H5H H -0.6935 -0.1580 -0.0828
N1B N -0.1785(6) 0.4892(7) 0.0000
O1B O -0.0752(9) 0.1522(9) 0.1926(4)
O2B O -0.0713(9) 0.1563(9) 0.1007(4)
C1B C -0.0938(16) 0.1976(13) 0.1448(10)
C2B C -0.1449(10) 0.3099(6) 0.1437(4)
C3B C -0.1883(9) 0.3517(7) 0.1918(3)
H1B H -0.1914 0.3075 0.2241
C4B C -0.2274(9) 0.4575(8) 0.1931(3)
H2B H -0.2574 0.4864 0.2262
C5B C -0.2230(8) 0.5214(6) 0.1463(3)
H3B H -0.2499 0.5945 0.1471
C6B C -0.1795(5) 0.4796(7) 0.0982(2)
C7B C -0.1405(8) 0.3738(8) 0.0969(3)
H4B H -0.1105 0.3449 0.0638
C8B C -0.1731(6) 0.5445(7) 0.04733(2)
C9B C -0.1620(11) 0.6557(7) 0.04853(2)
H5B H -0.1580 0.6935 0.0828
C10B C -0.1564(15) 0.7118(7) 0.0000
H6B H -0.1486 0.7893 0.0000
O1K O -0.0752(9) 0.1522(9) -0.1926(4)
O2K O -0.0713(9) 0.1563(9) -0.1007(4)
C1K C -0.0938(16) 0.1976(13) -0.1448(10)
C2K C -0.1449(10) 0.3099(6) -0.1437(4)
C3K C -0.1883(9) 0.3517(7) -0.1918(3)
H1K H -0.1914 0.3075 -0.2241
C4K C -0.2274(9) 0.4575(8) -0.1931(3)
H2K H -0.2574 0.4864 -0.2262
C5K C -0.2230(8) 0.5214(6) -0.1463(3)
H3K H -0.2499 0.5945 -0.1471
C6K C -0.1795(5) 0.4796(7) -0.0982(2)
C7K C -0.1405(8) 0.3738(8) -0.0969(3)
H4K H -0.1105 0.3449 -0.0638
C8K C -0.1731(6) 0.5445(7) -0.04733(2)
C9K C -0.1620(11) 0.6557(7) -0.04853(2)
H5K H -0.1580 0.6935 -0.0828
N1C N 0.1785(6) -0.4892(7) 0.0000
O1C O 0.0752(9) -0.1522(9) 0.1926(4)
O2C O 0.0713(9) -0.1563(9) 0.1007(4)
C1C C 0.0938(16) -0.1976(13) 0.1448(10)
C2C C 0.1449(10) -0.3099(6) 0.1437(4)
C3C C 0.1883(9) -0.3517(7) 0.1918(3)
H1C H 0.1914 -0.3075 0.2241
C4C C 0.2274(9) -0.4575(8) 0.1931(3)
H2C H 0.2574 -0.4864 0.2262
C5C C 0.2230(8) -0.5214(6) 0.1463(3)
H3C H 0.2499 -0.5945 0.1471
C6C C 0.1795(5) -0.4796(7) 0.0982(2)
C7C C 0.1405(8) -0.3738(8) 0.0969(3)
H4C H 0.1105 -0.3449 0.0638
C8C C 0.1731(6) -0.5445(7) 0.04733(2)
C9C C 0.1620(11) -0.6557(7) 0.04853(2)
H5C H 0.1580 -0.6935 0.0828
C10C C 0.1564(15) -0.7118(7) 0.0000
H6C H 0.1486 -0.7893 0.0000
O1J O 0.0752(9) -0.1522(9) -0.1926(4)
O2J O 0.0713(9) -0.1563(9) -0.1007(4)
C1J C 0.0938(16) -0.1976(13) -0.1448(10)
C2J C 0.1449(10) -0.3099(6) -0.1437(4)
C3J C 0.1883(9) -0.3517(7) -0.1918(3)
H1J H 0.1914 -0.3075 -0.2241
C4J C 0.2274(9) -0.4575(8) -0.1931(3)
H2J H 0.2574 -0.4864 -0.2262
C5J C 0.2230(8) -0.5214(6) -0.1463(3)
H3J H 0.2499 -0.5945 -0.1471
C6J C 0.1795(5) -0.4796(7) -0.0982(2)
C7J C 0.1405(8) -0.3738(8) -0.0969(3)
H4J H 0.1105 -0.3449 -0.0638
C8J C 0.1731(6) -0.5445(7) -0.04733(2)
C9J C 0.1620(11) -0.6557(7) -0.04853(2)
H5J H 0.1580 -0.6935 -0.0828
Mo1H Mo 0.0000 0.0000 -0.18502(8)
Mo2H Mo 0.0000 0.0000 -0.09900(8)
N2? N 0.5258(8) 0.1143(10) 0.0000
O3? O 0.1617(13) 0.0329(14) 0.1733(5)
O4? O 0.1626(15) 0.0381(19) 0.0834(5)
C11? C 0.2130(8) 0.0436(10) 0.1286(6)
C12? C 0.3361(7) 0.0630(8) 0.1352(4)
C13? C 0.3842(9) 0.0535(12) 0.1864(3)
H7? H 0.3409 0.0349 0.2177
C14? C 0.4950(9) 0.0709(15) 0.1923(2)
H8? H 0.5283 0.0644 0.2277
C15? C 0.5578(8) 0.0979(13) 0.14705(12)
H9? H 0.6343 0.1099 0.1512
C16? C 0.5097(7) 0.1074(9) 0.09584(12)
C17? C 0.3988(7) 0.0899(8) 0.0899(3)
H10? H 0.3656 0.0965 0.0545
C18? C 0.5769(8) 0.1362(12) 0.04732(2)
C19? C 0.6796(10) 0.1803(19) 0.04853(2)
H11? H 0.7143 0.1957 0.0828
C20? C 0.7314(11) 0.203(2) 0.0000
H12? H 0.8020 0.2354 0.0000
O5? O 0.0000 0.0000 0.28323(9)
loop_
_geom_bond_atom_site_label_1
_geom_bond_atom_site_label_2
_geom_bond_site_symmetry_1
_geom_bond_site_symmetry_2
Mo1 Mo2 1_555 1_555
Mo2 O2 1_555 1_555
N1 C8 1_555 1_555
O1 Mo1 1_555 1_555
O2 C1 1_555 1_555
C1 O1 1_555 1_555
C2 C1 1_555 1_555
C3 C2 1_555 1_555
H1 C3 1_555 1_555
C4 C3 1_555 1_555
H2 C4 1_555 1_555
C5 C4 1_555 1_555
H3 C5 1_555 1_555
C6 C5 1_555 1_555
C7 C2 1_555 1_555
H4 C7 1_555 1_555
C8 C6 1_555 1_555
C9 C8 1_555 1_555
H5 C9 1_555 1_555
C10 C9 1_555 1_555
H6 C10 1_555 1_555
O1I C1I 1_555 1_555
O2I C1I 1_555 1_555
C1I C2I 1_555 1_555
C2I C3I 1_555 1_555
C3I H1I 1_555 1_555
C4I C3I 1_555 1_555
H2I C4I 1_555 1_555
C5I C4I 1_555 1_555
H3I C5I 1_555 1_555
C6I C5I 1_555 1_555
C7I C2I 1_555 1_555
H4I C7I 1_555 1_555
C8I N1 1_555 1_555
C9I C10 1_555 1_555
H5I C9I 1_555 1_555
N1A C8A 1_555 1_555
O1A Mo1 1_555 1_555
O2A Mo2 1_555 1_555
C1A O1A 1_555 1_555
C2A C1A 1_555 1_555
C3A C2A 1_555 1_555
H1A C3A 1_555 1_555
C4A C3A 1_555 1_555
H2A C4A 1_555 1_555
C5A C4A 1_555 1_555
H3A C5A 1_555 1_555
C6A C5A 1_555 1_555
C7A C2A 1_555 1_555
H4A C7A 1_555 1_555
C8A C6A 1_555 1_555
C9A C8A 1_555 1_555
H5A C9A 1_555 1_555
C10A C9A 1_555 1_555
H6A C10A 1_555 1_555
O1H C1H 1_555 1_555
O2H C1H 1_555 1_555
C1H C2H 1_555 1_555
C2H C3H 1_555 1_555
C3H H1H 1_555 1_555
C4H C3H 1_555 1_555
H2H C4H 1_555 1_555
C5H C4H 1_555 1_555
H3H C5H 1_555 1_555
C6H C5H 1_555 1_555
C7H C2H 1_555 1_555
H4H C7H 1_555 1_555
C8H N1A 1_555 1_555
C9H C10A 1_555 1_555
H5H C9H 1_555 1_555
N1B C8B 1_555 1_555
O1B Mo1 1_555 1_555
O2B Mo2 1_555 1_555
C1B O1B 1_555 1_555
C2B C1B 1_555 1_555
C3B C2B 1_555 1_555
H1B C3B 1_555 1_555
C4B C3B 1_555 1_555
H2B C4B 1_555 1_555
C5B C4B 1_555 1_555
H3B C5B 1_555 1_555
C6B C5B 1_555 1_555
C7B C2B 1_555 1_555
H4B C7B 1_555 1_555
C8B C6B 1_555 1_555
C9B C8B 1_555 1_555
H5B C9B 1_555 1_555
C10B C9B 1_555 1_555
H6B C10B 1_555 1_555
O1K C1K 1_555 1_555
O2K C1K 1_555 1_555
C1K C2K 1_555 1_555
C2K C3K 1_555 1_555
C3K H1K 1_555 1_555
C4K C3K 1_555 1_555
H2K C4K 1_555 1_555
C5K C4K 1_555 1_555
H3K C5K 1_555 1_555
C6K C5K 1_555 1_555
C7K C2K 1_555 1_555
H4K C7K 1_555 1_555
C8K N1B 1_555 1_555
C9K C10B 1_555 1_555
H5K C9K 1_555 1_555
N1C C8C 1_555 1_555
O1C Mo1 1_555 1_555
O2C Mo2 1_555 1_555
C1C O1C 1_555 1_555
C2C C1C 1_555 1_555
C3C C2C 1_555 1_555
H1C C3C 1_555 1_555
C4C C3C 1_555 1_555
H2C C4C 1_555 1_555
C5C C4C 1_555 1_555
H3C C5C 1_555 1_555
C6C C5C 1_555 1_555
C7C C2C 1_555 1_555
H4C C7C 1_555 1_555
C8C C6C 1_555 1_555
C9C C8C 1_555 1_555
H5C C9C 1_555 1_555
C10C C9C 1_555 1_555
H6C C10C 1_555 1_555
O1J C1J 1_555 1_555
O2J C1J 1_555 1_555
C1J C2J 1_555 1_555
C2J C3J 1_555 1_555
C3J H1J 1_555 1_555
C4J C3J 1_555 1_555
H2J C4J 1_555 1_555
C5J C4J 1_555 1_555
H3J C5J 1_555 1_555
C6J C5J 1_555 1_555
C7J C2J 1_555 1_555
H4J C7J 1_555 1_555
C8J N1C 1_555 1_555
C9J C10C 1_555 1_555
H5J C9J 1_555 1_555
Mo1H O1I 1_555 1_555
Mo2H O2I 1_555 1_555
C6 C7 1_555 1_555
C6I C7I 1_555 1_555
C6I C8I 1_555 1_555
C8I C9I 1_555 1_555
O2A C1A 1_555 1_555
C6A C7A 1_555 1_555
O1H Mo1H 1_555 1_555
O2H Mo2H 1_555 1_555
C6H C7H 1_555 1_555
C6H C8H 1_555 1_555
C8H C9H 1_555 1_555
O2B C1B 1_555 1_555
C6B C7B 1_555 1_555
O1K Mo1H 1_555 1_555
O2K Mo2H 1_555 1_555
C6K C7K 1_555 1_555
C6K C8K 1_555 1_555
C8K C9K 1_555 1_555
O2C C1C 1_555 1_555
C6C C7C 1_555 1_555
O1J Mo1H 1_555 1_555
O2J Mo2H 1_555 1_555
C6J C7J 1_555 1_555
C6J C8J 1_555 1_555
C8J C9J 1_555 1_555
Mo1H Mo2H 1_555 1_555

#END
