
#######################################################################
#
#                 Cambridge Crystallographic Data Centre
#                                CCDC 
#
#######################################################################
#
# If this CIF has been generated from an entry in the Cambridge 
# Structural Database, then it will include bibliographic, chemical, 
# crystal, experimental, refinement or atomic coordinate data resulting 
# from the CCDC's data processing and validation procedures.
#
#######################################################################

data_XUQKOL
_chemical_formula_moiety         'C204 H156 Mo12 N24 O54'
_chemical_name_systematic        
'dodecakis(\m~4~-9H-Carbazole-3,6-dicarboxylato)-hexakis(1,3-dimethyltetrahydropyrimidin-2(1H)-one)-dodeca-molybdenum unknown solvate'
_symmetry_cell_setting           rhombohedral
_symmetry_space_group_name_H-M   'R -3'
_symmetry_Int_Tables_number      148
_space_group_name_Hall           '-R 3'
loop_
_symmetry_equiv_pos_site_id
_symmetry_equiv_pos_as_xyz
1 x,y,z
2 -y,x-y,z
3 -x+y,-x,z
4 2/3+x,1/3+y,1/3+z
5 2/3-y,1/3+x-y,1/3+z
6 2/3-x+y,1/3-x,1/3+z
7 1/3+x,2/3+y,2/3+z
8 1/3-y,2/3+x-y,2/3+z
9 1/3-x+y,2/3-x,2/3+z
10 -x,-y,-z
11 y,-x+y,-z
12 x-y,x,-z
13 1/3-x,2/3-y,2/3-z
14 1/3+y,2/3-x+y,2/3-z
15 1/3+x-y,2/3+x,2/3-z
16 2/3-x,1/3-y,1/3-z
17 2/3+y,1/3-x+y,1/3-z
18 2/3+x-y,1/3+x,1/3-z
_cell_length_a                   34.997(3)
_cell_length_b                   34.997(3)
_cell_length_c                   39.893(7)
_cell_angle_alpha                90
_cell_angle_beta                 90
_cell_angle_gamma                120
_cell_volume                     42314.5
_exptl_crystal_colour            'dark red'
_exptl_crystal_description       block
_cell_formula_units_Z            3
loop_
_atom_site_label
_atom_site_type_symbol
_atom_site_fract_x
_atom_site_fract_y
_atom_site_fract_z
Mo1 Mo 0.237568(12) 0.032992(12) 0.138176(10)
Mo2 Mo 0.185114(11) 0.025304(12) 0.107692(10)
O1 O 0.28326(7) 0.08569(8) 0.10803(6)
O2 O 0.22811(7) 0.07711(8) 0.07638(6)
O3 O 0.25836(8) 0.24595(8) -0.10875(6)
O4 O 0.21097(8) 0.19092(8) -0.07690(6)
O5 O 0.19374(8) -0.01967(9) 0.16917(6)
O6 O 0.13901(8) -0.02704(8) 0.13726(6)
O7 O -0.15284(8) -0.23089(8) 0.16902(6)
O8 O -0.10569(8) -0.17566(8) 0.13710(6)
N1 N 0.38449(13) 0.23231(15) -0.00106(12)
H1 H 0.4134 0.2494 -0.0012
N2 N 0.02875(13) -0.17767(14) 0.23950(11)
H2 H 0.0308 -0.1913 0.2574
C1 C 0.26866(13) 0.09593(15) 0.08322(11)
C2 C 0.30009(14) 0.13241(15) 0.06180(12)
C3 C 0.34534(15) 0.15309(17) 0.06913(13)
H3 H 0.3553 0.1434 0.0877
C4 C 0.37613(16) 0.18815(18) 0.04901(14)
H4 H 0.4067 0.2030 0.0542
C5 C 0.36065(16) 0.20019(18) 0.02166(14)
C6 C 0.31603(14) 0.17993(15) 0.01379(13)
C7 C 0.28585(14) 0.14613(15) 0.03397(12)
H5 H 0.2553 0.1322 0.0289
C8 C 0.31236(14) 0.20159(15) -0.01592(12)
C9 C 0.35579(16) 0.23353(18) -0.02379(15)
C10 C 0.36475(16) 0.26106(18) -0.05237(14)
H6 H 0.3940 0.2829 -0.0581
C11 C 0.33000(15) 0.25496(16) -0.07098(13)
H7 H 0.3356 0.2728 -0.0903
C12 C 0.28648(14) 0.22406(14) -0.06359(12)
C13 C 0.27819(14) 0.19697(14) -0.03589(12)
H8 H 0.2487 0.1751 -0.0307
C14 C 0.24998(14) 0.22037(14) -0.08432(11)
C15 C 0.15341(14) -0.03862(16) 0.16196(12)
C16 C 0.12124(17) -0.07588(18) 0.18317(14)
C17 C 0.13594(17) -0.08912(18) 0.21075(14)
H9 H 0.1666 -0.0740 0.2158
C18 C 0.10784(16) -0.12290(17) 0.23055(14)
H10 H 0.1183 -0.1320 0.2491
C19 C 0.06349(17) -0.14370(18) 0.22304(14)
C20 C 0.04758(16) -0.13115(18) 0.19592(14)
C21 C 0.07656(16) -0.09652(17) 0.17605(14)
H11 H 0.0661 -0.0869 0.1578
C22 C -0.00046(17) -0.15884(18) 0.19657(14)
C23 C -0.00982(17) -0.18708(18) 0.22370(14)
C24 C -0.05344(16) -0.22007(18) 0.23029(14)
H12 H -0.0598 -0.2402 0.2482
C25 C -0.08666(17) -0.22285(18) 0.21069(13)
H13 H -0.1164 -0.2440 0.2158
C26 C -0.07735(17) -0.19525(18) 0.18363(14)
C27 C -0.03445(16) -0.16296(18) 0.17630(14)
H14 H -0.0284 -0.1439 0.1576
C28 C -0.11400(14) -0.20132(14) 0.16169(12)
O9 O 0.29733(10) 0.04087(10) 0.17185(8)
N3 N 0.29977(18) 0.01679(12) 0.22417(10)
N4 N 0.33830(19) 0.09140(10) 0.21141(10)
C29 C 0.31161(11) 0.04959(9) 0.20203(8)
C30 C 0.3226(2) 0.02412(17) 0.25600(11)
H15 H 0.3492 0.0215 0.2530
H16 H 0.3030 0.0016 0.2724
C31 C 0.3353(3) 0.0690(2) 0.26865(9)
H17 H 0.3526 0.0749 0.2896
H18 H 0.3085 0.0707 0.2737
C32 C 0.3623(2) 0.10242(15) 0.24280(12)
H19 H 0.3688 0.1320 0.2503
H20 H 0.3906 0.1031 0.2397
C33 C 0.2745(3) -0.02919(10) 0.21252(16)
H21 H 0.2619 -0.0301 0.1904
H22 H 0.2507 -0.0465 0.2284
H23 H 0.2941 -0.0416 0.2110
C34 C 0.35140(15) 0.12713(9) 0.18692(12)
H24 H 0.3338 0.1154 0.1665
H25 H 0.3828 0.1398 0.1815
H26 H 0.3464 0.1501 0.1964
Mo1A Mo -0.032992(12) 0.204576(17) 0.138176(10)
Mo2A Mo -0.025304(12) 0.159810(16) 0.107692(10)
O1A O -0.08569(8) 0.19757(11) 0.10803(6)
O2A O -0.07711(8) 0.15100(11) 0.07638(6)
O3A O -0.24595(8) 0.01241(11) -0.10875(6)
O4A O -0.19092(8) 0.02005(11) -0.07690(6)
O5A O 0.01967(9) 0.21341(12) 0.16917(6)
O6A O 0.02704(8) 0.16605(11) 0.13726(6)
O7A O 0.23089(8) 0.07805(11) 0.16902(6)
O8A O 0.17566(8) 0.06997(11) 0.13710(6)
N1A N -0.23231(15) 0.15218(20) -0.00106(12)
H1A H -0.2494 0.1640 -0.0012
N2A N 0.17767(14) 0.20642(19) 0.23950(11)
H2A H 0.1913 0.2221 0.2574
C1A C -0.09593(15) 0.17273(20) 0.08322(11)
C2A C -0.13241(15) 0.16768(21) 0.06180(12)
C3A C -0.15309(17) 0.19225(23) 0.06913(13)
H3A H -0.1434 0.2119 0.0877
C4A C -0.18815(18) 0.18798(24) 0.04901(14)
H4A H -0.2030 0.2037 0.0542
C5A C -0.20019(18) 0.16046(24) 0.02166(14)
C6A C -0.17993(15) 0.13610(21) 0.01379(13)
C7A C -0.14613(15) 0.13972(21) 0.03397(12)
H5A H -0.1322 0.1231 0.0289
C8A C -0.20159(15) 0.11077(21) -0.01592(12)
C9A C -0.23353(18) 0.12226(24) -0.02379(15)
C10A C -0.26106(18) 0.10369(24) -0.05237(14)
H6A H -0.2829 0.1111 -0.0581
C11A C -0.25496(16) 0.07504(22) -0.07098(13)
H7A H -0.2728 0.0628 -0.0903
C12A C -0.22406(14) 0.06242(20) -0.06359(12)
C13A C -0.19697(14) 0.08122(20) -0.03589(12)
H8A H -0.1751 0.0736 -0.0307
C14A C -0.22037(14) 0.02961(20) -0.08432(11)
C15A C 0.03862(16) 0.19203(21) 0.16196(12)
C16A C 0.07588(18) 0.19712(25) 0.18317(14)
C17A C 0.08912(18) 0.22506(25) 0.21075(14)
H9A H 0.0740 0.2406 0.2158
C18A C 0.12290(17) 0.23074(23) 0.23055(14)
H10A H 0.1320 0.2503 0.2491
C19A C 0.14370(18) 0.20719(25) 0.22304(14)
C20A C 0.13115(18) 0.17873(24) 0.19592(14)
C21A C 0.09652(17) 0.17308(23) 0.17605(14)
H11A H 0.0869 0.1530 0.1578
C22A C 0.15884(18) 0.15838(25) 0.19657(14)
C23A C 0.18708(18) 0.17726(25) 0.22370(14)
C24A C 0.22007(18) 0.16663(24) 0.23029(14)
H12A H 0.2402 0.1804 0.2482
C25A C 0.22285(18) 0.13619(25) 0.21069(13)
H13A H 0.2440 0.1276 0.2158
C26A C 0.19525(18) 0.11790(25) 0.18363(14)
C27A C 0.16296(18) 0.12851(24) 0.17630(14)
H14A H 0.1439 0.1155 0.1576
C28A C 0.20132(14) 0.08732(20) 0.16169(12)
O9A O -0.04087(10) 0.25646(14) 0.17185(8)
N3A N -0.01679(12) 0.28298(22) 0.22417(10)
N4A N -0.09140(10) 0.24690(21) 0.21141(10)
C29A C -0.04959(9) 0.26202(14) 0.20203(8)
C30A C -0.02412(17) 0.29848(26) 0.25600(11)
H15A H -0.0215 0.3277 0.2530
H16A H -0.0016 0.3014 0.2724
C31A C -0.0690(2) 0.2663(4) 0.26865(9)
H17A H -0.0749 0.2777 0.2896
H18A H -0.0707 0.2378 0.2737
C32A C -0.10242(15) 0.25988(25) 0.24280(12)
H19A H -0.1320 0.2368 0.2503
H20A H -0.1031 0.2875 0.2397
C33A C 0.02919(10) 0.30369(32) 0.21252(16)
H21A H 0.0301 0.2920 0.1904
H22A H 0.0465 0.2972 0.2284
H23A H 0.0416 0.3357 0.2110
C34A C -0.12713(9) 0.22427(17) 0.18692(12)
H24A H -0.1154 0.2184 0.1665
H25A H -0.1398 0.2430 0.1815
H26A H -0.1501 0.1963 0.1964
Mo1B Mo -0.204576(17) -0.237568(12) 0.138176(10)
Mo2B Mo -0.159810(16) -0.185114(11) 0.107692(10)
O1B O -0.19757(11) -0.28326(7) 0.10803(6)
O2B O -0.15100(11) -0.22811(7) 0.07638(6)
O3B O -0.01241(11) -0.25836(8) -0.10875(6)
O4B O -0.02005(11) -0.21097(8) -0.07690(6)
O5B O -0.21341(12) -0.19374(8) 0.16917(6)
O6B O -0.16605(11) -0.13901(8) 0.13726(6)
O7B O -0.07805(11) 0.15284(8) 0.16902(6)
O8B O -0.06997(11) 0.10569(8) 0.13710(6)
N1B N -0.15218(20) -0.38449(13) -0.00106(12)
H1B H -0.1640 -0.4134 -0.0012
N2B N -0.20642(19) -0.02875(13) 0.23950(11)
H2B H -0.2221 -0.0308 0.2574
C1B C -0.17273(20) -0.26866(13) 0.08322(11)
C2B C -0.16768(21) -0.30009(14) 0.06180(12)
C3B C -0.19225(23) -0.34534(15) 0.06913(13)
H3B H -0.2119 -0.3553 0.0877
C4B C -0.18798(24) -0.37613(16) 0.04901(14)
H4B H -0.2037 -0.4067 0.0542
C5B C -0.16046(24) -0.36065(16) 0.02166(14)
C6B C -0.13610(21) -0.31603(14) 0.01379(13)
C7B C -0.13972(21) -0.28585(14) 0.03397(12)
H5B H -0.1231 -0.2553 0.0289
C8B C -0.11077(21) -0.31236(14) -0.01592(12)
C9B C -0.12226(24) -0.35579(16) -0.02379(15)
C10B C -0.10369(24) -0.36475(16) -0.05237(14)
H6B H -0.1111 -0.3940 -0.0581
C11B C -0.07504(22) -0.33000(15) -0.07098(13)
H7B H -0.0628 -0.3356 -0.0903
C12B C -0.06242(20) -0.28648(14) -0.06359(12)
C13B C -0.08122(20) -0.27819(14) -0.03589(12)
H8B H -0.0736 -0.2487 -0.0307
C14B C -0.02961(20) -0.24998(14) -0.08432(11)
C15B C -0.19203(21) -0.15341(14) 0.16196(12)
C16B C -0.19712(25) -0.12124(17) 0.18317(14)
C17B C -0.22506(25) -0.13594(17) 0.21075(14)
H9B H -0.2406 -0.1666 0.2158
C18B C -0.23074(23) -0.10784(16) 0.23055(14)
H10B H -0.2503 -0.1183 0.2491
C19B C -0.20719(25) -0.06349(17) 0.22304(14)
C20B C -0.17873(24) -0.04758(16) 0.19592(14)
C21B C -0.17308(23) -0.07656(16) 0.17605(14)
H11B H -0.1530 -0.0661 0.1578
C22B C -0.15838(25) 0.00046(17) 0.19657(14)
C23B C -0.17726(25) 0.00982(17) 0.22370(14)
C24B C -0.16663(24) 0.05344(16) 0.23029(14)
H12B H -0.1804 0.0598 0.2482
C25B C -0.13619(25) 0.08666(17) 0.21069(13)
H13B H -0.1276 0.1164 0.2158
C26B C -0.11790(25) 0.07735(17) 0.18363(14)
C27B C -0.12851(24) 0.03445(16) 0.17630(14)
H14B H -0.1155 0.0284 0.1576
C28B C -0.08732(20) 0.11400(14) 0.16169(12)
O9B O -0.25646(14) -0.29733(10) 0.17185(8)
N3B N -0.28298(22) -0.29977(18) 0.22417(10)
N4B N -0.24690(21) -0.33830(19) 0.21141(10)
C29B C -0.26202(14) -0.31161(11) 0.20203(8)
C30B C -0.29848(26) -0.3226(2) 0.25600(11)
H15B H -0.3277 -0.3492 0.2530
H16B H -0.3014 -0.3030 0.2724
C31B C -0.2663(4) -0.3353(3) 0.26865(9)
H17B H -0.2777 -0.3526 0.2896
H18B H -0.2378 -0.3085 0.2737
C32B C -0.25988(25) -0.3623(2) 0.24280(12)
H19B H -0.2368 -0.3688 0.2503
H20B H -0.2875 -0.3906 0.2397
C33B C -0.30369(32) -0.2745(3) 0.21252(16)
H21B H -0.2920 -0.2619 0.1904
H22B H -0.2972 -0.2507 0.2284
H23B H -0.3357 -0.2941 0.2110
C34B C -0.22427(17) -0.35140(15) 0.18692(12)
H24B H -0.2184 -0.3338 0.1665
H25B H -0.2430 -0.3828 0.1815
H26B H -0.1963 -0.3464 0.1964
Mo1I Mo -0.237568(12) -0.032992(12) -0.138176(10)
Mo2I Mo -0.185114(11) -0.025304(12) -0.107692(10)
O1I O -0.28326(7) -0.08569(8) -0.10803(6)
O2I O -0.22811(7) -0.07711(8) -0.07638(6)
O3I O -0.25836(8) -0.24595(8) 0.10875(6)
O4I O -0.21097(8) -0.19092(8) 0.07690(6)
O5I O -0.19374(8) 0.01967(9) -0.16917(6)
O6I O -0.13901(8) 0.02704(8) -0.13726(6)
O7I O 0.15284(8) 0.23089(8) -0.16902(6)
O8I O 0.10569(8) 0.17566(8) -0.13710(6)
N1I N -0.38449(13) -0.23231(15) 0.00106(12)
H1I H -0.4134 -0.2494 0.0012
N2I N -0.02875(13) 0.17767(14) -0.23950(11)
H2I H -0.0308 0.1913 -0.2574
C1I C -0.26866(13) -0.09593(15) -0.08322(11)
C2I C -0.30009(14) -0.13241(15) -0.06180(12)
C3I C -0.34534(15) -0.15309(17) -0.06913(13)
H3I H -0.3553 -0.1434 -0.0877
C4I C -0.37613(16) -0.18815(18) -0.04901(14)
H4I H -0.4067 -0.2030 -0.0542
C5I C -0.36065(16) -0.20019(18) -0.02166(14)
C6I C -0.31603(14) -0.17993(15) -0.01379(13)
C7I C -0.28585(14) -0.14613(15) -0.03397(12)
H5I H -0.2553 -0.1322 -0.0289
C8I C -0.31236(14) -0.20159(15) 0.01592(12)
C9I C -0.35579(16) -0.23353(18) 0.02379(15)
C10I C -0.36475(16) -0.26106(18) 0.05237(14)
H6I H -0.3940 -0.2829 0.0581
C11I C -0.33000(15) -0.25496(16) 0.07098(13)
H7I H -0.3356 -0.2728 0.0903
C12I C -0.28648(14) -0.22406(14) 0.06359(12)
C13I C -0.27819(14) -0.19697(14) 0.03589(12)
H8I H -0.2487 -0.1751 0.0307
C14I C -0.24998(14) -0.22037(14) 0.08432(11)
C15I C -0.15341(14) 0.03862(16) -0.16196(12)
C16I C -0.12124(17) 0.07588(18) -0.18317(14)
C17I C -0.13594(17) 0.08912(18) -0.21075(14)
H9I H -0.1666 0.0740 -0.2158
C18I C -0.10784(16) 0.12290(17) -0.23055(14)
H10I H -0.1183 0.1320 -0.2491
C19I C -0.06349(17) 0.14370(18) -0.22304(14)
C20I C -0.04758(16) 0.13115(18) -0.19592(14)
C21I C -0.07656(16) 0.09652(17) -0.17605(14)
H11I H -0.0661 0.0869 -0.1578
C22I C 0.00046(17) 0.15884(18) -0.19657(14)
C23I C 0.00982(17) 0.18708(18) -0.22370(14)
C24I C 0.05344(16) 0.22007(18) -0.23029(14)
H12I H 0.0598 0.2402 -0.2482
C25I C 0.08666(17) 0.22285(18) -0.21069(13)
H13I H 0.1164 0.2440 -0.2158
C26I C 0.07735(17) 0.19525(18) -0.18363(14)
C27I C 0.03445(16) 0.16296(18) -0.17630(14)
H14I H 0.0284 0.1439 -0.1576
C28I C 0.11400(14) 0.20132(14) -0.16169(12)
O9I O -0.29733(10) -0.04087(10) -0.17185(8)
N3I N -0.29977(18) -0.01679(12) -0.22417(10)
N4I N -0.33830(19) -0.09140(10) -0.21141(10)
C29I C -0.31161(11) -0.04959(9) -0.20203(8)
C30I C -0.3226(2) -0.02412(17) -0.25600(11)
H15I H -0.3492 -0.0215 -0.2530
H16I H -0.3030 -0.0016 -0.2724
C31I C -0.3353(3) -0.0690(2) -0.26865(9)
H17I H -0.3526 -0.0749 -0.2896
H18I H -0.3085 -0.0707 -0.2737
C32I C -0.3623(2) -0.10242(15) -0.24280(12)
H19I H -0.3688 -0.1320 -0.2503
H20I H -0.3906 -0.1031 -0.2397
C33I C -0.2745(3) 0.02919(10) -0.21252(16)
H21I H -0.2619 0.0301 -0.1904
H22I H -0.2507 0.0465 -0.2284
H23I H -0.2941 0.0416 -0.2110
C34I C -0.35140(15) -0.12713(9) -0.18692(12)
H24I H -0.3338 -0.1154 -0.1665
H25I H -0.3828 -0.1398 -0.1815
H26I H -0.3464 -0.1501 -0.1964
Mo1J Mo 0.032992(12) -0.204576(17) -0.138176(10)
Mo2J Mo 0.025304(12) -0.159810(16) -0.107692(10)
O1J O 0.08569(8) -0.19757(11) -0.10803(6)
O2J O 0.07711(8) -0.15100(11) -0.07638(6)
O3J O 0.24595(8) -0.01241(11) 0.10875(6)
O4J O 0.19092(8) -0.02005(11) 0.07690(6)
O5J O -0.01967(9) -0.21341(12) -0.16917(6)
O6J O -0.02704(8) -0.16605(11) -0.13726(6)
O7J O -0.23089(8) -0.07805(11) -0.16902(6)
O8J O -0.17566(8) -0.06997(11) -0.13710(6)
N1J N 0.23231(15) -0.15218(20) 0.00106(12)
H1J H 0.2494 -0.1640 0.0012
N2J N -0.17767(14) -0.20642(19) -0.23950(11)
H2J H -0.1913 -0.2221 -0.2574
C1J C 0.09593(15) -0.17273(20) -0.08322(11)
C2J C 0.13241(15) -0.16768(21) -0.06180(12)
C3J C 0.15309(17) -0.19225(23) -0.06913(13)
H3J H 0.1434 -0.2119 -0.0877
C4J C 0.18815(18) -0.18798(24) -0.04901(14)
H4J H 0.2030 -0.2037 -0.0542
C5J C 0.20019(18) -0.16046(24) -0.02166(14)
C6J C 0.17993(15) -0.13610(21) -0.01379(13)
C7J C 0.14613(15) -0.13972(21) -0.03397(12)
H5J H 0.1322 -0.1231 -0.0289
C8J C 0.20159(15) -0.11077(21) 0.01592(12)
C9J C 0.23353(18) -0.12226(24) 0.02379(15)
C10J C 0.26106(18) -0.10369(24) 0.05237(14)
H6J H 0.2829 -0.1111 0.0581
C11J C 0.25496(16) -0.07504(22) 0.07098(13)
H7J H 0.2728 -0.0628 0.0903
C12J C 0.22406(14) -0.06242(20) 0.06359(12)
C13J C 0.19697(14) -0.08122(20) 0.03589(12)
H8J H 0.1751 -0.0736 0.0307
C14J C 0.22037(14) -0.02961(20) 0.08432(11)
C15J C -0.03862(16) -0.19203(21) -0.16196(12)
C16J C -0.07588(18) -0.19712(25) -0.18317(14)
C17J C -0.08912(18) -0.22506(25) -0.21075(14)
H9J H -0.0740 -0.2406 -0.2158
C18J C -0.12290(17) -0.23074(23) -0.23055(14)
H10J H -0.1320 -0.2503 -0.2491
C19J C -0.14370(18) -0.20719(25) -0.22304(14)
C20J C -0.13115(18) -0.17873(24) -0.19592(14)
C21J C -0.09652(17) -0.17308(23) -0.17605(14)
H11J H -0.0869 -0.1530 -0.1578
C22J C -0.15884(18) -0.15838(25) -0.19657(14)
C23J C -0.18708(18) -0.17726(25) -0.22370(14)
C24J C -0.22007(18) -0.16663(24) -0.23029(14)
H12J H -0.2402 -0.1804 -0.2482
C25J C -0.22285(18) -0.13619(25) -0.21069(13)
H13J H -0.2440 -0.1276 -0.2158
C26J C -0.19525(18) -0.11790(25) -0.18363(14)
C27J C -0.16296(18) -0.12851(24) -0.17630(14)
H14J H -0.1439 -0.1155 -0.1576
C28J C -0.20132(14) -0.08732(20) -0.16169(12)
O9J O 0.04087(10) -0.25646(14) -0.17185(8)
N3J N 0.01679(12) -0.28298(22) -0.22417(10)
N4J N 0.09140(10) -0.24690(21) -0.21141(10)
C29J C 0.04959(9) -0.26202(14) -0.20203(8)
C30J C 0.02412(17) -0.29848(26) -0.25600(11)
H15J H 0.0215 -0.3277 -0.2530
H16J H 0.0016 -0.3014 -0.2724
C31J C 0.0690(2) -0.2663(4) -0.26865(9)
H17J H 0.0749 -0.2777 -0.2896
H18J H 0.0707 -0.2378 -0.2737
C32J C 0.10242(15) -0.25988(25) -0.24280(12)
H19J H 0.1320 -0.2368 -0.2503
H20J H 0.1031 -0.2875 -0.2397
C33J C -0.02919(10) -0.30369(32) -0.21252(16)
H21J H -0.0301 -0.2920 -0.1904
H22J H -0.0465 -0.2972 -0.2284
H23J H -0.0416 -0.3357 -0.2110
C34J C 0.12713(9) -0.22427(17) -0.18692(12)
H24J H 0.1154 -0.2184 -0.1665
H25J H 0.1398 -0.2430 -0.1815
H26J H 0.1501 -0.1963 -0.1964
Mo1K Mo 0.204576(17) 0.237568(12) -0.138176(10)
Mo2K Mo 0.159810(16) 0.185114(11) -0.107692(10)
O1K O 0.19757(11) 0.28326(7) -0.10803(6)
O2K O 0.15100(11) 0.22811(7) -0.07638(6)
O3K O 0.01241(11) 0.25836(8) 0.10875(6)
O4K O 0.02005(11) 0.21097(8) 0.07690(6)
O5K O 0.21341(12) 0.19374(8) -0.16917(6)
O6K O 0.16605(11) 0.13901(8) -0.13726(6)
O7K O 0.07805(11) -0.15284(8) -0.16902(6)
O8K O 0.06997(11) -0.10569(8) -0.13710(6)
N1K N 0.15218(20) 0.38449(13) 0.00106(12)
H1K H 0.1640 0.4134 0.0012
N2K N 0.20642(19) 0.02875(13) -0.23950(11)
H2K H 0.2221 0.0308 -0.2574
C1K C 0.17273(20) 0.26866(13) -0.08322(11)
C2K C 0.16768(21) 0.30009(14) -0.06180(12)
C3K C 0.19225(23) 0.34534(15) -0.06913(13)
H3K H 0.2119 0.3553 -0.0877
C4K C 0.18798(24) 0.37613(16) -0.04901(14)
H4K H 0.2037 0.4067 -0.0542
C5K C 0.16046(24) 0.36065(16) -0.02166(14)
C6K C 0.13610(21) 0.31603(14) -0.01379(13)
C7K C 0.13972(21) 0.28585(14) -0.03397(12)
H5K H 0.1231 0.2553 -0.0289
C8K C 0.11077(21) 0.31236(14) 0.01592(12)
C9K C 0.12226(24) 0.35579(16) 0.02379(15)
C10K C 0.10369(24) 0.36475(16) 0.05237(14)
H6K H 0.1111 0.3940 0.0581
C11K C 0.07504(22) 0.33000(15) 0.07098(13)
H7K H 0.0628 0.3356 0.0903
C12K C 0.06242(20) 0.28648(14) 0.06359(12)
C13K C 0.08122(20) 0.27819(14) 0.03589(12)
H8K H 0.0736 0.2487 0.0307
C14K C 0.02961(20) 0.24998(14) 0.08432(11)
C15K C 0.19203(21) 0.15341(14) -0.16196(12)
C16K C 0.19712(25) 0.12124(17) -0.18317(14)
C17K C 0.22506(25) 0.13594(17) -0.21075(14)
H9K H 0.2406 0.1666 -0.2158
C18K C 0.23074(23) 0.10784(16) -0.23055(14)
H10K H 0.2503 0.1183 -0.2491
C19K C 0.20719(25) 0.06349(17) -0.22304(14)
C20K C 0.17873(24) 0.04758(16) -0.19592(14)
C21K C 0.17308(23) 0.07656(16) -0.17605(14)
H11K H 0.1530 0.0661 -0.1578
C22K C 0.15838(25) -0.00046(17) -0.19657(14)
C23K C 0.17726(25) -0.00982(17) -0.22370(14)
C24K C 0.16663(24) -0.05344(16) -0.23029(14)
H12K H 0.1804 -0.0598 -0.2482
C25K C 0.13619(25) -0.08666(17) -0.21069(13)
H13K H 0.1276 -0.1164 -0.2158
C26K C 0.11790(25) -0.07735(17) -0.18363(14)
C27K C 0.12851(24) -0.03445(16) -0.17630(14)
H14K H 0.1155 -0.0284 -0.1576
C28K C 0.08732(20) -0.11400(14) -0.16169(12)
O9K O 0.25646(14) 0.29733(10) -0.17185(8)
N3K N 0.28298(22) 0.29977(18) -0.22417(10)
N4K N 0.24690(21) 0.33830(19) -0.21141(10)
C29K C 0.26202(14) 0.31161(11) -0.20203(8)
C30K C 0.29848(26) 0.3226(2) -0.25600(11)
H15K H 0.3277 0.3492 -0.2530
H16K H 0.3014 0.3030 -0.2724
C31K C 0.2663(4) 0.3353(3) -0.26865(9)
H17K H 0.2777 0.3526 -0.2896
H18K H 0.2378 0.3085 -0.2737
C32K C 0.25988(25) 0.3623(2) -0.24280(12)
H19K H 0.2368 0.3688 -0.2503
H20K H 0.2875 0.3906 -0.2397
C33K C 0.30369(32) 0.2745(3) -0.21252(16)
H21K H 0.2920 0.2619 -0.1904
H22K H 0.2972 0.2507 -0.2284
H23K H 0.3357 0.2941 -0.2110
C34K C 0.22427(17) 0.35140(15) -0.18692(12)
H24K H 0.2184 0.3338 -0.1665
H25K H 0.2430 0.3828 -0.1815
H26K H 0.1963 0.3464 -0.1964
N5? N 0.35287(15) 0.02535(15) 0.16893(19)
N6? N 0.36756(11) 0.09646(11) 0.17984(18)
C35? C 0.33863(11) 0.05401(10) 0.17351(10)
C36? C 0.39749(17) 0.0363(2) 0.1773(2)
H27? H 0.4062 0.0182 0.1637
H28? H 0.3990 0.0297 0.2013
C37? C 0.42824(12) 0.0840(2) 0.1707(3)
H29? H 0.4293 0.0899 0.1464
H30? H 0.4584 0.0921 0.1782
C38? C 0.41283(13) 0.11080(18) 0.1891(2)
H31? H 0.4147 0.1072 0.2136
H32? H 0.4319 0.1424 0.1836
C39? C 0.3267(3) -0.0145(3) 0.1488(3)
H33? H 0.2971 -0.0187 0.1452
H34? H 0.3243 -0.0402 0.1607
H35? H 0.3412 -0.0113 0.1271
H36? H 0.3211 0.1141 0.1801
H37? H 0.3537 0.1331 0.2105
H38? H 0.3688 0.1542 0.1749
loop_
_geom_bond_atom_site_label_1
_geom_bond_atom_site_label_2
_geom_bond_site_symmetry_1
_geom_bond_site_symmetry_2
Mo1 Mo2 1_555 1_555
Mo2 O2 1_555 1_555
O1 Mo1 1_555 1_555
O2 C1 1_555 1_555
O3 C14 1_555 1_555
O4 C14 1_555 1_555
O5 Mo1 1_555 1_555
O6 Mo2 1_555 1_555
O7 C28 1_555 1_555
O8 C28 1_555 1_555
N1 H1 1_555 1_555
N2 H2 1_555 1_555
C1 O1 1_555 1_555
C2 C1 1_555 1_555
C3 C2 1_555 1_555
H3 C3 1_555 1_555
C4 C3 1_555 1_555
H4 C4 1_555 1_555
C5 N1 1_555 1_555
C6 C5 1_555 1_555
C7 C2 1_555 1_555
H5 C7 1_555 1_555
C8 C6 1_555 1_555
C9 N1 1_555 1_555
C10 C9 1_555 1_555
H6 C10 1_555 1_555
C11 C10 1_555 1_555
H7 C11 1_555 1_555
C12 C11 1_555 1_555
C13 C8 1_555 1_555
H8 C13 1_555 1_555
C14 C12 1_555 1_555
C15 O5 1_555 1_555
C16 C15 1_555 1_555
C17 C16 1_555 1_555
H9 C17 1_555 1_555
C18 C17 1_555 1_555
H10 C18 1_555 1_555
C19 N2 1_555 1_555
C20 C19 1_555 1_555
C21 C16 1_555 1_555
H11 C21 1_555 1_555
C22 C20 1_555 1_555
C23 N2 1_555 1_555
C24 C23 1_555 1_555
H12 C24 1_555 1_555
C25 C24 1_555 1_555
H13 C25 1_555 1_555
C26 C25 1_555 1_555
C27 C22 1_555 1_555
H14 C27 1_555 1_555
C28 C26 1_555 1_555
O9 Mo1 1_555 1_555
N3 C29 1_555 1_555
N4 C29 1_555 1_555
C29 O9 1_555 1_555
C30 N3 1_555 1_555
H15 C30 1_555 1_555
H16 C30 1_555 1_555
C31 C30 1_555 1_555
H17 C31 1_555 1_555
H18 C31 1_555 1_555
C32 N4 1_555 1_555
H19 C32 1_555 1_555
H20 C32 1_555 1_555
C33 N3 1_555 1_555
H21 C33 1_555 1_555
H22 C33 1_555 1_555
H23 C33 1_555 1_555
C34 N4 1_555 1_555
H24 C34 1_555 1_555
H25 C34 1_555 1_555
H26 C34 1_555 1_555
Mo1A Mo2A 1_555 1_555
Mo2A O2A 1_555 1_555
O1A Mo1A 1_555 1_555
O2A C1A 1_555 1_555
O3A C14A 1_555 1_555
O4A C14A 1_555 1_555
O5A Mo1A 1_555 1_555
O6A Mo2A 1_555 1_555
O7A Mo1 1_555 1_555
O8A Mo2 1_555 1_555
N1A H1A 1_555 1_555
N2A H2A 1_555 1_555
C1A O1A 1_555 1_555
C2A C1A 1_555 1_555
C3A C2A 1_555 1_555
H3A C3A 1_555 1_555
C4A C3A 1_555 1_555
H4A C4A 1_555 1_555
C5A N1A 1_555 1_555
C6A C5A 1_555 1_555
C7A C2A 1_555 1_555
H5A C7A 1_555 1_555
C8A C6A 1_555 1_555
C9A N1A 1_555 1_555
C10A C9A 1_555 1_555
H6A C10A 1_555 1_555
C11A C10A 1_555 1_555
H7A C11A 1_555 1_555
C12A C11A 1_555 1_555
C13A C8A 1_555 1_555
H8A C13A 1_555 1_555
C14A C12A 1_555 1_555
C15A O5A 1_555 1_555
C16A C15A 1_555 1_555
C17A C16A 1_555 1_555
H9A C17A 1_555 1_555
C18A C17A 1_555 1_555
H10A C18A 1_555 1_555
C19A N2A 1_555 1_555
C20A C19A 1_555 1_555
C21A C16A 1_555 1_555
H11A C21A 1_555 1_555
C22A C20A 1_555 1_555
C23A N2A 1_555 1_555
C24A C23A 1_555 1_555
H12A C24A 1_555 1_555
C25A C24A 1_555 1_555
H13A C25A 1_555 1_555
C26A C25A 1_555 1_555
C27A C22A 1_555 1_555
H14A C27A 1_555 1_555
C28A O7A 1_555 1_555
O9A Mo1A 1_555 1_555
N3A C29A 1_555 1_555
N4A C29A 1_555 1_555
C29A O9A 1_555 1_555
C30A N3A 1_555 1_555
H15A C30A 1_555 1_555
H16A C30A 1_555 1_555
C31A C30A 1_555 1_555
H17A C31A 1_555 1_555
H18A C31A 1_555 1_555
C32A N4A 1_555 1_555
H19A C32A 1_555 1_555
H20A C32A 1_555 1_555
C33A N3A 1_555 1_555
H21A C33A 1_555 1_555
H22A C33A 1_555 1_555
H23A C33A 1_555 1_555
C34A N4A 1_555 1_555
H24A C34A 1_555 1_555
H25A C34A 1_555 1_555
H26A C34A 1_555 1_555
Mo1B O7 1_555 1_555
Mo2B O8 1_555 1_555
O1B Mo1B 1_555 1_555
O2B Mo2B 1_555 1_555
O3B C14B 1_555 1_555
O4B C14B 1_555 1_555
O5B Mo1B 1_555 1_555
O6B Mo2B 1_555 1_555
O7B Mo1A 1_555 1_555
O8B Mo2A 1_555 1_555
N1B H1B 1_555 1_555
N2B H2B 1_555 1_555
C1B O1B 1_555 1_555
C2B C1B 1_555 1_555
C3B C2B 1_555 1_555
H3B C3B 1_555 1_555
C4B C3B 1_555 1_555
H4B C4B 1_555 1_555
C5B N1B 1_555 1_555
C6B C5B 1_555 1_555
C7B C2B 1_555 1_555
H5B C7B 1_555 1_555
C8B C6B 1_555 1_555
C9B N1B 1_555 1_555
C10B C9B 1_555 1_555
H6B C10B 1_555 1_555
C11B C10B 1_555 1_555
H7B C11B 1_555 1_555
C12B C11B 1_555 1_555
C13B C8B 1_555 1_555
H8B C13B 1_555 1_555
C14B C12B 1_555 1_555
C15B O5B 1_555 1_555
C16B C15B 1_555 1_555
C17B C16B 1_555 1_555
H9B C17B 1_555 1_555
C18B C17B 1_555 1_555
H10B C18B 1_555 1_555
C19B N2B 1_555 1_555
C20B C19B 1_555 1_555
C21B C16B 1_555 1_555
H11B C21B 1_555 1_555
C22B C20B 1_555 1_555
C23B N2B 1_555 1_555
C24B C23B 1_555 1_555
H12B C24B 1_555 1_555
C25B C24B 1_555 1_555
H13B C25B 1_555 1_555
C26B C25B 1_555 1_555
C27B C22B 1_555 1_555
H14B C27B 1_555 1_555
C28B O7B 1_555 1_555
O9B Mo1B 1_555 1_555
N3B C29B 1_555 1_555
N4B C29B 1_555 1_555
C29B O9B 1_555 1_555
C30B N3B 1_555 1_555
H15B C30B 1_555 1_555
H16B C30B 1_555 1_555
C31B C30B 1_555 1_555
H17B C31B 1_555 1_555
H18B C31B 1_555 1_555
C32B N4B 1_555 1_555
H19B C32B 1_555 1_555
H20B C32B 1_555 1_555
C33B N3B 1_555 1_555
H21B C33B 1_555 1_555
H22B C33B 1_555 1_555
H23B C33B 1_555 1_555
C34B N4B 1_555 1_555
H24B C34B 1_555 1_555
H25B C34B 1_555 1_555
H26B C34B 1_555 1_555
Mo1I O3A 1_555 1_555
Mo2I O4A 1_555 1_555
O1I Mo1I 1_555 1_555
O2I Mo2I 1_555 1_555
O3I Mo1B 1_555 1_555
O4I Mo2B 1_555 1_555
O5I Mo1I 1_555 1_555
O6I Mo2I 1_555 1_555
O7I C28I 1_555 1_555
O8I C28I 1_555 1_555
N1I H1I 1_555 1_555
N2I H2I 1_555 1_555
C1I O1I 1_555 1_555
C2I C1I 1_555 1_555
C3I C2I 1_555 1_555
H3I C3I 1_555 1_555
C4I C3I 1_555 1_555
H4I C4I 1_555 1_555
C5I N1I 1_555 1_555
C6I C5I 1_555 1_555
C7I C2I 1_555 1_555
H5I C7I 1_555 1_555
C8I C6I 1_555 1_555
C9I N1I 1_555 1_555
C10I C9I 1_555 1_555
H6I C10I 1_555 1_555
C11I C10I 1_555 1_555
H7I C11I 1_555 1_555
C12I C11I 1_555 1_555
C13I C8I 1_555 1_555
H8I C13I 1_555 1_555
C14I O3I 1_555 1_555
C15I O5I 1_555 1_555
C16I C15I 1_555 1_555
C17I C16I 1_555 1_555
H9I C17I 1_555 1_555
C18I C17I 1_555 1_555
H10I C18I 1_555 1_555
C19I N2I 1_555 1_555
C20I C19I 1_555 1_555
C21I C16I 1_555 1_555
H11I C21I 1_555 1_555
C22I C20I 1_555 1_555
C23I N2I 1_555 1_555
C24I C23I 1_555 1_555
H12I C24I 1_555 1_555
C25I C24I 1_555 1_555
H13I C25I 1_555 1_555
C26I C25I 1_555 1_555
C27I C22I 1_555 1_555
H14I C27I 1_555 1_555
C28I C26I 1_555 1_555
O9I Mo1I 1_555 1_555
N3I C29I 1_555 1_555
N4I C29I 1_555 1_555
C29I O9I 1_555 1_555
C30I N3I 1_555 1_555
H15I C30I 1_555 1_555
H16I C30I 1_555 1_555
C31I C30I 1_555 1_555
H17I C31I 1_555 1_555
H18I C31I 1_555 1_555
C32I N4I 1_555 1_555
H19I C32I 1_555 1_555
H20I C32I 1_555 1_555
C33I N3I 1_555 1_555
H21I C33I 1_555 1_555
H22I C33I 1_555 1_555
H23I C33I 1_555 1_555
C34I N4I 1_555 1_555
H24I C34I 1_555 1_555
H25I C34I 1_555 1_555
H26I C34I 1_555 1_555
Mo1J O3B 1_555 1_555
Mo2J O4B 1_555 1_555
O1J Mo1J 1_555 1_555
O2J Mo2J 1_555 1_555
O3J Mo1 1_555 1_555
O4J Mo2 1_555 1_555
O5J Mo1J 1_555 1_555
O6J Mo2J 1_555 1_555
O7J Mo1I 1_555 1_555
O8J Mo2I 1_555 1_555
N1J H1J 1_555 1_555
N2J H2J 1_555 1_555
C1J O1J 1_555 1_555
C2J C1J 1_555 1_555
C3J C2J 1_555 1_555
H3J C3J 1_555 1_555
C4J C3J 1_555 1_555
H4J C4J 1_555 1_555
C5J N1J 1_555 1_555
C6J C5J 1_555 1_555
C7J C2J 1_555 1_555
H5J C7J 1_555 1_555
C8J C6J 1_555 1_555
C9J N1J 1_555 1_555
C10J C9J 1_555 1_555
H6J C10J 1_555 1_555
C11J C10J 1_555 1_555
H7J C11J 1_555 1_555
C12J C11J 1_555 1_555
C13J C8J 1_555 1_555
H8J C13J 1_555 1_555
C14J O3J 1_555 1_555
C15J O5J 1_555 1_555
C16J C15J 1_555 1_555
C17J C16J 1_555 1_555
H9J C17J 1_555 1_555
C18J C17J 1_555 1_555
H10J C18J 1_555 1_555
C19J N2J 1_555 1_555
C20J C19J 1_555 1_555
C21J C16J 1_555 1_555
H11J C21J 1_555 1_555
C22J C20J 1_555 1_555
C23J N2J 1_555 1_555
C24J C23J 1_555 1_555
H12J C24J 1_555 1_555
C25J C24J 1_555 1_555
H13J C25J 1_555 1_555
C26J C25J 1_555 1_555
C27J C22J 1_555 1_555
H14J C27J 1_555 1_555
C28J O7J 1_555 1_555
O9J Mo1J 1_555 1_555
N3J C29J 1_555 1_555
N4J C29J 1_555 1_555
C29J O9J 1_555 1_555
C30J N3J 1_555 1_555
H15J C30J 1_555 1_555
H16J C30J 1_555 1_555
C31J C30J 1_555 1_555
H17J C31J 1_555 1_555
H18J C31J 1_555 1_555
C32J N4J 1_555 1_555
H19J C32J 1_555 1_555
H20J C32J 1_555 1_555
C33J N3J 1_555 1_555
H21J C33J 1_555 1_555
H22J C33J 1_555 1_555
H23J C33J 1_555 1_555
C34J N4J 1_555 1_555
H24J C34J 1_555 1_555
H25J C34J 1_555 1_555
H26J C34J 1_555 1_555
Mo1K O3 1_555 1_555
Mo2K O4 1_555 1_555
O1K Mo1K 1_555 1_555
O2K Mo2K 1_555 1_555
O3K Mo1A 1_555 1_555
O4K Mo2A 1_555 1_555
O5K Mo1K 1_555 1_555
O6K Mo2K 1_555 1_555
O7K Mo1J 1_555 1_555
O8K Mo2J 1_555 1_555
N1K H1K 1_555 1_555
N2K H2K 1_555 1_555
C1K O1K 1_555 1_555
C2K C1K 1_555 1_555
C3K C2K 1_555 1_555
H3K C3K 1_555 1_555
C4K C3K 1_555 1_555
H4K C4K 1_555 1_555
C5K N1K 1_555 1_555
C6K C5K 1_555 1_555
C7K C2K 1_555 1_555
H5K C7K 1_555 1_555
C8K C6K 1_555 1_555
C9K N1K 1_555 1_555
C10K C9K 1_555 1_555
H6K C10K 1_555 1_555
C11K C10K 1_555 1_555
H7K C11K 1_555 1_555
C12K C11K 1_555 1_555
C13K C8K 1_555 1_555
H8K C13K 1_555 1_555
C14K O3K 1_555 1_555
C15K O5K 1_555 1_555
C16K C15K 1_555 1_555
C17K C16K 1_555 1_555
H9K C17K 1_555 1_555
C18K C17K 1_555 1_555
H10K C18K 1_555 1_555
C19K N2K 1_555 1_555
C20K C19K 1_555 1_555
C21K C16K 1_555 1_555
H11K C21K 1_555 1_555
C22K C20K 1_555 1_555
C23K N2K 1_555 1_555
C24K C23K 1_555 1_555
H12K C24K 1_555 1_555
C25K C24K 1_555 1_555
H13K C25K 1_555 1_555
C26K C25K 1_555 1_555
C27K C22K 1_555 1_555
H14K C27K 1_555 1_555
C28K O7K 1_555 1_555
O9K Mo1K 1_555 1_555
N3K C29K 1_555 1_555
N4K C29K 1_555 1_555
C29K O9K 1_555 1_555
C30K N3K 1_555 1_555
H15K C30K 1_555 1_555
H16K C30K 1_555 1_555
C31K C30K 1_555 1_555
H17K C31K 1_555 1_555
H18K C31K 1_555 1_555
C32K N4K 1_555 1_555
H19K C32K 1_555 1_555
H20K C32K 1_555 1_555
C33K N3K 1_555 1_555
H21K C33K 1_555 1_555
H22K C33K 1_555 1_555
H23K C33K 1_555 1_555
C34K N4K 1_555 1_555
H24K C34K 1_555 1_555
H25K C34K 1_555 1_555
H26K C34K 1_555 1_555
O6 C15 1_555 1_555
C4 C5 1_555 1_555
C6 C7 1_555 1_555
C8 C9 1_555 1_555
C12 C13 1_555 1_555
C18 C19 1_555 1_555
C20 C21 1_555 1_555
C22 C23 1_555 1_555
C26 C27 1_555 1_555
C31 C32 1_555 1_555
O6A C15A 1_555 1_555
O8A C28A 1_555 1_555
C4A C5A 1_555 1_555
C6A C7A 1_555 1_555
C8A C9A 1_555 1_555
C12A C13A 1_555 1_555
C18A C19A 1_555 1_555
C20A C21A 1_555 1_555
C22A C23A 1_555 1_555
C26A C27A 1_555 1_555
C26A C28A 1_555 1_555
C31A C32A 1_555 1_555
Mo1B Mo2B 1_555 1_555
O2B C1B 1_555 1_555
O6B C15B 1_555 1_555
O8B C28B 1_555 1_555
C4B C5B 1_555 1_555
C6B C7B 1_555 1_555
C8B C9B 1_555 1_555
C12B C13B 1_555 1_555
C18B C19B 1_555 1_555
C20B C21B 1_555 1_555
C22B C23B 1_555 1_555
C26B C27B 1_555 1_555
C26B C28B 1_555 1_555
C31B C32B 1_555 1_555
Mo1I Mo2I 1_555 1_555
O2I C1I 1_555 1_555
O4I C14I 1_555 1_555
O6I C15I 1_555 1_555
O7I Mo1K 1_555 1_555
O8I Mo2K 1_555 1_555
C4I C5I 1_555 1_555
C6I C7I 1_555 1_555
C8I C9I 1_555 1_555
C12I C13I 1_555 1_555
C12I C14I 1_555 1_555
C18I C19I 1_555 1_555
C20I C21I 1_555 1_555
C22I C23I 1_555 1_555
C26I C27I 1_555 1_555
C31I C32I 1_555 1_555
Mo1J Mo2J 1_555 1_555
O2J C1J 1_555 1_555
O4J C14J 1_555 1_555
O6J C15J 1_555 1_555
O8J C28J 1_555 1_555
C4J C5J 1_555 1_555
C6J C7J 1_555 1_555
C8J C9J 1_555 1_555
C12J C13J 1_555 1_555
C12J C14J 1_555 1_555
C18J C19J 1_555 1_555
C20J C21J 1_555 1_555
C22J C23J 1_555 1_555
C26J C27J 1_555 1_555
C26J C28J 1_555 1_555
C31J C32J 1_555 1_555
Mo1K Mo2K 1_555 1_555
O2K C1K 1_555 1_555
O4K C14K 1_555 1_555
O6K C15K 1_555 1_555
O8K C28K 1_555 1_555
C4K C5K 1_555 1_555
C6K C7K 1_555 1_555
C8K C9K 1_555 1_555
C12K C13K 1_555 1_555
C12K C14K 1_555 1_555
C18K C19K 1_555 1_555
C20K C21K 1_555 1_555
C22K C23K 1_555 1_555
C26K C27K 1_555 1_555
C26K C28K 1_555 1_555
C31K C32K 1_555 1_555

#END
