
#######################################################################
#
#                 Cambridge Crystallographic Data Centre
#                                CCDC 
#
#######################################################################
#
# If this CIF has been generated from an entry in the Cambridge 
# Structural Database, then it will include bibliographic, chemical, 
# crystal, experimental, refinement or atomic coordinate data resulting 
# from the CCDC's data processing and validation procedures.
#
#######################################################################

data_XUQKEB
_chemical_formula_moiety         'C144 H72 Mo6 O24'
_chemical_name_systematic        
"hexakis(\m~4~-4,4'-(1,2-Phenylenediethyne-2,1-diyl)dibenzoato)-hexa-molybdenum unknown solvate"
_symmetry_cell_setting           cubic
_symmetry_space_group_name_H-M   'P -4 3 n'
_symmetry_Int_Tables_number      218
_space_group_name_Hall           'P -4n 2 3'
loop_
_symmetry_equiv_pos_site_id
_symmetry_equiv_pos_as_xyz
1 x,y,z
2 -x,-y,z
3 -x,y,-z
4 x,-y,-z
5 z,x,y
6 z,-x,-y
7 -z,-x,y
8 -z,x,-y
9 y,z,x
10 -y,z,-x
11 y,-z,-x
12 -y,-z,x
13 1/2+y,1/2+x,1/2+z
14 1/2-y,1/2-x,1/2+z
15 1/2+y,1/2-x,1/2-z
16 1/2-y,1/2+x,1/2-z
17 1/2+x,1/2+z,1/2+y
18 1/2-x,1/2+z,1/2-y
19 1/2-x,1/2-z,1/2+y
20 1/2+x,1/2-z,1/2-y
21 1/2+z,1/2+y,1/2+x
22 1/2+z,1/2-y,1/2-x
23 1/2-z,1/2+y,1/2-x
24 1/2-z,1/2-y,1/2+x
_cell_length_a                   35.614(4)
_cell_length_b                   35.614(4)
_cell_length_c                   35.614(4)
_cell_angle_alpha                90
_cell_angle_beta                 90
_cell_angle_gamma                90
_cell_volume                     45171.3
_exptl_crystal_colour            'dark red'
_exptl_crystal_description       cubic
_cell_formula_units_Z            8
loop_
_atom_site_label
_atom_site_type_symbol
_atom_site_fract_x
_atom_site_fract_y
_atom_site_fract_z
Mo1 Mo 0.28924(4) 0.55752(3) 0.15576(4)
Mo2 Mo 0.29454(4) 0.59990(3) 0.19683(3)
O1 O 0.2981(2) 0.5978(2) 0.1129(2)
O2 O 0.3043(2) 0.6414(2) 0.1584(2)
O3 O 0.43385(18) 0.8479(2) 0.2327(2)
O4 O 0.3910(2) 0.8067(2) 0.2394(3)
O5 O 0.4825(2) 0.80486(19) 0.2785(2)
O6 O 0.4379(2) 0.7619(2) 0.2817(2)
O7 O 0.3476(2) 0.54498(19) 0.1594(2)
O8 O 0.3520(2) 0.58866(18) 0.2027(2)
C1 C 0.30381(10) 0.63018(18) 0.12514(17)
C2 C 0.31070(14) 0.6572(2) 0.0932(2)
C3 C 0.3044(2) 0.64767(18) 0.0559(3)
H1 H 0.2955 0.6233 0.0496
C4 C 0.3113(2) 0.6738(3) 0.02766(19)
H2 H 0.3070 0.6672 0.0021
C5 C 0.32442(19) 0.7094(2) 0.0368(3)
C6 C 0.3307(2) 0.71889(19) 0.0741(3)
H3 H 0.3396 0.7432 0.0803
C7 C 0.3238(2) 0.6928(3) 0.1023(2)
H4 H 0.3281 0.6993 0.1278
C8 C 0.3334(3) 0.7411(2) 0.0102(3)
C9 C 0.34091(18) 0.7671(2) -0.0100(3)
C10 C 0.35049(16) 0.80094(19) -0.0336(2)
C11 C 0.34350(19) 0.80056(19) -0.0720(3)
H5 H 0.3327 0.7790 -0.0834
C12 C 0.3523(2) 0.8317(3) -0.09377(14)
H6 H 0.3475 0.8315 -0.1200
C13 C 0.3681(2) 0.86330(19) -0.0771(2)
H7 H 0.3742 0.8846 -0.0920
C14 C 0.3751(2) 0.86369(19) -0.0387(2)
H8 H 0.3859 0.8853 -0.0274
C15 C 0.36630(18) 0.8325(3) -0.01698(13)
C16 C 0.3730(3) 0.8306(4) 0.02486(14)
C17 C 0.3771(2) 0.8314(3) 0.05833(14)
C18 C 0.3855(3) 0.8306(2) 0.09990(14)
C19 C 0.4158(3) 0.8499(2) 0.1150(2)
H9 H 0.4319 0.8640 0.0991
C20 C 0.4227(2) 0.8485(2) 0.1534(3)
H10 H 0.4435 0.8616 0.1637
C21 C 0.3992(3) 0.8278(2) 0.17670(14)
C22 C 0.3688(2) 0.8085(2) 0.1616(2)
H11 H 0.3527 0.7943 0.1775
C23 C 0.3619(2) 0.8099(2) 0.1232(3)
H12 H 0.3412 0.7967 0.1129
C24 C 0.40895(18) 0.82797(19) 0.21797(14)
C25 C 0.47094(16) 0.77186(16) 0.27524(12)
C26 C 0.4989(2) 0.7426(2) 0.26278(11)
C27 C 0.5372(3) 0.74929(17) 0.2594(2)
H13 H 0.5471 0.7734 0.2651
C28 C 0.56112(17) 0.7207(3) 0.2477(2)
H14 H 0.5873 0.7253 0.2454
C29 C 0.5467(2) 0.6854(2) 0.23945(16)
C30 C 0.5084(3) 0.67867(17) 0.2428(2)
H15 H 0.4986 0.6545 0.2371
C31 C 0.48453(17) 0.7072(3) 0.2545(2)
H16 H 0.4584 0.7026 0.2568
C32 C 0.5718(3) 0.6537(2) 0.2267(2)
C33 C 0.5917(3) 0.6297(2) 0.2137(3)
C34 C 0.6178(2) 0.6019(2) 0.19531(16)
C35 C 0.6559(2) 0.61012(16) 0.1932(2)
H17 H 0.6652 0.6330 0.2033
C36 C 0.68045(12) 0.5849(2) 0.1764(2)
H18 H 0.7065 0.5905 0.1749
C37 C 0.66690(19) 0.5514(2) 0.1616(2)
H19 H 0.6837 0.5341 0.1501
C38 C 0.6288(2) 0.54313(17) 0.1637(2)
H20 H 0.6195 0.5202 0.1536
C39 C 0.60427(12) 0.5684(2) 0.18056(18)
C40 C 0.56265(12) 0.5611(3) 0.1837(3)
C41 C 0.52917(12) 0.55660(15) 0.1846(3)
C42 C 0.48677(12) 0.55777(18) 0.1817(3)
C43 C 0.4659(2) 0.5428(2) 0.1523(2)
H21 H 0.4782 0.5306 0.1320
C44 C 0.4270(2) 0.54552(19) 0.1526(2)
H22 H 0.4127 0.5353 0.1326
C45 C 0.40891(12) 0.56327(16) 0.1823(3)
C46 C 0.4298(2) 0.57828(19) 0.2117(2)
H23 H 0.4174 0.5904 0.2320
C47 C 0.4687(2) 0.5755(2) 0.2114(2)
H24 H 0.4830 0.5858 0.2314
C48 C 0.36657(12) 0.56529(18) 0.18091(18)
Mo1E Mo 0.15576(4) 0.71076(4) 0.44248(3)
Mo2E Mo 0.19683(3) 0.70546(4) 0.40010(3)
O1E O 0.1129(2) 0.7019(2) 0.4022(2)
O2E O 0.1584(2) 0.6957(2) 0.3586(2)
O3E O 0.2327(2) 0.56615(18) 0.1521(2)
O4E O 0.2394(3) 0.6090(2) 0.1933(2)
O5E O 0.2785(2) 0.5175(2) 0.19514(19)
O6E O 0.2817(2) 0.5621(2) 0.2381(2)
O7E O 0.1594(2) 0.6524(2) 0.45502(19)
O8E O 0.2027(2) 0.6480(2) 0.41134(18)
C1E C 0.12514(17) 0.69619(10) 0.36982(18)
C2E C 0.0932(2) 0.68930(14) 0.3428(2)
C3E C 0.0559(3) 0.6956(2) 0.35233(18)
H1E H 0.0496 0.7045 0.3767
C4E C 0.02766(19) 0.6887(2) 0.3262(3)
H2E H 0.0021 0.6930 0.3328
C5E C 0.0368(3) 0.67558(19) 0.2906(2)
C6E C 0.0741(3) 0.6693(2) 0.28111(19)
H3E H 0.0803 0.6604 0.2568
C7E C 0.1023(2) 0.6762(2) 0.3072(3)
H4E H 0.1278 0.6719 0.3007
C8E C 0.0102(3) 0.6666(3) 0.2589(2)
C9E C -0.0100(3) 0.65909(18) 0.2329(2)
C10E C -0.0336(2) 0.64951(16) 0.19906(19)
C11E C -0.0720(3) 0.65650(19) 0.19944(19)
H5E H -0.0834 0.6673 0.2210
C12E C -0.09377(14) 0.6477(2) 0.1683(3)
H6E H -0.1200 0.6525 0.1685
C13E C -0.0771(2) 0.6319(2) 0.13670(19)
H7E H -0.0920 0.6258 0.1154
C14E C -0.0387(2) 0.6249(2) 0.13631(19)
H8E H -0.0274 0.6141 0.1147
C15E C -0.01698(13) 0.63370(18) 0.1675(3)
C16E C 0.02486(14) 0.6270(3) 0.1694(4)
C17E C 0.05833(14) 0.6229(2) 0.1686(3)
C18E C 0.09990(14) 0.6145(3) 0.1694(2)
C19E C 0.1150(2) 0.5842(3) 0.1501(2)
H9E H 0.0991 0.5681 0.1360
C20E C 0.1534(3) 0.5773(2) 0.1515(2)
H10E H 0.1637 0.5565 0.1384
C21E C 0.17670(14) 0.6008(3) 0.1722(2)
C22E C 0.1616(2) 0.6312(2) 0.1915(2)
H11E H 0.1775 0.6473 0.2057
C23E C 0.1232(3) 0.6381(2) 0.1901(2)
H12E H 0.1129 0.6588 0.2033
C24E C 0.21797(14) 0.59105(18) 0.17203(19)
C25E C 0.27524(12) 0.52906(16) 0.22814(16)
C26E C 0.26278(11) 0.5011(2) 0.2574(2)
C27E C 0.2594(2) 0.4628(3) 0.25071(17)
H13E H 0.2651 0.4529 0.2266
C28E C 0.2477(2) 0.43888(17) 0.2793(3)
H14E H 0.2454 0.4127 0.2747
C29E C 0.23945(16) 0.4533(2) 0.3146(2)
C30E C 0.2428(2) 0.4916(3) 0.32133(17)
H15E H 0.2371 0.5014 0.3455
C31E C 0.2545(2) 0.51547(17) 0.2928(3)
H16E H 0.2568 0.5416 0.2974
C32E C 0.2267(2) 0.4282(3) 0.3463(2)
C33E C 0.2137(3) 0.4083(3) 0.3703(2)
C34E C 0.19531(16) 0.3822(2) 0.3981(2)
C35E C 0.1932(2) 0.3441(2) 0.38988(16)
H17E H 0.2033 0.3348 0.3670
C36E C 0.1764(2) 0.31955(12) 0.4151(2)
H18E H 0.1749 0.2935 0.4095
C37E C 0.1616(2) 0.33310(19) 0.4486(2)
H19E H 0.1501 0.3163 0.4659
C38E C 0.1637(2) 0.3712(2) 0.45687(17)
H20E H 0.1536 0.3805 0.4798
C39E C 0.18056(18) 0.39573(12) 0.4316(2)
C40E C 0.1837(3) 0.43735(12) 0.4389(3)
C41E C 0.1846(3) 0.47083(12) 0.44340(15)
C42E C 0.1817(3) 0.51323(12) 0.44223(18)
C43E C 0.1523(2) 0.5341(2) 0.4572(2)
H21E H 0.1320 0.5218 0.4694
C44E C 0.1526(2) 0.5730(2) 0.45448(19)
H22E H 0.1326 0.5873 0.4647
C45E C 0.1823(3) 0.59109(12) 0.43673(16)
C46E C 0.2117(2) 0.5702(2) 0.42172(19)
H23E H 0.2320 0.5826 0.4096
C47E C 0.2114(2) 0.5313(2) 0.4245(2)
H24E H 0.2314 0.5170 0.4142
C48E C 0.18091(18) 0.63343(12) 0.43471(18)
Mo1K Mo 0.44248(3) 0.84424(4) 0.28924(4)
Mo2K Mo 0.40010(3) 0.80317(3) 0.29454(4)
O1K O 0.4022(2) 0.8871(2) 0.2981(2)
O2K O 0.3586(2) 0.8416(2) 0.3043(2)
O3K O 0.1521(2) 0.7673(2) 0.43385(18)
O4K O 0.1933(2) 0.7606(3) 0.3910(2)
O5K O 0.19514(19) 0.7215(2) 0.4825(2)
O6K O 0.2381(2) 0.7183(2) 0.4379(2)
O7K O 0.45502(19) 0.8406(2) 0.3476(2)
O8K O 0.41134(18) 0.7973(2) 0.3520(2)
C1K C 0.36982(18) 0.87486(17) 0.30381(10)
C2K C 0.3428(2) 0.9068(2) 0.31070(14)
C3K C 0.35233(18) 0.9441(3) 0.3044(2)
H1K H 0.3767 0.9504 0.2955
C4K C 0.3262(3) 0.97234(19) 0.3113(2)
H2K H 0.3328 0.9979 0.3070
C5K C 0.2906(2) 0.9632(3) 0.32442(19)
C6K C 0.28111(19) 0.9259(3) 0.3307(2)
H3K H 0.2568 0.9197 0.3396
C7K C 0.3072(3) 0.8977(2) 0.3238(2)
H4K H 0.3007 0.8722 0.3281
C8K C 0.2589(2) 0.9898(3) 0.3334(3)
C9K C 0.2329(2) 1.0100(3) 0.34091(18)
C10K C 0.19906(19) 1.0336(2) 0.35049(16)
C11K C 0.19944(19) 1.0720(3) 0.34350(19)
H5K H 0.2210 1.0834 0.3327
C12K C 0.1683(3) 1.09377(14) 0.3523(2)
H6K H 0.1685 1.1200 0.3475
C13K C 0.13670(19) 1.0771(2) 0.3681(2)
H7K H 0.1154 1.0920 0.3742
C14K C 0.13631(19) 1.0387(2) 0.3751(2)
H8K H 0.1147 1.0274 0.3859
C15K C 0.1675(3) 1.01698(13) 0.36630(18)
C16K C 0.1694(4) 0.97514(14) 0.3730(3)
C17K C 0.1686(3) 0.94167(14) 0.3771(2)
C18K C 0.1694(2) 0.90010(14) 0.3855(3)
C19K C 0.1501(2) 0.8850(2) 0.4158(3)
H9K H 0.1360 0.9009 0.4319
C20K C 0.1515(2) 0.8466(3) 0.4227(2)
H10K H 0.1384 0.8363 0.4435
C21K C 0.1722(2) 0.82330(14) 0.3992(3)
C22K C 0.1915(2) 0.8384(2) 0.3688(2)
H11K H 0.2057 0.8225 0.3527
C23K C 0.1901(2) 0.8768(3) 0.3619(2)
H12K H 0.2033 0.8871 0.3412
C24K C 0.17203(19) 0.78203(14) 0.40895(18)
C25K C 0.22814(16) 0.72476(12) 0.47094(16)
C26K C 0.2574(2) 0.73722(11) 0.4989(2)
C27K C 0.25071(17) 0.7406(2) 0.5372(3)
H13K H 0.2266 0.7349 0.5471
C28K C 0.2793(3) 0.7523(2) 0.56112(17)
H14K H 0.2747 0.7546 0.5873
C29K C 0.3146(2) 0.76055(16) 0.5467(2)
C30K C 0.32133(17) 0.7572(2) 0.5084(3)
H15K H 0.3455 0.7629 0.4986
C31K C 0.2928(3) 0.7455(2) 0.48453(17)
H16K H 0.2974 0.7432 0.4584
C32K C 0.3463(2) 0.7733(2) 0.5718(3)
C33K C 0.3703(2) 0.7863(3) 0.5917(3)
C34K C 0.3981(2) 0.80469(16) 0.6178(2)
C35K C 0.38988(16) 0.8068(2) 0.6559(2)
H17K H 0.3670 0.7967 0.6652
C36K C 0.4151(2) 0.8236(2) 0.68045(12)
H18K H 0.4095 0.8251 0.7065
C37K C 0.4486(2) 0.8384(2) 0.66690(19)
H19K H 0.4659 0.8499 0.6837
C38K C 0.45687(17) 0.8363(2) 0.6288(2)
H20K H 0.4798 0.8464 0.6195
C39K C 0.4316(2) 0.81944(18) 0.60427(12)
C40K C 0.4389(3) 0.8163(3) 0.56265(12)
C41K C 0.44340(15) 0.8154(3) 0.52917(12)
C42K C 0.44223(18) 0.8183(3) 0.48677(12)
C43K C 0.4572(2) 0.8477(2) 0.4659(2)
H21K H 0.4694 0.8680 0.4782
C44K C 0.45448(19) 0.8474(2) 0.4270(2)
H22K H 0.4647 0.8674 0.4127
C45K C 0.43673(16) 0.8177(3) 0.40891(12)
C46K C 0.42172(19) 0.7883(2) 0.4298(2)
H23K H 0.4096 0.7680 0.4174
C47K C 0.4245(2) 0.7886(2) 0.4687(2)
H24K H 0.4142 0.7686 0.4830
C48K C 0.43471(18) 0.81909(18) 0.36657(12)
loop_
_geom_bond_atom_site_label_1
_geom_bond_atom_site_label_2
_geom_bond_site_symmetry_1
_geom_bond_site_symmetry_2
Mo1 Mo2 1_555 1_555
Mo2 O2 1_555 1_555
O1 Mo1 1_555 1_555
O2 C1 1_555 1_555
O3 C24 1_555 1_555
O4 C24 1_555 1_555
O5 C25 1_555 1_555
O6 C25 1_555 1_555
O7 Mo1 1_555 1_555
O8 Mo2 1_555 1_555
C1 O1 1_555 1_555
C2 C1 1_555 1_555
C3 C2 1_555 1_555
H1 C3 1_555 1_555
C4 C3 1_555 1_555
H2 C4 1_555 1_555
C5 C4 1_555 1_555
C6 C5 1_555 1_555
H3 C6 1_555 1_555
C7 C2 1_555 1_555
H4 C7 1_555 1_555
C8 C5 1_555 1_555
C9 C8 1_555 1_555
C10 C9 1_555 1_555
C11 C10 1_555 1_555
H5 C11 1_555 1_555
C12 C11 1_555 1_555
H6 C12 1_555 1_555
C13 C12 1_555 1_555
H7 C13 1_555 1_555
C14 C13 1_555 1_555
H8 C14 1_555 1_555
C15 C10 1_555 1_555
C16 C15 1_555 1_555
C17 C16 1_555 1_555
C18 C17 1_555 1_555
C19 C18 1_555 1_555
H9 C19 1_555 1_555
C20 C19 1_555 1_555
H10 C20 1_555 1_555
C21 C20 1_555 1_555
C22 C21 1_555 1_555
H11 C22 1_555 1_555
C23 C18 1_555 1_555
H12 C23 1_555 1_555
C24 C21 1_555 1_555
C25 C26 1_555 1_555
C26 C27 1_555 1_555
C27 H13 1_555 1_555
C28 C27 1_555 1_555
H14 C28 1_555 1_555
C29 C28 1_555 1_555
C30 C29 1_555 1_555
H15 C30 1_555 1_555
C31 C26 1_555 1_555
H16 C31 1_555 1_555
C32 C29 1_555 1_555
C33 C32 1_555 1_555
C34 C33 1_555 1_555
C35 C34 1_555 1_555
H17 C35 1_555 1_555
C36 C35 1_555 1_555
H18 C36 1_555 1_555
C37 C36 1_555 1_555
H19 C37 1_555 1_555
C38 C37 1_555 1_555
H20 C38 1_555 1_555
C39 C34 1_555 1_555
C40 C39 1_555 1_555
C41 C40 1_555 1_555
C42 C41 1_555 1_555
C43 C42 1_555 1_555
H21 C43 1_555 1_555
C44 C43 1_555 1_555
H22 C44 1_555 1_555
C45 C44 1_555 1_555
C46 C45 1_555 1_555
H23 C46 1_555 1_555
C47 C42 1_555 1_555
H24 C47 1_555 1_555
C48 O7 1_555 1_555
Mo1E Mo2E 1_555 1_555
Mo2E O2E 1_555 1_555
O1E Mo1E 1_555 1_555
O2E C1E 1_555 1_555
O3E Mo1 1_555 1_555
O4E Mo2 1_555 1_555
O5E Mo1 1_555 1_555
O6E Mo2 1_555 1_555
O7E Mo1E 1_555 1_555
O8E Mo2E 1_555 1_555
C1E O1E 1_555 1_555
C2E C1E 1_555 1_555
C3E C2E 1_555 1_555
H1E C3E 1_555 1_555
C4E C3E 1_555 1_555
H2E C4E 1_555 1_555
C5E C4E 1_555 1_555
C6E C5E 1_555 1_555
H3E C6E 1_555 1_555
C7E C2E 1_555 1_555
H4E C7E 1_555 1_555
C8E C5E 1_555 1_555
C9E C8E 1_555 1_555
C10E C9E 1_555 1_555
C11E C10E 1_555 1_555
H5E C11E 1_555 1_555
C12E C11E 1_555 1_555
H6E C12E 1_555 1_555
C13E C12E 1_555 1_555
H7E C13E 1_555 1_555
C14E C13E 1_555 1_555
H8E C14E 1_555 1_555
C15E C10E 1_555 1_555
C16E C15E 1_555 1_555
C17E C16E 1_555 1_555
C18E C17E 1_555 1_555
C19E C18E 1_555 1_555
H9E C19E 1_555 1_555
C20E C19E 1_555 1_555
H10E C20E 1_555 1_555
C21E C20E 1_555 1_555
C22E C21E 1_555 1_555
H11E C22E 1_555 1_555
C23E C18E 1_555 1_555
H12E C23E 1_555 1_555
C24E O3E 1_555 1_555
C25E O5E 1_555 1_555
C26E C25E 1_555 1_555
C27E C26E 1_555 1_555
H13E C27E 1_555 1_555
C28E C27E 1_555 1_555
H14E C28E 1_555 1_555
C29E C28E 1_555 1_555
C30E C29E 1_555 1_555
H15E C30E 1_555 1_555
C31E C26E 1_555 1_555
H16E C31E 1_555 1_555
C32E C29E 1_555 1_555
C33E C32E 1_555 1_555
C34E C33E 1_555 1_555
C35E C34E 1_555 1_555
H17E C35E 1_555 1_555
C36E C35E 1_555 1_555
H18E C36E 1_555 1_555
C37E C36E 1_555 1_555
H19E C37E 1_555 1_555
C38E C37E 1_555 1_555
H20E C38E 1_555 1_555
C39E C34E 1_555 1_555
C40E C39E 1_555 1_555
C41E C40E 1_555 1_555
C42E C41E 1_555 1_555
C43E C42E 1_555 1_555
H21E C43E 1_555 1_555
C44E C43E 1_555 1_555
H22E C44E 1_555 1_555
C45E C44E 1_555 1_555
C46E C45E 1_555 1_555
H23E C46E 1_555 1_555
C47E C42E 1_555 1_555
H24E C47E 1_555 1_555
C48E O7E 1_555 1_555
Mo1K O3 1_555 1_555
Mo2K O4 1_555 1_555
O1K Mo1K 1_555 1_555
O2K Mo2K 1_555 1_555
O3K Mo1E 1_555 1_555
O4K Mo2E 1_555 1_555
O5K Mo1E 1_555 1_555
O6K Mo2E 1_555 1_555
O7K Mo1K 1_555 1_555
O8K Mo2K 1_555 1_555
C1K O1K 1_555 1_555
C2K C1K 1_555 1_555
C3K C2K 1_555 1_555
H1K C3K 1_555 1_555
C4K C3K 1_555 1_555
H2K C4K 1_555 1_555
C5K C4K 1_555 1_555
C6K C5K 1_555 1_555
H3K C6K 1_555 1_555
C7K C2K 1_555 1_555
H4K C7K 1_555 1_555
C8K C5K 1_555 1_555
C9K C8K 1_555 1_555
C10K C9K 1_555 1_555
C11K C10K 1_555 1_555
H5K C11K 1_555 1_555
C12K C11K 1_555 1_555
H6K C12K 1_555 1_555
C13K C12K 1_555 1_555
H7K C13K 1_555 1_555
C14K C13K 1_555 1_555
H8K C14K 1_555 1_555
C15K C10K 1_555 1_555
C16K C15K 1_555 1_555
C17K C16K 1_555 1_555
C18K C17K 1_555 1_555
C19K C18K 1_555 1_555
H9K C19K 1_555 1_555
C20K C19K 1_555 1_555
H10K C20K 1_555 1_555
C21K C20K 1_555 1_555
C22K C21K 1_555 1_555
H11K C22K 1_555 1_555
C23K C18K 1_555 1_555
H12K C23K 1_555 1_555
C24K O3K 1_555 1_555
C25K O5K 1_555 1_555
C26K C25K 1_555 1_555
C27K C26K 1_555 1_555
H13K C27K 1_555 1_555
C28K C27K 1_555 1_555
H14K C28K 1_555 1_555
C29K C28K 1_555 1_555
C30K C29K 1_555 1_555
H15K C30K 1_555 1_555
C31K C26K 1_555 1_555
H16K C31K 1_555 1_555
C32K C29K 1_555 1_555
C33K C32K 1_555 1_555
C34K C33K 1_555 1_555
C35K C34K 1_555 1_555
H17K C35K 1_555 1_555
C36K C35K 1_555 1_555
H18K C36K 1_555 1_555
C37K C36K 1_555 1_555
H19K C37K 1_555 1_555
C38K C37K 1_555 1_555
H20K C38K 1_555 1_555
C39K C34K 1_555 1_555
C40K C39K 1_555 1_555
C41K C40K 1_555 1_555
C42K C41K 1_555 1_555
C43K C42K 1_555 1_555
H21K C43K 1_555 1_555
C44K C43K 1_555 1_555
H22K C44K 1_555 1_555
C45K C44K 1_555 1_555
C46K C45K 1_555 1_555
H23K C46K 1_555 1_555
C47K C42K 1_555 1_555
H24K C47K 1_555 1_555
C48K O7K 1_555 1_555
O5 Mo1K 1_555 1_555
O6 Mo2K 1_555 1_555
O8 C48 1_555 1_555
C6 C7 1_555 1_555
C14 C15 1_555 1_555
C22 C23 1_555 1_555
C30 C31 1_555 1_555
C38 C39 1_555 1_555
C45 C48 1_555 1_555
C46 C47 1_555 1_555
O4E C24E 1_555 1_555
O6E C25E 1_555 1_555
O8E C48E 1_555 1_555
C6E C7E 1_555 1_555
C14E C15E 1_555 1_555
C21E C24E 1_555 1_555
C22E C23E 1_555 1_555
C30E C31E 1_555 1_555
C38E C39E 1_555 1_555
C45E C48E 1_555 1_555
C46E C47E 1_555 1_555
Mo1K Mo2K 1_555 1_555
O2K C1K 1_555 1_555
O4K C24K 1_555 1_555
O6K C25K 1_555 1_555
O8K C48K 1_555 1_555
C6K C7K 1_555 1_555
C14K C15K 1_555 1_555
C21K C24K 1_555 1_555
C22K C23K 1_555 1_555
C30K C31K 1_555 1_555
C38K C39K 1_555 1_555
C45K C48K 1_555 1_555
C46K C47K 1_555 1_555

#END
