# generated using pymatgen
data_Mo6H117C164(NO6)5
_symmetry_space_group_name_H-M   'P 1'
_cell_length_a   16.95600000
_cell_length_b   30.70703987
_cell_length_c   42.66300000
_cell_angle_alpha   90.00000000
_cell_angle_beta   90.00000000
_cell_angle_gamma   97.15935656
_symmetry_Int_Tables_number   1
_chemical_formula_structural   Mo6H117C164(NO6)5
_chemical_formula_sum   'Mo24 H468 C656 N20 O120'
_cell_volume   22040.09411017
_cell_formula_units_Z   4
loop_
 _symmetry_equiv_pos_site_id
 _symmetry_equiv_pos_as_xyz
  1  'x, y, z'
loop_
 _atom_site_type_symbol
 _atom_site_label
 _atom_site_symmetry_multiplicity
 _atom_site_fract_x
 _atom_site_fract_y
 _atom_site_fract_z
 _atom_site_occupancy
  Mo  Mo1  1  0.060120  0.884260  0.227550  1
  Mo  Mo2  1  0.439880  0.615740  0.727550  1
  Mo  Mo3  1  0.939880  0.115740  0.772450  1
  Mo  Mo4  1  0.560120  0.384260  0.272450  1
  Mo  Mo5  1  0.977710  0.847640  0.197350  1
  Mo  Mo6  1  0.522290  0.652360  0.697350  1
  Mo  Mo7  1  0.022290  0.152360  0.802650  1
  Mo  Mo8  1  0.477710  0.347640  0.302650  1
  Mo  Mo9  1  0.755710  0.524610  0.122470  1
  Mo  Mo10  1  0.744290  0.975390  0.622470  1
  Mo  Mo11  1  0.244290  0.475390  0.877530  1
  Mo  Mo12  1  0.255710  0.024610  0.377530  1
  Mo  Mo13  1  0.772460  0.593830  0.124210  1
  Mo  Mo14  1  0.727540  0.906170  0.624210  1
  Mo  Mo15  1  0.227540  0.406170  0.875790  1
  Mo  Mo16  1  0.272460  0.093830  0.375790  1
  Mo  Mo17  1  0.498870  0.873710  0.034670  1
  Mo  Mo18  1  0.001130  0.626290  0.534670  1
  Mo  Mo19  1  0.501130  0.126290  0.965330  1
  Mo  Mo20  1  0.998870  0.373710  0.465330  1
  Mo  Mo21  1  0.567570  0.839730  0.065190  1
  Mo  Mo22  1  0.932430  0.660270  0.565190  1
  Mo  Mo23  1  0.432430  0.160270  0.934810  1
  Mo  Mo24  1  0.067570  0.339730  0.434810  1
  H  H25  1  0.040600  0.792200  0.311900  1
  H  H26  1  0.459400  0.707800  0.811900  1
  H  H27  1  0.959400  0.207800  0.688100  1
  H  H28  1  0.540600  0.292200  0.188100  1
  H  H29  1  0.005600  0.738500  0.350000  1
  H  H30  1  0.494400  0.761500  0.850000  1
  H  H31  1  0.994400  0.261500  0.650000  1
  H  H32  1  0.505600  0.238500  0.150000  1
  H  H33  1  0.797700  0.701800  0.304700  1
  H  H34  1  0.702300  0.798200  0.804700  1
  H  H35  1  0.202300  0.298200  0.695300  1
  H  H36  1  0.297700  0.201800  0.195300  1
  H  H37  1  0.832800  0.755600  0.266600  1
  H  H38  1  0.667200  0.744400  0.766600  1
  H  H39  1  0.167200  0.244400  0.733400  1
  H  H40  1  0.332800  0.255600  0.233400  1
  H  H41  1  0.896500  0.643400  0.429300  1
  H  H42  1  0.603500  0.856600  0.929300  1
  H  H43  1  0.103500  0.356600  0.570700  1
  H  H44  1  0.396500  0.143400  0.070700  1
  H  H45  1  0.871400  0.583900  0.463600  1
  H  H46  1  0.628600  0.916100  0.963600  1
  H  H47  1  0.128600  0.416100  0.536400  1
  H  H48  1  0.371400  0.083900  0.036400  1
  H  H49  1  0.812200  0.515900  0.444900  1
  H  H50  1  0.687800  0.984100  0.944900  1
  H  H51  1  0.187800  0.484100  0.555100  1
  H  H52  1  0.312200  0.015900  0.055100  1
  H  H53  1  0.778100  0.507500  0.391900  1
  H  H54  1  0.721900  0.992500  0.891900  1
  H  H55  1  0.221900  0.492500  0.608100  1
  H  H56  1  0.278100  0.007500  0.108100  1
  H  H57  1  0.723000  0.492300  0.282800  1
  H  H58  1  0.777000  0.007700  0.782800  1
  H  H59  1  0.277000  0.507700  0.717200  1
  H  H60  1  0.223000  0.992300  0.217200  1
  H  H61  1  0.711300  0.491400  0.228100  1
  H  H62  1  0.788700  0.008600  0.728100  1
  H  H63  1  0.288700  0.508600  0.771900  1
  H  H64  1  0.211300  0.991400  0.271900  1
  H  H65  1  0.791100  0.621300  0.225200  1
  H  H66  1  0.708900  0.878700  0.725200  1
  H  H67  1  0.208900  0.378700  0.774800  1
  H  H68  1  0.291100  0.121300  0.274800  1
  H  H69  1  0.803000  0.622300  0.279900  1
  H  H70  1  0.697000  0.877700  0.779900  1
  H  H71  1  0.197000  0.377700  0.720100  1
  H  H72  1  0.303000  0.122300  0.220100  1
  H  H73  1  0.260500  0.801000  0.229000  1
  H  H74  1  0.239500  0.699000  0.729000  1
  H  H75  1  0.739500  0.199000  0.771000  1
  H  H76  1  0.760500  0.301000  0.271000  1
  H  H77  1  0.346000  0.747300  0.223500  1
  H  H78  1  0.154000  0.752700  0.723500  1
  H  H79  1  0.654000  0.252700  0.776500  1
  H  H80  1  0.846000  0.247300  0.276500  1
  H  H81  1  0.216000  0.695500  0.149700  1
  H  H82  1  0.284000  0.804500  0.649700  1
  H  H83  1  0.784000  0.304500  0.850300  1
  H  H84  1  0.716000  0.195500  0.350300  1
  H  H85  1  0.130500  0.749200  0.155200  1
  H  H86  1  0.369500  0.750800  0.655200  1
  H  H87  1  0.869500  0.250800  0.844800  1
  H  H88  1  0.630500  0.249200  0.344800  1
  H  H89  1  0.529000  0.658600  0.197700  1
  H  H90  1  0.971000  0.841400  0.697700  1
  H  H91  1  0.471000  0.341400  0.802300  1
  H  H92  1  0.029000  0.158600  0.302300  1
  H  H93  1  0.612300  0.603600  0.201900  1
  H  H94  1  0.887700  0.896400  0.701900  1
  H  H95  1  0.387700  0.396400  0.798100  1
  H  H96  1  0.112300  0.103600  0.298100  1
  H  H97  1  0.562100  0.530400  0.192100  1
  H  H98  1  0.937900  0.969600  0.692100  1
  H  H99  1  0.437900  0.469600  0.807900  1
  H  H100  1  0.062100  0.030400  0.307900  1
  H  H101  1  0.428500  0.512200  0.178200  1
  H  H102  1  0.071500  0.987800  0.678200  1
  H  H103  1  0.571500  0.487800  0.821800  1
  H  H104  1  0.928500  0.012200  0.321800  1
  H  H105  1  0.165100  0.623100  0.160000  1
  H  H106  1  0.334900  0.876900  0.660000  1
  H  H107  1  0.834900  0.376900  0.840000  1
  H  H108  1  0.665100  0.123100  0.340000  1
  H  H109  1  0.031600  0.623400  0.146300  1
  H  H110  1  0.468400  0.876600  0.646300  1
  H  H111  1  0.968400  0.376600  0.853700  1
  H  H112  1  0.531600  0.123400  0.353700  1
  H  H113  1  0.003600  0.490500  0.141500  1
  H  H114  1  0.496400  0.009500  0.641500  1
  H  H115  1  0.996400  0.509500  0.858500  1
  H  H116  1  0.503600  0.990500  0.358500  1
  H  H117  1  0.137200  0.490200  0.155200  1
  H  H118  1  0.362800  0.009800  0.655200  1
  H  H119  1  0.862800  0.509800  0.844800  1
  H  H120  1  0.637200  0.990200  0.344800  1
  H  H121  1  0.114800  0.006900  0.167600  1
  H  H122  1  0.385200  0.493100  0.667600  1
  H  H123  1  0.885200  0.993100  0.832400  1
  H  H124  1  0.614800  0.506900  0.332400  1
  H  H125  1  0.131700  0.059200  0.127500  1
  H  H126  1  0.368300  0.440800  0.627500  1
  H  H127  1  0.868300  0.940800  0.872500  1
  H  H128  1  0.631700  0.559200  0.372500  1
  H  H129  1  0.067900  0.964100  0.063300  1
  H  H130  1  0.432100  0.535900  0.563300  1
  H  H131  1  0.932100  0.035900  0.936700  1
  H  H132  1  0.567900  0.464100  0.436700  1
  H  H133  1  0.050900  0.911700  0.103300  1
  H  H134  1  0.449100  0.588300  0.603300  1
  H  H135  1  0.949100  0.088300  0.896700  1
  H  H136  1  0.550900  0.411700  0.396700  1
  H  H137  1  0.230900  0.133300  0.025500  1
  H  H138  1  0.269100  0.366700  0.525500  1
  H  H139  1  0.769100  0.866700  0.974500  1
  H  H140  1  0.730900  0.633300  0.474500  1
  H  H141  1  0.232400  0.180000  0.982100  1
  H  H142  1  0.267600  0.320000  0.482100  1
  H  H143  1  0.767600  0.820000  0.017900  1
  H  H144  1  0.732400  0.680000  0.517900  1
  H  H145  1  0.120500  0.177500  0.949700  1
  H  H146  1  0.379500  0.322500  0.449700  1
  H  H147  1  0.879500  0.822500  0.050300  1
  H  H148  1  0.620500  0.677500  0.550300  1
  H  H149  1  0.007100  0.128300  0.960800  1
  H  H150  1  0.492900  0.371700  0.460800  1
  H  H151  1  0.992900  0.871700  0.039200  1
  H  H152  1  0.507100  0.628300  0.539200  1
  H  H153  1  0.783300  0.038900  0.991200  1
  H  H154  1  0.716700  0.461100  0.491200  1
  H  H155  1  0.216700  0.961100  0.008800  1
  H  H156  1  0.283300  0.538900  0.508800  1
  H  H157  1  0.674100  0.986500  0.001600  1
  H  H158  1  0.825900  0.513500  0.501600  1
  H  H159  1  0.325900  0.013500  0.998400  1
  H  H160  1  0.174100  0.486500  0.498400  1
  H  H161  1  0.809300  0.923500  0.060500  1
  H  H162  1  0.690700  0.576500  0.560500  1
  H  H163  1  0.190700  0.076500  0.939500  1
  H  H164  1  0.309300  0.423500  0.439500  1
  H  H165  1  0.918500  0.975900  0.050100  1
  H  H166  1  0.581500  0.524100  0.550100  1
  H  H167  1  0.081500  0.024100  0.949900  1
  H  H168  1  0.418500  0.475900  0.449900  1
  H  H169  1  0.941000  0.002900  0.248500  1
  H  H170  1  0.559000  0.497100  0.748500  1
  H  H171  1  0.059000  0.997100  0.751500  1
  H  H172  1  0.441000  0.502900  0.251500  1
  H  H173  1  0.853800  0.055300  0.256400  1
  H  H174  1  0.646200  0.444700  0.756400  1
  H  H175  1  0.146200  0.944700  0.743600  1
  H  H176  1  0.353800  0.555300  0.243600  1
  H  H177  1  0.672900  0.971000  0.220800  1
  H  H178  1  0.827100  0.529000  0.720800  1
  H  H179  1  0.327100  0.029000  0.779200  1
  H  H180  1  0.172900  0.471000  0.279200  1
  H  H181  1  0.760200  0.918700  0.212900  1
  H  H182  1  0.739800  0.581300  0.712900  1
  H  H183  1  0.239800  0.081300  0.787100  1
  H  H184  1  0.260200  0.418700  0.287100  1
  H  H185  1  0.671800  0.149200  0.282100  1
  H  H186  1  0.828200  0.350800  0.782100  1
  H  H187  1  0.328200  0.850800  0.717900  1
  H  H188  1  0.171800  0.649200  0.217900  1
  H  H189  1  0.591000  0.205600  0.284200  1
  H  H190  1  0.909000  0.294400  0.784200  1
  H  H191  1  0.409000  0.794400  0.715800  1
  H  H192  1  0.091000  0.705600  0.215800  1
  H  H193  1  0.479400  0.203200  0.251600  1
  H  H194  1  0.020600  0.296800  0.751600  1
  H  H195  1  0.520600  0.796800  0.748400  1
  H  H196  1  0.979400  0.703200  0.248400  1
  H  H197  1  0.448800  0.144500  0.217000  1
  H  H198  1  0.051200  0.355500  0.717000  1
  H  H199  1  0.551200  0.855500  0.783000  1
  H  H200  1  0.948800  0.644500  0.283000  1
  H  H201  1  0.456700  0.042900  0.132500  1
  H  H202  1  0.043300  0.457100  0.632500  1
  H  H203  1  0.543300  0.957100  0.867500  1
  H  H204  1  0.956700  0.542900  0.367500  1
  H  H205  1  0.454400  0.987600  0.094600  1
  H  H206  1  0.045600  0.512400  0.594600  1
  H  H207  1  0.545600  0.012400  0.905400  1
  H  H208  1  0.954400  0.487600  0.405400  1
  H  H209  1  0.547200  0.909300  0.157600  1
  H  H210  1  0.952800  0.590700  0.657600  1
  H  H211  1  0.452800  0.090700  0.842400  1
  H  H212  1  0.047200  0.409300  0.342400  1
  H  H213  1  0.549400  0.964600  0.195500  1
  H  H214  1  0.950600  0.535400  0.695500  1
  H  H215  1  0.450600  0.035400  0.804500  1
  H  H216  1  0.049400  0.464600  0.304500  1
  H  H217  1  0.740700  0.504700  0.016900  1
  H  H218  1  0.759300  0.995300  0.516900  1
  H  H219  1  0.259300  0.495300  0.983100  1
  H  H220  1  0.240700  0.004700  0.483100  1
  H  H221  1  0.725600  0.511600  0.962700  1
  H  H222  1  0.774400  0.988400  0.462700  1
  H  H223  1  0.274400  0.488400  0.037300  1
  H  H224  1  0.225600  0.011600  0.537300  1
  H  H225  1  0.793900  0.642600  0.969300  1
  H  H226  1  0.706100  0.857400  0.469300  1
  H  H227  1  0.206100  0.357400  0.030700  1
  H  H228  1  0.293900  0.142600  0.530700  1
  H  H229  1  0.809000  0.635700  0.023600  1
  H  H230  1  0.691000  0.864300  0.523600  1
  H  H231  1  0.191000  0.364300  0.976400  1
  H  H232  1  0.309000  0.135700  0.476400  1
  H  H233  1  0.744300  0.539200  0.851900  1
  H  H234  1  0.755700  0.960800  0.351900  1
  H  H235  1  0.255700  0.460800  0.148100  1
  H  H236  1  0.244300  0.039200  0.648100  1
  H  H237  1  0.704200  0.547800  0.800000  1
  H  H238  1  0.795800  0.952200  0.300000  1
  H  H239  1  0.295800  0.452200  0.200000  1
  H  H240  1  0.204200  0.047800  0.700000  1
  H  H241  1  0.637100  0.607200  0.786400  1
  H  H242  1  0.862900  0.892800  0.286400  1
  H  H243  1  0.362900  0.392800  0.213600  1
  H  H244  1  0.137100  0.107200  0.713600  1
  H  H245  1  0.610100  0.657900  0.824600  1
  H  H246  1  0.889900  0.842100  0.324600  1
  H  H247  1  0.389900  0.342100  0.175400  1
  H  H248  1  0.110100  0.157900  0.675400  1
  H  H249  1  0.528400  0.744200  0.904800  1
  H  H250  1  0.971600  0.755800  0.404800  1
  H  H251  1  0.471600  0.255800  0.095200  1
  H  H252  1  0.028400  0.244200  0.595200  1
  H  H253  1  0.501700  0.791900  0.945100  1
  H  H254  1  0.998300  0.708100  0.445100  1
  H  H255  1  0.498300  0.208100  0.054900  1
  H  H256  1  0.001700  0.291900  0.554900  1
  H  H257  1  0.669700  0.745900  0.999200  1
  H  H258  1  0.830300  0.754100  0.499200  1
  H  H259  1  0.330300  0.254100  0.000800  1
  H  H260  1  0.169700  0.245900  0.500800  1
  H  H261  1  0.696300  0.698100  0.958900  1
  H  H262  1  0.803700  0.801900  0.458900  1
  H  H263  1  0.303700  0.301900  0.041100  1
  H  H264  1  0.196300  0.198100  0.541100  1
  H  H265  1  0.495000  0.492700  0.105600  1
  H  H266  1  0.005000  0.007300  0.605600  1
  H  H267  1  0.505000  0.507300  0.894400  1
  H  H268  1  0.995000  0.992700  0.394400  1
  H  H269  1  0.360000  0.491300  0.093700  1
  H  H270  1  0.140000  0.008700  0.593700  1
  H  H271  1  0.640000  0.508700  0.906300  1
  H  H272  1  0.860000  0.991300  0.406300  1
  H  H273  1  0.384200  0.624200  0.095800  1
  H  H274  1  0.115800  0.875800  0.595800  1
  H  H275  1  0.615800  0.375800  0.904200  1
  H  H276  1  0.884200  0.124200  0.404200  1
  H  H277  1  0.519200  0.625700  0.107700  1
  H  H278  1  0.980800  0.874300  0.607700  1
  H  H279  1  0.480800  0.374300  0.892300  1
  H  H280  1  0.019200  0.125700  0.392300  1
  H  H281  1  0.121500  0.475500  0.071400  1
  H  H282  1  0.378500  0.024500  0.571400  1
  H  H283  1  0.878500  0.524500  0.928600  1
  H  H284  1  0.621500  0.975500  0.428600  1
  H  H285  1  0.986200  0.459900  0.059300  1
  H  H286  1  0.513800  0.040100  0.559300  1
  H  H287  1  0.013800  0.540100  0.940700  1
  H  H288  1  0.486200  0.959900  0.440700  1
  H  H289  1  0.909600  0.517300  0.051400  1
  H  H290  1  0.590400  0.982700  0.551400  1
  H  H291  1  0.090400  0.482700  0.948600  1
  H  H292  1  0.409600  0.017300  0.448600  1
  H  H293  1  0.968100  0.590200  0.055600  1
  H  H294  1  0.531900  0.909800  0.555600  1
  H  H295  1  0.031900  0.409800  0.944400  1
  H  H296  1  0.468100  0.090200  0.444400  1
  H  H297  1  0.157000  0.731700  0.039700  1
  H  H298  1  0.343000  0.768300  0.539700  1
  H  H299  1  0.843000  0.268300  0.960300  1
  H  H300  1  0.657000  0.231700  0.460300  1
  H  H301  1  0.259700  0.789900  0.036300  1
  H  H302  1  0.240300  0.710100  0.536300  1
  H  H303  1  0.740300  0.210100  0.963700  1
  H  H304  1  0.759700  0.289900  0.463700  1
  H  H305  1  0.391500  0.727200  0.096800  1
  H  H306  1  0.108500  0.772800  0.596800  1
  H  H307  1  0.608500  0.272800  0.903200  1
  H  H308  1  0.891500  0.227200  0.403200  1
  H  H309  1  0.288800  0.669000  0.100200  1
  H  H310  1  0.211200  0.831000  0.600200  1
  H  H311  1  0.711200  0.331000  0.899800  1
  H  H312  1  0.788800  0.169000  0.399800  1
  H  H313  1  0.069900  0.959700  0.301600  1
  H  H314  1  0.430100  0.540300  0.801600  1
  H  H315  1  0.930100  0.040300  0.698400  1
  H  H316  1  0.569900  0.459700  0.198400  1
  H  H317  1  0.117700  0.951100  0.332900  1
  H  H318  1  0.382300  0.548900  0.832900  1
  H  H319  1  0.882300  0.048900  0.667100  1
  H  H320  1  0.617700  0.451100  0.167100  1
  H  H321  1  0.038100  0.919800  0.324200  1
  H  H322  1  0.461900  0.580200  0.824200  1
  H  H323  1  0.961900  0.080200  0.675800  1
  H  H324  1  0.538100  0.419800  0.175800  1
  H  H325  1  0.106000  0.888300  0.352900  1
  H  H326  1  0.394000  0.611700  0.852900  1
  H  H327  1  0.894000  0.111700  0.647100  1
  H  H328  1  0.606000  0.388300  0.147100  1
  H  H329  1  0.189500  0.870400  0.358600  1
  H  H330  1  0.310500  0.629600  0.858600  1
  H  H331  1  0.810500  0.129600  0.641400  1
  H  H332  1  0.689500  0.370400  0.141400  1
  H  H333  1  0.113800  0.837300  0.348000  1
  H  H334  1  0.386200  0.662700  0.848000  1
  H  H335  1  0.886200  0.162700  0.652000  1
  H  H336  1  0.613800  0.337300  0.152000  1
  H  H337  1  0.225300  0.858100  0.276400  1
  H  H338  1  0.274700  0.641900  0.776400  1
  H  H339  1  0.774700  0.141900  0.723600  1
  H  H340  1  0.725300  0.358100  0.223600  1
  H  H341  1  0.190000  0.817600  0.298000  1
  H  H342  1  0.310000  0.682400  0.798000  1
  H  H343  1  0.810000  0.182400  0.702000  1
  H  H344  1  0.690000  0.317600  0.202000  1
  H  H345  1  0.265200  0.850200  0.309600  1
  H  H346  1  0.234800  0.649800  0.809600  1
  H  H347  1  0.734800  0.149800  0.690400  1
  H  H348  1  0.765200  0.350200  0.190400  1
  H  H349  1  0.905900  0.865000  0.115800  1
  H  H350  1  0.594100  0.635000  0.615800  1
  H  H351  1  0.094100  0.135000  0.884200  1
  H  H352  1  0.405900  0.365000  0.384200  1
  H  H353  1  0.848700  0.898900  0.128300  1
  H  H354  1  0.651300  0.601100  0.628300  1
  H  H355  1  0.151300  0.101100  0.871700  1
  H  H356  1  0.348700  0.398900  0.371700  1
  H  H357  1  0.814900  0.860200  0.105000  1
  H  H358  1  0.685100  0.639800  0.605000  1
  H  H359  1  0.185100  0.139800  0.895000  1
  H  H360  1  0.314900  0.360200  0.395000  1
  H  H361  1  0.725400  0.880400  0.129500  1
  H  H362  1  0.774600  0.619600  0.629500  1
  H  H363  1  0.274600  0.119600  0.870500  1
  H  H364  1  0.225400  0.380400  0.370500  1
  H  H365  1  0.686000  0.885600  0.163200  1
  H  H366  1  0.814000  0.614400  0.663200  1
  H  H367  1  0.314000  0.114400  0.836800  1
  H  H368  1  0.186000  0.385600  0.336800  1
  H  H369  1  0.653200  0.845500  0.140900  1
  H  H370  1  0.846800  0.654500  0.640900  1
  H  H371  1  0.346800  0.154500  0.859100  1
  H  H372  1  0.153200  0.345500  0.359100  1
  H  H373  1  0.774500  0.794500  0.195300  1
  H  H374  1  0.725500  0.705500  0.695300  1
  H  H375  1  0.225500  0.205500  0.804700  1
  H  H376  1  0.274500  0.294500  0.304700  1
  H  H377  1  0.685000  0.789900  0.182700  1
  H  H378  1  0.815000  0.710100  0.682700  1
  H  H379  1  0.315000  0.210100  0.817300  1
  H  H380  1  0.185000  0.289900  0.317300  1
  H  H381  1  0.716900  0.829400  0.205700  1
  H  H382  1  0.783100  0.670600  0.705700  1
  H  H383  1  0.283100  0.170600  0.794300  1
  H  H384  1  0.216900  0.329400  0.294300  1
  H  H385  1  0.942500  0.690600  0.141600  1
  H  H386  1  0.557500  0.809400  0.641600  1
  H  H387  1  0.057500  0.309400  0.858400  1
  H  H388  1  0.442500  0.190600  0.358400  1
  H  H389  1  0.926400  0.684300  0.178400  1
  H  H390  1  0.573600  0.815700  0.678400  1
  H  H391  1  0.073600  0.315700  0.821600  1
  H  H392  1  0.426400  0.184300  0.321600  1
  H  H393  1  0.926500  0.731700  0.162700  1
  H  H394  1  0.573500  0.768300  0.662700  1
  H  H395  1  0.073500  0.268300  0.837300  1
  H  H396  1  0.426500  0.231700  0.337300  1
  H  H397  1  0.862100  0.715400  0.206500  1
  H  H398  1  0.637900  0.784600  0.706500  1
  H  H399  1  0.137900  0.284600  0.793500  1
  H  H400  1  0.362100  0.215400  0.293500  1
  H  H401  1  0.780300  0.693500  0.221500  1
  H  H402  1  0.719700  0.806500  0.721500  1
  H  H403  1  0.219700  0.306500  0.778500  1
  H  H404  1  0.280300  0.193500  0.278500  1
  H  H405  1  0.789500  0.743600  0.210400  1
  H  H406  1  0.710500  0.756400  0.710400  1
  H  H407  1  0.210500  0.256400  0.789600  1
  H  H408  1  0.289500  0.243600  0.289600  1
  H  H409  1  0.679500  0.687800  0.147100  1
  H  H410  1  0.820500  0.812200  0.647100  1
  H  H411  1  0.320500  0.312200  0.852900  1
  H  H412  1  0.179500  0.187800  0.352900  1
  H  H413  1  0.674900  0.728400  0.170300  1
  H  H414  1  0.825100  0.771600  0.670300  1
  H  H415  1  0.325100  0.271600  0.829700  1
  H  H416  1  0.174900  0.228400  0.329700  1
  H  H417  1  0.660600  0.679200  0.183500  1
  H  H418  1  0.839400  0.820800  0.683500  1
  H  H419  1  0.339400  0.320800  0.816500  1
  H  H420  1  0.160600  0.179200  0.316500  1
  H  H421  1  0.295100  0.864700  0.988500  1
  H  H422  1  0.204900  0.635300  0.488500  1
  H  H423  1  0.704900  0.135300  0.011500  1
  H  H424  1  0.795100  0.364700  0.511500  1
  H  H425  1  0.331200  0.862900  0.953900  1
  H  H426  1  0.168800  0.637100  0.453900  1
  H  H427  1  0.668800  0.137100  0.046100  1
  H  H428  1  0.831200  0.362900  0.546100  1
  H  H429  1  0.272400  0.898200  0.962200  1
  H  H430  1  0.227600  0.601800  0.462200  1
  H  H431  1  0.727600  0.101800  0.037800  1
  H  H432  1  0.772400  0.398200  0.537800  1
  H  H433  1  0.357300  0.910200  0.923200  1
  H  H434  1  0.142700  0.589800  0.423200  1
  H  H435  1  0.642700  0.089800  0.076800  1
  H  H436  1  0.857300  0.410200  0.576800  1
  H  H437  1  0.442100  0.934900  0.912900  1
  H  H438  1  0.057900  0.565100  0.412900  1
  H  H439  1  0.557900  0.065100  0.087100  1
  H  H440  1  0.942100  0.434900  0.587100  1
  H  H441  1  0.369400  0.962400  0.919200  1
  H  H442  1  0.130600  0.537600  0.419200  1
  H  H443  1  0.630600  0.037600  0.080800  1
  H  H444  1  0.869400  0.462400  0.580800  1
  H  H445  1  0.483800  0.979300  0.989900  1
  H  H446  1  0.016200  0.520700  0.489900  1
  H  H447  1  0.516200  0.020700  0.010100  1
  H  H448  1  0.983800  0.479300  0.510100  1
  H  H449  1  0.463700  0.005400  0.959100  1
  H  H450  1  0.036300  0.494600  0.459100  1
  H  H451  1  0.536300  0.994600  0.040900  1
  H  H452  1  0.963700  0.505400  0.540900  1
  H  H453  1  0.529800  0.972500  0.957900  1
  H  H454  1  0.970200  0.527500  0.457900  1
  H  H455  1  0.470200  0.027500  0.042100  1
  H  H456  1  0.029800  0.472500  0.542100  1
  H  H457  1  0.779300  0.789300  0.099000  1
  H  H458  1  0.720700  0.710700  0.599000  1
  H  H459  1  0.220700  0.210700  0.901000  1
  H  H460  1  0.279300  0.289300  0.401000  1
  H  H461  1  0.786600  0.759000  0.068800  1
  H  H462  1  0.713400  0.741000  0.568800  1
  H  H463  1  0.213400  0.241000  0.931200  1
  H  H464  1  0.286600  0.259000  0.431200  1
  H  H465  1  0.775300  0.737300  0.102900  1
  H  H466  1  0.724700  0.762700  0.602900  1
  H  H467  1  0.224700  0.262700  0.897100  1
  H  H468  1  0.275300  0.237300  0.397100  1
  H  H469  1  0.739700  0.694800  0.066400  1
  H  H470  1  0.760300  0.805200  0.566400  1
  H  H471  1  0.260300  0.305200  0.933600  1
  H  H472  1  0.239700  0.194800  0.433600  1
  H  H473  1  0.675100  0.681800  0.039500  1
  H  H474  1  0.824900  0.818200  0.539500  1
  H  H475  1  0.324900  0.318200  0.960500  1
  H  H476  1  0.175100  0.181800  0.460500  1
  H  H477  1  0.666100  0.658000  0.072900  1
  H  H478  1  0.833900  0.842000  0.572900  1
  H  H479  1  0.333900  0.342000  0.927100  1
  H  H480  1  0.166100  0.158000  0.427100  1
  H  H481  1  0.527100  0.736300  0.079300  1
  H  H482  1  0.972900  0.763700  0.579300  1
  H  H483  1  0.472900  0.263700  0.920700  1
  H  H484  1  0.027100  0.236300  0.420700  1
  H  H485  1  0.531500  0.684900  0.084000  1
  H  H486  1  0.968500  0.815100  0.584000  1
  H  H487  1  0.468500  0.315100  0.916000  1
  H  H488  1  0.031500  0.184900  0.416000  1
  H  H489  1  0.534800  0.705500  0.049500  1
  H  H490  1  0.965200  0.794500  0.549500  1
  H  H491  1  0.465200  0.294500  0.950500  1
  H  H492  1  0.034800  0.205500  0.450500  1
  C  C493  1  0.964500  0.810400  0.259600  1
  C  C494  1  0.535500  0.689600  0.759600  1
  C  C495  1  0.035500  0.189600  0.740400  1
  C  C496  1  0.464500  0.310400  0.240400  1
  C  C497  1  0.939950  0.778950  0.285670  1
  C  C498  1  0.560050  0.721050  0.785670  1
  C  C499  1  0.060050  0.221050  0.714330  1
  C  C500  1  0.439950  0.278950  0.214330  1
  C  C501  1  0.991300  0.773900  0.310440  1
  C  C502  1  0.508700  0.726100  0.810440  1
  C  C503  1  0.008700  0.226100  0.689560  1
  C  C504  1  0.491300  0.273900  0.189560  1
  C  C505  1  0.970500  0.741900  0.333080  1
  C  C506  1  0.529500  0.758100  0.833080  1
  C  C507  1  0.029500  0.258100  0.666920  1
  C  C508  1  0.470500  0.241900  0.166920  1
  C  C509  1  0.898400  0.715100  0.330950  1
  C  C510  1  0.601600  0.784900  0.830950  1
  C  C511  1  0.101600  0.284900  0.669050  1
  C  C512  1  0.398400  0.215100  0.169050  1
  C  C513  1  0.847100  0.720200  0.306180  1
  C  C514  1  0.652900  0.779800  0.806180  1
  C  C515  1  0.152900  0.279800  0.693820  1
  C  C516  1  0.347100  0.220200  0.193820  1
  C  C517  1  0.867800  0.752100  0.283540  1
  C  C518  1  0.632200  0.747900  0.783540  1
  C  C519  1  0.132200  0.247900  0.716460  1
  C  C520  1  0.367800  0.252100  0.216460  1
  C  C521  1  0.880600  0.678100  0.352500  1
  C  C522  1  0.619400  0.821900  0.852500  1
  C  C523  1  0.119400  0.321900  0.647500  1
  C  C524  1  0.380600  0.178100  0.147500  1
  C  C525  1  0.865800  0.650000  0.370100  1
  C  C526  1  0.634200  0.850000  0.870100  1
  C  C527  1  0.134200  0.350000  0.629900  1
  C  C528  1  0.365800  0.150000  0.129900  1
  C  C529  1  0.852300  0.610900  0.390240  1
  C  C530  1  0.647700  0.889100  0.890240  1
  C  C531  1  0.147700  0.389100  0.609760  1
  C  C532  1  0.352300  0.110900  0.109760  1
  C  C533  1  0.872600  0.615900  0.421720  1
  C  C534  1  0.627400  0.884100  0.921720  1
  C  C535  1  0.127400  0.384100  0.578280  1
  C  C536  1  0.372600  0.115900  0.078280  1
  C  C537  1  0.857600  0.580500  0.442100  1
  C  C538  1  0.642400  0.919500  0.942100  1
  C  C539  1  0.142400  0.419500  0.557900  1
  C  C540  1  0.357600  0.080500  0.057900  1
  C  C541  1  0.822400  0.540100  0.431000  1
  C  C542  1  0.677600  0.959900  0.931000  1
  C  C543  1  0.177600  0.459900  0.569000  1
  C  C544  1  0.322400  0.040100  0.069000  1
  C  C545  1  0.802210  0.535110  0.399500  1
  C  C546  1  0.697790  0.964890  0.899500  1
  C  C547  1  0.197790  0.464890  0.600500  1
  C  C548  1  0.302210  0.035110  0.100500  1
  C  C549  1  0.817100  0.570500  0.379140  1
  C  C550  1  0.682900  0.929500  0.879140  1
  C  C551  1  0.182900  0.429500  0.620860  1
  C  C552  1  0.317100  0.070500  0.120860  1
  C  C553  1  0.796500  0.564600  0.347500  1
  C  C554  1  0.703500  0.935400  0.847500  1
  C  C555  1  0.203500  0.435400  0.652500  1
  C  C556  1  0.296500  0.064600  0.152500  1
  C  C557  1  0.780600  0.559600  0.319600  1
  C  C558  1  0.719400  0.940400  0.819600  1
  C  C559  1  0.219400  0.440400  0.680400  1
  C  C560  1  0.280600  0.059600  0.180400  1
  C  C561  1  0.764100  0.557400  0.286470  1
  C  C562  1  0.735900  0.942600  0.786470  1
  C  C563  1  0.235900  0.442600  0.713530  1
  C  C564  1  0.264100  0.057400  0.213530  1
  C  C565  1  0.736900  0.518500  0.271090  1
  C  C566  1  0.763100  0.981500  0.771090  1
  C  C567  1  0.263100  0.481500  0.728910  1
  C  C568  1  0.236900  0.018500  0.228910  1
  C  C569  1  0.729840  0.517940  0.238630  1
  C  C570  1  0.770160  0.982060  0.738630  1
  C  C571  1  0.270160  0.482060  0.761370  1
  C  C572  1  0.229840  0.017940  0.261370  1
  C  C573  1  0.750000  0.556200  0.221540  1
  C  C574  1  0.750000  0.943800  0.721540  1
  C  C575  1  0.250000  0.443800  0.778460  1
  C  C576  1  0.250000  0.056200  0.278460  1
  C  C577  1  0.777340  0.595140  0.236920  1
  C  C578  1  0.722660  0.904860  0.736920  1
  C  C579  1  0.222660  0.404860  0.763080  1
  C  C580  1  0.277340  0.095140  0.263080  1
  C  C581  1  0.784300  0.595700  0.269380  1
  C  C582  1  0.715700  0.904300  0.769380  1
  C  C583  1  0.215700  0.404300  0.730620  1
  C  C584  1  0.284300  0.095700  0.230620  1
  C  C585  1  0.748800  0.555100  0.186700  1
  C  C586  1  0.751200  0.944900  0.686700  1
  C  C587  1  0.251200  0.444900  0.813300  1
  C  C588  1  0.248800  0.055100  0.313300  1
  C  C589  1  0.126300  0.810700  0.198800  1
  C  C590  1  0.373700  0.689300  0.698800  1
  C  C591  1  0.873700  0.189300  0.801200  1
  C  C592  1  0.626300  0.310700  0.301200  1
  C  C593  1  0.187500  0.780200  0.192630  1
  C  C594  1  0.312500  0.719800  0.692630  1
  C  C595  1  0.812500  0.219800  0.807370  1
  C  C596  1  0.687500  0.280200  0.307370  1
  C  C597  1  0.251500  0.779600  0.212920  1
  C  C598  1  0.248500  0.720400  0.712920  1
  C  C599  1  0.748500  0.220400  0.787080  1
  C  C600  1  0.751500  0.279600  0.287080  1
  C  C601  1  0.302300  0.747700  0.209660  1
  C  C602  1  0.197700  0.752300  0.709660  1
  C  C603  1  0.697700  0.252300  0.790340  1
  C  C604  1  0.802300  0.247700  0.290340  1
  C  C605  1  0.289000  0.716300  0.186100  1
  C  C606  1  0.211000  0.783700  0.686100  1
  C  C607  1  0.711000  0.283700  0.813900  1
  C  C608  1  0.789000  0.216300  0.313900  1
  C  C609  1  0.225000  0.716900  0.165810  1
  C  C610  1  0.275000  0.783100  0.665810  1
  C  C611  1  0.775000  0.283100  0.834190  1
  C  C612  1  0.725000  0.216900  0.334190  1
  C  C613  1  0.174200  0.748800  0.169080  1
  C  C614  1  0.325800  0.751200  0.669080  1
  C  C615  1  0.825800  0.251200  0.830920  1
  C  C616  1  0.674200  0.248800  0.330920  1
  C  C617  1  0.333400  0.682100  0.182900  1
  C  C618  1  0.166600  0.817900  0.682900  1
  C  C619  1  0.666600  0.317900  0.817100  1
  C  C620  1  0.833400  0.182100  0.317100  1
  C  C621  1  0.379500  0.653700  0.184800  1
  C  C622  1  0.120500  0.846300  0.684800  1
  C  C623  1  0.620500  0.346300  0.815200  1
  C  C624  1  0.879500  0.153700  0.315200  1
  C  C625  1  0.429300  0.618100  0.185430  1
  C  C626  1  0.070700  0.881900  0.685430  1
  C  C627  1  0.570700  0.381900  0.814570  1
  C  C628  1  0.929300  0.118100  0.314570  1
  C  C629  1  0.508590  0.628890  0.193720  1
  C  C630  1  0.991410  0.871110  0.693720  1
  C  C631  1  0.491410  0.371110  0.806280  1
  C  C632  1  0.008590  0.128890  0.306280  1
  C  C633  1  0.558100  0.596200  0.196210  1
  C  C634  1  0.941900  0.903800  0.696210  1
  C  C635  1  0.441900  0.403800  0.803790  1
  C  C636  1  0.058100  0.096200  0.303790  1
  C  C637  1  0.528200  0.552700  0.190420  1
  C  C638  1  0.971800  0.947300  0.690420  1
  C  C639  1  0.471800  0.447300  0.809580  1
  C  C640  1  0.028200  0.052700  0.309580  1
  C  C641  1  0.448910  0.541910  0.182130  1
  C  C642  1  0.051090  0.958090  0.682130  1
  C  C643  1  0.551090  0.458090  0.817870  1
  C  C644  1  0.948910  0.041910  0.317870  1
  C  C645  1  0.399500  0.574600  0.179640  1
  C  C646  1  0.100500  0.925400  0.679640  1
  C  C647  1  0.600500  0.425400  0.820360  1
  C  C648  1  0.899500  0.074600  0.320360  1
  C  C649  1  0.316100  0.564700  0.172600  1
  C  C650  1  0.183900  0.935300  0.672600  1
  C  C651  1  0.683900  0.435300  0.827400  1
  C  C652  1  0.816100  0.064700  0.327400  1
  C  C653  1  0.247900  0.556400  0.167700  1
  C  C654  1  0.252100  0.943600  0.667700  1
  C  C655  1  0.752100  0.443600  0.832300  1
  C  C656  1  0.747900  0.056400  0.332300  1
  C  C657  1  0.163700  0.556600  0.158850  1
  C  C658  1  0.336300  0.943400  0.658850  1
  C  C659  1  0.836300  0.443400  0.841150  1
  C  C660  1  0.663700  0.056600  0.341150  1
  C  C661  1  0.132360  0.596160  0.156210  1
  C  C662  1  0.367640  0.903840  0.656210  1
  C  C663  1  0.867640  0.403840  0.843790  1
  C  C664  1  0.632360  0.096160  0.343790  1
  C  C665  1  0.052950  0.596350  0.148070  1
  C  C666  1  0.447050  0.903650  0.648070  1
  C  C667  1  0.947050  0.403650  0.851930  1
  C  C668  1  0.552950  0.096350  0.351930  1
  C  C669  1  0.005000  0.557000  0.142570  1
  C  C670  1  0.495000  0.943000  0.642570  1
  C  C671  1  0.995000  0.443000  0.857430  1
  C  C672  1  0.505000  0.057000  0.357430  1
  C  C673  1  0.036440  0.517440  0.145210  1
  C  C674  1  0.463560  0.982560  0.645210  1
  C  C675  1  0.963560  0.482560  0.854790  1
  C  C676  1  0.536440  0.017440  0.354790  1
  C  C677  1  0.115750  0.517250  0.153350  1
  C  C678  1  0.384250  0.982750  0.653350  1
  C  C679  1  0.884250  0.482750  0.846650  1
  C  C680  1  0.615750  0.017250  0.346650  1
  C  C681  1  0.920800  0.558300  0.133900  1
  C  C682  1  0.579200  0.941700  0.633900  1
  C  C683  1  0.079200  0.441700  0.866100  1
  C  C684  1  0.420800  0.058300  0.366100  1
  C  C685  1  0.066600  0.921600  0.163900  1
  C  C686  1  0.433400  0.578400  0.663900  1
  C  C687  1  0.933400  0.078400  0.836100  1
  C  C688  1  0.566600  0.421600  0.336100  1
  C  C689  1  0.081200  0.954400  0.139220  1
  C  C690  1  0.418800  0.545600  0.639220  1
  C  C691  1  0.918800  0.045600  0.860780  1
  C  C692  1  0.581200  0.454400  0.360780  1
  C  C693  1  0.105200  0.998200  0.146390  1
  C  C694  1  0.394800  0.501800  0.646390  1
  C  C695  1  0.894800  0.001800  0.853610  1
  C  C696  1  0.605200  0.498200  0.353610  1
  C  C697  1  0.115280  0.029280  0.122600  1
  C  C698  1  0.384720  0.470720  0.622600  1
  C  C699  1  0.884720  0.970720  0.877400  1
  C  C700  1  0.615280  0.529280  0.377400  1
  C  C701  1  0.101400  0.016600  0.091600  1
  C  C702  1  0.398600  0.483400  0.591600  1
  C  C703  1  0.898600  0.983400  0.908400  1
  C  C704  1  0.601400  0.516600  0.408400  1
  C  C705  1  0.077400  0.972800  0.084430  1
  C  C706  1  0.422600  0.527200  0.584430  1
  C  C707  1  0.922600  0.027200  0.915570  1
  C  C708  1  0.577400  0.472800  0.415570  1
  C  C709  1  0.067270  0.941670  0.108200  1
  C  C710  1  0.432730  0.558330  0.608200  1
  C  C711  1  0.932730  0.058330  0.891800  1
  C  C712  1  0.567270  0.441670  0.391800  1
  C  C713  1  0.110700  0.049600  0.066700  1
  C  C714  1  0.389300  0.450400  0.566700  1
  C  C715  1  0.889300  0.950400  0.933300  1
  C  C716  1  0.610700  0.549600  0.433300  1
  C  C717  1  0.118300  0.073700  0.045400  1
  C  C718  1  0.381700  0.426300  0.545400  1
  C  C719  1  0.881700  0.926300  0.954600  1
  C  C720  1  0.618300  0.573700  0.454600  1
  C  C721  1  0.118100  0.103100  0.018910  1
  C  C722  1  0.381900  0.396900  0.518910  1
  C  C723  1  0.881900  0.896900  0.981090  1
  C  C724  1  0.618100  0.603100  0.481090  1
  C  C725  1  0.185500  0.132300  0.012360  1
  C  C726  1  0.314500  0.367700  0.512360  1
  C  C727  1  0.814500  0.867700  0.987640  1
  C  C728  1  0.685500  0.632300  0.487640  1
  C  C729  1  0.186340  0.160040  0.986570  1
  C  C730  1  0.313660  0.339960  0.486570  1
  C  C731  1  0.813660  0.839960  0.013430  1
  C  C732  1  0.686340  0.660040  0.513430  1
  C  C733  1  0.119860  0.158560  0.967350  1
  C  C734  1  0.380140  0.341440  0.467350  1
  C  C735  1  0.880140  0.841440  0.032650  1
  C  C736  1  0.619860  0.658560  0.532650  1
  C  C737  1  0.052500  0.129300  0.973900  1
  C  C738  1  0.447500  0.370700  0.473900  1
  C  C739  1  0.947500  0.870700  0.026100  1
  C  C740  1  0.552500  0.629300  0.526100  1
  C  C741  1  0.051710  0.101610  0.999690  1
  C  C742  1  0.448290  0.398390  0.499690  1
  C  C743  1  0.948290  0.898390  0.000310  1
  C  C744  1  0.551710  0.601610  0.500310  1
  C  C745  1  0.982100  0.070900  0.006300  1
  C  C746  1  0.517900  0.429100  0.506300  1
  C  C747  1  0.017900  0.929100  0.993700  1
  C  C748  1  0.482100  0.570900  0.493700  1
  C  C749  1  0.931300  0.042900  0.012000  1
  C  C750  1  0.568700  0.457100  0.512000  1
  C  C751  1  0.068700  0.957100  0.988000  1
  C  C752  1  0.431300  0.542900  0.488000  1
  C  C753  1  0.861200  0.012300  0.019640  1
  C  C754  1  0.638800  0.487700  0.519640  1
  C  C755  1  0.138800  0.987700  0.980360  1
  C  C756  1  0.361200  0.512300  0.480360  1
  C  C757  1  0.788500  0.015400  0.005240  1
  C  C758  1  0.711500  0.484600  0.505240  1
  C  C759  1  0.211500  0.984600  0.994760  1
  C  C760  1  0.288500  0.515400  0.494760  1
  C  C761  1  0.723600  0.984300  0.011450  1
  C  C762  1  0.776400  0.515700  0.511450  1
  C  C763  1  0.276400  0.015700  0.988550  1
  C  C764  1  0.223600  0.484300  0.488550  1
  C  C765  1  0.731400  0.950000  0.032060  1
  C  C766  1  0.768600  0.550000  0.532060  1
  C  C767  1  0.268600  0.050000  0.967940  1
  C  C768  1  0.231400  0.450000  0.467940  1
  C  C769  1  0.804000  0.946900  0.046460  1
  C  C770  1  0.696000  0.553100  0.546460  1
  C  C771  1  0.196000  0.053100  0.953540  1
  C  C772  1  0.304000  0.446900  0.453540  1
  C  C773  1  0.868900  0.978000  0.040250  1
  C  C774  1  0.631100  0.522000  0.540250  1
  C  C775  1  0.131100  0.022000  0.959750  1
  C  C776  1  0.368900  0.478000  0.459750  1
  C  C777  1  0.661900  0.916700  0.037500  1
  C  C778  1  0.838100  0.583300  0.537500  1
  C  C779  1  0.338100  0.083300  0.962500  1
  C  C780  1  0.161900  0.416700  0.462500  1
  C  C781  1  0.911400  0.923200  0.225400  1
  C  C782  1  0.588600  0.576800  0.725400  1
  C  C783  1  0.088600  0.076800  0.774600  1
  C  C784  1  0.411400  0.423200  0.274600  1
  C  C785  1  0.858800  0.955900  0.229950  1
  C  C786  1  0.641200  0.544100  0.729950  1
  C  C787  1  0.141200  0.044100  0.770050  1
  C  C788  1  0.358800  0.455900  0.270050  1
  C  C789  1  0.886500  0.996400  0.242880  1
  C  C790  1  0.613500  0.503600  0.742880  1
  C  C791  1  0.113500  0.003600  0.757120  1
  C  C792  1  0.386500  0.496400  0.257120  1
  C  C793  1  0.834730  0.027530  0.247590  1
  C  C794  1  0.665270  0.472470  0.747590  1
  C  C795  1  0.165270  0.972470  0.752410  1
  C  C796  1  0.334730  0.527530  0.252410  1
  C  C797  1  0.755200  0.018100  0.239360  1
  C  C798  1  0.744800  0.481900  0.739360  1
  C  C799  1  0.244800  0.981900  0.760640  1
  C  C800  1  0.255200  0.518100  0.260640  1
  C  C801  1  0.727400  0.977500  0.226430  1
  C  C802  1  0.772600  0.522500  0.726430  1
  C  C803  1  0.272600  0.022500  0.773570  1
  C  C804  1  0.227400  0.477500  0.273570  1
  C  C805  1  0.779200  0.946400  0.221720  1
  C  C806  1  0.720800  0.553600  0.721720  1
  C  C807  1  0.220800  0.053600  0.778280  1
  C  C808  1  0.279200  0.446400  0.278280  1
  C  C809  1  0.705800  0.052900  0.242700  1
  C  C810  1  0.794200  0.447100  0.742700  1
  C  C811  1  0.294200  0.947100  0.757300  1
  C  C812  1  0.205800  0.552900  0.257300  1
  C  C813  1  0.659900  0.079400  0.246900  1
  C  C814  1  0.840100  0.420600  0.746900  1
  C  C815  1  0.340100  0.920600  0.753100  1
  C  C816  1  0.159900  0.579400  0.253100  1
  C  C817  1  0.608200  0.113300  0.248320  1
  C  C818  1  0.891800  0.386700  0.748320  1
  C  C819  1  0.391800  0.886700  0.751680  1
  C  C820  1  0.108200  0.613300  0.251680  1
  C  C821  1  0.626500  0.148200  0.268890  1
  C  C822  1  0.873500  0.351800  0.768890  1
  C  C823  1  0.373500  0.851800  0.731110  1
  C  C824  1  0.126500  0.648200  0.231110  1
  C  C825  1  0.578550  0.181750  0.270120  1
  C  C826  1  0.921450  0.318250  0.770120  1
  C  C827  1  0.421450  0.818250  0.729880  1
  C  C828  1  0.078550  0.681750  0.229880  1
  C  C829  1  0.512240  0.180340  0.250790  1
  C  C830  1  0.987760  0.319660  0.750790  1
  C  C831  1  0.487760  0.819660  0.749210  1
  C  C832  1  0.012240  0.680340  0.249210  1
  C  C833  1  0.494000  0.145400  0.230230  1
  C  C834  1  0.006000  0.354600  0.730230  1
  C  C835  1  0.506000  0.854600  0.769770  1
  C  C836  1  0.994000  0.645400  0.269770  1
  C  C837  1  0.542000  0.111900  0.228990  1
  C  C838  1  0.958000  0.388100  0.728990  1
  C  C839  1  0.458000  0.888100  0.771010  1
  C  C840  1  0.042000  0.611900  0.271010  1
  C  C841  1  0.524300  0.075500  0.207500  1
  C  C842  1  0.975700  0.424500  0.707500  1
  C  C843  1  0.475700  0.924500  0.792500  1
  C  C844  1  0.024300  0.575500  0.292500  1
  C  C845  1  0.516100  0.045900  0.188900  1
  C  C846  1  0.983900  0.454100  0.688900  1
  C  C847  1  0.483900  0.954100  0.811100  1
  C  C848  1  0.016100  0.545900  0.311100  1
  C  C849  1  0.503200  0.008900  0.167520  1
  C  C850  1  0.996800  0.491100  0.667520  1
  C  C851  1  0.496800  0.991100  0.832480  1
  C  C852  1  0.003200  0.508900  0.332480  1
  C  C853  1  0.475070  0.015770  0.137560  1
  C  C854  1  0.024930  0.484230  0.637560  1
  C  C855  1  0.524930  0.984230  0.862440  1
  C  C856  1  0.975070  0.515770  0.362440  1
  C  C857  1  0.473700  0.982900  0.115070  1
  C  C858  1  0.026300  0.517100  0.615070  1
  C  C859  1  0.526300  0.017100  0.884930  1
  C  C860  1  0.973700  0.482900  0.384930  1
  C  C861  1  0.500600  0.943300  0.122530  1
  C  C862  1  0.999400  0.556700  0.622530  1
  C  C863  1  0.499400  0.056700  0.877470  1
  C  C864  1  0.000600  0.443300  0.377470  1
  C  C865  1  0.528820  0.936420  0.152500  1
  C  C866  1  0.971180  0.563580  0.652500  1
  C  C867  1  0.471180  0.063580  0.847500  1
  C  C868  1  0.028820  0.436420  0.347500  1
  C  C869  1  0.530100  0.969200  0.174990  1
  C  C870  1  0.969900  0.530800  0.674990  1
  C  C871  1  0.469900  0.030800  0.825010  1
  C  C872  1  0.030100  0.469200  0.325010  1
  C  C873  1  0.507100  0.910600  0.097500  1
  C  C874  1  0.992900  0.589400  0.597500  1
  C  C875  1  0.492900  0.089400  0.902500  1
  C  C876  1  0.007100  0.410600  0.402500  1
  C  C877  1  0.775200  0.564100  0.059500  1
  C  C878  1  0.724800  0.935900  0.559500  1
  C  C879  1  0.224800  0.435900  0.940500  1
  C  C880  1  0.275200  0.064100  0.440500  1
  C  C881  1  0.776200  0.569500  0.025330  1
  C  C882  1  0.723800  0.930500  0.525330  1
  C  C883  1  0.223800  0.430500  0.974670  1
  C  C884  1  0.276200  0.069500  0.474670  1
  C  C885  1  0.751500  0.532700  0.007200  1
  C  C886  1  0.748500  0.967300  0.507200  1
  C  C887  1  0.248500  0.467300  0.992800  1
  C  C888  1  0.251500  0.032700  0.492800  1
  C  C889  1  0.742600  0.536800  0.975030  1
  C  C890  1  0.757400  0.963200  0.475030  1
  C  C891  1  0.257400  0.463200  0.024970  1
  C  C892  1  0.242600  0.036800  0.524970  1
  C  C893  1  0.758400  0.577800  0.960900  1
  C  C894  1  0.741600  0.922200  0.460900  1
  C  C895  1  0.241600  0.422200  0.039100  1
  C  C896  1  0.258400  0.077800  0.539100  1
  C  C897  1  0.783100  0.614600  0.978990  1
  C  C898  1  0.716900  0.885400  0.478990  1
  C  C899  1  0.216900  0.385400  0.021010  1
  C  C900  1  0.283100  0.114600  0.521010  1
  C  C901  1  0.792000  0.610500  0.011200  1
  C  C902  1  0.708000  0.889500  0.511200  1
  C  C903  1  0.208000  0.389500  0.988800  1
  C  C904  1  0.292000  0.110500  0.488800  1
  C  C905  1  0.744300  0.583000  0.927100  1
  C  C906  1  0.755700  0.917000  0.427100  1
  C  C907  1  0.255700  0.417000  0.072900  1
  C  C908  1  0.244300  0.083000  0.572900  1
  C  C909  1  0.725900  0.589200  0.899700  1
  C  C910  1  0.774100  0.910800  0.399700  1
  C  C911  1  0.274100  0.410800  0.100300  1
  C  C912  1  0.225900  0.089200  0.600300  1
  C  C913  1  0.701000  0.593400  0.869090  1
  C  C914  1  0.799000  0.906600  0.369090  1
  C  C915  1  0.299000  0.406600  0.130910  1
  C  C916  1  0.201000  0.093400  0.630910  1
  C  C917  1  0.717100  0.563300  0.846380  1
  C  C918  1  0.782900  0.936700  0.346380  1
  C  C919  1  0.282900  0.436700  0.153620  1
  C  C920  1  0.217100  0.063300  0.653620  1
  C  C921  1  0.693200  0.568400  0.815560  1
  C  C922  1  0.806800  0.931600  0.315560  1
  C  C923  1  0.306800  0.431600  0.184440  1
  C  C924  1  0.193200  0.068400  0.684440  1
  C  C925  1  0.653400  0.603700  0.807460  1
  C  C926  1  0.846600  0.896300  0.307460  1
  C  C927  1  0.346600  0.396300  0.192540  1
  C  C928  1  0.153400  0.103700  0.692540  1
  C  C929  1  0.637300  0.633800  0.830160  1
  C  C930  1  0.862700  0.866200  0.330160  1
  C  C931  1  0.362700  0.366200  0.169840  1
  C  C932  1  0.137300  0.133800  0.669840  1
  C  C933  1  0.661200  0.628700  0.860980  1
  C  C934  1  0.838800  0.871300  0.360980  1
  C  C935  1  0.338800  0.371300  0.139020  1
  C  C936  1  0.161200  0.128700  0.639020  1
  C  C937  1  0.644000  0.660200  0.884700  1
  C  C938  1  0.856000  0.839800  0.384700  1
  C  C939  1  0.356000  0.339800  0.115300  1
  C  C940  1  0.144000  0.160200  0.615300  1
  C  C941  1  0.631100  0.686400  0.904200  1
  C  C942  1  0.868900  0.813600  0.404200  1
  C  C943  1  0.368900  0.313600  0.095800  1
  C  C944  1  0.131100  0.186400  0.595800  1
  C  C945  1  0.614900  0.716700  0.928060  1
  C  C946  1  0.885100  0.783300  0.428060  1
  C  C947  1  0.385100  0.283300  0.071940  1
  C  C948  1  0.114900  0.216700  0.571940  1
  C  C949  1  0.557100  0.744500  0.923980  1
  C  C950  1  0.942900  0.755500  0.423980  1
  C  C951  1  0.442900  0.255500  0.076020  1
  C  C952  1  0.057100  0.244500  0.576020  1
  C  C953  1  0.541200  0.772900  0.947910  1
  C  C954  1  0.958800  0.727100  0.447910  1
  C  C955  1  0.458800  0.227100  0.052090  1
  C  C956  1  0.041200  0.272900  0.552090  1
  C  C957  1  0.583200  0.773400  0.975930  1
  C  C958  1  0.916800  0.726600  0.475930  1
  C  C959  1  0.416800  0.226600  0.024070  1
  C  C960  1  0.083200  0.273400  0.524070  1
  C  C961  1  0.641000  0.745500  0.980010  1
  C  C962  1  0.859000  0.754500  0.480010  1
  C  C963  1  0.359000  0.254500  0.019990  1
  C  C964  1  0.141000  0.245500  0.519990  1
  C  C965  1  0.656900  0.717200  0.956080  1
  C  C966  1  0.843100  0.782800  0.456080  1
  C  C967  1  0.343100  0.282800  0.043920  1
  C  C968  1  0.156900  0.217200  0.543920  1
  C  C969  1  0.566500  0.805200  0.001100  1
  C  C970  1  0.933500  0.694800  0.501100  1
  C  C971  1  0.433500  0.194800  0.998900  1
  C  C972  1  0.066500  0.305200  0.498900  1
  C  C973  1  0.608000  0.559800  0.114290  1
  C  C974  1  0.892000  0.940200  0.614290  1
  C  C975  1  0.392000  0.440200  0.885710  1
  C  C976  1  0.108000  0.059800  0.385710  1
  C  C977  1  0.519900  0.559400  0.107770  1
  C  C978  1  0.980100  0.940600  0.607770  1
  C  C979  1  0.480100  0.440600  0.892230  1
  C  C980  1  0.019900  0.059400  0.392230  1
  C  C981  1  0.472530  0.519430  0.103610  1
  C  C982  1  0.027470  0.980570  0.603610  1
  C  C983  1  0.527470  0.480570  0.896390  1
  C  C984  1  0.972530  0.019430  0.396390  1
  C  C985  1  0.392370  0.518570  0.096540  1
  C  C986  1  0.107630  0.981430  0.596540  1
  C  C987  1  0.607630  0.481430  0.903460  1
  C  C988  1  0.892370  0.018570  0.403460  1
  C  C989  1  0.359400  0.557600  0.093640  1
  C  C990  1  0.140600  0.942400  0.593640  1
  C  C991  1  0.640600  0.442400  0.906360  1
  C  C992  1  0.859400  0.057600  0.406360  1
  C  C993  1  0.406740  0.597540  0.097800  1
  C  C994  1  0.093260  0.902460  0.597800  1
  C  C995  1  0.593260  0.402460  0.902200  1
  C  C996  1  0.906740  0.097540  0.402200  1
  C  C997  1  0.486910  0.598410  0.104870  1
  C  C998  1  0.013090  0.901590  0.604870  1
  C  C999  1  0.513090  0.401590  0.895130  1
  C  C1000  1  0.986910  0.098410  0.395130  1
  C  C1001  1  0.276700  0.554600  0.084300  1
  C  C1002  1  0.223300  0.945400  0.584300  1
  C  C1003  1  0.723300  0.445400  0.915700  1
  C  C1004  1  0.776700  0.054600  0.415700  1
  C  C1005  1  0.206600  0.550600  0.077900  1
  C  C1006  1  0.293400  0.949400  0.577900  1
  C  C1007  1  0.793400  0.449400  0.922100  1
  C  C1008  1  0.706600  0.050600  0.422100  1
  C  C1009  1  0.125100  0.542100  0.070700  1
  C  C1010  1  0.374900  0.957900  0.570700  1
  C  C1011  1  0.874900  0.457900  0.929300  1
  C  C1012  1  0.625100  0.042100  0.429300  1
  C  C1013  1  0.090300  0.498800  0.068200  1
  C  C1014  1  0.409700  0.001200  0.568200  1
  C  C1015  1  0.909700  0.501200  0.931800  1
  C  C1016  1  0.590300  0.998800  0.431800  1
  C  C1017  1  0.010030  0.489530  0.061000  1
  C  C1018  1  0.489970  0.010470  0.561000  1
  C  C1019  1  0.989970  0.510470  0.939000  1
  C  C1020  1  0.510030  0.989530  0.439000  1
  C  C1021  1  0.964500  0.523600  0.056300  1
  C  C1022  1  0.535500  0.976400  0.556300  1
  C  C1023  1  0.035500  0.476400  0.943700  1
  C  C1024  1  0.464500  0.023600  0.443700  1
  C  C1025  1  0.999200  0.566900  0.058800  1
  C  C1026  1  0.500800  0.933100  0.558800  1
  C  C1027  1  0.000800  0.433100  0.941200  1
  C  C1028  1  0.499200  0.066900  0.441200  1
  C  C1029  1  0.079460  0.576160  0.066000  1
  C  C1030  1  0.420540  0.923840  0.566000  1
  C  C1031  1  0.920540  0.423840  0.934000  1
  C  C1032  1  0.579460  0.076160  0.434000  1
  C  C1033  1  0.117400  0.620800  0.068200  1
  C  C1034  1  0.382600  0.879200  0.568200  1
  C  C1035  1  0.882600  0.379200  0.931800  1
  C  C1036  1  0.617400  0.120800  0.431800  1
  C  C1037  1  0.156500  0.654500  0.067200  1
  C  C1038  1  0.343500  0.845500  0.567200  1
  C  C1039  1  0.843500  0.345500  0.932800  1
  C  C1040  1  0.656500  0.154500  0.432800  1
  C  C1041  1  0.213200  0.694900  0.070270  1
  C  C1042  1  0.286800  0.805100  0.570270  1
  C  C1043  1  0.786800  0.305100  0.929730  1
  C  C1044  1  0.713200  0.194900  0.429730  1
  C  C1045  1  0.204600  0.730800  0.051310  1
  C  C1046  1  0.295400  0.769200  0.551310  1
  C  C1047  1  0.795400  0.269200  0.948690  1
  C  C1048  1  0.704600  0.230800  0.448690  1
  C  C1049  1  0.265700  0.765400  0.049300  1
  C  C1050  1  0.234300  0.734600  0.549300  1
  C  C1051  1  0.734300  0.234600  0.950700  1
  C  C1052  1  0.765700  0.265400  0.450700  1
  C  C1053  1  0.335400  0.764100  0.066260  1
  C  C1054  1  0.164600  0.735900  0.566260  1
  C  C1055  1  0.664600  0.235900  0.933740  1
  C  C1056  1  0.835400  0.264100  0.433740  1
  C  C1057  1  0.343900  0.728100  0.085220  1
  C  C1058  1  0.156100  0.771900  0.585220  1
  C  C1059  1  0.656100  0.271900  0.914780  1
  C  C1060  1  0.843900  0.228100  0.414780  1
  C  C1061  1  0.282860  0.693560  0.087230  1
  C  C1062  1  0.217140  0.806440  0.587230  1
  C  C1063  1  0.717140  0.306440  0.912770  1
  C  C1064  1  0.782860  0.193560  0.412770  1
  C  C1065  1  0.403900  0.798800  0.061500  1
  C  C1066  1  0.096100  0.701200  0.561500  1
  C  C1067  1  0.596100  0.201200  0.938500  1
  C  C1068  1  0.903900  0.298800  0.438500  1
  C  C1069  1  0.085700  0.937100  0.315700  1
  C  C1070  1  0.414300  0.562900  0.815700  1
  C  C1071  1  0.914300  0.062900  0.684300  1
  C  C1072  1  0.585700  0.437100  0.184300  1
  C  C1073  1  0.134270  0.907270  0.297640  1
  C  C1074  1  0.365730  0.592730  0.797640  1
  C  C1075  1  0.865730  0.092730  0.702360  1
  C  C1076  1  0.634270  0.407270  0.202360  1
  C  C1077  1  0.141200  0.867300  0.345800  1
  C  C1078  1  0.358800  0.632700  0.845800  1
  C  C1079  1  0.858800  0.132700  0.654200  1
  C  C1080  1  0.641200  0.367300  0.154200  1
  C  C1081  1  0.215000  0.848200  0.298100  1
  C  C1082  1  0.285000  0.651800  0.798100  1
  C  C1083  1  0.785000  0.151800  0.701900  1
  C  C1084  1  0.715000  0.348200  0.201900  1
  C  C1085  1  0.851600  0.868300  0.122400  1
  C  C1086  1  0.648400  0.631700  0.622400  1
  C  C1087  1  0.148400  0.131700  0.877600  1
  C  C1088  1  0.351600  0.368300  0.377600  1
  C  C1089  1  0.828800  0.838600  0.150220  1
  C  C1090  1  0.671200  0.661400  0.650220  1
  C  C1091  1  0.171200  0.161400  0.849780  1
  C  C1092  1  0.328800  0.338600  0.349780  1
  C  C1093  1  0.700800  0.864500  0.147700  1
  C  C1094  1  0.799200  0.635500  0.647700  1
  C  C1095  1  0.299200  0.135500  0.852300  1
  C  C1096  1  0.200800  0.364500  0.352300  1
  C  C1097  1  0.731200  0.810700  0.188500  1
  C  C1098  1  0.768800  0.689300  0.688500  1
  C  C1099  1  0.268800  0.189300  0.811500  1
  C  C1100  1  0.231200  0.310700  0.311500  1
  C  C1101  1  0.912700  0.700000  0.159500  1
  C  C1102  1  0.587300  0.800000  0.659500  1
  C  C1103  1  0.087300  0.300000  0.840500  1
  C  C1104  1  0.412700  0.200000  0.340500  1
  C  C1105  1  0.824320  0.689920  0.153200  1
  C  C1106  1  0.675680  0.810080  0.653200  1
  C  C1107  1  0.175680  0.310080  0.846800  1
  C  C1108  1  0.324320  0.189920  0.346800  1
  C  C1109  1  0.804200  0.714400  0.205830  1
  C  C1110  1  0.695800  0.785600  0.705830  1
  C  C1111  1  0.195800  0.285600  0.794170  1
  C  C1112  1  0.304200  0.214400  0.294170  1
  C  C1113  1  0.690700  0.698900  0.168400  1
  C  C1114  1  0.809300  0.801100  0.668400  1
  C  C1115  1  0.309300  0.301100  0.831600  1
  C  C1116  1  0.190700  0.198900  0.331600  1
  C  C1117  1  0.314800  0.882300  0.970300  1
  C  C1118  1  0.185200  0.617700  0.470300  1
  C  C1119  1  0.685200  0.117700  0.029700  1
  C  C1120  1  0.814800  0.382300  0.529700  1
  C  C1121  1  0.385120  0.914820  0.979920  1
  C  C1122  1  0.114880  0.585180  0.479920  1
  C  C1123  1  0.614880  0.085180  0.020080  1
  C  C1124  1  0.885120  0.414820  0.520080  1
  C  C1125  1  0.394800  0.936900  0.925810  1
  C  C1126  1  0.105200  0.563100  0.425810  1
  C  C1127  1  0.605200  0.063100  0.074190  1
  C  C1128  1  0.894800  0.436900  0.574190  1
  C  C1129  1  0.478800  0.977700  0.967100  1
  C  C1130  1  0.021200  0.522300  0.467100  1
  C  C1131  1  0.521200  0.022300  0.032900  1
  C  C1132  1  0.978800  0.477700  0.532900  1
  C  C1133  1  0.761200  0.760900  0.089300  1
  C  C1134  1  0.738800  0.739100  0.589300  1
  C  C1135  1  0.238800  0.239100  0.910700  1
  C  C1136  1  0.261200  0.260900  0.410700  1
  C  C1137  1  0.671590  0.756190  0.085170  1
  C  C1138  1  0.828410  0.743810  0.585170  1
  C  C1139  1  0.328410  0.243810  0.914830  1
  C  C1140  1  0.171590  0.256190  0.414830  1
  C  C1141  1  0.683300  0.685800  0.062100  1
  C  C1142  1  0.816700  0.814200  0.562100  1
  C  C1143  1  0.316700  0.314200  0.937900  1
  C  C1144  1  0.183300  0.185800  0.437900  1
  C  C1145  1  0.550500  0.710800  0.071400  1
  C  C1146  1  0.949500  0.789200  0.571400  1
  C  C1147  1  0.449500  0.289200  0.928600  1
  C  C1148  1  0.050500  0.210800  0.428600  1
  N  N1149  1  0.162200  0.875700  0.313110  1
  N  N1150  1  0.337800  0.624300  0.813110  1
  N  N1151  1  0.837800  0.124300  0.686890  1
  N  N1152  1  0.662200  0.375700  0.186890  1
  N  N1153  1  0.757100  0.838000  0.161600  1
  N  N1154  1  0.742900  0.662000  0.661600  1
  N  N1155  1  0.242900  0.162000  0.838400  1
  N  N1156  1  0.257100  0.338000  0.338400  1
  N  N1157  1  0.775360  0.700560  0.174810  1
  N  N1158  1  0.724640  0.799440  0.674810  1
  N  N1159  1  0.224640  0.299440  0.825190  1
  N  N1160  1  0.275360  0.200560  0.325190  1
  N  N1161  1  0.418100  0.941900  0.958590  1
  N  N1162  1  0.081900  0.558100  0.458590  1
  N  N1163  1  0.581900  0.058100  0.041410  1
  N  N1164  1  0.918100  0.441900  0.541410  1
  N  N1165  1  0.636700  0.719300  0.073460  1
  N  N1166  1  0.863300  0.780700  0.573460  1
  N  N1167  1  0.363300  0.280700  0.926540  1
  N  N1168  1  0.136700  0.219300  0.426540  1
  O  O1169  1  0.020900  0.842100  0.265640  1
  O  O1170  1  0.479100  0.657900  0.765640  1
  O  O1171  1  0.979100  0.157900  0.734360  1
  O  O1172  1  0.520900  0.342100  0.234360  1
  O  O1173  1  0.931850  0.805150  0.233650  1
  O  O1174  1  0.568150  0.694850  0.733650  1
  O  O1175  1  0.068150  0.194850  0.766350  1
  O  O1176  1  0.431850  0.305150  0.266350  1
  O  O1177  1  0.740520  0.519720  0.170810  1
  O  O1178  1  0.759480  0.980280  0.670810  1
  O  O1179  1  0.259480  0.480280  0.829190  1
  O  O1180  1  0.240520  0.019720  0.329190  1
  O  O1181  1  0.758510  0.593510  0.172650  1
  O  O1182  1  0.741490  0.906490  0.672650  1
  O  O1183  1  0.241490  0.406490  0.827350  1
  O  O1184  1  0.258510  0.093510  0.327350  1
  O  O1185  1  0.147500  0.842600  0.216960  1
  O  O1186  1  0.352500  0.657400  0.716960  1
  O  O1187  1  0.852500  0.157400  0.783040  1
  O  O1188  1  0.647500  0.342600  0.283040  1
  O  O1189  1  0.058820  0.804820  0.185600  1
  O  O1190  1  0.441180  0.695180  0.685600  1
  O  O1191  1  0.941180  0.195180  0.814400  1
  O  O1192  1  0.558820  0.304820  0.314400  1
  O  O1193  1  0.878000  0.522000  0.129580  1
  O  O1194  1  0.622000  0.978000  0.629580  1
  O  O1195  1  0.122000  0.478000  0.870420  1
  O  O1196  1  0.378000  0.022000  0.370420  1
  O  O1197  1  0.893830  0.595730  0.130990  1
  O  O1198  1  0.606170  0.904270  0.630990  1
  O  O1199  1  0.106170  0.404270  0.869010  1
  O  O1200  1  0.393830  0.095730  0.369010  1
  O  O1201  1  0.100300  0.928500  0.191080  1
  O  O1202  1  0.399700  0.571500  0.691080  1
  O  O1203  1  0.899700  0.071500  0.808920  1
  O  O1204  1  0.600300  0.428500  0.308920  1
  O  O1205  1  0.014100  0.888300  0.159510  1
  O  O1206  1  0.485900  0.611700  0.659510  1
  O  O1207  1  0.985900  0.111700  0.840490  1
  O  O1208  1  0.514100  0.388300  0.340490  1
  O  O1209  1  0.597070  0.919170  0.023120  1
  O  O1210  1  0.902930  0.580830  0.523120  1
  O  O1211  1  0.402930  0.080830  0.976880  1
  O  O1212  1  0.097070  0.419170  0.476880  1
  O  O1213  1  0.670500  0.884500  0.056480  1
  O  O1214  1  0.829500  0.615500  0.556480  1
  O  O1215  1  0.329500  0.115500  0.943520  1
  O  O1216  1  0.170500  0.384500  0.443520  1
  O  O1217  1  0.978730  0.927930  0.238810  1
  O  O1218  1  0.521270  0.572070  0.738810  1
  O  O1219  1  0.021270  0.072070  0.761190  1
  O  O1220  1  0.478730  0.427930  0.261190  1
  O  O1221  1  0.891600  0.890000  0.206920  1
  O  O1222  1  0.608400  0.610000  0.706920  1
  O  O1223  1  0.108400  0.110000  0.793080  1
  O  O1224  1  0.391600  0.390000  0.293080  1
  O  O1225  1  0.473200  0.916700  0.071090  1
  O  O1226  1  0.026800  0.583300  0.571090  1
  O  O1227  1  0.526800  0.083300  0.928910  1
  O  O1228  1  0.973200  0.416700  0.428910  1
  O  O1229  1  0.545200  0.879100  0.103440  1
  O  O1230  1  0.954800  0.620900  0.603440  1
  O  O1231  1  0.454800  0.120900  0.896560  1
  O  O1232  1  0.045200  0.379100  0.396560  1
  O  O1233  1  0.767800  0.526500  0.073070  1
  O  O1234  1  0.732200  0.973500  0.573070  1
  O  O1235  1  0.232200  0.473500  0.926930  1
  O  O1236  1  0.267800  0.026500  0.426930  1
  O  O1237  1  0.786700  0.599400  0.076120  1
  O  O1238  1  0.713300  0.900600  0.576120  1
  O  O1239  1  0.213300  0.400600  0.923880  1
  O  O1240  1  0.286700  0.099400  0.423880  1
  O  O1241  1  0.523100  0.834600  0.996170  1
  O  O1242  1  0.976900  0.665400  0.496170  1
  O  O1243  1  0.476900  0.165400  0.003830  1
  O  O1244  1  0.023100  0.334600  0.503830  1
  O  O1245  1  0.596900  0.799800  0.028080  1
  O  O1246  1  0.903100  0.700200  0.528080  1
  O  O1247  1  0.403100  0.200200  0.971920  1
  O  O1248  1  0.096900  0.299800  0.471920  1
  O  O1249  1  0.632860  0.522660  0.117270  1
  O  O1250  1  0.867140  0.977340  0.617270  1
  O  O1251  1  0.367140  0.477340  0.882730  1
  O  O1252  1  0.132860  0.022660  0.382730  1
  O  O1253  1  0.651440  0.596040  0.118490  1
  O  O1254  1  0.848560  0.903960  0.618490  1
  O  O1255  1  0.348560  0.403960  0.881510  1
  O  O1256  1  0.151440  0.096040  0.381510  1
  O  O1257  1  0.393800  0.830600  0.043520  1
  O  O1258  1  0.106200  0.669400  0.543520  1
  O  O1259  1  0.606200  0.169400  0.956480  1
  O  O1260  1  0.893800  0.330600  0.456480  1
  O  O1261  1  0.469100  0.794500  0.076180  1
  O  O1262  1  0.030900  0.705500  0.576180  1
  O  O1263  1  0.530900  0.205500  0.923820  1
  O  O1264  1  0.969100  0.294500  0.423820  1
  O  O1265  1  0.146400  0.913000  0.269260  1
  O  O1266  1  0.353600  0.587000  0.769260  1
  O  O1267  1  0.853600  0.087000  0.730740  1
  O  O1268  1  0.646400  0.413000  0.230740  1
  O  O1269  1  0.877500  0.816100  0.161450  1
  O  O1270  1  0.622500  0.683900  0.661450  1
  O  O1271  1  0.122500  0.183900  0.838550  1
  O  O1272  1  0.377500  0.316100  0.338550  1
  O  O1273  1  0.800420  0.672220  0.128340  1
  O  O1274  1  0.699580  0.827780  0.628340  1
  O  O1275  1  0.199580  0.327780  0.871660  1
  O  O1276  1  0.300420  0.172220  0.371660  1
  O  O1277  1  0.409900  0.915300  0.007200  1
  O  O1278  1  0.090100  0.584700  0.507200  1
  O  O1279  1  0.590100  0.084700  0.992800  1
  O  O1280  1  0.909900  0.415300  0.492800  1
  O  O1281  1  0.634000  0.786600  0.092740  1
  O  O1282  1  0.866000  0.713400  0.592740  1
  O  O1283  1  0.366000  0.213400  0.907260  1
  O  O1284  1  0.134000  0.286600  0.407260  1
  O  O1285  1  0.749380  0.447880  0.110300  1
  O  O1286  1  0.750620  0.052120  0.610300  1
  O  O1287  1  0.250620  0.552120  0.889700  1
  O  O1288  1  0.249380  0.947880  0.389700  1
