# generated using pymatgen
data_MoH12C24O5
_symmetry_space_group_name_H-M   'P 1'
_cell_length_a   35.61400000
_cell_length_b   35.61400000
_cell_length_c   35.61400000
_cell_angle_alpha   90.00000000
_cell_angle_beta   90.00000000
_cell_angle_gamma   90.00000000
_symmetry_Int_Tables_number   1
_chemical_formula_structural   MoH12C24O5
_chemical_formula_sum   'Mo48 H576 C1152 O240'
_cell_volume   45171.26605554
_cell_formula_units_Z   48
loop_
 _symmetry_equiv_pos_site_id
 _symmetry_equiv_pos_as_xyz
  1  'x, y, z'
loop_
 _atom_site_type_symbol
 _atom_site_label
 _atom_site_symmetry_multiplicity
 _atom_site_fract_x
 _atom_site_fract_y
 _atom_site_fract_z
 _atom_site_occupancy
  Mo  Mo1  1  0.289240  0.557520  0.155760  1.0
  Mo  Mo2  1  0.710760  0.442480  0.155760  1.0
  Mo  Mo3  1  0.710760  0.557520  0.844240  1.0
  Mo  Mo4  1  0.289240  0.442480  0.844240  1.0
  Mo  Mo5  1  0.155760  0.289240  0.557520  1.0
  Mo  Mo6  1  0.155760  0.710760  0.442480  1.0
  Mo  Mo7  1  0.844240  0.710760  0.557520  1.0
  Mo  Mo8  1  0.844240  0.289240  0.442480  1.0
  Mo  Mo9  1  0.557520  0.155760  0.289240  1.0
  Mo  Mo10  1  0.442480  0.155760  0.710760  1.0
  Mo  Mo11  1  0.557520  0.844240  0.710760  1.0
  Mo  Mo12  1  0.442480  0.844240  0.289240  1.0
  Mo  Mo13  1  0.057520  0.789240  0.655760  1.0
  Mo  Mo14  1  0.942480  0.210760  0.655760  1.0
  Mo  Mo15  1  0.057520  0.210760  0.344240  1.0
  Mo  Mo16  1  0.942480  0.789240  0.344240  1.0
  Mo  Mo17  1  0.789240  0.655760  0.057520  1.0
  Mo  Mo18  1  0.210760  0.655760  0.942480  1.0
  Mo  Mo19  1  0.210760  0.344240  0.057520  1.0
  Mo  Mo20  1  0.789240  0.344240  0.942480  1.0
  Mo  Mo21  1  0.655760  0.057520  0.789240  1.0
  Mo  Mo22  1  0.655760  0.942480  0.210760  1.0
  Mo  Mo23  1  0.344240  0.057520  0.210760  1.0
  Mo  Mo24  1  0.344240  0.942480  0.789240  1.0
  Mo  Mo25  1  0.294540  0.599900  0.196830  1.0
  Mo  Mo26  1  0.705460  0.400100  0.196830  1.0
  Mo  Mo27  1  0.705460  0.599900  0.803170  1.0
  Mo  Mo28  1  0.294540  0.400100  0.803170  1.0
  Mo  Mo29  1  0.196830  0.294540  0.599900  1.0
  Mo  Mo30  1  0.196830  0.705460  0.400100  1.0
  Mo  Mo31  1  0.803170  0.705460  0.599900  1.0
  Mo  Mo32  1  0.803170  0.294540  0.400100  1.0
  Mo  Mo33  1  0.599900  0.196830  0.294540  1.0
  Mo  Mo34  1  0.400100  0.196830  0.705460  1.0
  Mo  Mo35  1  0.599900  0.803170  0.705460  1.0
  Mo  Mo36  1  0.400100  0.803170  0.294540  1.0
  Mo  Mo37  1  0.099900  0.794540  0.696830  1.0
  Mo  Mo38  1  0.900100  0.205460  0.696830  1.0
  Mo  Mo39  1  0.099900  0.205460  0.303170  1.0
  Mo  Mo40  1  0.900100  0.794540  0.303170  1.0
  Mo  Mo41  1  0.794540  0.696830  0.099900  1.0
  Mo  Mo42  1  0.205460  0.696830  0.900100  1.0
  Mo  Mo43  1  0.205460  0.303170  0.099900  1.0
  Mo  Mo44  1  0.794540  0.303170  0.900100  1.0
  Mo  Mo45  1  0.696830  0.099900  0.794540  1.0
  Mo  Mo46  1  0.696830  0.900100  0.205460  1.0
  Mo  Mo47  1  0.303170  0.099900  0.205460  1.0
  Mo  Mo48  1  0.303170  0.900100  0.794540  1.0
  H  H49  1  0.295500  0.623300  0.049600  1.0
  H  H50  1  0.704500  0.376700  0.049600  1.0
  H  H51  1  0.704500  0.623300  0.950400  1.0
  H  H52  1  0.295500  0.376700  0.950400  1.0
  H  H53  1  0.049600  0.295500  0.623300  1.0
  H  H54  1  0.049600  0.704500  0.376700  1.0
  H  H55  1  0.950400  0.704500  0.623300  1.0
  H  H56  1  0.950400  0.295500  0.376700  1.0
  H  H57  1  0.623300  0.049600  0.295500  1.0
  H  H58  1  0.376700  0.049600  0.704500  1.0
  H  H59  1  0.623300  0.950400  0.704500  1.0
  H  H60  1  0.376700  0.950400  0.295500  1.0
  H  H61  1  0.123300  0.795500  0.549600  1.0
  H  H62  1  0.876700  0.204500  0.549600  1.0
  H  H63  1  0.123300  0.204500  0.450400  1.0
  H  H64  1  0.876700  0.795500  0.450400  1.0
  H  H65  1  0.795500  0.549600  0.123300  1.0
  H  H66  1  0.204500  0.549600  0.876700  1.0
  H  H67  1  0.204500  0.450400  0.123300  1.0
  H  H68  1  0.795500  0.450400  0.876700  1.0
  H  H69  1  0.549600  0.123300  0.795500  1.0
  H  H70  1  0.549600  0.876700  0.204500  1.0
  H  H71  1  0.450400  0.123300  0.204500  1.0
  H  H72  1  0.450400  0.876700  0.795500  1.0
  H  H73  1  0.307000  0.667200  0.002100  1.0
  H  H74  1  0.693000  0.332800  0.002100  1.0
  H  H75  1  0.693000  0.667200  0.997900  1.0
  H  H76  1  0.307000  0.332800  0.997900  1.0
  H  H77  1  0.002100  0.307000  0.667200  1.0
  H  H78  1  0.002100  0.693000  0.332800  1.0
  H  H79  1  0.997900  0.693000  0.667200  1.0
  H  H80  1  0.997900  0.307000  0.332800  1.0
  H  H81  1  0.667200  0.002100  0.307000  1.0
  H  H82  1  0.332800  0.002100  0.693000  1.0
  H  H83  1  0.667200  0.997900  0.693000  1.0
  H  H84  1  0.332800  0.997900  0.307000  1.0
  H  H85  1  0.167200  0.807000  0.502100  1.0
  H  H86  1  0.832800  0.193000  0.502100  1.0
  H  H87  1  0.167200  0.193000  0.497900  1.0
  H  H88  1  0.832800  0.807000  0.497900  1.0
  H  H89  1  0.807000  0.502100  0.167200  1.0
  H  H90  1  0.193000  0.502100  0.832800  1.0
  H  H91  1  0.193000  0.497900  0.167200  1.0
  H  H92  1  0.807000  0.497900  0.832800  1.0
  H  H93  1  0.502100  0.167200  0.807000  1.0
  H  H94  1  0.502100  0.832800  0.193000  1.0
  H  H95  1  0.497900  0.167200  0.193000  1.0
  H  H96  1  0.497900  0.832800  0.807000  1.0
  H  H97  1  0.339600  0.743200  0.080300  1.0
  H  H98  1  0.660400  0.256800  0.080300  1.0
  H  H99  1  0.660400  0.743200  0.919700  1.0
  H  H100  1  0.339600  0.256800  0.919700  1.0
  H  H101  1  0.080300  0.339600  0.743200  1.0
  H  H102  1  0.080300  0.660400  0.256800  1.0
  H  H103  1  0.919700  0.660400  0.743200  1.0
  H  H104  1  0.919700  0.339600  0.256800  1.0
  H  H105  1  0.743200  0.080300  0.339600  1.0
  H  H106  1  0.256800  0.080300  0.660400  1.0
  H  H107  1  0.743200  0.919700  0.660400  1.0
  H  H108  1  0.256800  0.919700  0.339600  1.0
  H  H109  1  0.243200  0.839600  0.580300  1.0
  H  H110  1  0.756800  0.160400  0.580300  1.0
  H  H111  1  0.243200  0.160400  0.419700  1.0
  H  H112  1  0.756800  0.839600  0.419700  1.0
  H  H113  1  0.839600  0.580300  0.243200  1.0
  H  H114  1  0.160400  0.580300  0.756800  1.0
  H  H115  1  0.160400  0.419700  0.243200  1.0
  H  H116  1  0.839600  0.419700  0.756800  1.0
  H  H117  1  0.580300  0.243200  0.839600  1.0
  H  H118  1  0.580300  0.756800  0.160400  1.0
  H  H119  1  0.419700  0.243200  0.160400  1.0
  H  H120  1  0.419700  0.756800  0.839600  1.0
  H  H121  1  0.328100  0.699300  0.127800  1.0
  H  H122  1  0.671900  0.300700  0.127800  1.0
  H  H123  1  0.671900  0.699300  0.872200  1.0
  H  H124  1  0.328100  0.300700  0.872200  1.0
  H  H125  1  0.127800  0.328100  0.699300  1.0
  H  H126  1  0.127800  0.671900  0.300700  1.0
  H  H127  1  0.872200  0.671900  0.699300  1.0
  H  H128  1  0.872200  0.328100  0.300700  1.0
  H  H129  1  0.699300  0.127800  0.328100  1.0
  H  H130  1  0.300700  0.127800  0.671900  1.0
  H  H131  1  0.699300  0.872200  0.671900  1.0
  H  H132  1  0.300700  0.872200  0.328100  1.0
  H  H133  1  0.199300  0.828100  0.627800  1.0
  H  H134  1  0.800700  0.171900  0.627800  1.0
  H  H135  1  0.199300  0.171900  0.372200  1.0
  H  H136  1  0.800700  0.828100  0.372200  1.0
  H  H137  1  0.828100  0.627800  0.199300  1.0
  H  H138  1  0.171900  0.627800  0.800700  1.0
  H  H139  1  0.171900  0.372200  0.199300  1.0
  H  H140  1  0.828100  0.372200  0.800700  1.0
  H  H141  1  0.627800  0.199300  0.828100  1.0
  H  H142  1  0.627800  0.800700  0.171900  1.0
  H  H143  1  0.372200  0.199300  0.171900  1.0
  H  H144  1  0.372200  0.800700  0.828100  1.0
  H  H145  1  0.332700  0.779000  0.916600  1.0
  H  H146  1  0.667300  0.221000  0.916600  1.0
  H  H147  1  0.667300  0.779000  0.083400  1.0
  H  H148  1  0.332700  0.221000  0.083400  1.0
  H  H149  1  0.916600  0.332700  0.779000  1.0
  H  H150  1  0.916600  0.667300  0.221000  1.0
  H  H151  1  0.083400  0.667300  0.779000  1.0
  H  H152  1  0.083400  0.332700  0.221000  1.0
  H  H153  1  0.779000  0.916600  0.332700  1.0
  H  H154  1  0.221000  0.916600  0.667300  1.0
  H  H155  1  0.779000  0.083400  0.667300  1.0
  H  H156  1  0.221000  0.083400  0.332700  1.0
  H  H157  1  0.279000  0.832700  0.416600  1.0
  H  H158  1  0.721000  0.167300  0.416600  1.0
  H  H159  1  0.279000  0.167300  0.583400  1.0
  H  H160  1  0.721000  0.832700  0.583400  1.0
  H  H161  1  0.832700  0.416600  0.279000  1.0
  H  H162  1  0.167300  0.416600  0.721000  1.0
  H  H163  1  0.167300  0.583400  0.279000  1.0
  H  H164  1  0.832700  0.583400  0.721000  1.0
  H  H165  1  0.416600  0.279000  0.832700  1.0
  H  H166  1  0.416600  0.721000  0.167300  1.0
  H  H167  1  0.583400  0.279000  0.167300  1.0
  H  H168  1  0.583400  0.721000  0.832700  1.0
  H  H169  1  0.347500  0.831500  0.880000  1.0
  H  H170  1  0.652500  0.168500  0.880000  1.0
  H  H171  1  0.652500  0.831500  0.120000  1.0
  H  H172  1  0.347500  0.168500  0.120000  1.0
  H  H173  1  0.880000  0.347500  0.831500  1.0
  H  H174  1  0.880000  0.652500  0.168500  1.0
  H  H175  1  0.120000  0.652500  0.831500  1.0
  H  H176  1  0.120000  0.347500  0.168500  1.0
  H  H177  1  0.831500  0.880000  0.347500  1.0
  H  H178  1  0.168500  0.880000  0.652500  1.0
  H  H179  1  0.831500  0.120000  0.652500  1.0
  H  H180  1  0.168500  0.120000  0.347500  1.0
  H  H181  1  0.331500  0.847500  0.380000  1.0
  H  H182  1  0.668500  0.152500  0.380000  1.0
  H  H183  1  0.331500  0.152500  0.620000  1.0
  H  H184  1  0.668500  0.847500  0.620000  1.0
  H  H185  1  0.847500  0.380000  0.331500  1.0
  H  H186  1  0.152500  0.380000  0.668500  1.0
  H  H187  1  0.152500  0.620000  0.331500  1.0
  H  H188  1  0.847500  0.620000  0.668500  1.0
  H  H189  1  0.380000  0.331500  0.847500  1.0
  H  H190  1  0.380000  0.668500  0.152500  1.0
  H  H191  1  0.620000  0.331500  0.152500  1.0
  H  H192  1  0.620000  0.668500  0.847500  1.0
  H  H193  1  0.374200  0.884600  0.908000  1.0
  H  H194  1  0.625800  0.115400  0.908000  1.0
  H  H195  1  0.625800  0.884600  0.092000  1.0
  H  H196  1  0.374200  0.115400  0.092000  1.0
  H  H197  1  0.908000  0.374200  0.884600  1.0
  H  H198  1  0.908000  0.625800  0.115400  1.0
  H  H199  1  0.092000  0.625800  0.884600  1.0
  H  H200  1  0.092000  0.374200  0.115400  1.0
  H  H201  1  0.884600  0.908000  0.374200  1.0
  H  H202  1  0.115400  0.908000  0.625800  1.0
  H  H203  1  0.884600  0.092000  0.625800  1.0
  H  H204  1  0.115400  0.092000  0.374200  1.0
  H  H205  1  0.384600  0.874200  0.408000  1.0
  H  H206  1  0.615400  0.125800  0.408000  1.0
  H  H207  1  0.384600  0.125800  0.592000  1.0
  H  H208  1  0.615400  0.874200  0.592000  1.0
  H  H209  1  0.874200  0.408000  0.384600  1.0
  H  H210  1  0.125800  0.408000  0.615400  1.0
  H  H211  1  0.125800  0.592000  0.384600  1.0
  H  H212  1  0.874200  0.592000  0.615400  1.0
  H  H213  1  0.408000  0.384600  0.874200  1.0
  H  H214  1  0.408000  0.615400  0.125800  1.0
  H  H215  1  0.592000  0.384600  0.125800  1.0
  H  H216  1  0.592000  0.615400  0.874200  1.0
  H  H217  1  0.385900  0.885300  0.972600  1.0
  H  H218  1  0.614100  0.114700  0.972600  1.0
  H  H219  1  0.614100  0.885300  0.027400  1.0
  H  H220  1  0.385900  0.114700  0.027400  1.0
  H  H221  1  0.972600  0.385900  0.885300  1.0
  H  H222  1  0.972600  0.614100  0.114700  1.0
  H  H223  1  0.027400  0.614100  0.885300  1.0
  H  H224  1  0.027400  0.385900  0.114700  1.0
  H  H225  1  0.885300  0.972600  0.385900  1.0
  H  H226  1  0.114700  0.972600  0.614100  1.0
  H  H227  1  0.885300  0.027400  0.614100  1.0
  H  H228  1  0.114700  0.027400  0.385900  1.0
  H  H229  1  0.385300  0.885900  0.472600  1.0
  H  H230  1  0.614700  0.114100  0.472600  1.0
  H  H231  1  0.385300  0.114100  0.527400  1.0
  H  H232  1  0.614700  0.885900  0.527400  1.0
  H  H233  1  0.885900  0.472600  0.385300  1.0
  H  H234  1  0.114100  0.472600  0.614700  1.0
  H  H235  1  0.114100  0.527400  0.385300  1.0
  H  H236  1  0.885900  0.527400  0.614700  1.0
  H  H237  1  0.472600  0.385300  0.885900  1.0
  H  H238  1  0.472600  0.614700  0.114100  1.0
  H  H239  1  0.527400  0.385300  0.114100  1.0
  H  H240  1  0.527400  0.614700  0.885900  1.0
  H  H241  1  0.431900  0.864000  0.099100  1.0
  H  H242  1  0.568100  0.136000  0.099100  1.0
  H  H243  1  0.568100  0.864000  0.900900  1.0
  H  H244  1  0.431900  0.136000  0.900900  1.0
  H  H245  1  0.099100  0.431900  0.864000  1.0
  H  H246  1  0.099100  0.568100  0.136000  1.0
  H  H247  1  0.900900  0.568100  0.864000  1.0
  H  H248  1  0.900900  0.431900  0.136000  1.0
  H  H249  1  0.864000  0.099100  0.431900  1.0
  H  H250  1  0.136000  0.099100  0.568100  1.0
  H  H251  1  0.864000  0.900900  0.568100  1.0
  H  H252  1  0.136000  0.900900  0.431900  1.0
  H  H253  1  0.364000  0.931900  0.599100  1.0
  H  H254  1  0.636000  0.068100  0.599100  1.0
  H  H255  1  0.364000  0.068100  0.400900  1.0
  H  H256  1  0.636000  0.931900  0.400900  1.0
  H  H257  1  0.931900  0.599100  0.364000  1.0
  H  H258  1  0.068100  0.599100  0.636000  1.0
  H  H259  1  0.068100  0.400900  0.364000  1.0
  H  H260  1  0.931900  0.400900  0.636000  1.0
  H  H261  1  0.599100  0.364000  0.931900  1.0
  H  H262  1  0.599100  0.636000  0.068100  1.0
  H  H263  1  0.400900  0.364000  0.068100  1.0
  H  H264  1  0.400900  0.636000  0.931900  1.0
  H  H265  1  0.443500  0.861600  0.163700  1.0
  H  H266  1  0.556500  0.138400  0.163700  1.0
  H  H267  1  0.556500  0.861600  0.836300  1.0
  H  H268  1  0.443500  0.138400  0.836300  1.0
  H  H269  1  0.163700  0.443500  0.861600  1.0
  H  H270  1  0.163700  0.556500  0.138400  1.0
  H  H271  1  0.836300  0.556500  0.861600  1.0
  H  H272  1  0.836300  0.443500  0.138400  1.0
  H  H273  1  0.861600  0.163700  0.443500  1.0
  H  H274  1  0.138400  0.163700  0.556500  1.0
  H  H275  1  0.861600  0.836300  0.556500  1.0
  H  H276  1  0.138400  0.836300  0.443500  1.0
  H  H277  1  0.361600  0.943500  0.663700  1.0
  H  H278  1  0.638400  0.056500  0.663700  1.0
  H  H279  1  0.361600  0.056500  0.336300  1.0
  H  H280  1  0.638400  0.943500  0.336300  1.0
  H  H281  1  0.943500  0.663700  0.361600  1.0
  H  H282  1  0.056500  0.663700  0.638400  1.0
  H  H283  1  0.056500  0.336300  0.361600  1.0
  H  H284  1  0.943500  0.336300  0.638400  1.0
  H  H285  1  0.663700  0.361600  0.943500  1.0
  H  H286  1  0.663700  0.638400  0.056500  1.0
  H  H287  1  0.336300  0.361600  0.056500  1.0
  H  H288  1  0.336300  0.638400  0.943500  1.0
  H  H289  1  0.352700  0.794300  0.177500  1.0
  H  H290  1  0.647300  0.205700  0.177500  1.0
  H  H291  1  0.647300  0.794300  0.822500  1.0
  H  H292  1  0.352700  0.205700  0.822500  1.0
  H  H293  1  0.177500  0.352700  0.794300  1.0
  H  H294  1  0.177500  0.647300  0.205700  1.0
  H  H295  1  0.822500  0.647300  0.794300  1.0
  H  H296  1  0.822500  0.352700  0.205700  1.0
  H  H297  1  0.794300  0.177500  0.352700  1.0
  H  H298  1  0.205700  0.177500  0.647300  1.0
  H  H299  1  0.794300  0.822500  0.647300  1.0
  H  H300  1  0.205700  0.822500  0.352700  1.0
  H  H301  1  0.294300  0.852700  0.677500  1.0
  H  H302  1  0.705700  0.147300  0.677500  1.0
  H  H303  1  0.294300  0.147300  0.322500  1.0
  H  H304  1  0.705700  0.852700  0.322500  1.0
  H  H305  1  0.852700  0.677500  0.294300  1.0
  H  H306  1  0.147300  0.677500  0.705700  1.0
  H  H307  1  0.147300  0.322500  0.294300  1.0
  H  H308  1  0.852700  0.322500  0.705700  1.0
  H  H309  1  0.677500  0.294300  0.852700  1.0
  H  H310  1  0.677500  0.705700  0.147300  1.0
  H  H311  1  0.322500  0.294300  0.147300  1.0
  H  H312  1  0.322500  0.705700  0.852700  1.0
  H  H313  1  0.341200  0.796700  0.112900  1.0
  H  H314  1  0.658800  0.203300  0.112900  1.0
  H  H315  1  0.658800  0.796700  0.887100  1.0
  H  H316  1  0.341200  0.203300  0.887100  1.0
  H  H317  1  0.112900  0.341200  0.796700  1.0
  H  H318  1  0.112900  0.658800  0.203300  1.0
  H  H319  1  0.887100  0.658800  0.796700  1.0
  H  H320  1  0.887100  0.341200  0.203300  1.0
  H  H321  1  0.796700  0.112900  0.341200  1.0
  H  H322  1  0.203300  0.112900  0.658800  1.0
  H  H323  1  0.796700  0.887100  0.658800  1.0
  H  H324  1  0.203300  0.887100  0.341200  1.0
  H  H325  1  0.296700  0.841200  0.612900  1.0
  H  H326  1  0.703300  0.158800  0.612900  1.0
  H  H327  1  0.296700  0.158800  0.387100  1.0
  H  H328  1  0.703300  0.841200  0.387100  1.0
  H  H329  1  0.841200  0.612900  0.296700  1.0
  H  H330  1  0.158800  0.612900  0.703300  1.0
  H  H331  1  0.158800  0.387100  0.296700  1.0
  H  H332  1  0.841200  0.387100  0.703300  1.0
  H  H333  1  0.612900  0.296700  0.841200  1.0
  H  H334  1  0.612900  0.703300  0.158800  1.0
  H  H335  1  0.387100  0.296700  0.158800  1.0
  H  H336  1  0.387100  0.703300  0.841200  1.0
  H  H337  1  0.547100  0.773400  0.265100  1.0
  H  H338  1  0.452900  0.226600  0.265100  1.0
  H  H339  1  0.452900  0.773400  0.734900  1.0
  H  H340  1  0.547100  0.226600  0.734900  1.0
  H  H341  1  0.265100  0.547100  0.773400  1.0
  H  H342  1  0.265100  0.452900  0.226600  1.0
  H  H343  1  0.734900  0.452900  0.773400  1.0
  H  H344  1  0.734900  0.547100  0.226600  1.0
  H  H345  1  0.773400  0.265100  0.547100  1.0
  H  H346  1  0.226600  0.265100  0.452900  1.0
  H  H347  1  0.773400  0.734900  0.452900  1.0
  H  H348  1  0.226600  0.734900  0.547100  1.0
  H  H349  1  0.273400  0.047100  0.765100  1.0
  H  H350  1  0.726600  0.952900  0.765100  1.0
  H  H351  1  0.273400  0.952900  0.234900  1.0
  H  H352  1  0.726600  0.047100  0.234900  1.0
  H  H353  1  0.047100  0.765100  0.273400  1.0
  H  H354  1  0.952900  0.765100  0.726600  1.0
  H  H355  1  0.952900  0.234900  0.273400  1.0
  H  H356  1  0.047100  0.234900  0.726600  1.0
  H  H357  1  0.765100  0.273400  0.047100  1.0
  H  H358  1  0.765100  0.726600  0.952900  1.0
  H  H359  1  0.234900  0.273400  0.952900  1.0
  H  H360  1  0.234900  0.726600  0.047100  1.0
  H  H361  1  0.587300  0.725300  0.245400  1.0
  H  H362  1  0.412700  0.274700  0.245400  1.0
  H  H363  1  0.412700  0.725300  0.754600  1.0
  H  H364  1  0.587300  0.274700  0.754600  1.0
  H  H365  1  0.245400  0.587300  0.725300  1.0
  H  H366  1  0.245400  0.412700  0.274700  1.0
  H  H367  1  0.754600  0.412700  0.725300  1.0
  H  H368  1  0.754600  0.587300  0.274700  1.0
  H  H369  1  0.725300  0.245400  0.587300  1.0
  H  H370  1  0.274700  0.245400  0.412700  1.0
  H  H371  1  0.725300  0.754600  0.412700  1.0
  H  H372  1  0.274700  0.754600  0.587300  1.0
  H  H373  1  0.225300  0.087300  0.745400  1.0
  H  H374  1  0.774700  0.912700  0.745400  1.0
  H  H375  1  0.225300  0.912700  0.254600  1.0
  H  H376  1  0.774700  0.087300  0.254600  1.0
  H  H377  1  0.087300  0.745400  0.225300  1.0
  H  H378  1  0.912700  0.745400  0.774700  1.0
  H  H379  1  0.912700  0.254600  0.225300  1.0
  H  H380  1  0.087300  0.254600  0.774700  1.0
  H  H381  1  0.745400  0.225300  0.087300  1.0
  H  H382  1  0.745400  0.774700  0.912700  1.0
  H  H383  1  0.254600  0.225300  0.912700  1.0
  H  H384  1  0.254600  0.774700  0.087300  1.0
  H  H385  1  0.498600  0.654500  0.237100  1.0
  H  H386  1  0.501400  0.345500  0.237100  1.0
  H  H387  1  0.501400  0.654500  0.762900  1.0
  H  H388  1  0.498600  0.345500  0.762900  1.0
  H  H389  1  0.237100  0.498600  0.654500  1.0
  H  H390  1  0.237100  0.501400  0.345500  1.0
  H  H391  1  0.762900  0.501400  0.654500  1.0
  H  H392  1  0.762900  0.498600  0.345500  1.0
  H  H393  1  0.654500  0.237100  0.498600  1.0
  H  H394  1  0.345500  0.237100  0.501400  1.0
  H  H395  1  0.654500  0.762900  0.501400  1.0
  H  H396  1  0.345500  0.762900  0.498600  1.0
  H  H397  1  0.154500  0.998600  0.737100  1.0
  H  H398  1  0.845500  0.001400  0.737100  1.0
  H  H399  1  0.154500  0.001400  0.262900  1.0
  H  H400  1  0.845500  0.998600  0.262900  1.0
  H  H401  1  0.998600  0.737100  0.154500  1.0
  H  H402  1  0.001400  0.737100  0.845500  1.0
  H  H403  1  0.001400  0.262900  0.154500  1.0
  H  H404  1  0.998600  0.262900  0.845500  1.0
  H  H405  1  0.737100  0.154500  0.998600  1.0
  H  H406  1  0.737100  0.845500  0.001400  1.0
  H  H407  1  0.262900  0.154500  0.001400  1.0
  H  H408  1  0.262900  0.845500  0.998600  1.0
  H  H409  1  0.458400  0.702600  0.256800  1.0
  H  H410  1  0.541600  0.297400  0.256800  1.0
  H  H411  1  0.541600  0.702600  0.743200  1.0
  H  H412  1  0.458400  0.297400  0.743200  1.0
  H  H413  1  0.256800  0.458400  0.702600  1.0
  H  H414  1  0.256800  0.541600  0.297400  1.0
  H  H415  1  0.743200  0.541600  0.702600  1.0
  H  H416  1  0.743200  0.458400  0.297400  1.0
  H  H417  1  0.702600  0.256800  0.458400  1.0
  H  H418  1  0.297400  0.256800  0.541600  1.0
  H  H419  1  0.702600  0.743200  0.541600  1.0
  H  H420  1  0.297400  0.743200  0.458400  1.0
  H  H421  1  0.202600  0.958400  0.756800  1.0
  H  H422  1  0.797400  0.041600  0.756800  1.0
  H  H423  1  0.202600  0.041600  0.243200  1.0
  H  H424  1  0.797400  0.958400  0.243200  1.0
  H  H425  1  0.958400  0.756800  0.202600  1.0
  H  H426  1  0.041600  0.756800  0.797400  1.0
  H  H427  1  0.041600  0.243200  0.202600  1.0
  H  H428  1  0.958400  0.243200  0.797400  1.0
  H  H429  1  0.756800  0.202600  0.958400  1.0
  H  H430  1  0.756800  0.797400  0.041600  1.0
  H  H431  1  0.243200  0.202600  0.041600  1.0
  H  H432  1  0.243200  0.797400  0.958400  1.0
  H  H433  1  0.665200  0.633000  0.203300  1.0
  H  H434  1  0.334800  0.367000  0.203300  1.0
  H  H435  1  0.334800  0.633000  0.796700  1.0
  H  H436  1  0.665200  0.367000  0.796700  1.0
  H  H437  1  0.203300  0.665200  0.633000  1.0
  H  H438  1  0.203300  0.334800  0.367000  1.0
  H  H439  1  0.796700  0.334800  0.633000  1.0
  H  H440  1  0.796700  0.665200  0.367000  1.0
  H  H441  1  0.633000  0.203300  0.665200  1.0
  H  H442  1  0.367000  0.203300  0.334800  1.0
  H  H443  1  0.633000  0.796700  0.334800  1.0
  H  H444  1  0.367000  0.796700  0.665200  1.0
  H  H445  1  0.133000  0.165200  0.703300  1.0
  H  H446  1  0.867000  0.834800  0.703300  1.0
  H  H447  1  0.133000  0.834800  0.296700  1.0
  H  H448  1  0.867000  0.165200  0.296700  1.0
  H  H449  1  0.165200  0.703300  0.133000  1.0
  H  H450  1  0.834800  0.703300  0.867000  1.0
  H  H451  1  0.834800  0.296700  0.133000  1.0
  H  H452  1  0.165200  0.296700  0.867000  1.0
  H  H453  1  0.703300  0.133000  0.165200  1.0
  H  H454  1  0.703300  0.867000  0.834800  1.0
  H  H455  1  0.296700  0.133000  0.834800  1.0
  H  H456  1  0.296700  0.867000  0.165200  1.0
  H  H457  1  0.706500  0.590500  0.174900  1.0
  H  H458  1  0.293500  0.409500  0.174900  1.0
  H  H459  1  0.293500  0.590500  0.825100  1.0
  H  H460  1  0.706500  0.409500  0.825100  1.0
  H  H461  1  0.174900  0.706500  0.590500  1.0
  H  H462  1  0.174900  0.293500  0.409500  1.0
  H  H463  1  0.825100  0.293500  0.590500  1.0
  H  H464  1  0.825100  0.706500  0.409500  1.0
  H  H465  1  0.590500  0.174900  0.706500  1.0
  H  H466  1  0.409500  0.174900  0.293500  1.0
  H  H467  1  0.590500  0.825100  0.293500  1.0
  H  H468  1  0.409500  0.825100  0.706500  1.0
  H  H469  1  0.090500  0.206500  0.674900  1.0
  H  H470  1  0.909500  0.793500  0.674900  1.0
  H  H471  1  0.090500  0.793500  0.325100  1.0
  H  H472  1  0.909500  0.206500  0.325100  1.0
  H  H473  1  0.206500  0.674900  0.090500  1.0
  H  H474  1  0.793500  0.674900  0.909500  1.0
  H  H475  1  0.793500  0.325100  0.090500  1.0
  H  H476  1  0.206500  0.325100  0.909500  1.0
  H  H477  1  0.674900  0.090500  0.206500  1.0
  H  H478  1  0.674900  0.909500  0.793500  1.0
  H  H479  1  0.325100  0.090500  0.793500  1.0
  H  H480  1  0.325100  0.909500  0.206500  1.0
  H  H481  1  0.683700  0.534100  0.150100  1.0
  H  H482  1  0.316300  0.465900  0.150100  1.0
  H  H483  1  0.316300  0.534100  0.849900  1.0
  H  H484  1  0.683700  0.465900  0.849900  1.0
  H  H485  1  0.150100  0.683700  0.534100  1.0
  H  H486  1  0.150100  0.316300  0.465900  1.0
  H  H487  1  0.849900  0.316300  0.534100  1.0
  H  H488  1  0.849900  0.683700  0.465900  1.0
  H  H489  1  0.534100  0.150100  0.683700  1.0
  H  H490  1  0.465900  0.150100  0.316300  1.0
  H  H491  1  0.534100  0.849900  0.316300  1.0
  H  H492  1  0.465900  0.849900  0.683700  1.0
  H  H493  1  0.034100  0.183700  0.650100  1.0
  H  H494  1  0.965900  0.816300  0.650100  1.0
  H  H495  1  0.034100  0.816300  0.349900  1.0
  H  H496  1  0.965900  0.183700  0.349900  1.0
  H  H497  1  0.183700  0.650100  0.034100  1.0
  H  H498  1  0.816300  0.650100  0.965900  1.0
  H  H499  1  0.816300  0.349900  0.034100  1.0
  H  H500  1  0.183700  0.349900  0.965900  1.0
  H  H501  1  0.650100  0.034100  0.183700  1.0
  H  H502  1  0.650100  0.965900  0.816300  1.0
  H  H503  1  0.349900  0.034100  0.816300  1.0
  H  H504  1  0.349900  0.965900  0.183700  1.0
  H  H505  1  0.619500  0.520200  0.153600  1.0
  H  H506  1  0.380500  0.479800  0.153600  1.0
  H  H507  1  0.380500  0.520200  0.846400  1.0
  H  H508  1  0.619500  0.479800  0.846400  1.0
  H  H509  1  0.153600  0.619500  0.520200  1.0
  H  H510  1  0.153600  0.380500  0.479800  1.0
  H  H511  1  0.846400  0.380500  0.520200  1.0
  H  H512  1  0.846400  0.619500  0.479800  1.0
  H  H513  1  0.520200  0.153600  0.619500  1.0
  H  H514  1  0.479800  0.153600  0.380500  1.0
  H  H515  1  0.520200  0.846400  0.380500  1.0
  H  H516  1  0.479800  0.846400  0.619500  1.0
  H  H517  1  0.020200  0.119500  0.653600  1.0
  H  H518  1  0.979800  0.880500  0.653600  1.0
  H  H519  1  0.020200  0.880500  0.346400  1.0
  H  H520  1  0.979800  0.119500  0.346400  1.0
  H  H521  1  0.119500  0.653600  0.020200  1.0
  H  H522  1  0.880500  0.653600  0.979800  1.0
  H  H523  1  0.880500  0.346400  0.020200  1.0
  H  H524  1  0.119500  0.346400  0.979800  1.0
  H  H525  1  0.653600  0.020200  0.119500  1.0
  H  H526  1  0.653600  0.979800  0.880500  1.0
  H  H527  1  0.346400  0.020200  0.880500  1.0
  H  H528  1  0.346400  0.979800  0.119500  1.0
  H  H529  1  0.478200  0.530600  0.132000  1.0
  H  H530  1  0.521800  0.469400  0.132000  1.0
  H  H531  1  0.521800  0.530600  0.868000  1.0
  H  H532  1  0.478200  0.469400  0.868000  1.0
  H  H533  1  0.132000  0.478200  0.530600  1.0
  H  H534  1  0.132000  0.521800  0.469400  1.0
  H  H535  1  0.868000  0.521800  0.530600  1.0
  H  H536  1  0.868000  0.478200  0.469400  1.0
  H  H537  1  0.530600  0.132000  0.478200  1.0
  H  H538  1  0.469400  0.132000  0.521800  1.0
  H  H539  1  0.530600  0.868000  0.521800  1.0
  H  H540  1  0.469400  0.868000  0.478200  1.0
  H  H541  1  0.030600  0.978200  0.632000  1.0
  H  H542  1  0.969400  0.021800  0.632000  1.0
  H  H543  1  0.030600  0.021800  0.368000  1.0
  H  H544  1  0.969400  0.978200  0.368000  1.0
  H  H545  1  0.978200  0.632000  0.030600  1.0
  H  H546  1  0.021800  0.632000  0.969400  1.0
  H  H547  1  0.021800  0.368000  0.030600  1.0
  H  H548  1  0.978200  0.368000  0.969400  1.0
  H  H549  1  0.632000  0.030600  0.978200  1.0
  H  H550  1  0.632000  0.969400  0.021800  1.0
  H  H551  1  0.368000  0.030600  0.021800  1.0
  H  H552  1  0.368000  0.969400  0.978200  1.0
  H  H553  1  0.412700  0.535300  0.132600  1.0
  H  H554  1  0.587300  0.464700  0.132600  1.0
  H  H555  1  0.587300  0.535300  0.867400  1.0
  H  H556  1  0.412700  0.464700  0.867400  1.0
  H  H557  1  0.132600  0.412700  0.535300  1.0
  H  H558  1  0.132600  0.587300  0.464700  1.0
  H  H559  1  0.867400  0.587300  0.535300  1.0
  H  H560  1  0.867400  0.412700  0.464700  1.0
  H  H561  1  0.535300  0.132600  0.412700  1.0
  H  H562  1  0.464700  0.132600  0.587300  1.0
  H  H563  1  0.535300  0.867400  0.587300  1.0
  H  H564  1  0.464700  0.867400  0.412700  1.0
  H  H565  1  0.035300  0.912700  0.632600  1.0
  H  H566  1  0.964700  0.087300  0.632600  1.0
  H  H567  1  0.035300  0.087300  0.367400  1.0
  H  H568  1  0.964700  0.912700  0.367400  1.0
  H  H569  1  0.912700  0.632600  0.035300  1.0
  H  H570  1  0.087300  0.632600  0.964700  1.0
  H  H571  1  0.087300  0.367400  0.035300  1.0
  H  H572  1  0.912700  0.367400  0.964700  1.0
  H  H573  1  0.632600  0.035300  0.912700  1.0
  H  H574  1  0.632600  0.964700  0.087300  1.0
  H  H575  1  0.367400  0.035300  0.087300  1.0
  H  H576  1  0.367400  0.964700  0.912700  1.0
  H  H577  1  0.417400  0.590400  0.232000  1.0
  H  H578  1  0.582600  0.409600  0.232000  1.0
  H  H579  1  0.582600  0.590400  0.768000  1.0
  H  H580  1  0.417400  0.409600  0.768000  1.0
  H  H581  1  0.232000  0.417400  0.590400  1.0
  H  H582  1  0.232000  0.582600  0.409600  1.0
  H  H583  1  0.768000  0.582600  0.590400  1.0
  H  H584  1  0.768000  0.417400  0.409600  1.0
  H  H585  1  0.590400  0.232000  0.417400  1.0
  H  H586  1  0.409600  0.232000  0.582600  1.0
  H  H587  1  0.590400  0.768000  0.582600  1.0
  H  H588  1  0.409600  0.768000  0.417400  1.0
  H  H589  1  0.090400  0.917400  0.732000  1.0
  H  H590  1  0.909600  0.082600  0.732000  1.0
  H  H591  1  0.090400  0.082600  0.268000  1.0
  H  H592  1  0.909600  0.917400  0.268000  1.0
  H  H593  1  0.917400  0.732000  0.090400  1.0
  H  H594  1  0.082600  0.732000  0.909600  1.0
  H  H595  1  0.082600  0.268000  0.090400  1.0
  H  H596  1  0.917400  0.268000  0.909600  1.0
  H  H597  1  0.732000  0.090400  0.917400  1.0
  H  H598  1  0.732000  0.909600  0.082600  1.0
  H  H599  1  0.268000  0.090400  0.082600  1.0
  H  H600  1  0.268000  0.909600  0.917400  1.0
  H  H601  1  0.483000  0.585800  0.231400  1.0
  H  H602  1  0.517000  0.414200  0.231400  1.0
  H  H603  1  0.517000  0.585800  0.768600  1.0
  H  H604  1  0.483000  0.414200  0.768600  1.0
  H  H605  1  0.231400  0.483000  0.585800  1.0
  H  H606  1  0.231400  0.517000  0.414200  1.0
  H  H607  1  0.768600  0.517000  0.585800  1.0
  H  H608  1  0.768600  0.483000  0.414200  1.0
  H  H609  1  0.585800  0.231400  0.483000  1.0
  H  H610  1  0.414200  0.231400  0.517000  1.0
  H  H611  1  0.585800  0.768600  0.517000  1.0
  H  H612  1  0.414200  0.768600  0.483000  1.0
  H  H613  1  0.085800  0.983000  0.731400  1.0
  H  H614  1  0.914200  0.017000  0.731400  1.0
  H  H615  1  0.085800  0.017000  0.268600  1.0
  H  H616  1  0.914200  0.983000  0.268600  1.0
  H  H617  1  0.983000  0.731400  0.085800  1.0
  H  H618  1  0.017000  0.731400  0.914200  1.0
  H  H619  1  0.017000  0.268600  0.085800  1.0
  H  H620  1  0.983000  0.268600  0.914200  1.0
  H  H621  1  0.731400  0.085800  0.983000  1.0
  H  H622  1  0.731400  0.914200  0.017000  1.0
  H  H623  1  0.268600  0.085800  0.017000  1.0
  H  H624  1  0.268600  0.914200  0.983000  1.0
  C  C625  1  0.303810  0.630180  0.125140  1.0
  C  C626  1  0.696190  0.369820  0.125140  1.0
  C  C627  1  0.696190  0.630180  0.874860  1.0
  C  C628  1  0.303810  0.369820  0.874860  1.0
  C  C629  1  0.125140  0.303810  0.630180  1.0
  C  C630  1  0.125140  0.696190  0.369820  1.0
  C  C631  1  0.874860  0.696190  0.630180  1.0
  C  C632  1  0.874860  0.303810  0.369820  1.0
  C  C633  1  0.630180  0.125140  0.303810  1.0
  C  C634  1  0.369820  0.125140  0.696190  1.0
  C  C635  1  0.630180  0.874860  0.696190  1.0
  C  C636  1  0.369820  0.874860  0.303810  1.0
  C  C637  1  0.130180  0.803810  0.625140  1.0
  C  C638  1  0.869820  0.196190  0.625140  1.0
  C  C639  1  0.130180  0.196190  0.374860  1.0
  C  C640  1  0.869820  0.803810  0.374860  1.0
  C  C641  1  0.803810  0.625140  0.130180  1.0
  C  C642  1  0.196190  0.625140  0.869820  1.0
  C  C643  1  0.196190  0.374860  0.130180  1.0
  C  C644  1  0.803810  0.374860  0.869820  1.0
  C  C645  1  0.625140  0.130180  0.803810  1.0
  C  C646  1  0.625140  0.869820  0.196190  1.0
  C  C647  1  0.374860  0.130180  0.196190  1.0
  C  C648  1  0.374860  0.869820  0.803810  1.0
  C  C649  1  0.310700  0.657200  0.093200  1.0
  C  C650  1  0.689300  0.342800  0.093200  1.0
  C  C651  1  0.689300  0.657200  0.906800  1.0
  C  C652  1  0.310700  0.342800  0.906800  1.0
  C  C653  1  0.093200  0.310700  0.657200  1.0
  C  C654  1  0.093200  0.689300  0.342800  1.0
  C  C655  1  0.906800  0.689300  0.657200  1.0
  C  C656  1  0.906800  0.310700  0.342800  1.0
  C  C657  1  0.657200  0.093200  0.310700  1.0
  C  C658  1  0.342800  0.093200  0.689300  1.0
  C  C659  1  0.657200  0.906800  0.689300  1.0
  C  C660  1  0.342800  0.906800  0.310700  1.0
  C  C661  1  0.157200  0.810700  0.593200  1.0
  C  C662  1  0.842800  0.189300  0.593200  1.0
  C  C663  1  0.157200  0.189300  0.406800  1.0
  C  C664  1  0.842800  0.810700  0.406800  1.0
  C  C665  1  0.810700  0.593200  0.157200  1.0
  C  C666  1  0.189300  0.593200  0.842800  1.0
  C  C667  1  0.189300  0.406800  0.157200  1.0
  C  C668  1  0.810700  0.406800  0.842800  1.0
  C  C669  1  0.593200  0.157200  0.810700  1.0
  C  C670  1  0.593200  0.842800  0.189300  1.0
  C  C671  1  0.406800  0.157200  0.189300  1.0
  C  C672  1  0.406800  0.842800  0.810700  1.0
  C  C673  1  0.304400  0.647670  0.055900  1.0
  C  C674  1  0.695600  0.352330  0.055900  1.0
  C  C675  1  0.695600  0.647670  0.944100  1.0
  C  C676  1  0.304400  0.352330  0.944100  1.0
  C  C677  1  0.055900  0.304400  0.647670  1.0
  C  C678  1  0.055900  0.695600  0.352330  1.0
  C  C679  1  0.944100  0.695600  0.647670  1.0
  C  C680  1  0.944100  0.304400  0.352330  1.0
  C  C681  1  0.647670  0.055900  0.304400  1.0
  C  C682  1  0.352330  0.055900  0.695600  1.0
  C  C683  1  0.647670  0.944100  0.695600  1.0
  C  C684  1  0.352330  0.944100  0.304400  1.0
  C  C685  1  0.147670  0.804400  0.555900  1.0
  C  C686  1  0.852330  0.195600  0.555900  1.0
  C  C687  1  0.147670  0.195600  0.444100  1.0
  C  C688  1  0.852330  0.804400  0.444100  1.0
  C  C689  1  0.804400  0.555900  0.147670  1.0
  C  C690  1  0.195600  0.555900  0.852330  1.0
  C  C691  1  0.195600  0.444100  0.147670  1.0
  C  C692  1  0.804400  0.444100  0.852330  1.0
  C  C693  1  0.555900  0.147670  0.804400  1.0
  C  C694  1  0.555900  0.852330  0.195600  1.0
  C  C695  1  0.444100  0.147670  0.195600  1.0
  C  C696  1  0.444100  0.852330  0.804400  1.0
  C  C697  1  0.311300  0.673800  0.027660  1.0
  C  C698  1  0.688700  0.326200  0.027660  1.0
  C  C699  1  0.688700  0.673800  0.972340  1.0
  C  C700  1  0.311300  0.326200  0.972340  1.0
  C  C701  1  0.027660  0.311300  0.673800  1.0
  C  C702  1  0.027660  0.688700  0.326200  1.0
  C  C703  1  0.972340  0.688700  0.673800  1.0
  C  C704  1  0.972340  0.311300  0.326200  1.0
  C  C705  1  0.673800  0.027660  0.311300  1.0
  C  C706  1  0.326200  0.027660  0.688700  1.0
  C  C707  1  0.673800  0.972340  0.688700  1.0
  C  C708  1  0.326200  0.972340  0.311300  1.0
  C  C709  1  0.173800  0.811300  0.527660  1.0
  C  C710  1  0.826200  0.188700  0.527660  1.0
  C  C711  1  0.173800  0.188700  0.472340  1.0
  C  C712  1  0.826200  0.811300  0.472340  1.0
  C  C713  1  0.811300  0.527660  0.173800  1.0
  C  C714  1  0.188700  0.527660  0.826200  1.0
  C  C715  1  0.188700  0.472340  0.173800  1.0
  C  C716  1  0.811300  0.472340  0.826200  1.0
  C  C717  1  0.527660  0.173800  0.811300  1.0
  C  C718  1  0.527660  0.826200  0.188700  1.0
  C  C719  1  0.472340  0.173800  0.188700  1.0
  C  C720  1  0.472340  0.826200  0.811300  1.0
  C  C721  1  0.324420  0.709400  0.036800  1.0
  C  C722  1  0.675580  0.290600  0.036800  1.0
  C  C723  1  0.675580  0.709400  0.963200  1.0
  C  C724  1  0.324420  0.290600  0.963200  1.0
  C  C725  1  0.036800  0.324420  0.709400  1.0
  C  C726  1  0.036800  0.675580  0.290600  1.0
  C  C727  1  0.963200  0.675580  0.709400  1.0
  C  C728  1  0.963200  0.324420  0.290600  1.0
  C  C729  1  0.709400  0.036800  0.324420  1.0
  C  C730  1  0.290600  0.036800  0.675580  1.0
  C  C731  1  0.709400  0.963200  0.675580  1.0
  C  C732  1  0.290600  0.963200  0.324420  1.0
  C  C733  1  0.209400  0.824420  0.536800  1.0
  C  C734  1  0.790600  0.175580  0.536800  1.0
  C  C735  1  0.209400  0.175580  0.463200  1.0
  C  C736  1  0.790600  0.824420  0.463200  1.0
  C  C737  1  0.824420  0.536800  0.209400  1.0
  C  C738  1  0.175580  0.536800  0.790600  1.0
  C  C739  1  0.175580  0.463200  0.209400  1.0
  C  C740  1  0.824420  0.463200  0.790600  1.0
  C  C741  1  0.536800  0.209400  0.824420  1.0
  C  C742  1  0.536800  0.790600  0.175580  1.0
  C  C743  1  0.463200  0.209400  0.175580  1.0
  C  C744  1  0.463200  0.790600  0.824420  1.0
  C  C745  1  0.330700  0.718890  0.074100  1.0
  C  C746  1  0.669300  0.281110  0.074100  1.0
  C  C747  1  0.669300  0.718890  0.925900  1.0
  C  C748  1  0.330700  0.281110  0.925900  1.0
  C  C749  1  0.074100  0.330700  0.718890  1.0
  C  C750  1  0.074100  0.669300  0.281110  1.0
  C  C751  1  0.925900  0.669300  0.718890  1.0
  C  C752  1  0.925900  0.330700  0.281110  1.0
  C  C753  1  0.718890  0.074100  0.330700  1.0
  C  C754  1  0.281110  0.074100  0.669300  1.0
  C  C755  1  0.718890  0.925900  0.669300  1.0
  C  C756  1  0.281110  0.925900  0.330700  1.0
  C  C757  1  0.218890  0.830700  0.574100  1.0
  C  C758  1  0.781110  0.169300  0.574100  1.0
  C  C759  1  0.218890  0.169300  0.425900  1.0
  C  C760  1  0.781110  0.830700  0.425900  1.0
  C  C761  1  0.830700  0.574100  0.218890  1.0
  C  C762  1  0.169300  0.574100  0.781110  1.0
  C  C763  1  0.169300  0.425900  0.218890  1.0
  C  C764  1  0.830700  0.425900  0.781110  1.0
  C  C765  1  0.574100  0.218890  0.830700  1.0
  C  C766  1  0.574100  0.781110  0.169300  1.0
  C  C767  1  0.425900  0.218890  0.169300  1.0
  C  C768  1  0.425900  0.781110  0.830700  1.0
  C  C769  1  0.323800  0.692800  0.102300  1.0
  C  C770  1  0.676200  0.307200  0.102300  1.0
  C  C771  1  0.676200  0.692800  0.897700  1.0
  C  C772  1  0.323800  0.307200  0.897700  1.0
  C  C773  1  0.102300  0.323800  0.692800  1.0
  C  C774  1  0.102300  0.676200  0.307200  1.0
  C  C775  1  0.897700  0.676200  0.692800  1.0
  C  C776  1  0.897700  0.323800  0.307200  1.0
  C  C777  1  0.692800  0.102300  0.323800  1.0
  C  C778  1  0.307200  0.102300  0.676200  1.0
  C  C779  1  0.692800  0.897700  0.676200  1.0
  C  C780  1  0.307200  0.897700  0.323800  1.0
  C  C781  1  0.192800  0.823800  0.602300  1.0
  C  C782  1  0.807200  0.176200  0.602300  1.0
  C  C783  1  0.192800  0.176200  0.397700  1.0
  C  C784  1  0.807200  0.823800  0.397700  1.0
  C  C785  1  0.823800  0.602300  0.192800  1.0
  C  C786  1  0.176200  0.602300  0.807200  1.0
  C  C787  1  0.176200  0.397700  0.192800  1.0
  C  C788  1  0.823800  0.397700  0.807200  1.0
  C  C789  1  0.602300  0.192800  0.823800  1.0
  C  C790  1  0.602300  0.807200  0.176200  1.0
  C  C791  1  0.397700  0.192800  0.176200  1.0
  C  C792  1  0.397700  0.807200  0.823800  1.0
  C  C793  1  0.333400  0.741100  0.010200  1.0
  C  C794  1  0.666600  0.258900  0.010200  1.0
  C  C795  1  0.666600  0.741100  0.989800  1.0
  C  C796  1  0.333400  0.258900  0.989800  1.0
  C  C797  1  0.010200  0.333400  0.741100  1.0
  C  C798  1  0.010200  0.666600  0.258900  1.0
  C  C799  1  0.989800  0.666600  0.741100  1.0
  C  C800  1  0.989800  0.333400  0.258900  1.0
  C  C801  1  0.741100  0.010200  0.333400  1.0
  C  C802  1  0.258900  0.010200  0.666600  1.0
  C  C803  1  0.741100  0.989800  0.666600  1.0
  C  C804  1  0.258900  0.989800  0.333400  1.0
  C  C805  1  0.241100  0.833400  0.510200  1.0
  C  C806  1  0.758900  0.166600  0.510200  1.0
  C  C807  1  0.241100  0.166600  0.489800  1.0
  C  C808  1  0.758900  0.833400  0.489800  1.0
  C  C809  1  0.833400  0.510200  0.241100  1.0
  C  C810  1  0.166600  0.510200  0.758900  1.0
  C  C811  1  0.166600  0.489800  0.241100  1.0
  C  C812  1  0.833400  0.489800  0.758900  1.0
  C  C813  1  0.510200  0.241100  0.833400  1.0
  C  C814  1  0.510200  0.758900  0.166600  1.0
  C  C815  1  0.489800  0.241100  0.166600  1.0
  C  C816  1  0.489800  0.758900  0.833400  1.0
  C  C817  1  0.340910  0.767100  0.990000  1.0
  C  C818  1  0.659090  0.232900  0.990000  1.0
  C  C819  1  0.659090  0.767100  0.010000  1.0
  C  C820  1  0.340910  0.232900  0.010000  1.0
  C  C821  1  0.990000  0.340910  0.767100  1.0
  C  C822  1  0.990000  0.659090  0.232900  1.0
  C  C823  1  0.010000  0.659090  0.767100  1.0
  C  C824  1  0.010000  0.340910  0.232900  1.0
  C  C825  1  0.767100  0.990000  0.340910  1.0
  C  C826  1  0.232900  0.990000  0.659090  1.0
  C  C827  1  0.767100  0.010000  0.659090  1.0
  C  C828  1  0.232900  0.010000  0.340910  1.0
  C  C829  1  0.267100  0.840910  0.490000  1.0
  C  C830  1  0.732900  0.159090  0.490000  1.0
  C  C831  1  0.267100  0.159090  0.510000  1.0
  C  C832  1  0.732900  0.840910  0.510000  1.0
  C  C833  1  0.840910  0.490000  0.267100  1.0
  C  C834  1  0.159090  0.490000  0.732900  1.0
  C  C835  1  0.159090  0.510000  0.267100  1.0
  C  C836  1  0.840910  0.510000  0.732900  1.0
  C  C837  1  0.490000  0.267100  0.840910  1.0
  C  C838  1  0.490000  0.732900  0.159090  1.0
  C  C839  1  0.510000  0.267100  0.159090  1.0
  C  C840  1  0.510000  0.732900  0.840910  1.0
  C  C841  1  0.350490  0.800940  0.966400  1.0
  C  C842  1  0.649510  0.199060  0.966400  1.0
  C  C843  1  0.649510  0.800940  0.033600  1.0
  C  C844  1  0.350490  0.199060  0.033600  1.0
  C  C845  1  0.966400  0.350490  0.800940  1.0
  C  C846  1  0.966400  0.649510  0.199060  1.0
  C  C847  1  0.033600  0.649510  0.800940  1.0
  C  C848  1  0.033600  0.350490  0.199060  1.0
  C  C849  1  0.800940  0.966400  0.350490  1.0
  C  C850  1  0.199060  0.966400  0.649510  1.0
  C  C851  1  0.800940  0.033600  0.649510  1.0
  C  C852  1  0.199060  0.033600  0.350490  1.0
  C  C853  1  0.300940  0.850490  0.466400  1.0
  C  C854  1  0.699060  0.149510  0.466400  1.0
  C  C855  1  0.300940  0.149510  0.533600  1.0
  C  C856  1  0.699060  0.850490  0.533600  1.0
  C  C857  1  0.850490  0.466400  0.300940  1.0
  C  C858  1  0.149510  0.466400  0.699060  1.0
  C  C859  1  0.149510  0.533600  0.300940  1.0
  C  C860  1  0.850490  0.533600  0.699060  1.0
  C  C861  1  0.466400  0.300940  0.850490  1.0
  C  C862  1  0.466400  0.699060  0.149510  1.0
  C  C863  1  0.533600  0.300940  0.149510  1.0
  C  C864  1  0.533600  0.699060  0.850490  1.0
  C  C865  1  0.343500  0.800560  0.928000  1.0
  C  C866  1  0.656500  0.199440  0.928000  1.0
  C  C867  1  0.656500  0.800560  0.072000  1.0
  C  C868  1  0.343500  0.199440  0.072000  1.0
  C  C869  1  0.928000  0.343500  0.800560  1.0
  C  C870  1  0.928000  0.656500  0.199440  1.0
  C  C871  1  0.072000  0.656500  0.800560  1.0
  C  C872  1  0.072000  0.343500  0.199440  1.0
  C  C873  1  0.800560  0.928000  0.343500  1.0
  C  C874  1  0.199440  0.928000  0.656500  1.0
  C  C875  1  0.800560  0.072000  0.656500  1.0
  C  C876  1  0.199440  0.072000  0.343500  1.0
  C  C877  1  0.300560  0.843500  0.428000  1.0
  C  C878  1  0.699440  0.156500  0.428000  1.0
  C  C879  1  0.300560  0.156500  0.572000  1.0
  C  C880  1  0.699440  0.843500  0.572000  1.0
  C  C881  1  0.843500  0.428000  0.300560  1.0
  C  C882  1  0.156500  0.428000  0.699440  1.0
  C  C883  1  0.156500  0.572000  0.300560  1.0
  C  C884  1  0.843500  0.572000  0.699440  1.0
  C  C885  1  0.428000  0.300560  0.843500  1.0
  C  C886  1  0.428000  0.699440  0.156500  1.0
  C  C887  1  0.572000  0.300560  0.156500  1.0
  C  C888  1  0.572000  0.699440  0.843500  1.0
  C  C889  1  0.352300  0.831700  0.906230  1.0
  C  C890  1  0.647700  0.168300  0.906230  1.0
  C  C891  1  0.647700  0.831700  0.093770  1.0
  C  C892  1  0.352300  0.168300  0.093770  1.0
  C  C893  1  0.906230  0.352300  0.831700  1.0
  C  C894  1  0.906230  0.647700  0.168300  1.0
  C  C895  1  0.093770  0.647700  0.831700  1.0
  C  C896  1  0.093770  0.352300  0.168300  1.0
  C  C897  1  0.831700  0.906230  0.352300  1.0
  C  C898  1  0.168300  0.906230  0.647700  1.0
  C  C899  1  0.831700  0.093770  0.647700  1.0
  C  C900  1  0.168300  0.093770  0.352300  1.0
  C  C901  1  0.331700  0.852300  0.406230  1.0
  C  C902  1  0.668300  0.147700  0.406230  1.0
  C  C903  1  0.331700  0.147700  0.593770  1.0
  C  C904  1  0.668300  0.852300  0.593770  1.0
  C  C905  1  0.852300  0.406230  0.331700  1.0
  C  C906  1  0.147700  0.406230  0.668300  1.0
  C  C907  1  0.147700  0.593770  0.331700  1.0
  C  C908  1  0.852300  0.593770  0.668300  1.0
  C  C909  1  0.406230  0.331700  0.852300  1.0
  C  C910  1  0.406230  0.668300  0.147700  1.0
  C  C911  1  0.593770  0.331700  0.147700  1.0
  C  C912  1  0.593770  0.668300  0.852300  1.0
  C  C913  1  0.368100  0.863300  0.922900  1.0
  C  C914  1  0.631900  0.136700  0.922900  1.0
  C  C915  1  0.631900  0.863300  0.077100  1.0
  C  C916  1  0.368100  0.136700  0.077100  1.0
  C  C917  1  0.922900  0.368100  0.863300  1.0
  C  C918  1  0.922900  0.631900  0.136700  1.0
  C  C919  1  0.077100  0.631900  0.863300  1.0
  C  C920  1  0.077100  0.368100  0.136700  1.0
  C  C921  1  0.863300  0.922900  0.368100  1.0
  C  C922  1  0.136700  0.922900  0.631900  1.0
  C  C923  1  0.863300  0.077100  0.631900  1.0
  C  C924  1  0.136700  0.077100  0.368100  1.0
  C  C925  1  0.363300  0.868100  0.422900  1.0
  C  C926  1  0.636700  0.131900  0.422900  1.0
  C  C927  1  0.363300  0.131900  0.577100  1.0
  C  C928  1  0.636700  0.868100  0.577100  1.0
  C  C929  1  0.868100  0.422900  0.363300  1.0
  C  C930  1  0.131900  0.422900  0.636700  1.0
  C  C931  1  0.131900  0.577100  0.363300  1.0
  C  C932  1  0.868100  0.577100  0.636700  1.0
  C  C933  1  0.422900  0.363300  0.868100  1.0
  C  C934  1  0.422900  0.636700  0.131900  1.0
  C  C935  1  0.577100  0.363300  0.131900  1.0
  C  C936  1  0.577100  0.636700  0.868100  1.0
  C  C937  1  0.375100  0.863690  0.961300  1.0
  C  C938  1  0.624900  0.136310  0.961300  1.0
  C  C939  1  0.624900  0.863690  0.038700  1.0
  C  C940  1  0.375100  0.136310  0.038700  1.0
  C  C941  1  0.961300  0.375100  0.863690  1.0
  C  C942  1  0.961300  0.624900  0.136310  1.0
  C  C943  1  0.038700  0.624900  0.863690  1.0
  C  C944  1  0.038700  0.375100  0.136310  1.0
  C  C945  1  0.863690  0.961300  0.375100  1.0
  C  C946  1  0.136310  0.961300  0.624900  1.0
  C  C947  1  0.863690  0.038700  0.624900  1.0
  C  C948  1  0.136310  0.038700  0.375100  1.0
  C  C949  1  0.363690  0.875100  0.461300  1.0
  C  C950  1  0.636310  0.124900  0.461300  1.0
  C  C951  1  0.363690  0.124900  0.538700  1.0
  C  C952  1  0.636310  0.875100  0.538700  1.0
  C  C953  1  0.875100  0.461300  0.363690  1.0
  C  C954  1  0.124900  0.461300  0.636310  1.0
  C  C955  1  0.124900  0.538700  0.363690  1.0
  C  C956  1  0.875100  0.538700  0.636310  1.0
  C  C957  1  0.461300  0.363690  0.875100  1.0
  C  C958  1  0.461300  0.636310  0.124900  1.0
  C  C959  1  0.538700  0.363690  0.124900  1.0
  C  C960  1  0.538700  0.636310  0.875100  1.0
  C  C961  1  0.366300  0.832500  0.983020  1.0
  C  C962  1  0.633700  0.167500  0.983020  1.0
  C  C963  1  0.633700  0.832500  0.016980  1.0
  C  C964  1  0.366300  0.167500  0.016980  1.0
  C  C965  1  0.983020  0.366300  0.832500  1.0
  C  C966  1  0.983020  0.633700  0.167500  1.0
  C  C967  1  0.016980  0.633700  0.832500  1.0
  C  C968  1  0.016980  0.366300  0.167500  1.0
  C  C969  1  0.832500  0.983020  0.366300  1.0
  C  C970  1  0.167500  0.983020  0.633700  1.0
  C  C971  1  0.832500  0.016980  0.633700  1.0
  C  C972  1  0.167500  0.016980  0.366300  1.0
  C  C973  1  0.332500  0.866300  0.483020  1.0
  C  C974  1  0.667500  0.133700  0.483020  1.0
  C  C975  1  0.332500  0.133700  0.516980  1.0
  C  C976  1  0.667500  0.866300  0.516980  1.0
  C  C977  1  0.866300  0.483020  0.332500  1.0
  C  C978  1  0.133700  0.483020  0.667500  1.0
  C  C979  1  0.133700  0.516980  0.332500  1.0
  C  C980  1  0.866300  0.516980  0.667500  1.0
  C  C981  1  0.483020  0.332500  0.866300  1.0
  C  C982  1  0.483020  0.667500  0.133700  1.0
  C  C983  1  0.516980  0.332500  0.133700  1.0
  C  C984  1  0.516980  0.667500  0.866300  1.0
  C  C985  1  0.373000  0.830600  0.024860  1.0
  C  C986  1  0.627000  0.169400  0.024860  1.0
  C  C987  1  0.627000  0.830600  0.975140  1.0
  C  C988  1  0.373000  0.169400  0.975140  1.0
  C  C989  1  0.024860  0.373000  0.830600  1.0
  C  C990  1  0.024860  0.627000  0.169400  1.0
  C  C991  1  0.975140  0.627000  0.830600  1.0
  C  C992  1  0.975140  0.373000  0.169400  1.0
  C  C993  1  0.830600  0.024860  0.373000  1.0
  C  C994  1  0.169400  0.024860  0.627000  1.0
  C  C995  1  0.830600  0.975140  0.627000  1.0
  C  C996  1  0.169400  0.975140  0.373000  1.0
  C  C997  1  0.330600  0.873000  0.524860  1.0
  C  C998  1  0.669400  0.127000  0.524860  1.0
  C  C999  1  0.330600  0.127000  0.475140  1.0
  C  C1000  1  0.669400  0.873000  0.475140  1.0
  C  C1001  1  0.873000  0.524860  0.330600  1.0
  C  C1002  1  0.127000  0.524860  0.669400  1.0
  C  C1003  1  0.127000  0.475140  0.330600  1.0
  C  C1004  1  0.873000  0.475140  0.669400  1.0
  C  C1005  1  0.524860  0.330600  0.873000  1.0
  C  C1006  1  0.524860  0.669400  0.127000  1.0
  C  C1007  1  0.475140  0.330600  0.127000  1.0
  C  C1008  1  0.475140  0.669400  0.873000  1.0
  C  C1009  1  0.377100  0.831400  0.058330  1.0
  C  C1010  1  0.622900  0.168600  0.058330  1.0
  C  C1011  1  0.622900  0.831400  0.941670  1.0
  C  C1012  1  0.377100  0.168600  0.941670  1.0
  C  C1013  1  0.058330  0.377100  0.831400  1.0
  C  C1014  1  0.058330  0.622900  0.168600  1.0
  C  C1015  1  0.941670  0.622900  0.831400  1.0
  C  C1016  1  0.941670  0.377100  0.168600  1.0
  C  C1017  1  0.831400  0.058330  0.377100  1.0
  C  C1018  1  0.168600  0.058330  0.622900  1.0
  C  C1019  1  0.831400  0.941670  0.622900  1.0
  C  C1020  1  0.168600  0.941670  0.377100  1.0
  C  C1021  1  0.331400  0.877100  0.558330  1.0
  C  C1022  1  0.668600  0.122900  0.558330  1.0
  C  C1023  1  0.331400  0.122900  0.441670  1.0
  C  C1024  1  0.668600  0.877100  0.441670  1.0
  C  C1025  1  0.877100  0.558330  0.331400  1.0
  C  C1026  1  0.122900  0.558330  0.668600  1.0
  C  C1027  1  0.122900  0.441670  0.331400  1.0
  C  C1028  1  0.877100  0.441670  0.668600  1.0
  C  C1029  1  0.558330  0.331400  0.877100  1.0
  C  C1030  1  0.558330  0.668600  0.122900  1.0
  C  C1031  1  0.441670  0.331400  0.122900  1.0
  C  C1032  1  0.441670  0.668600  0.877100  1.0
  C  C1033  1  0.385500  0.830600  0.099900  1.0
  C  C1034  1  0.614500  0.169400  0.099900  1.0
  C  C1035  1  0.614500  0.830600  0.900100  1.0
  C  C1036  1  0.385500  0.169400  0.900100  1.0
  C  C1037  1  0.099900  0.385500  0.830600  1.0
  C  C1038  1  0.099900  0.614500  0.169400  1.0
  C  C1039  1  0.900100  0.614500  0.830600  1.0
  C  C1040  1  0.900100  0.385500  0.169400  1.0
  C  C1041  1  0.830600  0.099900  0.385500  1.0
  C  C1042  1  0.169400  0.099900  0.614500  1.0
  C  C1043  1  0.830600  0.900100  0.614500  1.0
  C  C1044  1  0.169400  0.900100  0.385500  1.0
  C  C1045  1  0.330600  0.885500  0.599900  1.0
  C  C1046  1  0.669400  0.114500  0.599900  1.0
  C  C1047  1  0.330600  0.114500  0.400100  1.0
  C  C1048  1  0.669400  0.885500  0.400100  1.0
  C  C1049  1  0.885500  0.599900  0.330600  1.0
  C  C1050  1  0.114500  0.599900  0.669400  1.0
  C  C1051  1  0.114500  0.400100  0.330600  1.0
  C  C1052  1  0.885500  0.400100  0.669400  1.0
  C  C1053  1  0.599900  0.330600  0.885500  1.0
  C  C1054  1  0.599900  0.669400  0.114500  1.0
  C  C1055  1  0.400100  0.330600  0.114500  1.0
  C  C1056  1  0.400100  0.669400  0.885500  1.0
  C  C1057  1  0.415800  0.849900  0.115000  1.0
  C  C1058  1  0.584200  0.150100  0.115000  1.0
  C  C1059  1  0.584200  0.849900  0.885000  1.0
  C  C1060  1  0.415800  0.150100  0.885000  1.0
  C  C1061  1  0.115000  0.415800  0.849900  1.0
  C  C1062  1  0.115000  0.584200  0.150100  1.0
  C  C1063  1  0.885000  0.584200  0.849900  1.0
  C  C1064  1  0.885000  0.415800  0.150100  1.0
  C  C1065  1  0.849900  0.115000  0.415800  1.0
  C  C1066  1  0.150100  0.115000  0.584200  1.0
  C  C1067  1  0.849900  0.885000  0.584200  1.0
  C  C1068  1  0.150100  0.885000  0.415800  1.0
  C  C1069  1  0.349900  0.915800  0.615000  1.0
  C  C1070  1  0.650100  0.084200  0.615000  1.0
  C  C1071  1  0.349900  0.084200  0.385000  1.0
  C  C1072  1  0.650100  0.915800  0.385000  1.0
  C  C1073  1  0.915800  0.615000  0.349900  1.0
  C  C1074  1  0.084200  0.615000  0.650100  1.0
  C  C1075  1  0.084200  0.385000  0.349900  1.0
  C  C1076  1  0.915800  0.385000  0.650100  1.0
  C  C1077  1  0.615000  0.349900  0.915800  1.0
  C  C1078  1  0.615000  0.650100  0.084200  1.0
  C  C1079  1  0.385000  0.349900  0.084200  1.0
  C  C1080  1  0.385000  0.650100  0.915800  1.0
  C  C1081  1  0.422700  0.848500  0.153400  1.0
  C  C1082  1  0.577300  0.151500  0.153400  1.0
  C  C1083  1  0.577300  0.848500  0.846600  1.0
  C  C1084  1  0.422700  0.151500  0.846600  1.0
  C  C1085  1  0.153400  0.422700  0.848500  1.0
  C  C1086  1  0.153400  0.577300  0.151500  1.0
  C  C1087  1  0.846600  0.577300  0.848500  1.0
  C  C1088  1  0.846600  0.422700  0.151500  1.0
  C  C1089  1  0.848500  0.153400  0.422700  1.0
  C  C1090  1  0.151500  0.153400  0.577300  1.0
  C  C1091  1  0.848500  0.846600  0.577300  1.0
  C  C1092  1  0.151500  0.846600  0.422700  1.0
  C  C1093  1  0.348500  0.922700  0.653400  1.0
  C  C1094  1  0.651500  0.077300  0.653400  1.0
  C  C1095  1  0.348500  0.077300  0.346600  1.0
  C  C1096  1  0.651500  0.922700  0.346600  1.0
  C  C1097  1  0.922700  0.653400  0.348500  1.0
  C  C1098  1  0.077300  0.653400  0.651500  1.0
  C  C1099  1  0.077300  0.346600  0.348500  1.0
  C  C1100  1  0.922700  0.346600  0.651500  1.0
  C  C1101  1  0.653400  0.348500  0.922700  1.0
  C  C1102  1  0.653400  0.651500  0.077300  1.0
  C  C1103  1  0.346600  0.348500  0.077300  1.0
  C  C1104  1  0.346600  0.651500  0.922700  1.0
  C  C1105  1  0.399200  0.827800  0.176700  1.0
  C  C1106  1  0.600800  0.172200  0.176700  1.0
  C  C1107  1  0.600800  0.827800  0.823300  1.0
  C  C1108  1  0.399200  0.172200  0.823300  1.0
  C  C1109  1  0.176700  0.399200  0.827800  1.0
  C  C1110  1  0.176700  0.600800  0.172200  1.0
  C  C1111  1  0.823300  0.600800  0.827800  1.0
  C  C1112  1  0.823300  0.399200  0.172200  1.0
  C  C1113  1  0.827800  0.176700  0.399200  1.0
  C  C1114  1  0.172200  0.176700  0.600800  1.0
  C  C1115  1  0.827800  0.823300  0.600800  1.0
  C  C1116  1  0.172200  0.823300  0.399200  1.0
  C  C1117  1  0.327800  0.899200  0.676700  1.0
  C  C1118  1  0.672200  0.100800  0.676700  1.0
  C  C1119  1  0.327800  0.100800  0.323300  1.0
  C  C1120  1  0.672200  0.899200  0.323300  1.0
  C  C1121  1  0.899200  0.676700  0.327800  1.0
  C  C1122  1  0.100800  0.676700  0.672200  1.0
  C  C1123  1  0.100800  0.323300  0.327800  1.0
  C  C1124  1  0.899200  0.323300  0.672200  1.0
  C  C1125  1  0.676700  0.327800  0.899200  1.0
  C  C1126  1  0.676700  0.672200  0.100800  1.0
  C  C1127  1  0.323300  0.327800  0.100800  1.0
  C  C1128  1  0.323300  0.672200  0.899200  1.0
  C  C1129  1  0.368800  0.808500  0.161600  1.0
  C  C1130  1  0.631200  0.191500  0.161600  1.0
  C  C1131  1  0.631200  0.808500  0.838400  1.0
  C  C1132  1  0.368800  0.191500  0.838400  1.0
  C  C1133  1  0.161600  0.368800  0.808500  1.0
  C  C1134  1  0.161600  0.631200  0.191500  1.0
  C  C1135  1  0.838400  0.631200  0.808500  1.0
  C  C1136  1  0.838400  0.368800  0.191500  1.0
  C  C1137  1  0.808500  0.161600  0.368800  1.0
  C  C1138  1  0.191500  0.161600  0.631200  1.0
  C  C1139  1  0.808500  0.838400  0.631200  1.0
  C  C1140  1  0.191500  0.838400  0.368800  1.0
  C  C1141  1  0.308500  0.868800  0.661600  1.0
  C  C1142  1  0.691500  0.131200  0.661600  1.0
  C  C1143  1  0.308500  0.131200  0.338400  1.0
  C  C1144  1  0.691500  0.868800  0.338400  1.0
  C  C1145  1  0.868800  0.661600  0.308500  1.0
  C  C1146  1  0.131200  0.661600  0.691500  1.0
  C  C1147  1  0.131200  0.338400  0.308500  1.0
  C  C1148  1  0.868800  0.338400  0.691500  1.0
  C  C1149  1  0.661600  0.308500  0.868800  1.0
  C  C1150  1  0.661600  0.691500  0.131200  1.0
  C  C1151  1  0.338400  0.308500  0.131200  1.0
  C  C1152  1  0.338400  0.691500  0.868800  1.0
  C  C1153  1  0.361900  0.809900  0.123200  1.0
  C  C1154  1  0.638100  0.190100  0.123200  1.0
  C  C1155  1  0.638100  0.809900  0.876800  1.0
  C  C1156  1  0.361900  0.190100  0.876800  1.0
  C  C1157  1  0.123200  0.361900  0.809900  1.0
  C  C1158  1  0.123200  0.638100  0.190100  1.0
  C  C1159  1  0.876800  0.638100  0.809900  1.0
  C  C1160  1  0.876800  0.361900  0.190100  1.0
  C  C1161  1  0.809900  0.123200  0.361900  1.0
  C  C1162  1  0.190100  0.123200  0.638100  1.0
  C  C1163  1  0.809900  0.876800  0.638100  1.0
  C  C1164  1  0.190100  0.876800  0.361900  1.0
  C  C1165  1  0.309900  0.861900  0.623200  1.0
  C  C1166  1  0.690100  0.138100  0.623200  1.0
  C  C1167  1  0.309900  0.138100  0.376800  1.0
  C  C1168  1  0.690100  0.861900  0.376800  1.0
  C  C1169  1  0.861900  0.623200  0.309900  1.0
  C  C1170  1  0.138100  0.623200  0.690100  1.0
  C  C1171  1  0.138100  0.376800  0.309900  1.0
  C  C1172  1  0.861900  0.376800  0.690100  1.0
  C  C1173  1  0.623200  0.309900  0.861900  1.0
  C  C1174  1  0.623200  0.690100  0.138100  1.0
  C  C1175  1  0.376800  0.309900  0.138100  1.0
  C  C1176  1  0.376800  0.690100  0.861900  1.0
  C  C1177  1  0.408950  0.827970  0.217970  1.0
  C  C1178  1  0.591050  0.172030  0.217970  1.0
  C  C1179  1  0.591050  0.827970  0.782030  1.0
  C  C1180  1  0.408950  0.172030  0.782030  1.0
  C  C1181  1  0.217970  0.408950  0.827970  1.0
  C  C1182  1  0.217970  0.591050  0.172030  1.0
  C  C1183  1  0.782030  0.591050  0.827970  1.0
  C  C1184  1  0.782030  0.408950  0.172030  1.0
  C  C1185  1  0.827970  0.217970  0.408950  1.0
  C  C1186  1  0.172030  0.217970  0.591050  1.0
  C  C1187  1  0.827970  0.782030  0.591050  1.0
  C  C1188  1  0.172030  0.782030  0.408950  1.0
  C  C1189  1  0.327970  0.908950  0.717970  1.0
  C  C1190  1  0.672030  0.091050  0.717970  1.0
  C  C1191  1  0.327970  0.091050  0.282030  1.0
  C  C1192  1  0.672030  0.908950  0.282030  1.0
  C  C1193  1  0.908950  0.717970  0.327970  1.0
  C  C1194  1  0.091050  0.717970  0.672030  1.0
  C  C1195  1  0.091050  0.282030  0.327970  1.0
  C  C1196  1  0.908950  0.282030  0.672030  1.0
  C  C1197  1  0.717970  0.327970  0.908950  1.0
  C  C1198  1  0.717970  0.672030  0.091050  1.0
  C  C1199  1  0.282030  0.327970  0.091050  1.0
  C  C1200  1  0.282030  0.672030  0.908950  1.0
  C  C1201  1  0.470940  0.771860  0.275240  1.0
  C  C1202  1  0.529060  0.228140  0.275240  1.0
  C  C1203  1  0.529060  0.771860  0.724760  1.0
  C  C1204  1  0.470940  0.228140  0.724760  1.0
  C  C1205  1  0.275240  0.470940  0.771860  1.0
  C  C1206  1  0.275240  0.529060  0.228140  1.0
  C  C1207  1  0.724760  0.529060  0.771860  1.0
  C  C1208  1  0.724760  0.470940  0.228140  1.0
  C  C1209  1  0.771860  0.275240  0.470940  1.0
  C  C1210  1  0.228140  0.275240  0.529060  1.0
  C  C1211  1  0.771860  0.724760  0.529060  1.0
  C  C1212  1  0.228140  0.724760  0.470940  1.0
  C  C1213  1  0.271860  0.970940  0.775240  1.0
  C  C1214  1  0.728140  0.029060  0.775240  1.0
  C  C1215  1  0.271860  0.029060  0.224760  1.0
  C  C1216  1  0.728140  0.970940  0.224760  1.0
  C  C1217  1  0.970940  0.775240  0.271860  1.0
  C  C1218  1  0.029060  0.775240  0.728140  1.0
  C  C1219  1  0.029060  0.224760  0.271860  1.0
  C  C1220  1  0.970940  0.224760  0.728140  1.0
  C  C1221  1  0.775240  0.271860  0.970940  1.0
  C  C1222  1  0.775240  0.728140  0.029060  1.0
  C  C1223  1  0.224760  0.271860  0.029060  1.0
  C  C1224  1  0.224760  0.728140  0.970940  1.0
  C  C1225  1  0.498900  0.742600  0.262780  1.0
  C  C1226  1  0.501100  0.257400  0.262780  1.0
  C  C1227  1  0.501100  0.742600  0.737220  1.0
  C  C1228  1  0.498900  0.257400  0.737220  1.0
  C  C1229  1  0.262780  0.498900  0.742600  1.0
  C  C1230  1  0.262780  0.501100  0.257400  1.0
  C  C1231  1  0.737220  0.501100  0.742600  1.0
  C  C1232  1  0.737220  0.498900  0.257400  1.0
  C  C1233  1  0.742600  0.262780  0.498900  1.0
  C  C1234  1  0.257400  0.262780  0.501100  1.0
  C  C1235  1  0.742600  0.737220  0.501100  1.0
  C  C1236  1  0.257400  0.737220  0.498900  1.0
  C  C1237  1  0.242600  0.998900  0.762780  1.0
  C  C1238  1  0.757400  0.001100  0.762780  1.0
  C  C1239  1  0.242600  0.001100  0.237220  1.0
  C  C1240  1  0.757400  0.998900  0.237220  1.0
  C  C1241  1  0.998900  0.762780  0.242600  1.0
  C  C1242  1  0.001100  0.762780  0.757400  1.0
  C  C1243  1  0.001100  0.237220  0.242600  1.0
  C  C1244  1  0.998900  0.237220  0.757400  1.0
  C  C1245  1  0.762780  0.242600  0.998900  1.0
  C  C1246  1  0.762780  0.757400  0.001100  1.0
  C  C1247  1  0.237220  0.242600  0.001100  1.0
  C  C1248  1  0.237220  0.757400  0.998900  1.0
  C  C1249  1  0.537200  0.749290  0.259400  1.0
  C  C1250  1  0.462800  0.250710  0.259400  1.0
  C  C1251  1  0.462800  0.749290  0.740600  1.0
  C  C1252  1  0.537200  0.250710  0.740600  1.0
  C  C1253  1  0.259400  0.537200  0.749290  1.0
  C  C1254  1  0.259400  0.462800  0.250710  1.0
  C  C1255  1  0.740600  0.462800  0.749290  1.0
  C  C1256  1  0.740600  0.537200  0.250710  1.0
  C  C1257  1  0.749290  0.259400  0.537200  1.0
  C  C1258  1  0.250710  0.259400  0.462800  1.0
  C  C1259  1  0.749290  0.740600  0.462800  1.0
  C  C1260  1  0.250710  0.740600  0.537200  1.0
  C  C1261  1  0.249290  0.037200  0.759400  1.0
  C  C1262  1  0.750710  0.962800  0.759400  1.0
  C  C1263  1  0.249290  0.962800  0.240600  1.0
  C  C1264  1  0.750710  0.037200  0.240600  1.0
  C  C1265  1  0.037200  0.759400  0.249290  1.0
  C  C1266  1  0.962800  0.759400  0.750710  1.0
  C  C1267  1  0.962800  0.240600  0.249290  1.0
  C  C1268  1  0.037200  0.240600  0.750710  1.0
  C  C1269  1  0.759400  0.249290  0.037200  1.0
  C  C1270  1  0.759400  0.750710  0.962800  1.0
  C  C1271  1  0.240600  0.249290  0.962800  1.0
  C  C1272  1  0.240600  0.750710  0.037200  1.0
  C  C1273  1  0.561120  0.720700  0.247700  1.0
  C  C1274  1  0.438880  0.279300  0.247700  1.0
  C  C1275  1  0.438880  0.720700  0.752300  1.0
  C  C1276  1  0.561120  0.279300  0.752300  1.0
  C  C1277  1  0.247700  0.561120  0.720700  1.0
  C  C1278  1  0.247700  0.438880  0.279300  1.0
  C  C1279  1  0.752300  0.438880  0.720700  1.0
  C  C1280  1  0.752300  0.561120  0.279300  1.0
  C  C1281  1  0.720700  0.247700  0.561120  1.0
  C  C1282  1  0.279300  0.247700  0.438880  1.0
  C  C1283  1  0.720700  0.752300  0.438880  1.0
  C  C1284  1  0.279300  0.752300  0.561120  1.0
  C  C1285  1  0.220700  0.061120  0.747700  1.0
  C  C1286  1  0.779300  0.938880  0.747700  1.0
  C  C1287  1  0.220700  0.938880  0.252300  1.0
  C  C1288  1  0.779300  0.061120  0.252300  1.0
  C  C1289  1  0.061120  0.747700  0.220700  1.0
  C  C1290  1  0.938880  0.747700  0.779300  1.0
  C  C1291  1  0.938880  0.252300  0.220700  1.0
  C  C1292  1  0.061120  0.252300  0.779300  1.0
  C  C1293  1  0.747700  0.220700  0.061120  1.0
  C  C1294  1  0.747700  0.779300  0.938880  1.0
  C  C1295  1  0.252300  0.220700  0.938880  1.0
  C  C1296  1  0.252300  0.779300  0.061120  1.0
  C  C1297  1  0.546700  0.685400  0.239450  1.0
  C  C1298  1  0.453300  0.314600  0.239450  1.0
  C  C1299  1  0.453300  0.685400  0.760550  1.0
  C  C1300  1  0.546700  0.314600  0.760550  1.0
  C  C1301  1  0.239450  0.546700  0.685400  1.0
  C  C1302  1  0.239450  0.453300  0.314600  1.0
  C  C1303  1  0.760550  0.453300  0.685400  1.0
  C  C1304  1  0.760550  0.546700  0.314600  1.0
  C  C1305  1  0.685400  0.239450  0.546700  1.0
  C  C1306  1  0.314600  0.239450  0.453300  1.0
  C  C1307  1  0.685400  0.760550  0.453300  1.0
  C  C1308  1  0.314600  0.760550  0.546700  1.0
  C  C1309  1  0.185400  0.046700  0.739450  1.0
  C  C1310  1  0.814600  0.953300  0.739450  1.0
  C  C1311  1  0.185400  0.953300  0.260550  1.0
  C  C1312  1  0.814600  0.046700  0.260550  1.0
  C  C1313  1  0.046700  0.739450  0.185400  1.0
  C  C1314  1  0.953300  0.739450  0.814600  1.0
  C  C1315  1  0.953300  0.260550  0.185400  1.0
  C  C1316  1  0.046700  0.260550  0.814600  1.0
  C  C1317  1  0.739450  0.185400  0.046700  1.0
  C  C1318  1  0.739450  0.814600  0.953300  1.0
  C  C1319  1  0.260550  0.185400  0.953300  1.0
  C  C1320  1  0.260550  0.814600  0.046700  1.0
  C  C1321  1  0.508400  0.678670  0.242800  1.0
  C  C1322  1  0.491600  0.321330  0.242800  1.0
  C  C1323  1  0.491600  0.678670  0.757200  1.0
  C  C1324  1  0.508400  0.321330  0.757200  1.0
  C  C1325  1  0.242800  0.508400  0.678670  1.0
  C  C1326  1  0.242800  0.491600  0.321330  1.0
  C  C1327  1  0.757200  0.491600  0.678670  1.0
  C  C1328  1  0.757200  0.508400  0.321330  1.0
  C  C1329  1  0.678670  0.242800  0.508400  1.0
  C  C1330  1  0.321330  0.242800  0.491600  1.0
  C  C1331  1  0.678670  0.757200  0.491600  1.0
  C  C1332  1  0.321330  0.757200  0.508400  1.0
  C  C1333  1  0.178670  0.008400  0.742800  1.0
  C  C1334  1  0.821330  0.991600  0.742800  1.0
  C  C1335  1  0.178670  0.991600  0.257200  1.0
  C  C1336  1  0.821330  0.008400  0.257200  1.0
  C  C1337  1  0.008400  0.742800  0.178670  1.0
  C  C1338  1  0.991600  0.742800  0.821330  1.0
  C  C1339  1  0.991600  0.257200  0.178670  1.0
  C  C1340  1  0.008400  0.257200  0.821330  1.0
  C  C1341  1  0.742800  0.178670  0.008400  1.0
  C  C1342  1  0.742800  0.821330  0.991600  1.0
  C  C1343  1  0.257200  0.178670  0.991600  1.0
  C  C1344  1  0.257200  0.821330  0.008400  1.0
  C  C1345  1  0.484530  0.707200  0.254500  1.0
  C  C1346  1  0.515470  0.292800  0.254500  1.0
  C  C1347  1  0.515470  0.707200  0.745500  1.0
  C  C1348  1  0.484530  0.292800  0.745500  1.0
  C  C1349  1  0.254500  0.484530  0.707200  1.0
  C  C1350  1  0.254500  0.515470  0.292800  1.0
  C  C1351  1  0.745500  0.515470  0.707200  1.0
  C  C1352  1  0.745500  0.484530  0.292800  1.0
  C  C1353  1  0.707200  0.254500  0.484530  1.0
  C  C1354  1  0.292800  0.254500  0.515470  1.0
  C  C1355  1  0.707200  0.745500  0.515470  1.0
  C  C1356  1  0.292800  0.745500  0.484530  1.0
  C  C1357  1  0.207200  0.984530  0.754500  1.0
  C  C1358  1  0.792800  0.015470  0.754500  1.0
  C  C1359  1  0.207200  0.015470  0.245500  1.0
  C  C1360  1  0.792800  0.984530  0.245500  1.0
  C  C1361  1  0.984530  0.754500  0.207200  1.0
  C  C1362  1  0.015470  0.754500  0.792800  1.0
  C  C1363  1  0.015470  0.245500  0.207200  1.0
  C  C1364  1  0.984530  0.245500  0.792800  1.0
  C  C1365  1  0.754500  0.207200  0.984530  1.0
  C  C1366  1  0.754500  0.792800  0.015470  1.0
  C  C1367  1  0.245500  0.207200  0.015470  1.0
  C  C1368  1  0.245500  0.792800  0.984530  1.0
  C  C1369  1  0.571800  0.653700  0.226700  1.0
  C  C1370  1  0.428200  0.346300  0.226700  1.0
  C  C1371  1  0.428200  0.653700  0.773300  1.0
  C  C1372  1  0.571800  0.346300  0.773300  1.0
  C  C1373  1  0.226700  0.571800  0.653700  1.0
  C  C1374  1  0.226700  0.428200  0.346300  1.0
  C  C1375  1  0.773300  0.428200  0.653700  1.0
  C  C1376  1  0.773300  0.571800  0.346300  1.0
  C  C1377  1  0.653700  0.226700  0.571800  1.0
  C  C1378  1  0.346300  0.226700  0.428200  1.0
  C  C1379  1  0.653700  0.773300  0.428200  1.0
  C  C1380  1  0.346300  0.773300  0.571800  1.0
  C  C1381  1  0.153700  0.071800  0.726700  1.0
  C  C1382  1  0.846300  0.928200  0.726700  1.0
  C  C1383  1  0.153700  0.928200  0.273300  1.0
  C  C1384  1  0.846300  0.071800  0.273300  1.0
  C  C1385  1  0.071800  0.726700  0.153700  1.0
  C  C1386  1  0.928200  0.726700  0.846300  1.0
  C  C1387  1  0.928200  0.273300  0.153700  1.0
  C  C1388  1  0.071800  0.273300  0.846300  1.0
  C  C1389  1  0.726700  0.153700  0.071800  1.0
  C  C1390  1  0.726700  0.846300  0.928200  1.0
  C  C1391  1  0.273300  0.153700  0.928200  1.0
  C  C1392  1  0.273300  0.846300  0.071800  1.0
  C  C1393  1  0.591700  0.629700  0.213700  1.0
  C  C1394  1  0.408300  0.370300  0.213700  1.0
  C  C1395  1  0.408300  0.629700  0.786300  1.0
  C  C1396  1  0.591700  0.370300  0.786300  1.0
  C  C1397  1  0.213700  0.591700  0.629700  1.0
  C  C1398  1  0.213700  0.408300  0.370300  1.0
  C  C1399  1  0.786300  0.408300  0.629700  1.0
  C  C1400  1  0.786300  0.591700  0.370300  1.0
  C  C1401  1  0.629700  0.213700  0.591700  1.0
  C  C1402  1  0.370300  0.213700  0.408300  1.0
  C  C1403  1  0.629700  0.786300  0.408300  1.0
  C  C1404  1  0.370300  0.786300  0.591700  1.0
  C  C1405  1  0.129700  0.091700  0.713700  1.0
  C  C1406  1  0.870300  0.908300  0.713700  1.0
  C  C1407  1  0.129700  0.908300  0.286300  1.0
  C  C1408  1  0.870300  0.091700  0.286300  1.0
  C  C1409  1  0.091700  0.713700  0.129700  1.0
  C  C1410  1  0.908300  0.713700  0.870300  1.0
  C  C1411  1  0.908300  0.286300  0.129700  1.0
  C  C1412  1  0.091700  0.286300  0.870300  1.0
  C  C1413  1  0.713700  0.129700  0.091700  1.0
  C  C1414  1  0.713700  0.870300  0.908300  1.0
  C  C1415  1  0.286300  0.129700  0.908300  1.0
  C  C1416  1  0.286300  0.870300  0.091700  1.0
  C  C1417  1  0.617800  0.601900  0.195310  1.0
  C  C1418  1  0.382200  0.398100  0.195310  1.0
  C  C1419  1  0.382200  0.601900  0.804690  1.0
  C  C1420  1  0.617800  0.398100  0.804690  1.0
  C  C1421  1  0.195310  0.617800  0.601900  1.0
  C  C1422  1  0.195310  0.382200  0.398100  1.0
  C  C1423  1  0.804690  0.382200  0.601900  1.0
  C  C1424  1  0.804690  0.617800  0.398100  1.0
  C  C1425  1  0.601900  0.195310  0.617800  1.0
  C  C1426  1  0.398100  0.195310  0.382200  1.0
  C  C1427  1  0.601900  0.804690  0.382200  1.0
  C  C1428  1  0.398100  0.804690  0.617800  1.0
  C  C1429  1  0.101900  0.117800  0.695310  1.0
  C  C1430  1  0.898100  0.882200  0.695310  1.0
  C  C1431  1  0.101900  0.882200  0.304690  1.0
  C  C1432  1  0.898100  0.117800  0.304690  1.0
  C  C1433  1  0.117800  0.695310  0.101900  1.0
  C  C1434  1  0.882200  0.695310  0.898100  1.0
  C  C1435  1  0.882200  0.304690  0.101900  1.0
  C  C1436  1  0.117800  0.304690  0.898100  1.0
  C  C1437  1  0.695310  0.101900  0.117800  1.0
  C  C1438  1  0.695310  0.898100  0.882200  1.0
  C  C1439  1  0.304690  0.101900  0.882200  1.0
  C  C1440  1  0.304690  0.898100  0.117800  1.0
  C  C1441  1  0.655900  0.610120  0.193200  1.0
  C  C1442  1  0.344100  0.389880  0.193200  1.0
  C  C1443  1  0.344100  0.610120  0.806800  1.0
  C  C1444  1  0.655900  0.389880  0.806800  1.0
  C  C1445  1  0.193200  0.655900  0.610120  1.0
  C  C1446  1  0.193200  0.344100  0.389880  1.0
  C  C1447  1  0.806800  0.344100  0.610120  1.0
  C  C1448  1  0.806800  0.655900  0.389880  1.0
  C  C1449  1  0.610120  0.193200  0.655900  1.0
  C  C1450  1  0.389880  0.193200  0.344100  1.0
  C  C1451  1  0.610120  0.806800  0.344100  1.0
  C  C1452  1  0.389880  0.806800  0.655900  1.0
  C  C1453  1  0.110120  0.155900  0.693200  1.0
  C  C1454  1  0.889880  0.844100  0.693200  1.0
  C  C1455  1  0.110120  0.844100  0.306800  1.0
  C  C1456  1  0.889880  0.155900  0.306800  1.0
  C  C1457  1  0.155900  0.693200  0.110120  1.0
  C  C1458  1  0.844100  0.693200  0.889880  1.0
  C  C1459  1  0.844100  0.306800  0.110120  1.0
  C  C1460  1  0.155900  0.306800  0.889880  1.0
  C  C1461  1  0.693200  0.110120  0.155900  1.0
  C  C1462  1  0.693200  0.889880  0.844100  1.0
  C  C1463  1  0.306800  0.110120  0.844100  1.0
  C  C1464  1  0.306800  0.889880  0.155900  1.0
  C  C1465  1  0.680450  0.584900  0.176400  1.0
  C  C1466  1  0.319550  0.415100  0.176400  1.0
  C  C1467  1  0.319550  0.584900  0.823600  1.0
  C  C1468  1  0.680450  0.415100  0.823600  1.0
  C  C1469  1  0.176400  0.680450  0.584900  1.0
  C  C1470  1  0.176400  0.319550  0.415100  1.0
  C  C1471  1  0.823600  0.319550  0.584900  1.0
  C  C1472  1  0.823600  0.680450  0.415100  1.0
  C  C1473  1  0.584900  0.176400  0.680450  1.0
  C  C1474  1  0.415100  0.176400  0.319550  1.0
  C  C1475  1  0.584900  0.823600  0.319550  1.0
  C  C1476  1  0.415100  0.823600  0.680450  1.0
  C  C1477  1  0.084900  0.180450  0.676400  1.0
  C  C1478  1  0.915100  0.819550  0.676400  1.0
  C  C1479  1  0.084900  0.819550  0.323600  1.0
  C  C1480  1  0.915100  0.180450  0.323600  1.0
  C  C1481  1  0.180450  0.676400  0.084900  1.0
  C  C1482  1  0.819550  0.676400  0.915100  1.0
  C  C1483  1  0.819550  0.323600  0.084900  1.0
  C  C1484  1  0.180450  0.323600  0.915100  1.0
  C  C1485  1  0.676400  0.084900  0.180450  1.0
  C  C1486  1  0.676400  0.915100  0.819550  1.0
  C  C1487  1  0.323600  0.084900  0.819550  1.0
  C  C1488  1  0.323600  0.915100  0.180450  1.0
  C  C1489  1  0.666900  0.551400  0.161600  1.0
  C  C1490  1  0.333100  0.448600  0.161600  1.0
  C  C1491  1  0.333100  0.551400  0.838400  1.0
  C  C1492  1  0.666900  0.448600  0.838400  1.0
  C  C1493  1  0.161600  0.666900  0.551400  1.0
  C  C1494  1  0.161600  0.333100  0.448600  1.0
  C  C1495  1  0.838400  0.333100  0.551400  1.0
  C  C1496  1  0.838400  0.666900  0.448600  1.0
  C  C1497  1  0.551400  0.161600  0.666900  1.0
  C  C1498  1  0.448600  0.161600  0.333100  1.0
  C  C1499  1  0.551400  0.838400  0.333100  1.0
  C  C1500  1  0.448600  0.838400  0.666900  1.0
  C  C1501  1  0.051400  0.166900  0.661600  1.0
  C  C1502  1  0.948600  0.833100  0.661600  1.0
  C  C1503  1  0.051400  0.833100  0.338400  1.0
  C  C1504  1  0.948600  0.166900  0.338400  1.0
  C  C1505  1  0.166900  0.661600  0.051400  1.0
  C  C1506  1  0.833100  0.661600  0.948600  1.0
  C  C1507  1  0.833100  0.338400  0.051400  1.0
  C  C1508  1  0.166900  0.338400  0.948600  1.0
  C  C1509  1  0.661600  0.051400  0.166900  1.0
  C  C1510  1  0.661600  0.948600  0.833100  1.0
  C  C1511  1  0.338400  0.051400  0.833100  1.0
  C  C1512  1  0.338400  0.948600  0.166900  1.0
  C  C1513  1  0.628800  0.543130  0.163700  1.0
  C  C1514  1  0.371200  0.456870  0.163700  1.0
  C  C1515  1  0.371200  0.543130  0.836300  1.0
  C  C1516  1  0.628800  0.456870  0.836300  1.0
  C  C1517  1  0.163700  0.628800  0.543130  1.0
  C  C1518  1  0.163700  0.371200  0.456870  1.0
  C  C1519  1  0.836300  0.371200  0.543130  1.0
  C  C1520  1  0.836300  0.628800  0.456870  1.0
  C  C1521  1  0.543130  0.163700  0.628800  1.0
  C  C1522  1  0.456870  0.163700  0.371200  1.0
  C  C1523  1  0.543130  0.836300  0.371200  1.0
  C  C1524  1  0.456870  0.836300  0.628800  1.0
  C  C1525  1  0.043130  0.128800  0.663700  1.0
  C  C1526  1  0.956870  0.871200  0.663700  1.0
  C  C1527  1  0.043130  0.871200  0.336300  1.0
  C  C1528  1  0.956870  0.128800  0.336300  1.0
  C  C1529  1  0.128800  0.663700  0.043130  1.0
  C  C1530  1  0.871200  0.663700  0.956870  1.0
  C  C1531  1  0.871200  0.336300  0.043130  1.0
  C  C1532  1  0.128800  0.336300  0.956870  1.0
  C  C1533  1  0.663700  0.043130  0.128800  1.0
  C  C1534  1  0.663700  0.956870  0.871200  1.0
  C  C1535  1  0.336300  0.043130  0.871200  1.0
  C  C1536  1  0.336300  0.956870  0.128800  1.0
  C  C1537  1  0.604270  0.568400  0.180560  1.0
  C  C1538  1  0.395730  0.431600  0.180560  1.0
  C  C1539  1  0.395730  0.568400  0.819440  1.0
  C  C1540  1  0.604270  0.431600  0.819440  1.0
  C  C1541  1  0.180560  0.604270  0.568400  1.0
  C  C1542  1  0.180560  0.395730  0.431600  1.0
  C  C1543  1  0.819440  0.395730  0.568400  1.0
  C  C1544  1  0.819440  0.604270  0.431600  1.0
  C  C1545  1  0.568400  0.180560  0.604270  1.0
  C  C1546  1  0.431600  0.180560  0.395730  1.0
  C  C1547  1  0.568400  0.819440  0.395730  1.0
  C  C1548  1  0.431600  0.819440  0.604270  1.0
  C  C1549  1  0.068400  0.104270  0.680560  1.0
  C  C1550  1  0.931600  0.895730  0.680560  1.0
  C  C1551  1  0.068400  0.895730  0.319440  1.0
  C  C1552  1  0.931600  0.104270  0.319440  1.0
  C  C1553  1  0.104270  0.680560  0.068400  1.0
  C  C1554  1  0.895730  0.680560  0.931600  1.0
  C  C1555  1  0.895730  0.319440  0.068400  1.0
  C  C1556  1  0.104270  0.319440  0.931600  1.0
  C  C1557  1  0.680560  0.068400  0.104270  1.0
  C  C1558  1  0.680560  0.931600  0.895730  1.0
  C  C1559  1  0.319440  0.068400  0.895730  1.0
  C  C1560  1  0.319440  0.931600  0.104270  1.0
  C  C1561  1  0.562650  0.561100  0.183700  1.0
  C  C1562  1  0.437350  0.438900  0.183700  1.0
  C  C1563  1  0.437350  0.561100  0.816300  1.0
  C  C1564  1  0.562650  0.438900  0.816300  1.0
  C  C1565  1  0.183700  0.562650  0.561100  1.0
  C  C1566  1  0.183700  0.437350  0.438900  1.0
  C  C1567  1  0.816300  0.437350  0.561100  1.0
  C  C1568  1  0.816300  0.562650  0.438900  1.0
  C  C1569  1  0.561100  0.183700  0.562650  1.0
  C  C1570  1  0.438900  0.183700  0.437350  1.0
  C  C1571  1  0.561100  0.816300  0.437350  1.0
  C  C1572  1  0.438900  0.816300  0.562650  1.0
  C  C1573  1  0.061100  0.062650  0.683700  1.0
  C  C1574  1  0.938900  0.937350  0.683700  1.0
  C  C1575  1  0.061100  0.937350  0.316300  1.0
  C  C1576  1  0.938900  0.062650  0.316300  1.0
  C  C1577  1  0.062650  0.683700  0.061100  1.0
  C  C1578  1  0.937350  0.683700  0.938900  1.0
  C  C1579  1  0.937350  0.316300  0.061100  1.0
  C  C1580  1  0.062650  0.316300  0.938900  1.0
  C  C1581  1  0.683700  0.061100  0.062650  1.0
  C  C1582  1  0.683700  0.938900  0.937350  1.0
  C  C1583  1  0.316300  0.061100  0.937350  1.0
  C  C1584  1  0.316300  0.938900  0.062650  1.0
  C  C1585  1  0.529170  0.556600  0.184600  1.0
  C  C1586  1  0.470830  0.443400  0.184600  1.0
  C  C1587  1  0.470830  0.556600  0.815400  1.0
  C  C1588  1  0.529170  0.443400  0.815400  1.0
  C  C1589  1  0.184600  0.529170  0.556600  1.0
  C  C1590  1  0.184600  0.470830  0.443400  1.0
  C  C1591  1  0.815400  0.470830  0.556600  1.0
  C  C1592  1  0.815400  0.529170  0.443400  1.0
  C  C1593  1  0.556600  0.184600  0.529170  1.0
  C  C1594  1  0.443400  0.184600  0.470830  1.0
  C  C1595  1  0.556600  0.815400  0.470830  1.0
  C  C1596  1  0.443400  0.815400  0.529170  1.0
  C  C1597  1  0.056600  0.029170  0.684600  1.0
  C  C1598  1  0.943400  0.970830  0.684600  1.0
  C  C1599  1  0.056600  0.970830  0.315400  1.0
  C  C1600  1  0.943400  0.029170  0.315400  1.0
  C  C1601  1  0.029170  0.684600  0.056600  1.0
  C  C1602  1  0.970830  0.684600  0.943400  1.0
  C  C1603  1  0.970830  0.315400  0.056600  1.0
  C  C1604  1  0.029170  0.315400  0.943400  1.0
  C  C1605  1  0.684600  0.056600  0.029170  1.0
  C  C1606  1  0.684600  0.943400  0.970830  1.0
  C  C1607  1  0.315400  0.056600  0.970830  1.0
  C  C1608  1  0.315400  0.943400  0.029170  1.0
  C  C1609  1  0.486770  0.557770  0.181700  1.0
  C  C1610  1  0.513230  0.442230  0.181700  1.0
  C  C1611  1  0.513230  0.557770  0.818300  1.0
  C  C1612  1  0.486770  0.442230  0.818300  1.0
  C  C1613  1  0.181700  0.486770  0.557770  1.0
  C  C1614  1  0.181700  0.513230  0.442230  1.0
  C  C1615  1  0.818300  0.513230  0.557770  1.0
  C  C1616  1  0.818300  0.486770  0.442230  1.0
  C  C1617  1  0.557770  0.181700  0.486770  1.0
  C  C1618  1  0.442230  0.181700  0.513230  1.0
  C  C1619  1  0.557770  0.818300  0.513230  1.0
  C  C1620  1  0.442230  0.818300  0.486770  1.0
  C  C1621  1  0.057770  0.986770  0.681700  1.0
  C  C1622  1  0.942230  0.013230  0.681700  1.0
  C  C1623  1  0.057770  0.013230  0.318300  1.0
  C  C1624  1  0.942230  0.986770  0.318300  1.0
  C  C1625  1  0.986770  0.681700  0.057770  1.0
  C  C1626  1  0.013230  0.681700  0.942230  1.0
  C  C1627  1  0.013230  0.318300  0.057770  1.0
  C  C1628  1  0.986770  0.318300  0.942230  1.0
  C  C1629  1  0.681700  0.057770  0.986770  1.0
  C  C1630  1  0.681700  0.942230  0.013230  1.0
  C  C1631  1  0.318300  0.057770  0.013230  1.0
  C  C1632  1  0.318300  0.942230  0.986770  1.0
  C  C1633  1  0.465900  0.542800  0.152300  1.0
  C  C1634  1  0.534100  0.457200  0.152300  1.0
  C  C1635  1  0.534100  0.542800  0.847700  1.0
  C  C1636  1  0.465900  0.457200  0.847700  1.0
  C  C1637  1  0.152300  0.465900  0.542800  1.0
  C  C1638  1  0.152300  0.534100  0.457200  1.0
  C  C1639  1  0.847700  0.534100  0.542800  1.0
  C  C1640  1  0.847700  0.465900  0.457200  1.0
  C  C1641  1  0.542800  0.152300  0.465900  1.0
  C  C1642  1  0.457200  0.152300  0.534100  1.0
  C  C1643  1  0.542800  0.847700  0.534100  1.0
  C  C1644  1  0.457200  0.847700  0.465900  1.0
  C  C1645  1  0.042800  0.965900  0.652300  1.0
  C  C1646  1  0.957200  0.034100  0.652300  1.0
  C  C1647  1  0.042800  0.034100  0.347700  1.0
  C  C1648  1  0.957200  0.965900  0.347700  1.0
  C  C1649  1  0.965900  0.652300  0.042800  1.0
  C  C1650  1  0.034100  0.652300  0.957200  1.0
  C  C1651  1  0.034100  0.347700  0.042800  1.0
  C  C1652  1  0.965900  0.347700  0.957200  1.0
  C  C1653  1  0.652300  0.042800  0.965900  1.0
  C  C1654  1  0.652300  0.957200  0.034100  1.0
  C  C1655  1  0.347700  0.042800  0.034100  1.0
  C  C1656  1  0.347700  0.957200  0.965900  1.0
  C  C1657  1  0.427000  0.545520  0.152600  1.0
  C  C1658  1  0.573000  0.454480  0.152600  1.0
  C  C1659  1  0.573000  0.545520  0.847400  1.0
  C  C1660  1  0.427000  0.454480  0.847400  1.0
  C  C1661  1  0.152600  0.427000  0.545520  1.0
  C  C1662  1  0.152600  0.573000  0.454480  1.0
  C  C1663  1  0.847400  0.573000  0.545520  1.0
  C  C1664  1  0.847400  0.427000  0.454480  1.0
  C  C1665  1  0.545520  0.152600  0.427000  1.0
  C  C1666  1  0.454480  0.152600  0.573000  1.0
  C  C1667  1  0.545520  0.847400  0.573000  1.0
  C  C1668  1  0.454480  0.847400  0.427000  1.0
  C  C1669  1  0.045520  0.927000  0.652600  1.0
  C  C1670  1  0.954480  0.073000  0.652600  1.0
  C  C1671  1  0.045520  0.073000  0.347400  1.0
  C  C1672  1  0.954480  0.927000  0.347400  1.0
  C  C1673  1  0.927000  0.652600  0.045520  1.0
  C  C1674  1  0.073000  0.652600  0.954480  1.0
  C  C1675  1  0.073000  0.347400  0.045520  1.0
  C  C1676  1  0.927000  0.347400  0.954480  1.0
  C  C1677  1  0.652600  0.045520  0.927000  1.0
  C  C1678  1  0.652600  0.954480  0.073000  1.0
  C  C1679  1  0.347400  0.045520  0.073000  1.0
  C  C1680  1  0.347400  0.954480  0.927000  1.0
  C  C1681  1  0.408910  0.563270  0.182300  1.0
  C  C1682  1  0.591090  0.436730  0.182300  1.0
  C  C1683  1  0.591090  0.563270  0.817700  1.0
  C  C1684  1  0.408910  0.436730  0.817700  1.0
  C  C1685  1  0.182300  0.408910  0.563270  1.0
  C  C1686  1  0.182300  0.591090  0.436730  1.0
  C  C1687  1  0.817700  0.591090  0.563270  1.0
  C  C1688  1  0.817700  0.408910  0.436730  1.0
  C  C1689  1  0.563270  0.182300  0.408910  1.0
  C  C1690  1  0.436730  0.182300  0.591090  1.0
  C  C1691  1  0.563270  0.817700  0.591090  1.0
  C  C1692  1  0.436730  0.817700  0.408910  1.0
  C  C1693  1  0.063270  0.908910  0.682300  1.0
  C  C1694  1  0.936730  0.091090  0.682300  1.0
  C  C1695  1  0.063270  0.091090  0.317700  1.0
  C  C1696  1  0.936730  0.908910  0.317700  1.0
  C  C1697  1  0.908910  0.682300  0.063270  1.0
  C  C1698  1  0.091090  0.682300  0.936730  1.0
  C  C1699  1  0.091090  0.317700  0.063270  1.0
  C  C1700  1  0.908910  0.317700  0.936730  1.0
  C  C1701  1  0.682300  0.063270  0.908910  1.0
  C  C1702  1  0.682300  0.936730  0.091090  1.0
  C  C1703  1  0.317700  0.063270  0.091090  1.0
  C  C1704  1  0.317700  0.936730  0.908910  1.0
  C  C1705  1  0.429800  0.578280  0.211700  1.0
  C  C1706  1  0.570200  0.421720  0.211700  1.0
  C  C1707  1  0.570200  0.578280  0.788300  1.0
  C  C1708  1  0.429800  0.421720  0.788300  1.0
  C  C1709  1  0.211700  0.429800  0.578280  1.0
  C  C1710  1  0.211700  0.570200  0.421720  1.0
  C  C1711  1  0.788300  0.570200  0.578280  1.0
  C  C1712  1  0.788300  0.429800  0.421720  1.0
  C  C1713  1  0.578280  0.211700  0.429800  1.0
  C  C1714  1  0.421720  0.211700  0.570200  1.0
  C  C1715  1  0.578280  0.788300  0.570200  1.0
  C  C1716  1  0.421720  0.788300  0.429800  1.0
  C  C1717  1  0.078280  0.929800  0.711700  1.0
  C  C1718  1  0.921720  0.070200  0.711700  1.0
  C  C1719  1  0.078280  0.070200  0.288300  1.0
  C  C1720  1  0.921720  0.929800  0.288300  1.0
  C  C1721  1  0.929800  0.711700  0.078280  1.0
  C  C1722  1  0.070200  0.711700  0.921720  1.0
  C  C1723  1  0.070200  0.288300  0.078280  1.0
  C  C1724  1  0.929800  0.288300  0.921720  1.0
  C  C1725  1  0.711700  0.078280  0.929800  1.0
  C  C1726  1  0.711700  0.921720  0.070200  1.0
  C  C1727  1  0.288300  0.078280  0.070200  1.0
  C  C1728  1  0.288300  0.921720  0.929800  1.0
  C  C1729  1  0.468700  0.575500  0.211400  1.0
  C  C1730  1  0.531300  0.424500  0.211400  1.0
  C  C1731  1  0.531300  0.575500  0.788600  1.0
  C  C1732  1  0.468700  0.424500  0.788600  1.0
  C  C1733  1  0.211400  0.468700  0.575500  1.0
  C  C1734  1  0.211400  0.531300  0.424500  1.0
  C  C1735  1  0.788600  0.531300  0.575500  1.0
  C  C1736  1  0.788600  0.468700  0.424500  1.0
  C  C1737  1  0.575500  0.211400  0.468700  1.0
  C  C1738  1  0.424500  0.211400  0.531300  1.0
  C  C1739  1  0.575500  0.788600  0.531300  1.0
  C  C1740  1  0.424500  0.788600  0.468700  1.0
  C  C1741  1  0.075500  0.968700  0.711400  1.0
  C  C1742  1  0.924500  0.031300  0.711400  1.0
  C  C1743  1  0.075500  0.031300  0.288600  1.0
  C  C1744  1  0.924500  0.968700  0.288600  1.0
  C  C1745  1  0.968700  0.711400  0.075500  1.0
  C  C1746  1  0.031300  0.711400  0.924500  1.0
  C  C1747  1  0.031300  0.288600  0.075500  1.0
  C  C1748  1  0.968700  0.288600  0.924500  1.0
  C  C1749  1  0.711400  0.075500  0.968700  1.0
  C  C1750  1  0.711400  0.924500  0.031300  1.0
  C  C1751  1  0.288600  0.075500  0.031300  1.0
  C  C1752  1  0.288600  0.924500  0.968700  1.0
  C  C1753  1  0.366570  0.565290  0.180910  1.0
  C  C1754  1  0.633430  0.434710  0.180910  1.0
  C  C1755  1  0.633430  0.565290  0.819090  1.0
  C  C1756  1  0.366570  0.434710  0.819090  1.0
  C  C1757  1  0.180910  0.366570  0.565290  1.0
  C  C1758  1  0.180910  0.633430  0.434710  1.0
  C  C1759  1  0.819090  0.633430  0.565290  1.0
  C  C1760  1  0.819090  0.366570  0.434710  1.0
  C  C1761  1  0.565290  0.180910  0.366570  1.0
  C  C1762  1  0.434710  0.180910  0.633430  1.0
  C  C1763  1  0.565290  0.819090  0.633430  1.0
  C  C1764  1  0.434710  0.819090  0.366570  1.0
  C  C1765  1  0.065290  0.866570  0.680910  1.0
  C  C1766  1  0.934710  0.133430  0.680910  1.0
  C  C1767  1  0.065290  0.133430  0.319090  1.0
  C  C1768  1  0.934710  0.866570  0.319090  1.0
  C  C1769  1  0.866570  0.680910  0.065290  1.0
  C  C1770  1  0.133430  0.680910  0.934710  1.0
  C  C1771  1  0.133430  0.319090  0.065290  1.0
  C  C1772  1  0.866570  0.319090  0.934710  1.0
  C  C1773  1  0.680910  0.065290  0.866570  1.0
  C  C1774  1  0.680910  0.934710  0.133430  1.0
  C  C1775  1  0.319090  0.065290  0.133430  1.0
  C  C1776  1  0.319090  0.934710  0.866570  1.0
  O  O1777  1  0.287600  0.512400  0.102700  1
  O  O1778  1  0.712400  0.487600  0.102700  1
  O  O1779  1  0.712400  0.512400  0.897300  1
  O  O1780  1  0.287600  0.487600  0.897300  1
  O  O1781  1  0.102700  0.287600  0.512400  1
  O  O1782  1  0.102700  0.712400  0.487600  1
  O  O1783  1  0.897300  0.712400  0.512400  1
  O  O1784  1  0.897300  0.287600  0.487600  1
  O  O1785  1  0.512400  0.102700  0.287600  1
  O  O1786  1  0.487600  0.102700  0.712400  1
  O  O1787  1  0.512400  0.897300  0.712400  1
  O  O1788  1  0.487600  0.897300  0.287600  1
  O  O1789  1  0.012400  0.787600  0.602700  1
  O  O1790  1  0.987600  0.212400  0.602700  1
  O  O1791  1  0.012400  0.212400  0.397300  1
  O  O1792  1  0.987600  0.787600  0.397300  1
  O  O1793  1  0.787600  0.602700  0.012400  1
  O  O1794  1  0.212400  0.602700  0.987600  1
  O  O1795  1  0.212400  0.397300  0.012400  1
  O  O1796  1  0.787600  0.397300  0.987600  1
  O  O1797  1  0.602700  0.012400  0.787600  1
  O  O1798  1  0.602700  0.987600  0.212400  1
  O  O1799  1  0.397300  0.012400  0.212400  1
  O  O1800  1  0.397300  0.987600  0.787600  1
  O  O1801  1  0.291500  0.641700  0.252500  1
  O  O1802  1  0.708500  0.358300  0.252500  1
  O  O1803  1  0.708500  0.641700  0.747500  1
  O  O1804  1  0.291500  0.358300  0.747500  1
  O  O1805  1  0.252500  0.291500  0.641700  1
  O  O1806  1  0.252500  0.708500  0.358300  1
  O  O1807  1  0.747500  0.708500  0.641700  1
  O  O1808  1  0.747500  0.291500  0.358300  1
  O  O1809  1  0.641700  0.252500  0.291500  1
  O  O1810  1  0.358300  0.252500  0.708500  1
  O  O1811  1  0.641700  0.747500  0.708500  1
  O  O1812  1  0.358300  0.747500  0.291500  1
  O  O1813  1  0.141700  0.791500  0.752500  1
  O  O1814  1  0.858300  0.208500  0.752500  1
  O  O1815  1  0.141700  0.208500  0.247500  1
  O  O1816  1  0.858300  0.791500  0.247500  1
  O  O1817  1  0.791500  0.752500  0.141700  1
  O  O1818  1  0.208500  0.752500  0.858300  1
  O  O1819  1  0.208500  0.247500  0.141700  1
  O  O1820  1  0.791500  0.247500  0.858300  1
  O  O1821  1  0.752500  0.141700  0.791500  1
  O  O1822  1  0.752500  0.858300  0.208500  1
  O  O1823  1  0.247500  0.141700  0.208500  1
  O  O1824  1  0.247500  0.858300  0.791500  1
  O  O1825  1  0.298100  0.597800  0.112900  1.0
  O  O1826  1  0.701900  0.402200  0.112900  1.0
  O  O1827  1  0.701900  0.597800  0.887100  1.0
  O  O1828  1  0.298100  0.402200  0.887100  1.0
  O  O1829  1  0.112900  0.298100  0.597800  1.0
  O  O1830  1  0.112900  0.701900  0.402200  1.0
  O  O1831  1  0.887100  0.701900  0.597800  1.0
  O  O1832  1  0.887100  0.298100  0.402200  1.0
  O  O1833  1  0.597800  0.112900  0.298100  1.0
  O  O1834  1  0.402200  0.112900  0.701900  1.0
  O  O1835  1  0.597800  0.887100  0.701900  1.0
  O  O1836  1  0.402200  0.887100  0.298100  1.0
  O  O1837  1  0.097800  0.798100  0.612900  1.0
  O  O1838  1  0.902200  0.201900  0.612900  1.0
  O  O1839  1  0.097800  0.201900  0.387100  1.0
  O  O1840  1  0.902200  0.798100  0.387100  1.0
  O  O1841  1  0.798100  0.612900  0.097800  1.0
  O  O1842  1  0.201900  0.612900  0.902200  1.0
  O  O1843  1  0.201900  0.387100  0.097800  1.0
  O  O1844  1  0.798100  0.387100  0.902200  1.0
  O  O1845  1  0.612900  0.097800  0.798100  1.0
  O  O1846  1  0.612900  0.902200  0.201900  1.0
  O  O1847  1  0.387100  0.097800  0.201900  1.0
  O  O1848  1  0.387100  0.902200  0.798100  1.0
  O  O1849  1  0.304300  0.641400  0.158400  1.0
  O  O1850  1  0.695700  0.358600  0.158400  1.0
  O  O1851  1  0.695700  0.641400  0.841600  1.0
  O  O1852  1  0.304300  0.358600  0.841600  1.0
  O  O1853  1  0.158400  0.304300  0.641400  1.0
  O  O1854  1  0.158400  0.695700  0.358600  1.0
  O  O1855  1  0.841600  0.695700  0.641400  1.0
  O  O1856  1  0.841600  0.304300  0.358600  1.0
  O  O1857  1  0.641400  0.158400  0.304300  1.0
  O  O1858  1  0.358600  0.158400  0.695700  1.0
  O  O1859  1  0.641400  0.841600  0.695700  1.0
  O  O1860  1  0.358600  0.841600  0.304300  1.0
  O  O1861  1  0.141400  0.804300  0.658400  1.0
  O  O1862  1  0.858600  0.195700  0.658400  1.0
  O  O1863  1  0.141400  0.195700  0.341600  1.0
  O  O1864  1  0.858600  0.804300  0.341600  1.0
  O  O1865  1  0.804300  0.658400  0.141400  1.0
  O  O1866  1  0.195700  0.658400  0.858600  1.0
  O  O1867  1  0.195700  0.341600  0.141400  1.0
  O  O1868  1  0.804300  0.341600  0.858600  1.0
  O  O1869  1  0.658400  0.141400  0.804300  1.0
  O  O1870  1  0.658400  0.858600  0.195700  1.0
  O  O1871  1  0.341600  0.141400  0.195700  1.0
  O  O1872  1  0.341600  0.858600  0.804300  1.0
  O  O1873  1  0.433850  0.847900  0.232700  1.0
  O  O1874  1  0.566150  0.152100  0.232700  1.0
  O  O1875  1  0.566150  0.847900  0.767300  1.0
  O  O1876  1  0.433850  0.152100  0.767300  1.0
  O  O1877  1  0.232700  0.433850  0.847900  1.0
  O  O1878  1  0.232700  0.566150  0.152100  1.0
  O  O1879  1  0.767300  0.566150  0.847900  1.0
  O  O1880  1  0.767300  0.433850  0.152100  1.0
  O  O1881  1  0.847900  0.232700  0.433850  1.0
  O  O1882  1  0.152100  0.232700  0.566150  1.0
  O  O1883  1  0.847900  0.767300  0.566150  1.0
  O  O1884  1  0.152100  0.767300  0.433850  1.0
  O  O1885  1  0.347900  0.933850  0.732700  1.0
  O  O1886  1  0.652100  0.066150  0.732700  1.0
  O  O1887  1  0.347900  0.066150  0.267300  1.0
  O  O1888  1  0.652100  0.933850  0.267300  1.0
  O  O1889  1  0.933850  0.732700  0.347900  1.0
  O  O1890  1  0.066150  0.732700  0.652100  1.0
  O  O1891  1  0.066150  0.267300  0.347900  1.0
  O  O1892  1  0.933850  0.267300  0.652100  1.0
  O  O1893  1  0.732700  0.347900  0.933850  1.0
  O  O1894  1  0.732700  0.652100  0.066150  1.0
  O  O1895  1  0.267300  0.347900  0.066150  1.0
  O  O1896  1  0.267300  0.652100  0.933850  1.0
  O  O1897  1  0.391000  0.806700  0.239400  1.0
  O  O1898  1  0.609000  0.193300  0.239400  1.0
  O  O1899  1  0.609000  0.806700  0.760600  1.0
  O  O1900  1  0.391000  0.193300  0.760600  1.0
  O  O1901  1  0.239400  0.391000  0.806700  1.0
  O  O1902  1  0.239400  0.609000  0.193300  1.0
  O  O1903  1  0.760600  0.609000  0.806700  1.0
  O  O1904  1  0.760600  0.391000  0.193300  1.0
  O  O1905  1  0.806700  0.239400  0.391000  1.0
  O  O1906  1  0.193300  0.239400  0.609000  1.0
  O  O1907  1  0.806700  0.760600  0.609000  1.0
  O  O1908  1  0.193300  0.760600  0.391000  1.0
  O  O1909  1  0.306700  0.891000  0.739400  1.0
  O  O1910  1  0.693300  0.109000  0.739400  1.0
  O  O1911  1  0.306700  0.109000  0.260600  1.0
  O  O1912  1  0.693300  0.891000  0.260600  1.0
  O  O1913  1  0.891000  0.739400  0.306700  1.0
  O  O1914  1  0.109000  0.739400  0.693300  1.0
  O  O1915  1  0.109000  0.260600  0.306700  1.0
  O  O1916  1  0.891000  0.260600  0.693300  1.0
  O  O1917  1  0.739400  0.306700  0.891000  1.0
  O  O1918  1  0.739400  0.693300  0.109000  1.0
  O  O1919  1  0.260600  0.306700  0.109000  1.0
  O  O1920  1  0.260600  0.693300  0.891000  1.0
  O  O1921  1  0.482500  0.804860  0.278500  1.0
  O  O1922  1  0.517500  0.195140  0.278500  1.0
  O  O1923  1  0.517500  0.804860  0.721500  1.0
  O  O1924  1  0.482500  0.195140  0.721500  1.0
  O  O1925  1  0.278500  0.482500  0.804860  1.0
  O  O1926  1  0.278500  0.517500  0.195140  1.0
  O  O1927  1  0.721500  0.517500  0.804860  1.0
  O  O1928  1  0.721500  0.482500  0.195140  1.0
  O  O1929  1  0.804860  0.278500  0.482500  1.0
  O  O1930  1  0.195140  0.278500  0.517500  1.0
  O  O1931  1  0.804860  0.721500  0.517500  1.0
  O  O1932  1  0.195140  0.721500  0.482500  1.0
  O  O1933  1  0.304860  0.982500  0.778500  1.0
  O  O1934  1  0.695140  0.017500  0.778500  1.0
  O  O1935  1  0.304860  0.017500  0.221500  1.0
  O  O1936  1  0.695140  0.982500  0.221500  1.0
  O  O1937  1  0.982500  0.778500  0.304860  1.0
  O  O1938  1  0.017500  0.778500  0.695140  1.0
  O  O1939  1  0.017500  0.221500  0.304860  1.0
  O  O1940  1  0.982500  0.221500  0.695140  1.0
  O  O1941  1  0.778500  0.304860  0.982500  1.0
  O  O1942  1  0.778500  0.695140  0.017500  1.0
  O  O1943  1  0.221500  0.304860  0.017500  1.0
  O  O1944  1  0.221500  0.695140  0.982500  1.0
  O  O1945  1  0.437900  0.761900  0.281700  1.0
  O  O1946  1  0.562100  0.238100  0.281700  1.0
  O  O1947  1  0.562100  0.761900  0.718300  1.0
  O  O1948  1  0.437900  0.238100  0.718300  1.0
  O  O1949  1  0.281700  0.437900  0.761900  1.0
  O  O1950  1  0.281700  0.562100  0.238100  1.0
  O  O1951  1  0.718300  0.562100  0.761900  1.0
  O  O1952  1  0.718300  0.437900  0.238100  1.0
  O  O1953  1  0.761900  0.281700  0.437900  1.0
  O  O1954  1  0.238100  0.281700  0.562100  1.0
  O  O1955  1  0.761900  0.718300  0.562100  1.0
  O  O1956  1  0.238100  0.718300  0.437900  1.0
  O  O1957  1  0.261900  0.937900  0.781700  1.0
  O  O1958  1  0.738100  0.062100  0.781700  1.0
  O  O1959  1  0.261900  0.062100  0.218300  1.0
  O  O1960  1  0.738100  0.937900  0.218300  1.0
  O  O1961  1  0.937900  0.781700  0.261900  1.0
  O  O1962  1  0.062100  0.781700  0.738100  1.0
  O  O1963  1  0.062100  0.218300  0.261900  1.0
  O  O1964  1  0.937900  0.218300  0.738100  1.0
  O  O1965  1  0.781700  0.261900  0.937900  1.0
  O  O1966  1  0.781700  0.738100  0.062100  1.0
  O  O1967  1  0.218300  0.261900  0.062100  1.0
  O  O1968  1  0.218300  0.738100  0.937900  1.0
  O  O1969  1  0.347600  0.544980  0.159400  1.0
  O  O1970  1  0.652400  0.455020  0.159400  1.0
  O  O1971  1  0.652400  0.544980  0.840600  1.0
  O  O1972  1  0.347600  0.455020  0.840600  1.0
  O  O1973  1  0.159400  0.347600  0.544980  1.0
  O  O1974  1  0.159400  0.652400  0.455020  1.0
  O  O1975  1  0.840600  0.652400  0.544980  1.0
  O  O1976  1  0.840600  0.347600  0.455020  1.0
  O  O1977  1  0.544980  0.159400  0.347600  1.0
  O  O1978  1  0.455020  0.159400  0.652400  1.0
  O  O1979  1  0.544980  0.840600  0.652400  1.0
  O  O1980  1  0.455020  0.840600  0.347600  1.0
  O  O1981  1  0.044980  0.847600  0.659400  1.0
  O  O1982  1  0.955020  0.152400  0.659400  1.0
  O  O1983  1  0.044980  0.152400  0.340600  1.0
  O  O1984  1  0.955020  0.847600  0.340600  1.0
  O  O1985  1  0.847600  0.659400  0.044980  1.0
  O  O1986  1  0.152400  0.659400  0.955020  1.0
  O  O1987  1  0.152400  0.340600  0.044980  1.0
  O  O1988  1  0.847600  0.340600  0.955020  1.0
  O  O1989  1  0.659400  0.044980  0.847600  1.0
  O  O1990  1  0.659400  0.955020  0.152400  1.0
  O  O1991  1  0.340600  0.044980  0.152400  1.0
  O  O1992  1  0.340600  0.955020  0.847600  1.0
  O  O1993  1  0.352000  0.588660  0.202700  1.0
  O  O1994  1  0.648000  0.411340  0.202700  1.0
  O  O1995  1  0.648000  0.588660  0.797300  1.0
  O  O1996  1  0.352000  0.411340  0.797300  1.0
  O  O1997  1  0.202700  0.352000  0.588660  1.0
  O  O1998  1  0.202700  0.648000  0.411340  1.0
  O  O1999  1  0.797300  0.648000  0.588660  1.0
  O  O2000  1  0.797300  0.352000  0.411340  1.0
  O  O2001  1  0.588660  0.202700  0.352000  1.0
  O  O2002  1  0.411340  0.202700  0.648000  1.0
  O  O2003  1  0.588660  0.797300  0.648000  1.0
  O  O2004  1  0.411340  0.797300  0.352000  1.0
  O  O2005  1  0.088660  0.852000  0.702700  1.0
  O  O2006  1  0.911340  0.148000  0.702700  1.0
  O  O2007  1  0.088660  0.148000  0.297300  1.0
  O  O2008  1  0.911340  0.852000  0.297300  1.0
  O  O2009  1  0.852000  0.702700  0.088660  1.0
  O  O2010  1  0.148000  0.702700  0.911340  1.0
  O  O2011  1  0.148000  0.297300  0.088660  1.0
  O  O2012  1  0.852000  0.297300  0.911340  1.0
  O  O2013  1  0.702700  0.088660  0.852000  1.0
  O  O2014  1  0.702700  0.911340  0.148000  1.0
  O  O2015  1  0.297300  0.088660  0.148000  1.0
  O  O2016  1  0.297300  0.911340  0.852000  1.0
