
#######################################################################
#
#                 Cambridge Crystallographic Data Centre
#                                CCDC 
#
#######################################################################
#
# If this CIF has been generated from an entry in the Cambridge 
# Structural Database, then it will include bibliographic, chemical, 
# crystal, experimental, refinement or atomic coordinate data resulting 
# from the CCDC's data processing and validation procedures.
#
#######################################################################

data_XUQKIF
_chemical_formula_moiety         'C156 H96 Mo6 O36'
_chemical_name_systematic        
hexakis(\m~4~-4,4'-((4,5-Dimethoxy-1,2-phenylene)diethyne-2,1-diyl)dibenzoato)-hexa-molybdenum
_symmetry_cell_setting           hexagonal
_symmetry_space_group_name_H-M   'P 63/m'
_symmetry_Int_Tables_number      176
_space_group_name_Hall           '-P 6c'
loop_
_symmetry_equiv_pos_site_id
_symmetry_equiv_pos_as_xyz
1 x,y,z
2 -y,x-y,z
3 -x+y,-x,z
4 -x,-y,1/2+z
5 y,-x+y,1/2+z
6 x-y,x,1/2+z
7 -x,-y,-z
8 y,-x+y,-z
9 x-y,x,-z
10 x,y,1/2-z
11 -y,x-y,1/2-z
12 -x+y,-x,1/2-z
_cell_length_a                   25.807(2)
_cell_length_b                   25.807(2)
_cell_length_c                   29.780(5)
_cell_angle_alpha                90
_cell_angle_beta                 90
_cell_angle_gamma                120
_cell_volume                     17176.3
_exptl_crystal_colour            'dark red'
_exptl_crystal_description       block
_cell_formula_units_Z            2
loop_
_atom_site_label
_atom_site_type_symbol
_atom_site_fract_x
_atom_site_fract_y
_atom_site_fract_z
Mo1 Mo 0.13895(5) 0.34375(6) 0.2500
Mo2 Mo 0.19434(5) 0.43742(5) 0.2500
O1 O 0.1922(2) 0.3340(2) 0.29869(16)
O2 O 0.2502(2) 0.4341(2) 0.29737(17)
O3 O 0.6530(3) 0.7351(3) 0.2989(2)
O4 O 0.5526(3) 0.6944(3) 0.29832(19)
O5 O 0.6027(3) 0.3805(3) 0.5834(2)
O6 O 0.4956(3) 0.2946(3) 0.5878(2)
C1 C 0.23598(18) 0.3827(2) 0.31276(15)
C2 C 0.27704(14) 0.37898(16) 0.34682(12)
C3 C 0.2661(2) 0.32352(17) 0.36215(17)
H1 H 0.2326 0.2880 0.3511
C4 C 0.3040(3) 0.3201(2) 0.39361(17)
H2 H 0.2965 0.2822 0.4041
C5 C 0.3530(2) 0.3721(3) 0.40975(13)
C6 C 0.36392(19) 0.4276(2) 0.39441(16)
H3 H 0.3973 0.4631 0.4054
C7 C 0.32596(18) 0.43101(17) 0.36295(16)
H4 H 0.3335 0.4689 0.3525
C8 C 0.3972(4) 0.3752(5) 0.4433(3)
C9 C 0.4330(3) 0.3774(5) 0.4677(3)
C10 C 0.4787(3) 0.3813(3) 0.49619(17)
C11 C 0.4637(2) 0.3350(2) 0.5265(2)
H5 H 0.4240 0.3022 0.5276
C12 C 0.5070(3) 0.3368(2) 0.55531(17)
C13 C 0.5651(3) 0.3848(3) 0.55377(18)
C14 C 0.5801(2) 0.4311(2) 0.5234(2)
H6 H 0.6198 0.4639 0.5224
C15 C 0.5368(3) 0.4294(2) 0.49465(16)
C16 C 0.5553(4) 0.4783(4) 0.4644(3)
C17 C 0.5666(3) 0.5184(4) 0.4379(3)
C18 C 0.5805(6) 0.5647(4) 0.40707(18)
C19 C 0.6373(4) 0.6087(5) 0.3939(3)
H7 H 0.6716 0.6093 0.4061
C20 C 0.6440(4) 0.6519(4) 0.3629(3)
H8 H 0.6829 0.6820 0.3539
C21 C 0.5938(6) 0.6509(3) 0.34498(17)
C22 C 0.5369(4) 0.6069(5) 0.3581(3)
H9 H 0.5026 0.6063 0.3459
C23 C 0.5303(4) 0.5638(3) 0.3892(3)
H10 H 0.4914 0.5336 0.3982
C24 C 0.5994(6) 0.6972(4) 0.3111(3)
C25 C 0.6631(5) 0.4225(5) 0.5792(4)
H11 H 0.6858 0.4154 0.6024
H12 H 0.6690 0.4628 0.5827
H13 H 0.6773 0.4188 0.5494
C26 C 0.4347(5) 0.2469(4) 0.5901(3)
H14 H 0.4308 0.2186 0.6136
H15 H 0.4229 0.2262 0.5611
H16 H 0.4087 0.2634 0.5972
Mo1A Mo 0.65625(6) 0.79520(8) 0.2500
Mo2A Mo 0.56258(5) 0.75692(7) 0.2500
O1A O 0.6660(2) 0.8582(3) 0.29869(16)
O2A O 0.5659(2) 0.8161(3) 0.29737(17)
O3A O 0.2649(3) 0.9179(4) 0.2989(2)
O4A O 0.3056(3) 0.8582(4) 0.29832(19)
O5A O 0.6195(3) 1.2222(4) 0.5834(2)
O6A O 0.7054(3) 1.2010(4) 0.5878(2)
C1A C 0.6173(2) 0.85328(27) 0.31276(15)
C2A C 0.62102(16) 0.89806(21) 0.34682(12)
C3A C 0.67648(17) 0.94258(26) 0.36215(17)
H1A H 0.7120 0.9446 0.3511
C4A C 0.6799(2) 0.9839(4) 0.39361(17)
H2A H 0.7178 1.0143 0.4041
C5A C 0.6279(3) 0.9809(4) 0.40975(13)
C6A C 0.5724(2) 0.93632(28) 0.39441(16)
H3A H 0.5369 0.9342 0.4054
C7A C 0.56899(17) 0.89495(25) 0.36295(16)
H4A H 0.5311 0.8646 0.3525
C8A C 0.6248(5) 1.0220(6) 0.4433(3)
C9A C 0.6226(5) 1.0556(6) 0.4677(3)
C10A C 0.6187(3) 1.0974(4) 0.49619(17)
C11A C 0.6650(2) 1.1287(3) 0.5265(2)
H5A H 0.6978 1.1218 0.5276
C12A C 0.6632(2) 1.1702(4) 0.55531(17)
C13A C 0.6152(3) 1.1803(4) 0.55377(18)
C14A C 0.5689(2) 1.1490(3) 0.5234(2)
H6A H 0.5361 1.1559 0.5224
C15A C 0.5706(2) 1.1074(4) 0.49465(16)
C16A C 0.5217(4) 1.0770(6) 0.4644(3)
C17A C 0.4816(4) 1.0482(5) 0.4379(3)
C18A C 0.4353(4) 1.0158(7) 0.40707(18)
C19A C 0.3913(5) 1.0286(6) 0.3939(3)
H7A H 0.3907 1.0623 0.4061
C20A C 0.3481(4) 0.9921(6) 0.3629(3)
H8A H 0.3180 1.0009 0.3539
C21A C 0.3491(3) 0.9429(7) 0.34498(17)
C22A C 0.3931(5) 0.9300(6) 0.3581(3)
H9A H 0.3937 0.8963 0.3459
C23A C 0.4362(3) 0.9665(5) 0.3892(3)
H10A H 0.4664 0.9578 0.3982
C24A C 0.3028(4) 0.9022(7) 0.3111(3)
C25A C 0.5775(5) 1.2406(7) 0.5792(4)
H11A H 0.5846 1.2704 0.6024
H12A H 0.5372 1.2062 0.5827
H13A H 0.5812 1.2585 0.5494
C26A C 0.7531(4) 1.1878(6) 0.5901(3)
H14A H 0.7814 1.2122 0.6136
H15A H 0.7738 1.1967 0.5611
H16A H 0.7366 1.1453 0.5972
Mo1B Mo 0.20480(8) 0.86105(5) 0.2500
Mo2B Mo 0.24308(7) 0.80566(5) 0.2500
O1B O 0.1418(3) 0.8078(2) 0.29869(16)
O2B O 0.1839(3) 0.7498(2) 0.29737(17)
O3B O 0.0821(4) 0.3470(3) 0.2989(2)
O4B O 0.1418(4) 0.4474(3) 0.29832(19)
O5B O -0.2222(4) 0.3973(3) 0.5834(2)
O6B O -0.2010(4) 0.5044(3) 0.5878(2)
C1B C 0.14672(27) 0.76402(18) 0.31276(15)
C2B C 0.10194(21) 0.72296(14) 0.34682(12)
C3B C 0.05742(26) 0.7339(2) 0.36215(17)
H1B H 0.0554 0.7674 0.3511
C4B C 0.0161(4) 0.6960(3) 0.39361(17)
H2B H -0.0143 0.7035 0.4041
C5B C 0.0191(4) 0.6470(2) 0.40975(13)
C6B C 0.06368(28) 0.63608(19) 0.39441(16)
H3B H 0.0658 0.6027 0.4054
C7B C 0.10505(25) 0.67404(18) 0.36295(16)
H4B H 0.1354 0.6665 0.3525
C8B C -0.0220(6) 0.6028(4) 0.4433(3)
C9B C -0.0556(6) 0.5670(3) 0.4677(3)
C10B C -0.0974(4) 0.5213(3) 0.49619(17)
C11B C -0.1287(3) 0.5363(2) 0.5265(2)
H5B H -0.1218 0.5760 0.5276
C12B C -0.1702(4) 0.4930(3) 0.55531(17)
C13B C -0.1803(4) 0.4349(3) 0.55377(18)
C14B C -0.1490(3) 0.4199(2) 0.5234(2)
H6B H -0.1559 0.3802 0.5224
C15B C -0.1074(4) 0.4632(3) 0.49465(16)
C16B C -0.0770(6) 0.4447(4) 0.4644(3)
C17B C -0.0482(5) 0.4334(3) 0.4379(3)
C18B C -0.0158(7) 0.4195(6) 0.40707(18)
C19B C -0.0286(6) 0.3627(4) 0.3939(3)
H7B H -0.0623 0.3284 0.4061
C20B C 0.0079(6) 0.3560(4) 0.3629(3)
H8B H -0.0009 0.3171 0.3539
C21B C 0.0571(7) 0.4062(6) 0.34498(17)
C22B C 0.0700(6) 0.4631(4) 0.3581(3)
H9B H 0.1037 0.4974 0.3459
C23B C 0.0335(5) 0.4697(4) 0.3892(3)
H10B H 0.0422 0.5086 0.3982
C24B C 0.0978(7) 0.4006(6) 0.3111(3)
C25B C -0.2406(7) 0.3369(5) 0.5792(4)
H11B H -0.2704 0.3142 0.6024
H12B H -0.2062 0.3310 0.5827
H13B H -0.2585 0.3227 0.5494
C26B C -0.1878(6) 0.5653(5) 0.5901(3)
H14B H -0.2122 0.5692 0.6136
H15B H -0.1967 0.5771 0.5611
H16B H -0.1453 0.5913 0.5972
O1I O 0.1922(2) 0.3340(2) 0.20131(16)
O2I O 0.2502(2) 0.4341(2) 0.20263(17)
O3I O 0.6530(3) 0.7351(3) 0.2011(2)
O4I O 0.5526(3) 0.6944(3) 0.20168(19)
O5I O 0.6027(3) 0.3805(3) -0.0834(2)
O6I O 0.4956(3) 0.2946(3) -0.0878(2)
C1I C 0.23598(18) 0.3827(2) 0.18724(15)
C2I C 0.27704(14) 0.37898(16) 0.15318(12)
C3I C 0.2661(2) 0.32352(17) 0.13785(17)
H1I H 0.2326 0.2880 0.1489
C4I C 0.3040(3) 0.3201(2) 0.10639(17)
H2I H 0.2965 0.2822 0.0959
C5I C 0.3530(2) 0.3721(3) 0.09025(13)
C6I C 0.36392(19) 0.4276(2) 0.10559(16)
H3I H 0.3973 0.4631 0.0946
C7I C 0.32596(18) 0.43101(17) 0.13705(16)
H4I H 0.3335 0.4689 0.1475
C8I C 0.3972(4) 0.3752(5) 0.0567(3)
C9I C 0.4330(3) 0.3774(5) 0.0323(3)
C10I C 0.4787(3) 0.3813(3) 0.00381(17)
C11I C 0.4637(2) 0.3350(2) -0.0265(2)
H5I H 0.4240 0.3022 -0.0276
C12I C 0.5070(3) 0.3368(2) -0.05531(17)
C13I C 0.5651(3) 0.3848(3) -0.05377(18)
C14I C 0.5801(2) 0.4311(2) -0.0234(2)
H6I H 0.6198 0.4639 -0.0224
C15I C 0.5368(3) 0.4294(2) 0.00535(16)
C16I C 0.5553(4) 0.4783(4) 0.0356(3)
C17I C 0.5666(3) 0.5184(4) 0.0621(3)
C18I C 0.5805(6) 0.5647(4) 0.09293(18)
C19I C 0.6373(4) 0.6087(5) 0.1061(3)
H7I H 0.6716 0.6093 0.0939
C20I C 0.6440(4) 0.6519(4) 0.1371(3)
H8I H 0.6829 0.6820 0.1461
C21I C 0.5938(6) 0.6509(3) 0.15502(17)
C22I C 0.5369(4) 0.6069(5) 0.1419(3)
H9I H 0.5026 0.6063 0.1541
C23I C 0.5303(4) 0.5638(3) 0.1108(3)
H10I H 0.4914 0.5336 0.1018
C24I C 0.5994(6) 0.6972(4) 0.1889(3)
C25I C 0.6631(5) 0.4225(5) -0.0792(4)
H11I H 0.6858 0.4154 -0.1024
H12I H 0.6690 0.4628 -0.0827
H13I H 0.6773 0.4188 -0.0494
C26I C 0.4347(5) 0.2469(4) -0.0901(3)
H14I H 0.4308 0.2186 -0.1136
H15I H 0.4229 0.2262 -0.0611
H16I H 0.4087 0.2634 -0.0972
O1J O 0.6660(2) 0.8582(3) 0.20131(16)
O2J O 0.5659(2) 0.8161(3) 0.20263(17)
O3J O 0.2649(3) 0.9179(4) 0.2011(2)
O4J O 0.3056(3) 0.8582(4) 0.20168(19)
O5J O 0.6195(3) 1.2222(4) -0.0834(2)
O6J O 0.7054(3) 1.2010(4) -0.0878(2)
C1J C 0.6173(2) 0.85328(27) 0.18724(15)
C2J C 0.62102(16) 0.89806(21) 0.15318(12)
C3J C 0.67648(17) 0.94258(26) 0.13785(17)
H1J H 0.7120 0.9446 0.1489
C4J C 0.6799(2) 0.9839(4) 0.10639(17)
H2J H 0.7178 1.0143 0.0959
C5J C 0.6279(3) 0.9809(4) 0.09025(13)
C6J C 0.5724(2) 0.93632(28) 0.10559(16)
H3J H 0.5369 0.9342 0.0946
C7J C 0.56899(17) 0.89495(25) 0.13705(16)
H4J H 0.5311 0.8646 0.1475
C8J C 0.6248(5) 1.0220(6) 0.0567(3)
C9J C 0.6226(5) 1.0556(6) 0.0323(3)
C10J C 0.6187(3) 1.0974(4) 0.00381(17)
C11J C 0.6650(2) 1.1287(3) -0.0265(2)
H5J H 0.6978 1.1218 -0.0276
C12J C 0.6632(2) 1.1702(4) -0.05531(17)
C13J C 0.6152(3) 1.1803(4) -0.05377(18)
C14J C 0.5689(2) 1.1490(3) -0.0234(2)
H6J H 0.5361 1.1559 -0.0224
C15J C 0.5706(2) 1.1074(4) 0.00535(16)
C16J C 0.5217(4) 1.0770(6) 0.0356(3)
C17J C 0.4816(4) 1.0482(5) 0.0621(3)
C18J C 0.4353(4) 1.0158(7) 0.09293(18)
C19J C 0.3913(5) 1.0286(6) 0.1061(3)
H7J H 0.3907 1.0623 0.0939
C20J C 0.3481(4) 0.9921(6) 0.1371(3)
H8J H 0.3180 1.0009 0.1461
C21J C 0.3491(3) 0.9429(7) 0.15502(17)
C22J C 0.3931(5) 0.9300(6) 0.1419(3)
H9J H 0.3937 0.8963 0.1541
C23J C 0.4362(3) 0.9665(5) 0.1108(3)
H10J H 0.4664 0.9578 0.1018
C24J C 0.3028(4) 0.9022(7) 0.1889(3)
C25J C 0.5775(5) 1.2406(7) -0.0792(4)
H11J H 0.5846 1.2704 -0.1024
H12J H 0.5372 1.2062 -0.0827
H13J H 0.5812 1.2585 -0.0494
C26J C 0.7531(4) 1.1878(6) -0.0901(3)
H14J H 0.7814 1.2122 -0.1136
H15J H 0.7738 1.1967 -0.0611
H16J H 0.7366 1.1453 -0.0972
O1K O 0.1418(3) 0.8078(2) 0.20131(16)
O2K O 0.1839(3) 0.7498(2) 0.20263(17)
O3K O 0.0821(4) 0.3470(3) 0.2011(2)
O4K O 0.1418(4) 0.4474(3) 0.20168(19)
O5K O -0.2222(4) 0.3973(3) -0.0834(2)
O6K O -0.2010(4) 0.5044(3) -0.0878(2)
C1K C 0.14672(27) 0.76402(18) 0.18724(15)
C2K C 0.10194(21) 0.72296(14) 0.15318(12)
C3K C 0.05742(26) 0.7339(2) 0.13785(17)
H1K H 0.0554 0.7674 0.1489
C4K C 0.0161(4) 0.6960(3) 0.10639(17)
H2K H -0.0143 0.7035 0.0959
C5K C 0.0191(4) 0.6470(2) 0.09025(13)
C6K C 0.06368(28) 0.63608(19) 0.10559(16)
H3K H 0.0658 0.6027 0.0946
C7K C 0.10505(25) 0.67404(18) 0.13705(16)
H4K H 0.1354 0.6665 0.1475
C8K C -0.0220(6) 0.6028(4) 0.0567(3)
C9K C -0.0556(6) 0.5670(3) 0.0323(3)
C10K C -0.0974(4) 0.5213(3) 0.00381(17)
C11K C -0.1287(3) 0.5363(2) -0.0265(2)
H5K H -0.1218 0.5760 -0.0276
C12K C -0.1702(4) 0.4930(3) -0.05531(17)
C13K C -0.1803(4) 0.4349(3) -0.05377(18)
C14K C -0.1490(3) 0.4199(2) -0.0234(2)
H6K H -0.1559 0.3802 -0.0224
C15K C -0.1074(4) 0.4632(3) 0.00535(16)
C16K C -0.0770(6) 0.4447(4) 0.0356(3)
C17K C -0.0482(5) 0.4334(3) 0.0621(3)
C18K C -0.0158(7) 0.4195(6) 0.09293(18)
C19K C -0.0286(6) 0.3627(4) 0.1061(3)
H7K H -0.0623 0.3284 0.0939
C20K C 0.0079(6) 0.3560(4) 0.1371(3)
H8K H -0.0009 0.3171 0.1461
C21K C 0.0571(7) 0.4062(6) 0.15502(17)
C22K C 0.0700(6) 0.4631(4) 0.1419(3)
H9K H 0.1037 0.4974 0.1541
C23K C 0.0335(5) 0.4697(4) 0.1108(3)
H10K H 0.0422 0.5086 0.1018
C24K C 0.0978(7) 0.4006(6) 0.1889(3)
C25K C -0.2406(7) 0.3369(5) -0.0792(4)
H11K H -0.2704 0.3142 -0.1024
H12K H -0.2062 0.3310 -0.0827
H13K H -0.2585 0.3227 -0.0494
C26K C -0.1878(6) 0.5653(5) -0.0901(3)
H14K H -0.2122 0.5692 -0.1136
H15K H -0.1967 0.5771 -0.0611
H16K H -0.1453 0.5913 -0.0972
O7? O 0.2476(3) 0.54493(7) 0.2500
O8? O 0.0751(3) 0.23700(8) 0.2500
loop_
_geom_bond_atom_site_label_1
_geom_bond_atom_site_label_2
_geom_bond_site_symmetry_1
_geom_bond_site_symmetry_2
Mo1 Mo2 1_555 1_555
Mo2 O2 1_555 1_555
O1 Mo1 1_555 1_555
O2 C1 1_555 1_555
O3 C24 1_555 1_555
O4 C24 1_555 1_555
O5 C13 1_555 1_555
O6 C12 1_555 1_555
C1 O1 1_555 1_555
C2 C1 1_555 1_555
C3 C2 1_555 1_555
H1 C3 1_555 1_555
C4 C3 1_555 1_555
H2 C4 1_555 1_555
C5 C4 1_555 1_555
C6 C5 1_555 1_555
H3 C6 1_555 1_555
C7 C2 1_555 1_555
H4 C7 1_555 1_555
C8 C5 1_555 1_555
C9 C8 1_555 1_555
C10 C9 1_555 1_555
C11 C10 1_555 1_555
H5 C11 1_555 1_555
C12 C11 1_555 1_555
C13 C12 1_555 1_555
C14 C13 1_555 1_555
H6 C14 1_555 1_555
C15 C10 1_555 1_555
C16 C15 1_555 1_555
C17 C16 1_555 1_555
C18 C17 1_555 1_555
C19 C18 1_555 1_555
H7 C19 1_555 1_555
C20 C19 1_555 1_555
H8 C20 1_555 1_555
C21 C20 1_555 1_555
C22 C21 1_555 1_555
H9 C22 1_555 1_555
C23 C18 1_555 1_555
H10 C23 1_555 1_555
C24 C21 1_555 1_555
C25 O5 1_555 1_555
H11 C25 1_555 1_555
H12 C25 1_555 1_555
H13 C25 1_555 1_555
C26 O6 1_555 1_555
H14 C26 1_555 1_555
H15 C26 1_555 1_555
H16 C26 1_555 1_555
Mo1A O3 1_555 1_555
Mo2A O4 1_555 1_555
O1A Mo1A 1_555 1_555
O2A Mo2A 1_555 1_555
O3A C24A 1_555 1_555
O4A C24A 1_555 1_555
O5A C13A 1_555 1_555
O6A C12A 1_555 1_555
C1A O1A 1_555 1_555
C2A C1A 1_555 1_555
C3A C2A 1_555 1_555
H1A C3A 1_555 1_555
C4A C3A 1_555 1_555
H2A C4A 1_555 1_555
C5A C4A 1_555 1_555
C6A C5A 1_555 1_555
H3A C6A 1_555 1_555
C7A C2A 1_555 1_555
H4A C7A 1_555 1_555
C8A C5A 1_555 1_555
C9A C8A 1_555 1_555
C10A C9A 1_555 1_555
C11A C10A 1_555 1_555
H5A C11A 1_555 1_555
C12A C11A 1_555 1_555
C13A C12A 1_555 1_555
C14A C13A 1_555 1_555
H6A C14A 1_555 1_555
C15A C10A 1_555 1_555
C16A C15A 1_555 1_555
C17A C16A 1_555 1_555
C18A C17A 1_555 1_555
C19A C18A 1_555 1_555
H7A C19A 1_555 1_555
C20A C19A 1_555 1_555
H8A C20A 1_555 1_555
C21A C20A 1_555 1_555
C22A C21A 1_555 1_555
H9A C22A 1_555 1_555
C23A C18A 1_555 1_555
H10A C23A 1_555 1_555
C24A C21A 1_555 1_555
C25A O5A 1_555 1_555
H11A C25A 1_555 1_555
H12A C25A 1_555 1_555
H13A C25A 1_555 1_555
C26A O6A 1_555 1_555
H14A C26A 1_555 1_555
H15A C26A 1_555 1_555
H16A C26A 1_555 1_555
Mo1B O3A 1_555 1_555
Mo2B O4A 1_555 1_555
O1B Mo1B 1_555 1_555
O2B Mo2B 1_555 1_555
O3B Mo1 1_555 1_555
O4B Mo2 1_555 1_555
O5B C13B 1_555 1_555
O6B C12B 1_555 1_555
C1B O1B 1_555 1_555
C2B C1B 1_555 1_555
C3B C2B 1_555 1_555
H1B C3B 1_555 1_555
C4B C3B 1_555 1_555
H2B C4B 1_555 1_555
C5B C4B 1_555 1_555
C6B C5B 1_555 1_555
H3B C6B 1_555 1_555
C7B C2B 1_555 1_555
H4B C7B 1_555 1_555
C8B C5B 1_555 1_555
C9B C8B 1_555 1_555
C10B C9B 1_555 1_555
C11B C10B 1_555 1_555
H5B C11B 1_555 1_555
C12B C11B 1_555 1_555
C13B C12B 1_555 1_555
C14B C13B 1_555 1_555
H6B C14B 1_555 1_555
C15B C10B 1_555 1_555
C16B C15B 1_555 1_555
C17B C16B 1_555 1_555
C18B C17B 1_555 1_555
C19B C18B 1_555 1_555
H7B C19B 1_555 1_555
C20B C19B 1_555 1_555
H8B C20B 1_555 1_555
C21B C20B 1_555 1_555
C22B C21B 1_555 1_555
H9B C22B 1_555 1_555
C23B C18B 1_555 1_555
H10B C23B 1_555 1_555
C24B O3B 1_555 1_555
C25B O5B 1_555 1_555
H11B C25B 1_555 1_555
H12B C25B 1_555 1_555
H13B C25B 1_555 1_555
C26B O6B 1_555 1_555
H14B C26B 1_555 1_555
H15B C26B 1_555 1_555
H16B C26B 1_555 1_555
O1I Mo1 1_555 1_555
O2I Mo2 1_555 1_555
O3I Mo1A 1_555 1_555
O4I Mo2A 1_555 1_555
O5I C13I 1_555 1_555
O6I C12I 1_555 1_555
C1I O1I 1_555 1_555
C2I C1I 1_555 1_555
C3I C2I 1_555 1_555
H1I C3I 1_555 1_555
C4I C3I 1_555 1_555
H2I C4I 1_555 1_555
C5I C4I 1_555 1_555
C6I C5I 1_555 1_555
H3I C6I 1_555 1_555
C7I C2I 1_555 1_555
H4I C7I 1_555 1_555
C8I C5I 1_555 1_555
C9I C8I 1_555 1_555
C10I C9I 1_555 1_555
C11I C10I 1_555 1_555
H5I C11I 1_555 1_555
C12I C11I 1_555 1_555
C13I C12I 1_555 1_555
C14I C13I 1_555 1_555
H6I C14I 1_555 1_555
C15I C10I 1_555 1_555
C16I C15I 1_555 1_555
C17I C16I 1_555 1_555
C18I C17I 1_555 1_555
C19I C18I 1_555 1_555
H7I C19I 1_555 1_555
C20I C19I 1_555 1_555
H8I C20I 1_555 1_555
C21I C20I 1_555 1_555
C22I C21I 1_555 1_555
H9I C22I 1_555 1_555
C23I C18I 1_555 1_555
H10I C23I 1_555 1_555
C24I O3I 1_555 1_555
C25I O5I 1_555 1_555
H11I C25I 1_555 1_555
H12I C25I 1_555 1_555
H13I C25I 1_555 1_555
C26I O6I 1_555 1_555
H14I C26I 1_555 1_555
H15I C26I 1_555 1_555
H16I C26I 1_555 1_555
O1J Mo1A 1_555 1_555
O2J Mo2A 1_555 1_555
O3J Mo1B 1_555 1_555
O4J Mo2B 1_555 1_555
O5J C13J 1_555 1_555
O6J C12J 1_555 1_555
C1J O1J 1_555 1_555
C2J C1J 1_555 1_555
C3J C2J 1_555 1_555
H1J C3J 1_555 1_555
C4J C3J 1_555 1_555
H2J C4J 1_555 1_555
C5J C4J 1_555 1_555
C6J C5J 1_555 1_555
H3J C6J 1_555 1_555
C7J C2J 1_555 1_555
H4J C7J 1_555 1_555
C8J C5J 1_555 1_555
C9J C8J 1_555 1_555
C10J C9J 1_555 1_555
C11J C10J 1_555 1_555
H5J C11J 1_555 1_555
C12J C11J 1_555 1_555
C13J C12J 1_555 1_555
C14J C13J 1_555 1_555
H6J C14J 1_555 1_555
C15J C10J 1_555 1_555
C16J C15J 1_555 1_555
C17J C16J 1_555 1_555
C18J C17J 1_555 1_555
C19J C18J 1_555 1_555
H7J C19J 1_555 1_555
C20J C19J 1_555 1_555
H8J C20J 1_555 1_555
C21J C20J 1_555 1_555
C22J C21J 1_555 1_555
H9J C22J 1_555 1_555
C23J C18J 1_555 1_555
H10J C23J 1_555 1_555
C24J O3J 1_555 1_555
C25J O5J 1_555 1_555
H11J C25J 1_555 1_555
H12J C25J 1_555 1_555
H13J C25J 1_555 1_555
C26J O6J 1_555 1_555
H14J C26J 1_555 1_555
H15J C26J 1_555 1_555
H16J C26J 1_555 1_555
O1K Mo1B 1_555 1_555
O2K Mo2B 1_555 1_555
O3K Mo1 1_555 1_555
O4K Mo2 1_555 1_555
O5K C13K 1_555 1_555
O6K C12K 1_555 1_555
C1K O1K 1_555 1_555
C2K C1K 1_555 1_555
C3K C2K 1_555 1_555
H1K C3K 1_555 1_555
C4K C3K 1_555 1_555
H2K C4K 1_555 1_555
C5K C4K 1_555 1_555
C6K C5K 1_555 1_555
H3K C6K 1_555 1_555
C7K C2K 1_555 1_555
H4K C7K 1_555 1_555
C8K C5K 1_555 1_555
C9K C8K 1_555 1_555
C10K C9K 1_555 1_555
C11K C10K 1_555 1_555
H5K C11K 1_555 1_555
C12K C11K 1_555 1_555
C13K C12K 1_555 1_555
C14K C13K 1_555 1_555
H6K C14K 1_555 1_555
C15K C10K 1_555 1_555
C16K C15K 1_555 1_555
C17K C16K 1_555 1_555
C18K C17K 1_555 1_555
C19K C18K 1_555 1_555
H7K C19K 1_555 1_555
C20K C19K 1_555 1_555
H8K C20K 1_555 1_555
C21K C20K 1_555 1_555
C22K C21K 1_555 1_555
H9K C22K 1_555 1_555
C23K C18K 1_555 1_555
H10K C23K 1_555 1_555
C24K O3K 1_555 1_555
C25K O5K 1_555 1_555
H11K C25K 1_555 1_555
H12K C25K 1_555 1_555
H13K C25K 1_555 1_555
C26K O6K 1_555 1_555
H14K C26K 1_555 1_555
H15K C26K 1_555 1_555
H16K C26K 1_555 1_555
C6 C7 1_555 1_555
C14 C15 1_555 1_555
C22 C23 1_555 1_555
Mo1A Mo2A 1_555 1_555
O2A C1A 1_555 1_555
C6A C7A 1_555 1_555
C14A C15A 1_555 1_555
C22A C23A 1_555 1_555
Mo1B Mo2B 1_555 1_555
O2B C1B 1_555 1_555
O4B C24B 1_555 1_555
C6B C7B 1_555 1_555
C14B C15B 1_555 1_555
C21B C24B 1_555 1_555
C22B C23B 1_555 1_555
O2I C1I 1_555 1_555
O4I C24I 1_555 1_555
C6I C7I 1_555 1_555
C14I C15I 1_555 1_555
C21I C24I 1_555 1_555
C22I C23I 1_555 1_555
O2J C1J 1_555 1_555
O4J C24J 1_555 1_555
C6J C7J 1_555 1_555
C14J C15J 1_555 1_555
C21J C24J 1_555 1_555
C22J C23J 1_555 1_555
O2K C1K 1_555 1_555
O4K C24K 1_555 1_555
C6K C7K 1_555 1_555
C14K C15K 1_555 1_555
C21K C24K 1_555 1_555
C22K C23K 1_555 1_555

#END
