
#######################################################################
#
#                 Cambridge Crystallographic Data Centre
#                                CCDC 
#
#######################################################################
#
# If this CIF has been generated from an entry in the Cambridge 
# Structural Database, then it will include bibliographic, chemical, 
# crystal, experimental, refinement or atomic coordinate data resulting 
# from the CCDC's data processing and validation procedures.
#
#######################################################################

data_XUQLIG
_chemical_formula_moiety         'C288 H288 Mo24 O96'
_chemical_name_systematic        
'tetracosakis(\m-5-t-butylisophthalato)-tetracosa-molybdenum unknown solvate'
_symmetry_cell_setting           triclinic
_symmetry_space_group_name_H-M   'P -1'
_symmetry_Int_Tables_number      2
_space_group_name_Hall           '-P 1'
loop_
_symmetry_equiv_pos_site_id
_symmetry_equiv_pos_as_xyz
1 x,y,z
2 -x,-y,-z
_cell_length_a                   25.6486(16)
_cell_length_b                   25.682(3)
_cell_length_c                   29.181(3)
_cell_angle_alpha                65.4810(10)
_cell_angle_beta                 63.9820(10)
_cell_angle_gamma                86.8650(10)
_cell_volume                     15524.2
_exptl_crystal_colour            'dark red'
_exptl_crystal_description       block
_cell_formula_units_Z            1
loop_
_atom_site_label
_atom_site_type_symbol
_atom_site_fract_x
_atom_site_fract_y
_atom_site_fract_z
Mo1 Mo 0.50161(3) 0.12260(2) 0.84234(2)
Mo2 Mo 0.50075(3) 0.19686(2) 0.77463(2)
Mo3 Mo 0.89813(3) 0.32627(2) 0.45572(2)
Mo4 Mo 0.82078(3) 0.36345(2) 0.46420(2)
Mo5 Mo 0.89233(3) 0.69589(2) 0.11108(2)
Mo6 Mo 0.81522(3) 0.65746(2) 0.18928(2)
Mo7 Mo 0.72493(3) 0.91332(2) 0.37707(2)
Mo8 Mo 0.68010(3) 0.83262(2) 0.40094(2)
Mo9 Mo 0.32885(3) 0.71843(2) 0.76135(2)
Mo10 Mo 0.36381(3) 0.67601(2) 0.70819(2)
Mo11 Mo 0.72049(3) 0.53522(2) 0.72523(2)
Mo12 Mo 0.67873(3) 0.52843(2) 0.67904(2)
O1 O 0.58573(19) 0.11430(16) 0.78848(17)
O2 O 0.58523(18) 0.19401(16) 0.71719(16)
O3 O 0.8516(2) 0.25091(17) 0.53150(17)
O4 O 0.76977(18) 0.29082(16) 0.54111(16)
O5 O 0.94884(18) 0.39829(17) 0.37735(17)
O6 O 0.8663(2) 0.43738(17) 0.38749(17)
O7 O 0.94496(18) 0.64552(17) 0.14626(17)
O8 O 0.8628(2) 0.60468(16) 0.22939(17)
O9 O 0.8456(2) 0.74895(17) 0.07075(17)
O10 O 0.76331(18) 0.70904(16) 0.15391(16)
O11 O 0.58293(19) 0.87236(16) 0.10125(16)
O12 O 0.58366(18) 0.79466(16) 0.17320(16)
O13 O 0.53648(19) 0.93228(15) 0.17505(16)
O14 O 0.53832(18) 0.85394(15) 0.24665(16)
O15 O 0.68993(18) 0.95691(15) 0.32037(16)
O16 O 0.64287(17) 0.87179(15) 0.34601(16)
O17 O 0.76148(18) 0.87363(15) 0.43260(16)
O18 O 0.71420(18) 0.78861(15) 0.45758(16)
O19 O 0.75592(18) 0.62222(16) 0.66744(17)
O20 O 0.71146(18) 0.61502(16) 0.61898(16)
O21 O 0.6878(2) 0.44788(17) 0.78529(17)
O22 O 0.64373(18) 0.44148(16) 0.73597(16)
O23 O 0.54048(19) 0.17379(16) 0.86290(16)
O24 O 0.53987(19) 0.25229(15) 0.79100(16)
O25 O 0.3879(2) 0.69059(19) 0.79564(18)
O26 O 0.4246(2) 0.64597(17) 0.73923(18)
O27 O 0.64630(19) 0.56301(17) 0.77390(16)
O28 O 0.60382(18) 0.55650(16) 0.72391(17)
O29 O 0.79670(19) 0.50859(17) 0.67957(18)
O30 O 0.75191(19) 0.50106(16) 0.63078(17)
O31 O 0.91383(19) 0.36258(18) 0.50164(17)
O32 O 0.8321(2) 0.40262(16) 0.51008(16)
O33 O 0.88755(19) 0.28680(17) 0.40988(17)
O34 O 0.80483(19) 0.32531(17) 0.41941(17)
O35 O 0.73471(18) 0.25305(17) 0.26773(18)
O36 O 0.6968(2) 0.29874(18) 0.32373(18)
O37 O 0.90841(18) 0.76213(16) 0.12978(17)
O38 O 0.82658(18) 0.72142(17) 0.21261(17)
O39 O 0.79781(18) 0.90633(17) 0.30948(17)
O40 O 0.75021(17) 0.82122(16) 0.33468(16)
O41 O 0.65448(19) 0.92450(16) 0.44295(16)
O42 O 0.60734(17) 0.83895(17) 0.46808(16)
O43 O 0.38614(19) 0.79543(16) 0.70033(17)
O44 O 0.42436(17) 0.75056(17) 0.64436(16)
C1 C 0.6106(3) 0.1524(3) 0.7369(3)
C2 C 0.67276(14) 0.15076(17) 0.69928(16)
C3 C 0.69983(19) 0.10322(14) 0.71667(15)
H1 H 0.6782 0.0704 0.7518
C4 C 0.75851(19) 0.10364(14) 0.68269(18)
C5 C 0.79012(15) 0.15160(18) 0.63131(16)
H2 H 0.8302 0.1519 0.6081
C6 C 0.76306(18) 0.19914(14) 0.61392(14)
C7 C 0.70438(18) 0.19872(13) 0.64791(17)
H3 H 0.6859 0.2312 0.6360
C8 C 0.7968(3) 0.2508(3) 0.5587(3)
C9 C 0.78723(19) 0.05037(15) 0.70237(19)
C10 C 0.8388(4) 0.0468(4) 0.6513(3)
H4 H 0.8571 0.0129 0.6646
H5 H 0.8679 0.0820 0.6303
H6 H 0.8245 0.0431 0.6265
C11 C 0.7425(3) -0.00513(15) 0.7349(5)
H7 H 0.7612 -0.0387 0.7478
H8 H 0.7284 -0.0087 0.7099
H9 H 0.7093 -0.0034 0.7677
C12 C 0.8103(5) 0.0540(4) 0.7415(5)
H10 H 0.8283 0.0197 0.7540
H11 H 0.7776 0.0559 0.7746
H12 H 0.8396 0.0889 0.7210
C13 C 0.9201(4) 0.4385(3) 0.3596(3)
C14 C 0.95423(15) 0.48773(15) 0.30227(12)
C15 C 1.01484(15) 0.49378(15) 0.27163(15)
H13 H 1.0362 0.4674 0.2878
C16 C 1.04420(11) 0.53843(17) 0.21734(15)
C17 C 1.01296(16) 0.57704(15) 0.19368(12)
H14 H 1.0330 0.6076 0.1566
C18 C 0.95234(16) 0.57098(16) 0.22432(16)
C19 C 0.92298(11) 0.52633(18) 0.27862(15)
H15 H 0.8816 0.5222 0.2996
C20 C 0.9176(3) 0.6098(2) 0.1983(3)
C21 C 1.11098(12) 0.54245(15) 0.18535(13)
C22 C 1.14042(19) 0.5500(3) 0.2184(2)
H16 H 1.1831 0.5529 0.1973
H17 H 1.1258 0.5166 0.2556
H18 H 1.1313 0.5854 0.2234
C23 C 1.1262(2) 0.4871(2) 0.1776(2)
H19 H 1.1690 0.4902 0.1571
H20 H 1.1082 0.4821 0.1559
H21 H 1.1113 0.4537 0.2148
C24 C 1.13578(19) 0.5943(2) 0.12674(15)
H22 H 1.1785 0.5966 0.1069
H23 H 1.1266 0.6300 0.1311
H24 H 1.1181 0.5894 0.1047
C25 C 0.7913(4) 0.7458(3) 0.1014(3)
C26 C 0.75746(19) 0.78581(15) 0.07502(16)
C27 C 0.78489(15) 0.82300(18) 0.01749(15)
H25 H 0.8243 0.8211 -0.0056
C28 C 0.75460(18) 0.86290(16) -0.00633(11)
C29 C 0.69688(18) 0.86562(15) 0.02738(16)
H26 H 0.6762 0.8929 0.0111
C30 C 0.66945(15) 0.82843(17) 0.08492(15)
C31 C 0.69974(19) 0.78852(15) 0.10873(11)
H27 H 0.6810 0.7631 0.1481
C32 C 0.6084(3) 0.8319(3) 0.1220(3)
C33 C 0.78719(18) 0.90420(17) -0.06965(11)
C34 C 0.8365(3) 0.9460(3) -0.0810(3)
H28 H 0.8566 0.9725 -0.1215
H29 H 0.8647 0.9239 -0.0697
H30 H 0.8198 0.9684 -0.0591
C35 C 0.7448(3) 0.9397(4) -0.0894(2)
H31 H 0.7664 0.9665 -0.1297
H32 H 0.7270 0.9617 -0.0673
H33 H 0.7139 0.9135 -0.0838
C36 C 0.8143(4) 0.8698(3) -0.10446(19)
H34 H 0.8353 0.8967 -0.1448
H35 H 0.7831 0.8436 -0.0984
H36 H 0.8418 0.8472 -0.0925
C37 C 0.5503(3) 0.9089(3) 0.2155(3)
C38 C 0.58107(17) 0.94558(13) 0.22644(16)
C39 C 0.59158(17) 1.00544(14) 0.19537(14)
H37 H 0.5774 1.0228 0.1682
C40 C 0.62286(17) 1.03986(9) 0.20407(14)
C41 C 0.64363(17) 1.01443(13) 0.24383(15)
H38 H 0.6650 1.0380 0.2498
C42 C 0.63313(18) 0.95457(14) 0.27490(14)
C43 C 0.60184(18) 0.92014(9) 0.26620(15)
H39 H 0.5947 0.8792 0.2874
C44 C 0.6567(3) 0.9259(3) 0.3167(2)
C45 C 0.63654(16) 1.10607(10) 0.17070(13)
C46 C 0.6137(3) 1.13454(17) 0.2114(2)
H40 H 0.6228 1.1768 0.1896
H41 H 0.6327 1.1222 0.2361
H42 H 0.5711 1.1229 0.2345
C47 C 0.70302(16) 1.12574(19) 0.1343(2)
H43 H 0.7112 1.1681 0.1135
H44 H 0.7180 1.1087 0.1074
H45 H 0.7223 1.1131 0.1588
C48 C 0.6072(3) 1.12681(17) 0.1317(2)
H46 H 0.6160 1.1691 0.1109
H47 H 0.5646 1.1148 0.1545
H48 H 0.6222 1.1097 0.1048
C49 C 0.7463(3) 0.8192(3) 0.4626(3)
C50 C 0.76904(18) 0.79050(15) 0.50538(15)
C51 C 0.80705(18) 0.82244(11) 0.50992(15)
H49 H 0.8206 0.8623 0.4846
C52 C 0.82520(16) 0.79600(15) 0.55158(17)
C53 C 0.80534(18) 0.73762(15) 0.58869(15)
H50 H 0.8177 0.7196 0.6172
C54 C 0.76733(18) 0.70568(11) 0.58415(15)
C55 C 0.74918(16) 0.73212(14) 0.54250(17)
H51 H 0.7232 0.7103 0.5394
C56 C 0.7434(3) 0.6437(3) 0.6265(3)
C57 C 0.86411(17) 0.83319(15) 0.55785(17)
C58 C 0.8894(3) 0.7946(3) 0.5970(3)
H52 H 0.9138 0.8190 0.6009
H53 H 0.9133 0.7697 0.5809
H54 H 0.8571 0.7705 0.6344
C59 C 0.8282(3) 0.8728(3) 0.5831(3)
H55 H 0.8535 0.8963 0.5870
H56 H 0.7957 0.8492 0.6205
H57 H 0.8125 0.8984 0.5580
C60 C 0.9152(2) 0.8710(3) 0.5000(2)
H58 H 0.9395 0.8947 0.5046
H59 H 0.8996 0.8964 0.4746
H60 H 0.9391 0.8462 0.4837
C61 C 0.6572(3) 0.4193(3) 0.7774(3)
C62 C 0.63471(19) 0.35654(12) 0.81699(15)
C63 C 0.64658(19) 0.33122(15) 0.86303(17)
H61 H 0.6676 0.3541 0.8699
C64 C 0.6277(2) 0.27247(16) 0.89897(14)
C65 C 0.5970(2) 0.23903(12) 0.88887(15)
H62 H 0.5842 0.1989 0.9134
C66 C 0.58516(19) 0.26435(15) 0.84284(17)
C67 C 0.60400(19) 0.32310(16) 0.80690(13)
H63 H 0.5959 0.3404 0.7754
C68 C 0.5530(3) 0.2289(3) 0.8318(3)
C69 C 0.63517(19) 0.24263(15) 0.95298(14)
C70 C 0.6698(4) 0.1923(3) 0.9515(3)
H64 H 0.6742 0.1737 0.9862
H65 H 0.7087 0.2070 0.9185
H66 H 0.6486 0.1639 0.9488
C71 C 0.6682(4) 0.2858(3) 0.9586(3)
H67 H 0.6726 0.2662 0.9932
H68 H 0.6461 0.3178 0.9603
H69 H 0.7072 0.3010 0.9257
C72 C 0.5749(2) 0.2186(3) 1.00532(15)
H70 H 0.5802 0.1998 1.0395
H71 H 0.5535 0.1904 1.0027
H72 H 0.5525 0.2505 1.0072
C73 C 0.4239(4) 0.6600(4) 0.7761(4)
C74 C 0.4683(2) 0.6397(2) 0.7977(2)
C75 C 0.46706(19) 0.6513(2) 0.8405(2)
H73 H 0.4368 0.6700 0.8577
C76 C 0.5102(2) 0.6356(2) 0.85826(16)
C77 C 0.55445(19) 0.6083(2) 0.8331(2)
H74 H 0.5839 0.5975 0.8453
C78 C 0.5556(2) 0.5966(2) 0.7903(2)
C79 C 0.5125(2) 0.6123(2) 0.77254(17)
H75 H 0.5134 0.6043 0.7432
C80 C 0.6048(4) 0.5706(4) 0.7613(3)
C81 C 0.50690(19) 0.64953(19) 0.90568(15)
C82 C 0.4487(3) 0.6194(4) 0.9594(2)
H76 H 0.4479 0.6271 0.9898
H77 H 0.4450 0.5775 0.9709
H78 H 0.4160 0.6343 0.9517
C83 C 0.5576(3) 0.6288(4) 0.9196(3)
H79 H 0.5544 0.6371 0.9505
H80 H 0.5951 0.6490 0.8860
H81 H 0.5557 0.5870 0.9312
C84 C 0.5108(5) 0.7151(2) 0.8873(3)
H82 H 0.5096 0.7235 0.9176
H83 H 0.4776 0.7286 0.8799
H84 H 0.5477 0.7350 0.8528
C85 C 0.7947(3) 0.4955(3) 0.6427(3)
C86 C 0.84538(16) 0.46860(17) 0.61285(17)
C87 C 0.89459(19) 0.46341(17) 0.62205(16)
H85 H 0.8983 0.4792 0.6449
C88 C 0.93838(14) 0.43505(18) 0.59786(17)
C89 C 0.93297(16) 0.41188(17) 0.56446(17)
H86 H 0.9629 0.3925 0.5479
C90 C 0.8838(2) 0.41708(17) 0.55526(16)
C91 C 0.83996(15) 0.44543(18) 0.57945(18)
H87 H 0.8063 0.4490 0.5732
C92 C 0.8768(3) 0.3923(3) 0.5195(3)
C93 C 0.99267(13) 0.43204(16) 0.60780(15)
C94 C 0.9763(2) 0.3919(3) 0.66985(17)
H88 H 1.0114 0.3902 0.6756
H89 H 0.9605 0.3530 0.6792
H90 H 0.9467 0.4069 0.6944
C95 C 1.0180(2) 0.49247(19) 0.5938(3)
H91 H 1.0526 0.4899 0.6004
H92 H 0.9883 0.5077 0.6182
H93 H 1.0293 0.5184 0.5540
C96 C 1.04016(19) 0.4086(3) 0.5701(2)
H94 H 1.0744 0.4067 0.5770
H95 H 1.0517 0.4345 0.5302
H96 H 1.0247 0.3698 0.5788
C97 C 0.8431(3) 0.2951(3) 0.4006(3)
C98 C 0.8345(2) 0.26838(17) 0.36749(16)
C99 C 0.87297(16) 0.23229(18) 0.35041(19)
H97 H 0.9041 0.2244 0.3604
C100 C 0.86583(17) 0.20778(16) 0.31868(19)
C101 C 0.8203(2) 0.21936(18) 0.30403(18)
H98 H 0.8154 0.2026 0.2823
C102 C 0.78183(16) 0.25546(18) 0.32111(19)
C103 C 0.78896(17) 0.27997(16) 0.35284(17)
H99 H 0.7627 0.3046 0.3645
C104 C 0.7348(3) 0.2698(3) 0.3027(3)
C105 C 0.90529(18) 0.16491(17) 0.3024(2)
C106 C 0.96999(16) 0.1929(3) 0.2690(5)
H100 H 0.9947 0.1653 0.2584
H101 H 0.9808 0.2036 0.2926
H102 H 0.9759 0.2276 0.2348
C107 C 0.8970(5) 0.1106(3) 0.3556(3)
H103 H 0.9221 0.0834 0.3445
H104 H 0.8559 0.0922 0.3772
H105 H 0.9079 0.1215 0.3791
C108 C 0.8899(4) 0.1467(4) 0.2654(5)
H106 H 0.9154 0.1194 0.2552
H107 H 0.8957 0.1810 0.2308
H108 H 0.8488 0.1281 0.2864
C109 C 0.8708(3) 0.7608(3) 0.1766(3)
C110 C 0.87929(18) 0.80882(14) 0.19136(17)
C111 C 0.92910(16) 0.85085(17) 0.15588(14)
H109 H 0.9588 0.8488 0.1229
C112 C 0.93548(14) 0.89585(15) 0.16863(16)
C113 C 0.89204(18) 0.89883(15) 0.21686(18)
H110 H 0.8964 0.9296 0.2256
C114 C 0.84223(16) 0.85681(17) 0.25233(14)
C115 C 0.83585(14) 0.81180(14) 0.23959(16)
H111 H 0.8018 0.7831 0.2638
C116 C 0.7938(3) 0.8619(3) 0.3020(3)
C117 C 0.99195(15) 0.94033(16) 0.13054(19)
C118 C 1.0009(4) 0.9698(5) 0.06934(19)
H112 H 1.0372 0.9979 0.0454
H113 H 0.9676 0.9899 0.0681
H114 H 1.0036 0.9405 0.0554
C119 C 1.04524(17) 0.9106(3) 0.1312(5)
H115 H 1.0809 0.9395 0.1071
H116 H 1.0487 0.8815 0.1168
H117 H 1.0402 0.8916 0.1701
C120 C 0.9885(4) 0.9870(4) 0.1512(4)
H118 H 1.0252 1.0146 0.1270
H119 H 0.9826 0.9687 0.1904
H120 H 0.9556 1.0074 0.1495
C121 C 0.6105(3) 0.8845(3) 0.4753(3)
C122 C 0.56164(16) 0.88949(16) 0.52455(14)
C123 C 0.56122(15) 0.93955(13) 0.53207(14)
H121 H 0.5921 0.9713 0.5053
C124 C 0.51555(18) 0.94318(12) 0.57880(16)
C125 C 0.47030(15) 0.89674(16) 0.61799(13)
H122 H 0.4391 0.8992 0.6499
C126 C 0.47072(15) 0.84668(13) 0.61047(15)
C127 C 0.51639(18) 0.84305(12) 0.56375(17)
H123 H 0.5167 0.8088 0.5586
C128 C 0.4235(3) 0.7939(3) 0.6549(3)
C129 C 0.51200(16) 0.99790(11) 0.58842(14)
C130 C 0.5277(3) 0.9883(2) 0.6361(2)
H124 H 0.5251 1.0235 0.6419
H125 H 0.5678 0.9794 0.6256
H126 H 0.5002 0.9559 0.6711
C131 C 0.44969(19) 1.0131(2) 0.6050(3)
H127 H 0.4480 1.0481 0.6110
H128 H 0.4219 0.9809 0.6400
H129 H 0.4393 1.0200 0.5746
C132 C 0.5549(2) 1.04923(14) 0.53426(19)
H130 H 0.5520 1.0839 0.5410
H131 H 0.5450 1.0562 0.5036
H132 H 0.5950 1.0405 0.5237
O45 O 0.2680(2) 0.64378(15) 0.82758(17)
O46 O 0.30525(16) 0.59927(16) 0.77007(15)
C133 C 0.26675(11) 0.60144(13) 0.81548(13)
H133 H 0.2413 0.5058 0.8148
C134 C 0.21435(18) 0.5020(3) 0.85044(16)
C135 C 0.1766(2) 0.4513(2) 0.8939(3)
C136 C 0.22936(13) 0.54390(16) 0.8629(2)
C137 C 0.2066(3) 0.5351(2) 0.9189(3)
C138 C 0.1688(4) 0.4844(3) 0.96242(17)
C139 C 0.1538(3) 0.44252(19) 0.9499(2)
H134 H 0.2169 0.5637 0.9275
H135 H 0.1280 0.4079 0.9796
C140 C 0.1459(3) 0.4756(2) 1.02370(15)
C141 C 0.1974(4) 0.4795(5) 1.0362(4)
C142 C 0.1086(4) 0.5223(4) 1.0335(4)
C143 C 0.1079(4) 0.4160(3) 1.0652(3)
H136 H 0.1826 0.4739 1.0747
H137 H 0.2201 0.5174 1.0109
H138 H 0.2216 0.4508 1.0305
H139 H 0.0948 0.5163 1.0720
H140 H 0.0757 0.5187 1.0270
H141 H 0.1311 0.5603 1.0082
H142 H 0.0940 0.4111 1.1033
H143 H 0.1319 0.3870 1.0595
H144 H 0.0750 0.4121 1.0587
O47 O 0.11964(15) 0.36767(15) 0.91294(16)
O48 O 0.20083(17) 0.40864(16) 0.82933(14)
C144 C 0.16297(14) 0.40858(12) 0.87603(13)
Mo1A Mo 0.49839(3) 0.87740(2) 0.15766(2)
Mo2A Mo 0.49925(3) 0.80314(2) 0.22537(2)
Mo3A Mo 0.10187(3) 0.67373(2) 0.54428(2)
Mo4A Mo 0.17922(3) 0.63655(2) 0.53580(2)
Mo5A Mo 0.10767(3) 0.30411(2) 0.88892(2)
Mo6A Mo 0.18478(3) 0.34254(2) 0.81072(2)
Mo7A Mo 0.27507(3) 0.08668(2) 0.62293(2)
Mo8A Mo 0.31990(3) 0.16738(2) 0.59906(2)
Mo9A Mo 0.67115(3) 0.28157(2) 0.23865(2)
Mo10A Mo 0.63619(3) 0.32399(2) 0.29181(2)
Mo11A Mo 0.27951(3) 0.46478(2) 0.27477(2)
Mo12A Mo 0.32127(3) 0.47157(2) 0.32096(2)
O1A O 0.41427(19) 0.88570(16) 0.21152(17)
O2A O 0.41477(18) 0.80599(16) 0.28281(16)
O3A O 0.1484(2) 0.74909(17) 0.46850(17)
O4A O 0.23023(18) 0.70918(16) 0.45889(16)
O5A O 0.05116(18) 0.60171(17) 0.62265(17)
O6A O 0.1337(2) 0.56262(17) 0.61251(17)
O7A O 0.05504(18) 0.35448(17) 0.85374(17)
O8A O 0.1372(2) 0.39532(16) 0.77061(17)
O9A O 0.1544(2) 0.25105(17) 0.92925(17)
O10A O 0.23669(18) 0.29096(16) 0.84609(16)
O11A O 0.41707(19) 0.12764(16) 0.89875(16)
O12A O 0.41634(18) 0.20534(16) 0.82680(16)
O13A O 0.46352(19) 0.06772(15) 0.82495(16)
O14A O 0.46168(18) 0.14606(15) 0.75335(16)
O15A O 0.31007(18) 0.04309(15) 0.67963(16)
O16A O 0.35713(17) 0.12821(15) 0.65399(16)
O17A O 0.23852(18) 0.12637(15) 0.56740(16)
O18A O 0.28580(18) 0.21139(15) 0.54242(16)
O19A O 0.24408(18) 0.37778(16) 0.33256(17)
O20A O 0.28854(18) 0.38498(16) 0.38102(16)
O21A O 0.3122(2) 0.55212(17) 0.21471(17)
O22A O 0.35627(18) 0.55852(16) 0.26403(16)
O23A O 0.45952(19) 0.82621(16) 0.13710(16)
O24A O 0.46013(19) 0.74771(15) 0.20900(16)
O25A O 0.6121(2) 0.30941(19) 0.20436(18)
O26A O 0.5754(2) 0.35403(17) 0.26077(18)
O27A O 0.35370(19) 0.43699(17) 0.22610(16)
O28A O 0.39618(18) 0.44350(16) 0.27609(17)
O29A O 0.20330(19) 0.49141(17) 0.32043(18)
O30A O 0.24809(19) 0.49894(16) 0.36922(17)
O31A O 0.08617(19) 0.63742(18) 0.49836(17)
O32A O 0.1679(2) 0.59738(16) 0.48992(16)
O33A O 0.11245(19) 0.71320(17) 0.59012(17)
O34A O 0.19517(19) 0.67469(17) 0.58059(17)
O35A O 0.26529(18) 0.74695(17) 0.73227(18)
O36A O 0.3032(2) 0.70126(18) 0.67627(18)
O37A O 0.09159(18) 0.23787(16) 0.87022(17)
O38A O 0.17342(18) 0.27858(17) 0.78739(17)
O39A O 0.20219(18) 0.09367(17) 0.69052(17)
O40A O 0.24979(17) 0.17878(16) 0.66532(16)
O41A O 0.34552(19) 0.07550(16) 0.55705(16)
O42A O 0.39266(17) 0.16105(17) 0.53192(16)
O43A O 0.61386(19) 0.20457(16) 0.29967(17)
O44A O 0.57564(17) 0.24944(17) 0.35564(16)
C1A C 0.3894(3) 0.8476(3) 0.2631(3)
C2A C 0.32724(14) 0.84924(17) 0.30072(16)
C3A C 0.30017(19) 0.89678(14) 0.28333(15)
H1A H 0.3218 0.9296 0.2482
C4A C 0.24149(19) 0.89636(14) 0.31731(18)
C5A C 0.20988(15) 0.84840(18) 0.36869(16)
H2A H 0.1698 0.8481 0.3919
C6A C 0.23694(18) 0.80086(14) 0.38608(14)
C7A C 0.29562(18) 0.80128(13) 0.35209(17)
H3A H 0.3141 0.7688 0.3640
C8A C 0.2032(3) 0.7492(3) 0.4413(3)
C9A C 0.21277(19) 0.94963(15) 0.29763(19)
C10A C 0.1612(4) 0.9532(4) 0.3487(3)
H4A H 0.1429 0.9871 0.3354
H5A H 0.1321 0.9180 0.3697
H6A H 0.1755 0.9569 0.3735
C11A C 0.2575(3) 1.00513(15) 0.2651(5)
H7A H 0.2388 1.0387 0.2522
H8A H 0.2716 1.0087 0.2901
H9A H 0.2907 1.0034 0.2323
C12A C 0.1897(5) 0.9460(4) 0.2585(5)
H10A H 0.1717 0.9803 0.2460
H11A H 0.2224 0.9441 0.2254
H12A H 0.1604 0.9111 0.2790
C13A C 0.0799(4) 0.5615(3) 0.6404(3)
C14A C 0.04577(15) 0.51227(15) 0.69773(12)
C15A C -0.01484(15) 0.50622(15) 0.72837(15)
H13A H -0.0362 0.5326 0.7122
C16A C -0.04420(11) 0.46157(17) 0.78266(15)
C17A C -0.01296(16) 0.42296(15) 0.80632(12)
H14A H -0.0330 0.3924 0.8434
C18A C 0.04766(16) 0.42902(16) 0.77568(16)
C19A C 0.07702(11) 0.47367(18) 0.72138(15)
H15A H 0.1184 0.4778 0.7004
C20A C 0.0824(3) 0.3902(2) 0.8017(3)
C21A C -0.11098(12) 0.45755(15) 0.81465(13)
C22A C -0.14042(19) 0.4500(3) 0.7816(2)
H16A H -0.1831 0.4471 0.8027
H17A H -0.1258 0.4834 0.7444
H18A H -0.1313 0.4146 0.7766
C23A C -0.1262(2) 0.5129(2) 0.8224(2)
H19A H -0.1690 0.5098 0.8429
H20A H -0.1082 0.5179 0.8441
H21A H -0.1113 0.5463 0.7852
C24A C -0.13578(19) 0.4057(2) 0.87326(15)
H22A H -0.1785 0.4034 0.8931
H23A H -0.1266 0.3700 0.8689
H24A H -0.1181 0.4106 0.8953
C25A C 0.2087(4) 0.2542(3) 0.8986(3)
C26A C 0.24254(19) 0.21419(15) 0.92498(16)
C27A C 0.21511(15) 0.17700(18) 0.98251(15)
H25A H 0.1757 0.1789 1.0056
C28A C 0.24540(18) 0.13710(16) 1.00633(11)
C29A C 0.30312(18) 0.13438(15) 0.97262(16)
H26A H 0.3238 0.1071 0.9889
C30A C 0.33055(15) 0.17157(17) 0.91508(15)
C31A C 0.30026(19) 0.21148(15) 0.89127(11)
H27A H 0.3190 0.2369 0.8519
C32A C 0.3916(3) 0.1681(3) 0.8780(3)
C33A C 0.21281(18) 0.09580(17) 1.06965(11)
C34A C 0.1635(3) 0.0540(3) 1.0810(3)
H28A H 0.1434 0.0275 1.1215
H29A H 0.1353 0.0761 1.0697
H30A H 0.1802 0.0316 1.0591
C35A C 0.2552(3) 0.0603(4) 1.0894(2)
H31A H 0.2336 0.0335 1.1297
H32A H 0.2730 0.0383 1.0673
H33A H 0.2861 0.0865 1.0838
C36A C 0.1857(4) 0.1302(3) 1.10446(19)
H34A H 0.1647 0.1033 1.1448
H35A H 0.2169 0.1564 1.0984
H36A H 0.1582 0.1528 1.0925
C37A C 0.4497(3) 0.0911(3) 0.7845(3)
C38A C 0.41893(17) 0.05442(13) 0.77356(16)
C39A C 0.40842(17) -0.00544(14) 0.80463(14)
H37A H 0.4226 -0.0228 0.8318
C40A C 0.37714(17) -0.03986(9) 0.79593(14)
C41A C 0.35637(17) -0.01443(13) 0.75617(15)
H38A H 0.3350 -0.0380 0.7502
C42A C 0.36687(18) 0.04543(14) 0.72510(14)
C43A C 0.39816(18) 0.07986(9) 0.73380(15)
H39A H 0.4053 0.1208 0.7126
C44A C 0.3433(3) 0.0741(3) 0.6833(2)
C45A C 0.36346(16) -0.10607(10) 0.82930(13)
C46A C 0.3863(3) -0.13454(17) 0.7886(2)
H40A H 0.3772 -0.1768 0.8104
H41A H 0.3673 -0.1222 0.7639
H42A H 0.4289 -0.1229 0.7655
C47A C 0.29698(16) -0.12574(19) 0.8657(2)
H43A H 0.2888 -0.1681 0.8865
H44A H 0.2820 -0.1087 0.8926
H45A H 0.2777 -0.1131 0.8412
C48A C 0.3928(3) -0.12681(17) 0.8683(2)
H46A H 0.3840 -0.1691 0.8891
H47A H 0.4354 -0.1148 0.8455
H48A H 0.3778 -0.1097 0.8952
C49A C 0.2537(3) 0.1808(3) 0.5374(3)
C50A C 0.23096(18) 0.20950(15) 0.49462(15)
C51A C 0.19295(18) 0.17756(11) 0.49008(15)
H49A H 0.1794 0.1377 0.5154
C52A C 0.17480(16) 0.20400(15) 0.44842(17)
C53A C 0.19466(18) 0.26238(15) 0.41131(15)
H50A H 0.1823 0.2804 0.3828
C54A C 0.23267(18) 0.29432(11) 0.41585(15)
C55A C 0.25082(16) 0.26788(14) 0.45750(17)
H51A H 0.2768 0.2897 0.4606
C56A C 0.2566(3) 0.3563(3) 0.3735(3)
C57A C 0.13589(17) 0.16681(15) 0.44215(17)
C58A C 0.1106(3) 0.2054(3) 0.4030(3)
H52A H 0.0862 0.1810 0.3991
H53A H 0.0867 0.2303 0.4191
H54A H 0.1429 0.2295 0.3656
C59A C 0.1718(3) 0.1272(3) 0.4169(3)
H55A H 0.1465 0.1037 0.4130
H56A H 0.2043 0.1508 0.3795
H57A H 0.1875 0.1016 0.4420
C60A C 0.0848(2) 0.1290(3) 0.5000(2)
H58A H 0.0605 0.1053 0.4954
H59A H 0.1004 0.1036 0.5254
H60A H 0.0609 0.1538 0.5163
C61A C 0.3428(3) 0.5807(3) 0.2226(3)
C62A C 0.36529(19) 0.64346(12) 0.18301(15)
C63A C 0.35342(19) 0.66878(15) 0.13697(17)
H61A H 0.3324 0.6459 0.1301
C64A C 0.3723(2) 0.72753(16) 0.10103(14)
C65A C 0.4030(2) 0.76097(12) 0.11113(15)
H62A H 0.4158 0.8011 0.0866
C66A C 0.41484(19) 0.73565(15) 0.15716(17)
C67A C 0.39600(19) 0.67690(16) 0.19310(13)
H63A H 0.4041 0.6596 0.2246
C68A C 0.4470(3) 0.7711(3) 0.1682(3)
C69A C 0.36483(19) 0.75737(15) 0.04702(14)
C70A C 0.3302(4) 0.8077(3) 0.0485(3)
H64A H 0.3258 0.8263 0.0138
H65A H 0.2913 0.7930 0.0815
H66A H 0.3514 0.8361 0.0512
C71A C 0.3318(4) 0.7142(3) 0.0414(3)
H67A H 0.3274 0.7338 0.0068
H68A H 0.3539 0.6822 0.0397
H69A H 0.2928 0.6990 0.0743
C72A C 0.4251(2) 0.7814(3) -0.00532(15)
H70A H 0.4198 0.8002 -0.0395
H71A H 0.4465 0.8096 -0.0027
H72A H 0.4475 0.7495 -0.0072
C73A C 0.5761(4) 0.3400(4) 0.2239(4)
C74A C 0.5317(2) 0.3603(2) 0.2023(2)
C75A C 0.53294(19) 0.3487(2) 0.1595(2)
H73A H 0.5632 0.3300 0.1423
C76A C 0.4898(2) 0.3644(2) 0.14174(16)
C77A C 0.44555(19) 0.3917(2) 0.1669(2)
H74A H 0.4161 0.4025 0.1547
C78A C 0.4444(2) 0.4034(2) 0.2097(2)
C79A C 0.4875(2) 0.3877(2) 0.22746(17)
H75A H 0.4866 0.3957 0.2568
C80A C 0.3952(4) 0.4294(4) 0.2387(3)
C81A C 0.49310(19) 0.35047(19) 0.09432(15)
C82A C 0.5513(3) 0.3806(4) 0.0406(2)
H76A H 0.5521 0.3729 0.0102
H77A H 0.5550 0.4225 0.0291
H78A H 0.5840 0.3657 0.0483
C83A C 0.4424(3) 0.3712(4) 0.0804(3)
H79A H 0.4456 0.3629 0.0495
H80A H 0.4049 0.3510 0.1140
H81A H 0.4443 0.4130 0.0688
C84A C 0.4892(5) 0.2849(2) 0.1127(3)
H82A H 0.4904 0.2765 0.0824
H83A H 0.5224 0.2714 0.1201
H84A H 0.4523 0.2650 0.1472
C85A C 0.2053(3) 0.5045(3) 0.3573(3)
C86A C 0.15462(16) 0.53140(17) 0.38715(17)
C87A C 0.10541(19) 0.53659(17) 0.37795(16)
H85A H 0.1017 0.5208 0.3551
C88A C 0.06162(14) 0.56495(18) 0.40214(17)
C89A C 0.06703(16) 0.58812(17) 0.43554(17)
H86A H 0.0371 0.6075 0.4521
C90A C 0.1162(2) 0.58292(17) 0.44474(16)
C91A C 0.16004(15) 0.55457(18) 0.42055(18)
H87A H 0.1937 0.5510 0.4268
C92A C 0.1232(3) 0.6077(3) 0.4805(3)
C93A C 0.00733(13) 0.56796(16) 0.39220(15)
C94A C 0.0237(2) 0.6081(3) 0.33015(17)
H88A H -0.0114 0.6098 0.3244
H89A H 0.0395 0.6470 0.3208
H90A H 0.0533 0.5931 0.3056
C95A C -0.0180(2) 0.50753(19) 0.4062(3)
H91A H -0.0526 0.5101 0.3996
H92A H 0.0117 0.4923 0.3818
H93A H -0.0293 0.4816 0.4460
C96A C -0.04016(19) 0.5914(3) 0.4299(2)
H94A H -0.0744 0.5933 0.4230
H95A H -0.0517 0.5655 0.4698
H96A H -0.0247 0.6302 0.4212
C97A C 0.1569(3) 0.7049(3) 0.5994(3)
C98A C 0.1655(2) 0.73162(17) 0.63251(16)
C99A C 0.12703(16) 0.76771(18) 0.64959(19)
H97A H 0.0959 0.7756 0.6396
C100A C 0.13417(17) 0.79222(16) 0.68132(19)
C101A C 0.1797(2) 0.78064(18) 0.69597(18)
H98A H 0.1846 0.7974 0.7177
C102A C 0.21817(16) 0.74454(18) 0.67889(19)
C103A C 0.21104(17) 0.72003(16) 0.64716(17)
H99A H 0.2373 0.6954 0.6355
C104A C 0.2652(3) 0.7302(3) 0.6973(3)
C105A C 0.09471(18) 0.83509(17) 0.6976(2)
C106A C 0.03001(16) 0.8071(3) 0.7310(5)
H100A H 0.0053 0.8347 0.7416
H101A H 0.0192 0.7964 0.7074
H102A H 0.0241 0.7724 0.7652
C107A C 0.1030(5) 0.8894(3) 0.6444(3)
H103A H 0.0779 0.9166 0.6555
H104A H 0.1441 0.9078 0.6228
H105A H 0.0921 0.8785 0.6209
C108A C 0.1101(4) 0.8533(4) 0.7346(5)
H106A H 0.0846 0.8806 0.7448
H107A H 0.1043 0.8190 0.7692
H108A H 0.1512 0.8719 0.7136
C109A C 0.1292(3) 0.2392(3) 0.8234(3)
C110A C 0.12071(18) 0.19118(14) 0.80864(17)
C111A C 0.07090(16) 0.14915(17) 0.84412(14)
H109A H 0.0412 0.1512 0.8771
C112A C 0.06452(14) 0.10415(15) 0.83137(16)
C113A C 0.10796(18) 0.10117(15) 0.78314(18)
H110A H 0.1036 0.0704 0.7744
C114A C 0.15777(16) 0.14319(17) 0.74767(14)
C115A C 0.16415(14) 0.18820(14) 0.76041(16)
H111A H 0.1982 0.2169 0.7362
C116A C 0.2062(3) 0.1381(3) 0.6980(3)
C117A C 0.00805(15) 0.05967(16) 0.86946(19)
C118A C -0.0009(4) 0.0302(5) 0.93066(19)
H112A H -0.0372 0.0021 0.9546
H113A H 0.0324 0.0101 0.9319
H114A H -0.0036 0.0595 0.9446
C119A C -0.04524(17) 0.0894(3) 0.8688(5)
H115A H -0.0809 0.0605 0.8929
H116A H -0.0487 0.1185 0.8832
H117A H -0.0402 0.1084 0.8299
C120A C 0.0115(4) 0.0130(4) 0.8488(4)
H118A H -0.0252 -0.0146 0.8730
H119A H 0.0174 0.0313 0.8096
H120A H 0.0444 -0.0074 0.8505
C121A C 0.3895(3) 0.1155(3) 0.5247(3)
C122A C 0.43836(16) 0.11051(16) 0.47545(14)
C123A C 0.43878(15) 0.06045(13) 0.46793(14)
H121A H 0.4079 0.0287 0.4947
C124A C 0.48445(18) 0.05682(12) 0.42120(16)
C125A C 0.52970(15) 0.10326(16) 0.38201(13)
H122A H 0.5609 0.1008 0.3501
C126A C 0.52928(15) 0.15332(13) 0.38953(15)
C127A C 0.48361(18) 0.15695(12) 0.43625(17)
H123A H 0.4833 0.1912 0.4414
C128A C 0.5765(3) 0.2061(3) 0.3451(3)
C129A C 0.48800(16) 0.00210(11) 0.41158(14)
C130A C 0.4723(3) 0.0117(2) 0.3639(2)
H124A H 0.4749 -0.0235 0.3581
H125A H 0.4322 0.0206 0.3744
H126A H 0.4998 0.0441 0.3289
C131A C 0.55031(19) -0.0131(2) 0.3950(3)
H127A H 0.5520 -0.0481 0.3890
H128A H 0.5781 0.0191 0.3600
H129A H 0.5607 -0.0200 0.4254
C132A C 0.4451(2) -0.04923(14) 0.46574(19)
H130A H 0.4480 -0.0839 0.4590
H131A H 0.4550 -0.0562 0.4964
H132A H 0.4050 -0.0405 0.4763
O45A O 0.7320(2) 0.35622(15) 0.17242(17)
O46A O 0.69475(16) 0.40073(16) 0.22993(15)
C133A C 0.73325(11) 0.39856(13) 0.18452(13)
H133A H 0.7587 0.4942 0.1852
C134A C 0.78565(18) 0.4980(3) 0.14956(16)
C135A C 0.8234(2) 0.5487(2) 0.1061(3)
C136A C 0.77064(13) 0.45610(16) 0.1371(2)
C137A C 0.7934(3) 0.4649(2) 0.0811(3)
C138A C 0.8312(4) 0.5156(3) 0.03758(17)
C139A C 0.8462(3) 0.55748(19) 0.0501(2)
H134A H 0.7831 0.4363 0.0725
H135A H 0.8720 0.5921 0.0204
C140A C 0.8541(3) 0.5244(2) -0.02370(15)
C141A C 0.8026(4) 0.5205(5) -0.0362(4)
C142A C 0.8914(4) 0.4777(4) -0.0335(4)
C143A C 0.8921(4) 0.5840(3) -0.0652(3)
H136A H 0.8174 0.5261 -0.0747
H137A H 0.7799 0.4826 -0.0109
H138A H 0.7784 0.5492 -0.0305
H139A H 0.9052 0.4837 -0.0720
H140A H 0.9243 0.4813 -0.0270
H141A H 0.8689 0.4397 -0.0082
H142A H 0.9060 0.5889 -0.1033
H143A H 0.8681 0.6130 -0.0595
H144A H 0.9250 0.5879 -0.0587
O47A O 0.88036(15) 0.63233(15) 0.08706(16)
O48A O 0.79917(17) 0.59136(16) 0.17067(14)
C144A C 0.83703(14) 0.59142(12) 0.12397(13)
loop_
_geom_bond_atom_site_label_1
_geom_bond_atom_site_label_2
_geom_bond_site_symmetry_1
_geom_bond_site_symmetry_2
Mo1 Mo2 1_555 1_555
Mo2 O2 1_555 1_555
Mo3 Mo4 1_555 1_555
Mo4 O4 1_555 1_555
Mo5 Mo6 1_555 1_555
Mo6 O8 1_555 1_555
Mo7 Mo8 1_555 1_555
Mo8 O16 1_555 1_555
Mo9 Mo10 1_555 1_555
Mo10 O26 1_555 1_555
Mo11 Mo12 1_555 1_555
Mo12 O20 1_555 1_555
O1 Mo1 1_555 1_555
O2 C1 1_555 1_555
O3 Mo3 1_555 1_555
O4 C8 1_555 1_555
O5 Mo3 1_555 1_555
O6 Mo4 1_555 1_555
O7 Mo5 1_555 1_555
O8 C20 1_555 1_555
O9 Mo5 1_555 1_555
O10 Mo6 1_555 1_555
O11 C32 1_555 1_555
O12 C32 1_555 1_555
O13 C37 1_555 1_555
O14 C37 1_555 1_555
O15 Mo7 1_555 1_555
O16 C44 1_555 1_555
O17 Mo7 1_555 1_555
O18 Mo8 1_555 1_555
O19 Mo11 1_555 1_555
O20 C56 1_555 1_555
O21 Mo11 1_555 1_555
O22 Mo12 1_555 1_555
O23 Mo1 1_555 1_555
O24 Mo2 1_555 1_555
O25 Mo9 1_555 1_555
O26 C73 1_555 1_555
O27 Mo11 1_555 1_555
O28 Mo12 1_555 1_555
O29 Mo11 1_555 1_555
O30 Mo12 1_555 1_555
O31 Mo3 1_555 1_555
O32 Mo4 1_555 1_555
O33 Mo3 1_555 1_555
O34 Mo4 1_555 1_555
O35 C104 1_555 1_555
O36 C104 1_555 1_555
O37 Mo5 1_555 1_555
O38 Mo6 1_555 1_555
O39 Mo7 1_555 1_555
O40 Mo8 1_555 1_555
O41 Mo7 1_555 1_555
O42 Mo8 1_555 1_555
O43 Mo9 1_555 1_555
O44 Mo10 1_555 1_555
C1 O1 1_555 1_555
C2 C1 1_555 1_555
C3 C2 1_555 1_555
H1 C3 1_555 1_555
C4 C3 1_555 1_555
C5 C4 1_555 1_555
H2 C5 1_555 1_555
C6 C5 1_555 1_555
C7 C2 1_555 1_555
H3 C7 1_555 1_555
C8 O3 1_555 1_555
C9 C4 1_555 1_555
C10 C9 1_555 1_555
H4 C10 1_555 1_555
H5 C10 1_555 1_555
H6 C10 1_555 1_555
C11 C9 1_555 1_555
H7 C11 1_555 1_555
H8 C11 1_555 1_555
H9 C11 1_555 1_555
C12 C9 1_555 1_555
H10 C12 1_555 1_555
H11 C12 1_555 1_555
H12 C12 1_555 1_555
C13 O5 1_555 1_555
C14 C13 1_555 1_555
C15 C14 1_555 1_555
H13 C15 1_555 1_555
C16 C15 1_555 1_555
C17 C16 1_555 1_555
H14 C17 1_555 1_555
C18 C17 1_555 1_555
C19 C14 1_555 1_555
H15 C19 1_555 1_555
C20 O7 1_555 1_555
C21 C16 1_555 1_555
C22 C21 1_555 1_555
H16 C22 1_555 1_555
H17 C22 1_555 1_555
H18 C22 1_555 1_555
C23 C21 1_555 1_555
H19 C23 1_555 1_555
H20 C23 1_555 1_555
H21 C23 1_555 1_555
C24 C21 1_555 1_555
H22 C24 1_555 1_555
H23 C24 1_555 1_555
H24 C24 1_555 1_555
C25 O9 1_555 1_555
C26 C25 1_555 1_555
C27 C26 1_555 1_555
H25 C27 1_555 1_555
C28 C27 1_555 1_555
C29 C28 1_555 1_555
H26 C29 1_555 1_555
C30 C29 1_555 1_555
C31 C26 1_555 1_555
H27 C31 1_555 1_555
C32 C30 1_555 1_555
C33 C28 1_555 1_555
C34 C33 1_555 1_555
H28 C34 1_555 1_555
H29 C34 1_555 1_555
H30 C34 1_555 1_555
C35 C33 1_555 1_555
H31 C35 1_555 1_555
H32 C35 1_555 1_555
H33 C35 1_555 1_555
C36 C33 1_555 1_555
H34 C36 1_555 1_555
H35 C36 1_555 1_555
H36 C36 1_555 1_555
C37 C38 1_555 1_555
C38 C39 1_555 1_555
C39 H37 1_555 1_555
C40 C39 1_555 1_555
C41 C40 1_555 1_555
H38 C41 1_555 1_555
C42 C41 1_555 1_555
C43 C38 1_555 1_555
H39 C43 1_555 1_555
C44 O15 1_555 1_555
C45 C40 1_555 1_555
C46 C45 1_555 1_555
H40 C46 1_555 1_555
H41 C46 1_555 1_555
H42 C46 1_555 1_555
C47 C45 1_555 1_555
H43 C47 1_555 1_555
H44 C47 1_555 1_555
H45 C47 1_555 1_555
C48 C45 1_555 1_555
H46 C48 1_555 1_555
H47 C48 1_555 1_555
H48 C48 1_555 1_555
C49 O17 1_555 1_555
C50 C49 1_555 1_555
C51 C50 1_555 1_555
H49 C51 1_555 1_555
C52 C51 1_555 1_555
C53 C52 1_555 1_555
H50 C53 1_555 1_555
C54 C53 1_555 1_555
C55 C50 1_555 1_555
H51 C55 1_555 1_555
C56 O19 1_555 1_555
C57 C52 1_555 1_555
C58 C57 1_555 1_555
H52 C58 1_555 1_555
H53 C58 1_555 1_555
H54 C58 1_555 1_555
C59 C57 1_555 1_555
H55 C59 1_555 1_555
H56 C59 1_555 1_555
H57 C59 1_555 1_555
C60 C57 1_555 1_555
H58 C60 1_555 1_555
H59 C60 1_555 1_555
H60 C60 1_555 1_555
C61 O21 1_555 1_555
C62 C61 1_555 1_555
C63 C62 1_555 1_555
H61 C63 1_555 1_555
C64 C63 1_555 1_555
C65 C64 1_555 1_555
H62 C65 1_555 1_555
C66 C65 1_555 1_555
C67 C62 1_555 1_555
H63 C67 1_555 1_555
C68 O23 1_555 1_555
C69 C64 1_555 1_555
C70 C69 1_555 1_555
H64 C70 1_555 1_555
H65 C70 1_555 1_555
H66 C70 1_555 1_555
C71 C69 1_555 1_555
H67 C71 1_555 1_555
H68 C71 1_555 1_555
H69 C71 1_555 1_555
C72 C69 1_555 1_555
H70 C72 1_555 1_555
H71 C72 1_555 1_555
H72 C72 1_555 1_555
C73 O25 1_555 1_555
C74 C73 1_555 1_555
C75 C74 1_555 1_555
H73 C75 1_555 1_555
C76 C75 1_555 1_555
C77 C76 1_555 1_555
H74 C77 1_555 1_555
C78 C77 1_555 1_555
C79 C74 1_555 1_555
H75 C79 1_555 1_555
C80 O27 1_555 1_555
C81 C76 1_555 1_555
C82 C81 1_555 1_555
H76 C82 1_555 1_555
H77 C82 1_555 1_555
H78 C82 1_555 1_555
C83 C81 1_555 1_555
H79 C83 1_555 1_555
H80 C83 1_555 1_555
H81 C83 1_555 1_555
C84 C81 1_555 1_555
H82 C84 1_555 1_555
H83 C84 1_555 1_555
H84 C84 1_555 1_555
C85 O29 1_555 1_555
C86 C85 1_555 1_555
C87 C86 1_555 1_555
H85 C87 1_555 1_555
C88 C87 1_555 1_555
C89 C88 1_555 1_555
H86 C89 1_555 1_555
C90 C89 1_555 1_555
C91 C86 1_555 1_555
H87 C91 1_555 1_555
C92 O31 1_555 1_555
C93 C88 1_555 1_555
C94 C93 1_555 1_555
H88 C94 1_555 1_555
H89 C94 1_555 1_555
H90 C94 1_555 1_555
C95 C93 1_555 1_555
H91 C95 1_555 1_555
H92 C95 1_555 1_555
H93 C95 1_555 1_555
C96 C93 1_555 1_555
H94 C96 1_555 1_555
H95 C96 1_555 1_555
H96 C96 1_555 1_555
C97 O33 1_555 1_555
C98 C97 1_555 1_555
C99 C98 1_555 1_555
H97 C99 1_555 1_555
C100 C99 1_555 1_555
C101 C100 1_555 1_555
H98 C101 1_555 1_555
C102 C101 1_555 1_555
C103 C98 1_555 1_555
H99 C103 1_555 1_555
C104 C102 1_555 1_555
C105 C100 1_555 1_555
C106 C105 1_555 1_555
H100 C106 1_555 1_555
H101 C106 1_555 1_555
H102 C106 1_555 1_555
C107 C105 1_555 1_555
H103 C107 1_555 1_555
H104 C107 1_555 1_555
H105 C107 1_555 1_555
C108 C105 1_555 1_555
H106 C108 1_555 1_555
H107 C108 1_555 1_555
H108 C108 1_555 1_555
C109 O37 1_555 1_555
C110 C109 1_555 1_555
C111 C110 1_555 1_555
H109 C111 1_555 1_555
C112 C111 1_555 1_555
C113 C112 1_555 1_555
H110 C113 1_555 1_555
C114 C113 1_555 1_555
C115 C110 1_555 1_555
H111 C115 1_555 1_555
C116 O39 1_555 1_555
C117 C112 1_555 1_555
C118 C117 1_555 1_555
H112 C118 1_555 1_555
H113 C118 1_555 1_555
H114 C118 1_555 1_555
C119 C117 1_555 1_555
H115 C119 1_555 1_555
H116 C119 1_555 1_555
H117 C119 1_555 1_555
C120 C117 1_555 1_555
H118 C120 1_555 1_555
H119 C120 1_555 1_555
H120 C120 1_555 1_555
C121 O41 1_555 1_555
C122 C121 1_555 1_555
C123 C122 1_555 1_555
H121 C123 1_555 1_555
C124 C123 1_555 1_555
C125 C124 1_555 1_555
H122 C125 1_555 1_555
C126 C125 1_555 1_555
C127 C122 1_555 1_555
H123 C127 1_555 1_555
C128 O43 1_555 1_555
C129 C124 1_555 1_555
C130 C129 1_555 1_555
H124 C130 1_555 1_555
H125 C130 1_555 1_555
H126 C130 1_555 1_555
C131 C129 1_555 1_555
H127 C131 1_555 1_555
H128 C131 1_555 1_555
H129 C131 1_555 1_555
C132 C129 1_555 1_555
H130 C132 1_555 1_555
H131 C132 1_555 1_555
H132 C132 1_555 1_555
O45 Mo9 1_555 1_555
O46 Mo10 1_555 1_555
C133 O45 1_555 1_555
H133 C134 1_555 1_555
C134 C135 1_555 1_555
C135 C139 1_555 1_555
C136 C133 1_555 1_555
C137 C136 1_555 1_555
C138 C137 1_555 1_555
C139 C138 1_555 1_555
H134 C137 1_555 1_555
H135 C139 1_555 1_555
C140 C138 1_555 1_555
C141 C140 1_555 1_555
C142 C140 1_555 1_555
C143 C140 1_555 1_555
H136 C141 1_555 1_555
H137 C141 1_555 1_555
H138 C141 1_555 1_555
H139 C142 1_555 1_555
H140 C142 1_555 1_555
H141 C142 1_555 1_555
H142 C143 1_555 1_555
H143 C143 1_555 1_555
H144 C143 1_555 1_555
O47 C144 1_555 1_555
O48 C144 1_555 1_555
C144 C135 1_555 1_555
Mo1A O11 1_555 1_555
Mo2A O12 1_555 1_555
Mo3A Mo4A 1_555 1_555
Mo4A O4A 1_555 1_555
Mo5A O47 1_555 1_555
Mo6A O48 1_555 1_555
Mo7A Mo8A 1_555 1_555
Mo8A O16A 1_555 1_555
Mo9A O35 1_555 1_555
Mo10A O36 1_555 1_555
Mo11A Mo12A 1_555 1_555
Mo12A O20A 1_555 1_555
O1A Mo1A 1_555 1_555
O2A Mo2A 1_555 1_555
O3A Mo3A 1_555 1_555
O4A C8A 1_555 1_555
O5A Mo3A 1_555 1_555
O6A Mo4A 1_555 1_555
O7A Mo5A 1_555 1_555
O8A Mo6A 1_555 1_555
O9A Mo5A 1_555 1_555
O10A Mo6A 1_555 1_555
O11A Mo1 1_555 1_555
O12A Mo2 1_555 1_555
O13A Mo1 1_555 1_555
O14A Mo2 1_555 1_555
O15A Mo7A 1_555 1_555
O16A C44A 1_555 1_555
O17A Mo7A 1_555 1_555
O18A Mo8A 1_555 1_555
O19A Mo11A 1_555 1_555
O20A C56A 1_555 1_555
O21A Mo11A 1_555 1_555
O22A Mo12A 1_555 1_555
O23A Mo1A 1_555 1_555
O24A Mo2A 1_555 1_555
O25A Mo9A 1_555 1_555
O26A Mo10A 1_555 1_555
O27A Mo11A 1_555 1_555
O28A Mo12A 1_555 1_555
O29A Mo11A 1_555 1_555
O30A Mo12A 1_555 1_555
O31A Mo3A 1_555 1_555
O32A Mo4A 1_555 1_555
O33A Mo3A 1_555 1_555
O34A Mo4A 1_555 1_555
O35A Mo9 1_555 1_555
O36A Mo10 1_555 1_555
O37A Mo5A 1_555 1_555
O38A Mo6A 1_555 1_555
O39A Mo7A 1_555 1_555
O40A Mo8A 1_555 1_555
O41A Mo7A 1_555 1_555
O42A Mo8A 1_555 1_555
O43A Mo9A 1_555 1_555
O44A Mo10A 1_555 1_555
C1A O1A 1_555 1_555
C2A C1A 1_555 1_555
C3A C2A 1_555 1_555
H1A C3A 1_555 1_555
C4A C3A 1_555 1_555
C5A C4A 1_555 1_555
H2A C5A 1_555 1_555
C6A C5A 1_555 1_555
C7A C2A 1_555 1_555
H3A C7A 1_555 1_555
C8A O3A 1_555 1_555
C9A C4A 1_555 1_555
C10A C9A 1_555 1_555
H4A C10A 1_555 1_555
H5A C10A 1_555 1_555
H6A C10A 1_555 1_555
C11A C9A 1_555 1_555
H7A C11A 1_555 1_555
H8A C11A 1_555 1_555
H9A C11A 1_555 1_555
C12A C9A 1_555 1_555
H10A C12A 1_555 1_555
H11A C12A 1_555 1_555
H12A C12A 1_555 1_555
C13A O5A 1_555 1_555
C14A C13A 1_555 1_555
C15A C14A 1_555 1_555
H13A C15A 1_555 1_555
C16A C15A 1_555 1_555
C17A C16A 1_555 1_555
H14A C17A 1_555 1_555
C18A C17A 1_555 1_555
C19A C14A 1_555 1_555
H15A C19A 1_555 1_555
C20A O7A 1_555 1_555
C21A C16A 1_555 1_555
C22A C21A 1_555 1_555
H16A C22A 1_555 1_555
H17A C22A 1_555 1_555
H18A C22A 1_555 1_555
C23A C21A 1_555 1_555
H19A C23A 1_555 1_555
H20A C23A 1_555 1_555
H21A C23A 1_555 1_555
C24A C21A 1_555 1_555
H22A C24A 1_555 1_555
H23A C24A 1_555 1_555
H24A C24A 1_555 1_555
C25A O9A 1_555 1_555
C26A C25A 1_555 1_555
C27A C26A 1_555 1_555
H25A C27A 1_555 1_555
C28A C27A 1_555 1_555
C29A C28A 1_555 1_555
H26A C29A 1_555 1_555
C30A C29A 1_555 1_555
C31A C26A 1_555 1_555
H27A C31A 1_555 1_555
C32A O11A 1_555 1_555
C33A C28A 1_555 1_555
C34A C33A 1_555 1_555
H28A C34A 1_555 1_555
H29A C34A 1_555 1_555
H30A C34A 1_555 1_555
C35A C33A 1_555 1_555
H31A C35A 1_555 1_555
H32A C35A 1_555 1_555
H33A C35A 1_555 1_555
C36A C33A 1_555 1_555
H34A C36A 1_555 1_555
H35A C36A 1_555 1_555
H36A C36A 1_555 1_555
C37A O13A 1_555 1_555
C38A C37A 1_555 1_555
C39A C38A 1_555 1_555
H37A C39A 1_555 1_555
C40A C39A 1_555 1_555
C41A C40A 1_555 1_555
H38A C41A 1_555 1_555
C42A C41A 1_555 1_555
C43A C38A 1_555 1_555
H39A C43A 1_555 1_555
C44A O15A 1_555 1_555
C45A C40A 1_555 1_555
C46A C45A 1_555 1_555
H40A C46A 1_555 1_555
H41A C46A 1_555 1_555
H42A C46A 1_555 1_555
C47A C45A 1_555 1_555
H43A C47A 1_555 1_555
H44A C47A 1_555 1_555
H45A C47A 1_555 1_555
C48A C45A 1_555 1_555
H46A C48A 1_555 1_555
H47A C48A 1_555 1_555
H48A C48A 1_555 1_555
C49A O17A 1_555 1_555
C50A C49A 1_555 1_555
C51A C50A 1_555 1_555
H49A C51A 1_555 1_555
C52A C51A 1_555 1_555
C53A C52A 1_555 1_555
H50A C53A 1_555 1_555
C54A C53A 1_555 1_555
C55A C50A 1_555 1_555
H51A C55A 1_555 1_555
C56A O19A 1_555 1_555
C57A C52A 1_555 1_555
C58A C57A 1_555 1_555
H52A C58A 1_555 1_555
H53A C58A 1_555 1_555
H54A C58A 1_555 1_555
C59A C57A 1_555 1_555
H55A C59A 1_555 1_555
H56A C59A 1_555 1_555
H57A C59A 1_555 1_555
C60A C57A 1_555 1_555
H58A C60A 1_555 1_555
H59A C60A 1_555 1_555
H60A C60A 1_555 1_555
C61A O21A 1_555 1_555
C62A C61A 1_555 1_555
C63A C62A 1_555 1_555
H61A C63A 1_555 1_555
C64A C63A 1_555 1_555
C65A C64A 1_555 1_555
H62A C65A 1_555 1_555
C66A C65A 1_555 1_555
C67A C62A 1_555 1_555
H63A C67A 1_555 1_555
C68A O23A 1_555 1_555
C69A C64A 1_555 1_555
C70A C69A 1_555 1_555
H64A C70A 1_555 1_555
H65A C70A 1_555 1_555
H66A C70A 1_555 1_555
C71A C69A 1_555 1_555
H67A C71A 1_555 1_555
H68A C71A 1_555 1_555
H69A C71A 1_555 1_555
C72A C69A 1_555 1_555
H70A C72A 1_555 1_555
H71A C72A 1_555 1_555
H72A C72A 1_555 1_555
C73A O25A 1_555 1_555
C74A C73A 1_555 1_555
C75A C74A 1_555 1_555
H73A C75A 1_555 1_555
C76A C75A 1_555 1_555
C77A C76A 1_555 1_555
H74A C77A 1_555 1_555
C78A C77A 1_555 1_555
C79A C74A 1_555 1_555
H75A C79A 1_555 1_555
C80A O27A 1_555 1_555
C81A C76A 1_555 1_555
C82A C81A 1_555 1_555
H76A C82A 1_555 1_555
H77A C82A 1_555 1_555
H78A C82A 1_555 1_555
C83A C81A 1_555 1_555
H79A C83A 1_555 1_555
H80A C83A 1_555 1_555
H81A C83A 1_555 1_555
C84A C81A 1_555 1_555
H82A C84A 1_555 1_555
H83A C84A 1_555 1_555
H84A C84A 1_555 1_555
C85A O29A 1_555 1_555
C86A C85A 1_555 1_555
C87A C86A 1_555 1_555
H85A C87A 1_555 1_555
C88A C87A 1_555 1_555
C89A C88A 1_555 1_555
H86A C89A 1_555 1_555
C90A C89A 1_555 1_555
C91A C86A 1_555 1_555
H87A C91A 1_555 1_555
C92A O31A 1_555 1_555
C93A C88A 1_555 1_555
C94A C93A 1_555 1_555
H88A C94A 1_555 1_555
H89A C94A 1_555 1_555
H90A C94A 1_555 1_555
C95A C93A 1_555 1_555
H91A C95A 1_555 1_555
H92A C95A 1_555 1_555
H93A C95A 1_555 1_555
C96A C93A 1_555 1_555
H94A C96A 1_555 1_555
H95A C96A 1_555 1_555
H96A C96A 1_555 1_555
C97A O33A 1_555 1_555
C98A C97A 1_555 1_555
C99A C98A 1_555 1_555
H97A C99A 1_555 1_555
C100A C99A 1_555 1_555
C101A C100A 1_555 1_555
H98A C101A 1_555 1_555
C102A C101A 1_555 1_555
C103A C98A 1_555 1_555
H99A C103A 1_555 1_555
C104A O35A 1_555 1_555
C105A C100A 1_555 1_555
C106A C105A 1_555 1_555
H100A C106A 1_555 1_555
H101A C106A 1_555 1_555
H102A C106A 1_555 1_555
C107A C105A 1_555 1_555
H103A C107A 1_555 1_555
H104A C107A 1_555 1_555
H105A C107A 1_555 1_555
C108A C105A 1_555 1_555
H106A C108A 1_555 1_555
H107A C108A 1_555 1_555
H108A C108A 1_555 1_555
C109A O37A 1_555 1_555
C110A C109A 1_555 1_555
C111A C110A 1_555 1_555
H109A C111A 1_555 1_555
C112A C111A 1_555 1_555
C113A C112A 1_555 1_555
H110A C113A 1_555 1_555
C114A C113A 1_555 1_555
C115A C110A 1_555 1_555
H111A C115A 1_555 1_555
C116A O39A 1_555 1_555
C117A C112A 1_555 1_555
C118A C117A 1_555 1_555
H112A C118A 1_555 1_555
H113A C118A 1_555 1_555
H114A C118A 1_555 1_555
C119A C117A 1_555 1_555
H115A C119A 1_555 1_555
H116A C119A 1_555 1_555
H117A C119A 1_555 1_555
C120A C117A 1_555 1_555
H118A C120A 1_555 1_555
H119A C120A 1_555 1_555
H120A C120A 1_555 1_555
C121A O41A 1_555 1_555
C122A C121A 1_555 1_555
C123A C122A 1_555 1_555
H121A C123A 1_555 1_555
C124A C123A 1_555 1_555
C125A C124A 1_555 1_555
H122A C125A 1_555 1_555
C126A C125A 1_555 1_555
C127A C122A 1_555 1_555
H123A C127A 1_555 1_555
C128A O43A 1_555 1_555
C129A C124A 1_555 1_555
C130A C129A 1_555 1_555
H124A C130A 1_555 1_555
H125A C130A 1_555 1_555
H126A C130A 1_555 1_555
C131A C129A 1_555 1_555
H127A C131A 1_555 1_555
H128A C131A 1_555 1_555
H129A C131A 1_555 1_555
C132A C129A 1_555 1_555
H130A C132A 1_555 1_555
H131A C132A 1_555 1_555
H132A C132A 1_555 1_555
O45A Mo9A 1_555 1_555
O46A Mo10A 1_555 1_555
C133A O45A 1_555 1_555
H133A C134A 1_555 1_555
C134A C135A 1_555 1_555
C135A C139A 1_555 1_555
C136A C133A 1_555 1_555
C137A C136A 1_555 1_555
C138A C137A 1_555 1_555
C139A C138A 1_555 1_555
H134A C137A 1_555 1_555
H135A C139A 1_555 1_555
C140A C138A 1_555 1_555
C141A C140A 1_555 1_555
C142A C140A 1_555 1_555
C143A C140A 1_555 1_555
H136A C141A 1_555 1_555
H137A C141A 1_555 1_555
H138A C141A 1_555 1_555
H139A C142A 1_555 1_555
H140A C142A 1_555 1_555
H141A C142A 1_555 1_555
H142A C143A 1_555 1_555
H143A C143A 1_555 1_555
H144A C143A 1_555 1_555
O47A Mo5 1_555 1_555
O48A Mo6 1_555 1_555
C144A C135A 1_555 1_555
O6 C13 1_555 1_555
O10 C25 1_555 1_555
O13 Mo1A 1_555 1_555
O14 Mo2A 1_555 1_555
O18 C49 1_555 1_555
O22 C61 1_555 1_555
O24 C68 1_555 1_555
O28 C80 1_555 1_555
O30 C85 1_555 1_555
O32 C92 1_555 1_555
O34 C97 1_555 1_555
O38 C109 1_555 1_555
O40 C116 1_555 1_555
O42 C121 1_555 1_555
O44 C128 1_555 1_555
C6 C7 1_555 1_555
C6 C8 1_555 1_555
C18 C19 1_555 1_555
C18 C20 1_555 1_555
C30 C31 1_555 1_555
C42 C43 1_555 1_555
C42 C44 1_555 1_555
C54 C55 1_555 1_555
C54 C56 1_555 1_555
C66 C67 1_555 1_555
C66 C68 1_555 1_555
C78 C79 1_555 1_555
C78 C80 1_555 1_555
C90 C91 1_555 1_555
C90 C92 1_555 1_555
C102 C103 1_555 1_555
C114 C115 1_555 1_555
C114 C116 1_555 1_555
C126 C127 1_555 1_555
C126 C128 1_555 1_555
O46 C133 1_555 1_555
C134 C136 1_555 1_555
Mo1A Mo2A 1_555 1_555
Mo5A Mo6A 1_555 1_555
Mo9A Mo10A 1_555 1_555
O2A C1A 1_555 1_555
O6A C13A 1_555 1_555
O8A C20A 1_555 1_555
O10A C25A 1_555 1_555
O12A C32A 1_555 1_555
O14A C37A 1_555 1_555
O18A C49A 1_555 1_555
O22A C61A 1_555 1_555
O24A C68A 1_555 1_555
O26A C73A 1_555 1_555
O28A C80A 1_555 1_555
O30A C85A 1_555 1_555
O32A C92A 1_555 1_555
O34A C97A 1_555 1_555
O36A C104A 1_555 1_555
O38A C109A 1_555 1_555
O40A C116A 1_555 1_555
O42A C121A 1_555 1_555
O44A C128A 1_555 1_555
C6A C7A 1_555 1_555
C6A C8A 1_555 1_555
C18A C19A 1_555 1_555
C18A C20A 1_555 1_555
C30A C31A 1_555 1_555
C30A C32A 1_555 1_555
C42A C43A 1_555 1_555
C42A C44A 1_555 1_555
C54A C55A 1_555 1_555
C54A C56A 1_555 1_555
C66A C67A 1_555 1_555
C66A C68A 1_555 1_555
C78A C79A 1_555 1_555
C78A C80A 1_555 1_555
C90A C91A 1_555 1_555
C90A C92A 1_555 1_555
C102A C103A 1_555 1_555
C102A C104A 1_555 1_555
C114A C115A 1_555 1_555
C114A C116A 1_555 1_555
C126A C127A 1_555 1_555
C126A C128A 1_555 1_555
O46A C133A 1_555 1_555
C134A C136A 1_555 1_555
O47A C144A 1_555 1_555
O48A C144A 1_555 1_555

#END
