# generated using pymatgen
data_Mo2H21(C3O)14
_symmetry_space_group_name_H-M   'P 1'
_cell_length_a   33.05200000
_cell_length_b   33.05200000
_cell_length_c   33.83300000
_cell_angle_alpha   90.00000000
_cell_angle_beta   90.00000000
_cell_angle_gamma   120.00000000
_symmetry_Int_Tables_number   1
_chemical_formula_structural   Mo2H21(C3O)14
_chemical_formula_sum   'Mo48 H504 C1008 O336'
_cell_volume   32008.59626541
_cell_formula_units_Z   24
loop_
 _symmetry_equiv_pos_site_id
 _symmetry_equiv_pos_as_xyz
  1  'x, y, z'
loop_
 _atom_site_type_symbol
 _atom_site_label
 _atom_site_symmetry_multiplicity
 _atom_site_fract_x
 _atom_site_fract_y
 _atom_site_fract_z
 _atom_site_occupancy
  Mo  Mo1  1  0.390540  0.364430  0.750000  1.0
  Mo  Mo2  1  0.973890  0.609460  0.750000  1.0
  Mo  Mo3  1  0.635570  0.026110  0.750000  1.0
  Mo  Mo4  1  0.609460  0.635570  0.250000  1.0
  Mo  Mo5  1  0.026110  0.390540  0.250000  1.0
  Mo  Mo6  1  0.364430  0.973890  0.250000  1.0
  Mo  Mo7  1  0.401900  0.306380  0.750000  1.0
  Mo  Mo8  1  0.904480  0.598100  0.750000  1.0
  Mo  Mo9  1  0.693620  0.095520  0.750000  1.0
  Mo  Mo10  1  0.598100  0.693620  0.250000  1.0
  Mo  Mo11  1  0.095520  0.401900  0.250000  1.0
  Mo  Mo12  1  0.306380  0.904480  0.250000  1.0
  Mo  Mo13  1  0.033240  0.307900  0.750000  1.0
  Mo  Mo14  1  0.274660  0.966760  0.750000  1.0
  Mo  Mo15  1  0.692100  0.725340  0.750000  1.0
  Mo  Mo16  1  0.966760  0.692100  0.250000  1.0
  Mo  Mo17  1  0.725340  0.033240  0.250000  1.0
  Mo  Mo18  1  0.307900  0.274660  0.250000  1.0
  Mo  Mo19  1  0.974680  0.238590  0.750000  1.0
  Mo  Mo20  1  0.263910  0.025320  0.750000  1.0
  Mo  Mo21  1  0.761410  0.736090  0.750000  1.0
  Mo  Mo22  1  0.025320  0.761410  0.250000  1.0
  Mo  Mo23  1  0.736090  0.974680  0.250000  1.0
  Mo  Mo24  1  0.238590  0.263910  0.250000  1.0
  Mo  Mo25  1  0.254820  0.448390  0.010675  1.0
  Mo  Mo26  1  0.193570  0.745180  0.010675  1.0
  Mo  Mo27  1  0.551610  0.806430  0.010675  1.0
  Mo  Mo28  1  0.745180  0.551610  0.510675  1.0
  Mo  Mo29  1  0.806430  0.254820  0.510675  1.0
  Mo  Mo30  1  0.448390  0.193570  0.510675  1.0
  Mo  Mo31  1  0.745180  0.551610  0.989325  1.0
  Mo  Mo32  1  0.806430  0.254820  0.989325  1.0
  Mo  Mo33  1  0.448390  0.193570  0.989325  1.0
  Mo  Mo34  1  0.254820  0.448390  0.489325  1.0
  Mo  Mo35  1  0.193570  0.745180  0.489325  1.0
  Mo  Mo36  1  0.551610  0.806430  0.489325  1.0
  Mo  Mo37  1  0.240120  0.406120  0.062083  1.0
  Mo  Mo38  1  0.166000  0.759880  0.062083  1.0
  Mo  Mo39  1  0.593880  0.834000  0.062083  1.0
  Mo  Mo40  1  0.759880  0.593880  0.562083  1.0
  Mo  Mo41  1  0.834000  0.240120  0.562083  1.0
  Mo  Mo42  1  0.406120  0.166000  0.562083  1.0
  Mo  Mo43  1  0.759880  0.593880  0.937917  1.0
  Mo  Mo44  1  0.834000  0.240120  0.937917  1.0
  Mo  Mo45  1  0.406120  0.166000  0.937917  1.0
  Mo  Mo46  1  0.240120  0.406120  0.437917  1.0
  Mo  Mo47  1  0.166000  0.759880  0.437917  1.0
  Mo  Mo48  1  0.593880  0.834000  0.437917  1.0
  H  H49  1  0.950000  0.209900  0.885800  1
  H  H50  1  0.259900  0.050000  0.885800  1
  H  H51  1  0.790100  0.740100  0.885800  1
  H  H52  1  0.050000  0.790100  0.385800  1
  H  H53  1  0.740100  0.950000  0.385800  1
  H  H54  1  0.209900  0.259900  0.385800  1
  H  H55  1  0.050000  0.790100  0.114200  1
  H  H56  1  0.740100  0.950000  0.114200  1
  H  H57  1  0.209900  0.259900  0.114200  1
  H  H58  1  0.950000  0.209900  0.614200  1
  H  H59  1  0.259900  0.050000  0.614200  1
  H  H60  1  0.790100  0.740100  0.614200  1
  H  H61  1  0.964100  0.206600  0.953200  1
  H  H62  1  0.242500  0.035900  0.953200  1
  H  H63  1  0.793400  0.757500  0.953200  1
  H  H64  1  0.035900  0.793400  0.453200  1
  H  H65  1  0.757500  0.964100  0.453200  1
  H  H66  1  0.206600  0.242500  0.453200  1
  H  H67  1  0.035900  0.793400  0.046800  1
  H  H68  1  0.757500  0.964100  0.046800  1
  H  H69  1  0.206600  0.242500  0.046800  1
  H  H70  1  0.964100  0.206600  0.546800  1
  H  H71  1  0.242500  0.035900  0.546800  1
  H  H72  1  0.793400  0.757500  0.546800  1
  H  H73  1  0.015400  0.236800  0.009400  1
  H  H74  1  0.221400  0.984600  0.009400  1
  H  H75  1  0.763200  0.778600  0.009400  1
  H  H76  1  0.984600  0.763200  0.509400  1
  H  H77  1  0.778600  0.015400  0.509400  1
  H  H78  1  0.236800  0.221400  0.509400  1
  H  H79  1  0.984600  0.763200  0.990600  1
  H  H80  1  0.778600  0.015400  0.990600  1
  H  H81  1  0.236800  0.221400  0.990600  1
  H  H82  1  0.015400  0.236800  0.490600  1
  H  H83  1  0.221400  0.984600  0.490600  1
  H  H84  1  0.763200  0.778600  0.490600  1
  H  H85  1  0.087500  0.290800  0.036700  1
  H  H86  1  0.203300  0.912500  0.036700  1
  H  H87  1  0.709200  0.796700  0.036700  1
  H  H88  1  0.912500  0.709200  0.536700  1
  H  H89  1  0.796700  0.087500  0.536700  1
  H  H90  1  0.290800  0.203300  0.536700  1
  H  H91  1  0.912500  0.709200  0.963300  1
  H  H92  1  0.796700  0.087500  0.963300  1
  H  H93  1  0.290800  0.203300  0.963300  1
  H  H94  1  0.087500  0.290800  0.463300  1
  H  H95  1  0.203300  0.912500  0.463300  1
  H  H96  1  0.709200  0.796700  0.463300  1
  H  H97  1  0.131400  0.351500  0.929300  1
  H  H98  1  0.220100  0.868600  0.929300  1
  H  H99  1  0.648500  0.779900  0.929300  1
  H  H100  1  0.868600  0.648500  0.429300  1
  H  H101  1  0.779900  0.131400  0.429300  1
  H  H102  1  0.351500  0.220100  0.429300  1
  H  H103  1  0.868600  0.648500  0.070700  1
  H  H104  1  0.779900  0.131400  0.070700  1
  H  H105  1  0.351500  0.220100  0.070700  1
  H  H106  1  0.131400  0.351500  0.570700  1
  H  H107  1  0.220100  0.868600  0.570700  1
  H  H108  1  0.648500  0.779900  0.570700  1
  H  H109  1  0.080200  0.321400  0.873100  1
  H  H110  1  0.241200  0.919800  0.873100  1
  H  H111  1  0.678600  0.758800  0.873100  1
  H  H112  1  0.919800  0.678600  0.373100  1
  H  H113  1  0.758800  0.080200  0.373100  1
  H  H114  1  0.321400  0.241200  0.373100  1
  H  H115  1  0.919800  0.678600  0.126900  1
  H  H116  1  0.758800  0.080200  0.126900  1
  H  H117  1  0.321400  0.241200  0.126900  1
  H  H118  1  0.080200  0.321400  0.626900  1
  H  H119  1  0.241200  0.919800  0.626900  1
  H  H120  1  0.678600  0.758800  0.626900  1
  H  H121  1  0.153400  0.454400  0.135700  1
  H  H122  1  0.301000  0.846600  0.135700  1
  H  H123  1  0.545600  0.699000  0.135700  1
  H  H124  1  0.846600  0.545600  0.635700  1
  H  H125  1  0.699000  0.153400  0.635700  1
  H  H126  1  0.454400  0.301000  0.635700  1
  H  H127  1  0.846600  0.545600  0.864300  1
  H  H128  1  0.699000  0.153400  0.864300  1
  H  H129  1  0.454400  0.301000  0.864300  1
  H  H130  1  0.153400  0.454400  0.364300  1
  H  H131  1  0.301000  0.846600  0.364300  1
  H  H132  1  0.545600  0.699000  0.364300  1
  H  H133  1  0.123000  0.496900  0.166400  1
  H  H134  1  0.373900  0.877000  0.166400  1
  H  H135  1  0.503100  0.626100  0.166400  1
  H  H136  1  0.877000  0.503100  0.666400  1
  H  H137  1  0.626100  0.123000  0.666400  1
  H  H138  1  0.496900  0.373900  0.666400  1
  H  H139  1  0.877000  0.503100  0.833600  1
  H  H140  1  0.626100  0.123000  0.833600  1
  H  H141  1  0.496900  0.373900  0.833600  1
  H  H142  1  0.123000  0.496900  0.333600  1
  H  H143  1  0.373900  0.877000  0.333600  1
  H  H144  1  0.503100  0.626100  0.333600  1
  H  H145  1  0.109600  0.562200  0.166700  1
  H  H146  1  0.452600  0.890400  0.166700  1
  H  H147  1  0.437800  0.547400  0.166700  1
  H  H148  1  0.890400  0.437800  0.666700  1
  H  H149  1  0.547400  0.109600  0.666700  1
  H  H150  1  0.562200  0.452600  0.666700  1
  H  H151  1  0.890400  0.437800  0.833300  1
  H  H152  1  0.547400  0.109600  0.833300  1
  H  H153  1  0.562200  0.452600  0.833300  1
  H  H154  1  0.109600  0.562200  0.333300  1
  H  H155  1  0.452600  0.890400  0.333300  1
  H  H156  1  0.437800  0.547400  0.333300  1
  H  H157  1  0.117300  0.629300  0.136500  1
  H  H158  1  0.512000  0.882700  0.136500  1
  H  H159  1  0.370700  0.488000  0.136500  1
  H  H160  1  0.882700  0.370700  0.636500  1
  H  H161  1  0.488000  0.117300  0.636500  1
  H  H162  1  0.629300  0.512000  0.636500  1
  H  H163  1  0.882700  0.370700  0.863500  1
  H  H164  1  0.488000  0.117300  0.863500  1
  H  H165  1  0.629300  0.512000  0.863500  1
  H  H166  1  0.117300  0.629300  0.363500  1
  H  H167  1  0.512000  0.882700  0.363500  1
  H  H168  1  0.370700  0.488000  0.363500  1
  H  H169  1  0.185700  0.611400  0.044800  1
  H  H170  1  0.425700  0.814300  0.044800  1
  H  H171  1  0.388600  0.574300  0.044800  1
  H  H172  1  0.814300  0.388600  0.544800  1
  H  H173  1  0.574300  0.185700  0.544800  1
  H  H174  1  0.611400  0.425700  0.544800  1
  H  H175  1  0.814300  0.388600  0.955200  1
  H  H176  1  0.574300  0.185700  0.955200  1
  H  H177  1  0.611400  0.425700  0.955200  1
  H  H178  1  0.185700  0.611400  0.455200  1
  H  H179  1  0.425700  0.814300  0.455200  1
  H  H180  1  0.388600  0.574300  0.455200  1
  H  H181  1  0.199200  0.546200  0.044500  1
  H  H182  1  0.347000  0.800800  0.044500  1
  H  H183  1  0.453800  0.653000  0.044500  1
  H  H184  1  0.800800  0.453800  0.544500  1
  H  H185  1  0.653000  0.199200  0.544500  1
  H  H186  1  0.546200  0.347000  0.544500  1
  H  H187  1  0.800800  0.453800  0.955500  1
  H  H188  1  0.653000  0.199200  0.955500  1
  H  H189  1  0.546200  0.347000  0.955500  1
  H  H190  1  0.199200  0.546200  0.455500  1
  H  H191  1  0.347000  0.800800  0.455500  1
  H  H192  1  0.453800  0.653000  0.455500  1
  H  H193  1  0.292500  0.307500  0.030700  1
  H  H194  1  0.015000  0.707500  0.030700  1
  H  H195  1  0.692500  0.985000  0.030700  1
  H  H196  1  0.707500  0.692500  0.530700  1
  H  H197  1  0.985000  0.292500  0.530700  1
  H  H198  1  0.307500  0.015000  0.530700  1
  H  H199  1  0.707500  0.692500  0.969300  1
  H  H200  1  0.985000  0.292500  0.969300  1
  H  H201  1  0.307500  0.015000  0.969300  1
  H  H202  1  0.292500  0.307500  0.469300  1
  H  H203  1  0.015000  0.707500  0.469300  1
  H  H204  1  0.692500  0.985000  0.469300  1
  H  H205  1  0.321400  0.263100  0.000900  1
  H  H206  1  0.941700  0.678600  0.000900  1
  H  H207  1  0.736900  0.058300  0.000900  1
  H  H208  1  0.678600  0.736900  0.500900  1
  H  H209  1  0.058300  0.321400  0.500900  1
  H  H210  1  0.263100  0.941700  0.500900  1
  H  H211  1  0.678600  0.736900  0.999100  1
  H  H212  1  0.058300  0.321400  0.999100  1
  H  H213  1  0.263100  0.941700  0.999100  1
  H  H214  1  0.321400  0.263100  0.499100  1
  H  H215  1  0.941700  0.678600  0.499100  1
  H  H216  1  0.736900  0.058300  0.499100  1
  H  H217  1  0.355000  0.246200  0.944600  1
  H  H218  1  0.891200  0.645000  0.944600  1
  H  H219  1  0.753800  0.108800  0.944600  1
  H  H220  1  0.645000  0.753800  0.444600  1
  H  H221  1  0.108800  0.355000  0.444600  1
  H  H222  1  0.246200  0.891200  0.444600  1
  H  H223  1  0.645000  0.753800  0.055400  1
  H  H224  1  0.108800  0.355000  0.055400  1
  H  H225  1  0.246200  0.891200  0.055400  1
  H  H226  1  0.355000  0.246200  0.555400  1
  H  H227  1  0.891200  0.645000  0.555400  1
  H  H228  1  0.753800  0.108800  0.555400  1
  H  H229  1  0.382800  0.262200  0.879600  1
  H  H230  1  0.879400  0.617200  0.879600  1
  H  H231  1  0.737800  0.120600  0.879600  1
  H  H232  1  0.617200  0.737800  0.379600  1
  H  H233  1  0.120600  0.382800  0.379600  1
  H  H234  1  0.262200  0.879400  0.379600  1
  H  H235  1  0.617200  0.737800  0.120400  1
  H  H236  1  0.120600  0.382800  0.120400  1
  H  H237  1  0.262200  0.879400  0.120400  1
  H  H238  1  0.382800  0.262200  0.620400  1
  H  H239  1  0.879400  0.617200  0.620400  1
  H  H240  1  0.737800  0.120600  0.620400  1
  H  H241  1  0.352900  0.366900  0.874100  1
  H  H242  1  0.014000  0.647100  0.874100  1
  H  H243  1  0.633100  0.986000  0.874100  1
  H  H244  1  0.647100  0.633100  0.374100  1
  H  H245  1  0.986000  0.352900  0.374100  1
  H  H246  1  0.366900  0.014000  0.374100  1
  H  H247  1  0.647100  0.633100  0.125900  1
  H  H248  1  0.986000  0.352900  0.125900  1
  H  H249  1  0.366900  0.014000  0.125900  1
  H  H250  1  0.352900  0.366900  0.625900  1
  H  H251  1  0.014000  0.647100  0.625900  1
  H  H252  1  0.633100  0.986000  0.625900  1
  H  H253  1  0.319300  0.383900  0.930400  1
  H  H254  1  0.064600  0.680700  0.930400  1
  H  H255  1  0.616100  0.935400  0.930400  1
  H  H256  1  0.680700  0.616100  0.430400  1
  H  H257  1  0.935400  0.319300  0.430400  1
  H  H258  1  0.383900  0.064600  0.430400  1
  H  H259  1  0.680700  0.616100  0.069600  1
  H  H260  1  0.935400  0.319300  0.069600  1
  H  H261  1  0.383900  0.064600  0.069600  1
  H  H262  1  0.319300  0.383900  0.569600  1
  H  H263  1  0.064600  0.680700  0.569600  1
  H  H264  1  0.616100  0.935400  0.569600  1
  H  H265  1  0.044900  0.151600  0.750000  1.0
  H  H266  1  0.106700  0.955100  0.750000  1.0
  H  H267  1  0.848400  0.893300  0.750000  1.0
  H  H268  1  0.955100  0.848400  0.250000  1.0
  H  H269  1  0.893300  0.044900  0.250000  1.0
  H  H270  1  0.151600  0.106700  0.250000  1.0
  H  H271  1  0.095000  0.120700  0.750000  1.0
  H  H272  1  0.025700  0.905000  0.750000  1.0
  H  H273  1  0.879300  0.974300  0.750000  1.0
  H  H274  1  0.905000  0.879300  0.250000  1.0
  H  H275  1  0.974300  0.095000  0.250000  1.0
  H  H276  1  0.120700  0.025700  0.250000  1.0
  H  H277  1  0.173000  0.132200  0.750000  1.0
  H  H278  1  0.959200  0.827000  0.750000  1.0
  H  H279  1  0.867800  0.040800  0.750000  1.0
  H  H280  1  0.827000  0.867800  0.250000  1.0
  H  H281  1  0.040800  0.173000  0.250000  1.0
  H  H282  1  0.132200  0.959200  0.250000  1.0
  H  H283  1  0.253900  0.182300  0.750000  1.0
  H  H284  1  0.928400  0.746100  0.750000  1.0
  H  H285  1  0.817700  0.071600  0.750000  1.0
  H  H286  1  0.746100  0.817700  0.250000  1.0
  H  H287  1  0.071600  0.253900  0.250000  1.0
  H  H288  1  0.182300  0.928400  0.250000  1.0
  H  H289  1  0.234600  0.294200  0.750000  1.0
  H  H290  1  0.059600  0.765400  0.750000  1.0
  H  H291  1  0.705800  0.940400  0.750000  1.0
  H  H292  1  0.765400  0.705800  0.250000  1.0
  H  H293  1  0.940400  0.234600  0.250000  1.0
  H  H294  1  0.294200  0.059600  0.250000  1.0
  H  H295  1  0.156700  0.282700  0.750000  1.0
  H  H296  1  0.126000  0.843300  0.750000  1.0
  H  H297  1  0.717300  0.874000  0.750000  1.0
  H  H298  1  0.843300  0.717300  0.250000  1.0
  H  H299  1  0.874000  0.156700  0.250000  1.0
  H  H300  1  0.282700  0.126000  0.250000  1.0
  H  H301  1  0.818600  0.441100  0.750000  1.0
  H  H302  1  0.622500  0.181400  0.750000  1.0
  H  H303  1  0.558900  0.377500  0.750000  1.0
  H  H304  1  0.181400  0.558900  0.250000  1.0
  H  H305  1  0.377500  0.818600  0.250000  1.0
  H  H306  1  0.441100  0.622500  0.250000  1.0
  H  H307  1  0.788600  0.360300  0.750000  1.0
  H  H308  1  0.571700  0.211400  0.750000  1.0
  H  H309  1  0.639700  0.428300  0.750000  1.0
  H  H310  1  0.211400  0.639700  0.250000  1.0
  H  H311  1  0.428300  0.788600  0.250000  1.0
  H  H312  1  0.360300  0.571700  0.250000  1.0
  H  H313  1  0.801000  0.294400  0.750000  1.0
  H  H314  1  0.493400  0.199000  0.750000  1.0
  H  H315  1  0.705600  0.506600  0.750000  1.0
  H  H316  1  0.199000  0.705600  0.250000  1.0
  H  H317  1  0.506600  0.801000  0.250000  1.0
  H  H318  1  0.294400  0.493400  0.250000  1.0
  H  H319  1  0.851900  0.264400  0.750000  1.0
  H  H320  1  0.412500  0.148100  0.750000  1.0
  H  H321  1  0.735600  0.587500  0.750000  1.0
  H  H322  1  0.148100  0.735600  0.250000  1.0
  H  H323  1  0.587500  0.851900  0.250000  1.0
  H  H324  1  0.264400  0.412500  0.250000  1.0
  H  H325  1  0.962700  0.396100  0.750000  1.0
  H  H326  1  0.433400  0.037300  0.750000  1.0
  H  H327  1  0.603900  0.566600  0.750000  1.0
  H  H328  1  0.037300  0.603900  0.250000  1.0
  H  H329  1  0.566600  0.962700  0.250000  1.0
  H  H330  1  0.396100  0.433400  0.250000  1.0
  H  H331  1  0.950300  0.461900  0.750000  1.0
  H  H332  1  0.511600  0.049700  0.750000  1.0
  H  H333  1  0.538100  0.488400  0.750000  1.0
  H  H334  1  0.049700  0.538100  0.250000  1.0
  H  H335  1  0.488400  0.950300  0.250000  1.0
  H  H336  1  0.461900  0.511600  0.250000  1.0
  H  H337  1  0.977000  0.195200  0.873200  1.0
  H  H338  1  0.218200  0.023000  0.873200  1.0
  H  H339  1  0.804800  0.781800  0.873200  1.0
  H  H340  1  0.023000  0.804800  0.373200  1.0
  H  H341  1  0.781800  0.977000  0.373200  1.0
  H  H342  1  0.195200  0.218200  0.373200  1.0
  H  H343  1  0.023000  0.804800  0.126800  1.0
  H  H344  1  0.781800  0.977000  0.126800  1.0
  H  H345  1  0.195200  0.218200  0.126800  1.0
  H  H346  1  0.977000  0.195200  0.626800  1.0
  H  H347  1  0.218200  0.023000  0.626800  1.0
  H  H348  1  0.804800  0.781800  0.626800  1.0
  H  H349  1  1.000000  0.182900  0.935400  1.0
  H  H350  1  0.182900  1.000000  0.935400  1.0
  H  H351  1  0.817100  0.817100  0.935400  1.0
  H  H352  1  1.000000  0.817100  0.435400  1.0
  H  H353  1  0.817100  0.000000  0.435400  1.0
  H  H354  1  0.182900  0.182900  0.435400  1.0
  H  H355  1  1.000000  0.817100  0.064600  1.0
  H  H356  1  0.817100  0.000000  0.064600  1.0
  H  H357  1  0.182900  0.182900  0.064600  1.0
  H  H358  1  1.000000  0.182900  0.564600  1.0
  H  H359  1  0.182900  1.000000  0.564600  1.0
  H  H360  1  0.817100  0.817100  0.564600  1.0
  H  H361  1  0.052100  0.211600  0.991200  1.0
  H  H362  1  0.159500  0.947900  0.991200  1.0
  H  H363  1  0.788400  0.840500  0.991200  1.0
  H  H364  1  0.947900  0.788400  0.491200  1.0
  H  H365  1  0.840500  0.052100  0.491200  1.0
  H  H366  1  0.211600  0.159500  0.491200  1.0
  H  H367  1  0.947900  0.788400  0.008800  1.0
  H  H368  1  0.840500  0.052100  0.008800  1.0
  H  H369  1  0.211600  0.159500  0.008800  1.0
  H  H370  1  0.052100  0.211600  0.508800  1.0
  H  H371  1  0.159500  0.947900  0.508800  1.0
  H  H372  1  0.788400  0.840500  0.508800  1.0
  H  H373  1  0.116800  0.272400  0.023000  1.0
  H  H374  1  0.155600  0.883200  0.023000  1.0
  H  H375  1  0.727600  0.844400  0.023000  1.0
  H  H376  1  0.883200  0.727600  0.523000  1.0
  H  H377  1  0.844400  0.116800  0.523000  1.0
  H  H378  1  0.272400  0.155600  0.523000  1.0
  H  H379  1  0.883200  0.727600  0.977000  1.0
  H  H380  1  0.844400  0.116800  0.977000  1.0
  H  H381  1  0.272400  0.155600  0.977000  1.0
  H  H382  1  0.116800  0.272400  0.477000  1.0
  H  H383  1  0.155600  0.883200  0.477000  1.0
  H  H384  1  0.727600  0.844400  0.477000  1.0
  H  H385  1  0.135600  0.358100  0.930600  1.0
  H  H386  1  0.222500  0.864400  0.930600  1.0
  H  H387  1  0.641900  0.777500  0.930600  1.0
  H  H388  1  0.864400  0.641900  0.430600  1.0
  H  H389  1  0.777500  0.135600  0.430600  1.0
  H  H390  1  0.358100  0.222500  0.430600  1.0
  H  H391  1  0.864400  0.641900  0.069400  1.0
  H  H392  1  0.777500  0.135600  0.069400  1.0
  H  H393  1  0.358100  0.222500  0.069400  1.0
  H  H394  1  0.135600  0.358100  0.569400  1.0
  H  H395  1  0.222500  0.864400  0.569400  1.0
  H  H396  1  0.641900  0.777500  0.569400  1.0
  H  H397  1  0.083500  0.329300  0.874700  1.0
  H  H398  1  0.245800  0.916500  0.874700  1.0
  H  H399  1  0.670700  0.754200  0.874700  1.0
  H  H400  1  0.916500  0.670700  0.374700  1.0
  H  H401  1  0.754200  0.083500  0.374700  1.0
  H  H402  1  0.329300  0.245800  0.374700  1.0
  H  H403  1  0.916500  0.670700  0.125300  1.0
  H  H404  1  0.754200  0.083500  0.125300  1.0
  H  H405  1  0.329300  0.245800  0.125300  1.0
  H  H406  1  0.083500  0.329300  0.625300  1.0
  H  H407  1  0.245800  0.916500  0.625300  1.0
  H  H408  1  0.670700  0.754200  0.625300  1.0
  H  H409  1  0.179100  0.466300  0.145300  1.0
  H  H410  1  0.287200  0.820900  0.145300  1.0
  H  H411  1  0.533700  0.712800  0.145300  1.0
  H  H412  1  0.820900  0.533700  0.645300  1.0
  H  H413  1  0.712800  0.179100  0.645300  1.0
  H  H414  1  0.466300  0.287200  0.645300  1.0
  H  H415  1  0.820900  0.533700  0.854700  1.0
  H  H416  1  0.712800  0.179100  0.854700  1.0
  H  H417  1  0.466300  0.287200  0.854700  1.0
  H  H418  1  0.179100  0.466300  0.354700  1.0
  H  H419  1  0.287200  0.820900  0.354700  1.0
  H  H420  1  0.533700  0.712800  0.354700  1.0
  H  H421  1  0.155600  0.513700  0.177700  1.0
  H  H422  1  0.358100  0.844400  0.177700  1.0
  H  H423  1  0.486300  0.641900  0.177700  1.0
  H  H424  1  0.844400  0.486300  0.677700  1.0
  H  H425  1  0.641900  0.155600  0.677700  1.0
  H  H426  1  0.513700  0.358100  0.677700  1.0
  H  H427  1  0.844400  0.486300  0.822300  1.0
  H  H428  1  0.641900  0.155600  0.822300  1.0
  H  H429  1  0.513700  0.358100  0.822300  1.0
  H  H430  1  0.155600  0.513700  0.322300  1.0
  H  H431  1  0.358100  0.844400  0.322300  1.0
  H  H432  1  0.486300  0.641900  0.322300  1.0
  H  H433  1  0.144100  0.580100  0.177600  1.0
  H  H434  1  0.436000  0.855900  0.177600  1.0
  H  H435  1  0.419900  0.564000  0.177600  1.0
  H  H436  1  0.855900  0.419900  0.677600  1.0
  H  H437  1  0.564000  0.144100  0.677600  1.0
  H  H438  1  0.580100  0.436000  0.677600  1.0
  H  H439  1  0.855900  0.419900  0.822400  1.0
  H  H440  1  0.564000  0.144100  0.822400  1.0
  H  H441  1  0.580100  0.436000  0.822400  1.0
  H  H442  1  0.144100  0.580100  0.322400  1.0
  H  H443  1  0.436000  0.855900  0.322400  1.0
  H  H444  1  0.419900  0.564000  0.322400  1.0
  H  H445  1  0.148200  0.644500  0.145000  1.0
  H  H446  1  0.496300  0.851800  0.145000  1.0
  H  H447  1  0.355500  0.503700  0.145000  1.0
  H  H448  1  0.851800  0.355500  0.645000  1.0
  H  H449  1  0.503700  0.148200  0.645000  1.0
  H  H450  1  0.644500  0.496300  0.645000  1.0
  H  H451  1  0.851800  0.355500  0.855000  1.0
  H  H452  1  0.503700  0.148200  0.855000  1.0
  H  H453  1  0.644500  0.496300  0.855000  1.0
  H  H454  1  0.148200  0.644500  0.355000  1.0
  H  H455  1  0.496300  0.851800  0.355000  1.0
  H  H456  1  0.355500  0.503700  0.355000  1.0
  H  H457  1  0.199500  0.614300  0.047600  1.0
  H  H458  1  0.414800  0.800500  0.047600  1.0
  H  H459  1  0.385700  0.585200  0.047600  1.0
  H  H460  1  0.800500  0.385700  0.547600  1.0
  H  H461  1  0.585200  0.199500  0.547600  1.0
  H  H462  1  0.614300  0.414800  0.547600  1.0
  H  H463  1  0.800500  0.385700  0.952400  1.0
  H  H464  1  0.585200  0.199500  0.952400  1.0
  H  H465  1  0.614300  0.414800  0.952400  1.0
  H  H466  1  0.199500  0.614300  0.452400  1.0
  H  H467  1  0.414800  0.800500  0.452400  1.0
  H  H468  1  0.385700  0.585200  0.452400  1.0
  H  H469  1  0.211000  0.547800  0.047700  1.0
  H  H470  1  0.336800  0.789000  0.047700  1.0
  H  H471  1  0.452200  0.663200  0.047700  1.0
  H  H472  1  0.789000  0.452200  0.547700  1.0
  H  H473  1  0.663200  0.211000  0.547700  1.0
  H  H474  1  0.547800  0.336800  0.547700  1.0
  H  H475  1  0.789000  0.452200  0.952300  1.0
  H  H476  1  0.663200  0.211000  0.952300  1.0
  H  H477  1  0.547800  0.336800  0.952300  1.0
  H  H478  1  0.211000  0.547800  0.452300  1.0
  H  H479  1  0.336800  0.789000  0.452300  1.0
  H  H480  1  0.452200  0.663200  0.452300  1.0
  H  H481  1  0.338600  0.349300  0.040900  1.0
  H  H482  1  0.010700  0.661400  0.040900  1.0
  H  H483  1  0.650700  0.989300  0.040900  1.0
  H  H484  1  0.661400  0.650700  0.540900  1.0
  H  H485  1  0.989300  0.338600  0.540900  1.0
  H  H486  1  0.349300  0.010700  0.540900  1.0
  H  H487  1  0.661400  0.650700  0.959100  1.0
  H  H488  1  0.989300  0.338600  0.959100  1.0
  H  H489  1  0.349300  0.010700  0.959100  1.0
  H  H490  1  0.338600  0.349300  0.459100  1.0
  H  H491  1  0.010700  0.661400  0.459100  1.0
  H  H492  1  0.650700  0.989300  0.459100  1.0
  H  H493  1  0.376800  0.312800  0.012700  1.0
  H  H494  1  0.936000  0.623200  0.012700  1.0
  H  H495  1  0.687200  0.064000  0.012700  1.0
  H  H496  1  0.623200  0.687200  0.512700  1.0
  H  H497  1  0.064000  0.376800  0.512700  1.0
  H  H498  1  0.312800  0.936000  0.512700  1.0
  H  H499  1  0.623200  0.687200  0.987300  1.0
  H  H500  1  0.064000  0.376800  0.987300  1.0
  H  H501  1  0.312800  0.936000  0.987300  1.0
  H  H502  1  0.376800  0.312800  0.487300  1.0
  H  H503  1  0.936000  0.623200  0.487300  1.0
  H  H504  1  0.687200  0.064000  0.487300  1.0
  H  H505  1  0.405700  0.292300  0.955200  1.0
  H  H506  1  0.886600  0.594300  0.955200  1.0
  H  H507  1  0.707700  0.113400  0.955200  1.0
  H  H508  1  0.594300  0.707700  0.455200  1.0
  H  H509  1  0.113400  0.405700  0.455200  1.0
  H  H510  1  0.292300  0.886600  0.455200  1.0
  H  H511  1  0.594300  0.707700  0.044800  1.0
  H  H512  1  0.113400  0.405700  0.044800  1.0
  H  H513  1  0.292300  0.886600  0.044800  1.0
  H  H514  1  0.405700  0.292300  0.544800  1.0
  H  H515  1  0.886600  0.594300  0.544800  1.0
  H  H516  1  0.707700  0.113400  0.544800  1.0
  H  H517  1  0.416300  0.294500  0.886700  1.0
  H  H518  1  0.878200  0.583700  0.886700  1.0
  H  H519  1  0.705500  0.121800  0.886700  1.0
  H  H520  1  0.583700  0.705500  0.386700  1.0
  H  H521  1  0.121800  0.416300  0.386700  1.0
  H  H522  1  0.294500  0.878200  0.386700  1.0
  H  H523  1  0.583700  0.705500  0.113300  1.0
  H  H524  1  0.121800  0.416300  0.113300  1.0
  H  H525  1  0.294500  0.878200  0.113300  1.0
  H  H526  1  0.416300  0.294500  0.613300  1.0
  H  H527  1  0.878200  0.583700  0.613300  1.0
  H  H528  1  0.705500  0.121800  0.613300  1.0
  H  H529  1  0.350500  0.369400  0.874600  1.0
  H  H530  1  0.018900  0.649500  0.874600  1.0
  H  H531  1  0.630600  0.981100  0.874600  1.0
  H  H532  1  0.649500  0.630600  0.374600  1.0
  H  H533  1  0.981100  0.350500  0.374600  1.0
  H  H534  1  0.369400  0.018900  0.374600  1.0
  H  H535  1  0.649500  0.630600  0.125400  1.0
  H  H536  1  0.981100  0.350500  0.125400  1.0
  H  H537  1  0.369400  0.018900  0.125400  1.0
  H  H538  1  0.350500  0.369400  0.625400  1.0
  H  H539  1  0.018900  0.649500  0.625400  1.0
  H  H540  1  0.630600  0.981100  0.625400  1.0
  H  H541  1  0.321500  0.389800  0.932100  1.0
  H  H542  1  0.068300  0.678500  0.932100  1.0
  H  H543  1  0.610200  0.931700  0.932100  1.0
  H  H544  1  0.678500  0.610200  0.432100  1.0
  H  H545  1  0.931700  0.321500  0.432100  1.0
  H  H546  1  0.389800  0.068300  0.432100  1.0
  H  H547  1  0.678500  0.610200  0.067900  1.0
  H  H548  1  0.931700  0.321500  0.067900  1.0
  H  H549  1  0.389800  0.068300  0.067900  1.0
  H  H550  1  0.321500  0.389800  0.567900  1.0
  H  H551  1  0.068300  0.678500  0.567900  1.0
  H  H552  1  0.610200  0.931700  0.567900  1.0
  C  C553  1  0.008770  0.271550  0.829370  1
  C  C554  1  0.262780  0.991230  0.829370  1
  C  C555  1  0.728450  0.737220  0.829370  1
  C  C556  1  0.991230  0.728450  0.329370  1
  C  C557  1  0.737220  0.008770  0.329370  1
  C  C558  1  0.271550  0.262780  0.329370  1
  C  C559  1  0.991230  0.728450  0.170630  1
  C  C560  1  0.737220  0.008770  0.170630  1
  C  C561  1  0.271550  0.262780  0.170630  1
  C  C562  1  0.008770  0.271550  0.670630  1
  C  C563  1  0.262780  0.991230  0.670630  1
  C  C564  1  0.728450  0.737220  0.670630  1
  C  C565  1  0.013700  0.265880  0.873080  1
  C  C566  1  0.252180  0.986300  0.873080  1
  C  C567  1  0.734120  0.747820  0.873080  1
  C  C568  1  0.986300  0.734120  0.373080  1
  C  C569  1  0.747820  0.013700  0.373080  1
  C  C570  1  0.265880  0.252180  0.373080  1
  C  C571  1  0.986300  0.734120  0.126920  1
  C  C572  1  0.747820  0.013700  0.126920  1
  C  C573  1  0.265880  0.252180  0.126920  1
  C  C574  1  0.013700  0.265880  0.626920  1
  C  C575  1  0.252180  0.986300  0.626920  1
  C  C576  1  0.734120  0.747820  0.626920  1
  C  C577  1  0.979260  0.231820  0.896880  1
  C  C578  1  0.252560  0.020740  0.896880  1
  C  C579  1  0.768180  0.747440  0.896880  1
  C  C580  1  0.020740  0.768180  0.396880  1
  C  C581  1  0.747440  0.979260  0.396880  1
  C  C582  1  0.231820  0.252560  0.396880  1
  C  C583  1  0.020740  0.768180  0.103120  1
  C  C584  1  0.747440  0.979260  0.103120  1
  C  C585  1  0.231820  0.252560  0.103120  1
  C  C586  1  0.979260  0.231820  0.603120  1
  C  C587  1  0.252560  0.020740  0.603120  1
  C  C588  1  0.768180  0.747440  0.603120  1
  C  C589  1  0.987650  0.229850  0.936900  1
  C  C590  1  0.242200  0.012350  0.936900  1
  C  C591  1  0.770150  0.757800  0.936900  1
  C  C592  1  0.012350  0.770150  0.436900  1
  C  C593  1  0.757800  0.987650  0.436900  1
  C  C594  1  0.229850  0.242200  0.436900  1
  C  C595  1  0.012350  0.770150  0.063100  1
  C  C596  1  0.757800  0.987650  0.063100  1
  C  C597  1  0.229850  0.242200  0.063100  1
  C  C598  1  0.987650  0.229850  0.563100  1
  C  C599  1  0.242200  0.012350  0.563100  1
  C  C600  1  0.770150  0.757800  0.563100  1
  C  C601  1  0.030520  0.262000  0.953130  1
  C  C602  1  0.231480  0.969480  0.953130  1
  C  C603  1  0.738000  0.768520  0.953130  1
  C  C604  1  0.969480  0.738000  0.453130  1
  C  C605  1  0.768520  0.030520  0.453130  1
  C  C606  1  0.262000  0.231480  0.453130  1
  C  C607  1  0.969480  0.738000  0.046870  1
  C  C608  1  0.768520  0.030520  0.046870  1
  C  C609  1  0.262000  0.231480  0.046870  1
  C  C610  1  0.030520  0.262000  0.546870  1
  C  C611  1  0.231480  0.969480  0.546870  1
  C  C612  1  0.738000  0.768520  0.546870  1
  C  C613  1  0.038900  0.260000  0.993150  1
  C  C614  1  0.221100  0.961100  0.993150  1
  C  C615  1  0.740000  0.778900  0.993150  1
  C  C616  1  0.961100  0.740000  0.493150  1
  C  C617  1  0.778900  0.038900  0.493150  1
  C  C618  1  0.260000  0.221100  0.493150  1
  C  C619  1  0.961100  0.740000  0.006850  1
  C  C620  1  0.778900  0.038900  0.006850  1
  C  C621  1  0.260000  0.221100  0.006850  1
  C  C622  1  0.038900  0.260000  0.506850  1
  C  C623  1  0.221100  0.961100  0.506850  1
  C  C624  1  0.740000  0.778900  0.506850  1
  C  C625  1  0.081800  0.292200  0.009380  1
  C  C626  1  0.210400  0.918200  0.009380  1
  C  C627  1  0.707800  0.789600  0.009380  1
  C  C628  1  0.918200  0.707800  0.509380  1
  C  C629  1  0.789600  0.081800  0.509380  1
  C  C630  1  0.292200  0.210400  0.509380  1
  C  C631  1  0.918200  0.707800  0.990620  1
  C  C632  1  0.789600  0.081800  0.990620  1
  C  C633  1  0.292200  0.210400  0.990620  1
  C  C634  1  0.081800  0.292200  0.490620  1
  C  C635  1  0.210400  0.918200  0.490620  1
  C  C636  1  0.707800  0.789600  0.490620  1
  C  C637  1  0.116300  0.326300  0.985600  1
  C  C638  1  0.210000  0.883700  0.985600  1
  C  C639  1  0.673700  0.790000  0.985600  1
  C  C640  1  0.883700  0.673700  0.485600  1
  C  C641  1  0.790000  0.116300  0.485600  1
  C  C642  1  0.326300  0.210000  0.485600  1
  C  C643  1  0.883700  0.673700  0.014400  1
  C  C644  1  0.790000  0.116300  0.014400  1
  C  C645  1  0.326300  0.210000  0.014400  1
  C  C646  1  0.116300  0.326300  0.514400  1
  C  C647  1  0.210000  0.883700  0.514400  1
  C  C648  1  0.673700  0.790000  0.514400  1
  C  C649  1  0.107870  0.328250  0.945600  1
  C  C650  1  0.220380  0.892130  0.945600  1
  C  C651  1  0.671750  0.779620  0.945600  1
  C  C652  1  0.892130  0.671750  0.445600  1
  C  C653  1  0.779620  0.107870  0.445600  1
  C  C654  1  0.328250  0.220380  0.445600  1
  C  C655  1  0.892130  0.671750  0.054400  1
  C  C656  1  0.779620  0.107870  0.054400  1
  C  C657  1  0.328250  0.220380  0.054400  1
  C  C658  1  0.107870  0.328250  0.554400  1
  C  C659  1  0.220380  0.892130  0.554400  1
  C  C660  1  0.671750  0.779620  0.554400  1
  C  C661  1  0.064990  0.296100  0.929330  1
  C  C662  1  0.231110  0.935010  0.929330  1
  C  C663  1  0.703900  0.768890  0.929330  1
  C  C664  1  0.935010  0.703900  0.429330  1
  C  C665  1  0.768890  0.064990  0.429330  1
  C  C666  1  0.296100  0.231110  0.429330  1
  C  C667  1  0.935010  0.703900  0.070670  1
  C  C668  1  0.768890  0.064990  0.070670  1
  C  C669  1  0.296100  0.231110  0.070670  1
  C  C670  1  0.064990  0.296100  0.570670  1
  C  C671  1  0.231110  0.935010  0.570670  1
  C  C672  1  0.703900  0.768890  0.570670  1
  C  C673  1  0.056600  0.298070  0.889310  1
  C  C674  1  0.241470  0.943400  0.889310  1
  C  C675  1  0.701930  0.758530  0.889310  1
  C  C676  1  0.943400  0.701930  0.389310  1
  C  C677  1  0.758530  0.056600  0.389310  1
  C  C678  1  0.298070  0.241470  0.389310  1
  C  C679  1  0.943400  0.701930  0.110690  1
  C  C680  1  0.758530  0.056600  0.110690  1
  C  C681  1  0.298070  0.241470  0.110690  1
  C  C682  1  0.056600  0.298070  0.610690  1
  C  C683  1  0.241470  0.943400  0.610690  1
  C  C684  1  0.701930  0.758530  0.610690  1
  C  C685  1  0.163000  0.361400  0.002900  1
  C  C686  1  0.198400  0.837000  0.002900  1
  C  C687  1  0.638600  0.801600  0.002900  1
  C  C688  1  0.837000  0.638600  0.502900  1
  C  C689  1  0.801600  0.163000  0.502900  1
  C  C690  1  0.361400  0.198400  0.502900  1
  C  C691  1  0.837000  0.638600  0.997100  1
  C  C692  1  0.801600  0.163000  0.997100  1
  C  C693  1  0.361400  0.198400  0.997100  1
  C  C694  1  0.163000  0.361400  0.497100  1
  C  C695  1  0.198400  0.837000  0.497100  1
  C  C696  1  0.638600  0.801600  0.497100  1
  C  C697  1  0.198810  0.468910  0.067300  1
  C  C698  1  0.270100  0.801190  0.067300  1
  C  C699  1  0.531090  0.729900  0.067300  1
  C  C700  1  0.801190  0.531090  0.567300  1
  C  C701  1  0.729900  0.198810  0.567300  1
  C  C702  1  0.468910  0.270100  0.567300  1
  C  C703  1  0.801190  0.531090  0.932700  1
  C  C704  1  0.729900  0.198810  0.932700  1
  C  C705  1  0.468910  0.270100  0.932700  1
  C  C706  1  0.198810  0.468910  0.432700  1
  C  C707  1  0.270100  0.801190  0.432700  1
  C  C708  1  0.531090  0.729900  0.432700  1
  C  C709  1  0.179180  0.496330  0.087200  1
  C  C710  1  0.317150  0.820820  0.087200  1
  C  C711  1  0.503670  0.682850  0.087200  1
  C  C712  1  0.820820  0.503670  0.587200  1
  C  C713  1  0.682850  0.179180  0.587200  1
  C  C714  1  0.496330  0.317150  0.587200  1
  C  C715  1  0.820820  0.503670  0.912800  1
  C  C716  1  0.682850  0.179180  0.912800  1
  C  C717  1  0.496330  0.317150  0.912800  1
  C  C718  1  0.179180  0.496330  0.412800  1
  C  C719  1  0.317150  0.820820  0.412800  1
  C  C720  1  0.503670  0.682850  0.412800  1
  C  C721  1  0.156540  0.481680  0.123400  1
  C  C722  1  0.325140  0.843460  0.123400  1
  C  C723  1  0.518320  0.674860  0.123400  1
  C  C724  1  0.843460  0.518320  0.623400  1
  C  C725  1  0.674860  0.156540  0.623400  1
  C  C726  1  0.481680  0.325140  0.623400  1
  C  C727  1  0.843460  0.518320  0.876600  1
  C  C728  1  0.674860  0.156540  0.876600  1
  C  C729  1  0.481680  0.325140  0.876600  1
  C  C730  1  0.156540  0.481680  0.376600  1
  C  C731  1  0.325140  0.843460  0.376600  1
  C  C732  1  0.518320  0.674860  0.376600  1
  C  C733  1  0.138500  0.507000  0.141630  1
  C  C734  1  0.368500  0.861500  0.141630  1
  C  C735  1  0.493000  0.631500  0.141630  1
  C  C736  1  0.861500  0.493000  0.641630  1
  C  C737  1  0.631500  0.138500  0.641630  1
  C  C738  1  0.507000  0.368500  0.641630  1
  C  C739  1  0.861500  0.493000  0.858370  1
  C  C740  1  0.631500  0.138500  0.858370  1
  C  C741  1  0.507000  0.368500  0.858370  1
  C  C742  1  0.138500  0.507000  0.358370  1
  C  C743  1  0.368500  0.861500  0.358370  1
  C  C744  1  0.493000  0.631500  0.358370  1
  C  C745  1  0.143070  0.546860  0.123680  1
  C  C746  1  0.403790  0.856930  0.123680  1
  C  C747  1  0.453140  0.596210  0.123680  1
  C  C748  1  0.856930  0.453140  0.623680  1
  C  C749  1  0.596210  0.143070  0.623680  1
  C  C750  1  0.546860  0.403790  0.623680  1
  C  C751  1  0.856930  0.453140  0.876320  1
  C  C752  1  0.596210  0.143070  0.876320  1
  C  C753  1  0.546860  0.403790  0.876320  1
  C  C754  1  0.143070  0.546860  0.376320  1
  C  C755  1  0.403790  0.856930  0.376320  1
  C  C756  1  0.453140  0.596210  0.376320  1
  C  C757  1  0.125000  0.572100  0.141930  1
  C  C758  1  0.447100  0.875000  0.141930  1
  C  C759  1  0.427900  0.552900  0.141930  1
  C  C760  1  0.875000  0.427900  0.641930  1
  C  C761  1  0.552900  0.125000  0.641930  1
  C  C762  1  0.572100  0.447100  0.641930  1
  C  C763  1  0.875000  0.427900  0.858070  1
  C  C764  1  0.552900  0.125000  0.858070  1
  C  C765  1  0.572100  0.447100  0.858070  1
  C  C766  1  0.125000  0.572100  0.358070  1
  C  C767  1  0.447100  0.875000  0.358070  1
  C  C768  1  0.427900  0.552900  0.358070  1
  C  C769  1  0.129610  0.612050  0.124000  1
  C  C770  1  0.482440  0.870390  0.124000  1
  C  C771  1  0.387950  0.517560  0.124000  1
  C  C772  1  0.870390  0.387950  0.624000  1
  C  C773  1  0.517560  0.129610  0.624000  1
  C  C774  1  0.612050  0.482440  0.624000  1
  C  C775  1  0.870390  0.387950  0.876000  1
  C  C776  1  0.517560  0.129610  0.876000  1
  C  C777  1  0.612050  0.482440  0.876000  1
  C  C778  1  0.129610  0.612050  0.376000  1
  C  C779  1  0.482440  0.870390  0.376000  1
  C  C780  1  0.387950  0.517560  0.376000  1
  C  C781  1  0.152230  0.626730  0.087800  1
  C  C782  1  0.474500  0.847770  0.087800  1
  C  C783  1  0.373270  0.525500  0.087800  1
  C  C784  1  0.847770  0.373270  0.587800  1
  C  C785  1  0.525500  0.152230  0.587800  1
  C  C786  1  0.626730  0.474500  0.587800  1
  C  C787  1  0.847770  0.373270  0.912200  1
  C  C788  1  0.525500  0.152230  0.912200  1
  C  C789  1  0.626730  0.474500  0.912200  1
  C  C790  1  0.152230  0.626730  0.412200  1
  C  C791  1  0.474500  0.847770  0.412200  1
  C  C792  1  0.373270  0.525500  0.412200  1
  C  C793  1  0.170280  0.601480  0.069520  1
  C  C794  1  0.431200  0.829720  0.069520  1
  C  C795  1  0.398520  0.568800  0.069520  1
  C  C796  1  0.829720  0.398520  0.569520  1
  C  C797  1  0.568800  0.170280  0.569520  1
  C  C798  1  0.601480  0.431200  0.569520  1
  C  C799  1  0.829720  0.398520  0.930480  1
  C  C800  1  0.568800  0.170280  0.930480  1
  C  C801  1  0.601480  0.431200  0.930480  1
  C  C802  1  0.170280  0.601480  0.430480  1
  C  C803  1  0.431200  0.829720  0.430480  1
  C  C804  1  0.398520  0.568800  0.430480  1
  C  C805  1  0.165700  0.561510  0.087470  1
  C  C806  1  0.395810  0.834300  0.087470  1
  C  C807  1  0.438490  0.604190  0.087470  1
  C  C808  1  0.834300  0.438490  0.587470  1
  C  C809  1  0.604190  0.165700  0.587470  1
  C  C810  1  0.561510  0.395810  0.587470  1
  C  C811  1  0.834300  0.438490  0.912530  1
  C  C812  1  0.604190  0.165700  0.912530  1
  C  C813  1  0.561510  0.395810  0.912530  1
  C  C814  1  0.165700  0.561510  0.412530  1
  C  C815  1  0.395810  0.834300  0.412530  1
  C  C816  1  0.438490  0.604190  0.412530  1
  C  C817  1  0.183740  0.536240  0.069220  1
  C  C818  1  0.352500  0.816260  0.069220  1
  C  C819  1  0.463760  0.647500  0.069220  1
  C  C820  1  0.816260  0.463760  0.569220  1
  C  C821  1  0.647500  0.183740  0.569220  1
  C  C822  1  0.536240  0.352500  0.569220  1
  C  C823  1  0.816260  0.463760  0.930780  1
  C  C824  1  0.647500  0.183740  0.930780  1
  C  C825  1  0.536240  0.352500  0.930780  1
  C  C826  1  0.183740  0.536240  0.430780  1
  C  C827  1  0.352500  0.816260  0.430780  1
  C  C828  1  0.463760  0.647500  0.430780  1
  C  C829  1  0.157900  0.669900  0.067400  1
  C  C830  1  0.512000  0.842100  0.067400  1
  C  C831  1  0.330100  0.488000  0.067400  1
  C  C832  1  0.842100  0.330100  0.567400  1
  C  C833  1  0.488000  0.157900  0.567400  1
  C  C834  1  0.669900  0.512000  0.567400  1
  C  C835  1  0.842100  0.330100  0.932600  1
  C  C836  1  0.488000  0.157900  0.932600  1
  C  C837  1  0.669900  0.512000  0.932600  1
  C  C838  1  0.157900  0.669900  0.432600  1
  C  C839  1  0.512000  0.842100  0.432600  1
  C  C840  1  0.330100  0.488000  0.432600  1
  C  C841  1  0.284410  0.378080  0.003100  1
  C  C842  1  0.093670  0.715590  0.003100  1
  C  C843  1  0.621920  0.906330  0.003100  1
  C  C844  1  0.715590  0.621920  0.503100  1
  C  C845  1  0.906330  0.284410  0.503100  1
  C  C846  1  0.378080  0.093670  0.503100  1
  C  C847  1  0.715590  0.621920  0.996900  1
  C  C848  1  0.906330  0.284410  0.996900  1
  C  C849  1  0.378080  0.093670  0.996900  1
  C  C850  1  0.284410  0.378080  0.496900  1
  C  C851  1  0.093670  0.715590  0.496900  1
  C  C852  1  0.621920  0.906330  0.496900  1
  C  C853  1  0.303170  0.349840  0.983370  1
  C  C854  1  0.046670  0.696830  0.983370  1
  C  C855  1  0.650160  0.953330  0.983370  1
  C  C856  1  0.696830  0.650160  0.483370  1
  C  C857  1  0.953330  0.303170  0.483370  1
  C  C858  1  0.349840  0.046670  0.483370  1
  C  C859  1  0.696830  0.650160  0.016630  1
  C  C860  1  0.953330  0.303170  0.016630  1
  C  C861  1  0.349840  0.046670  0.016630  1
  C  C862  1  0.303170  0.349840  0.516630  1
  C  C863  1  0.046670  0.696830  0.516630  1
  C  C864  1  0.650160  0.953330  0.516630  1
  C  C865  1  0.303790  0.313990  0.004310  1
  C  C866  1  0.010200  0.696210  0.004310  1
  C  C867  1  0.686010  0.989800  0.004310  1
  C  C868  1  0.696210  0.686010  0.504310  1
  C  C869  1  0.989800  0.303790  0.504310  1
  C  C870  1  0.313990  0.010200  0.504310  1
  C  C871  1  0.696210  0.686010  0.995690  1
  C  C872  1  0.989800  0.303790  0.995690  1
  C  C873  1  0.313990  0.010200  0.995690  1
  C  C874  1  0.303790  0.313990  0.495690  1
  C  C875  1  0.010200  0.696210  0.495690  1
  C  C876  1  0.686010  0.989800  0.495690  1
  C  C877  1  0.320900  0.287560  0.986620  1
  C  C878  1  0.966660  0.679100  0.986620  1
  C  C879  1  0.712440  0.033340  0.986620  1
  C  C880  1  0.679100  0.712440  0.486620  1
  C  C881  1  0.033340  0.320900  0.486620  1
  C  C882  1  0.287560  0.966660  0.486620  1
  C  C883  1  0.679100  0.712440  0.013380  1
  C  C884  1  0.033340  0.320900  0.013380  1
  C  C885  1  0.287560  0.966660  0.013380  1
  C  C886  1  0.320900  0.287560  0.513380  1
  C  C887  1  0.966660  0.679100  0.513380  1
  C  C888  1  0.712440  0.033340  0.513380  1
  C  C889  1  0.337440  0.297080  0.948000  1
  C  C890  1  0.959640  0.662560  0.948000  1
  C  C891  1  0.702920  0.040360  0.948000  1
  C  C892  1  0.662560  0.702920  0.448000  1
  C  C893  1  0.040360  0.337440  0.448000  1
  C  C894  1  0.297080  0.959640  0.448000  1
  C  C895  1  0.662560  0.702920  0.052000  1
  C  C896  1  0.040360  0.337440  0.052000  1
  C  C897  1  0.297080  0.959640  0.052000  1
  C  C898  1  0.337440  0.297080  0.552000  1
  C  C899  1  0.959640  0.662560  0.552000  1
  C  C900  1  0.702920  0.040360  0.552000  1
  C  C901  1  0.354600  0.270730  0.930320  1
  C  C902  1  0.916130  0.645400  0.930320  1
  C  C903  1  0.729270  0.083870  0.930320  1
  C  C904  1  0.645400  0.729270  0.430320  1
  C  C905  1  0.083870  0.354600  0.430320  1
  C  C906  1  0.270730  0.916130  0.430320  1
  C  C907  1  0.645400  0.729270  0.069680  1
  C  C908  1  0.083870  0.354600  0.069680  1
  C  C909  1  0.270730  0.916130  0.069680  1
  C  C910  1  0.354600  0.270730  0.569680  1
  C  C911  1  0.916130  0.645400  0.569680  1
  C  C912  1  0.729270  0.083870  0.569680  1
  C  C913  1  0.371090  0.280190  0.891700  1
  C  C914  1  0.909100  0.628910  0.891700  1
  C  C915  1  0.719810  0.090900  0.891700  1
  C  C916  1  0.628910  0.719810  0.391700  1
  C  C917  1  0.090900  0.371090  0.391700  1
  C  C918  1  0.280190  0.909100  0.391700  1
  C  C919  1  0.628910  0.719810  0.108300  1
  C  C920  1  0.090900  0.371090  0.108300  1
  C  C921  1  0.280190  0.909100  0.108300  1
  C  C922  1  0.371090  0.280190  0.608300  1
  C  C923  1  0.909100  0.628910  0.608300  1
  C  C924  1  0.719810  0.090900  0.608300  1
  C  C925  1  0.370460  0.316060  0.870770  1
  C  C926  1  0.945600  0.629540  0.870770  1
  C  C927  1  0.683940  0.054400  0.870770  1
  C  C928  1  0.629540  0.683940  0.370770  1
  C  C929  1  0.054400  0.370460  0.370770  1
  C  C930  1  0.316060  0.945600  0.370770  1
  C  C931  1  0.629540  0.683940  0.129230  1
  C  C932  1  0.054400  0.370460  0.129230  1
  C  C933  1  0.316060  0.945600  0.129230  1
  C  C934  1  0.370460  0.316060  0.629230  1
  C  C935  1  0.945600  0.629540  0.629230  1
  C  C936  1  0.683940  0.054400  0.629230  1
  C  C937  1  0.353340  0.342440  0.888440  1
  C  C938  1  0.989100  0.646660  0.888440  1
  C  C939  1  0.657560  0.010900  0.888440  1
  C  C940  1  0.646660  0.657560  0.388440  1
  C  C941  1  0.010900  0.353340  0.388440  1
  C  C942  1  0.342440  0.989100  0.388440  1
  C  C943  1  0.646660  0.657560  0.111560  1
  C  C944  1  0.010900  0.353340  0.111560  1
  C  C945  1  0.342440  0.989100  0.111560  1
  C  C946  1  0.353340  0.342440  0.611560  1
  C  C947  1  0.989100  0.646660  0.611560  1
  C  C948  1  0.657560  0.010900  0.611560  1
  C  C949  1  0.336820  0.332960  0.927060  1
  C  C950  1  0.996140  0.663180  0.927060  1
  C  C951  1  0.667040  0.003860  0.927060  1
  C  C952  1  0.663180  0.667040  0.427060  1
  C  C953  1  0.003860  0.336820  0.427060  1
  C  C954  1  0.332960  0.996140  0.427060  1
  C  C955  1  0.663180  0.667040  0.072940  1
  C  C956  1  0.003860  0.336820  0.072940  1
  C  C957  1  0.332960  0.996140  0.072940  1
  C  C958  1  0.336820  0.332960  0.572940  1
  C  C959  1  0.996140  0.663180  0.572940  1
  C  C960  1  0.667040  0.003860  0.572940  1
  C  C961  1  0.319680  0.359330  0.944750  1
  C  C962  1  0.039650  0.680320  0.944750  1
  C  C963  1  0.640670  0.960350  0.944750  1
  C  C964  1  0.680320  0.640670  0.444750  1
  C  C965  1  0.960350  0.319680  0.444750  1
  C  C966  1  0.359330  0.039650  0.444750  1
  C  C967  1  0.680320  0.640670  0.055250  1
  C  C968  1  0.960350  0.319680  0.055250  1
  C  C969  1  0.359330  0.039650  0.055250  1
  C  C970  1  0.319680  0.359330  0.555250  1
  C  C971  1  0.039650  0.680320  0.555250  1
  C  C972  1  0.640670  0.960350  0.555250  1
  C  C973  1  0.387120  0.330390  0.828870  1
  C  C974  1  0.943270  0.612880  0.828870  1
  C  C975  1  0.669610  0.056730  0.828870  1
  C  C976  1  0.612880  0.669610  0.328870  1
  C  C977  1  0.056730  0.387120  0.328870  1
  C  C978  1  0.330390  0.943270  0.328870  1
  C  C979  1  0.612880  0.669610  0.171130  1
  C  C980  1  0.056730  0.387120  0.171130  1
  C  C981  1  0.330390  0.943270  0.171130  1
  C  C982  1  0.387120  0.330390  0.671130  1
  C  C983  1  0.943270  0.612880  0.671130  1
  C  C984  1  0.669610  0.056730  0.671130  1
  C  C985  1  0.063000  0.238000  0.750000  1.0
  C  C986  1  0.175000  0.937000  0.750000  1.0
  C  C987  1  0.762000  0.825000  0.750000  1.0
  C  C988  1  0.937000  0.762000  0.250000  1.0
  C  C989  1  0.825000  0.063000  0.250000  1.0
  C  C990  1  0.238000  0.175000  0.250000  1.0
  C  C991  1  0.096050  0.220020  0.750000  1.0
  C  C992  1  0.123970  0.903950  0.750000  1.0
  C  C993  1  0.779980  0.876030  0.750000  1.0
  C  C994  1  0.903950  0.779980  0.250000  1.0
  C  C995  1  0.876030  0.096050  0.250000  1.0
  C  C996  1  0.220020  0.123970  0.250000  1.0
  C  C997  1  0.077740  0.171900  0.750000  1.0
  C  C998  1  0.094160  0.922260  0.750000  1.0
  C  C999  1  0.828100  0.905840  0.750000  1.0
  C  C1000  1  0.922260  0.828100  0.250000  1.0
  C  C1001  1  0.905840  0.077740  0.250000  1.0
  C  C1002  1  0.171900  0.094160  0.250000  1.0
  C  C1003  1  0.107540  0.153590  0.750000  1.0
  C  C1004  1  0.046050  0.892460  0.750000  1.0
  C  C1005  1  0.846410  0.953950  0.750000  1.0
  C  C1006  1  0.892460  0.846410  0.250000  1.0
  C  C1007  1  0.953950  0.107540  0.250000  1.0
  C  C1008  1  0.153590  0.046050  0.250000  1.0
  C  C1009  1  0.155660  0.183380  0.750000  1.0
  C  C1010  1  0.027720  0.844340  0.750000  1.0
  C  C1011  1  0.816620  0.972280  0.750000  1.0
  C  C1012  1  0.844340  0.816620  0.250000  1.0
  C  C1013  1  0.972280  0.155660  0.250000  1.0
  C  C1014  1  0.183380  0.027720  0.250000  1.0
  C  C1015  1  0.185470  0.165080  0.750000  1.0
  C  C1016  1  0.979610  0.814530  0.750000  1.0
  C  C1017  1  0.834920  0.020390  0.750000  1.0
  C  C1018  1  0.814530  0.834920  0.250000  1.0
  C  C1019  1  0.020390  0.185470  0.250000  1.0
  C  C1020  1  0.165080  0.979610  0.250000  1.0
  C  C1021  1  0.233580  0.194880  0.750000  1.0
  C  C1022  1  0.961300  0.766420  0.750000  1.0
  C  C1023  1  0.805120  0.038700  0.750000  1.0
  C  C1024  1  0.766420  0.805120  0.250000  1.0
  C  C1025  1  0.038700  0.233580  0.250000  1.0
  C  C1026  1  0.194880  0.961300  0.250000  1.0
  C  C1027  1  0.251880  0.242990  0.750000  1.0
  C  C1028  1  0.991110  0.748120  0.750000  1.0
  C  C1029  1  0.757010  0.008890  0.750000  1.0
  C  C1030  1  0.748120  0.757010  0.250000  1.0
  C  C1031  1  0.008890  0.251880  0.250000  1.0
  C  C1032  1  0.242990  0.991110  0.250000  1.0
  C  C1033  1  0.222070  0.261290  0.750000  1.0
  C  C1034  1  0.039220  0.777930  0.750000  1.0
  C  C1035  1  0.738710  0.960780  0.750000  1.0
  C  C1036  1  0.777930  0.738710  0.250000  1.0
  C  C1037  1  0.960780  0.222070  0.250000  1.0
  C  C1038  1  0.261290  0.039220  0.250000  1.0
  C  C1039  1  0.173960  0.231490  0.750000  1.0
  C  C1040  1  0.057530  0.826040  0.750000  1.0
  C  C1041  1  0.768510  0.942470  0.750000  1.0
  C  C1042  1  0.826040  0.768510  0.250000  1.0
  C  C1043  1  0.942470  0.173960  0.250000  1.0
  C  C1044  1  0.231490  0.057530  0.250000  1.0
  C  C1045  1  0.144160  0.249800  0.750000  1.0
  C  C1046  1  0.105640  0.855840  0.750000  1.0
  C  C1047  1  0.750200  0.894360  0.750000  1.0
  C  C1048  1  0.855840  0.750200  0.250000  1.0
  C  C1049  1  0.894360  0.144160  0.250000  1.0
  C  C1050  1  0.249800  0.105640  0.250000  1.0
  C  C1051  1  0.302700  0.274800  0.750000  1.0
  C  C1052  1  0.972100  0.697300  0.750000  1.0
  C  C1053  1  0.725200  0.027900  0.750000  1.0
  C  C1054  1  0.697300  0.725200  0.250000  1.0
  C  C1055  1  0.027900  0.302700  0.250000  1.0
  C  C1056  1  0.274800  0.972100  0.250000  1.0
  C  C1057  1  0.906100  0.510200  0.750000  1.0
  C  C1058  1  0.604100  0.093900  0.750000  1.0
  C  C1059  1  0.489800  0.395900  0.750000  1.0
  C  C1060  1  0.093900  0.489800  0.250000  1.0
  C  C1061  1  0.395900  0.906100  0.250000  1.0
  C  C1062  1  0.510200  0.604100  0.250000  1.0
  C  C1063  1  0.887300  0.459140  0.750000  1.0
  C  C1064  1  0.571840  0.112700  0.750000  1.0
  C  C1065  1  0.540860  0.428160  0.750000  1.0
  C  C1066  1  0.112700  0.540860  0.250000  1.0
  C  C1067  1  0.428160  0.887300  0.250000  1.0
  C  C1068  1  0.459140  0.571840  0.250000  1.0
  C  C1069  1  0.839260  0.428930  0.750000  1.0
  C  C1070  1  0.589670  0.160740  0.750000  1.0
  C  C1071  1  0.571070  0.410330  0.750000  1.0
  C  C1072  1  0.160740  0.571070  0.250000  1.0
  C  C1073  1  0.410330  0.839260  0.250000  1.0
  C  C1074  1  0.428930  0.589670  0.250000  1.0
  C  C1075  1  0.821430  0.380900  0.750000  1.0
  C  C1076  1  0.559470  0.178570  0.750000  1.0
  C  C1077  1  0.619100  0.440530  0.750000  1.0
  C  C1078  1  0.178570  0.619100  0.250000  1.0
  C  C1079  1  0.440530  0.821430  0.250000  1.0
  C  C1080  1  0.380900  0.559470  0.250000  1.0
  C  C1081  1  0.851620  0.363040  0.750000  1.0
  C  C1082  1  0.511420  0.148380  0.750000  1.0
  C  C1083  1  0.636960  0.488580  0.750000  1.0
  C  C1084  1  0.148380  0.636960  0.250000  1.0
  C  C1085  1  0.488580  0.851620  0.250000  1.0
  C  C1086  1  0.363040  0.511420  0.250000  1.0
  C  C1087  1  0.833810  0.315000  0.750000  1.0
  C  C1088  1  0.481190  0.166190  0.750000  1.0
  C  C1089  1  0.685000  0.518810  0.750000  1.0
  C  C1090  1  0.166190  0.685000  0.250000  1.0
  C  C1091  1  0.518810  0.833810  0.250000  1.0
  C  C1092  1  0.315000  0.481190  0.250000  1.0
  C  C1093  1  0.864030  0.297190  0.750000  1.0
  C  C1094  1  0.433160  0.135970  0.750000  1.0
  C  C1095  1  0.702810  0.566840  0.750000  1.0
  C  C1096  1  0.135970  0.702810  0.250000  1.0
  C  C1097  1  0.566840  0.864030  0.250000  1.0
  C  C1098  1  0.297190  0.433160  0.250000  1.0
  C  C1099  1  0.912070  0.327410  0.750000  1.0
  C  C1100  1  0.415340  0.087930  0.750000  1.0
  C  C1101  1  0.672590  0.584660  0.750000  1.0
  C  C1102  1  0.087930  0.672590  0.250000  1.0
  C  C1103  1  0.584660  0.912070  0.250000  1.0
  C  C1104  1  0.327410  0.415340  0.250000  1.0
  C  C1105  1  0.929880  0.375450  0.750000  1.0
  C  C1106  1  0.445570  0.070120  0.750000  1.0
  C  C1107  1  0.624550  0.554430  0.750000  1.0
  C  C1108  1  0.070120  0.624550  0.250000  1.0
  C  C1109  1  0.554430  0.929880  0.250000  1.0
  C  C1110  1  0.375450  0.445570  0.250000  1.0
  C  C1111  1  0.899660  0.393250  0.750000  1.0
  C  C1112  1  0.493590  0.100340  0.750000  1.0
  C  C1113  1  0.606750  0.506410  0.750000  1.0
  C  C1114  1  0.100340  0.606750  0.250000  1.0
  C  C1115  1  0.506410  0.899660  0.250000  1.0
  C  C1116  1  0.393250  0.493590  0.250000  1.0
  C  C1117  1  0.917490  0.441290  0.750000  1.0
  C  C1118  1  0.523800  0.082510  0.750000  1.0
  C  C1119  1  0.558710  0.476200  0.750000  1.0
  C  C1120  1  0.082510  0.558710  0.250000  1.0
  C  C1121  1  0.476200  0.917490  0.250000  1.0
  C  C1122  1  0.441290  0.523800  0.250000  1.0
  C  C1123  1  0.944400  0.307100  0.750000  1.0
  C  C1124  1  0.362700  0.055600  0.750000  1.0
  C  C1125  1  0.692900  0.637300  0.750000  1.0
  C  C1126  1  0.055600  0.692900  0.250000  1.0
  C  C1127  1  0.637300  0.944400  0.250000  1.0
  C  C1128  1  0.307100  0.362700  0.250000  1.0
  C  C1129  1  0.011860  0.269640  0.828000  1.0
  C  C1130  1  0.257780  0.988140  0.828000  1.0
  C  C1131  1  0.730360  0.742220  0.828000  1.0
  C  C1132  1  0.988140  0.730360  0.328000  1.0
  C  C1133  1  0.742220  0.011860  0.328000  1.0
  C  C1134  1  0.269640  0.257780  0.328000  1.0
  C  C1135  1  0.988140  0.730360  0.172000  1.0
  C  C1136  1  0.742220  0.011860  0.172000  1.0
  C  C1137  1  0.269640  0.257780  0.172000  1.0
  C  C1138  1  0.011860  0.269640  0.672000  1.0
  C  C1139  1  0.257780  0.988140  0.672000  1.0
  C  C1140  1  0.730360  0.742220  0.672000  1.0
  C  C1141  1  0.028110  0.263450  0.868120  1.0
  C  C1142  1  0.235340  0.971890  0.868120  1.0
  C  C1143  1  0.736550  0.764660  0.868120  1.0
  C  C1144  1  0.971890  0.736550  0.368120  1.0
  C  C1145  1  0.764660  0.028110  0.368120  1.0
  C  C1146  1  0.263450  0.235340  0.368120  1.0
  C  C1147  1  0.971890  0.736550  0.131880  1.0
  C  C1148  1  0.764660  0.028110  0.131880  1.0
  C  C1149  1  0.263450  0.235340  0.131880  1.0
  C  C1150  1  0.028110  0.263450  0.631880  1.0
  C  C1151  1  0.235340  0.971890  0.631880  1.0
  C  C1152  1  0.736550  0.764660  0.631880  1.0
  C  C1153  1  0.003310  0.219950  0.886150  1.0
  C  C1154  1  0.216640  0.996690  0.886150  1.0
  C  C1155  1  0.780050  0.783360  0.886150  1.0
  C  C1156  1  0.996690  0.780050  0.386150  1.0
  C  C1157  1  0.783360  0.003310  0.386150  1.0
  C  C1158  1  0.219950  0.216640  0.386150  1.0
  C  C1159  1  0.996690  0.780050  0.113850  1.0
  C  C1160  1  0.783360  0.003310  0.113850  1.0
  C  C1161  1  0.219950  0.216640  0.113850  1.0
  C  C1162  1  0.003310  0.219950  0.613850  1.0
  C  C1163  1  0.216640  0.996690  0.613850  1.0
  C  C1164  1  0.780050  0.783360  0.613850  1.0
  C  C1165  1  0.016950  0.212580  0.923060  1.0
  C  C1166  1  0.195630  0.983050  0.923060  1.0
  C  C1167  1  0.787420  0.804370  0.923060  1.0
  C  C1168  1  0.983050  0.787420  0.423060  1.0
  C  C1169  1  0.804370  0.016950  0.423060  1.0
  C  C1170  1  0.212580  0.195630  0.423060  1.0
  C  C1171  1  0.983050  0.787420  0.076940  1.0
  C  C1172  1  0.804370  0.016950  0.076940  1.0
  C  C1173  1  0.212580  0.195630  0.076940  1.0
  C  C1174  1  0.016950  0.212580  0.576940  1.0
  C  C1175  1  0.195630  0.983050  0.576940  1.0
  C  C1176  1  0.787420  0.804370  0.576940  1.0
  C  C1177  1  0.055400  0.248700  0.941970  1.0
  C  C1178  1  0.193300  0.944600  0.941970  1.0
  C  C1179  1  0.751300  0.806700  0.941970  1.0
  C  C1180  1  0.944600  0.751300  0.441970  1.0
  C  C1181  1  0.806700  0.055400  0.441970  1.0
  C  C1182  1  0.248700  0.193300  0.441970  1.0
  C  C1183  1  0.944600  0.751300  0.058030  1.0
  C  C1184  1  0.806700  0.055400  0.058030  1.0
  C  C1185  1  0.248700  0.193300  0.058030  1.0
  C  C1186  1  0.055400  0.248700  0.558030  1.0
  C  C1187  1  0.193300  0.944600  0.558030  1.0
  C  C1188  1  0.751300  0.806700  0.558030  1.0
  C  C1189  1  0.069040  0.241330  0.978890  1.0
  C  C1190  1  0.172290  0.930960  0.978890  1.0
  C  C1191  1  0.758670  0.827710  0.978890  1.0
  C  C1192  1  0.930960  0.758670  0.478890  1.0
  C  C1193  1  0.827710  0.069040  0.478890  1.0
  C  C1194  1  0.241330  0.172290  0.478890  1.0
  C  C1195  1  0.930960  0.758670  0.021110  1.0
  C  C1196  1  0.827710  0.069040  0.021110  1.0
  C  C1197  1  0.241330  0.172290  0.021110  1.0
  C  C1198  1  0.069040  0.241330  0.521110  1.0
  C  C1199  1  0.172290  0.930960  0.521110  1.0
  C  C1200  1  0.758670  0.827710  0.521110  1.0
  C  C1201  1  0.107490  0.277450  0.997800  1.0
  C  C1202  1  0.169960  0.892510  0.997800  1.0
  C  C1203  1  0.722550  0.830040  0.997800  1.0
  C  C1204  1  0.892510  0.722550  0.497800  1.0
  C  C1205  1  0.830040  0.107490  0.497800  1.0
  C  C1206  1  0.277450  0.169960  0.497800  1.0
  C  C1207  1  0.892510  0.722550  0.002200  1.0
  C  C1208  1  0.830040  0.107490  0.002200  1.0
  C  C1209  1  0.277450  0.169960  0.002200  1.0
  C  C1210  1  0.107490  0.277450  0.502200  1.0
  C  C1211  1  0.169960  0.892510  0.502200  1.0
  C  C1212  1  0.722550  0.830040  0.502200  1.0
  C  C1213  1  0.132310  0.320970  0.979780  1.0
  C  C1214  1  0.188660  0.867690  0.979780  1.0
  C  C1215  1  0.679030  0.811340  0.979780  1.0
  C  C1216  1  0.867690  0.679030  0.479780  1.0
  C  C1217  1  0.811340  0.132310  0.479780  1.0
  C  C1218  1  0.320970  0.188660  0.479780  1.0
  C  C1219  1  0.867690  0.679030  0.020220  1.0
  C  C1220  1  0.811340  0.132310  0.020220  1.0
  C  C1221  1  0.320970  0.188660  0.020220  1.0
  C  C1222  1  0.132310  0.320970  0.520220  1.0
  C  C1223  1  0.188660  0.867690  0.520220  1.0
  C  C1224  1  0.679030  0.811340  0.520220  1.0
  C  C1225  1  0.118660  0.328340  0.942870  1.0
  C  C1226  1  0.209680  0.881340  0.942870  1.0
  C  C1227  1  0.671660  0.790320  0.942870  1.0
  C  C1228  1  0.881340  0.671660  0.442870  1.0
  C  C1229  1  0.790320  0.118660  0.442870  1.0
  C  C1230  1  0.328340  0.209680  0.442870  1.0
  C  C1231  1  0.881340  0.671660  0.057130  1.0
  C  C1232  1  0.790320  0.118660  0.057130  1.0
  C  C1233  1  0.328340  0.209680  0.057130  1.0
  C  C1234  1  0.118660  0.328340  0.557130  1.0
  C  C1235  1  0.209680  0.881340  0.557130  1.0
  C  C1236  1  0.671660  0.790320  0.557130  1.0
  C  C1237  1  0.080210  0.292210  0.923950  1.0
  C  C1238  1  0.212000  0.919790  0.923950  1.0
  C  C1239  1  0.707790  0.788000  0.923950  1.0
  C  C1240  1  0.919790  0.707790  0.423950  1.0
  C  C1241  1  0.788000  0.080210  0.423950  1.0
  C  C1242  1  0.292210  0.212000  0.423950  1.0
  C  C1243  1  0.919790  0.707790  0.076050  1.0
  C  C1244  1  0.788000  0.080210  0.076050  1.0
  C  C1245  1  0.292210  0.212000  0.076050  1.0
  C  C1246  1  0.080210  0.292210  0.576050  1.0
  C  C1247  1  0.212000  0.919790  0.576050  1.0
  C  C1248  1  0.707790  0.788000  0.576050  1.0
  C  C1249  1  0.066560  0.299580  0.887040  1.0
  C  C1250  1  0.233020  0.933440  0.887040  1.0
  C  C1251  1  0.700420  0.766980  0.887040  1.0
  C  C1252  1  0.933440  0.700420  0.387040  1.0
  C  C1253  1  0.766980  0.066560  0.387040  1.0
  C  C1254  1  0.299580  0.233020  0.387040  1.0
  C  C1255  1  0.933440  0.700420  0.112960  1.0
  C  C1256  1  0.766980  0.066560  0.112960  1.0
  C  C1257  1  0.299580  0.233020  0.112960  1.0
  C  C1258  1  0.066560  0.299580  0.612960  1.0
  C  C1259  1  0.233020  0.933440  0.612960  1.0
  C  C1260  1  0.700420  0.766980  0.612960  1.0
  C  C1261  1  0.174140  0.360540  0.000000  1.0
  C  C1262  1  0.186400  0.825860  0.000000  1.0
  C  C1263  1  0.639460  0.813600  0.000000  1.0
  C  C1264  1  0.825860  0.639460  0.500000  1.0
  C  C1265  1  0.813600  0.174140  0.500000  1.0
  C  C1266  1  0.360540  0.186400  0.500000  1.0
  C  C1267  1  0.825860  0.639460  0.000000  1.0
  C  C1268  1  0.813600  0.174140  0.000000  1.0
  C  C1269  1  0.360540  0.186400  0.000000  1.0
  C  C1270  1  0.174140  0.360540  0.500000  1.0
  C  C1271  1  0.186400  0.825860  0.500000  1.0
  C  C1272  1  0.639460  0.813600  0.500000  1.0
  C  C1273  1  0.212840  0.473040  0.071500  1.0
  C  C1274  1  0.260200  0.787160  0.071500  1.0
  C  C1275  1  0.526960  0.739800  0.071500  1.0
  C  C1276  1  0.787160  0.526960  0.571500  1.0
  C  C1277  1  0.739800  0.212840  0.571500  1.0
  C  C1278  1  0.473040  0.260200  0.571500  1.0
  C  C1279  1  0.787160  0.526960  0.928500  1.0
  C  C1280  1  0.739800  0.212840  0.928500  1.0
  C  C1281  1  0.473040  0.260200  0.928500  1.0
  C  C1282  1  0.212840  0.473040  0.428500  1.0
  C  C1283  1  0.260200  0.787160  0.428500  1.0
  C  C1284  1  0.526960  0.739800  0.428500  1.0
  C  C1285  1  0.197300  0.502640  0.093400  1.0
  C  C1286  1  0.305340  0.802700  0.093400  1.0
  C  C1287  1  0.497360  0.694660  0.093400  1.0
  C  C1288  1  0.802700  0.497360  0.593400  1.0
  C  C1289  1  0.694660  0.197300  0.593400  1.0
  C  C1290  1  0.502640  0.305340  0.593400  1.0
  C  C1291  1  0.802700  0.497360  0.906600  1.0
  C  C1292  1  0.694660  0.197300  0.906600  1.0
  C  C1293  1  0.502640  0.305340  0.906600  1.0
  C  C1294  1  0.197300  0.502640  0.406600  1.0
  C  C1295  1  0.305340  0.802700  0.406600  1.0
  C  C1296  1  0.497360  0.694660  0.406600  1.0
  C  C1297  1  0.180840  0.492500  0.132100  1.0
  C  C1298  1  0.311660  0.819160  0.132100  1.0
  C  C1299  1  0.507500  0.688340  0.132100  1.0
  C  C1300  1  0.819160  0.507500  0.632100  1.0
  C  C1301  1  0.688340  0.180840  0.632100  1.0
  C  C1302  1  0.492500  0.311660  0.632100  1.0
  C  C1303  1  0.819160  0.507500  0.867900  1.0
  C  C1304  1  0.688340  0.180840  0.867900  1.0
  C  C1305  1  0.492500  0.311660  0.867900  1.0
  C  C1306  1  0.180840  0.492500  0.367900  1.0
  C  C1307  1  0.311660  0.819160  0.367900  1.0
  C  C1308  1  0.507500  0.688340  0.367900  1.0
  C  C1309  1  0.166850  0.520650  0.151310  1.0
  C  C1310  1  0.353800  0.833150  0.151310  1.0
  C  C1311  1  0.479350  0.646200  0.151310  1.0
  C  C1312  1  0.833150  0.479350  0.651310  1.0
  C  C1313  1  0.646200  0.166850  0.651310  1.0
  C  C1314  1  0.520650  0.353800  0.651310  1.0
  C  C1315  1  0.833150  0.479350  0.848690  1.0
  C  C1316  1  0.646200  0.166850  0.848690  1.0
  C  C1317  1  0.520650  0.353800  0.848690  1.0
  C  C1318  1  0.166850  0.520650  0.348690  1.0
  C  C1319  1  0.353800  0.833150  0.348690  1.0
  C  C1320  1  0.479350  0.646200  0.348690  1.0
  C  C1321  1  0.169320  0.558910  0.131960  1.0
  C  C1322  1  0.389590  0.830680  0.131960  1.0
  C  C1323  1  0.441090  0.610410  0.131960  1.0
  C  C1324  1  0.830680  0.441090  0.631960  1.0
  C  C1325  1  0.610410  0.169320  0.631960  1.0
  C  C1326  1  0.558910  0.389590  0.631960  1.0
  C  C1327  1  0.830680  0.441090  0.868040  1.0
  C  C1328  1  0.610410  0.169320  0.868040  1.0
  C  C1329  1  0.558910  0.389590  0.868040  1.0
  C  C1330  1  0.169320  0.558910  0.368040  1.0
  C  C1331  1  0.389590  0.830680  0.368040  1.0
  C  C1332  1  0.441090  0.610410  0.368040  1.0
  C  C1333  1  0.155300  0.587020  0.151210  1.0
  C  C1334  1  0.431720  0.844700  0.151210  1.0
  C  C1335  1  0.412980  0.568280  0.151210  1.0
  C  C1336  1  0.844700  0.412980  0.651210  1.0
  C  C1337  1  0.568280  0.155300  0.651210  1.0
  C  C1338  1  0.587020  0.431720  0.651210  1.0
  C  C1339  1  0.844700  0.412980  0.848790  1.0
  C  C1340  1  0.568280  0.155300  0.848790  1.0
  C  C1341  1  0.587020  0.431720  0.848790  1.0
  C  C1342  1  0.155300  0.587020  0.348790  1.0
  C  C1343  1  0.431720  0.844700  0.348790  1.0
  C  C1344  1  0.412980  0.568280  0.348790  1.0
  C  C1345  1  0.157810  0.625330  0.131900  1.0
  C  C1346  1  0.467520  0.842190  0.131900  1.0
  C  C1347  1  0.374670  0.532480  0.131900  1.0
  C  C1348  1  0.842190  0.374670  0.631900  1.0
  C  C1349  1  0.532480  0.157810  0.631900  1.0
  C  C1350  1  0.625330  0.467520  0.631900  1.0
  C  C1351  1  0.842190  0.374670  0.868100  1.0
  C  C1352  1  0.532480  0.157810  0.868100  1.0
  C  C1353  1  0.625330  0.467520  0.868100  1.0
  C  C1354  1  0.157810  0.625330  0.368100  1.0
  C  C1355  1  0.467520  0.842190  0.368100  1.0
  C  C1356  1  0.374670  0.532480  0.368100  1.0
  C  C1357  1  0.174270  0.635470  0.093200  1.0
  C  C1358  1  0.461200  0.825730  0.093200  1.0
  C  C1359  1  0.364530  0.538800  0.093200  1.0
  C  C1360  1  0.825730  0.364530  0.593200  1.0
  C  C1361  1  0.538800  0.174270  0.593200  1.0
  C  C1362  1  0.635470  0.461200  0.593200  1.0
  C  C1363  1  0.825730  0.364530  0.906800  1.0
  C  C1364  1  0.538800  0.174270  0.906800  1.0
  C  C1365  1  0.635470  0.461200  0.906800  1.0
  C  C1366  1  0.174270  0.635470  0.406800  1.0
  C  C1367  1  0.461200  0.825730  0.406800  1.0
  C  C1368  1  0.364530  0.538800  0.406800  1.0
  C  C1369  1  0.188250  0.607350  0.073990  1.0
  C  C1370  1  0.419100  0.811750  0.073990  1.0
  C  C1371  1  0.392650  0.580900  0.073990  1.0
  C  C1372  1  0.811750  0.392650  0.573990  1.0
  C  C1373  1  0.580900  0.188250  0.573990  1.0
  C  C1374  1  0.607350  0.419100  0.573990  1.0
  C  C1375  1  0.811750  0.392650  0.926010  1.0
  C  C1376  1  0.580900  0.188250  0.926010  1.0
  C  C1377  1  0.607350  0.419100  0.926010  1.0
  C  C1378  1  0.188250  0.607350  0.426010  1.0
  C  C1379  1  0.419100  0.811750  0.426010  1.0
  C  C1380  1  0.392650  0.580900  0.426010  1.0
  C  C1381  1  0.185780  0.569050  0.093340  1.0
  C  C1382  1  0.383270  0.814220  0.093340  1.0
  C  C1383  1  0.430950  0.616730  0.093340  1.0
  C  C1384  1  0.814220  0.430950  0.593340  1.0
  C  C1385  1  0.616730  0.185780  0.593340  1.0
  C  C1386  1  0.569050  0.383270  0.593340  1.0
  C  C1387  1  0.814220  0.430950  0.906660  1.0
  C  C1388  1  0.616730  0.185780  0.906660  1.0
  C  C1389  1  0.569050  0.383270  0.906660  1.0
  C  C1390  1  0.185780  0.569050  0.406660  1.0
  C  C1391  1  0.383270  0.814220  0.406660  1.0
  C  C1392  1  0.430950  0.616730  0.406660  1.0
  C  C1393  1  0.199770  0.540870  0.074090  1.0
  C  C1394  1  0.341100  0.800230  0.074090  1.0
  C  C1395  1  0.459130  0.658900  0.074090  1.0
  C  C1396  1  0.800230  0.459130  0.574090  1.0
  C  C1397  1  0.658900  0.199770  0.574090  1.0
  C  C1398  1  0.540870  0.341100  0.574090  1.0
  C  C1399  1  0.800230  0.459130  0.925910  1.0
  C  C1400  1  0.658900  0.199770  0.925910  1.0
  C  C1401  1  0.540870  0.341100  0.925910  1.0
  C  C1402  1  0.199770  0.540870  0.425910  1.0
  C  C1403  1  0.341100  0.800230  0.425910  1.0
  C  C1404  1  0.459130  0.658900  0.425910  1.0
  C  C1405  1  0.176500  0.677300  0.073100  1.0
  C  C1406  1  0.500800  0.823500  0.073100  1.0
  C  C1407  1  0.322700  0.499200  0.073100  1.0
  C  C1408  1  0.823500  0.322700  0.573100  1.0
  C  C1409  1  0.499200  0.176500  0.573100  1.0
  C  C1410  1  0.677300  0.500800  0.573100  1.0
  C  C1411  1  0.823500  0.322700  0.926900  1.0
  C  C1412  1  0.499200  0.176500  0.926900  1.0
  C  C1413  1  0.677300  0.500800  0.926900  1.0
  C  C1414  1  0.176500  0.677300  0.426900  1.0
  C  C1415  1  0.500800  0.823500  0.426900  1.0
  C  C1416  1  0.322700  0.499200  0.426900  1.0
  C  C1417  1  0.301690  0.396810  0.006500  1.0
  C  C1418  1  0.095120  0.698310  0.006500  1.0
  C  C1419  1  0.603190  0.904880  0.006500  1.0
  C  C1420  1  0.698310  0.603190  0.506500  1.0
  C  C1421  1  0.904880  0.301690  0.506500  1.0
  C  C1422  1  0.396810  0.095120  0.506500  1.0
  C  C1423  1  0.698310  0.603190  0.993500  1.0
  C  C1424  1  0.904880  0.301690  0.993500  1.0
  C  C1425  1  0.396810  0.095120  0.993500  1.0
  C  C1426  1  0.301690  0.396810  0.493500  1.0
  C  C1427  1  0.095120  0.698310  0.493500  1.0
  C  C1428  1  0.603190  0.904880  0.493500  1.0
  C  C1429  1  0.326470  0.372990  0.989150  1.0
  C  C1430  1  0.046520  0.673530  0.989150  1.0
  C  C1431  1  0.627010  0.953480  0.989150  1.0
  C  C1432  1  0.673530  0.627010  0.489150  1.0
  C  C1433  1  0.953480  0.326470  0.489150  1.0
  C  C1434  1  0.372990  0.046520  0.489150  1.0
  C  C1435  1  0.673530  0.627010  0.010850  1.0
  C  C1436  1  0.953480  0.326470  0.010850  1.0
  C  C1437  1  0.372990  0.046520  0.010850  1.0
  C  C1438  1  0.326470  0.372990  0.510850  1.0
  C  C1439  1  0.046520  0.673530  0.510850  1.0
  C  C1440  1  0.627010  0.953480  0.510850  1.0
  C  C1441  1  0.342880  0.350080  0.013100  1.0
  C  C1442  1  0.007200  0.657120  0.013100  1.0
  C  C1443  1  0.649920  0.992800  0.013100  1.0
  C  C1444  1  0.657120  0.649920  0.513100  1.0
  C  C1445  1  0.992800  0.342880  0.513100  1.0
  C  C1446  1  0.350080  0.007200  0.513100  1.0
  C  C1447  1  0.657120  0.649920  0.986900  1.0
  C  C1448  1  0.992800  0.342880  0.986900  1.0
  C  C1449  1  0.350080  0.007200  0.986900  1.0
  C  C1450  1  0.342880  0.350080  0.486900  1.0
  C  C1451  1  0.007200  0.657120  0.486900  1.0
  C  C1452  1  0.649920  0.992800  0.486900  1.0
  C  C1453  1  0.365600  0.328490  0.996330  1.0
  C  C1454  1  0.962890  0.634400  0.996330  1.0
  C  C1455  1  0.671510  0.037110  0.996330  1.0
  C  C1456  1  0.634400  0.671510  0.496330  1.0
  C  C1457  1  0.037110  0.365600  0.496330  1.0
  C  C1458  1  0.328490  0.962890  0.496330  1.0
  C  C1459  1  0.634400  0.671510  0.003670  1.0
  C  C1460  1  0.037110  0.365600  0.003670  1.0
  C  C1461  1  0.328490  0.962890  0.003670  1.0
  C  C1462  1  0.365600  0.328490  0.503670  1.0
  C  C1463  1  0.962890  0.634400  0.503670  1.0
  C  C1464  1  0.671510  0.037110  0.503670  1.0
  C  C1465  1  0.371840  0.329670  0.955620  1.0
  C  C1466  1  0.957830  0.628160  0.955620  1.0
  C  C1467  1  0.670330  0.042170  0.955620  1.0
  C  C1468  1  0.628160  0.670330  0.455620  1.0
  C  C1469  1  0.042170  0.371840  0.455620  1.0
  C  C1470  1  0.329670  0.957830  0.455620  1.0
  C  C1471  1  0.628160  0.670330  0.044380  1.0
  C  C1472  1  0.042170  0.371840  0.044380  1.0
  C  C1473  1  0.329670  0.957830  0.044380  1.0
  C  C1474  1  0.371840  0.329670  0.544380  1.0
  C  C1475  1  0.957830  0.628160  0.544380  1.0
  C  C1476  1  0.670330  0.042170  0.544380  1.0
  C  C1477  1  0.394500  0.308010  0.938820  1.0
  C  C1478  1  0.913510  0.605500  0.938820  1.0
  C  C1479  1  0.691990  0.086490  0.938820  1.0
  C  C1480  1  0.605500  0.691990  0.438820  1.0
  C  C1481  1  0.086490  0.394500  0.438820  1.0
  C  C1482  1  0.308010  0.913510  0.438820  1.0
  C  C1483  1  0.605500  0.691990  0.061180  1.0
  C  C1484  1  0.086490  0.394500  0.061180  1.0
  C  C1485  1  0.308010  0.913510  0.061180  1.0
  C  C1486  1  0.394500  0.308010  0.561180  1.0
  C  C1487  1  0.913510  0.605500  0.561180  1.0
  C  C1488  1  0.691990  0.086490  0.561180  1.0
  C  C1489  1  0.400790  0.309290  0.898130  1.0
  C  C1490  1  0.908500  0.599210  0.898130  1.0
  C  C1491  1  0.690710  0.091500  0.898130  1.0
  C  C1492  1  0.599210  0.690710  0.398130  1.0
  C  C1493  1  0.091500  0.400790  0.398130  1.0
  C  C1494  1  0.309290  0.908500  0.398130  1.0
  C  C1495  1  0.599210  0.690710  0.101870  1.0
  C  C1496  1  0.091500  0.400790  0.101870  1.0
  C  C1497  1  0.309290  0.908500  0.101870  1.0
  C  C1498  1  0.400790  0.309290  0.601870  1.0
  C  C1499  1  0.908500  0.599210  0.601870  1.0
  C  C1500  1  0.690710  0.091500  0.601870  1.0
  C  C1501  1  0.384390  0.332190  0.874160  1.0
  C  C1502  1  0.947800  0.615610  0.874160  1.0
  C  C1503  1  0.667810  0.052200  0.874160  1.0
  C  C1504  1  0.615610  0.667810  0.374160  1.0
  C  C1505  1  0.052200  0.384390  0.374160  1.0
  C  C1506  1  0.332190  0.947800  0.374160  1.0
  C  C1507  1  0.615610  0.667810  0.125840  1.0
  C  C1508  1  0.052200  0.384390  0.125840  1.0
  C  C1509  1  0.332190  0.947800  0.125840  1.0
  C  C1510  1  0.384390  0.332190  0.625840  1.0
  C  C1511  1  0.947800  0.615610  0.625840  1.0
  C  C1512  1  0.667810  0.052200  0.625840  1.0
  C  C1513  1  0.361710  0.353810  0.890970  1.0
  C  C1514  1  0.992100  0.638290  0.890970  1.0
  C  C1515  1  0.646190  0.007900  0.890970  1.0
  C  C1516  1  0.638290  0.646190  0.390970  1.0
  C  C1517  1  0.007900  0.361710  0.390970  1.0
  C  C1518  1  0.353810  0.992100  0.390970  1.0
  C  C1519  1  0.638290  0.646190  0.109030  1.0
  C  C1520  1  0.007900  0.361710  0.109030  1.0
  C  C1521  1  0.353810  0.992100  0.109030  1.0
  C  C1522  1  0.361710  0.353810  0.609030  1.0
  C  C1523  1  0.992100  0.638290  0.609030  1.0
  C  C1524  1  0.646190  0.007900  0.609030  1.0
  C  C1525  1  0.355430  0.352560  0.931670  1.0
  C  C1526  1  0.997130  0.644570  0.931670  1.0
  C  C1527  1  0.647440  0.002870  0.931670  1.0
  C  C1528  1  0.644570  0.647440  0.431670  1.0
  C  C1529  1  0.002870  0.355430  0.431670  1.0
  C  C1530  1  0.352560  0.997130  0.431670  1.0
  C  C1531  1  0.644570  0.647440  0.068330  1.0
  C  C1532  1  0.002870  0.355430  0.068330  1.0
  C  C1533  1  0.352560  0.997130  0.068330  1.0
  C  C1534  1  0.355430  0.352560  0.568330  1.0
  C  C1535  1  0.997130  0.644570  0.568330  1.0
  C  C1536  1  0.647440  0.002870  0.568330  1.0
  C  C1537  1  0.332750  0.374210  0.948450  1.0
  C  C1538  1  0.041460  0.667250  0.948450  1.0
  C  C1539  1  0.625790  0.958540  0.948450  1.0
  C  C1540  1  0.667250  0.625790  0.448450  1.0
  C  C1541  1  0.958540  0.332750  0.448450  1.0
  C  C1542  1  0.374210  0.041460  0.448450  1.0
  C  C1543  1  0.667250  0.625790  0.051550  1.0
  C  C1544  1  0.958540  0.332750  0.051550  1.0
  C  C1545  1  0.374210  0.041460  0.051550  1.0
  C  C1546  1  0.332750  0.374210  0.551550  1.0
  C  C1547  1  0.041460  0.667250  0.551550  1.0
  C  C1548  1  0.625790  0.958540  0.551550  1.0
  C  C1549  1  0.391450  0.333150  0.829950  1.0
  C  C1550  1  0.941700  0.608550  0.829950  1.0
  C  C1551  1  0.666850  0.058300  0.829950  1.0
  C  C1552  1  0.608550  0.666850  0.329950  1.0
  C  C1553  1  0.058300  0.391450  0.329950  1.0
  C  C1554  1  0.333150  0.941700  0.329950  1.0
  C  C1555  1  0.608550  0.666850  0.170050  1.0
  C  C1556  1  0.058300  0.391450  0.170050  1.0
  C  C1557  1  0.333150  0.941700  0.170050  1.0
  C  C1558  1  0.391450  0.333150  0.670050  1.0
  C  C1559  1  0.941700  0.608550  0.670050  1.0
  C  C1560  1  0.666850  0.058300  0.670050  1.0
  O  O1561  1  0.189800  0.397100  0.983600  1
  O  O1562  1  0.207300  0.810200  0.983600  1
  O  O1563  1  0.602900  0.792700  0.983600  1
  O  O1564  1  0.810200  0.602900  0.483600  1
  O  O1565  1  0.792700  0.189800  0.483600  1
  O  O1566  1  0.397100  0.207300  0.483600  1
  O  O1567  1  0.810200  0.602900  0.016400  1
  O  O1568  1  0.792700  0.189800  0.016400  1
  O  O1569  1  0.397100  0.207300  0.016400  1
  O  O1570  1  0.189800  0.397100  0.516400  1
  O  O1571  1  0.207300  0.810200  0.516400  1
  O  O1572  1  0.602900  0.792700  0.516400  1
  O  O1573  1  0.171700  0.351900  0.036500  1
  O  O1574  1  0.180200  0.828300  0.036500  1
  O  O1575  1  0.648100  0.819800  0.036500  1
  O  O1576  1  0.828300  0.648100  0.536500  1
  O  O1577  1  0.819800  0.171700  0.536500  1
  O  O1578  1  0.351900  0.180200  0.536500  1
  O  O1579  1  0.828300  0.648100  0.963500  1
  O  O1580  1  0.819800  0.171700  0.963500  1
  O  O1581  1  0.351900  0.180200  0.963500  1
  O  O1582  1  0.171700  0.351900  0.463500  1
  O  O1583  1  0.180200  0.828300  0.463500  1
  O  O1584  1  0.648100  0.819800  0.463500  1
  O  O1585  1  0.214900  0.478700  0.033000  1
  O  O1586  1  0.263800  0.785100  0.033000  1
  O  O1587  1  0.521300  0.736200  0.033000  1
  O  O1588  1  0.785100  0.521300  0.533000  1
  O  O1589  1  0.736200  0.214900  0.533000  1
  O  O1590  1  0.478700  0.263800  0.533000  1
  O  O1591  1  0.785100  0.521300  0.967000  1
  O  O1592  1  0.736200  0.214900  0.967000  1
  O  O1593  1  0.478700  0.263800  0.967000  1
  O  O1594  1  0.214900  0.478700  0.467000  1
  O  O1595  1  0.263800  0.785100  0.467000  1
  O  O1596  1  0.521300  0.736200  0.467000  1
  O  O1597  1  0.199000  0.436000  0.085300  1
  O  O1598  1  0.237000  0.801000  0.085300  1
  O  O1599  1  0.564000  0.763000  0.085300  1
  O  O1600  1  0.801000  0.564000  0.585300  1
  O  O1601  1  0.763000  0.199000  0.585300  1
  O  O1602  1  0.436000  0.237000  0.585300  1
  O  O1603  1  0.801000  0.564000  0.914700  1
  O  O1604  1  0.763000  0.199000  0.914700  1
  O  O1605  1  0.436000  0.237000  0.914700  1
  O  O1606  1  0.199000  0.436000  0.414700  1
  O  O1607  1  0.237000  0.801000  0.414700  1
  O  O1608  1  0.564000  0.763000  0.414700  1
  O  O1609  1  0.174700  0.679300  0.033400  1
  O  O1610  1  0.504600  0.825300  0.033400  1
  O  O1611  1  0.320700  0.495400  0.033400  1
  O  O1612  1  0.825300  0.320700  0.533400  1
  O  O1613  1  0.495400  0.174700  0.533400  1
  O  O1614  1  0.679300  0.504600  0.533400  1
  O  O1615  1  0.825300  0.320700  0.966600  1
  O  O1616  1  0.495400  0.174700  0.966600  1
  O  O1617  1  0.679300  0.504600  0.966600  1
  O  O1618  1  0.174700  0.679300  0.466600  1
  O  O1619  1  0.504600  0.825300  0.466600  1
  O  O1620  1  0.320700  0.495400  0.466600  1
  O  O1621  1  0.144800  0.693500  0.086700  1
  O  O1622  1  0.548700  0.855200  0.086700  1
  O  O1623  1  0.306500  0.451300  0.086700  1
  O  O1624  1  0.855200  0.306500  0.586700  1
  O  O1625  1  0.451300  0.144800  0.586700  1
  O  O1626  1  0.693500  0.548700  0.586700  1
  O  O1627  1  0.855200  0.306500  0.913300  1
  O  O1628  1  0.451300  0.144800  0.913300  1
  O  O1629  1  0.693500  0.548700  0.913300  1
  O  O1630  1  0.144800  0.693500  0.413300  1
  O  O1631  1  0.548700  0.855200  0.413300  1
  O  O1632  1  0.306500  0.451300  0.413300  1
  O  O1633  1  0.285300  0.410800  0.983900  1
  O  O1634  1  0.125500  0.714700  0.983900  1
  O  O1635  1  0.589200  0.874500  0.983900  1
  O  O1636  1  0.714700  0.589200  0.483900  1
  O  O1637  1  0.874500  0.285300  0.483900  1
  O  O1638  1  0.410800  0.125500  0.483900  1
  O  O1639  1  0.714700  0.589200  0.016100  1
  O  O1640  1  0.874500  0.285300  0.016100  1
  O  O1641  1  0.410800  0.125500  0.016100  1
  O  O1642  1  0.285300  0.410800  0.516100  1
  O  O1643  1  0.125500  0.714700  0.516100  1
  O  O1644  1  0.589200  0.874500  0.516100  1
  O  O1645  1  0.269100  0.366900  0.037600  1
  O  O1646  1  0.097800  0.730900  0.037600  1
  O  O1647  1  0.633100  0.902200  0.037600  1
  O  O1648  1  0.730900  0.633100  0.537600  1
  O  O1649  1  0.902200  0.269100  0.537600  1
  O  O1650  1  0.366900  0.097800  0.537600  1
  O  O1651  1  0.730900  0.633100  0.962400  1
  O  O1652  1  0.902200  0.269100  0.962400  1
  O  O1653  1  0.366900  0.097800  0.962400  1
  O  O1654  1  0.269100  0.366900  0.462400  1
  O  O1655  1  0.097800  0.730900  0.462400  1
  O  O1656  1  0.633100  0.902200  0.462400  1
  O  O1657  1  0.274500  0.497600  0.953310  1
  O  O1658  1  0.223100  0.725500  0.953310  1
  O  O1659  1  0.502400  0.776900  0.953310  1
  O  O1660  1  0.725500  0.502400  0.453310  1
  O  O1661  1  0.776900  0.274500  0.453310  1
  O  O1662  1  0.497600  0.223100  0.453310  1
  O  O1663  1  0.725500  0.502400  0.046690  1
  O  O1664  1  0.776900  0.274500  0.046690  1
  O  O1665  1  0.497600  0.223100  0.046690  1
  O  O1666  1  0.274500  0.497600  0.546690  1
  O  O1667  1  0.223100  0.725500  0.546690  1
  O  O1668  1  0.502400  0.776900  0.546690  1
  O  O1669  1  0.213800  0.352100  0.116410  1
  O  O1670  1  0.138300  0.786200  0.116410  1
  O  O1671  1  0.647900  0.861700  0.116410  1
  O  O1672  1  0.786200  0.647900  0.616410  1
  O  O1673  1  0.861700  0.213800  0.616410  1
  O  O1674  1  0.352100  0.138300  0.616410  1
  O  O1675  1  0.786200  0.647900  0.883590  1
  O  O1676  1  0.861700  0.213800  0.883590  1
  O  O1677  1  0.352100  0.138300  0.883590  1
  O  O1678  1  0.213800  0.352100  0.383590  1
  O  O1679  1  0.138300  0.786200  0.383590  1
  O  O1680  1  0.647900  0.861700  0.383590  1
  O  O1681  1  0.372100  0.426110  0.750000  1
  O  O1682  1  0.054010  0.627900  0.750000  1
  O  O1683  1  0.573890  0.945990  0.750000  1
  O  O1684  1  0.627900  0.573890  0.250000  1
  O  O1685  1  0.945990  0.372100  0.250000  1
  O  O1686  1  0.426110  0.054010  0.250000  1
  O  O1687  1  0.429900  0.251860  0.750000  1
  O  O1688  1  0.821960  0.570100  0.750000  1
  O  O1689  1  0.748140  0.178040  0.750000  1
  O  O1690  1  0.570100  0.748140  0.250000  1
  O  O1691  1  0.178040  0.429900  0.250000  1
  O  O1692  1  0.251860  0.821960  0.250000  1
  O  O1693  1  0.093700  0.388500  0.750000  1
  O  O1694  1  0.294800  0.906300  0.750000  1
  O  O1695  1  0.611500  0.705200  0.750000  1
  O  O1696  1  0.906300  0.611500  0.250000  1
  O  O1697  1  0.705200  0.093700  0.250000  1
  O  O1698  1  0.388500  0.294800  0.250000  1
  O  O1699  1  0.923200  0.155500  0.750000  1
  O  O1700  1  0.232300  0.076800  0.750000  1
  O  O1701  1  0.844500  0.767700  0.750000  1
  O  O1702  1  0.076800  0.844500  0.250000  1
  O  O1703  1  0.767700  0.923200  0.250000  1
  O  O1704  1  0.155500  0.232300  0.250000  1
  O  O1705  1  0.080700  0.283100  0.750000  1.0
  O  O1706  1  0.202400  0.919300  0.750000  1.0
  O  O1707  1  0.716900  0.797600  0.750000  1.0
  O  O1708  1  0.919300  0.716900  0.250000  1.0
  O  O1709  1  0.797600  0.080700  0.250000  1.0
  O  O1710  1  0.283100  0.202400  0.250000  1.0
  O  O1711  1  0.020400  0.211600  0.750000  1.0
  O  O1712  1  0.191200  0.979600  0.750000  1.0
  O  O1713  1  0.788400  0.808800  0.750000  1.0
  O  O1714  1  0.979600  0.788400  0.250000  1.0
  O  O1715  1  0.808800  0.020400  0.250000  1.0
  O  O1716  1  0.211600  0.191200  0.250000  1.0
  O  O1717  1  0.317600  0.318800  0.750000  1.0
  O  O1718  1  0.001200  0.682400  0.750000  1.0
  O  O1719  1  0.681200  0.998800  0.750000  1.0
  O  O1720  1  0.682400  0.681200  0.250000  1.0
  O  O1721  1  0.998800  0.317600  0.250000  1.0
  O  O1722  1  0.318800  0.001200  0.250000  1.0
  O  O1723  1  0.329600  0.258600  0.750000  1.0
  O  O1724  1  0.929000  0.670400  0.750000  1.0
  O  O1725  1  0.741400  0.071000  0.750000  1.0
  O  O1726  1  0.670400  0.741400  0.250000  1.0
  O  O1727  1  0.071000  0.329600  0.250000  1.0
  O  O1728  1  0.258600  0.929000  0.250000  1.0
  O  O1729  1  0.950600  0.537660  0.750000  1.0
  O  O1730  1  0.587060  0.049400  0.750000  1.0
  O  O1731  1  0.462340  0.412940  0.750000  1.0
  O  O1732  1  0.049400  0.462340  0.250000  1.0
  O  O1733  1  0.412940  0.950600  0.250000  1.0
  O  O1734  1  0.537660  0.587060  0.250000  1.0
  O  O1735  1  0.877170  0.524670  0.750000  1.0
  O  O1736  1  0.647500  0.122830  0.750000  1.0
  O  O1737  1  0.475330  0.352500  0.750000  1.0
  O  O1738  1  0.122830  0.475330  0.250000  1.0
  O  O1739  1  0.352500  0.877170  0.250000  1.0
  O  O1740  1  0.524670  0.647500  0.250000  1.0
  O  O1741  1  0.988900  0.335600  0.750000  1.0
  O  O1742  1  0.346700  0.011100  0.750000  1.0
  O  O1743  1  0.664400  0.653300  0.750000  1.0
  O  O1744  1  0.011100  0.664400  0.250000  1.0
  O  O1745  1  0.653300  0.988900  0.250000  1.0
  O  O1746  1  0.335600  0.346700  0.250000  1.0
  O  O1747  1  0.927300  0.263100  0.750000  1.0
  O  O1748  1  0.335800  0.072700  0.750000  1.0
  O  O1749  1  0.736900  0.664200  0.750000  1.0
  O  O1750  1  0.072700  0.736900  0.250000  1.0
  O  O1751  1  0.664200  0.927300  0.250000  1.0
  O  O1752  1  0.263100  0.335800  0.250000  1.0
  O  O1753  1  0.036180  0.308360  0.811570  1.0
  O  O1754  1  0.272180  0.963820  0.811570  1.0
  O  O1755  1  0.691640  0.727820  0.811570  1.0
  O  O1756  1  0.963820  0.691640  0.311570  1.0
  O  O1757  1  0.727820  0.036180  0.311570  1.0
  O  O1758  1  0.308360  0.272180  0.311570  1.0
  O  O1759  1  0.963820  0.691640  0.188430  1.0
  O  O1760  1  0.727820  0.036180  0.188430  1.0
  O  O1761  1  0.308360  0.272180  0.188430  1.0
  O  O1762  1  0.036180  0.308360  0.688430  1.0
  O  O1763  1  0.272180  0.963820  0.688430  1.0
  O  O1764  1  0.691640  0.727820  0.688430  1.0
  O  O1765  1  0.975860  0.237430  0.812300  1.0
  O  O1766  1  0.261570  0.024140  0.812300  1.0
  O  O1767  1  0.762570  0.738430  0.812300  1.0
  O  O1768  1  0.024140  0.762570  0.312300  1.0
  O  O1769  1  0.738430  0.975860  0.312300  1.0
  O  O1770  1  0.237430  0.261570  0.312300  1.0
  O  O1771  1  0.024140  0.762570  0.187700  1.0
  O  O1772  1  0.738430  0.975860  0.187700  1.0
  O  O1773  1  0.237430  0.261570  0.187700  1.0
  O  O1774  1  0.975860  0.237430  0.687700  1.0
  O  O1775  1  0.261570  0.024140  0.687700  1.0
  O  O1776  1  0.762570  0.738430  0.687700  1.0
  O  O1777  1  0.388340  0.364460  0.811760  1.0
  O  O1778  1  0.976120  0.611660  0.811760  1.0
  O  O1779  1  0.635540  0.023880  0.811760  1.0
  O  O1780  1  0.611660  0.635540  0.311760  1.0
  O  O1781  1  0.023880  0.388340  0.311760  1.0
  O  O1782  1  0.364460  0.976120  0.311760  1.0
  O  O1783  1  0.611660  0.635540  0.188240  1.0
  O  O1784  1  0.023880  0.388340  0.188240  1.0
  O  O1785  1  0.364460  0.976120  0.188240  1.0
  O  O1786  1  0.388340  0.364460  0.688240  1.0
  O  O1787  1  0.976120  0.611660  0.688240  1.0
  O  O1788  1  0.635540  0.023880  0.688240  1.0
  O  O1789  1  0.399850  0.304780  0.812420  1.0
  O  O1790  1  0.904930  0.600150  0.812420  1.0
  O  O1791  1  0.695220  0.095070  0.812420  1.0
  O  O1792  1  0.600150  0.695220  0.312420  1.0
  O  O1793  1  0.095070  0.399850  0.312420  1.0
  O  O1794  1  0.304780  0.904930  0.312420  1.0
  O  O1795  1  0.600150  0.695220  0.187580  1.0
  O  O1796  1  0.095070  0.399850  0.187580  1.0
  O  O1797  1  0.304780  0.904930  0.187580  1.0
  O  O1798  1  0.399850  0.304780  0.687580  1.0
  O  O1799  1  0.904930  0.600150  0.687580  1.0
  O  O1800  1  0.695220  0.095070  0.687580  1.0
  O  O1801  1  0.197400  0.398200  0.981900  1.0
  O  O1802  1  0.200800  0.802600  0.981900  1.0
  O  O1803  1  0.601800  0.799200  0.981900  1.0
  O  O1804  1  0.802600  0.601800  0.481900  1.0
  O  O1805  1  0.799200  0.197400  0.481900  1.0
  O  O1806  1  0.398200  0.200800  0.481900  1.0
  O  O1807  1  0.802600  0.601800  0.018100  1.0
  O  O1808  1  0.799200  0.197400  0.018100  1.0
  O  O1809  1  0.398200  0.200800  0.018100  1.0
  O  O1810  1  0.197400  0.398200  0.518100  1.0
  O  O1811  1  0.200800  0.802600  0.518100  1.0
  O  O1812  1  0.601800  0.799200  0.518100  1.0
  O  O1813  1  0.184100  0.354200  0.034300  1.0
  O  O1814  1  0.170100  0.815900  0.034300  1.0
  O  O1815  1  0.645800  0.829900  0.034300  1.0
  O  O1816  1  0.815900  0.645800  0.534300  1.0
  O  O1817  1  0.829900  0.184100  0.534300  1.0
  O  O1818  1  0.354200  0.170100  0.534300  1.0
  O  O1819  1  0.815900  0.645800  0.965700  1.0
  O  O1820  1  0.829900  0.184100  0.965700  1.0
  O  O1821  1  0.354200  0.170100  0.965700  1.0
  O  O1822  1  0.184100  0.354200  0.465700  1.0
  O  O1823  1  0.170100  0.815900  0.465700  1.0
  O  O1824  1  0.645800  0.829900  0.465700  1.0
  O  O1825  1  0.225900  0.484800  0.036600  1.0
  O  O1826  1  0.258900  0.774100  0.036600  1.0
  O  O1827  1  0.515200  0.741100  0.036600  1.0
  O  O1828  1  0.774100  0.515200  0.536600  1.0
  O  O1829  1  0.741100  0.225900  0.536600  1.0
  O  O1830  1  0.484800  0.258900  0.536600  1.0
  O  O1831  1  0.774100  0.515200  0.963400  1.0
  O  O1832  1  0.741100  0.225900  0.963400  1.0
  O  O1833  1  0.484800  0.258900  0.963400  1.0
  O  O1834  1  0.225900  0.484800  0.463400  1.0
  O  O1835  1  0.258900  0.774100  0.463400  1.0
  O  O1836  1  0.515200  0.741100  0.463400  1.0
  O  O1837  1  0.210900  0.439800  0.090700  1.0
  O  O1838  1  0.228900  0.789100  0.090700  1.0
  O  O1839  1  0.560200  0.771100  0.090700  1.0
  O  O1840  1  0.789100  0.560200  0.590700  1.0
  O  O1841  1  0.771100  0.210900  0.590700  1.0
  O  O1842  1  0.439800  0.228900  0.590700  1.0
  O  O1843  1  0.789100  0.560200  0.909300  1.0
  O  O1844  1  0.771100  0.210900  0.909300  1.0
  O  O1845  1  0.439800  0.228900  0.909300  1.0
  O  O1846  1  0.210900  0.439800  0.409300  1.0
  O  O1847  1  0.228900  0.789100  0.409300  1.0
  O  O1848  1  0.560200  0.771100  0.409300  1.0
  O  O1849  1  0.191700  0.686100  0.038500  1.0
  O  O1850  1  0.494400  0.808300  0.038500  1.0
  O  O1851  1  0.313900  0.505600  0.038500  1.0
  O  O1852  1  0.808300  0.313900  0.538500  1.0
  O  O1853  1  0.505600  0.191700  0.538500  1.0
  O  O1854  1  0.686100  0.494400  0.538500  1.0
  O  O1855  1  0.808300  0.313900  0.961500  1.0
  O  O1856  1  0.505600  0.191700  0.961500  1.0
  O  O1857  1  0.686100  0.494400  0.961500  1.0
  O  O1858  1  0.191700  0.686100  0.461500  1.0
  O  O1859  1  0.494400  0.808300  0.461500  1.0
  O  O1860  1  0.313900  0.505600  0.461500  1.0
  O  O1861  1  0.163300  0.701600  0.091400  1.0
  O  O1862  1  0.538300  0.836700  0.091400  1.0
  O  O1863  1  0.298400  0.461700  0.091400  1.0
  O  O1864  1  0.836700  0.298400  0.591400  1.0
  O  O1865  1  0.461700  0.163300  0.591400  1.0
  O  O1866  1  0.701600  0.538300  0.591400  1.0
  O  O1867  1  0.836700  0.298400  0.908600  1.0
  O  O1868  1  0.461700  0.163300  0.908600  1.0
  O  O1869  1  0.701600  0.538300  0.908600  1.0
  O  O1870  1  0.163300  0.701600  0.408600  1.0
  O  O1871  1  0.538300  0.836700  0.408600  1.0
  O  O1872  1  0.298400  0.461700  0.408600  1.0
  O  O1873  1  0.298600  0.427500  0.987300  1.0
  O  O1874  1  0.128900  0.701400  0.987300  1.0
  O  O1875  1  0.572500  0.871100  0.987300  1.0
  O  O1876  1  0.701400  0.572500  0.487300  1.0
  O  O1877  1  0.871100  0.298600  0.487300  1.0
  O  O1878  1  0.427500  0.128900  0.487300  1.0
  O  O1879  1  0.701400  0.572500  0.012700  1.0
  O  O1880  1  0.871100  0.298600  0.012700  1.0
  O  O1881  1  0.427500  0.128900  0.012700  1.0
  O  O1882  1  0.298600  0.427500  0.512700  1.0
  O  O1883  1  0.128900  0.701400  0.512700  1.0
  O  O1884  1  0.572500  0.871100  0.512700  1.0
  O  O1885  1  0.284600  0.384900  0.040400  1.0
  O  O1886  1  0.100300  0.715400  0.040400  1.0
  O  O1887  1  0.615100  0.899700  0.040400  1.0
  O  O1888  1  0.715400  0.615100  0.540400  1.0
  O  O1889  1  0.899700  0.284600  0.540400  1.0
  O  O1890  1  0.384900  0.100300  0.540400  1.0
  O  O1891  1  0.715400  0.615100  0.959600  1.0
  O  O1892  1  0.899700  0.284600  0.959600  1.0
  O  O1893  1  0.384900  0.100300  0.959600  1.0
  O  O1894  1  0.284600  0.384900  0.459600  1.0
  O  O1895  1  0.100300  0.715400  0.459600  1.0
  O  O1896  1  0.615100  0.899700  0.459600  1.0
