# generated using pymatgen
data_Mo6H93C81(N5O19)2
_symmetry_space_group_name_H-M   'P 1'
_cell_length_a   27.58340134
_cell_length_b   27.58340134
_cell_length_c   27.58340134
_cell_angle_alpha   108.46207984
_cell_angle_beta   109.97813533
_cell_angle_gamma   109.97813533
_symmetry_Int_Tables_number   1
_chemical_formula_structural   Mo6H93C81(N5O19)2
_chemical_formula_sum   'Mo24 H372 C324 N40 O152'
_cell_volume   16151.79246952
_cell_formula_units_Z   4
loop_
 _symmetry_equiv_pos_site_id
 _symmetry_equiv_pos_as_xyz
  1  'x, y, z'
loop_
 _atom_site_type_symbol
 _atom_site_label
 _atom_site_symmetry_multiplicity
 _atom_site_fract_x
 _atom_site_fract_y
 _atom_site_fract_z
 _atom_site_occupancy
  C  C1  1  0.607200  0.579970  0.382930  1
  C  C2  1  0.392800  0.775730  0.972770  1
  C  C3  1  0.197040  0.972770  0.579970  1
  C  C4  1  0.802960  0.382930  0.775730  1
  C  C5  1  0.392800  0.420030  0.617070  1
  C  C6  1  0.607200  0.224270  0.027230  1
  C  C7  1  0.802960  0.027230  0.420030  1
  C  C8  1  0.197040  0.617070  0.224270  1
  C  C9  1  0.539570  0.475650  0.309280  1
  C  C10  1  0.460430  0.769710  0.936080  1
  C  C11  1  0.166370  0.936080  0.475650  1
  C  C12  1  0.833630  0.309280  0.769710  1
  C  C13  1  0.460430  0.524350  0.690720  1
  C  C14  1  0.539570  0.230290  0.063920  1
  C  C15  1  0.833630  0.063920  0.524350  1
  C  C16  1  0.166370  0.690720  0.230290  1
  C  C17  1  0.543470  0.494270  0.265000  1
  C  C18  1  0.456530  0.721530  0.950800  1
  C  C19  1  0.229270  0.950800  0.494270  1
  C  C20  1  0.770730  0.265000  0.721530  1
  C  C21  1  0.456530  0.505730  0.735000  1
  C  C22  1  0.543470  0.278470  0.049200  1
  C  C23  1  0.770730  0.049200  0.505730  1
  C  C24  1  0.229270  0.735000  0.278470  1
  C  C25  1  0.606000  0.540800  0.289800  1
  C  C26  1  0.394000  0.683800  0.934800  1
  C  C27  1  0.251000  0.934800  0.540800  1
  C  C28  1  0.749000  0.289800  0.683800  1
  C  C29  1  0.394000  0.459200  0.710200  1
  C  C30  1  0.606000  0.316200  0.065200  1
  C  C31  1  0.749000  0.065200  0.459200  1
  C  C32  1  0.251000  0.710200  0.316200  1
  C  C33  1  0.677650  0.646050  0.367800  1
  C  C34  1  0.322350  0.690150  0.968400  1
  C  C35  1  0.278250  0.968400  0.646050  1
  C  C36  1  0.721750  0.367800  0.690150  1
  C  C37  1  0.322350  0.353950  0.632200  1
  C  C38  1  0.677650  0.309850  0.031600  1
  C  C39  1  0.721750  0.031600  0.353950  1
  C  C40  1  0.278250  0.632200  0.309850  1
  C  C41  1  0.546410  0.515910  0.407300  1
  C  C42  1  0.453590  0.860890  0.969500  1
  C  C43  1  0.108610  0.969500  0.515910  1
  C  C44  1  0.891390  0.407300  0.860890  1
  C  C45  1  0.453590  0.484090  0.592700  1
  C  C46  1  0.546410  0.139110  0.030500  1
  C  C47  1  0.891390  0.030500  0.484090  1
  C  C48  1  0.108610  0.592700  0.139110  1
  C  C49  1  0.611400  0.479800  0.607400  1
  C  C50  1  0.388600  0.996000  0.868400  1
  C  C51  1  0.872400  0.868400  0.479800  1
  C  C52  1  0.127600  0.607400  0.996000  1
  C  C53  1  0.388600  0.520200  0.392600  1
  C  C54  1  0.611400  0.004000  0.131600  1
  C  C55  1  0.127600  0.131600  0.520200  1
  C  C56  1  0.872400  0.392600  0.004000  1
  C  C57  1  0.660600  0.536500  0.717500  1
  C  C58  1  0.339400  0.056900  0.875900  1
  C  C59  1  0.819000  0.875900  0.536500  1
  C  C60  1  0.181000  0.717500  0.056900  1
  C  C61  1  0.339400  0.463500  0.282500  1
  C  C62  1  0.660600  0.943100  0.124100  1
  C  C63  1  0.181000  0.124100  0.463500  1
  C  C64  1  0.819000  0.282500  0.943100  1
  C  C65  1  0.630400  0.571300  0.709300  1
  C  C66  1  0.369600  0.078900  0.940900  1
  C  C67  1  0.862000  0.940900  0.571300  1
  C  C68  1  0.138000  0.709300  0.078900  1
  C  C69  1  0.369600  0.428700  0.290700  1
  C  C70  1  0.630400  0.921100  0.059100  1
  C  C71  1  0.138000  0.059100  0.428700  1
  C  C72  1  0.862000  0.290700  0.921100  1
  C  C73  1  0.631600  0.581700  0.660100  1
  C  C74  1  0.368400  0.028500  0.950100  1
  C  C75  1  0.921600  0.950100  0.581700  1
  C  C76  1  0.078400  0.660100  0.028500  1
  C  C77  1  0.368400  0.418300  0.339900  1
  C  C78  1  0.631600  0.971500  0.049900  1
  C  C79  1  0.078400  0.049900  0.418300  1
  C  C80  1  0.921600  0.339900  0.971500  1
  C  C81  1  0.653500  0.440600  0.666300  1
  C  C82  1  0.346500  0.012800  0.787100  1
  C  C83  1  0.774300  0.787100  0.440600  1
  C  C84  1  0.225700  0.666300  0.012800  1
  C  C85  1  0.346500  0.559400  0.333700  1
  C  C86  1  0.653500  0.987200  0.212900  1
  C  C87  1  0.225700  0.212900  0.559400  1
  C  C88  1  0.774300  0.333700  0.987200  1
  C  C89  1  0.581100  0.525400  0.550500  1
  C  C90  1  0.418900  0.969400  0.944300  1
  C  C91  1  0.974900  0.944300  0.525400  1
  C  C92  1  0.025100  0.550500  0.969400  1
  C  C93  1  0.418900  0.474600  0.449500  1
  C  C94  1  0.581100  0.030600  0.055700  1
  C  C95  1  0.025100  0.055700  0.474600  1
  C  C96  1  0.974900  0.449500  0.030600  1
  C  C97  1  0.791400  0.199800  0.591600  1
  C  C98  1  0.208600  0.800200  0.408400  1
  C  C99  1  0.608200  0.408400  0.199800  1
  C  C100  1  0.391800  0.591600  0.800200  1
  C  C101  1  0.716290  0.192600  0.506690  1
  C  C102  1  0.283710  0.790400  0.476310  1
  C  C103  1  0.685910  0.476310  0.192600  1
  C  C104  1  0.314090  0.506690  0.790400  1
  C  C105  1  0.283710  0.807400  0.493310  1
  C  C106  1  0.716290  0.209600  0.523690  1
  C  C107  1  0.314090  0.523690  0.807400  1
  C  C108  1  0.685910  0.493310  0.209600  1
  C  C109  1  0.762100  0.253400  0.525700  1
  C  C110  1  0.237900  0.763600  0.491300  1
  C  C111  1  0.727700  0.491300  0.253400  1
  C  C112  1  0.272300  0.525700  0.763600  1
  C  C113  1  0.237900  0.746600  0.474300  1
  C  C114  1  0.762100  0.236400  0.508700  1
  C  C115  1  0.272300  0.508700  0.746600  1
  C  C116  1  0.727700  0.474300  0.236400  1
  C  C117  1  0.821800  0.258100  0.546300  1
  C  C118  1  0.178200  0.724500  0.436300  1
  C  C119  1  0.711800  0.436300  0.258100  1
  C  C120  1  0.288200  0.546300  0.724500  1
  C  C121  1  0.178200  0.741900  0.453700  1
  C  C122  1  0.821800  0.275500  0.563700  1
  C  C123  1  0.288200  0.563700  0.741900  1
  C  C124  1  0.711800  0.453700  0.275500  1
  C  C125  1  0.897400  0.264300  0.633100  1
  C  C126  1  0.102600  0.735700  0.366900  1
  C  C127  1  0.631200  0.366900  0.264300  1
  C  C128  1  0.368800  0.633100  0.735700  1
  C  C129  1  0.686800  0.133100  0.553700  1
  C  C130  1  0.313200  0.866900  0.446300  1
  C  C131  1  0.579400  0.446300  0.133100  1
  C  C132  1  0.420600  0.553700  0.866900  1
  C  C133  1  0.708100  0.805200  0.568700  1.0
  C  C134  1  0.291900  0.860600  0.097100  1.0
  C  C135  1  0.236500  0.097100  0.805200  1.0
  C  C136  1  0.763500  0.568700  0.860600  1.0
  C  C137  1  0.291900  0.194800  0.431300  1.0
  C  C138  1  0.708100  0.139400  0.902900  1.0
  C  C139  1  0.763500  0.902900  0.194800  1.0
  C  C140  1  0.236500  0.431300  0.139400  1.0
  C  C141  1  0.700800  0.852300  0.557300  1.0
  C  C142  1  0.299200  0.856500  0.151500  1.0
  C  C143  1  0.295000  0.151500  0.852300  1.0
  C  C144  1  0.705000  0.557300  0.856500  1.0
  C  C145  1  0.299200  0.147700  0.442700  1.0
  C  C146  1  0.700800  0.143500  0.848500  1.0
  C  C147  1  0.705000  0.848500  0.147700  1.0
  C  C148  1  0.295000  0.442700  0.143500  1.0
  C  C149  1  0.657600  0.838800  0.504000  1.0
  C  C150  1  0.342400  0.846400  0.181200  1.0
  C  C151  1  0.334800  0.181200  0.838800  1.0
  C  C152  1  0.665200  0.504000  0.846400  1.0
  C  C153  1  0.342400  0.161200  0.496000  1.0
  C  C154  1  0.657600  0.153600  0.818800  1.0
  C  C155  1  0.665200  0.818800  0.161200  1.0
  C  C156  1  0.334800  0.496000  0.153600  1.0
  C  C157  1  0.654600  0.885900  0.495300  1.0
  C  C158  1  0.345400  0.840700  0.231300  1.0
  C  C159  1  0.390600  0.231300  0.885900  1.0
  C  C160  1  0.609400  0.495300  0.840700  1.0
  C  C161  1  0.345400  0.114100  0.504700  1.0
  C  C162  1  0.654600  0.159300  0.768700  1.0
  C  C163  1  0.609400  0.768700  0.114100  1.0
  C  C164  1  0.390600  0.504700  0.159300  1.0
  C  C165  1  0.694000  0.943100  0.538500  1.0
  C  C166  1  0.306000  0.844500  0.249100  1.0
  C  C167  1  0.404600  0.249100  0.943100  1.0
  C  C168  1  0.595400  0.538500  0.844500  1.0
  C  C169  1  0.306000  0.056900  0.461500  1.0
  C  C170  1  0.694000  0.155500  0.750900  1.0
  C  C171  1  0.595400  0.750900  0.056900  1.0
  C  C172  1  0.404600  0.461500  0.155500  1.0
  C  C173  1  0.736800  0.956100  0.594300  1.0
  C  C174  1  0.263200  0.857500  0.219300  1.0
  C  C175  1  0.361800  0.219300  0.956100  1.0
  C  C176  1  0.638200  0.594300  0.857500  1.0
  C  C177  1  0.263200  0.043900  0.405700  1.0
  C  C178  1  0.736800  0.142500  0.780700  1.0
  C  C179  1  0.638200  0.780700  0.043900  1.0
  C  C180  1  0.361800  0.405700  0.142500  1.0
  C  C181  1  0.739400  0.911300  0.603500  1.0
  C  C182  1  0.260600  0.864100  0.171900  1.0
  C  C183  1  0.307800  0.171900  0.911300  1.0
  C  C184  1  0.692200  0.603500  0.864100  1.0
  C  C185  1  0.260600  0.088700  0.396500  1.0
  C  C186  1  0.739400  0.135900  0.828100  1.0
  C  C187  1  0.692200  0.828100  0.088700  1.0
  C  C188  1  0.307800  0.396500  0.135900  1.0
  C  C189  1  0.779400  0.018800  0.641000  1.0
  C  C190  1  0.220600  0.861600  0.239400  1.0
  C  C191  1  0.377800  0.239400  0.018800  1.0
  C  C192  1  0.622200  0.641000  0.861600  1.0
  C  C193  1  0.220600  0.981200  0.359000  1.0
  C  C194  1  0.779400  0.138400  0.760600  1.0
  C  C195  1  0.622200  0.760600  0.981200  1.0
  C  C196  1  0.377800  0.359000  0.138400  1.0
  C  C197  1  0.563900  0.693200  0.751300  1.0
  C  C198  1  0.436100  0.187400  0.129300  1.0
  C  C199  1  0.941900  0.129300  0.693200  1.0
  C  C200  1  0.058100  0.751300  0.187400  1.0
  C  C201  1  0.436100  0.306800  0.248700  1.0
  C  C202  1  0.563900  0.812600  0.870700  1.0
  C  C203  1  0.058100  0.870700  0.306800  1.0
  C  C204  1  0.941900  0.248700  0.812600  1.0
  C  C205  1  0.549000  0.677100  0.689500  1.0
  C  C206  1  0.451000  0.140500  0.128100  1.0
  C  C207  1  0.987600  0.128100  0.677100  1.0
  C  C208  1  0.012400  0.689500  0.140500  1.0
  C  C209  1  0.451000  0.322900  0.310500  1.0
  C  C210  1  0.549000  0.859500  0.871900  1.0
  C  C211  1  0.012400  0.871900  0.322900  1.0
  C  C212  1  0.987600  0.310500  0.859500  1.0
  C  C213  1  0.489300  0.641700  0.643200  1.0
  C  C214  1  0.510700  0.153900  0.152400  1.0
  C  C215  1  0.998500  0.152400  0.641700  1.0
  C  C216  1  0.001500  0.643200  0.153900  1.0
  C  C217  1  0.510700  0.358300  0.356800  1.0
  C  C218  1  0.489300  0.846100  0.847600  1.0
  C  C219  1  0.001500  0.847600  0.358300  1.0
  C  C220  1  0.998500  0.356800  0.846100  1.0
  C  C221  1  0.476500  0.624500  0.585600  1.0
  C  C222  1  0.523500  0.109100  0.148000  1.0
  C  C223  1  0.038900  0.148000  0.624500  1.0
  C  C224  1  0.961100  0.585600  0.109100  1.0
  C  C225  1  0.523500  0.375500  0.414400  1.0
  C  C226  1  0.476500  0.890900  0.852000  1.0
  C  C227  1  0.961100  0.852000  0.375500  1.0
  C  C228  1  0.038900  0.414400  0.890900  1.0
  C  C229  1  0.521900  0.639900  0.572400  1.0
  C  C230  1  0.478100  0.050500  0.118000  1.0
  C  C231  1  0.067500  0.118000  0.639900  1.0
  C  C232  1  0.932500  0.572400  0.050500  1.0
  C  C233  1  0.478100  0.360100  0.427600  1.0
  C  C234  1  0.521900  0.949500  0.882000  1.0
  C  C235  1  0.932500  0.882000  0.360100  1.0
  C  C236  1  0.067500  0.427600  0.949500  1.0
  C  C237  1  0.581000  0.674800  0.618600  1.0
  C  C238  1  0.419000  0.037600  0.093800  1.0
  C  C239  1  0.056200  0.093800  0.674800  1.0
  C  C240  1  0.943800  0.618600  0.037600  1.0
  C  C241  1  0.419000  0.325200  0.381400  1.0
  C  C242  1  0.581000  0.962400  0.906200  1.0
  C  C243  1  0.943800  0.906200  0.325200  1.0
  C  C244  1  0.056200  0.381400  0.962400  1.0
  C  C245  1  0.595300  0.695300  0.677600  1.0
  C  C246  1  0.404700  0.082300  0.100000  1.0
  C  C247  1  0.017700  0.100000  0.695300  1.0
  C  C248  1  0.982300  0.677600  0.082300  1.0
  C  C249  1  0.404700  0.304700  0.322400  1.0
  C  C250  1  0.595300  0.917700  0.900000  1.0
  C  C251  1  0.982300  0.900000  0.304700  1.0
  C  C252  1  0.017700  0.322400  0.917700  1.0
  C  C253  1  0.631000  0.691700  0.605700  1.0
  C  C254  1  0.369000  0.974700  0.060700  1.0
  C  C255  1  0.086000  0.060700  0.691700  1.0
  C  C256  1  0.914000  0.605700  0.974700  1.0
  C  C257  1  0.369000  0.308300  0.394300  1.0
  C  C258  1  0.631000  0.025300  0.939300  1.0
  C  C259  1  0.914000  0.939300  0.308300  1.0
  C  C260  1  0.086000  0.394300  0.025300  1.0
  C  C261  1  0.741400  0.633800  0.606400  1.0
  C  C262  1  0.258600  0.865000  0.892400  1.0
  C  C263  1  0.027400  0.892400  0.633800  1.0
  C  C264  1  0.972600  0.606400  0.865000  1.0
  C  C265  1  0.258600  0.366200  0.393600  1.0
  C  C266  1  0.741400  0.135000  0.107600  1.0
  C  C267  1  0.972600  0.107600  0.366200  1.0
  C  C268  1  0.027400  0.393600  0.135000  1.0
  C  C269  1  0.750200  0.587100  0.617100  1.0
  C  C270  1  0.249800  0.866900  0.836900  1.0
  C  C271  1  0.970000  0.836900  0.587100  1.0
  C  C272  1  0.030000  0.617100  0.866900  1.0
  C  C273  1  0.249800  0.412900  0.382900  1.0
  C  C274  1  0.750200  0.133100  0.163100  1.0
  C  C275  1  0.030000  0.163100  0.412900  1.0
  C  C276  1  0.970000  0.382900  0.133100  1.0
  C  C277  1  0.729500  0.533000  0.570700  1.0
  C  C278  1  0.270500  0.841200  0.803500  1.0
  C  C279  1  0.962300  0.803500  0.533000  1.0
  C  C280  1  0.037700  0.570700  0.841200  1.0
  C  C281  1  0.270500  0.467000  0.429300  1.0
  C  C282  1  0.729500  0.158800  0.196500  1.0
  C  C283  1  0.037700  0.196500  0.467000  1.0
  C  C284  1  0.962300  0.429300  0.158800  1.0
  C  C285  1  0.737500  0.489700  0.581800  1.0
  C  C286  1  0.262500  0.844300  0.752200  1.0
  C  C287  1  0.907900  0.752200  0.489700  1.0
  C  C288  1  0.092100  0.581800  0.844300  1.0
  C  C289  1  0.262500  0.510300  0.418200  1.0
  C  C290  1  0.737500  0.155700  0.247800  1.0
  C  C291  1  0.092100  0.247800  0.510300  1.0
  C  C292  1  0.907900  0.418200  0.155700  1.0
  C  C293  1  0.765300  0.500800  0.639300  1.0
  C  C294  1  0.234700  0.874000  0.735500  1.0
  C  C295  1  0.861500  0.735500  0.500800  1.0
  C  C296  1  0.138500  0.639300  0.874000  1.0
  C  C297  1  0.234700  0.499200  0.360700  1.0
  C  C298  1  0.765300  0.126000  0.264500  1.0
  C  C299  1  0.138500  0.264500  0.499200  1.0
  C  C300  1  0.861500  0.360700  0.126000  1.0
  C  C301  1  0.787000  0.556600  0.686200  1.0
  C  C302  1  0.213000  0.899200  0.769600  1.0
  C  C303  1  0.870400  0.769600  0.556600  1.0
  C  C304  1  0.129600  0.686200  0.899200  1.0
  C  C305  1  0.213000  0.443400  0.313800  1.0
  C  C306  1  0.787000  0.100800  0.230400  1.0
  C  C307  1  0.129600  0.230400  0.443400  1.0
  C  C308  1  0.870400  0.313800  0.100800  1.0
  C  C309  1  0.781200  0.599900  0.676300  1.0
  C  C310  1  0.218800  0.895100  0.818700  1.0
  C  C311  1  0.923600  0.818700  0.599900  1.0
  C  C312  1  0.076400  0.676300  0.895100  1.0
  C  C313  1  0.218800  0.400100  0.323700  1.0
  C  C314  1  0.781200  0.104900  0.181300  1.0
  C  C315  1  0.076400  0.181300  0.400100  1.0
  C  C316  1  0.923600  0.323700  0.104900  1.0
  C  C317  1  0.817900  0.567300  0.747800  1.0
  C  C318  1  0.182100  0.929900  0.749400  1.0
  C  C319  1  0.819500  0.749400  0.567300  1.0
  C  C320  1  0.180500  0.747800  0.929900  1.0
  C  C321  1  0.182100  0.432700  0.252200  1.0
  C  C322  1  0.817900  0.070100  0.250600  1.0
  C  C323  1  0.180500  0.250600  0.432700  1.0
  C  C324  1  0.819500  0.252200  0.070100  1.0
  H  H325  1  0.497400  0.447000  0.294200  1
  H  H326  1  0.502600  0.796800  0.949600  1
  H  H327  1  0.152800  0.949600  0.447000  1
  H  H328  1  0.847200  0.294200  0.796800  1
  H  H329  1  0.502600  0.553000  0.705800  1
  H  H330  1  0.497400  0.203200  0.050400  1
  H  H331  1  0.847200  0.050400  0.553000  1
  H  H332  1  0.152800  0.705800  0.203200  1
  H  H333  1  0.563300  0.456000  0.315900  1
  H  H334  1  0.436700  0.752600  0.892700  1
  H  H335  1  0.140100  0.892700  0.456000  1
  H  H336  1  0.859900  0.315900  0.752600  1
  H  H337  1  0.436700  0.544000  0.684100  1
  H  H338  1  0.563300  0.247400  0.107300  1
  H  H339  1  0.859900  0.107300  0.544000  1
  H  H340  1  0.140100  0.684100  0.247400  1
  H  H341  1  0.516300  0.510000  0.255100  1
  H  H342  1  0.483700  0.738800  0.993700  1
  H  H343  1  0.254900  0.993700  0.510000  1
  H  H344  1  0.745100  0.255100  0.738800  1
  H  H345  1  0.483700  0.490000  0.744900  1
  H  H346  1  0.516300  0.261200  0.006300  1
  H  H347  1  0.745100  0.006300  0.490000  1
  H  H348  1  0.254900  0.744900  0.261200  1
  H  H349  1  0.531000  0.459800  0.228200  1
  H  H350  1  0.469000  0.697200  0.928800  1
  H  H351  1  0.231600  0.928800  0.459800  1
  H  H352  1  0.768400  0.228200  0.697200  1
  H  H353  1  0.469000  0.540200  0.771800  1
  H  H354  1  0.531000  0.302800  0.071200  1
  H  H355  1  0.768400  0.071200  0.540200  1
  H  H356  1  0.231600  0.771800  0.302800  1
  H  H357  1  0.632500  0.523800  0.295500  1
  H  H358  1  0.367500  0.663000  0.891300  1
  H  H359  1  0.228300  0.891300  0.523800  1
  H  H360  1  0.771700  0.295500  0.663000  1
  H  H361  1  0.367500  0.476200  0.704500  1
  H  H362  1  0.632500  0.337000  0.108700  1
  H  H363  1  0.771700  0.108700  0.476200  1
  H  H364  1  0.228300  0.704500  0.337000  1
  H  H365  1  0.608200  0.555600  0.261800  1
  H  H366  1  0.391800  0.653600  0.947400  1
  H  H367  1  0.293800  0.947400  0.555600  1
  H  H368  1  0.706200  0.261800  0.653600  1
  H  H369  1  0.391800  0.444400  0.738200  1
  H  H370  1  0.608200  0.346400  0.052600  1
  H  H371  1  0.706200  0.052600  0.444400  1
  H  H372  1  0.293800  0.738200  0.346400  1
  H  H373  1  0.687100  0.675000  0.406300  1
  H  H374  1  0.312900  0.719200  0.987900  1
  H  H375  1  0.268700  0.987900  0.675000  1
  H  H376  1  0.731300  0.406300  0.719200  1
  H  H377  1  0.312900  0.325000  0.593700  1
  H  H378  1  0.687100  0.280800  0.012100  1
  H  H379  1  0.731300  0.012100  0.325000  1
  H  H380  1  0.268700  0.593700  0.280800  1
  H  H381  1  0.668700  0.660400  0.339500  1
  H  H382  1  0.331300  0.670800  0.991700  1
  H  H383  1  0.320900  0.991700  0.660400  1
  H  H384  1  0.679100  0.339500  0.670800  1
  H  H385  1  0.331300  0.339600  0.660500  1
  H  H386  1  0.668700  0.329200  0.008300  1
  H  H387  1  0.679100  0.008300  0.339600  1
  H  H388  1  0.320900  0.660500  0.329200  1
  H  H389  1  0.712000  0.640700  0.372300  1
  H  H390  1  0.288000  0.660300  0.928700  1
  H  H391  1  0.268400  0.928700  0.640700  1
  H  H392  1  0.731600  0.372300  0.660300  1
  H  H393  1  0.288000  0.359300  0.627700  1
  H  H394  1  0.712000  0.339700  0.071300  1
  H  H395  1  0.731600  0.071300  0.359300  1
  H  H396  1  0.268400  0.627700  0.339700  1
  H  H397  1  0.564900  0.553600  0.443100  1
  H  H398  1  0.435100  0.878200  0.988700  1
  H  H399  1  0.110500  0.988700  0.553600  1
  H  H400  1  0.889500  0.443100  0.878200  1
  H  H401  1  0.435100  0.446400  0.556900  1
  H  H402  1  0.564900  0.121800  0.011300  1
  H  H403  1  0.889500  0.011300  0.446400  1
  H  H404  1  0.110500  0.556900  0.121800  1
  H  H405  1  0.560900  0.490700  0.417600  1
  H  H406  1  0.439100  0.856700  0.929800  1
  H  H407  1  0.073100  0.929800  0.490700  1
  H  H408  1  0.926900  0.417600  0.856700  1
  H  H409  1  0.439100  0.509300  0.582400  1
  H  H410  1  0.560900  0.143300  0.070200  1
  H  H411  1  0.926900  0.070200  0.509300  1
  H  H412  1  0.073100  0.582400  0.143300  1
  H  H413  1  0.502900  0.495900  0.389600  1
  H  H414  1  0.497100  0.886700  0.993000  1
  H  H415  1  0.106300  0.993000  0.495900  1
  H  H416  1  0.893700  0.389600  0.886700  1
  H  H417  1  0.497100  0.504100  0.610400  1
  H  H418  1  0.502900  0.113300  0.007000  1
  H  H419  1  0.893700  0.007000  0.504100  1
  H  H420  1  0.106300  0.610400  0.113300  1
  H  H421  1  0.704000  0.562200  0.735000  1
  H  H422  1  0.296000  0.031000  0.858200  1
  H  H423  1  0.827200  0.858200  0.562200  1
  H  H424  1  0.172800  0.735000  0.031000  1
  H  H425  1  0.296000  0.437800  0.265000  1
  H  H426  1  0.704000  0.969000  0.141800  1
  H  H427  1  0.172800  0.141800  0.437800  1
  H  H428  1  0.827200  0.265000  0.969000  1
  H  H429  1  0.654500  0.523400  0.745500  1
  H  H430  1  0.345500  0.091000  0.868900  1
  H  H431  1  0.777900  0.868900  0.523400  1
  H  H432  1  0.222100  0.745500  0.091000  1
  H  H433  1  0.345500  0.476600  0.254500  1
  H  H434  1  0.654500  0.909000  0.131100  1
  H  H435  1  0.222100  0.131100  0.476600  1
  H  H436  1  0.777900  0.254500  0.909000  1
  H  H437  1  0.588700  0.549200  0.699900  1
  H  H438  1  0.411300  0.111200  0.960500  1
  H  H439  1  0.849300  0.960500  0.549200  1
  H  H440  1  0.150700  0.699900  0.111200  1
  H  H441  1  0.411300  0.450800  0.300100  1
  H  H442  1  0.588700  0.888800  0.039500  1
  H  H443  1  0.150700  0.039500  0.450800  1
  H  H444  1  0.849300  0.300100  0.888800  1
  H  H445  1  0.651700  0.609700  0.746200  1
  H  H446  1  0.348300  0.094500  0.958000  1
  H  H447  1  0.863500  0.958000  0.609700  1
  H  H448  1  0.136500  0.746200  0.094500  1
  H  H449  1  0.348300  0.390300  0.253800  1
  H  H450  1  0.651700  0.905500  0.042000  1
  H  H451  1  0.136500  0.042000  0.390300  1
  H  H452  1  0.863500  0.253800  0.905500  1
  H  H453  1  0.609500  0.602600  0.652100  1
  H  H454  1  0.390500  0.042600  0.993100  1
  H  H455  1  0.950500  0.993100  0.602600  1
  H  H456  1  0.049500  0.652100  0.042600  1
  H  H457  1  0.390500  0.397400  0.347900  1
  H  H458  1  0.609500  0.957400  0.006900  1
  H  H459  1  0.049500  0.006900  0.397400  1
  H  H460  1  0.950500  0.347900  0.957400  1
  H  H461  1  0.673300  0.607100  0.671600  1
  H  H462  1  0.326700  0.998300  0.933800  1
  H  H463  1  0.935500  0.933800  0.607100  1
  H  H464  1  0.064500  0.671600  0.998300  1
  H  H465  1  0.326700  0.392900  0.328400  1
  H  H466  1  0.673300  0.001700  0.066200  1
  H  H467  1  0.064500  0.066200  0.392900  1
  H  H468  1  0.935500  0.328400  0.001700  1
  H  H469  1  0.635500  0.408300  0.626200  1
  H  H470  1  0.364500  0.990700  0.772800  1
  H  H471  1  0.782100  0.772800  0.408300  1
  H  H472  1  0.217900  0.626200  0.990700  1
  H  H473  1  0.364500  0.591700  0.373800  1
  H  H474  1  0.635500  0.009300  0.227200  1
  H  H475  1  0.217900  0.227200  0.591700  1
  H  H476  1  0.782100  0.373800  0.009300  1
  H  H477  1  0.638200  0.424900  0.688500  1
  H  H478  1  0.361800  0.050300  0.786700  1
  H  H479  1  0.736400  0.786700  0.424900  1
  H  H480  1  0.263600  0.688500  0.050300  1
  H  H481  1  0.361800  0.575100  0.311500  1
  H  H482  1  0.638200  0.949700  0.213300  1
  H  H483  1  0.263600  0.213300  0.575100  1
  H  H484  1  0.736400  0.311500  0.949700  1
  H  H485  1  0.697100  0.458300  0.686400  1
  H  H486  1  0.302900  0.989300  0.761200  1
  H  H487  1  0.771900  0.761200  0.458300  1
  H  H488  1  0.228100  0.686400  0.989300  1
  H  H489  1  0.302900  0.541700  0.313600  1
  H  H490  1  0.697100  0.010700  0.238800  1
  H  H491  1  0.228100  0.238800  0.541700  1
  H  H492  1  0.771900  0.313600  0.010700  1
  H  H493  1  0.564000  0.485900  0.517900  1
  H  H494  1  0.436000  0.953900  0.921900  1
  H  H495  1  0.968000  0.921900  0.485900  1
  H  H496  1  0.032000  0.517900  0.953900  1
  H  H497  1  0.436000  0.514100  0.482100  1
  H  H498  1  0.564000  0.046100  0.078100  1
  H  H499  1  0.032000  0.078100  0.514100  1
  H  H500  1  0.968000  0.482100  0.046100  1
  H  H501  1  0.613700  0.554200  0.550100  1
  H  H502  1  0.386300  0.936400  0.940500  1
  H  H503  1  0.004100  0.940500  0.554200  1
  H  H504  1  0.995900  0.550100  0.936400  1
  H  H505  1  0.386300  0.445800  0.449900  1
  H  H506  1  0.613700  0.063600  0.059500  1
  H  H507  1  0.995900  0.059500  0.445800  1
  H  H508  1  0.004100  0.449900  0.063600  1
  H  H509  1  0.550100  0.536300  0.546000  1
  H  H510  1  0.449900  0.995900  0.986200  1
  H  H511  1  0.990300  0.986200  0.536300  1
  H  H512  1  0.009700  0.546000  0.995900  1
  H  H513  1  0.449900  0.463700  0.454000  1
  H  H514  1  0.550100  0.004100  0.013800  1
  H  H515  1  0.009700  0.013800  0.463700  1
  H  H516  1  0.990300  0.454000  0.004100  1
  H  H517  1  0.678200  0.186400  0.491800  1
  H  H518  1  0.321800  0.813600  0.508200  1
  H  H519  1  0.694600  0.508200  0.186400  1
  H  H520  1  0.305400  0.491800  0.813600  1
  H  H521  1  0.713000  0.163900  0.473100  1
  H  H522  1  0.287000  0.760100  0.450900  1
  H  H523  1  0.690800  0.450900  0.163900  1
  H  H524  1  0.309200  0.473100  0.760100  1
  H  H525  1  0.287000  0.836100  0.526900  1
  H  H526  1  0.713000  0.239900  0.549100  1
  H  H527  1  0.309200  0.549100  0.836100  1
  H  H528  1  0.690800  0.526900  0.239900  1
  H  H529  1  0.762500  0.282400  0.556500  1
  H  H530  1  0.237500  0.794000  0.519900  1
  H  H531  1  0.725900  0.519900  0.282400  1
  H  H532  1  0.274100  0.556500  0.794000  1
  H  H533  1  0.237500  0.717600  0.443500  1
  H  H534  1  0.762500  0.206000  0.480100  1
  H  H535  1  0.274100  0.480100  0.717600  1
  H  H536  1  0.725900  0.443500  0.206000  1
  H  H537  1  0.752400  0.260100  0.492300  1
  H  H538  1  0.247600  0.739900  0.507700  1
  H  H539  1  0.767800  0.507700  0.260100  1
  H  H540  1  0.232200  0.492300  0.739900  1
  H  H541  1  0.822600  0.231900  0.514300  1
  H  H542  1  0.177400  0.691700  0.409300  1
  H  H543  1  0.717600  0.409300  0.231900  1
  H  H544  1  0.282400  0.514300  0.691700  1
  H  H545  1  0.177400  0.768100  0.485700  1
  H  H546  1  0.822600  0.308300  0.590700  1
  H  H547  1  0.282400  0.590700  0.768100  1
  H  H548  1  0.717600  0.485700  0.308300  1
  H  H549  1  0.851900  0.294400  0.557500  1
  H  H550  1  0.148100  0.705600  0.442500  1
  H  H551  1  0.736900  0.442500  0.294400  1
  H  H552  1  0.263100  0.557500  0.705600  1
  H  H553  1  0.900200  0.251400  0.662600  1
  H  H554  1  0.099800  0.762400  0.351200  1
  H  H555  1  0.588800  0.351200  0.251400  1
  H  H556  1  0.411200  0.662600  0.762400  1
  H  H557  1  0.099800  0.748600  0.337400  1
  H  H558  1  0.900200  0.237600  0.648800  1
  H  H559  1  0.411200  0.648800  0.748600  1
  H  H560  1  0.588800  0.337400  0.237600  1
  H  H561  1  0.919500  0.307700  0.653000  1
  H  H562  1  0.080500  0.733500  0.388200  1
  H  H563  1  0.654700  0.388200  0.307700  1
  H  H564  1  0.345300  0.653000  0.733500  1
  H  H565  1  0.080500  0.692300  0.347000  1
  H  H566  1  0.919500  0.266500  0.611800  1
  H  H567  1  0.345300  0.611800  0.692300  1
  H  H568  1  0.654700  0.347000  0.266500  1
  H  H569  1  0.914600  0.248900  0.610700  1
  H  H570  1  0.085400  0.696100  0.334300  1
  H  H571  1  0.638200  0.334300  0.248900  1
  H  H572  1  0.361800  0.610700  0.696100  1
  H  H573  1  0.085400  0.751100  0.389300  1
  H  H574  1  0.914600  0.303900  0.665700  1
  H  H575  1  0.361800  0.665700  0.751100  1
  H  H576  1  0.638200  0.389300  0.303900  1
  H  H577  1  0.704100  0.129200  0.588700  1
  H  H578  1  0.295900  0.884600  0.425100  1
  H  H579  1  0.540500  0.425100  0.129200  1
  H  H580  1  0.459500  0.588700  0.884600  1
  H  H581  1  0.295900  0.870800  0.411300  1
  H  H582  1  0.704100  0.115400  0.574900  1
  H  H583  1  0.459500  0.574900  0.870800  1
  H  H584  1  0.540500  0.411300  0.115400  1
  H  H585  1  0.668400  0.095500  0.517900  1
  H  H586  1  0.331600  0.849500  0.427100  1
  H  H587  1  0.577600  0.427100  0.095500  1
  H  H588  1  0.422400  0.517900  0.849500  1
  H  H589  1  0.331600  0.904500  0.482100  1
  H  H590  1  0.668400  0.150500  0.572900  1
  H  H591  1  0.422400  0.572900  0.904500  1
  H  H592  1  0.577600  0.482100  0.150500  1
  H  H593  1  0.656400  0.143800  0.553800  1
  H  H594  1  0.343600  0.897400  0.487400  1
  H  H595  1  0.590000  0.487400  0.143800  1
  H  H596  1  0.410000  0.553800  0.897400  1
  H  H597  1  0.343600  0.856200  0.446200  1
  H  H598  1  0.656400  0.102600  0.512600  1
  H  H599  1  0.410000  0.512600  0.856200  1
  H  H600  1  0.590000  0.446200  0.102600  1
  H  H601  1  0.592100  0.837500  0.420000  1.0
  H  H602  1  0.407900  0.827900  0.245400  1.0
  H  H603  1  0.417500  0.245400  0.837500  1.0
  H  H604  1  0.582500  0.420000  0.827900  1.0
  H  H605  1  0.407900  0.162500  0.580000  1.0
  H  H606  1  0.592100  0.172100  0.754600  1.0
  H  H607  1  0.582500  0.754600  0.162500  1.0
  H  H608  1  0.417500  0.580000  0.172100  1.0
  H  H609  1  0.414200  0.582400  0.510000  1.0
  H  H610  1  0.585800  0.095800  0.168200  1.0
  H  H611  1  0.072400  0.168200  0.582400  1.0
  H  H612  1  0.927600  0.510000  0.095800  1.0
  H  H613  1  0.585800  0.417600  0.490000  1.0
  H  H614  1  0.414200  0.904200  0.831800  1.0
  H  H615  1  0.927600  0.831800  0.417600  1.0
  H  H616  1  0.072400  0.490000  0.904200  1.0
  H  H617  1  0.683400  0.423000  0.510400  1.0
  H  H618  1  0.316600  0.827000  0.739600  1.0
  H  H619  1  0.912600  0.739600  0.423000  1.0
  H  H620  1  0.087400  0.510400  0.827000  1.0
  H  H621  1  0.316600  0.577000  0.489600  1.0
  H  H622  1  0.683400  0.173000  0.260400  1.0
  H  H623  1  0.087400  0.260400  0.577000  1.0
  H  H624  1  0.912600  0.489600  0.173000  1.0
  H  H625  1  0.630400  0.798900  0.473500  1.0
  H  H626  1  0.369600  0.843100  0.168500  1.0
  H  H627  1  0.325400  0.168500  0.798900  1.0
  H  H628  1  0.674600  0.473500  0.843100  1.0
  H  H629  1  0.369600  0.201100  0.526500  1.0
  H  H630  1  0.630400  0.156900  0.831500  1.0
  H  H631  1  0.674600  0.831500  0.201100  1.0
  H  H632  1  0.325400  0.526500  0.156900  1.0
  H  H633  1  0.692900  0.974400  0.531500  1.0
  H  H634  1  0.307100  0.838600  0.281500  1.0
  H  H635  1  0.442900  0.281500  0.974400  1.0
  H  H636  1  0.557100  0.531500  0.838600  1.0
  H  H637  1  0.307100  0.025600  0.468500  1.0
  H  H638  1  0.692900  0.161400  0.718500  1.0
  H  H639  1  0.557100  0.718500  0.025600  1.0
  H  H640  1  0.442900  0.468500  0.161400  1.0
  H  H641  1  0.767300  0.919800  0.641300  1.0
  H  H642  1  0.232700  0.874000  0.152500  1.0
  H  H643  1  0.278500  0.152500  0.919800  1.0
  H  H644  1  0.721500  0.641300  0.874000  1.0
  H  H645  1  0.232700  0.080200  0.358700  1.0
  H  H646  1  0.767300  0.126000  0.847500  1.0
  H  H647  1  0.721500  0.847500  0.080200  1.0
  H  H648  1  0.278500  0.358700  0.126000  1.0
  H  H649  1  0.457900  0.629700  0.651600  1.0
  H  H650  1  0.542100  0.193700  0.171800  1.0
  H  H651  1  0.978100  0.171800  0.629700  1.0
  H  H652  1  0.021900  0.651600  0.193700  1.0
  H  H653  1  0.542100  0.370300  0.348400  1.0
  H  H654  1  0.457900  0.806300  0.828200  1.0
  H  H655  1  0.021900  0.828200  0.370300  1.0
  H  H656  1  0.978100  0.348400  0.806300  1.0
  H  H657  1  0.512900  0.627100  0.532600  1.0
  H  H658  1  0.487100  0.019700  0.114200  1.0
  H  H659  1  0.094500  0.114200  0.627100  1.0
  H  H660  1  0.905500  0.532600  0.019700  1.0
  H  H661  1  0.487100  0.372900  0.467400  1.0
  H  H662  1  0.512900  0.980300  0.885800  1.0
  H  H663  1  0.905500  0.885800  0.372900  1.0
  H  H664  1  0.094500  0.467400  0.980300  1.0
  H  H665  1  0.635700  0.721000  0.708900  1.0
  H  H666  1  0.364300  0.073200  0.085300  1.0
  H  H667  1  0.012100  0.085300  0.721000  1.0
  H  H668  1  0.987900  0.708900  0.073200  1.0
  H  H669  1  0.364300  0.279000  0.291100  1.0
  H  H670  1  0.635700  0.926800  0.914700  1.0
  H  H671  1  0.987900  0.914700  0.279000  1.0
  H  H672  1  0.012100  0.291100  0.926800  1.0
  H  H673  1  0.709900  0.525300  0.531000  1.0
  H  H674  1  0.290100  0.821100  0.815400  1.0
  H  H675  1  0.994300  0.815400  0.525300  1.0
  H  H676  1  0.005700  0.531000  0.821100  1.0
  H  H677  1  0.290100  0.474700  0.469000  1.0
  H  H678  1  0.709900  0.178900  0.184600  1.0
  H  H679  1  0.005700  0.184600  0.474700  1.0
  H  H680  1  0.994300  0.469000  0.178900  1.0
  H  H681  1  0.769800  0.471000  0.647200  1.0
  H  H682  1  0.230200  0.877400  0.701200  1.0
  H  H683  1  0.823800  0.701200  0.471000  1.0
  H  H684  1  0.176200  0.647200  0.877400  1.0
  H  H685  1  0.230200  0.529000  0.352800  1.0
  H  H686  1  0.769800  0.122600  0.298800  1.0
  H  H687  1  0.176200  0.298800  0.529000  1.0
  H  H688  1  0.823800  0.352800  0.122600  1.0
  H  H689  1  0.797700  0.638000  0.708300  1.0
  H  H690  1  0.202300  0.910600  0.840300  1.0
  H  H691  1  0.929700  0.840300  0.638000  1.0
  H  H692  1  0.070300  0.708300  0.910600  1.0
  H  H693  1  0.202300  0.362000  0.291700  1.0
  H  H694  1  0.797700  0.089400  0.159700  1.0
  H  H695  1  0.070300  0.159700  0.362000  1.0
  H  H696  1  0.929700  0.291700  0.089400  1.0
  Mo  Mo697  1  0.844820  0.148280  0.696540  1.0
  Mo  Mo698  1  0.155180  0.851720  0.303460  1.0
  Mo  Mo699  1  0.451740  0.303460  0.148280  1.0
  Mo  Mo700  1  0.548260  0.696540  0.851720  1.0
  Mo  Mo701  1  0.876200  0.119570  0.756630  1.0
  Mo  Mo702  1  0.123800  0.880430  0.243370  1.0
  Mo  Mo703  1  0.362940  0.243370  0.119570  1.0
  Mo  Mo704  1  0.637060  0.756630  0.880430  1.0
  Mo  Mo705  1  0.695232  0.688004  0.540544  1.0
  Mo  Mo706  1  0.304768  0.845312  0.992772  1.0
  Mo  Mo707  1  0.147460  0.992772  0.688004  1.0
  Mo  Mo708  1  0.852540  0.540544  0.845312  1.0
  Mo  Mo709  1  0.304768  0.311996  0.459456  1.0
  Mo  Mo710  1  0.695232  0.154688  0.007228  1.0
  Mo  Mo711  1  0.852540  0.007228  0.311996  1.0
  Mo  Mo712  1  0.147460  0.459456  0.154688  1.0
  Mo  Mo713  1  0.753879  0.750152  0.631579  1.0
  Mo  Mo714  1  0.246121  0.877700  0.996273  1.0
  Mo  Mo715  1  0.118573  0.996273  0.750152  1.0
  Mo  Mo716  1  0.881427  0.631579  0.877700  1.0
  Mo  Mo717  1  0.246121  0.249848  0.368421  1.0
  Mo  Mo718  1  0.753879  0.122300  0.003727  1.0
  Mo  Mo719  1  0.881427  0.003727  0.249848  1.0
  Mo  Mo720  1  0.118573  0.368421  0.122300  1.0
  N  N721  1  0.625580  0.589200  0.346020  1
  N  N722  1  0.374420  0.720440  0.963620  1
  N  N723  1  0.243180  0.963620  0.589200  1
  N  N724  1  0.756820  0.346020  0.720440  1
  N  N725  1  0.374420  0.410800  0.653980  1
  N  N726  1  0.625580  0.279560  0.036380  1
  N  N727  1  0.756820  0.036380  0.410800  1
  N  N728  1  0.243180  0.653980  0.279560  1
  N  N729  1  0.562150  0.527080  0.364530  1
  N  N730  1  0.437850  0.802380  0.964930  1
  N  N731  1  0.162550  0.964930  0.527080  1
  N  N732  1  0.837450  0.364530  0.802380  1
  N  N733  1  0.437850  0.472920  0.635470  1
  N  N734  1  0.562150  0.197620  0.035070  1
  N  N735  1  0.837450  0.035070  0.472920  1
  N  N736  1  0.162550  0.635470  0.197620  1
  N  N737  1  0.638100  0.485900  0.662800  1
  N  N738  1  0.361900  0.024700  0.847800  1
  N  N739  1  0.823100  0.847800  0.485900  1
  N  N740  1  0.176900  0.662800  0.024700  1
  N  N741  1  0.361900  0.514100  0.337200  1
  N  N742  1  0.638100  0.975300  0.152200  1
  N  N743  1  0.176900  0.152200  0.514100  1
  N  N744  1  0.823100  0.337200  0.975300  1
  N  N745  1  0.604100  0.525400  0.605900  1
  N  N746  1  0.395900  0.001800  0.921300  1
  N  N747  1  0.919500  0.921300  0.525400  1
  N  N748  1  0.080500  0.605900  0.001800  1
  N  N749  1  0.395900  0.474600  0.394100  1
  N  N750  1  0.604100  0.998200  0.078700  1
  N  N751  1  0.080500  0.078700  0.474600  1
  N  N752  1  0.919500  0.394100  0.998200  1
  N  N753  1  0.834460  0.242060  0.592400  1
  N  N754  1  0.165540  0.757940  0.407600  1
  N  N755  1  0.649660  0.407600  0.242060  1
  N  N756  1  0.350340  0.592400  0.757940  1
  N  N757  1  0.734060  0.179500  0.554560  1
  N  N758  1  0.265940  0.820500  0.445440  1
  N  N759  1  0.624940  0.445440  0.179500  1
  N  N760  1  0.375060  0.554560  0.820500  1
  O  O761  1  0.632650  0.621810  0.435960  1
  O  O762  1  0.367350  0.803310  0.989160  1
  O  O763  1  0.185850  0.989160  0.621810  1
  O  O764  1  0.814150  0.435960  0.803310  1
  O  O765  1  0.367350  0.378190  0.564040  1
  O  O766  1  0.632650  0.196690  0.010840  1
  O  O767  1  0.814150  0.010840  0.378190  1
  O  O768  1  0.185850  0.564040  0.196690  1
  O  O769  1  0.594050  0.435200  0.562230  1
  O  O770  1  0.405950  0.968180  0.841150  1
  O  O771  1  0.872970  0.841150  0.435200  1
  O  O772  1  0.127030  0.562230  0.968180  1
  O  O773  1  0.405950  0.564800  0.437770  1
  O  O774  1  0.594050  0.031820  0.158850  1
  O  O775  1  0.127030  0.158850  0.564800  1
  O  O776  1  0.872970  0.437770  0.031820  1
  O  O777  1  0.805100  0.178900  0.626200  1
  O  O778  1  0.194900  0.821100  0.373800  1
  O  O779  1  0.552700  0.373800  0.178900  1
  O  O780  1  0.447300  0.626200  0.821100  1
  O  O781  1  0.820800  0.821300  0.734900  1
  O  O782  1  0.179200  0.914100  0.000500  1
  O  O783  1  0.086400  0.000500  0.821300  1
  O  O784  1  0.913600  0.734900  0.914100  1
  O  O785  1  0.179200  0.178700  0.265100  1
  O  O786  1  0.820800  0.085900  0.999500  1
  O  O787  1  0.913600  0.999500  0.178700  1
  O  O788  1  0.086400  0.265100  0.085900  1
  O  O789  1  0.913560  0.088000  0.825560  1
  O  O790  1  0.086440  0.912000  0.174440  1
  O  O791  1  0.262440  0.174440  0.088000  1
  O  O792  1  0.737560  0.825560  0.912000  1
  O  O793  1  0.681020  0.752790  0.524150  1.0
  O  O794  1  0.318980  0.843130  0.071770  1.0
  O  O795  1  0.228640  0.071770  0.752790  1.0
  O  O796  1  0.771360  0.524150  0.843130  1.0
  O  O797  1  0.318980  0.247210  0.475850  1.0
  O  O798  1  0.681020  0.156870  0.928230  1.0
  O  O799  1  0.771360  0.928230  0.247210  1.0
  O  O800  1  0.228640  0.475850  0.156870  1.0
  O  O801  1  0.743450  0.817890  0.620040  1.0
  O  O802  1  0.256550  0.876590  0.074440  1.0
  O  O803  1  0.197850  0.074440  0.817890  1.0
  O  O804  1  0.802150  0.620040  0.876590  1.0
  O  O805  1  0.256550  0.182110  0.379960  1.0
  O  O806  1  0.743450  0.123410  0.925560  1.0
  O  O807  1  0.802150  0.925560  0.182110  1.0
  O  O808  1  0.197850  0.379960  0.123410  1.0
  O  O809  1  0.781660  0.061240  0.628660  1.0
  O  O810  1  0.218340  0.847000  0.279580  1.0
  O  O811  1  0.432580  0.279580  0.061240  1.0
  O  O812  1  0.567420  0.628660  0.847000  1.0
  O  O813  1  0.218340  0.938760  0.371340  1.0
  O  O814  1  0.781660  0.153000  0.720420  1.0
  O  O815  1  0.567420  0.720420  0.938760  1.0
  O  O816  1  0.432580  0.371340  0.153000  1.0
  O  O817  1  0.815380  0.029860  0.691760  1.0
  O  O818  1  0.184620  0.876380  0.214480  1.0
  O  O819  1  0.338100  0.214480  0.029860  1.0
  O  O820  1  0.661900  0.691760  0.876380  1.0
  O  O821  1  0.184620  0.970140  0.308240  1.0
  O  O822  1  0.815380  0.123620  0.785520  1.0
  O  O823  1  0.661900  0.785520  0.970140  1.0
  O  O824  1  0.338100  0.308240  0.123620  1.0
  O  O825  1  0.523770  0.670170  0.762380  1.0
  O  O826  1  0.476230  0.238610  0.146400  1.0
  O  O827  1  0.907790  0.146400  0.670170  1.0
  O  O828  1  0.092210  0.762380  0.238610  1.0
  O  O829  1  0.476230  0.329830  0.237620  1.0
  O  O830  1  0.523770  0.761390  0.853600  1.0
  O  O831  1  0.092210  0.853600  0.329830  1.0
  O  O832  1  0.907790  0.237620  0.761390  1.0
  O  O833  1  0.618030  0.732610  0.793520  1.0
  O  O834  1  0.381970  0.175490  0.114580  1.0
  O  O835  1  0.939090  0.114580  0.732610  1.0
  O  O836  1  0.060910  0.793520  0.175490  1.0
  O  O837  1  0.381970  0.267390  0.206480  1.0
  O  O838  1  0.618030  0.824510  0.885420  1.0
  O  O839  1  0.060910  0.885420  0.267390  1.0
  O  O840  1  0.939090  0.206480  0.824510  1.0
  O  O841  1  0.621210  0.665170  0.553220  1.0
  O  O842  1  0.378790  0.932010  0.043960  1.0
  O  O843  1  0.111950  0.043960  0.665170  1.0
  O  O844  1  0.888050  0.553220  0.932010  1.0
  O  O845  1  0.378790  0.334830  0.446780  1.0
  O  O846  1  0.621210  0.067990  0.956040  1.0
  O  O847  1  0.888050  0.956040  0.334830  1.0
  O  O848  1  0.111950  0.446780  0.067990  1.0
  O  O849  1  0.683270  0.729660  0.648730  1.0
  O  O850  1  0.316730  0.965460  0.046390  1.0
  O  O851  1  0.080930  0.046390  0.729660  1.0
  O  O852  1  0.919070  0.648730  0.965460  1.0
  O  O853  1  0.316730  0.270340  0.351270  1.0
  O  O854  1  0.683270  0.034540  0.953610  1.0
  O  O855  1  0.919070  0.953610  0.270340  1.0
  O  O856  1  0.080930  0.351270  0.034540  1.0
  O  O857  1  0.707030  0.621230  0.553360  1.0
  O  O858  1  0.292970  0.846330  0.914200  1.0
  O  O859  1  0.067870  0.914200  0.621230  1.0
  O  O860  1  0.932130  0.553360  0.846330  1.0
  O  O861  1  0.292970  0.378770  0.446640  1.0
  O  O862  1  0.707030  0.153670  0.085800  1.0
  O  O863  1  0.932130  0.085800  0.378770  1.0
  O  O864  1  0.067870  0.446640  0.153670  1.0
  O  O865  1  0.768000  0.685980  0.649420  1.0
  O  O866  1  0.232000  0.881420  0.917980  1.0
  O  O867  1  0.036560  0.917980  0.685980  1.0
  O  O868  1  0.963440  0.649420  0.881420  1.0
  O  O869  1  0.232000  0.314020  0.350580  1.0
  O  O870  1  0.768000  0.118580  0.082020  1.0
  O  O871  1  0.963440  0.082020  0.314020  1.0
  O  O872  1  0.036560  0.350580  0.118580  1.0
  O  O873  1  0.813950  0.523820  0.756870  1.0
  O  O874  1  0.186050  0.942920  0.709870  1.0
  O  O875  1  0.766950  0.709870  0.523820  1.0
  O  O876  1  0.233050  0.756870  0.942920  1.0
  O  O877  1  0.186050  0.476180  0.243130  1.0
  O  O878  1  0.813950  0.057080  0.290130  1.0
  O  O879  1  0.233050  0.290130  0.476180  1.0
  O  O880  1  0.766950  0.243130  0.057080  1.0
  O  O881  1  0.844730  0.619910  0.791820  1.0
  O  O882  1  0.155270  0.947090  0.775180  1.0
  O  O883  1  0.828090  0.775180  0.619910  1.0
  O  O884  1  0.171910  0.791820  0.947090  1.0
  O  O885  1  0.155270  0.380090  0.208180  1.0
  O  O886  1  0.844730  0.052910  0.224820  1.0
  O  O887  1  0.171910  0.224820  0.380090  1.0
  O  O888  1  0.828090  0.208180  0.052910  1.0
  O  O889  1  0.613300  0.874200  0.442700  1.0
  O  O890  1  0.386700  0.829400  0.260900  1.0
  O  O891  1  0.431500  0.260900  0.874200  1.0
  O  O892  1  0.568500  0.442700  0.829400  1.0
  O  O893  1  0.386700  0.125800  0.557300  1.0
  O  O894  1  0.613300  0.170600  0.739100  1.0
  O  O895  1  0.568500  0.739100  0.125800  1.0
  O  O896  1  0.431500  0.557300  0.170600  1.0
  O  O897  1  0.417740  0.590310  0.543470  1.0
  O  O898  1  0.582260  0.125730  0.172570  1.0
  O  O899  1  0.046840  0.172570  0.590310  1.0
  O  O900  1  0.953160  0.543470  0.125730  1.0
  O  O901  1  0.582260  0.409690  0.456530  1.0
  O  O902  1  0.417740  0.874270  0.827430  1.0
  O  O903  1  0.953160  0.827430  0.409690  1.0
  O  O904  1  0.046840  0.456530  0.874270  1.0
  O  O905  1  0.719000  0.437280  0.536080  1.0
  O  O906  1  0.281000  0.817080  0.718280  1.0
  O  O907  1  0.901200  0.718280  0.437280  1.0
  O  O908  1  0.098800  0.536080  0.817080  1.0
  O  O909  1  0.281000  0.562720  0.463920  1.0
  O  O910  1  0.719000  0.182920  0.281720  1.0
  O  O911  1  0.098800  0.281720  0.562720  1.0
  O  O912  1  0.901200  0.463920  0.182920  1.0
