
#######################################################################
#
#                 Cambridge Crystallographic Data Centre
#                                CCDC 
#
#######################################################################
#
# If this CIF has been generated from an entry in the Cambridge 
# Structural Database, then it will include bibliographic, chemical, 
# crystal, experimental, refinement or atomic coordinate data resulting 
# from the CCDC's data processing and validation procedures.
#
#######################################################################

data_XUQLAY
_chemical_formula_moiety         'C264 H240 Mo24 N24 O108,8(C6 H12 N2 O1)'
_chemical_name_systematic        
'tetracosakis(\m-isophthalato)-dodecakis(1,3-dimethyltetrahydropyrimidin-2(1H)-one)-tetracosa-molybdenum 1,3-dimethyltetrahydropyrimidin-2(1H)-one unknown solvate'
_symmetry_cell_setting           monoclinic
_symmetry_space_group_name_H-M   'P 21/n'
_symmetry_Int_Tables_number      14
_space_group_name_Hall           '-P 2yn'
loop_
_symmetry_equiv_pos_site_id
_symmetry_equiv_pos_as_xyz
1 x,y,z
2 1/2-x,1/2+y,1/2-z
3 -x,-y,-z
4 1/2+x,1/2-y,1/2+z
_cell_length_a                   26.83(3)
_cell_length_b                   33.23(3)
_cell_length_c                   27.88(3)
_cell_angle_alpha                90
_cell_angle_beta                 91.117(14)
_cell_angle_gamma                90
_cell_volume                     24852
_exptl_crystal_colour            'dark red'
_exptl_crystal_description       block
_cell_formula_units_Z            2
loop_
_atom_site_label
_atom_site_type_symbol
_atom_site_fract_x
_atom_site_fract_y
_atom_site_fract_z
Mo1 Mo 0.36972(4) 0.68237(4) 0.79273(4)
Mo2 Mo 0.39445(4) 0.64607(4) 0.73504(4)
Mo3 Mo 0.22954(4) 0.73152(4) 0.43648(4)
Mo4 Mo 0.28283(4) 0.68499(4) 0.45068(4)
Mo5 Mo 0.35754(4) 0.54750(4) 0.14872(4)
Mo6 Mo 0.38622(4) 0.53650(4) 0.21872(4)
Mo7 Mo 0.73322(4) 0.62660(4) 0.23654(4)
Mo8 Mo 0.68792(4) 0.59905(4) 0.28870(4)
Mo9 Mo 0.87811(4) 0.57742(4) 0.58655(4)
Mo10 Mo 0.80270(4) 0.56099(4) 0.56876(4)
Mo11 Mo 0.60508(4) 0.80818(4) 0.52884(4)
Mo12 Mo 0.58280(4) 0.74659(4) 0.52437(4)
O1 O 0.3147(3) 0.7091(2) 0.7477(3)
O2 O 0.3397(3) 0.6707(2) 0.6885(3)
O3 O 0.2201(3) 0.7425(3) 0.5100(3)
O4 O 0.2763(3) 0.6936(3) 0.5258(3)
O5 O 0.2364(3) 0.7210(3) 0.3621(3)
O6 O 0.2924(3) 0.6732(3) 0.3773(3)
O7 O 0.3210(3) 0.5994(2) 0.1707(3)
O8 O 0.3515(3) 0.5879(3) 0.2454(3)
O9 O 0.4189(3) 0.5826(2) 0.1326(3)
O10 O 0.4506(3) 0.5704(2) 0.2066(3)
O11 O 0.6702(3) 0.6386(2) 0.1927(3)
O12 O 0.6221(3) 0.6091(2) 0.2463(3)
O13 O 0.7990(3) 0.6148(2) 0.2780(3)
O14 O 0.7499(3) 0.5854(3) 0.3329(3)
O15 O 0.8946(3) 0.5856(2) 0.5132(3)
O16 O 0.8145(3) 0.5684(2) 0.4958(3)
O17 O 0.8670(3) 0.5684(3) 0.6603(3)
O18 O 0.7867(3) 0.5501(3) 0.6407(3)
O19 O 0.7075(3) 0.4861(2) 0.8369(3)
O20 O 0.6780(3) 0.4972(2) 0.7642(3)
O21 O 0.6080(3) 0.5039(2) 0.8779(3)
O22 O 0.5778(3) 0.5154(2) 0.8041(3)
O23 O 0.4245(3) 0.6578(2) 0.8396(3)
O24 O 0.4507(3) 0.6197(2) 0.7785(3)
O25 O 0.4202(3) 0.7296(2) 0.7764(3)
O26 O 0.4449(3) 0.6915(3) 0.7147(3)
O27 O 0.5745(3) 0.8135(3) 0.5975(3)
O28 O 0.5513(3) 0.7484(3) 0.5929(3)
O29 O 0.6365(3) 0.8052(3) 0.4612(3)
O30 O 0.6131(3) 0.7399(3) 0.4556(3)
O31 O 0.7252(3) 0.6837(2) 0.2692(3)
O32 O 0.6779(3) 0.6556(2) 0.3239(3)
O33 O 0.7421(3) 0.5715(3) 0.2011(3)
O34 O 0.6957(3) 0.5420(2) 0.2567(3)
O35 O 0.6801(3) 0.3622(3) 0.1852(3)
O36 O 0.6536(3) 0.4013(2) 0.2446(3)
O37 O 0.8287(3) 0.3106(3) 0.5631(3)
O38 O 0.7733(3) 0.3587(2) 0.5493(3)
O39 O 0.9005(3) 0.5177(3) 0.5800(3)
O40 O 0.8219(3) 0.5009(2) 0.5626(3)
O41 O 0.8575(3) 0.6387(3) 0.5927(3)
O42 O 0.7796(3) 0.6208(3) 0.5735(3)
O43 O 0.6755(3) 0.7921(3) 0.5585(3)
O44 O 0.6517(3) 0.7274(3) 0.5526(3)
O45 O 0.5371(3) 0.8279(2) 0.4986(3)
O46 O 0.5137(3) 0.7622(3) 0.4946(3)
O47 O 0.2863(3) 0.7746(2) 0.4365(3)
O48 O 0.3420(3) 0.7261(3) 0.4510(3)
C1 C 0.3110(5) 0.6979(4) 0.7020(5)
C2 C 0.2769(3) 0.7188(2) 0.6707(2)
C3 C 0.2463(3) 0.7495(2) 0.68674(19)
H1 H 0.2470 0.7569 0.7197
C4 C 0.2148(3) 0.7696(2) 0.6546(3)
H2 H 0.1939 0.7906 0.6656
C5 C 0.2138(3) 0.7589(2) 0.6064(2)
H3 H 0.1923 0.7726 0.5845
C6 C 0.2444(3) 0.7281(2) 0.5904(2)
C7 C 0.2759(3) 0.7080(2) 0.6225(3)
H4 H 0.2968 0.6870 0.6115
C8 C 0.2461(5) 0.7218(4) 0.5384(5)
C9 C 0.2662(6) 0.6927(5) 0.3485(5)
C10 C 0.2689(3) 0.6856(3) 0.2972(2)
C11 C 0.2420(3) 0.7091(2) 0.2645(3)
H5 H 0.2224 0.7309 0.2755
C12 C 0.2438(3) 0.7006(2) 0.2158(3)
H6 H 0.2254 0.7167 0.1935
C13 C 0.2724(3) 0.6687(3) 0.1996(2)
H7 H 0.2736 0.6630 0.1663
C14 C 0.2993(3) 0.6452(2) 0.2323(3)
C15 C 0.2975(3) 0.6537(3) 0.2810(3)
H8 H 0.3159 0.6376 0.3033
C16 C 0.3264(6) 0.6078(4) 0.2143(5)
C17 C 0.4519(5) 0.5880(4) 0.1645(5)
C18 C 0.4994(2) 0.6112(2) 0.1541(3)
C19 C 0.5022(2) 0.6326(2) 0.1114(3)
H9 H 0.4744 0.6334 0.0898
C20 C 0.5458(3) 0.6529(2) 0.1003(2)
H10 H 0.5477 0.6676 0.0711
C21 C 0.5865(2) 0.6518(2) 0.1318(3)
H11 H 0.6163 0.6657 0.1242
C22 C 0.5837(2) 0.6304(2) 0.1745(3)
C23 C 0.5401(3) 0.6101(2) 0.1856(2)
H12 H 0.5382 0.5954 0.2148
C24 C 0.6275(5) 0.6263(4) 0.2057(5)
C25 C 0.7912(5) 0.5980(4) 0.3157(5)
C26 C 0.8365(3) 0.5924(2) 0.3508(3)
C27 C 0.8839(3) 0.6017(2) 0.3350(2)
H13 H 0.8891 0.6074 0.3021
C28 C 0.9239(2) 0.6027(2) 0.3675(3)
H14 H 0.9563 0.6090 0.3567
C29 C 0.9164(3) 0.5944(2) 0.4157(3)
H15 H 0.9437 0.5950 0.4378
C30 C 0.8690(3) 0.5851(3) 0.4314(2)
C31 C 0.8290(2) 0.5841(3) 0.3990(3)
H16 H 0.7966 0.5777 0.4097
C32 C 0.8587(5) 0.5790(4) 0.4831(5)
C33 C 0.8232(6) 0.5565(4) 0.6717(5)
C34 C 0.8121(3) 0.5475(3) 0.7225(2)
C35 C 0.8499(2) 0.5523(3) 0.7568(3)
H17 H 0.8810 0.5635 0.7480
C36 C 0.8423(3) 0.5406(3) 0.8039(3)
H18 H 0.8681 0.5439 0.8274
C37 C 0.7968(3) 0.5241(3) 0.8168(2)
H19 H 0.7916 0.5162 0.8490
C38 C 0.7590(2) 0.5193(3) 0.7825(3)
C39 C 0.7666(3) 0.5310(3) 0.7353(3)
H20 H 0.7408 0.5277 0.7119
C40 C 0.7113(5) 0.5007(5) 0.7954(5)
C41 C 0.5830(5) 0.5257(4) 0.8485(5)
C42 C 0.5557(3) 0.56107(19) 0.8654(3)
C43 C 0.5638(2) 0.5748(2) 0.9120(3)
H21 H 0.5879 0.5620 0.9322
C44 C 0.5367(3) 0.6073(2) 0.9290(2)
H22 H 0.5422 0.6166 0.9609
C45 C 0.5014(3) 0.62600(19) 0.8995(3)
H23 H 0.4829 0.6482 0.9111
C46 C 0.4933(3) 0.6123(2) 0.8529(3)
C47 C 0.5204(3) 0.5798(2) 0.8359(2)
H24 H 0.5148 0.5704 0.8040
C48 C 0.4524(5) 0.6317(4) 0.8221(5)
C49 C 0.4455(5) 0.7238(5) 0.7398(5)
C50 C 0.4795(3) 0.7554(2) 0.7228(3)
C51 C 0.4837(3) 0.7904(3) 0.7499(2)
H25 H 0.4679 0.7922 0.7800
C52 C 0.5111(3) 0.8227(2) 0.7329(3)
H26 H 0.5140 0.8467 0.7514
C53 C 0.5343(3) 0.8201(2) 0.6889(3)
H27 H 0.5530 0.8422 0.6773
C54 C 0.5300(3) 0.7851(3) 0.6618(2)
C55 C 0.5027(3) 0.7527(2) 0.6788(3)
H28 H 0.4998 0.7288 0.6603
C56 C 0.5534(5) 0.7813(5) 0.6141(5)
C57 C 0.6355(5) 0.7724(4) 0.4393(5)
C58 C 0.6622(3) 0.7665(3) 0.3937(2)
C59 C 0.6877(3) 0.79936(19) 0.3754(3)
H29 H 0.6849 0.8250 0.3903
C60 C 0.7173(3) 0.7948(2) 0.3355(3)
H30 H 0.7347 0.8172 0.3230
C61 C 0.7214(3) 0.7573(2) 0.3137(2)
H31 H 0.7416 0.7541 0.2864
C62 C 0.6959(3) 0.72443(19) 0.3319(3)
C63 C 0.6663(3) 0.7290(2) 0.3719(3)
H32 H 0.6488 0.7066 0.3844
C64 C 0.6989(5) 0.6862(4) 0.3079(5)
C65 C 0.7234(5) 0.5423(5) 0.2187(5)
C66 C 0.7303(3) 0.5009(2) 0.1959(3)
C67 C 0.7598(3) 0.4968(2) 0.1558(3)
H33 H 0.7773 0.5194 0.1438
C68 C 0.7636(3) 0.4597(3) 0.1332(2)
H34 H 0.7837 0.4569 0.1057
C69 C 0.7379(3) 0.4266(2) 0.1507(3)
H35 H 0.7405 0.4012 0.1353
C70 C 0.7085(3) 0.4307(2) 0.1909(3)
C71 C 0.7047(3) 0.4678(3) 0.2135(2)
H36 H 0.6845 0.4706 0.2410
C72 C 0.6809(5) 0.3937(5) 0.2059(5)
C73 C 0.8167(5) 0.3469(5) 0.5602(5)
C74 C 0.8571(3) 0.3775(2) 0.5624(3)
C75 C 0.9066(3) 0.36612(19) 0.5692(3)
H37 H 0.9153 0.3384 0.5699
C76 C 0.9434(2) 0.3953(3) 0.5749(3)
H38 H 0.9772 0.3875 0.5795
C77 C 0.9307(3) 0.4358(2) 0.5739(3)
H39 H 0.9558 0.4558 0.5778
C78 C 0.8812(3) 0.4472(2) 0.5672(3)
C79 C 0.8444(2) 0.4181(3) 0.5614(3)
H40 H 0.8106 0.4259 0.5568
C80 C 0.8684(5) 0.4911(5) 0.5694(5)
C81 C 0.8127(5) 0.6461(4) 0.5846(4)
C82 C 0.7979(3) 0.68956(19) 0.5906(3)
C83 C 0.8316(2) 0.7187(3) 0.6063(3)
H41 H 0.8646 0.7112 0.6154
C84 C 0.8170(3) 0.7588(2) 0.6088(2)
H42 H 0.8400 0.7787 0.6195
C85 C 0.7686(3) 0.76969(19) 0.5955(3)
H43 H 0.7586 0.7971 0.5972
C86 C 0.7349(2) 0.7406(3) 0.5798(3)
C87 C 0.7495(3) 0.7005(2) 0.5774(3)
H44 H 0.7265 0.6806 0.5666
C88 C 0.6829(5) 0.7539(5) 0.5624(4)
C89 C 0.5065(5) 0.8007(5) 0.4902(5)
C90 C 0.4553(2) 0.8110(3) 0.4688(3)
C91 C 0.4447(3) 0.8512(2) 0.4590(3)
H45 H 0.4698 0.8710 0.4633
C92 C 0.3973(3) 0.8622(2) 0.4428(3)
H46 H 0.3901 0.8897 0.4360
C93 C 0.3606(2) 0.8332(3) 0.4364(3)
H47 H 0.3282 0.8407 0.4253
C94 C 0.3711(3) 0.7930(2) 0.4462(3)
C95 C 0.4185(3) 0.7819(2) 0.4624(3)
H48 H 0.4257 0.7545 0.4691
C96 C 0.3314(5) 0.7613(5) 0.4445(5)
O49 O 0.3388(3) 0.71702(15) 0.8634(2)
N1 N 0.3235(3) 0.78290(14) 0.8782(2)
N2 N 0.3032(3) 0.73383(17) 0.93367(18)
C97 C 0.32204(16) 0.74426(14) 0.89141(15)
C98 C 0.2799(3) 0.7630(2) 0.9647(2)
H49 H 0.2837 0.7543 0.9986
H50 H 0.2439 0.7648 0.9568
C99 C 0.3038(4) 0.8031(2) 0.9583(2)
H51 H 0.3390 0.8020 0.9694
H52 H 0.2863 0.8235 0.9776
C100 C 0.3011(3) 0.81438(15) 0.9066(3)
H53 H 0.2659 0.8182 0.8964
H54 H 0.3190 0.8401 0.9016
C101 C 0.3379(4) 0.7935(2) 0.8293(2)
H55 H 0.3524 0.7699 0.8137
H56 H 0.3625 0.8153 0.8305
H57 H 0.3084 0.8024 0.8109
C102 C 0.2945(4) 0.69112(19) 0.9444(3)
H58 H 0.3119 0.6744 0.9211
H59 H 0.2587 0.6854 0.9424
H60 H 0.3071 0.6850 0.9768
O50 O 0.1836(3) 0.79302(15) 0.4129(2)
N3 N 0.2180(3) 0.84680(17) 0.3760(2)
N4 N 0.1768(3) 0.85435(17) 0.4478(2)
C103 C 0.19267(17) 0.83089(14) 0.41225(17)
C104 C 0.2345(3) 0.88832(18) 0.3766(3)
H61 H 0.2372 0.8983 0.3433
H62 H 0.2677 0.8902 0.3924
C105 C 0.1980(3) 0.91338(15) 0.4030(3)
H63 H 0.1657 0.9138 0.3853
H64 H 0.2104 0.9414 0.4056
C106 C 0.1913(3) 0.89623(17) 0.4518(2)
H65 H 0.2228 0.8985 0.4706
H66 H 0.1652 0.9115 0.4687
C107 C 0.1524(4) 0.8362(2) 0.4892(3)
H67 H 0.1440 0.8082 0.4820
H68 H 0.1220 0.8512 0.4962
H69 H 0.1751 0.8372 0.5172
C108 C 0.2392(4) 0.8203(2) 0.3396(3)
H70 H 0.2248 0.7934 0.3423
H71 H 0.2755 0.8187 0.3445
H72 H 0.2317 0.8312 0.3076
O51 O 0.3242(3) 0.5668(2) 0.0733(2)
N5 N 0.3482(3) 0.54605(16) -0.0002(2)
N6 N 0.3624(3) 0.61164(16) 0.0249(2)
C109 C 0.34469(18) 0.57480(15) 0.03322(17)
C110 C 0.3759(3) 0.5523(2) -0.0437(2)
H73 H 0.3619 0.5351 -0.0697
H74 H 0.4112 0.5446 -0.0382
C111 C 0.3727(4) 0.5954(2) -0.05810(19)
H75 H 0.3378 0.6023 -0.0668
H76 H 0.3936 0.6001 -0.0865
C112 C 0.3905(3) 0.62105(19) -0.0174(3)
H77 H 0.4264 0.6161 -0.0110
H78 H 0.3861 0.6498 -0.0258
C113 C 0.3582(5) 0.6432(2) 0.0614(3)
H79 H 0.3369 0.6337 0.0872
H80 H 0.3435 0.6674 0.0468
H81 H 0.3914 0.6496 0.0746
C114 C 0.3368(4) 0.50415(16) 0.0126(3)
H82 H 0.3170 0.5037 0.0418
H83 H 0.3679 0.4893 0.0182
H84 H 0.3177 0.4915 -0.0137
O52 O 0.7838(3) 0.6485(2) 0.17111(19)
N7 N 0.8091(2) 0.6620(2) 0.09563(16)
N8 N 0.8518(2) 0.6881(2) 0.16159(17)
C115 C 0.81442(17) 0.66593(15) 0.14320(16)
C116 C 0.8799(3) 0.7155(2) 0.1321(2)
H85 H 0.9133 0.7201 0.1468
H86 H 0.8625 0.7417 0.1298
C117 C 0.8853(3) 0.6980(3) 0.0833(2)
H87 H 0.9059 0.6733 0.0851
H88 H 0.9021 0.7176 0.0622
C118 C 0.8350(3) 0.6881(3) 0.06282(17)
H89 H 0.8157 0.7132 0.0577
H90 H 0.8385 0.6746 0.0315
C119 C 0.7672(4) 0.6385(3) 0.0757(2)
H91 H 0.7520 0.6228 0.1013
H92 H 0.7793 0.6203 0.0508
H93 H 0.7422 0.6568 0.0616
C120 C 0.8562(4) 0.6936(3) 0.21379(18)
H94 H 0.8349 0.6740 0.2298
H95 H 0.8457 0.7209 0.2221
H96 H 0.8909 0.6895 0.2242
O53 O 0.9671(3) 0.5886(3) 0.6037(3)
N9 N 1.0292(3) 0.5440(3) 0.5900(2)
N10 N 1.0094(3) 0.5624(3) 0.6675(2)
C121 C 1.0015(2) 0.56531(19) 0.6202(2)
C122 C 1.0528(3) 0.5420(3) 0.6876(2)
H97 H 1.0455 0.5319 0.7201
H98 H 1.0811 0.5611 0.6902
C123 C 1.0664(4) 0.5077(3) 0.6559(3)
H99 H 1.0395 0.4873 0.6559
H100 H 1.0974 0.4949 0.6681
C124 C 1.0737(3) 0.5229(3) 0.6063(3)
H101 H 1.1027 0.5413 0.6058
H102 H 1.0805 0.5000 0.5845
C125 C 0.9826(4) 0.5895(4) 0.6999(3)
H103 H 0.9545 0.6019 0.6824
H104 H 1.0053 0.6106 0.7116
H105 H 0.9702 0.5741 0.7271
C126 C 1.0239(4) 0.5511(4) 0.5381(2)
H106 H 0.9930 0.5660 0.5314
H107 H 1.0228 0.5252 0.5212
H108 H 1.0524 0.5668 0.5270
O54 O 0.6248(3) 0.8756(2) 0.5316(4)
N11 N 0.6830(2) 0.9247(2) 0.5248(4)
N12 N 0.6063(2) 0.9383(2) 0.5582(4)
C127 C 0.6379(2) 0.91236(18) 0.5381(3)
C128 C 0.6225(3) 0.9777(2) 0.5746(4)
H109 H 0.6361 0.9758 0.6078
H110 H 0.5938 0.9964 0.5746
C129 C 0.6616(4) 0.99327(19) 0.5422(5)
H111 H 0.6746 1.0192 0.5545
H112 H 0.6470 0.9979 0.5097
C130 C 0.7029(3) 0.9634(3) 0.5396(5)
H113 H 0.7278 0.9727 0.5163
H114 H 0.7197 0.9609 0.5714
C131 C 0.7185(3) 0.8954(3) 0.5059(6)
H115 H 0.7008 0.8706 0.4969
H116 H 0.7439 0.8893 0.5306
H117 H 0.7346 0.9067 0.4777
C132 C 0.5583(3) 0.9237(3) 0.5757(6)
H118 H 0.5515 0.8969 0.5626
H119 H 0.5318 0.9422 0.5653
H120 H 0.5595 0.9224 0.6108
Mo1B Mo 0.63028(4) 0.31763(4) 0.20727(4)
Mo2B Mo 0.60555(4) 0.35393(4) 0.26496(4)
Mo3B Mo 0.77046(4) 0.26848(4) 0.56352(4)
Mo4B Mo 0.71717(4) 0.31501(4) 0.54932(4)
Mo5B Mo 0.64246(4) 0.45250(4) 0.85128(4)
Mo6B Mo 0.61378(4) 0.46350(4) 0.78128(4)
Mo7B Mo 0.26678(4) 0.37340(4) 0.76346(4)
Mo8B Mo 0.31208(4) 0.40095(4) 0.71130(4)
Mo9B Mo 0.12189(4) 0.42258(4) 0.41345(4)
Mo10B Mo 0.19730(4) 0.43901(4) 0.43124(4)
Mo11B Mo 0.39492(4) 0.19182(4) 0.47116(4)
Mo12B Mo 0.41720(4) 0.25341(4) 0.47563(4)
O1B O 0.6853(3) 0.2909(2) 0.2523(3)
O2B O 0.6603(3) 0.3293(2) 0.3115(3)
O3B O 0.7799(3) 0.2575(3) 0.4900(3)
O4B O 0.7237(3) 0.3064(3) 0.4742(3)
O5B O 0.7636(3) 0.2790(3) 0.6379(3)
O6B O 0.7076(3) 0.3268(3) 0.6227(3)
O7B O 0.6790(3) 0.4006(2) 0.8293(3)
O8B O 0.6485(3) 0.4121(3) 0.7546(3)
O9B O 0.5811(3) 0.4174(2) 0.8674(3)
O10B O 0.5494(3) 0.4296(2) 0.7934(3)
O11B O 0.3298(3) 0.3614(2) 0.8073(3)
O12B O 0.3779(3) 0.3909(2) 0.7537(3)
O13B O 0.2010(3) 0.3852(2) 0.7220(3)
O14B O 0.2501(3) 0.4146(3) 0.6671(3)
O15B O 0.1054(3) 0.4144(2) 0.4868(3)
O16B O 0.1855(3) 0.4316(2) 0.5042(3)
O17B O 0.1330(3) 0.4316(3) 0.3397(3)
O18B O 0.2133(3) 0.4499(3) 0.3593(3)
O19B O 0.2925(3) 0.5139(2) 0.1631(3)
O20B O 0.3220(3) 0.5028(2) 0.2358(3)
O21B O 0.3920(3) 0.4961(2) 0.1221(3)
O22B O 0.4222(3) 0.4846(2) 0.1959(3)
O23B O 0.5755(3) 0.3422(2) 0.1604(3)
O24B O 0.5493(3) 0.3803(2) 0.2215(3)
O25B O 0.5798(3) 0.2704(2) 0.2236(3)
O26B O 0.5551(3) 0.3085(3) 0.2853(3)
O27B O 0.4255(3) 0.1865(3) 0.4025(3)
O28B O 0.4487(3) 0.2516(3) 0.4071(3)
O29B O 0.3635(3) 0.1948(3) 0.5388(3)
O30B O 0.3869(3) 0.2601(3) 0.5444(3)
O31B O 0.2748(3) 0.3163(2) 0.7308(3)
O32B O 0.3221(3) 0.3444(2) 0.6761(3)
O33B O 0.2579(3) 0.4285(3) 0.7989(3)
O34B O 0.3043(3) 0.4580(2) 0.7433(3)
O35B O 0.3199(3) 0.6378(3) 0.8148(3)
O36B O 0.3464(3) 0.5987(2) 0.7554(3)
O37B O 0.1713(3) 0.6894(3) 0.4369(3)
O38B O 0.2267(3) 0.6413(2) 0.4507(3)
O39B O 0.0995(3) 0.4823(3) 0.4200(3)
O40B O 0.1781(3) 0.4991(2) 0.4374(3)
O41B O 0.1425(3) 0.3613(3) 0.4073(3)
O42B O 0.2204(3) 0.3792(3) 0.4265(3)
O43B O 0.3245(3) 0.2079(3) 0.4415(3)
O44B O 0.3483(3) 0.2726(3) 0.4474(3)
O45B O 0.4629(3) 0.1721(2) 0.5014(3)
O46B O 0.4863(3) 0.2378(3) 0.5054(3)
O47B O 0.7137(3) 0.2254(2) 0.5635(3)
O48B O 0.6580(3) 0.2739(3) 0.5490(3)
C1B C 0.6890(5) 0.3021(4) 0.2980(5)
C2B C 0.7231(3) 0.2812(2) 0.3293(2)
C3B C 0.7537(3) 0.2505(2) 0.31326(19)
H1B H 0.7530 0.2431 0.2803
C4B C 0.7852(3) 0.2304(2) 0.3454(3)
H2B H 0.8061 0.2094 0.3344
C5B C 0.7862(3) 0.2411(2) 0.3936(2)
H3B H 0.8077 0.2274 0.4155
C6B C 0.7556(3) 0.2719(2) 0.4096(2)
C7B C 0.7241(3) 0.2920(2) 0.3775(3)
H4B H 0.7032 0.3130 0.3885
C8B C 0.7539(5) 0.2782(4) 0.4616(5)
C9B C 0.7338(6) 0.3073(5) 0.6515(5)
C10B C 0.7311(3) 0.3144(3) 0.7028(2)
C11B C 0.7580(3) 0.2909(2) 0.7355(3)
H5B H 0.7776 0.2691 0.7245
C12B C 0.7562(3) 0.2994(2) 0.7842(3)
H6B H 0.7746 0.2833 0.8065
C13B C 0.7276(3) 0.3313(3) 0.8004(2)
H7B H 0.7264 0.3370 0.8337
C14B C 0.7007(3) 0.3548(2) 0.7677(3)
C15B C 0.7025(3) 0.3463(3) 0.7190(3)
H8B H 0.6841 0.3624 0.6967
C16B C 0.6736(6) 0.3922(4) 0.7857(5)
C17B C 0.5481(5) 0.4120(4) 0.8355(5)
C18B C 0.5006(2) 0.3888(2) 0.8459(3)
C19B C 0.4978(2) 0.3674(2) 0.8886(3)
H9B H 0.5256 0.3666 0.9102
C20B C 0.4542(3) 0.3471(2) 0.8997(2)
H10B H 0.4523 0.3324 0.9289
C21B C 0.4135(2) 0.3482(2) 0.8682(3)
H11B H 0.3837 0.3343 0.8758
C22B C 0.4163(2) 0.3696(2) 0.8255(3)
C23B C 0.4599(3) 0.3899(2) 0.8144(2)
H12B H 0.4618 0.4046 0.7852
C24B C 0.3725(5) 0.3737(4) 0.7943(5)
C25B C 0.2088(5) 0.4020(4) 0.6843(5)
C26B C 0.1635(3) 0.4076(2) 0.6492(3)
C27B C 0.1161(3) 0.3983(2) 0.6650(2)
H13B H 0.1109 0.3926 0.6979
C28B C 0.0761(2) 0.3973(2) 0.6325(3)
H14B H 0.0437 0.3910 0.6433
C29B C 0.0836(3) 0.4056(2) 0.5843(3)
H15B H 0.0563 0.4050 0.5622
C30B C 0.1310(3) 0.4149(3) 0.5686(2)
C31B C 0.1710(2) 0.4159(3) 0.6010(3)
H16B H 0.2034 0.4223 0.5903
C32B C 0.1413(5) 0.4210(4) 0.5169(5)
C33B C 0.1768(6) 0.4435(4) 0.3283(5)
C34B C 0.1879(3) 0.4525(3) 0.2775(2)
C35B C 0.1501(2) 0.4477(3) 0.2432(3)
H17B H 0.1190 0.4365 0.2520
C36B C 0.1577(3) 0.4594(3) 0.1961(3)
H18B H 0.1319 0.4561 0.1726
C37B C 0.2032(3) 0.4759(3) 0.1832(2)
H19B H 0.2084 0.4838 0.1510
C38B C 0.2410(2) 0.4807(3) 0.2175(3)
C39B C 0.2334(3) 0.4690(3) 0.2647(3)
H20B H 0.2592 0.4723 0.2881
C40B C 0.2887(5) 0.4993(5) 0.2046(5)
C41B C 0.4170(5) 0.4743(4) 0.1515(5)
C42B C 0.4443(3) 0.43893(19) 0.1346(3)
C43B C 0.4362(2) 0.4252(2) 0.0880(3)
H21B H 0.4121 0.4380 0.0678
C44B C 0.4633(3) 0.3927(2) 0.0710(2)
H22B H 0.4578 0.3834 0.0391
C45B C 0.4986(3) 0.37400(19) 0.1005(3)
H23B H 0.5171 0.3518 0.0889
C46B C 0.5067(3) 0.3877(2) 0.1471(3)
C47B C 0.4796(3) 0.4202(2) 0.1641(2)
H24B H 0.4852 0.4296 0.1960
C48B C 0.5476(5) 0.3683(4) 0.1779(5)
C49B C 0.5545(5) 0.2762(5) 0.2602(5)
C50B C 0.5205(3) 0.2446(2) 0.2772(3)
C51B C 0.5163(3) 0.2096(3) 0.2501(2)
H25B H 0.5321 0.2078 0.2200
C52B C 0.4889(3) 0.1773(2) 0.2671(3)
H26B H 0.4860 0.1533 0.2486
C53B C 0.4657(3) 0.1799(2) 0.3111(3)
H27B H 0.4470 0.1578 0.3227
C54B C 0.4700(3) 0.2149(3) 0.3382(2)
C55B C 0.4973(3) 0.2473(2) 0.3212(3)
H28B H 0.5002 0.2712 0.3397
C56B C 0.4466(5) 0.2187(5) 0.3859(5)
C57B C 0.3645(5) 0.2276(4) 0.5607(5)
C58B C 0.3378(3) 0.2335(3) 0.6063(2)
C59B C 0.3123(3) 0.20064(19) 0.6246(3)
H29B H 0.3151 0.1750 0.6097
C60B C 0.2827(3) 0.2052(2) 0.6645(3)
H30B H 0.2653 0.1828 0.6770
C61B C 0.2786(3) 0.2427(2) 0.6863(2)
H31B H 0.2584 0.2459 0.7136
C62B C 0.3041(3) 0.27557(19) 0.6681(3)
C63B C 0.3337(3) 0.2710(2) 0.6281(3)
H32B H 0.3512 0.2934 0.6156
C64B C 0.3011(5) 0.3138(4) 0.6921(5)
C65B C 0.2766(5) 0.4577(5) 0.7813(5)
C66B C 0.2697(3) 0.4991(2) 0.8041(3)
C67B C 0.2402(3) 0.5032(2) 0.8442(3)
H33B H 0.2227 0.4806 0.8562
C68B C 0.2364(3) 0.5403(3) 0.8668(2)
H34B H 0.2163 0.5431 0.8943
C69B C 0.2621(3) 0.5734(2) 0.8493(3)
H35B H 0.2595 0.5988 0.8647
C70B C 0.2915(3) 0.5693(2) 0.8091(3)
C71B C 0.2953(3) 0.5322(3) 0.7865(2)
H36B H 0.3155 0.5294 0.7590
C72B C 0.3191(5) 0.6063(5) 0.7941(5)
C73B C 0.1833(5) 0.6531(5) 0.4398(5)
C74B C 0.1429(3) 0.6225(2) 0.4376(3)
C75B C 0.0934(3) 0.63388(19) 0.4308(3)
H37B H 0.0847 0.6616 0.4301
C76B C 0.0566(2) 0.6047(3) 0.4251(3)
H38B H 0.0228 0.6125 0.4205
C77B C 0.0693(3) 0.5642(2) 0.4261(3)
H39B H 0.0442 0.5442 0.4222
C78B C 0.1188(3) 0.5528(2) 0.4328(3)
C79B C 0.1556(2) 0.5819(3) 0.4386(3)
H40B H 0.1894 0.5741 0.4432
C80B C 0.1316(5) 0.5089(5) 0.4306(5)
C81B C 0.1873(5) 0.3539(4) 0.4154(4)
C82B C 0.2021(3) 0.31044(19) 0.4094(3)
C83B C 0.1684(2) 0.2813(3) 0.3937(3)
H41B H 0.1354 0.2888 0.3846
C84B C 0.1830(3) 0.2412(2) 0.3912(2)
H42B H 0.1600 0.2213 0.3805
C85B C 0.2314(3) 0.23031(19) 0.4045(3)
H43B H 0.2414 0.2029 0.4028
C86B C 0.2651(2) 0.2594(3) 0.4202(3)
C87B C 0.2505(3) 0.2995(2) 0.4226(3)
H44B H 0.2735 0.3194 0.4334
C88B C 0.3171(5) 0.2461(5) 0.4376(4)
C89B C 0.4935(5) 0.1993(5) 0.5098(5)
C90B C 0.5447(2) 0.1890(3) 0.5312(3)
C91B C 0.5553(3) 0.1488(2) 0.5410(3)
H45B H 0.5302 0.1290 0.5367
C92B C 0.6027(3) 0.1378(2) 0.5572(3)
H46B H 0.6099 0.1103 0.5640
C93B C 0.6394(2) 0.1668(3) 0.5636(3)
H47B H 0.6718 0.1593 0.5747
C94B C 0.6289(3) 0.2070(2) 0.5538(3)
C95B C 0.5815(3) 0.2181(2) 0.5376(3)
H48B H 0.5743 0.2455 0.5309
C96B C 0.6686(5) 0.2387(5) 0.5555(5)
O49B O 0.6612(3) 0.28298(15) 0.1366(2)
N1B N 0.6765(3) 0.21710(14) 0.1218(2)
N2B N 0.6968(3) 0.26617(17) 0.06633(18)
C97B C 0.67796(16) 0.25574(14) 0.10859(15)
C98B C 0.7201(3) 0.2370(2) 0.0353(2)
H49B H 0.7163 0.2457 0.0014
H50B H 0.7561 0.2352 0.0432
C99B C 0.6962(4) 0.1969(2) 0.0417(2)
H51B H 0.6610 0.1980 0.0306
H52B H 0.7137 0.1765 0.0224
C100B C 0.6989(3) 0.18562(15) 0.0934(3)
H53B H 0.7341 0.1818 0.1036
H54B H 0.6810 0.1599 0.0984
C101B C 0.6621(4) 0.2065(2) 0.1707(2)
H55B H 0.6476 0.2301 0.1863
H56B H 0.6375 0.1847 0.1695
H57B H 0.6916 0.1976 0.1891
C102B C 0.7055(4) 0.30888(19) 0.0556(3)
H58B H 0.6881 0.3256 0.0789
H59B H 0.7413 0.3146 0.0576
H60B H 0.6929 0.3150 0.0232
O50B O 0.8164(3) 0.20698(15) 0.5871(2)
N3B N 0.7820(3) 0.15320(17) 0.6240(2)
N4B N 0.8232(3) 0.14565(17) 0.5522(2)
C103B C 0.80733(17) 0.16911(14) 0.58775(17)
C104B C 0.7655(3) 0.11168(18) 0.6234(3)
H61B H 0.7628 0.1017 0.6567
H62B H 0.7323 0.1098 0.6076
C105B C 0.8020(3) 0.08662(15) 0.5970(3)
H63B H 0.8343 0.0862 0.6147
H64B H 0.7896 0.0586 0.5944
C106B C 0.8087(3) 0.10377(17) 0.5482(2)
H65B H 0.7772 0.1015 0.5294
H66B H 0.8348 0.0885 0.5313
C107B C 0.8476(4) 0.1638(2) 0.5108(3)
H67B H 0.8560 0.1918 0.5180
H68B H 0.8780 0.1488 0.5038
H69B H 0.8249 0.1628 0.4828
C108B C 0.7608(4) 0.1797(2) 0.6604(3)
H70B H 0.7752 0.2066 0.6577
H71B H 0.7245 0.1813 0.6555
H72B H 0.7683 0.1688 0.6924
O51B O 0.6758(3) 0.4332(2) 0.9267(2)
N5B N 0.6518(3) 0.45395(16) 1.0002(2)
N6B N 0.6376(3) 0.38836(16) 0.9751(2)
C109B C 0.65531(18) 0.42520(15) 0.96678(17)
C110B C 0.6241(3) 0.4477(2) 1.0437(2)
H73B H 0.6381 0.4649 1.0697
H74B H 0.5888 0.4554 1.0382
C111B C 0.6273(4) 0.4046(2) 1.05810(19)
H75B H 0.6622 0.3977 1.0668
H76B H 0.6064 0.3999 1.0865
C112B C 0.6095(3) 0.37895(19) 1.0174(3)
H77B H 0.5736 0.3839 1.0110
H78B H 0.6139 0.3502 1.0258
C113B C 0.6418(5) 0.3568(2) 0.9386(3)
H79B H 0.6631 0.3663 0.9128
H80B H 0.6565 0.3326 0.9532
H81B H 0.6086 0.3504 0.9254
C114B C 0.6632(4) 0.49585(16) 0.9874(3)
H82B H 0.6830 0.4963 0.9582
H83B H 0.6321 0.5107 0.9818
H84B H 0.6823 0.5085 1.0137
O52B O 0.2162(3) 0.3515(2) 0.82889(19)
N7B N 0.1909(2) 0.3380(2) 0.90437(16)
N8B N 0.1482(2) 0.3119(2) 0.83841(17)
C115B C 0.18558(17) 0.33407(15) 0.85680(16)
C116B C 0.1201(3) 0.2845(2) 0.8679(2)
H85B H 0.0867 0.2799 0.8532
H86B H 0.1375 0.2583 0.8702
C117B C 0.1147(3) 0.3020(3) 0.9167(2)
H87B H 0.0941 0.3267 0.9149
H88B H 0.0979 0.2824 0.9378
C118B C 0.1650(3) 0.3119(3) 0.93718(17)
H89B H 0.1843 0.2868 0.9423
H90B H 0.1615 0.3254 0.9685
C119B C 0.2328(4) 0.3615(3) 0.9243(2)
H91B H 0.2480 0.3772 0.8987
H92B H 0.2207 0.3797 0.9492
H93B H 0.2578 0.3432 0.9384
C120B C 0.1438(4) 0.3064(3) 0.78621(18)
H94B H 0.1651 0.3260 0.7702
H95B H 0.1543 0.2791 0.7779
H96B H 0.1091 0.3105 0.7758
O53B O 0.0329(3) 0.4114(3) 0.3963(3)
N9B N -0.0292(3) 0.4560(3) 0.4100(2)
N10B N -0.0094(3) 0.4376(3) 0.3325(2)
C121B C -0.0015(2) 0.43469(19) 0.3798(2)
C122B C -0.0528(3) 0.4580(3) 0.3124(2)
H97B H -0.0455 0.4681 0.2799
H98B H -0.0811 0.4389 0.3098
C123B C -0.0664(4) 0.4923(3) 0.3441(3)
H99B H -0.0395 0.5127 0.3441
H100B H -0.0974 0.5051 0.3319
C124B C -0.0737(3) 0.4771(3) 0.3937(3)
H101B H -0.1027 0.4587 0.3942
H102B H -0.0805 0.5000 0.4155
C125B C 0.0174(4) 0.4105(4) 0.3001(3)
H103B H 0.0455 0.3981 0.3176
H104B H -0.0053 0.3894 0.2884
H105B H 0.0298 0.4259 0.2729
C126B C -0.0239(4) 0.4489(4) 0.4619(2)
H106B H 0.0070 0.4340 0.4686
H107B H -0.0228 0.4748 0.4788
H108B H -0.0524 0.4332 0.4730
O54B O 0.3752(3) 0.1244(2) 0.4684(4)
N11B N 0.3170(2) 0.0753(2) 0.4752(4)
N12B N 0.3937(2) 0.0617(2) 0.4418(4)
C127B C 0.3621(2) 0.08764(18) 0.4619(3)
C128B C 0.3775(3) 0.0223(2) 0.4254(4)
H109B H 0.3639 0.0242 0.3922
H110B H 0.4062 0.0036 0.4254
C129B C 0.3384(4) 0.00673(19) 0.4578(5)
H111B H 0.3254 -0.0192 0.4455
H112B H 0.3530 0.0021 0.4903
C130B C 0.2971(3) 0.0366(3) 0.4604(5)
H113B H 0.2722 0.0273 0.4837
H114B H 0.2803 0.0391 0.4286
C131B C 0.2815(3) 0.1046(3) 0.4941(6)
H115B H 0.2992 0.1294 0.5031
H116B H 0.2561 0.1107 0.4694
H117B H 0.2654 0.0933 0.5223
C132B C 0.4417(3) 0.0763(3) 0.4243(6)
H118B H 0.4485 0.1031 0.4374
H119B H 0.4682 0.0578 0.4347
H120B H 0.4405 0.0776 0.3892
O55 O 0.5890(2) 0.5753(2) 1.0287(2)
N13 N 0.53772(17) 0.5350(2) 1.0710(2)
N14 N 0.61882(17) 0.5470(2) 1.0975(2)
C133 C 0.58196(16) 0.55275(14) 1.06521(16)
C134 C 0.5250(2) 0.5155(2) 1.1157(2)
H121 H 0.4995 0.4946 1.1095
H122 H 0.5111 0.5355 1.1380
C135 C 0.5705(3) 0.4969(2) 1.1376(3)
H123 H 0.5823 0.4748 1.1169
H124 H 0.5625 0.4854 1.1693
C136 C 0.6101(2) 0.5279(3) 1.1433(2)
H125 H 0.5998 0.5484 1.1669
H126 H 0.6413 0.5152 1.1554
C137 C 0.4963(2) 0.5443(3) 1.0376(3)
H127 H 0.5093 0.5572 1.0088
H128 H 0.4728 0.5625 1.0531
H129 H 0.4791 0.5193 1.0285
C138 C 0.6661(2) 0.5687(3) 1.0924(3)
H130 H 0.6678 0.5801 1.0600
H131 H 0.6940 0.5500 1.0976
H132 H 0.6682 0.5904 1.1161
O56 O 0.0272(2) 0.78040(16) 0.5169(3)
N15 N -0.03499(17) 0.73438(18) 0.5203(3)
N16 N 0.04778(18) 0.71480(18) 0.5276(3)
C139 C 0.01350(17) 0.74367(16) 0.52153(18)
C140 C -0.0526(2) 0.6944(2) 0.5320(4)
H133 H -0.0848 0.6892 0.5153
H134 H -0.0578 0.6924 0.5670
C141 C -0.0151(3) 0.66402(17) 0.5171(4)
H135 H -0.0258 0.6368 0.5271
H136 H -0.0124 0.6642 0.4817
C142 C 0.0341(3) 0.67387(18) 0.5397(4)
H137 H 0.0322 0.6710 0.5750
H138 H 0.0598 0.6550 0.5282
C143 C -0.0723(2) 0.7668(2) 0.5190(5)
H139 H -0.0561 0.7922 0.5109
H140 H -0.0875 0.7691 0.5506
H141 H -0.0981 0.7605 0.4948
C144 C 0.10035(18) 0.7260(3) 0.5352(5)
H142 H 0.1051 0.7542 0.5259
H143 H 0.1214 0.7087 0.5155
H144 H 0.1096 0.7226 0.5691
O57 O 0.9867(2) 0.33585(18) 0.6518(3)
N17 N 0.9237(2) 0.2905(2) 0.6542(3)
N18 N 0.9983(2) 0.27445(19) 0.6183(3)
C145 C 0.96973(18) 0.30074(16) 0.64160(18)
C146 C 0.9046(2) 0.2501(2) 0.6480(3)
H145 H 0.8679 0.2509 0.6435
H146 H 0.9123 0.2339 0.6770
C147 C 0.9277(3) 0.2312(2) 0.6054(3)
H147 H 0.9168 0.2028 0.6025
H148 H 0.9169 0.2456 0.5759
C148 C 0.9830(3) 0.23306(18) 0.6109(3)
H149 H 0.9940 0.2164 0.6386
H150 H 0.9987 0.2222 0.5817
C149 C 0.8931(3) 0.3189(3) 0.6812(5)
H151 H 0.9095 0.3453 0.6820
H152 H 0.8893 0.3091 0.7140
H153 H 0.8602 0.3214 0.6655
C150 C 1.0510(2) 0.2839(3) 0.6108(5)
H154 H 1.0568 0.3126 0.6163
H155 H 1.0597 0.2771 0.5778
H156 H 1.0718 0.2682 0.6332
O58 O 0.8720(5) 0.4993(3) 0.0950(3)
N19 N 0.8982(4) 0.5629(2) 0.1107(3)
N20 N 0.8903(4) 0.5163(3) 0.1721(3)
C151 C 0.8867(2) 0.5258(2) 0.1255(3)
C152 C 0.9220(5) 0.5919(3) 0.1425(4)
H157 H 0.9139 0.6195 0.1317
H158 H 0.9586 0.5885 0.1420
C153 C 0.9039(6) 0.5857(3) 0.1922(3)
H159 H 0.9216 0.6043 0.2146
H160 H 0.8678 0.5917 0.1933
C154 C 0.9132(5) 0.5433(4) 0.2069(3)
H161 H 0.9496 0.5382 0.2090
H162 H 0.8991 0.5384 0.2389
C155 C 0.9003(7) 0.5713(4) 0.0590(3)
H163 H 0.8825 0.5501 0.0412
H164 H 0.9352 0.5720 0.0492
H165 H 0.8846 0.5973 0.0522
C156 C 0.8848(7) 0.4740(3) 0.1868(4)
H166 H 0.8687 0.4588 0.1607
H167 H 0.8643 0.4726 0.2154
H168 H 0.9178 0.4625 0.1939
O59? O 0.3391(3) 0.6302(2) 0.4663(3)
O60? O 0.6354(4) 0.5711(4) 0.3489(3)
O61? O 0.4233(3) 0.6061(3) 0.6694(2)
O62? O 0.71751(16) 0.5450(4) 0.5489(5)
loop_
_geom_bond_atom_site_label_1
_geom_bond_atom_site_label_2
_geom_bond_site_symmetry_1
_geom_bond_site_symmetry_2
Mo1 Mo2 1_555 1_555
Mo2 O2 1_555 1_555
Mo3 Mo4 1_555 1_555
Mo4 O4 1_555 1_555
Mo5 Mo6 1_555 1_555
Mo6 O8 1_555 1_555
Mo7 Mo8 1_555 1_555
Mo8 O12 1_555 1_555
Mo9 Mo10 1_555 1_555
Mo10 O16 1_555 1_555
Mo11 Mo12 1_555 1_555
Mo12 O28 1_555 1_555
O1 Mo1 1_555 1_555
O2 C1 1_555 1_555
O3 Mo3 1_555 1_555
O4 C8 1_555 1_555
O5 Mo3 1_555 1_555
O6 Mo4 1_555 1_555
O7 Mo5 1_555 1_555
O8 C16 1_555 1_555
O9 Mo5 1_555 1_555
O10 Mo6 1_555 1_555
O11 Mo7 1_555 1_555
O12 C24 1_555 1_555
O13 Mo7 1_555 1_555
O14 Mo8 1_555 1_555
O15 Mo9 1_555 1_555
O16 C32 1_555 1_555
O17 Mo9 1_555 1_555
O18 Mo10 1_555 1_555
O19 C40 1_555 1_555
O20 C40 1_555 1_555
O21 C41 1_555 1_555
O22 C41 1_555 1_555
O23 Mo1 1_555 1_555
O24 Mo2 1_555 1_555
O25 Mo1 1_555 1_555
O26 Mo2 1_555 1_555
O27 Mo11 1_555 1_555
O28 C56 1_555 1_555
O29 Mo11 1_555 1_555
O30 Mo12 1_555 1_555
O31 Mo7 1_555 1_555
O32 Mo8 1_555 1_555
O33 Mo7 1_555 1_555
O34 Mo8 1_555 1_555
O35 C72 1_555 1_555
O36 C72 1_555 1_555
O37 C73 1_555 1_555
O38 C73 1_555 1_555
O39 Mo9 1_555 1_555
O40 Mo10 1_555 1_555
O41 Mo9 1_555 1_555
O42 Mo10 1_555 1_555
O43 Mo11 1_555 1_555
O44 Mo12 1_555 1_555
O45 Mo11 1_555 1_555
O46 Mo12 1_555 1_555
O47 Mo3 1_555 1_555
O48 Mo4 1_555 1_555
C1 O1 1_555 1_555
C2 C1 1_555 1_555
C3 C2 1_555 1_555
H1 C3 1_555 1_555
C4 C3 1_555 1_555
H2 C4 1_555 1_555
C5 C4 1_555 1_555
H3 C5 1_555 1_555
C6 C5 1_555 1_555
C7 C2 1_555 1_555
H4 C7 1_555 1_555
C8 O3 1_555 1_555
C9 O5 1_555 1_555
C10 C9 1_555 1_555
C11 C10 1_555 1_555
H5 C11 1_555 1_555
C12 C11 1_555 1_555
H6 C12 1_555 1_555
C13 C12 1_555 1_555
H7 C13 1_555 1_555
C14 C13 1_555 1_555
C15 C10 1_555 1_555
H8 C15 1_555 1_555
C16 O7 1_555 1_555
C17 O9 1_555 1_555
C18 C17 1_555 1_555
C19 C18 1_555 1_555
H9 C19 1_555 1_555
C20 C19 1_555 1_555
H10 C20 1_555 1_555
C21 C20 1_555 1_555
H11 C21 1_555 1_555
C22 C21 1_555 1_555
C23 C18 1_555 1_555
H12 C23 1_555 1_555
C24 O11 1_555 1_555
C25 O13 1_555 1_555
C26 C25 1_555 1_555
C27 C26 1_555 1_555
H13 C27 1_555 1_555
C28 C27 1_555 1_555
H14 C28 1_555 1_555
C29 C28 1_555 1_555
H15 C29 1_555 1_555
C30 C29 1_555 1_555
C31 C26 1_555 1_555
H16 C31 1_555 1_555
C32 O15 1_555 1_555
C33 O17 1_555 1_555
C34 C33 1_555 1_555
C35 C34 1_555 1_555
H17 C35 1_555 1_555
C36 C35 1_555 1_555
H18 C36 1_555 1_555
C37 C36 1_555 1_555
H19 C37 1_555 1_555
C38 C37 1_555 1_555
C39 C34 1_555 1_555
H20 C39 1_555 1_555
C40 C38 1_555 1_555
C41 C42 1_555 1_555
C42 C43 1_555 1_555
C43 H21 1_555 1_555
C44 C43 1_555 1_555
H22 C44 1_555 1_555
C45 C44 1_555 1_555
H23 C45 1_555 1_555
C46 C45 1_555 1_555
C47 C42 1_555 1_555
H24 C47 1_555 1_555
C48 O23 1_555 1_555
C49 O25 1_555 1_555
C50 C49 1_555 1_555
C51 C50 1_555 1_555
H25 C51 1_555 1_555
C52 C51 1_555 1_555
H26 C52 1_555 1_555
C53 C52 1_555 1_555
H27 C53 1_555 1_555
C54 C53 1_555 1_555
C55 C50 1_555 1_555
H28 C55 1_555 1_555
C56 O27 1_555 1_555
C57 O29 1_555 1_555
C58 C57 1_555 1_555
C59 C58 1_555 1_555
H29 C59 1_555 1_555
C60 C59 1_555 1_555
H30 C60 1_555 1_555
C61 C60 1_555 1_555
H31 C61 1_555 1_555
C62 C61 1_555 1_555
C63 C58 1_555 1_555
H32 C63 1_555 1_555
C64 O31 1_555 1_555
C65 O33 1_555 1_555
C66 C65 1_555 1_555
C67 C66 1_555 1_555
H33 C67 1_555 1_555
C68 C67 1_555 1_555
H34 C68 1_555 1_555
C69 C68 1_555 1_555
H35 C69 1_555 1_555
C70 C69 1_555 1_555
C71 C66 1_555 1_555
H36 C71 1_555 1_555
C72 C70 1_555 1_555
C73 C74 1_555 1_555
C74 C75 1_555 1_555
C75 H37 1_555 1_555
C76 C75 1_555 1_555
H38 C76 1_555 1_555
C77 C76 1_555 1_555
H39 C77 1_555 1_555
C78 C77 1_555 1_555
C79 C74 1_555 1_555
H40 C79 1_555 1_555
C80 O39 1_555 1_555
C81 O41 1_555 1_555
C82 C81 1_555 1_555
C83 C82 1_555 1_555
H41 C83 1_555 1_555
C84 C83 1_555 1_555
H42 C84 1_555 1_555
C85 C84 1_555 1_555
H43 C85 1_555 1_555
C86 C85 1_555 1_555
C87 C82 1_555 1_555
H44 C87 1_555 1_555
C88 O43 1_555 1_555
C89 O45 1_555 1_555
C90 C89 1_555 1_555
C91 C90 1_555 1_555
H45 C91 1_555 1_555
C92 C91 1_555 1_555
H46 C92 1_555 1_555
C93 C92 1_555 1_555
H47 C93 1_555 1_555
C94 C93 1_555 1_555
C95 C90 1_555 1_555
H48 C95 1_555 1_555
C96 O47 1_555 1_555
O49 Mo1 1_555 1_555
N1 C97 1_555 1_555
N2 C97 1_555 1_555
C97 O49 1_555 1_555
C98 N2 1_555 1_555
H49 C98 1_555 1_555
H50 C98 1_555 1_555
C99 C98 1_555 1_555
H51 C99 1_555 1_555
H52 C99 1_555 1_555
C100 N1 1_555 1_555
H53 C100 1_555 1_555
H54 C100 1_555 1_555
C101 N1 1_555 1_555
H55 C101 1_555 1_555
H56 C101 1_555 1_555
H57 C101 1_555 1_555
C102 N2 1_555 1_555
H58 C102 1_555 1_555
H59 C102 1_555 1_555
H60 C102 1_555 1_555
O50 Mo3 1_555 1_555
N3 C103 1_555 1_555
N4 C103 1_555 1_555
C103 O50 1_555 1_555
C104 N3 1_555 1_555
H61 C104 1_555 1_555
H62 C104 1_555 1_555
C105 C104 1_555 1_555
H63 C105 1_555 1_555
H64 C105 1_555 1_555
C106 N4 1_555 1_555
H65 C106 1_555 1_555
H66 C106 1_555 1_555
C107 N4 1_555 1_555
H67 C107 1_555 1_555
H68 C107 1_555 1_555
H69 C107 1_555 1_555
C108 N3 1_555 1_555
H70 C108 1_555 1_555
H71 C108 1_555 1_555
H72 C108 1_555 1_555
O51 Mo5 1_555 1_555
N5 C109 1_555 1_555
N6 C109 1_555 1_555
C109 O51 1_555 1_555
C110 N5 1_555 1_555
H73 C110 1_555 1_555
H74 C110 1_555 1_555
C111 C110 1_555 1_555
H75 C111 1_555 1_555
H76 C111 1_555 1_555
C112 N6 1_555 1_555
H77 C112 1_555 1_555
H78 C112 1_555 1_555
C113 N6 1_555 1_555
H79 C113 1_555 1_555
H80 C113 1_555 1_555
H81 C113 1_555 1_555
C114 N5 1_555 1_555
H82 C114 1_555 1_555
H83 C114 1_555 1_555
H84 C114 1_555 1_555
O52 Mo7 1_555 1_555
N7 C115 1_555 1_555
N8 C115 1_555 1_555
C115 O52 1_555 1_555
C116 N8 1_555 1_555
H85 C116 1_555 1_555
H86 C116 1_555 1_555
C117 C116 1_555 1_555
H87 C117 1_555 1_555
H88 C117 1_555 1_555
C118 N7 1_555 1_555
H89 C118 1_555 1_555
H90 C118 1_555 1_555
C119 N7 1_555 1_555
H91 C119 1_555 1_555
H92 C119 1_555 1_555
H93 C119 1_555 1_555
C120 N8 1_555 1_555
H94 C120 1_555 1_555
H95 C120 1_555 1_555
H96 C120 1_555 1_555
O53 Mo9 1_555 1_555
N9 C121 1_555 1_555
N10 C121 1_555 1_555
C121 O53 1_555 1_555
C122 N10 1_555 1_555
H97 C122 1_555 1_555
H98 C122 1_555 1_555
C123 C122 1_555 1_555
H99 C123 1_555 1_555
H100 C123 1_555 1_555
C124 N9 1_555 1_555
H101 C124 1_555 1_555
H102 C124 1_555 1_555
C125 N10 1_555 1_555
H103 C125 1_555 1_555
H104 C125 1_555 1_555
H105 C125 1_555 1_555
C126 N9 1_555 1_555
H106 C126 1_555 1_555
H107 C126 1_555 1_555
H108 C126 1_555 1_555
O54 Mo11 1_555 1_555
N11 C127 1_555 1_555
N12 C127 1_555 1_555
C127 O54 1_555 1_555
C128 N12 1_555 1_555
H109 C128 1_555 1_555
H110 C128 1_555 1_555
C129 C128 1_555 1_555
H111 C129 1_555 1_555
H112 C129 1_555 1_555
C130 N11 1_555 1_555
H113 C130 1_555 1_555
H114 C130 1_555 1_555
C131 N11 1_555 1_555
H115 C131 1_555 1_555
H116 C131 1_555 1_555
H117 C131 1_555 1_555
C132 N12 1_555 1_555
H118 C132 1_555 1_555
H119 C132 1_555 1_555
H120 C132 1_555 1_555
O55 C133 1_555 1_555
N13 C133 1_555 1_555
N14 C133 1_555 1_555
C134 N13 1_555 1_555
H121 C134 1_555 1_555
H122 C134 1_555 1_555
C135 C134 1_555 1_555
H123 C135 1_555 1_555
H124 C135 1_555 1_555
C136 N14 1_555 1_555
H125 C136 1_555 1_555
H126 C136 1_555 1_555
C137 N13 1_555 1_555
H127 C137 1_555 1_555
H128 C137 1_555 1_555
H129 C137 1_555 1_555
C138 N14 1_555 1_555
H130 C138 1_555 1_555
H131 C138 1_555 1_555
H132 C138 1_555 1_555
O56 C139 1_555 1_555
N15 C139 1_555 1_555
N16 C139 1_555 1_555
C140 N15 1_555 1_555
H133 C140 1_555 1_555
H134 C140 1_555 1_555
C141 C140 1_555 1_555
H135 C141 1_555 1_555
H136 C141 1_555 1_555
C142 N16 1_555 1_555
H137 C142 1_555 1_555
H138 C142 1_555 1_555
C143 N15 1_555 1_555
H139 C143 1_555 1_555
H140 C143 1_555 1_555
H141 C143 1_555 1_555
C144 N16 1_555 1_555
H142 C144 1_555 1_555
H143 C144 1_555 1_555
H144 C144 1_555 1_555
O57 C145 1_555 1_555
N17 C145 1_555 1_555
N18 C145 1_555 1_555
C146 N17 1_555 1_555
H145 C146 1_555 1_555
H146 C146 1_555 1_555
C147 C146 1_555 1_555
H147 C147 1_555 1_555
H148 C147 1_555 1_555
C148 N18 1_555 1_555
H149 C148 1_555 1_555
H150 C148 1_555 1_555
C149 N17 1_555 1_555
H151 C149 1_555 1_555
H152 C149 1_555 1_555
H153 C149 1_555 1_555
C150 N18 1_555 1_555
H154 C150 1_555 1_555
H155 C150 1_555 1_555
H156 C150 1_555 1_555
O58 C151 1_555 1_555
N19 C151 1_555 1_555
N20 C151 1_555 1_555
C152 N19 1_555 1_555
H157 C152 1_555 1_555
H158 C152 1_555 1_555
C153 C152 1_555 1_555
H159 C153 1_555 1_555
H160 C153 1_555 1_555
C154 N20 1_555 1_555
H161 C154 1_555 1_555
H162 C154 1_555 1_555
C155 N19 1_555 1_555
H163 C155 1_555 1_555
H164 C155 1_555 1_555
H165 C155 1_555 1_555
C156 N20 1_555 1_555
H166 C156 1_555 1_555
H167 C156 1_555 1_555
H168 C156 1_555 1_555
Mo1B O35 1_555 1_555
Mo2B O36 1_555 1_555
Mo3B O37 1_555 1_555
Mo4B O38 1_555 1_555
Mo5B O19 1_555 1_555
Mo6B O20 1_555 1_555
Mo7B Mo8B 1_555 1_555
Mo8B O12B 1_555 1_555
Mo9B Mo10B 1_555 1_555
Mo10B O16B 1_555 1_555
Mo11B Mo12B 1_555 1_555
Mo12B O28B 1_555 1_555
O1B Mo1B 1_555 1_555
O2B Mo2B 1_555 1_555
O3B Mo3B 1_555 1_555
O4B Mo4B 1_555 1_555
O5B Mo3B 1_555 1_555
O6B Mo4B 1_555 1_555
O7B Mo5B 1_555 1_555
O8B Mo6B 1_555 1_555
O9B Mo5B 1_555 1_555
O10B Mo6B 1_555 1_555
O11B Mo7B 1_555 1_555
O12B C24B 1_555 1_555
O13B Mo7B 1_555 1_555
O14B Mo8B 1_555 1_555
O15B Mo9B 1_555 1_555
O16B C32B 1_555 1_555
O17B Mo9B 1_555 1_555
O18B Mo10B 1_555 1_555
O19B Mo5 1_555 1_555
O20B Mo6 1_555 1_555
O21B Mo5 1_555 1_555
O22B Mo6 1_555 1_555
O23B Mo1B 1_555 1_555
O24B Mo2B 1_555 1_555
O25B Mo1B 1_555 1_555
O26B Mo2B 1_555 1_555
O27B Mo11B 1_555 1_555
O28B C56B 1_555 1_555
O29B Mo11B 1_555 1_555
O30B Mo12B 1_555 1_555
O31B Mo7B 1_555 1_555
O32B Mo8B 1_555 1_555
O33B Mo7B 1_555 1_555
O34B Mo8B 1_555 1_555
O35B Mo1 1_555 1_555
O36B Mo2 1_555 1_555
O37B Mo3 1_555 1_555
O38B Mo4 1_555 1_555
O39B Mo9B 1_555 1_555
O40B Mo10B 1_555 1_555
O41B Mo9B 1_555 1_555
O42B Mo10B 1_555 1_555
O43B Mo11B 1_555 1_555
O44B Mo12B 1_555 1_555
O45B Mo11B 1_555 1_555
O46B Mo12B 1_555 1_555
O47B Mo3B 1_555 1_555
O48B Mo4B 1_555 1_555
C1B O1B 1_555 1_555
C2B C1B 1_555 1_555
C3B C2B 1_555 1_555
H1B C3B 1_555 1_555
C4B C3B 1_555 1_555
H2B C4B 1_555 1_555
C5B C4B 1_555 1_555
H3B C5B 1_555 1_555
C6B C5B 1_555 1_555
C7B C2B 1_555 1_555
H4B C7B 1_555 1_555
C8B O3B 1_555 1_555
C9B O5B 1_555 1_555
C10B C9B 1_555 1_555
C11B C10B 1_555 1_555
H5B C11B 1_555 1_555
C12B C11B 1_555 1_555
H6B C12B 1_555 1_555
C13B C12B 1_555 1_555
H7B C13B 1_555 1_555
C14B C13B 1_555 1_555
C15B C10B 1_555 1_555
H8B C15B 1_555 1_555
C16B O7B 1_555 1_555
C17B O9B 1_555 1_555
C18B C17B 1_555 1_555
C19B C18B 1_555 1_555
H9B C19B 1_555 1_555
C20B C19B 1_555 1_555
H10B C20B 1_555 1_555
C21B C20B 1_555 1_555
H11B C21B 1_555 1_555
C22B C21B 1_555 1_555
C23B C18B 1_555 1_555
H12B C23B 1_555 1_555
C24B O11B 1_555 1_555
C25B O13B 1_555 1_555
C26B C25B 1_555 1_555
C27B C26B 1_555 1_555
H13B C27B 1_555 1_555
C28B C27B 1_555 1_555
H14B C28B 1_555 1_555
C29B C28B 1_555 1_555
H15B C29B 1_555 1_555
C30B C29B 1_555 1_555
C31B C26B 1_555 1_555
H16B C31B 1_555 1_555
C32B O15B 1_555 1_555
C33B O17B 1_555 1_555
C34B C33B 1_555 1_555
C35B C34B 1_555 1_555
H17B C35B 1_555 1_555
C36B C35B 1_555 1_555
H18B C36B 1_555 1_555
C37B C36B 1_555 1_555
H19B C37B 1_555 1_555
C38B C37B 1_555 1_555
C39B C34B 1_555 1_555
H20B C39B 1_555 1_555
C40B O19B 1_555 1_555
C41B O21B 1_555 1_555
C42B C41B 1_555 1_555
C43B C42B 1_555 1_555
H21B C43B 1_555 1_555
C44B C43B 1_555 1_555
H22B C44B 1_555 1_555
C45B C44B 1_555 1_555
H23B C45B 1_555 1_555
C46B C45B 1_555 1_555
C47B C42B 1_555 1_555
H24B C47B 1_555 1_555
C48B O23B 1_555 1_555
C49B O25B 1_555 1_555
C50B C49B 1_555 1_555
C51B C50B 1_555 1_555
H25B C51B 1_555 1_555
C52B C51B 1_555 1_555
H26B C52B 1_555 1_555
C53B C52B 1_555 1_555
H27B C53B 1_555 1_555
C54B C53B 1_555 1_555
C55B C50B 1_555 1_555
H28B C55B 1_555 1_555
C56B O27B 1_555 1_555
C57B O29B 1_555 1_555
C58B C57B 1_555 1_555
C59B C58B 1_555 1_555
H29B C59B 1_555 1_555
C60B C59B 1_555 1_555
H30B C60B 1_555 1_555
C61B C60B 1_555 1_555
H31B C61B 1_555 1_555
C62B C61B 1_555 1_555
C63B C58B 1_555 1_555
H32B C63B 1_555 1_555
C64B O31B 1_555 1_555
C65B O33B 1_555 1_555
C66B C65B 1_555 1_555
C67B C66B 1_555 1_555
H33B C67B 1_555 1_555
C68B C67B 1_555 1_555
H34B C68B 1_555 1_555
C69B C68B 1_555 1_555
H35B C69B 1_555 1_555
C70B C69B 1_555 1_555
C71B C66B 1_555 1_555
H36B C71B 1_555 1_555
C72B O35B 1_555 1_555
C73B O37B 1_555 1_555
C74B C73B 1_555 1_555
C75B C74B 1_555 1_555
H37B C75B 1_555 1_555
C76B C75B 1_555 1_555
H38B C76B 1_555 1_555
C77B C76B 1_555 1_555
H39B C77B 1_555 1_555
C78B C77B 1_555 1_555
C79B C74B 1_555 1_555
H40B C79B 1_555 1_555
C80B O39B 1_555 1_555
C81B O41B 1_555 1_555
C82B C81B 1_555 1_555
C83B C82B 1_555 1_555
H41B C83B 1_555 1_555
C84B C83B 1_555 1_555
H42B C84B 1_555 1_555
C85B C84B 1_555 1_555
H43B C85B 1_555 1_555
C86B C85B 1_555 1_555
C87B C82B 1_555 1_555
H44B C87B 1_555 1_555
C88B O43B 1_555 1_555
C89B O45B 1_555 1_555
C90B C89B 1_555 1_555
C91B C90B 1_555 1_555
H45B C91B 1_555 1_555
C92B C91B 1_555 1_555
H46B C92B 1_555 1_555
C93B C92B 1_555 1_555
H47B C93B 1_555 1_555
C94B C93B 1_555 1_555
C95B C90B 1_555 1_555
H48B C95B 1_555 1_555
C96B O47B 1_555 1_555
O49B Mo1B 1_555 1_555
N1B C97B 1_555 1_555
N2B C97B 1_555 1_555
C97B O49B 1_555 1_555
C98B N2B 1_555 1_555
H49B C98B 1_555 1_555
H50B C98B 1_555 1_555
C99B C98B 1_555 1_555
H51B C99B 1_555 1_555
H52B C99B 1_555 1_555
C100B N1B 1_555 1_555
H53B C100B 1_555 1_555
H54B C100B 1_555 1_555
C101B N1B 1_555 1_555
H55B C101B 1_555 1_555
H56B C101B 1_555 1_555
H57B C101B 1_555 1_555
C102B N2B 1_555 1_555
H58B C102B 1_555 1_555
H59B C102B 1_555 1_555
H60B C102B 1_555 1_555
O50B Mo3B 1_555 1_555
N3B C103B 1_555 1_555
N4B C103B 1_555 1_555
C103B O50B 1_555 1_555
C104B N3B 1_555 1_555
H61B C104B 1_555 1_555
H62B C104B 1_555 1_555
C105B C104B 1_555 1_555
H63B C105B 1_555 1_555
H64B C105B 1_555 1_555
C106B N4B 1_555 1_555
H65B C106B 1_555 1_555
H66B C106B 1_555 1_555
C107B N4B 1_555 1_555
H67B C107B 1_555 1_555
H68B C107B 1_555 1_555
H69B C107B 1_555 1_555
C108B N3B 1_555 1_555
H70B C108B 1_555 1_555
H71B C108B 1_555 1_555
H72B C108B 1_555 1_555
O51B Mo5B 1_555 1_555
N5B C109B 1_555 1_555
N6B C109B 1_555 1_555
C109B O51B 1_555 1_555
C110B N5B 1_555 1_555
H73B C110B 1_555 1_555
H74B C110B 1_555 1_555
C111B C110B 1_555 1_555
H75B C111B 1_555 1_555
H76B C111B 1_555 1_555
C112B N6B 1_555 1_555
H77B C112B 1_555 1_555
H78B C112B 1_555 1_555
C113B N6B 1_555 1_555
H79B C113B 1_555 1_555
H80B C113B 1_555 1_555
H81B C113B 1_555 1_555
C114B N5B 1_555 1_555
H82B C114B 1_555 1_555
H83B C114B 1_555 1_555
H84B C114B 1_555 1_555
O52B Mo7B 1_555 1_555
N7B C115B 1_555 1_555
N8B C115B 1_555 1_555
C115B O52B 1_555 1_555
C116B N8B 1_555 1_555
H85B C116B 1_555 1_555
H86B C116B 1_555 1_555
C117B C116B 1_555 1_555
H87B C117B 1_555 1_555
H88B C117B 1_555 1_555
C118B N7B 1_555 1_555
H89B C118B 1_555 1_555
H90B C118B 1_555 1_555
C119B N7B 1_555 1_555
H91B C119B 1_555 1_555
H92B C119B 1_555 1_555
H93B C119B 1_555 1_555
C120B N8B 1_555 1_555
H94B C120B 1_555 1_555
H95B C120B 1_555 1_555
H96B C120B 1_555 1_555
O53B Mo9B 1_555 1_555
N9B C121B 1_555 1_555
N10B C121B 1_555 1_555
C121B O53B 1_555 1_555
C122B N10B 1_555 1_555
H97B C122B 1_555 1_555
H98B C122B 1_555 1_555
C123B C122B 1_555 1_555
H99B C123B 1_555 1_555
H100B C123B 1_555 1_555
C124B N9B 1_555 1_555
H101B C124B 1_555 1_555
H102B C124B 1_555 1_555
C125B N10B 1_555 1_555
H103B C125B 1_555 1_555
H104B C125B 1_555 1_555
H105B C125B 1_555 1_555
C126B N9B 1_555 1_555
H106B C126B 1_555 1_555
H107B C126B 1_555 1_555
H108B C126B 1_555 1_555
O54B Mo11B 1_555 1_555
N11B C127B 1_555 1_555
N12B C127B 1_555 1_555
C127B O54B 1_555 1_555
C128B N12B 1_555 1_555
H109B C128B 1_555 1_555
H110B C128B 1_555 1_555
C129B C128B 1_555 1_555
H111B C129B 1_555 1_555
H112B C129B 1_555 1_555
C130B N11B 1_555 1_555
H113B C130B 1_555 1_555
H114B C130B 1_555 1_555
C131B N11B 1_555 1_555
H115B C131B 1_555 1_555
H116B C131B 1_555 1_555
H117B C131B 1_555 1_555
C132B N12B 1_555 1_555
H118B C132B 1_555 1_555
H119B C132B 1_555 1_555
H120B C132B 1_555 1_555
O6 C9 1_555 1_555
O10 C17 1_555 1_555
O14 C25 1_555 1_555
O18 C33 1_555 1_555
O21 Mo5B 1_555 1_555
O22 Mo6B 1_555 1_555
O24 C48 1_555 1_555
O26 C49 1_555 1_555
O30 C57 1_555 1_555
O32 C64 1_555 1_555
O34 C65 1_555 1_555
O40 C80 1_555 1_555
O42 C81 1_555 1_555
O44 C88 1_555 1_555
O46 C89 1_555 1_555
O48 C96 1_555 1_555
C6 C7 1_555 1_555
C6 C8 1_555 1_555
C14 C15 1_555 1_555
C14 C16 1_555 1_555
C22 C23 1_555 1_555
C22 C24 1_555 1_555
C30 C31 1_555 1_555
C30 C32 1_555 1_555
C38 C39 1_555 1_555
C46 C47 1_555 1_555
C46 C48 1_555 1_555
C54 C55 1_555 1_555
C54 C56 1_555 1_555
C62 C63 1_555 1_555
C62 C64 1_555 1_555
C70 C71 1_555 1_555
C78 C79 1_555 1_555
C78 C80 1_555 1_555
C86 C87 1_555 1_555
C86 C88 1_555 1_555
C94 C95 1_555 1_555
C94 C96 1_555 1_555
C99 C100 1_555 1_555
C105 C106 1_555 1_555
C111 C112 1_555 1_555
C117 C118 1_555 1_555
C123 C124 1_555 1_555
C129 C130 1_555 1_555
C135 C136 1_555 1_555
C141 C142 1_555 1_555
C147 C148 1_555 1_555
C153 C154 1_555 1_555
Mo1B Mo2B 1_555 1_555
Mo3B Mo4B 1_555 1_555
Mo5B Mo6B 1_555 1_555
O2B C1B 1_555 1_555
O4B C8B 1_555 1_555
O6B C9B 1_555 1_555
O8B C16B 1_555 1_555
O10B C17B 1_555 1_555
O14B C25B 1_555 1_555
O18B C33B 1_555 1_555
O20B C40B 1_555 1_555
O22B C41B 1_555 1_555
O24B C48B 1_555 1_555
O26B C49B 1_555 1_555
O30B C57B 1_555 1_555
O32B C64B 1_555 1_555
O34B C65B 1_555 1_555
O36B C72B 1_555 1_555
O38B C73B 1_555 1_555
O40B C80B 1_555 1_555
O42B C81B 1_555 1_555
O44B C88B 1_555 1_555
O46B C89B 1_555 1_555
O48B C96B 1_555 1_555
C6B C7B 1_555 1_555
C6B C8B 1_555 1_555
C14B C15B 1_555 1_555
C14B C16B 1_555 1_555
C22B C23B 1_555 1_555
C22B C24B 1_555 1_555
C30B C31B 1_555 1_555
C30B C32B 1_555 1_555
C38B C39B 1_555 1_555
C38B C40B 1_555 1_555
C46B C47B 1_555 1_555
C46B C48B 1_555 1_555
C54B C55B 1_555 1_555
C54B C56B 1_555 1_555
C62B C63B 1_555 1_555
C62B C64B 1_555 1_555
C70B C71B 1_555 1_555
C70B C72B 1_555 1_555
C78B C79B 1_555 1_555
C78B C80B 1_555 1_555
C86B C87B 1_555 1_555
C86B C88B 1_555 1_555
C94B C95B 1_555 1_555
C94B C96B 1_555 1_555
C99B C100B 1_555 1_555
C105B C106B 1_555 1_555
C111B C112B 1_555 1_555
C117B C118B 1_555 1_555
C123B C124B 1_555 1_555
C129B C130B 1_555 1_555

#END
