
#######################################################################
#
#                 Cambridge Crystallographic Data Centre
#                                CCDC 
#
#######################################################################
#
# If this CIF has been generated from an entry in the Cambridge 
# Structural Database, then it will include bibliographic, chemical, 
# crystal, experimental, refinement or atomic coordinate data resulting 
# from the CCDC's data processing and validation procedures.
#
#######################################################################

data_XUQLEC
_chemical_formula_moiety         'C192 H96 Mo24 O120,20(C6 H12 N2 O1)'
_chemical_name_systematic        
'tetracosakis(\m-5-hydroxyisophthalato)-tetracosa-molybdenum icosakis(1,3-dimethyltetrahydropyrimidin-2(1H)-one) unknown solvate'
_symmetry_cell_setting           tetragonal
_symmetry_space_group_name_H-M   'I 4/m'
_symmetry_Int_Tables_number      87
_space_group_name_Hall           '-I 4'
loop_
_symmetry_equiv_pos_site_id
_symmetry_equiv_pos_as_xyz
1 x,y,z
2 -x,-y,z
3 -y,x,z
4 y,-x,z
5 1/2+x,1/2+y,1/2+z
6 1/2-x,1/2-y,1/2+z
7 1/2-y,1/2+x,1/2+z
8 1/2+y,1/2-x,1/2+z
9 -x,-y,-z
10 x,y,-z
11 y,-x,-z
12 -y,x,-z
13 1/2-x,1/2-y,1/2-z
14 1/2+x,1/2+y,1/2-z
15 1/2+y,1/2-x,1/2-z
16 1/2-y,1/2+x,1/2-z
_cell_length_a                   31.651(8)
_cell_length_b                   31.651(8)
_cell_length_c                   32.246(16)
_cell_angle_alpha                90
_cell_angle_beta                 90
_cell_angle_gamma                90
_cell_volume                     32303.6
_exptl_crystal_colour            'dark red'
_exptl_crystal_description       block
_cell_formula_units_Z            2
loop_
_atom_site_label
_atom_site_type_symbol
_atom_site_fract_x
_atom_site_fract_y
_atom_site_fract_z
Mo1 Mo 0.078654(18) 0.226114(19) 0.233342(19)
Mo2 Mo 0.063774(18) 0.182347(19) 0.186074(19)
Mo3 Mo -0.14828(3) 0.30346(3) 0.0000
Mo4 Mo -0.11957(3) 0.24337(3) 0.0000
O1 O 0.04517(13) 0.27381(13) 0.20204(14)
O2 O 0.02935(14) 0.22720(14) 0.15276(14)
O3 O -0.10712(14) 0.32546(14) 0.04588(14)
O4 O -0.07674(13) 0.26136(13) 0.04688(14)
O5 O 0.28422(13) 0.19201(14) 0.04561(14)
O6 O 0.22144(13) 0.16053(14) 0.04595(14)
O7 O 0.13342(14) 0.24537(13) 0.20141(13)
O8 O 0.11790(14) 0.19883(14) 0.15244(14)
O9 O 0.11255(13) 0.18042(14) 0.26622(15)
O10 O 0.09772(14) 0.13428(14) 0.21630(14)
O11 O 0.20955(13) -0.02350(13) 0.26663(14)
O12 O 0.16359(14) -0.00832(14) 0.21650(14)
O13 O -0.0224(3) 0.4091(2) 0.1482(3)
H1 H -0.0048 0.4127 0.1673
O14 O 0.26771(15) 0.31455(16) 0.14198(18)
H2 H 0.2567 0.3291 0.1609
O15 O 0.1899(2) 0.0911(2) 0.37282(19)
H3 H 0.2020 0.1146 0.3750
C1 C 0.0277(2) 0.2642(2) 0.1671(2)
C2 C 0.0021(2) 0.2971(2) 0.1456(2)
C3 C 0.0038(2) 0.3386(2) 0.1574(3)
H4 H 0.0221 0.3475 0.1790
C4 C -0.0226(3) 0.3680(3) 0.1367(3)
C5 C -0.0493(3) 0.3553(3) 0.1062(3)
H5 H -0.0679 0.3750 0.0935
C6 C -0.0493(2) 0.3125(2) 0.0932(2)
C7 C -0.0236(2) 0.2842(2) 0.1123(2)
H6 H -0.0229 0.2556 0.1031
C8 C -0.0786(2) 0.2992(2) 0.0598(2)
C9 C 0.2471(2) 0.1890(2) 0.0597(2)
C10 C 0.2317(2) 0.2193(2) 0.0912(2)
C11 C 0.2561(2) 0.2546(2) 0.1022(2)
H7 H 0.2820 0.2601 0.0883
C12 C 0.2423(2) 0.2812(2) 0.1332(2)
C13 C 0.2053(2) 0.2728(2) 0.1548(2)
H8 H 0.1963 0.2908 0.1766
C14 C 0.1814(2) 0.2376(2) 0.1438(2)
C15 C 0.1935(2) 0.2112(2) 0.1112(2)
H9 H 0.1761 0.1882 0.1029
C16 C 0.1415(2) 0.2275(2) 0.1668(2)
C17 C 0.1156(2) 0.1430(2) 0.2506(2)
C18 C 0.1399(2) 0.1099(2) 0.2730(2)
C19 C 0.1541(2) 0.1164(2) 0.3129(2)
H10 H 0.1479 0.1422 0.3268
C20 C 0.1773(3) 0.0852(2) 0.3330(3)
C21 C 0.1866(2) 0.0481(2) 0.3126(2)
H11 H 0.2032 0.0270 0.3258
C22 C 0.1713(2) 0.0417(2) 0.2721(2)
C23 C 0.1476(2) 0.0712(2) 0.2525(2)
H12 H 0.1363 0.0660 0.2257
C24 C 0.1813(2) 0.0008(2) 0.2514(2)
Mo1B Mo -0.226114(19) 0.078654(18) 0.233342(19)
Mo2B Mo -0.182347(19) 0.063774(18) 0.186074(19)
Mo3B Mo -0.30346(3) -0.14828(3) 0.0000
Mo4B Mo -0.24337(3) -0.11957(3) 0.0000
O1B O -0.27381(13) 0.04517(13) 0.20204(14)
O2B O -0.22720(14) 0.02935(14) 0.15276(14)
O3B O -0.32546(14) -0.10712(14) 0.04588(14)
O4B O -0.26136(13) -0.07674(13) 0.04688(14)
O5B O -0.19201(14) 0.28422(13) 0.04561(14)
O6B O -0.16053(14) 0.22144(13) 0.04595(14)
O7B O -0.24537(13) 0.13342(14) 0.20141(13)
O8B O -0.19883(14) 0.11790(14) 0.15244(14)
O9B O -0.18042(14) 0.11255(13) 0.26622(15)
O10B O -0.13428(14) 0.09772(14) 0.21630(14)
O11B O 0.02350(13) 0.20955(13) 0.26663(14)
O12B O 0.00832(14) 0.16359(14) 0.21650(14)
O13B O -0.4091(2) -0.0224(3) 0.1482(3)
H1B H -0.4127 -0.0048 0.1673
O14B O -0.31455(16) 0.26771(15) 0.14198(18)
H2B H -0.3291 0.2567 0.1609
O15B O -0.0911(2) 0.1899(2) 0.37282(19)
H3B H -0.1146 0.2020 0.3750
C1B C -0.2642(2) 0.0277(2) 0.1671(2)
C2B C -0.2971(2) 0.0021(2) 0.1456(2)
C3B C -0.3386(2) 0.0038(2) 0.1574(3)
H4B H -0.3475 0.0221 0.1790
C4B C -0.3680(3) -0.0226(3) 0.1367(3)
C5B C -0.3553(3) -0.0493(3) 0.1062(3)
H5B H -0.3750 -0.0679 0.0935
C6B C -0.3125(2) -0.0493(2) 0.0932(2)
C7B C -0.2842(2) -0.0236(2) 0.1123(2)
H6B H -0.2556 -0.0229 0.1031
C8B C -0.2992(2) -0.0786(2) 0.0598(2)
C9B C -0.1890(2) 0.2471(2) 0.0597(2)
C10B C -0.2193(2) 0.2317(2) 0.0912(2)
C11B C -0.2546(2) 0.2561(2) 0.1022(2)
H7B H -0.2601 0.2820 0.0883
C12B C -0.2812(2) 0.2423(2) 0.1332(2)
C13B C -0.2728(2) 0.2053(2) 0.1548(2)
H8B H -0.2908 0.1963 0.1766
C14B C -0.2376(2) 0.1814(2) 0.1438(2)
C15B C -0.2112(2) 0.1935(2) 0.1112(2)
H9B H -0.1882 0.1761 0.1029
C16B C -0.2275(2) 0.1415(2) 0.1668(2)
C17B C -0.1430(2) 0.1156(2) 0.2506(2)
C18B C -0.1099(2) 0.1399(2) 0.2730(2)
C19B C -0.1164(2) 0.1541(2) 0.3129(2)
H10B H -0.1422 0.1479 0.3268
C20B C -0.0852(2) 0.1773(3) 0.3330(3)
C21B C -0.0481(2) 0.1866(2) 0.3126(2)
H11B H -0.0270 0.2032 0.3258
C22B C -0.0417(2) 0.1713(2) 0.2721(2)
C23B C -0.0712(2) 0.1476(2) 0.2525(2)
H12B H -0.0660 0.1363 0.2257
C24B C -0.0008(2) 0.1813(2) 0.2514(2)
Mo1C Mo 0.226114(19) -0.078654(18) 0.233342(19)
Mo2C Mo 0.182347(19) -0.063774(18) 0.186074(19)
Mo3C Mo 0.30346(3) 0.14828(3) 0.0000
Mo4C Mo 0.24337(3) 0.11957(3) 0.0000
O1C O 0.27381(13) -0.04517(13) 0.20204(14)
O2C O 0.22720(14) -0.02935(14) 0.15276(14)
O3C O 0.32546(14) 0.10712(14) 0.04588(14)
O4C O 0.26136(13) 0.07674(13) 0.04688(14)
O5C O 0.19201(14) -0.28422(13) 0.04561(14)
O6C O 0.16053(14) -0.22144(13) 0.04595(14)
O7C O 0.24537(13) -0.13342(14) 0.20141(13)
O8C O 0.19883(14) -0.11790(14) 0.15244(14)
O9C O 0.18042(14) -0.11255(13) 0.26622(15)
O10C O 0.13428(14) -0.09772(14) 0.21630(14)
O11C O -0.02350(13) -0.20955(13) 0.26663(14)
O12C O -0.00832(14) -0.16359(14) 0.21650(14)
O13C O 0.4091(2) 0.0224(3) 0.1482(3)
H1C H 0.4127 0.0048 0.1673
O14C O 0.31455(16) -0.26771(15) 0.14198(18)
H2C H 0.3291 -0.2567 0.1609
O15C O 0.0911(2) -0.1899(2) 0.37282(19)
H3C H 0.1146 -0.2020 0.3750
C1C C 0.2642(2) -0.0277(2) 0.1671(2)
C2C C 0.2971(2) -0.0021(2) 0.1456(2)
C3C C 0.3386(2) -0.0038(2) 0.1574(3)
H4C H 0.3475 -0.0221 0.1790
C4C C 0.3680(3) 0.0226(3) 0.1367(3)
C5C C 0.3553(3) 0.0493(3) 0.1062(3)
H5C H 0.3750 0.0679 0.0935
C6C C 0.3125(2) 0.0493(2) 0.0932(2)
C7C C 0.2842(2) 0.0236(2) 0.1123(2)
H6C H 0.2556 0.0229 0.1031
C8C C 0.2992(2) 0.0786(2) 0.0598(2)
C9C C 0.1890(2) -0.2471(2) 0.0597(2)
C10C C 0.2193(2) -0.2317(2) 0.0912(2)
C11C C 0.2546(2) -0.2561(2) 0.1022(2)
H7C H 0.2601 -0.2820 0.0883
C12C C 0.2812(2) -0.2423(2) 0.1332(2)
C13C C 0.2728(2) -0.2053(2) 0.1548(2)
H8C H 0.2908 -0.1963 0.1766
C14C C 0.2376(2) -0.1814(2) 0.1438(2)
C15C C 0.2112(2) -0.1935(2) 0.1112(2)
H9C H 0.1882 -0.1761 0.1029
C16C C 0.2275(2) -0.1415(2) 0.1668(2)
C17C C 0.1430(2) -0.1156(2) 0.2506(2)
C18C C 0.1099(2) -0.1399(2) 0.2730(2)
C19C C 0.1164(2) -0.1541(2) 0.3129(2)
H10C H 0.1422 -0.1479 0.3268
C20C C 0.0852(2) -0.1773(3) 0.3330(3)
C21C C 0.0481(2) -0.1866(2) 0.3126(2)
H11C H 0.0270 -0.2032 0.3258
C22C C 0.0417(2) -0.1713(2) 0.2721(2)
C23C C 0.0712(2) -0.1476(2) 0.2525(2)
H12C H 0.0660 -0.1363 0.2257
C24C C 0.0008(2) -0.1813(2) 0.2514(2)
Mo1I Mo 0.078654(18) 0.226114(19) -0.233342(19)
Mo2I Mo 0.063774(18) 0.182347(19) -0.186074(19)
O1I O 0.04517(13) 0.27381(13) -0.20204(14)
O2I O 0.02935(14) 0.22720(14) -0.15276(14)
O3I O -0.10712(14) 0.32546(14) -0.04588(14)
O4I O -0.07674(13) 0.26136(13) -0.04688(14)
O5I O 0.28422(13) 0.19201(14) -0.04561(14)
O6I O 0.22144(13) 0.16053(14) -0.04595(14)
O7I O 0.13342(14) 0.24537(13) -0.20141(13)
O8I O 0.11790(14) 0.19883(14) -0.15244(14)
O9I O 0.11255(13) 0.18042(14) -0.26622(15)
O10I O 0.09772(14) 0.13428(14) -0.21630(14)
O11I O 0.20955(13) -0.02350(13) -0.26663(14)
O12I O 0.16359(14) -0.00832(14) -0.21650(14)
O13I O -0.0224(3) 0.4091(2) -0.1482(3)
H1I H -0.0048 0.4127 -0.1673
O14I O 0.26771(15) 0.31455(16) -0.14198(18)
H2I H 0.2567 0.3291 -0.1609
O15I O 0.1899(2) 0.0911(2) -0.37282(19)
H3I H 0.2020 0.1146 -0.3750
C1I C 0.0277(2) 0.2642(2) -0.1671(2)
C2I C 0.0021(2) 0.2971(2) -0.1456(2)
C3I C 0.0038(2) 0.3386(2) -0.1574(3)
H4I H 0.0221 0.3475 -0.1790
C4I C -0.0226(3) 0.3680(3) -0.1367(3)
C5I C -0.0493(3) 0.3553(3) -0.1062(3)
H5I H -0.0679 0.3750 -0.0935
C6I C -0.0493(2) 0.3125(2) -0.0932(2)
C7I C -0.0236(2) 0.2842(2) -0.1123(2)
H6I H -0.0229 0.2556 -0.1031
C8I C -0.0786(2) 0.2992(2) -0.0598(2)
C9I C 0.2471(2) 0.1890(2) -0.0597(2)
C10I C 0.2317(2) 0.2193(2) -0.0912(2)
C11I C 0.2561(2) 0.2546(2) -0.1022(2)
H7I H 0.2820 0.2601 -0.0883
C12I C 0.2423(2) 0.2812(2) -0.1332(2)
C13I C 0.2053(2) 0.2728(2) -0.1548(2)
H8I H 0.1963 0.2908 -0.1766
C14I C 0.1814(2) 0.2376(2) -0.1438(2)
C15I C 0.1935(2) 0.2112(2) -0.1112(2)
H9I H 0.1761 0.1882 -0.1029
C16I C 0.1415(2) 0.2275(2) -0.1668(2)
C17I C 0.1156(2) 0.1430(2) -0.2506(2)
C18I C 0.1399(2) 0.1099(2) -0.2730(2)
C19I C 0.1541(2) 0.1164(2) -0.3129(2)
H10I H 0.1479 0.1422 -0.3268
C20I C 0.1773(3) 0.0852(2) -0.3330(3)
C21I C 0.1866(2) 0.0481(2) -0.3126(2)
H11I H 0.2032 0.0270 -0.3258
C22I C 0.1713(2) 0.0417(2) -0.2721(2)
C23I C 0.1476(2) 0.0712(2) -0.2525(2)
H12I H 0.1363 0.0660 -0.2257
C24I C 0.1813(2) 0.0008(2) -0.2514(2)
Mo1J Mo 0.226114(19) -0.078654(18) -0.233342(19)
Mo2J Mo 0.182347(19) -0.063774(18) -0.186074(19)
O1J O 0.27381(13) -0.04517(13) -0.20204(14)
O2J O 0.22720(14) -0.02935(14) -0.15276(14)
O3J O 0.32546(14) 0.10712(14) -0.04588(14)
O4J O 0.26136(13) 0.07674(13) -0.04688(14)
O5J O 0.19201(14) -0.28422(13) -0.04561(14)
O6J O 0.16053(14) -0.22144(13) -0.04595(14)
O7J O 0.24537(13) -0.13342(14) -0.20141(13)
O8J O 0.19883(14) -0.11790(14) -0.15244(14)
O9J O 0.18042(14) -0.11255(13) -0.26622(15)
O10J O 0.13428(14) -0.09772(14) -0.21630(14)
O11J O -0.02350(13) -0.20955(13) -0.26663(14)
O12J O -0.00832(14) -0.16359(14) -0.21650(14)
O13J O 0.4091(2) 0.0224(3) -0.1482(3)
H1J H 0.4127 0.0048 -0.1673
O14J O 0.31455(16) -0.26771(15) -0.14198(18)
H2J H 0.3291 -0.2567 -0.1609
O15J O 0.0911(2) -0.1899(2) -0.37282(19)
H3J H 0.1146 -0.2020 -0.3750
C1J C 0.2642(2) -0.0277(2) -0.1671(2)
C2J C 0.2971(2) -0.0021(2) -0.1456(2)
C3J C 0.3386(2) -0.0038(2) -0.1574(3)
H4J H 0.3475 -0.0221 -0.1790
C4J C 0.3680(3) 0.0226(3) -0.1367(3)
C5J C 0.3553(3) 0.0493(3) -0.1062(3)
H5J H 0.3750 0.0679 -0.0935
C6J C 0.3125(2) 0.0493(2) -0.0932(2)
C7J C 0.2842(2) 0.0236(2) -0.1123(2)
H6J H 0.2556 0.0229 -0.1031
C8J C 0.2992(2) 0.0786(2) -0.0598(2)
C9J C 0.1890(2) -0.2471(2) -0.0597(2)
C10J C 0.2193(2) -0.2317(2) -0.0912(2)
C11J C 0.2546(2) -0.2561(2) -0.1022(2)
H7J H 0.2601 -0.2820 -0.0883
C12J C 0.2812(2) -0.2423(2) -0.1332(2)
C13J C 0.2728(2) -0.2053(2) -0.1548(2)
H8J H 0.2908 -0.1963 -0.1766
C14J C 0.2376(2) -0.1814(2) -0.1438(2)
C15J C 0.2112(2) -0.1935(2) -0.1112(2)
H9J H 0.1882 -0.1761 -0.1029
C16J C 0.2275(2) -0.1415(2) -0.1668(2)
C17J C 0.1430(2) -0.1156(2) -0.2506(2)
C18J C 0.1099(2) -0.1399(2) -0.2730(2)
C19J C 0.1164(2) -0.1541(2) -0.3129(2)
H10J H 0.1422 -0.1479 -0.3268
C20J C 0.0852(2) -0.1773(3) -0.3330(3)
C21J C 0.0481(2) -0.1866(2) -0.3126(2)
H11J H 0.0270 -0.2032 -0.3258
C22J C 0.0417(2) -0.1713(2) -0.2721(2)
C23J C 0.0712(2) -0.1476(2) -0.2525(2)
H12J H 0.0660 -0.1363 -0.2257
C24J C 0.0008(2) -0.1813(2) -0.2514(2)
Mo1K Mo -0.226114(19) 0.078654(18) -0.233342(19)
Mo2K Mo -0.182347(19) 0.063774(18) -0.186074(19)
O1K O -0.27381(13) 0.04517(13) -0.20204(14)
O2K O -0.22720(14) 0.02935(14) -0.15276(14)
O3K O -0.32546(14) -0.10712(14) -0.04588(14)
O4K O -0.26136(13) -0.07674(13) -0.04688(14)
O5K O -0.19201(14) 0.28422(13) -0.04561(14)
O6K O -0.16053(14) 0.22144(13) -0.04595(14)
O7K O -0.24537(13) 0.13342(14) -0.20141(13)
O8K O -0.19883(14) 0.11790(14) -0.15244(14)
O9K O -0.18042(14) 0.11255(13) -0.26622(15)
O10K O -0.13428(14) 0.09772(14) -0.21630(14)
O11K O 0.02350(13) 0.20955(13) -0.26663(14)
O12K O 0.00832(14) 0.16359(14) -0.21650(14)
O13K O -0.4091(2) -0.0224(3) -0.1482(3)
H1K H -0.4127 -0.0048 -0.1673
O14K O -0.31455(16) 0.26771(15) -0.14198(18)
H2K H -0.3291 0.2567 -0.1609
O15K O -0.0911(2) 0.1899(2) -0.37282(19)
H3K H -0.1146 0.2020 -0.3750
C1K C -0.2642(2) 0.0277(2) -0.1671(2)
C2K C -0.2971(2) 0.0021(2) -0.1456(2)
C3K C -0.3386(2) 0.0038(2) -0.1574(3)
H4K H -0.3475 0.0221 -0.1790
C4K C -0.3680(3) -0.0226(3) -0.1367(3)
C5K C -0.3553(3) -0.0493(3) -0.1062(3)
H5K H -0.3750 -0.0679 -0.0935
C6K C -0.3125(2) -0.0493(2) -0.0932(2)
C7K C -0.2842(2) -0.0236(2) -0.1123(2)
H6K H -0.2556 -0.0229 -0.1031
C8K C -0.2992(2) -0.0786(2) -0.0598(2)
C9K C -0.1890(2) 0.2471(2) -0.0597(2)
C10K C -0.2193(2) 0.2317(2) -0.0912(2)
C11K C -0.2546(2) 0.2561(2) -0.1022(2)
H7K H -0.2601 0.2820 -0.0883
C12K C -0.2812(2) 0.2423(2) -0.1332(2)
C13K C -0.2728(2) 0.2053(2) -0.1548(2)
H8K H -0.2908 0.1963 -0.1766
C14K C -0.2376(2) 0.1814(2) -0.1438(2)
C15K C -0.2112(2) 0.1935(2) -0.1112(2)
H9K H -0.1882 0.1761 -0.1029
C16K C -0.2275(2) 0.1415(2) -0.1668(2)
C17K C -0.1430(2) 0.1156(2) -0.2506(2)
C18K C -0.1099(2) 0.1399(2) -0.2730(2)
C19K C -0.1164(2) 0.1541(2) -0.3129(2)
H10K H -0.1422 0.1479 -0.3268
C20K C -0.0852(2) 0.1773(3) -0.3330(3)
C21K C -0.0481(2) 0.1866(2) -0.3126(2)
H11K H -0.0270 0.2032 -0.3258
C22K C -0.0417(2) 0.1713(2) -0.2721(2)
C23K C -0.0712(2) 0.1476(2) -0.2525(2)
H12K H -0.0660 0.1363 -0.2257
C24K C -0.0008(2) 0.1813(2) -0.2514(2)
Mo1A Mo -0.078654(18) -0.226114(19) 0.233342(19)
Mo2A Mo -0.063774(18) -0.182347(19) 0.186074(19)
Mo3A Mo 0.14828(3) -0.30346(3) 0.0000
Mo4A Mo 0.11957(3) -0.24337(3) 0.0000
O1A O -0.04517(13) -0.27381(13) 0.20204(14)
O2A O -0.02935(14) -0.22720(14) 0.15276(14)
O3A O 0.10712(14) -0.32546(14) 0.04588(14)
O4A O 0.07674(13) -0.26136(13) 0.04688(14)
O5A O -0.28422(13) -0.19201(14) 0.04561(14)
O6A O -0.22144(13) -0.16053(14) 0.04595(14)
O7A O -0.13342(14) -0.24537(13) 0.20141(13)
O8A O -0.11790(14) -0.19883(14) 0.15244(14)
O9A O -0.11255(13) -0.18042(14) 0.26622(15)
O10A O -0.09772(14) -0.13428(14) 0.21630(14)
O11A O -0.20955(13) 0.02350(13) 0.26663(14)
O12A O -0.16359(14) 0.00832(14) 0.21650(14)
O13A O 0.0224(3) -0.4091(2) 0.1482(3)
H1A H 0.0048 -0.4127 0.1673
O14A O -0.26771(15) -0.31455(16) 0.14198(18)
H2A H -0.2567 -0.3291 0.1609
O15A O -0.1899(2) -0.0911(2) 0.37282(19)
H3A H -0.2020 -0.1146 0.3750
C1A C -0.0277(2) -0.2642(2) 0.1671(2)
C2A C -0.0021(2) -0.2971(2) 0.1456(2)
C3A C -0.0038(2) -0.3386(2) 0.1574(3)
H4A H -0.0221 -0.3475 0.1790
C4A C 0.0226(3) -0.3680(3) 0.1367(3)
C5A C 0.0493(3) -0.3553(3) 0.1062(3)
H5A H 0.0679 -0.3750 0.0935
C6A C 0.0493(2) -0.3125(2) 0.0932(2)
C7A C 0.0236(2) -0.2842(2) 0.1123(2)
H6A H 0.0229 -0.2556 0.1031
C8A C 0.0786(2) -0.2992(2) 0.0598(2)
C9A C -0.2471(2) -0.1890(2) 0.0597(2)
C10A C -0.2317(2) -0.2193(2) 0.0912(2)
C11A C -0.2561(2) -0.2546(2) 0.1022(2)
H7A H -0.2820 -0.2601 0.0883
C12A C -0.2423(2) -0.2812(2) 0.1332(2)
C13A C -0.2053(2) -0.2728(2) 0.1548(2)
H8A H -0.1963 -0.2908 0.1766
C14A C -0.1814(2) -0.2376(2) 0.1438(2)
C15A C -0.1935(2) -0.2112(2) 0.1112(2)
H9A H -0.1761 -0.1882 0.1029
C16A C -0.1415(2) -0.2275(2) 0.1668(2)
C17A C -0.1156(2) -0.1430(2) 0.2506(2)
C18A C -0.1399(2) -0.1099(2) 0.2730(2)
C19A C -0.1541(2) -0.1164(2) 0.3129(2)
H10A H -0.1479 -0.1422 0.3268
C20A C -0.1773(3) -0.0852(2) 0.3330(3)
C21A C -0.1866(2) -0.0481(2) 0.3126(2)
H11A H -0.2032 -0.0270 0.3258
C22A C -0.1713(2) -0.0417(2) 0.2721(2)
C23A C -0.1476(2) -0.0712(2) 0.2525(2)
H12A H -0.1363 -0.0660 0.2257
C24A C -0.1813(2) -0.0008(2) 0.2514(2)
Mo1H Mo -0.078654(18) -0.226114(19) -0.233342(19)
Mo2H Mo -0.063774(18) -0.182347(19) -0.186074(19)
O1H O -0.04517(13) -0.27381(13) -0.20204(14)
O2H O -0.02935(14) -0.22720(14) -0.15276(14)
O3H O 0.10712(14) -0.32546(14) -0.04588(14)
O4H O 0.07674(13) -0.26136(13) -0.04688(14)
O5H O -0.28422(13) -0.19201(14) -0.04561(14)
O6H O -0.22144(13) -0.16053(14) -0.04595(14)
O7H O -0.13342(14) -0.24537(13) -0.20141(13)
O8H O -0.11790(14) -0.19883(14) -0.15244(14)
O9H O -0.11255(13) -0.18042(14) -0.26622(15)
O10H O -0.09772(14) -0.13428(14) -0.21630(14)
O11H O -0.20955(13) 0.02350(13) -0.26663(14)
O12H O -0.16359(14) 0.00832(14) -0.21650(14)
O13H O 0.0224(3) -0.4091(2) -0.1482(3)
H1H H 0.0048 -0.4127 -0.1673
O14H O -0.26771(15) -0.31455(16) -0.14198(18)
H2H H -0.2567 -0.3291 -0.1609
O15H O -0.1899(2) -0.0911(2) -0.37282(19)
H3H H -0.2020 -0.1146 -0.3750
C1H C -0.0277(2) -0.2642(2) -0.1671(2)
C2H C -0.0021(2) -0.2971(2) -0.1456(2)
C3H C -0.0038(2) -0.3386(2) -0.1574(3)
H4H H -0.0221 -0.3475 -0.1790
C4H C 0.0226(3) -0.3680(3) -0.1367(3)
C5H C 0.0493(3) -0.3553(3) -0.1062(3)
H5H H 0.0679 -0.3750 -0.0935
C6H C 0.0493(2) -0.3125(2) -0.0932(2)
C7H C 0.0236(2) -0.2842(2) -0.1123(2)
H6H H 0.0229 -0.2556 -0.1031
C8H C 0.0786(2) -0.2992(2) -0.0598(2)
C9H C -0.2471(2) -0.1890(2) -0.0597(2)
C10H C -0.2317(2) -0.2193(2) -0.0912(2)
C11H C -0.2561(2) -0.2546(2) -0.1022(2)
H7H H -0.2820 -0.2601 -0.0883
C12H C -0.2423(2) -0.2812(2) -0.1332(2)
C13H C -0.2053(2) -0.2728(2) -0.1548(2)
H8H H -0.1963 -0.2908 -0.1766
C14H C -0.1814(2) -0.2376(2) -0.1438(2)
C15H C -0.1935(2) -0.2112(2) -0.1112(2)
H9H H -0.1761 -0.1882 -0.1029
C16H C -0.1415(2) -0.2275(2) -0.1668(2)
C17H C -0.1156(2) -0.1430(2) -0.2506(2)
C18H C -0.1399(2) -0.1099(2) -0.2730(2)
C19H C -0.1541(2) -0.1164(2) -0.3129(2)
H10H H -0.1479 -0.1422 -0.3268
C20H C -0.1773(3) -0.0852(2) -0.3330(3)
C21H C -0.1866(2) -0.0481(2) -0.3126(2)
H11H H -0.2032 -0.0270 -0.3258
C22H C -0.1713(2) -0.0417(2) -0.2721(2)
C23H C -0.1476(2) -0.0712(2) -0.2525(2)
H12H H -0.1363 -0.0660 -0.2257
C24H C -0.1813(2) -0.0008(2) -0.2514(2)
O16 O 0.09075(15) 0.2766(2) 0.28744(15)
N1 N 0.06562(11) 0.3088(2) 0.34518(16)
N2 N 0.13765(11) 0.3002(2) 0.33527(16)
C25 C 0.09788(11) 0.29492(14) 0.32215(12)
C26 C 0.14703(14) 0.3134(3) 0.37732(16)
H13 H 0.1749 0.3277 0.3781
H14 H 0.1483 0.2884 0.3957
C27 C 0.11363(17) 0.3429(2) 0.3921(2)
H15 H 0.1144 0.3693 0.3756
H16 H 0.1187 0.3503 0.4215
C28 C 0.07150(15) 0.3225(3) 0.38770(15)
H17 H 0.0696 0.2979 0.4066
H18 H 0.0490 0.3428 0.3954
C29 C 0.02205(11) 0.3003(4) 0.3319(2)
H19 H 0.0221 0.2908 0.3029
H20 H 0.0052 0.3261 0.3344
H21 H 0.0098 0.2782 0.3495
C30 C 0.17249(13) 0.2811(3) 0.3116(2)
H22 H 0.1623 0.2728 0.2841
H23 H 0.1830 0.2561 0.3263
H24 H 0.1954 0.3017 0.3087
O17 O 0.26649(17) 0.13946(17) 0.29831(18)
N3 N 0.2694(2) 0.0925(2) 0.2447(2)
N4 N 0.2382(2) 0.1577(2) 0.2364(2)
C31 C 0.2581(3) 0.1305(2) 0.2621(2)
C32 C 0.2602(3) 0.0792(3) 0.2033(3)
H25 H 0.2344 0.0616 0.2034
H26 H 0.2838 0.0617 0.1928
C33 C 0.2538(4) 0.1158(3) 0.1749(3)
H27 H 0.2810 0.1303 0.1698
H28 H 0.2424 0.1059 0.1479
C34 C 0.2234(3) 0.1450(3) 0.1949(3)
H29 H 0.2200 0.1705 0.1774
H30 H 0.1956 0.1311 0.1973
C35 C 0.2861(3) 0.0604(3) 0.2733(3)
H31 H 0.2912 0.0733 0.3005
H32 H 0.3127 0.0491 0.2624
H33 H 0.2655 0.0374 0.2762
C36 C 0.2220(3) 0.1969(2) 0.2526(3)
H34 H 0.2340 0.2020 0.2801
H35 H 0.1911 0.1952 0.2547
H36 H 0.2298 0.2201 0.2339
O18? O -0.1789(2) 0.3738(2) 0.0000
N5? N -0.24206(19) 0.4076(2) 0.0000
N6? N -0.1795(2) 0.44544(19) 0.0000
C37? C -0.19980(19) 0.40840(17) 0.0000
C38? C -0.2011(3) 0.48481(19) 0.0085(5)
H37? H -0.1864 0.5082 0.0000
H38? H -0.2019 0.4889 0.0380
C39? C -0.2449(3) 0.4828(2) -0.0085(7)
H39? H -0.2442 0.4817 -0.0382
H40? H -0.2601 0.5077 0.0000
C40? C -0.2668(2) 0.4450(3) 0.0087(5)
H41? H -0.2701 0.4475 0.0382
H42? H -0.2944 0.4425 0.0000
C41? C -0.2643(3) 0.3669(3) 0.0000
H43? H -0.2445 0.3443 -0.0069
H44? H -0.2871 0.3676 -0.0206
H45? H -0.2764 0.3618 0.0275
C42? C -0.1331(2) 0.4463(3) 0.0000
H46? H -0.1223 0.4182 -0.0069
H47? H -0.1230 0.4546 0.0275
H48? H -0.1232 0.4668 -0.0206
O19? O 0.0464(2) 0.1328(2) 0.1323(2)
O20? O -0.0880(4) 0.17444(19) 0.0000
loop_
_geom_bond_atom_site_label_1
_geom_bond_atom_site_label_2
_geom_bond_site_symmetry_1
_geom_bond_site_symmetry_2
Mo1 Mo2 1_555 1_555
Mo2 O2 1_555 1_555
Mo3 Mo4 1_555 1_555
Mo4 O4 1_555 1_555
O1 Mo1 1_555 1_555
O2 C1 1_555 1_555
O3 Mo3 1_555 1_555
O4 C8 1_555 1_555
O5 C9 1_555 1_555
O6 C9 1_555 1_555
O7 Mo1 1_555 1_555
O8 Mo2 1_555 1_555
O9 Mo1 1_555 1_555
O10 Mo2 1_555 1_555
O11 C24 1_555 1_555
O12 C24 1_555 1_555
O13 H1 1_555 1_555
O14 H2 1_555 1_555
O15 H3 1_555 1_555
C1 O1 1_555 1_555
C2 C1 1_555 1_555
C3 C2 1_555 1_555
H4 C3 1_555 1_555
C4 O13 1_555 1_555
C5 C4 1_555 1_555
H5 C5 1_555 1_555
C6 C5 1_555 1_555
C7 C2 1_555 1_555
H6 C7 1_555 1_555
C8 O3 1_555 1_555
C9 C10 1_555 1_555
C10 C11 1_555 1_555
C11 H7 1_555 1_555
C12 O14 1_555 1_555
C13 C12 1_555 1_555
H8 C13 1_555 1_555
C14 C13 1_555 1_555
C15 C10 1_555 1_555
H9 C15 1_555 1_555
C16 O7 1_555 1_555
C17 O9 1_555 1_555
C18 C17 1_555 1_555
C19 C18 1_555 1_555
H10 C19 1_555 1_555
C20 O15 1_555 1_555
C21 C20 1_555 1_555
H11 C21 1_555 1_555
C22 C21 1_555 1_555
C23 C18 1_555 1_555
H12 C23 1_555 1_555
C24 C22 1_555 1_555
O16 C25 1_555 1_555
N1 C25 1_555 1_555
N2 C25 1_555 1_555
C26 N2 1_555 1_555
H13 C26 1_555 1_555
H14 C26 1_555 1_555
C27 C26 1_555 1_555
H15 C27 1_555 1_555
H16 C27 1_555 1_555
C28 N1 1_555 1_555
H17 C28 1_555 1_555
H18 C28 1_555 1_555
C29 N1 1_555 1_555
H19 C29 1_555 1_555
H20 C29 1_555 1_555
H21 C29 1_555 1_555
C30 N2 1_555 1_555
H22 C30 1_555 1_555
H23 C30 1_555 1_555
H24 C30 1_555 1_555
O17 C31 1_555 1_555
N3 C31 1_555 1_555
N4 C31 1_555 1_555
C32 N3 1_555 1_555
H25 C32 1_555 1_555
H26 C32 1_555 1_555
C33 C32 1_555 1_555
H27 C33 1_555 1_555
H28 C33 1_555 1_555
C34 N4 1_555 1_555
H29 C34 1_555 1_555
H30 C34 1_555 1_555
C35 N3 1_555 1_555
H31 C35 1_555 1_555
H32 C35 1_555 1_555
H33 C35 1_555 1_555
C36 N4 1_555 1_555
H34 C36 1_555 1_555
H35 C36 1_555 1_555
H36 C36 1_555 1_555
Mo1B Mo2B 1_555 1_555
Mo2B O2B 1_555 1_555
Mo3B Mo4B 1_555 1_555
Mo4B O4B 1_555 1_555
O1B Mo1B 1_555 1_555
O2B C1B 1_555 1_555
O3B Mo3B 1_555 1_555
O4B C8B 1_555 1_555
O5B Mo3 1_555 1_555
O6B Mo4 1_555 1_555
O7B Mo1B 1_555 1_555
O8B Mo2B 1_555 1_555
O9B Mo1B 1_555 1_555
O10B Mo2B 1_555 1_555
O11B Mo1 1_555 1_555
O12B Mo2 1_555 1_555
O13B H1B 1_555 1_555
O14B H2B 1_555 1_555
O15B H3B 1_555 1_555
C1B O1B 1_555 1_555
C2B C1B 1_555 1_555
C3B C2B 1_555 1_555
H4B C3B 1_555 1_555
C4B O13B 1_555 1_555
C5B C4B 1_555 1_555
H5B C5B 1_555 1_555
C6B C5B 1_555 1_555
C7B C2B 1_555 1_555
H6B C7B 1_555 1_555
C8B O3B 1_555 1_555
C9B O5B 1_555 1_555
C10B C9B 1_555 1_555
C11B C10B 1_555 1_555
H7B C11B 1_555 1_555
C12B O14B 1_555 1_555
C13B C12B 1_555 1_555
H8B C13B 1_555 1_555
C14B C13B 1_555 1_555
C15B C10B 1_555 1_555
H9B C15B 1_555 1_555
C16B O7B 1_555 1_555
C17B O9B 1_555 1_555
C18B C17B 1_555 1_555
C19B C18B 1_555 1_555
H10B C19B 1_555 1_555
C20B O15B 1_555 1_555
C21B C20B 1_555 1_555
H11B C21B 1_555 1_555
C22B C21B 1_555 1_555
C23B C18B 1_555 1_555
H12B C23B 1_555 1_555
C24B O11B 1_555 1_555
Mo1C O11 1_555 1_555
Mo2C O12 1_555 1_555
Mo3C O5 1_555 1_555
Mo4C O6 1_555 1_555
O1C Mo1C 1_555 1_555
O2C Mo2C 1_555 1_555
O3C Mo3C 1_555 1_555
O4C Mo4C 1_555 1_555
O5C C9C 1_555 1_555
O6C C9C 1_555 1_555
O7C Mo1C 1_555 1_555
O8C Mo2C 1_555 1_555
O9C Mo1C 1_555 1_555
O10C Mo2C 1_555 1_555
O11C C24C 1_555 1_555
O12C C24C 1_555 1_555
O13C H1C 1_555 1_555
O14C H2C 1_555 1_555
O15C H3C 1_555 1_555
C1C O1C 1_555 1_555
C2C C1C 1_555 1_555
C3C C2C 1_555 1_555
H4C C3C 1_555 1_555
C4C O13C 1_555 1_555
C5C C4C 1_555 1_555
H5C C5C 1_555 1_555
C6C C5C 1_555 1_555
C7C C2C 1_555 1_555
H6C C7C 1_555 1_555
C8C O3C 1_555 1_555
C9C C10C 1_555 1_555
C10C C11C 1_555 1_555
C11C H7C 1_555 1_555
C12C O14C 1_555 1_555
C13C C12C 1_555 1_555
H8C C13C 1_555 1_555
C14C C13C 1_555 1_555
C15C C10C 1_555 1_555
H9C C15C 1_555 1_555
C16C O7C 1_555 1_555
C17C O9C 1_555 1_555
C18C C17C 1_555 1_555
C19C C18C 1_555 1_555
H10C C19C 1_555 1_555
C20C O15C 1_555 1_555
C21C C20C 1_555 1_555
H11C C21C 1_555 1_555
C22C C21C 1_555 1_555
C23C C18C 1_555 1_555
H12C C23C 1_555 1_555
C24C C22C 1_555 1_555
Mo1I Mo2I 1_555 1_555
Mo2I O2I 1_555 1_555
O1I Mo1I 1_555 1_555
O2I C1I 1_555 1_555
O3I Mo3 1_555 1_555
O4I Mo4 1_555 1_555
O5I Mo3C 1_555 1_555
O6I Mo4C 1_555 1_555
O7I Mo1I 1_555 1_555
O8I Mo2I 1_555 1_555
O9I Mo1I 1_555 1_555
O10I Mo2I 1_555 1_555
O11I C24I 1_555 1_555
O12I C24I 1_555 1_555
O13I H1I 1_555 1_555
O14I H2I 1_555 1_555
O15I H3I 1_555 1_555
C1I O1I 1_555 1_555
C2I C1I 1_555 1_555
C3I C2I 1_555 1_555
H4I C3I 1_555 1_555
C4I O13I 1_555 1_555
C5I C4I 1_555 1_555
H5I C5I 1_555 1_555
C6I C5I 1_555 1_555
C7I C2I 1_555 1_555
H6I C7I 1_555 1_555
C8I O3I 1_555 1_555
C9I O5I 1_555 1_555
C10I C9I 1_555 1_555
C11I C10I 1_555 1_555
H7I C11I 1_555 1_555
C12I O14I 1_555 1_555
C13I C12I 1_555 1_555
H8I C13I 1_555 1_555
C14I C13I 1_555 1_555
C15I C10I 1_555 1_555
H9I C15I 1_555 1_555
C16I O7I 1_555 1_555
C17I O9I 1_555 1_555
C18I C17I 1_555 1_555
C19I C18I 1_555 1_555
H10I C19I 1_555 1_555
C20I O15I 1_555 1_555
C21I C20I 1_555 1_555
H11I C21I 1_555 1_555
C22I C21I 1_555 1_555
C23I C18I 1_555 1_555
H12I C23I 1_555 1_555
C24I C22I 1_555 1_555
Mo1J O11I 1_555 1_555
Mo2J O12I 1_555 1_555
O1J Mo1J 1_555 1_555
O2J Mo2J 1_555 1_555
O3J Mo3C 1_555 1_555
O4J Mo4C 1_555 1_555
O5J C9J 1_555 1_555
O6J C9J 1_555 1_555
O7J Mo1J 1_555 1_555
O8J Mo2J 1_555 1_555
O9J Mo1J 1_555 1_555
O10J Mo2J 1_555 1_555
O11J C24J 1_555 1_555
O12J C24J 1_555 1_555
O13J H1J 1_555 1_555
O14J H2J 1_555 1_555
O15J H3J 1_555 1_555
C1J O1J 1_555 1_555
C2J C1J 1_555 1_555
C3J C2J 1_555 1_555
H4J C3J 1_555 1_555
C4J O13J 1_555 1_555
C5J C4J 1_555 1_555
H5J C5J 1_555 1_555
C6J C5J 1_555 1_555
C7J C2J 1_555 1_555
H6J C7J 1_555 1_555
C8J O3J 1_555 1_555
C9J C10J 1_555 1_555
C10J C11J 1_555 1_555
C11J H7J 1_555 1_555
C12J O14J 1_555 1_555
C13J C12J 1_555 1_555
H8J C13J 1_555 1_555
C14J C13J 1_555 1_555
C15J C10J 1_555 1_555
H9J C15J 1_555 1_555
C16J O7J 1_555 1_555
C17J O9J 1_555 1_555
C18J C17J 1_555 1_555
C19J C18J 1_555 1_555
H10J C19J 1_555 1_555
C20J O15J 1_555 1_555
C21J C20J 1_555 1_555
H11J C21J 1_555 1_555
C22J C21J 1_555 1_555
C23J C18J 1_555 1_555
H12J C23J 1_555 1_555
C24J C22J 1_555 1_555
Mo1K Mo2K 1_555 1_555
Mo2K O2K 1_555 1_555
O1K Mo1K 1_555 1_555
O2K C1K 1_555 1_555
O3K Mo3B 1_555 1_555
O4K Mo4B 1_555 1_555
O5K Mo3 1_555 1_555
O6K Mo4 1_555 1_555
O7K Mo1K 1_555 1_555
O8K Mo2K 1_555 1_555
O9K Mo1K 1_555 1_555
O10K Mo2K 1_555 1_555
O11K Mo1I 1_555 1_555
O12K Mo2I 1_555 1_555
O13K H1K 1_555 1_555
O14K H2K 1_555 1_555
O15K H3K 1_555 1_555
C1K O1K 1_555 1_555
C2K C1K 1_555 1_555
C3K C2K 1_555 1_555
H4K C3K 1_555 1_555
C4K O13K 1_555 1_555
C5K C4K 1_555 1_555
H5K C5K 1_555 1_555
C6K C5K 1_555 1_555
C7K C2K 1_555 1_555
H6K C7K 1_555 1_555
C8K O3K 1_555 1_555
C9K O5K 1_555 1_555
C10K C9K 1_555 1_555
C11K C10K 1_555 1_555
H7K C11K 1_555 1_555
C12K O14K 1_555 1_555
C13K C12K 1_555 1_555
H8K C13K 1_555 1_555
C14K C13K 1_555 1_555
C15K C10K 1_555 1_555
H9K C15K 1_555 1_555
C16K O7K 1_555 1_555
C17K O9K 1_555 1_555
C18K C17K 1_555 1_555
C19K C18K 1_555 1_555
H10K C19K 1_555 1_555
C20K O15K 1_555 1_555
C21K C20K 1_555 1_555
H11K C21K 1_555 1_555
C22K C21K 1_555 1_555
C23K C18K 1_555 1_555
H12K C23K 1_555 1_555
C24K O11K 1_555 1_555
Mo1A O11C 1_555 1_555
Mo2A O12C 1_555 1_555
Mo3A O5C 1_555 1_555
Mo4A O6C 1_555 1_555
O1A Mo1A 1_555 1_555
O2A Mo2A 1_555 1_555
O3A Mo3A 1_555 1_555
O4A Mo4A 1_555 1_555
O5A Mo3B 1_555 1_555
O6A Mo4B 1_555 1_555
O7A Mo1A 1_555 1_555
O8A Mo2A 1_555 1_555
O9A Mo1A 1_555 1_555
O10A Mo2A 1_555 1_555
O11A Mo1B 1_555 1_555
O12A Mo2B 1_555 1_555
O13A H1A 1_555 1_555
O14A H2A 1_555 1_555
O15A H3A 1_555 1_555
C1A O1A 1_555 1_555
C2A C1A 1_555 1_555
C3A C2A 1_555 1_555
H4A C3A 1_555 1_555
C4A O13A 1_555 1_555
C5A C4A 1_555 1_555
H5A C5A 1_555 1_555
C6A C5A 1_555 1_555
C7A C2A 1_555 1_555
H6A C7A 1_555 1_555
C8A O3A 1_555 1_555
C9A O5A 1_555 1_555
C10A C9A 1_555 1_555
C11A C10A 1_555 1_555
H7A C11A 1_555 1_555
C12A O14A 1_555 1_555
C13A C12A 1_555 1_555
H8A C13A 1_555 1_555
C14A C13A 1_555 1_555
C15A C10A 1_555 1_555
H9A C15A 1_555 1_555
C16A O7A 1_555 1_555
C17A O9A 1_555 1_555
C18A C17A 1_555 1_555
C19A C18A 1_555 1_555
H10A C19A 1_555 1_555
C20A O15A 1_555 1_555
C21A C20A 1_555 1_555
H11A C21A 1_555 1_555
C22A C21A 1_555 1_555
C23A C18A 1_555 1_555
H12A C23A 1_555 1_555
C24A O11A 1_555 1_555
Mo1H O11J 1_555 1_555
Mo2H O12J 1_555 1_555
O1H Mo1H 1_555 1_555
O2H Mo2H 1_555 1_555
O3H Mo3A 1_555 1_555
O4H Mo4A 1_555 1_555
O5H Mo3B 1_555 1_555
O6H Mo4B 1_555 1_555
O7H Mo1H 1_555 1_555
O8H Mo2H 1_555 1_555
O9H Mo1H 1_555 1_555
O10H Mo2H 1_555 1_555
O11H Mo1K 1_555 1_555
O12H Mo2K 1_555 1_555
O13H H1H 1_555 1_555
O14H H2H 1_555 1_555
O15H H3H 1_555 1_555
C1H O1H 1_555 1_555
C2H C1H 1_555 1_555
C3H C2H 1_555 1_555
H4H C3H 1_555 1_555
C4H O13H 1_555 1_555
C5H C4H 1_555 1_555
H5H C5H 1_555 1_555
C6H C5H 1_555 1_555
C7H C2H 1_555 1_555
H6H C7H 1_555 1_555
C8H O3H 1_555 1_555
C9H O5H 1_555 1_555
C10H C9H 1_555 1_555
C11H C10H 1_555 1_555
H7H C11H 1_555 1_555
C12H O14H 1_555 1_555
C13H C12H 1_555 1_555
H8H C13H 1_555 1_555
C14H C13H 1_555 1_555
C15H C10H 1_555 1_555
H9H C15H 1_555 1_555
C16H O7H 1_555 1_555
C17H O9H 1_555 1_555
C18H C17H 1_555 1_555
C19H C18H 1_555 1_555
H10H C19H 1_555 1_555
C20H O15H 1_555 1_555
C21H C20H 1_555 1_555
H11H C21H 1_555 1_555
C22H C21H 1_555 1_555
C23H C18H 1_555 1_555
H12H C23H 1_555 1_555
C24H O11H 1_555 1_555
O8 C16 1_555 1_555
O10 C17 1_555 1_555
C3 C4 1_555 1_555
C6 C7 1_555 1_555
C6 C8 1_555 1_555
C11 C12 1_555 1_555
C14 C15 1_555 1_555
C14 C16 1_555 1_555
C19 C20 1_555 1_555
C22 C23 1_555 1_555
C27 C28 1_555 1_555
C33 C34 1_555 1_555
O6B C9B 1_555 1_555
O8B C16B 1_555 1_555
O10B C17B 1_555 1_555
O12B C24B 1_555 1_555
C3B C4B 1_555 1_555
C6B C7B 1_555 1_555
C6B C8B 1_555 1_555
C11B C12B 1_555 1_555
C14B C15B 1_555 1_555
C14B C16B 1_555 1_555
C19B C20B 1_555 1_555
C22B C23B 1_555 1_555
C22B C24B 1_555 1_555
Mo1C Mo2C 1_555 1_555
Mo3C Mo4C 1_555 1_555
O2C C1C 1_555 1_555
O4C C8C 1_555 1_555
O8C C16C 1_555 1_555
O10C C17C 1_555 1_555
C3C C4C 1_555 1_555
C6C C7C 1_555 1_555
C6C C8C 1_555 1_555
C11C C12C 1_555 1_555
C14C C15C 1_555 1_555
C14C C16C 1_555 1_555
C19C C20C 1_555 1_555
C22C C23C 1_555 1_555
O4I C8I 1_555 1_555
O6I C9I 1_555 1_555
O8I C16I 1_555 1_555
O10I C17I 1_555 1_555
C3I C4I 1_555 1_555
C6I C7I 1_555 1_555
C6I C8I 1_555 1_555
C11I C12I 1_555 1_555
C14I C15I 1_555 1_555
C14I C16I 1_555 1_555
C19I C20I 1_555 1_555
C22I C23I 1_555 1_555
Mo1J Mo2J 1_555 1_555
O2J C1J 1_555 1_555
O4J C8J 1_555 1_555
O5J Mo3A 1_555 1_555
O6J Mo4A 1_555 1_555
O8J C16J 1_555 1_555
O10J C17J 1_555 1_555
C3J C4J 1_555 1_555
C6J C7J 1_555 1_555
C6J C8J 1_555 1_555
C11J C12J 1_555 1_555
C14J C15J 1_555 1_555
C14J C16J 1_555 1_555
C19J C20J 1_555 1_555
C22J C23J 1_555 1_555
O4K C8K 1_555 1_555
O6K C9K 1_555 1_555
O8K C16K 1_555 1_555
O10K C17K 1_555 1_555
O12K C24K 1_555 1_555
C3K C4K 1_555 1_555
C6K C7K 1_555 1_555
C6K C8K 1_555 1_555
C11K C12K 1_555 1_555
C14K C15K 1_555 1_555
C14K C16K 1_555 1_555
C19K C20K 1_555 1_555
C22K C23K 1_555 1_555
C22K C24K 1_555 1_555
Mo1A Mo2A 1_555 1_555
Mo3A Mo4A 1_555 1_555
O2A C1A 1_555 1_555
O4A C8A 1_555 1_555
O6A C9A 1_555 1_555
O8A C16A 1_555 1_555
O10A C17A 1_555 1_555
O12A C24A 1_555 1_555
C3A C4A 1_555 1_555
C6A C7A 1_555 1_555
C6A C8A 1_555 1_555
C11A C12A 1_555 1_555
C14A C15A 1_555 1_555
C14A C16A 1_555 1_555
C19A C20A 1_555 1_555
C22A C23A 1_555 1_555
C22A C24A 1_555 1_555
Mo1H Mo2H 1_555 1_555
O2H C1H 1_555 1_555
O4H C8H 1_555 1_555
O6H C9H 1_555 1_555
O8H C16H 1_555 1_555
O10H C17H 1_555 1_555
O12H C24H 1_555 1_555
C3H C4H 1_555 1_555
C6H C7H 1_555 1_555
C6H C8H 1_555 1_555
C11H C12H 1_555 1_555
C14H C15H 1_555 1_555
C14H C16H 1_555 1_555
C19H C20H 1_555 1_555
C22H C23H 1_555 1_555
C22H C24H 1_555 1_555

#END
