# generated using pymatgen
data_Mo6H84C78N10O31
_symmetry_space_group_name_H-M   'P 1'
_cell_length_a   26.83000000
_cell_length_b   27.88000000
_cell_length_c   33.23000000
_cell_angle_alpha   90.00000000
_cell_angle_beta   90.00000000
_cell_angle_gamma   91.11700000
_symmetry_Int_Tables_number   1
_chemical_formula_structural   Mo6H84C78N10O31
_chemical_formula_sum   'Mo48 H672 C624 N80 O248'
_cell_volume   24851.99442252
_cell_formula_units_Z   8
loop_
 _symmetry_equiv_pos_site_id
 _symmetry_equiv_pos_as_xyz
  1  'x, y, z'
loop_
 _atom_site_type_symbol
 _atom_site_label
 _atom_site_symmetry_multiplicity
 _atom_site_fract_x
 _atom_site_fract_y
 _atom_site_fract_z
 _atom_site_occupancy
  Mo  Mo1  1  0.630280  0.207270  0.317630  1.0
  Mo  Mo2  1  0.869720  0.292730  0.817630  1.0
  Mo  Mo3  1  0.369720  0.792730  0.682370  1.0
  Mo  Mo4  1  0.130280  0.707270  0.182370  1.0
  Mo  Mo5  1  0.605550  0.264960  0.353930  1.0
  Mo  Mo6  1  0.894450  0.235040  0.853930  1.0
  Mo  Mo7  1  0.394450  0.735040  0.646070  1.0
  Mo  Mo8  1  0.105550  0.764960  0.146070  1.0
  Mo  Mo9  1  0.770460  0.563520  0.268480  1.0
  Mo  Mo10  1  0.729540  0.936480  0.768480  1.0
  Mo  Mo11  1  0.229540  0.436480  0.731520  1.0
  Mo  Mo12  1  0.270460  0.063520  0.231520  1.0
  Mo  Mo13  1  0.717170  0.549320  0.315010  1.0
  Mo  Mo14  1  0.782830  0.950680  0.815010  1.0
  Mo  Mo15  1  0.282830  0.450680  0.684990  1.0
  Mo  Mo16  1  0.217170  0.049320  0.184990  1.0
  Mo  Mo17  1  0.642460  0.851280  0.452500  1.0
  Mo  Mo18  1  0.857540  0.648720  0.952500  1.0
  Mo  Mo19  1  0.357540  0.148720  0.547500  1.0
  Mo  Mo20  1  0.142460  0.351280  0.047500  1.0
  Mo  Mo21  1  0.613780  0.781280  0.463500  1.0
  Mo  Mo22  1  0.886220  0.718720  0.963500  1.0
  Mo  Mo23  1  0.386220  0.218720  0.536500  1.0
  Mo  Mo24  1  0.113780  0.281280  0.036500  1.0
  Mo  Mo25  1  0.266780  0.763460  0.373400  1.0
  Mo  Mo26  1  0.233220  0.736540  0.873400  1.0
  Mo  Mo27  1  0.733220  0.236540  0.626600  1.0
  Mo  Mo28  1  0.766780  0.263460  0.126600  1.0
  Mo  Mo29  1  0.312080  0.711300  0.400950  1.0
  Mo  Mo30  1  0.187920  0.788700  0.900950  1.0
  Mo  Mo31  1  0.687920  0.288700  0.599050  1.0
  Mo  Mo32  1  0.812080  0.211300  0.099050  1.0
  Mo  Mo33  1  0.121890  0.413450  0.422580  1.0
  Mo  Mo34  1  0.378110  0.086550  0.922580  1.0
  Mo  Mo35  1  0.878110  0.586550  0.577420  1.0
  Mo  Mo36  1  0.621890  0.913450  0.077420  1.0
  Mo  Mo37  1  0.197300  0.431240  0.439010  1.0
  Mo  Mo38  1  0.302700  0.068760  0.939010  1.0
  Mo  Mo39  1  0.802700  0.568760  0.560990  1.0
  Mo  Mo40  1  0.697300  0.931240  0.060990  1.0
  Mo  Mo41  1  0.394920  0.471160  0.191820  1.0
  Mo  Mo42  1  0.105080  0.028840  0.691820  1.0
  Mo  Mo43  1  0.605080  0.528840  0.808180  1.0
  Mo  Mo44  1  0.894920  0.971160  0.308180  1.0
  Mo  Mo45  1  0.417200  0.475630  0.253410  1.0
  Mo  Mo46  1  0.082800  0.024370  0.753410  1.0
  Mo  Mo47  1  0.582800  0.524370  0.746590  1.0
  Mo  Mo48  1  0.917200  0.975630  0.246590  1.0
  H  H49  1  0.500500  0.890500  0.505400  1
  H  H50  1  0.999500  0.609500  0.005400  1
  H  H51  1  0.499500  0.109500  0.494600  1
  H  H52  1  0.000500  0.390500  0.994600  1
  H  H53  1  0.488900  0.862000  0.464500  1
  H  H54  1  0.011100  0.638000  0.964500  1
  H  H55  1  0.511100  0.138000  0.535500  1
  H  H56  1  0.988900  0.362000  0.035500  1
  H  H57  1  0.417700  0.883100  0.525200  1
  H  H58  1  0.082300  0.616900  0.025200  1
  H  H59  1  0.582300  0.116900  0.474800  1
  H  H60  1  0.917700  0.383100  0.974800  1
  H  H61  1  0.437500  0.830700  0.514600  1
  H  H62  1  0.062500  0.669300  0.014600  1
  H  H63  1  0.562500  0.169300  0.485400  1
  H  H64  1  0.937500  0.330700  0.985400  1
  H  H65  1  0.400200  0.833100  0.451600  1
  H  H66  1  0.099800  0.666900  0.951600  1
  H  H67  1  0.599800  0.166900  0.548400  1
  H  H68  1  0.900200  0.333100  0.048400  1
  H  H69  1  0.358700  0.844600  0.484800  1
  H  H70  1  0.141300  0.655400  0.984800  1
  H  H71  1  0.641300  0.155400  0.515200  1
  H  H72  1  0.858700  0.344600  0.015200  1
  H  H73  1  0.490700  0.991200  0.442800  1
  H  H74  1  0.009300  0.508800  0.942800  1
  H  H75  1  0.509300  0.008800  0.557200  1
  H  H76  1  0.990700  0.491200  0.057200  1
  H  H77  1  0.527200  0.946900  0.437500  1
  H  H78  1  0.972800  0.553100  0.937500  1
  H  H79  1  0.472800  0.053100  0.562500  1
  H  H80  1  0.027200  0.446900  0.062500  1
  H  H81  1  0.520900  0.971500  0.480700  1
  H  H82  1  0.979100  0.528500  0.980700  1
  H  H83  1  0.479100  0.028500  0.519300  1
  H  H84  1  0.020900  0.471500  0.019300  1
  H  H85  1  0.332200  0.940000  0.419900  1
  H  H86  1  0.167800  0.560000  0.919900  1
  H  H87  1  0.667800  0.060000  0.580100  1
  H  H88  1  0.832200  0.440000  0.080100  1
  H  H89  1  0.306000  0.902400  0.450000  1
  H  H90  1  0.194000  0.597600  0.950000  1
  H  H91  1  0.694000  0.097600  0.550000  1
  H  H92  1  0.806000  0.402400  0.050000  1
  H  H93  1  0.331800  0.883900  0.409600  1
  H  H94  1  0.168200  0.616100  0.909600  1
  H  H95  1  0.668200  0.116100  0.590400  1
  H  H96  1  0.831800  0.383900  0.090400  1
  H  H97  1  0.084800  0.484700  0.310800  1
  H  H98  1  0.415200  0.015300  0.810800  1
  H  H99  1  0.915200  0.515300  0.689200  1
  H  H100  1  0.584800  0.984700  0.189200  1
  H  H101  1  0.057800  0.433000  0.307600  1
  H  H102  1  0.442200  0.067000  0.807600  1
  H  H103  1  0.942200  0.567000  0.692400  1
  H  H104  1  0.557800  0.933000  0.192400  1
  H  H105  1  0.025800  0.472900  0.363200  1
  H  H106  1  0.474200  0.027100  0.863200  1
  H  H107  1  0.974200  0.527100  0.636800  1
  H  H108  1  0.525800  0.972900  0.136800  1
  H  H109  1  0.012400  0.518300  0.335800  1
  H  H110  1  0.487600  0.981700  0.835800  1
  H  H111  1  0.987600  0.481700  0.664200  1
  H  H112  1  0.512400  0.018300  0.164200  1
  H  H113  1  0.967800  0.425000  0.329000  1
  H  H114  1  0.532200  0.075000  0.829000  1
  H  H115  1  0.032200  0.575000  0.671000  1
  H  H116  1  0.467800  0.925000  0.171000  1
  H  H117  1  0.940200  0.471800  0.345000  1
  H  H118  1  0.559800  0.028200  0.845000  1
  H  H119  1  0.059800  0.528200  0.655000  1
  H  H120  1  0.440200  0.971800  0.155000  1
  H  H121  1  0.056100  0.489100  0.207800  1
  H  H122  1  0.443900  0.010900  0.707800  1
  H  H123  1  0.943900  0.510900  0.792200  1
  H  H124  1  0.556100  0.989100  0.292200  1
  H  H125  1  0.087500  0.449400  0.230900  1
  H  H126  1  0.412500  0.050600  0.730900  1
  H  H127  1  0.912500  0.550600  0.769100  1
  H  H128  1  0.587500  0.949400  0.269100  1
  H  H129  1  0.098100  0.505200  0.239500  1
  H  H130  1  0.401900  0.994800  0.739500  1
  H  H131  1  0.901900  0.494800  0.760500  1
  H  H132  1  0.598100  0.005200  0.260500  1
  H  H133  1  0.894900  0.474100  0.245800  1
  H  H134  1  0.605100  0.025900  0.745800  1
  H  H135  1  0.105100  0.525900  0.754200  1
  H  H136  1  0.394900  0.974100  0.254200  1
  H  H137  1  0.878600  0.484500  0.291300  1
  H  H138  1  0.621400  0.015500  0.791300  1
  H  H139  1  0.121400  0.515500  0.708700  1
  H  H140  1  0.378600  0.984500  0.208700  1
  H  H141  1  0.890400  0.430900  0.277400  1
  H  H142  1  0.609600  0.069100  0.777400  1
  H  H143  1  0.109600  0.569100  0.722600  1
  H  H144  1  0.390400  0.930900  0.222600  1
  H  H145  1  0.132100  0.356500  0.749100  1
  H  H146  1  0.367900  0.143500  0.249100  1
  H  H147  1  0.867900  0.643500  0.250900  1
  H  H148  1  0.632100  0.856500  0.750900  1
  H  H149  1  0.087700  0.323000  0.766100  1
  H  H150  1  0.412300  0.177000  0.266100  1
  H  H151  1  0.912300  0.677000  0.233900  1
  H  H152  1  0.587700  0.823000  0.733900  1
  H  H153  1  0.083200  0.397500  0.797200  1
  H  H154  1  0.416800  0.102500  0.297200  1
  H  H155  1  0.916800  0.602500  0.202800  1
  H  H156  1  0.583200  0.897500  0.702800  1
  H  H157  1  0.083100  0.424100  0.754400  1
  H  H158  1  0.416900  0.075900  0.254400  1
  H  H159  1  0.916900  0.575900  0.245600  1
  H  H160  1  0.583100  0.924100  0.745600  1
  H  H161  1  0.006000  0.361400  0.783600  1
  H  H162  1  0.494000  0.138600  0.283600  1
  H  H163  1  0.994000  0.638600  0.216400  1
  H  H164  1  0.506000  0.861400  0.716400  1
  H  H165  1  0.001300  0.418300  0.777800  1
  H  H166  1  0.498700  0.081700  0.277800  1
  H  H167  1  0.998700  0.581700  0.222200  1
  H  H168  1  0.501300  0.918300  0.722200  1
  H  H169  1  0.090500  0.318000  0.654700  1
  H  H170  1  0.409500  0.182000  0.154700  1
  H  H171  1  0.909500  0.682000  0.345300  1
  H  H172  1  0.590500  0.818000  0.845300  1
  H  H173  1  0.110700  0.286000  0.690900  1
  H  H174  1  0.389300  0.214000  0.190900  1
  H  H175  1  0.889300  0.714000  0.309100  1
  H  H176  1  0.610700  0.786000  0.809100  1
  H  H177  1  0.139800  0.334500  0.678600  1
  H  H178  1  0.360200  0.165500  0.178600  1
  H  H179  1  0.860200  0.665500  0.321400  1
  H  H180  1  0.639800  0.834500  0.821400  1
  H  H181  1  0.943200  0.383700  0.687400  1
  H  H182  1  0.556800  0.116300  0.187400  1
  H  H183  1  0.056800  0.616300  0.312600  1
  H  H184  1  0.443200  0.883700  0.812600  1
  H  H185  1  0.940300  0.422200  0.722900  1
  H  H186  1  0.559700  0.077800  0.222900  1
  H  H187  1  0.059700  0.577800  0.277100  1
  H  H188  1  0.440300  0.922200  0.777100  1
  H  H189  1  0.928200  0.366800  0.731800  1
  H  H190  1  0.571800  0.133200  0.231800  1
  H  H191  1  0.071800  0.633200  0.268200  1
  H  H192  1  0.428200  0.866800  0.768200  1
  H  H193  1  0.086100  0.868300  0.380500  1
  H  H194  1  0.413900  0.631700  0.880500  1
  H  H195  1  0.913900  0.131700  0.619500  1
  H  H196  1  0.586100  0.368300  0.119500  1
  H  H197  1  0.041400  0.858000  0.411500  1
  H  H198  1  0.458600  0.642000  0.911500  1
  H  H199  1  0.958600  0.142000  0.588500  1
  H  H200  1  0.541400  0.358000  0.088500  1
  H  H201  1  0.078400  0.785400  0.395700  1
  H  H202  1  0.421600  0.714600  0.895700  1
  H  H203  1  0.921600  0.214600  0.604300  1
  H  H204  1  0.578400  0.285400  0.104300  1
  H  H205  1  0.132200  0.806700  0.408300  1
  H  H206  1  0.367800  0.693300  0.908300  1
  H  H207  1  0.867800  0.193300  0.591700  1
  H  H208  1  0.632200  0.306700  0.091700  1
  H  H209  1  0.050400  0.791000  0.461800  1
  H  H210  1  0.449600  0.709000  0.961800  1
  H  H211  1  0.949600  0.209000  0.538200  1
  H  H212  1  0.550400  0.291000  0.038200  1
  H  H213  1  0.100900  0.761100  0.461600  1
  H  H214  1  0.399100  0.738900  0.961600  1
  H  H215  1  0.899100  0.238900  0.538400  1
  H  H216  1  0.600900  0.261100  0.038400  1
  H  H217  1  0.117500  0.958800  0.449900  1
  H  H218  1  0.382500  0.541200  0.949900  1
  H  H219  1  0.882500  0.041200  0.550100  1
  H  H220  1  0.617500  0.458800  0.050100  1
  H  H221  1  0.064800  0.950800  0.428000  1
  H  H222  1  0.435200  0.549200  0.928000  1
  H  H223  1  0.935200  0.049200  0.572000  1
  H  H224  1  0.564800  0.450800  0.072000  1
  H  H225  1  0.115400  0.947800  0.402700  1
  H  H226  1  0.384600  0.552200  0.902700  1
  H  H227  1  0.884600  0.052200  0.597300  1
  H  H228  1  0.615400  0.447800  0.097300  1
  H  H229  1  0.131300  0.839300  0.541200  1
  H  H230  1  0.368700  0.660700  0.041200  1
  H  H231  1  0.868700  0.160700  0.458800  1
  H  H232  1  0.631300  0.339300  0.958800  1
  H  H233  1  0.135700  0.784600  0.527400  1
  H  H234  1  0.364300  0.715400  0.027400  1
  H  H235  1  0.864300  0.215400  0.472600  1
  H  H236  1  0.635700  0.284600  0.972600  1
  H  H237  1  0.082200  0.806100  0.537500  1
  H  H238  1  0.417800  0.693900  0.037500  1
  H  H239  1  0.917800  0.193900  0.462500  1
  H  H240  1  0.582200  0.306100  0.962500  1
  H  H241  1  0.753000  0.280300  0.243100  1.0
  H  H242  1  0.747000  0.219700  0.743100  1.0
  H  H243  1  0.247000  0.719700  0.756900  1.0
  H  H244  1  0.253000  0.780300  0.256900  1.0
  H  H245  1  0.806100  0.334400  0.209400  1.0
  H  H246  1  0.693900  0.165600  0.709400  1.0
  H  H247  1  0.193900  0.665600  0.790600  1.0
  H  H248  1  0.306100  0.834400  0.290600  1.0
  H  H249  1  0.807700  0.415500  0.227400  1.0
  H  H250  1  0.692300  0.084500  0.727400  1.0
  H  H251  1  0.192300  0.584500  0.772600  1.0
  H  H252  1  0.307700  0.915500  0.272600  1.0
  H  H253  1  0.703200  0.388500  0.313000  1.0
  H  H254  1  0.796800  0.111500  0.813000  1.0
  H  H255  1  0.296800  0.611500  0.687000  1.0
  H  H256  1  0.203200  0.888500  0.187000  1.0
  H  H257  1  0.777600  0.724500  0.269100  1.0
  H  H258  1  0.722400  0.775500  0.769100  1.0
  H  H259  1  0.222400  0.275500  0.730900  1.0
  H  H260  1  0.277600  0.224500  0.230900  1.0
  H  H261  1  0.774600  0.806500  0.283300  1.0
  H  H262  1  0.725400  0.693500  0.783300  1.0
  H  H263  1  0.225400  0.193500  0.716700  1.0
  H  H264  1  0.274600  0.306500  0.216700  1.0
  H  H265  1  0.726400  0.833700  0.337000  1.0
  H  H266  1  0.773600  0.666300  0.837000  1.0
  H  H267  1  0.273600  0.166300  0.663000  1.0
  H  H268  1  0.226400  0.333700  0.163000  1.0
  H  H269  1  0.684100  0.696700  0.362400  1.0
  H  H270  1  0.815900  0.803300  0.862400  1.0
  H  H271  1  0.315900  0.303300  0.637600  1.0
  H  H272  1  0.184100  0.196700  0.137600  1.0
  H  H273  1  0.525600  0.910200  0.366600  1.0
  H  H274  1  0.974400  0.589800  0.866600  1.0
  H  H275  1  0.474400  0.089800  0.633400  1.0
  H  H276  1  0.025600  0.410200  0.133400  1.0
  H  H277  1  0.452300  0.928900  0.332400  1.0
  H  H278  1  0.047700  0.571100  0.832400  1.0
  H  H279  1  0.547700  0.071100  0.667600  1.0
  H  H280  1  0.952300  0.428900  0.167600  1.0
  H  H281  1  0.383700  0.875800  0.334300  1.0
  H  H282  1  0.116300  0.624200  0.834300  1.0
  H  H283  1  0.616300  0.124200  0.665700  1.0
  H  H284  1  0.883700  0.375800  0.165700  1.0
  H  H285  1  0.461800  0.785200  0.404600  1.0
  H  H286  1  0.038200  0.714800  0.904600  1.0
  H  H287  1  0.538200  0.214800  0.595400  1.0
  H  H288  1  0.961800  0.285200  0.095400  1.0
  H  H289  1  0.110900  0.697900  0.392600  1.0
  H  H290  1  0.389100  0.802100  0.892600  1.0
  H  H291  1  0.889100  0.302100  0.607400  1.0
  H  H292  1  0.610900  0.197900  0.107400  1.0
  H  H293  1  0.043700  0.643300  0.391000  1.0
  H  H294  1  0.456300  0.856700  0.891000  1.0
  H  H295  1  0.956300  0.356700  0.609000  1.0
  H  H296  1  0.543700  0.143300  0.109000  1.0
  H  H297  1  0.056300  0.562200  0.405000  1.0
  H  H298  1  0.443700  0.937800  0.905000  1.0
  H  H299  1  0.943700  0.437800  0.595000  1.0
  H  H300  1  0.556300  0.062200  0.095000  1.0
  H  H301  1  0.203400  0.590300  0.422300  1.0
  H  H302  1  0.296600  0.909700  0.922300  1.0
  H  H303  1  0.796600  0.409700  0.577700  1.0
  H  H304  1  0.703400  0.090300  0.077700  1.0
  H  H305  1  0.119000  0.252000  0.436500  1.0
  H  H306  1  0.381000  0.248000  0.936500  1.0
  H  H307  1  0.881000  0.748000  0.563500  1.0
  H  H308  1  0.619000  0.752000  0.063500  1.0
  H  H309  1  0.131900  0.172600  0.456100  1.0
  H  H310  1  0.368100  0.327400  0.956100  1.0
  H  H311  1  0.868100  0.827400  0.543900  1.0
  H  H312  1  0.631900  0.672600  0.043900  1.0
  H  H313  1  0.208400  0.151000  0.483800  1.0
  H  H314  1  0.291600  0.349000  0.983800  1.0
  H  H315  1  0.791600  0.849000  0.516200  1.0
  H  H316  1  0.708400  0.651000  0.016200  1.0
  H  H317  1  0.259200  0.288100  0.472300  1.0
  H  H318  1  0.240800  0.211900  0.972300  1.0
  H  H319  1  0.740800  0.711900  0.527700  1.0
  H  H320  1  0.759200  0.788100  0.027700  1.0
  H  H321  1  0.412100  0.067800  0.438000  1.0
  H  H322  1  0.087900  0.432200  0.938000  1.0
  H  H323  1  0.587900  0.932200  0.562000  1.0
  H  H324  1  0.912100  0.567800  0.062000  1.0
  H  H325  1  0.457800  0.039100  0.383400  1.0
  H  H326  1  0.042200  0.460900  0.883400  1.0
  H  H327  1  0.542200  0.960900  0.616600  1.0
  H  H328  1  0.957800  0.539100  0.116600  1.0
  H  H329  1  0.517100  0.088900  0.351800  1.0
  H  H330  1  0.982900  0.411100  0.851800  1.0
  H  H331  1  0.482900  0.911100  0.648200  1.0
  H  H332  1  0.017100  0.588900  0.148200  1.0
  H  H333  1  0.485200  0.196000  0.429600  1.0
  H  H334  1  0.014800  0.304000  0.929600  1.0
  H  H335  1  0.514800  0.804000  0.570400  1.0
  H  H336  1  0.985200  0.696000  0.070400  1.0
  H  H337  1  0.532100  0.220000  0.207800  1.0
  H  H338  1  0.967900  0.280000  0.707800  1.0
  H  H339  1  0.467900  0.780000  0.792200  1.0
  H  H340  1  0.032100  0.720000  0.292200  1.0
  H  H341  1  0.486000  0.248600  0.153300  1.0
  H  H342  1  0.014000  0.251400  0.653300  1.0
  H  H343  1  0.514000  0.751400  0.846700  1.0
  H  H344  1  0.986000  0.748600  0.346700  1.0
  H  H345  1  0.447000  0.322700  0.157800  1.0
  H  H346  1  0.053000  0.177300  0.657800  1.0
  H  H347  1  0.553000  0.677300  0.842200  1.0
  H  H348  1  0.947000  0.822700  0.342200  1.0
  H  H349  1  0.500200  0.339700  0.271200  1.0
  H  H350  1  0.999800  0.160300  0.771200  1.0
  H  H351  1  0.499800  0.660300  0.728800  1.0
  H  H352  1  0.000200  0.839700  0.228800  1.0
  H  H353  1  0.315100  0.609700  0.175000  1.0
  H  H354  1  0.184900  0.890300  0.675000  1.0
  H  H355  1  0.684900  0.390300  0.825000  1.0
  H  H356  1  0.815100  0.109700  0.325000  1.0
  H  H357  1  0.265300  0.677000  0.182800  1.0
  H  H358  1  0.234700  0.823000  0.682800  1.0
  H  H359  1  0.734700  0.323000  0.817200  1.0
  H  H360  1  0.765300  0.177000  0.317200  1.0
  H  H361  1  0.258400  0.713600  0.245900  1.0
  H  H362  1  0.241600  0.786400  0.745900  1.0
  H  H363  1  0.741600  0.286400  0.754100  1.0
  H  H364  1  0.758400  0.213600  0.254100  1.0
  H  H365  1  0.351200  0.615600  0.293400  1.0
  H  H366  1  0.148800  0.884400  0.793400  1.0
  H  H367  1  0.648800  0.384400  0.706600  1.0
  H  H368  1  0.851200  0.115600  0.206600  1.0
  H  H369  1  0.222700  0.856200  0.480600  1.0
  H  H370  1  0.277300  0.643800  0.980600  1.0
  H  H371  1  0.777300  0.143800  0.519400  1.0
  H  H372  1  0.722700  0.356200  0.019400  1.0
  H  H373  1  0.216300  0.894300  0.543100  1.0
  H  H374  1  0.283700  0.605700  0.043100  1.0
  H  H375  1  0.783700  0.105700  0.456900  1.0
  H  H376  1  0.716300  0.394300  0.956900  1.0
  H  H377  1  0.259500  0.864700  0.598800  1.0
  H  H378  1  0.240500  0.635300  0.098800  1.0
  H  H379  1  0.740500  0.135300  0.401200  1.0
  H  H380  1  0.759500  0.364700  0.901200  1.0
  H  H381  1  0.315500  0.759000  0.529400  1.0
  H  H382  1  0.184500  0.741000  0.029400  1.0
  H  H383  1  0.684500  0.241000  0.470600  1.0
  H  H384  1  0.815500  0.259000  0.970600  1.0
  H  H385  1  0.084700  0.430100  0.661600  1.0
  H  H386  1  0.415300  0.069900  0.161600  1.0
  H  H387  1  0.915300  0.569900  0.338400  1.0
  H  H388  1  0.584700  0.930100  0.838400  1.0
  H  H389  1  0.022800  0.420500  0.612500  1.0
  H  H390  1  0.477200  0.079500  0.112500  1.0
  H  H391  1  0.977200  0.579500  0.387500  1.0
  H  H392  1  0.522800  0.920500  0.887500  1.0
  H  H393  1  0.044200  0.422200  0.544200  1.0
  H  H394  1  0.455800  0.077800  0.044200  1.0
  H  H395  1  0.955800  0.577800  0.455800  1.0
  H  H396  1  0.544200  0.922200  0.955800  1.0
  H  H397  1  0.189400  0.443200  0.574100  1.0
  H  H398  1  0.310600  0.056800  0.074100  1.0
  H  H399  1  0.810600  0.556800  0.425900  1.0
  H  H400  1  0.689400  0.943200  0.925900  1.0
  H  H401  1  0.135400  0.384600  0.288800  1.0
  H  H402  1  0.364600  0.115400  0.788800  1.0
  H  H403  1  0.864600  0.615400  0.711200  1.0
  H  H404  1  0.635400  0.884600  0.211200  1.0
  H  H405  1  0.160000  0.380500  0.221300  1.0
  H  H406  1  0.340000  0.119500  0.721300  1.0
  H  H407  1  0.840000  0.619500  0.778700  1.0
  H  H408  1  0.660000  0.880500  0.278700  1.0
  H  H409  1  0.241400  0.402800  0.202900  1.0
  H  H410  1  0.258600  0.097200  0.702900  1.0
  H  H411  1  0.758600  0.597200  0.797100  1.0
  H  H412  1  0.741400  0.902800  0.297100  1.0
  H  H413  1  0.273500  0.433400  0.319400  1.0
  H  H414  1  0.226500  0.066600  0.819400  1.0
  H  H415  1  0.726500  0.566600  0.680600  1.0
  H  H416  1  0.773500  0.933400  0.180600  1.0
  H  H417  1  0.530200  0.536700  0.129000  1.0
  H  H418  1  0.969800  0.963300  0.629000  1.0
  H  H419  1  0.469800  0.463300  0.871000  1.0
  H  H420  1  0.030200  0.036700  0.371000  1.0
  H  H421  1  0.609900  0.564000  0.110300  1.0
  H  H422  1  0.890100  0.936000  0.610300  1.0
  H  H423  1  0.390100  0.436000  0.889700  1.0
  H  H424  1  0.109900  0.064000  0.389700  1.0
  H  H425  1  0.671800  0.574700  0.159300  1.0
  H  H426  1  0.828200  0.925300  0.659300  1.0
  H  H427  1  0.328200  0.425300  0.840700  1.0
  H  H428  1  0.171800  0.074700  0.340700  1.0
  H  H429  1  0.574300  0.530900  0.245500  1.0
  H  H430  1  0.925700  0.969100  0.745500  1.0
  H  H431  1  0.425700  0.469100  0.754500  1.0
  H  H432  1  0.074300  0.030900  0.254500  1.0
  H  H433  1  0.716300  0.001400  0.245700  1.0
  H  H434  1  0.783700  0.498600  0.745700  1.0
  H  H435  1  0.283700  0.998600  0.754300  1.0
  H  H436  1  0.216300  0.501400  0.254300  1.0
  H  H437  1  0.756100  0.043200  0.235200  1.0
  H  H438  1  0.743900  0.456800  0.735200  1.0
  H  H439  1  0.243900  0.956800  0.764800  1.0
  H  H440  1  0.256100  0.543200  0.264800  1.0
  H  H441  1  0.661000  0.030600  0.198000  1.0
  H  H442  1  0.839000  0.469400  0.698000  1.0
  H  H443  1  0.339000  0.969400  0.802000  1.0
  H  H444  1  0.161000  0.530600  0.302000  1.0
  H  H445  1  0.713700  0.022400  0.176500  1.0
  H  H446  1  0.786300  0.477600  0.676500  1.0
  H  H447  1  0.286300  0.977600  0.823500  1.0
  H  H448  1  0.213700  0.522400  0.323500  1.0
  H  H449  1  0.734100  0.103600  0.181800  1.0
  H  H450  1  0.765900  0.396400  0.681800  1.0
  H  H451  1  0.265900  0.896400  0.818200  1.0
  H  H452  1  0.234100  0.603600  0.318200  1.0
  H  H453  1  0.681000  0.098400  0.159900  1.0
  H  H454  1  0.819000  0.401600  0.659900  1.0
  H  H455  1  0.319000  0.901600  0.840100  1.0
  H  H456  1  0.181000  0.598400  0.340100  1.0
  H  H457  1  0.647600  0.186300  0.230100  1.0
  H  H458  1  0.852400  0.313700  0.730100  1.0
  H  H459  1  0.352400  0.813700  0.769900  1.0
  H  H460  1  0.147600  0.686300  0.269900  1.0
  H  H461  1  0.637500  0.169500  0.184700  1.0
  H  H462  1  0.862500  0.330500  0.684700  1.0
  H  H463  1  0.362500  0.830500  0.815300  1.0
  H  H464  1  0.137500  0.669500  0.315300  1.0
  H  H465  1  0.691600  0.189100  0.197600  1.0
  H  H466  1  0.808400  0.310900  0.697600  1.0
  H  H467  1  0.308400  0.810900  0.802400  1.0
  H  H468  1  0.191600  0.689100  0.302400  1.0
  H  H469  1  0.688100  0.078900  0.325600  1.0
  H  H470  1  0.811900  0.421100  0.825600  1.0
  H  H471  1  0.311900  0.921100  0.674400  1.0
  H  H472  1  0.188100  0.578900  0.174400  1.0
  H  H473  1  0.741300  0.057600  0.314600  1.0
  H  H474  1  0.758700  0.442400  0.814600  1.0
  H  H475  1  0.258700  0.942400  0.685400  1.0
  H  H476  1  0.241300  0.557600  0.185400  1.0
  H  H477  1  0.692900  0.023200  0.315000  1.0
  H  H478  1  0.807100  0.476800  0.815000  1.0
  H  H479  1  0.307100  0.976800  0.685000  1.0
  H  H480  1  0.192900  0.523200  0.185000  1.0
  H  H481  1  0.762800  0.656700  0.101700  1.0
  H  H482  1  0.737200  0.843300  0.601700  1.0
  H  H483  1  0.237200  0.343300  0.898300  1.0
  H  H484  1  0.262800  0.156700  0.398300  1.0
  H  H485  1  0.732300  0.607600  0.109800  1.0
  H  H486  1  0.767700  0.892400  0.609800  1.0
  H  H487  1  0.267700  0.392400  0.890200  1.0
  H  H488  1  0.232300  0.107600  0.390200  1.0
  H  H489  1  0.834300  0.614700  0.086200  1.0
  H  H490  1  0.665700  0.885300  0.586200  1.0
  H  H491  1  0.165700  0.385300  0.913800  1.0
  H  H492  1  0.334300  0.114700  0.413800  1.0
  H  H493  1  0.789600  0.594400  0.058600  1.0
  H  H494  1  0.710400  0.905600  0.558600  1.0
  H  H495  1  0.210400  0.405600  0.941400  1.0
  H  H496  1  0.289600  0.094400  0.441400  1.0
  H  H497  1  0.777200  0.529400  0.101500  1.0
  H  H498  1  0.722800  0.970600  0.601500  1.0
  H  H499  1  0.222800  0.470600  0.898500  1.0
  H  H500  1  0.277200  0.029400  0.398500  1.0
  H  H501  1  0.834800  0.531300  0.088500  1.0
  H  H502  1  0.665200  0.968700  0.588500  1.0
  H  H503  1  0.165200  0.468700  0.911500  1.0
  H  H504  1  0.334800  0.031300  0.411500  1.0
  H  H505  1  0.856000  0.518000  0.191800  1.0
  H  H506  1  0.644000  0.982000  0.691800  1.0
  H  H507  1  0.144000  0.482000  0.808200  1.0
  H  H508  1  0.356000  0.018000  0.308200  1.0
  H  H509  1  0.878000  0.503800  0.148800  1.0
  H  H510  1  0.622000  0.996200  0.648800  1.0
  H  H511  1  0.122000  0.496200  0.851200  1.0
  H  H512  1  0.378000  0.003800  0.351200  1.0
  H  H513  1  0.824900  0.482800  0.162800  1.0
  H  H514  1  0.675100  0.017200  0.662800  1.0
  H  H515  1  0.175100  0.517200  0.837200  1.0
  H  H516  1  0.324900  0.982800  0.337200  1.0
  H  H517  1  0.775200  0.657700  0.206600  1.0
  H  H518  1  0.724800  0.842300  0.706600  1.0
  H  H519  1  0.224800  0.342300  0.793400  1.0
  H  H520  1  0.275200  0.157700  0.293400  1.0
  H  H521  1  0.724500  0.655500  0.181300  1.0
  H  H522  1  0.775500  0.844500  0.681300  1.0
  H  H523  1  0.275500  0.344500  0.818700  1.0
  H  H524  1  0.224500  0.155500  0.318700  1.0
  H  H525  1  0.768300  0.692400  0.168800  1.0
  H  H526  1  0.731700  0.807600  0.668800  1.0
  H  H527  1  0.231700  0.307600  0.831200  1.0
  H  H528  1  0.268300  0.192400  0.331200  1.0
  H  H529  1  0.638100  0.069700  0.464900  1.0
  H  H530  1  0.861900  0.430300  0.964900  1.0
  H  H531  1  0.361900  0.930300  0.535100  1.0
  H  H532  1  0.138100  0.569700  0.035100  1.0
  H  H533  1  0.588800  0.038200  0.455400  1.0
  H  H534  1  0.911200  0.461800  0.955400  1.0
  H  H535  1  0.411200  0.961800  0.544600  1.0
  H  H536  1  0.088800  0.538200  0.044600  1.0
  H  H537  1  0.662200  0.066800  0.397700  1.0
  H  H538  1  0.837800  0.433200  0.897700  1.0
  H  H539  1  0.337800  0.933200  0.602300  1.0
  H  H540  1  0.162200  0.566800  0.102300  1.0
  H  H541  1  0.606400  0.086500  0.399900  1.0
  H  H542  1  0.893600  0.413500  0.899900  1.0
  H  H543  1  0.393600  0.913500  0.600100  1.0
  H  H544  1  0.106400  0.586500  0.100100  1.0
  H  H545  1  0.573600  0.011000  0.383900  1.0
  H  H546  1  0.926400  0.489000  0.883900  1.0
  H  H547  1  0.426400  0.989000  0.616100  1.0
  H  H548  1  0.073600  0.511000  0.116100  1.0
  H  H549  1  0.613900  0.025800  0.350200  1.0
  H  H550  1  0.886100  0.474200  0.850200  1.0
  H  H551  1  0.386100  0.974200  0.649800  1.0
  H  H552  1  0.113900  0.525800  0.149800  1.0
  H  H553  1  0.663100  0.912800  0.366300  1.0
  H  H554  1  0.836900  0.587200  0.866300  1.0
  H  H555  1  0.336900  0.087200  0.633700  1.0
  H  H556  1  0.163100  0.412800  0.133700  1.0
  H  H557  1  0.656500  0.953200  0.332600  1.0
  H  H558  1  0.843500  0.546800  0.832600  1.0
  H  H559  1  0.343500  0.046800  0.667400  1.0
  H  H560  1  0.156500  0.453200  0.167400  1.0
  H  H561  1  0.608600  0.925400  0.350400  1.0
  H  H562  1  0.891400  0.574600  0.850400  1.0
  H  H563  1  0.391400  0.074600  0.649600  1.0
  H  H564  1  0.108600  0.425400  0.149600  1.0
  H  H565  1  0.683000  0.958200  0.496300  1.0
  H  H566  1  0.817000  0.541800  0.996300  1.0
  H  H567  1  0.317000  0.041800  0.503700  1.0
  H  H568  1  0.183000  0.458200  0.003700  1.0
  H  H569  1  0.632100  0.981800  0.510700  1.0
  H  H570  1  0.867900  0.518200  0.010700  1.0
  H  H571  1  0.367900  0.018200  0.489300  1.0
  H  H572  1  0.132100  0.481800  0.989300  1.0
  H  H573  1  0.682300  0.013700  0.508500  1.0
  H  H574  1  0.817700  0.486300  0.008500  1.0
  H  H575  1  0.317700  0.986300  0.491500  1.0
  H  H576  1  0.182300  0.513700  0.991500  1.0
  H  H577  1  0.086700  0.853200  0.279900  1.0
  H  H578  1  0.413300  0.646800  0.779900  1.0
  H  H579  1  0.913300  0.146800  0.720100  1.0
  H  H580  1  0.586700  0.353200  0.220100  1.0
  H  H581  1  0.137500  0.870200  0.258300  1.0
  H  H582  1  0.362500  0.629800  0.758300  1.0
  H  H583  1  0.862500  0.129800  0.741700  1.0
  H  H584  1  0.637500  0.370200  0.241700  1.0
  H  H585  1  0.094100  0.914900  0.326700  1.0
  H  H586  1  0.405900  0.585100  0.826700  1.0
  H  H587  1  0.905900  0.085100  0.673300  1.0
  H  H588  1  0.594100  0.414900  0.173300  1.0
  H  H589  1  0.097900  0.937800  0.282400  1.0
  H  H590  1  0.402100  0.562200  0.782400  1.0
  H  H591  1  0.902100  0.062200  0.717600  1.0
  H  H592  1  0.597900  0.437800  0.217600  1.0
  H  H593  1  0.184300  0.942300  0.286800  1.0
  H  H594  1  0.315700  0.557700  0.786800  1.0
  H  H595  1  0.815700  0.057700  0.713200  1.0
  H  H596  1  0.684300  0.442300  0.213200  1.0
  H  H597  1  0.161500  0.968500  0.325400  1.0
  H  H598  1  0.338500  0.531500  0.825400  1.0
  H  H599  1  0.838500  0.031500  0.674600  1.0
  H  H600  1  0.661500  0.468500  0.174600  1.0
  H  H601  1  0.248000  0.898700  0.377200  1.0
  H  H602  1  0.252000  0.601300  0.877200  1.0
  H  H603  1  0.752000  0.101300  0.622800  1.0
  H  H604  1  0.748000  0.398700  0.122800  1.0
  H  H605  1  0.220700  0.949200  0.379700  1.0
  H  H606  1  0.279300  0.550800  0.879700  1.0
  H  H607  1  0.779300  0.050800  0.620300  1.0
  H  H608  1  0.720700  0.449200  0.120300  1.0
  H  H609  1  0.257800  0.938400  0.343200  1.0
  H  H610  1  0.242200  0.561600  0.843200  1.0
  H  H611  1  0.742200  0.061600  0.656800  1.0
  H  H612  1  0.757800  0.438400  0.156800  1.0
  H  H613  1  0.165100  0.770200  0.326000  1.0
  H  H614  1  0.334900  0.729800  0.826000  1.0
  H  H615  1  0.834900  0.229800  0.674000  1.0
  H  H616  1  0.665100  0.270200  0.174000  1.0
  H  H617  1  0.154300  0.777900  0.279100  1.0
  H  H618  1  0.345700  0.722100  0.779100  1.0
  H  H619  1  0.845700  0.222100  0.720900  1.0
  H  H620  1  0.654300  0.277900  0.220900  1.0
  H  H621  1  0.109100  0.775800  0.310500  1.0
  H  H622  1  0.390900  0.724200  0.810500  1.0
  H  H623  1  0.890900  0.224200  0.689500  1.0
  H  H624  1  0.609100  0.275800  0.189500  1.0
  H  H625  1  0.954500  0.279900  0.468100  1.0
  H  H626  1  0.545500  0.220100  0.968100  1.0
  H  H627  1  0.045500  0.720100  0.531900  1.0
  H  H628  1  0.454500  0.779900  0.031900  1.0
  H  H629  1  0.918900  0.309800  0.438900  1.0
  H  H630  1  0.581100  0.190200  0.938900  1.0
  H  H631  1  0.081100  0.690200  0.561100  1.0
  H  H632  1  0.418900  0.809800  0.061100  1.0
  H  H633  1  0.960500  0.344100  0.512700  1.0
  H  H634  1  0.539500  0.155900  0.012700  1.0
  H  H635  1  0.039500  0.655900  0.487300  1.0
  H  H636  1  0.460500  0.844100  0.987300  1.0
  H  H637  1  0.902600  0.331900  0.505100  1.0
  H  H638  1  0.597400  0.168100  0.005100  1.0
  H  H639  1  0.097400  0.668100  0.494900  1.0
  H  H640  1  0.402600  0.831900  0.994900  1.0
  H  H641  1  0.897300  0.394200  0.458700  1.0
  H  H642  1  0.602700  0.105800  0.958700  1.0
  H  H643  1  0.102700  0.605800  0.541300  1.0
  H  H644  1  0.397300  0.894200  0.041300  1.0
  H  H645  1  0.919500  0.415500  0.500000  1.0
  H  H646  1  0.580500  0.084500  0.000000  1.0
  H  H647  1  0.080500  0.584500  0.500000  1.0
  H  H648  1  0.419500  0.915500  0.000000  1.0
  H  H649  1  0.045500  0.317600  0.398100  1.0
  H  H650  1  0.454500  0.182400  0.898100  1.0
  H  H651  1  0.954500  0.682400  0.601900  1.0
  H  H652  1  0.545500  0.817600  0.101900  1.0
  H  H653  1  0.994700  0.288400  0.389400  1.0
  H  H654  1  0.505300  0.211600  0.889400  1.0
  H  H655  1  0.005300  0.711600  0.610600  1.0
  H  H656  1  0.494700  0.788400  0.110600  1.0
  H  H657  1  0.029800  0.272900  0.425900  1.0
  H  H658  1  0.470200  0.227100  0.925900  1.0
  H  H659  1  0.970200  0.727100  0.574100  1.0
  H  H660  1  0.529800  0.772900  0.074100  1.0
  H  H661  1  0.007000  0.468600  0.434000  1.0
  H  H662  1  0.493000  0.031400  0.934000  1.0
  H  H663  1  0.993000  0.531400  0.566000  1.0
  H  H664  1  0.507000  0.968600  0.066000  1.0
  H  H665  1  0.977200  0.478800  0.474800  1.0
  H  H666  1  0.522800  0.021200  0.974800  1.0
  H  H667  1  0.022800  0.521200  0.525200  1.0
  H  H668  1  0.477200  0.978800  0.025200  1.0
  H  H669  1  0.947600  0.473000  0.433200  1.0
  H  H670  1  0.552400  0.027000  0.933200  1.0
  H  H671  1  0.052400  0.527000  0.566800  1.0
  H  H672  1  0.447600  0.973000  0.066800  1.0
  H  H673  1  0.363900  0.392200  0.024200  1.0
  H  H674  1  0.136100  0.107800  0.524200  1.0
  H  H675  1  0.636100  0.607800  0.975800  1.0
  H  H676  1  0.863900  0.892200  0.475800  1.0
  H  H677  1  0.406200  0.425400  0.003600  1.0
  H  H678  1  0.093800  0.074600  0.503600  1.0
  H  H679  1  0.593800  0.574600  0.996400  1.0
  H  H680  1  0.906200  0.925400  0.496400  1.0
  H  H681  1  0.325400  0.445500  0.980800  1.0
  H  H682  1  0.174600  0.054500  0.480800  1.0
  H  H683  1  0.674600  0.554500  0.019200  1.0
  H  H684  1  0.825400  0.945500  0.519200  1.0
  H  H685  1  0.353000  0.490300  0.002100  1.0
  H  H686  1  0.147000  0.009700  0.502100  1.0
  H  H687  1  0.647000  0.509700  0.997900  1.0
  H  H688  1  0.853000  0.990300  0.497900  1.0
  H  H689  1  0.272200  0.483700  0.027300  1.0
  H  H690  1  0.227800  0.016300  0.527300  1.0
  H  H691  1  0.727800  0.516300  0.972700  1.0
  H  H692  1  0.772200  0.983700  0.472700  1.0
  H  H693  1  0.280300  0.428600  0.039100  1.0
  H  H694  1  0.219700  0.071400  0.539100  1.0
  H  H695  1  0.719700  0.571400  0.960900  1.0
  H  H696  1  0.780300  0.928600  0.460900  1.0
  H  H697  1  0.299200  0.503100  0.129400  1.0
  H  H698  1  0.200800  0.996900  0.629400  1.0
  H  H699  1  0.700800  0.496900  0.870600  1.0
  H  H700  1  0.799200  0.003100  0.370600  1.0
  H  H701  1  0.256100  0.469400  0.110700  1.0
  H  H702  1  0.243900  0.030600  0.610700  1.0
  H  H703  1  0.743900  0.530600  0.889300  1.0
  H  H704  1  0.756100  0.969400  0.389300  1.0
  H  H705  1  0.265400  0.522300  0.093300  1.0
  H  H706  1  0.234600  0.977700  0.593300  1.0
  H  H707  1  0.734600  0.477700  0.906700  1.0
  H  H708  1  0.765400  0.022300  0.406700  1.0
  H  H709  1  0.448500  0.437400  0.103100  1.0
  H  H710  1  0.051500  0.062600  0.603100  1.0
  H  H711  1  0.551500  0.562600  0.896900  1.0
  H  H712  1  0.948500  0.937400  0.396900  1.0
  H  H713  1  0.468200  0.434700  0.057800  1.0
  H  H714  1  0.031800  0.065300  0.557800  1.0
  H  H715  1  0.531800  0.565300  0.942200  1.0
  H  H716  1  0.968200  0.934700  0.442200  1.0
  H  H717  1  0.440500  0.389200  0.077600  1.0
  H  H718  1  0.059500  0.110800  0.577600  1.0
  H  H719  1  0.559500  0.610800  0.922400  1.0
  H  H720  1  0.940500  0.889200  0.422400  1.0
  C  C721  1  0.418040  0.934790  0.447250  1
  C  C722  1  0.081960  0.565210  0.947250  1
  C  C723  1  0.581960  0.065210  0.552750  1
  C  C724  1  0.918040  0.434790  0.052750  1
  C  C725  1  0.475000  0.884300  0.484500  1
  C  C726  1  0.025000  0.615700  0.984500  1
  C  C727  1  0.525000  0.115700  0.515500  1
  C  C728  1  0.975000  0.384300  0.015500  1
  C  C729  1  0.429500  0.862400  0.503100  1
  C  C730  1  0.070500  0.637600  0.003100  1
  C  C731  1  0.570500  0.137600  0.496900  1
  C  C732  1  0.929500  0.362400  0.996900  1
  C  C733  1  0.389900  0.856700  0.472100  1
  C  C734  1  0.110100  0.643300  0.972100  1
  C  C735  1  0.610100  0.143300  0.527900  1
  C  C736  1  0.889900  0.356700  0.027900  1
  C  C737  1  0.503700  0.962400  0.455700  1
  C  C738  1  0.996300  0.537600  0.955700  1
  C  C739  1  0.496300  0.037600  0.544300  1
  C  C740  1  0.003700  0.462400  0.044300  1
  C  C741  1  0.333900  0.907600  0.431300  1
  C  C742  1  0.166100  0.592400  0.931300  1
  C  C743  1  0.666100  0.092400  0.568700  1
  C  C744  1  0.833900  0.407600  0.068700  1
  C  C745  1  0.986500  0.478470  0.256330  1
  C  C746  1  0.513500  0.021530  0.756330  1
  C  C747  1  0.013500  0.521530  0.743670  1
  C  C748  1  0.486500  0.978470  0.243670  1
  C  C749  1  0.052600  0.468000  0.305600  1
  C  C750  1  0.447400  0.032000  0.805600  1
  C  C751  1  0.947400  0.532000  0.694400  1
  C  C752  1  0.552600  0.968000  0.194400  1
  C  C753  1  0.015100  0.482900  0.335980  1
  C  C754  1  0.484900  0.017100  0.835980  1
  C  C755  1  0.984900  0.517100  0.664020  1
  C  C756  1  0.515100  0.982900  0.164020  1
  C  C757  1  0.965900  0.460300  0.326130  1
  C  C758  1  0.534100  0.039700  0.826130  1
  C  C759  1  0.034100  0.539700  0.673870  1
  C  C760  1  0.465900  0.960300  0.173870  1
  C  C761  1  0.072300  0.481000  0.233200  1
  C  C762  1  0.427700  0.019000  0.733200  1
  C  C763  1  0.927700  0.519000  0.766800  1
  C  C764  1  0.572300  0.981000  0.266800  1
  C  C765  1  0.899650  0.464800  0.274000  1
  C  C766  1  0.600350  0.035200  0.774000  1
  C  C767  1  0.100350  0.535200  0.726000  1
  C  C768  1  0.399650  0.964800  0.226000  1
  C  C769  1  0.030270  0.358400  0.699260  1
  C  C770  1  0.469730  0.141600  0.199260  1
  C  C771  1  0.969730  0.641600  0.300740  1
  C  C772  1  0.530270  0.858400  0.800740  1
  C  C773  1  0.095400  0.352000  0.749900  1
  C  C774  1  0.404600  0.148000  0.249900  1
  C  C775  1  0.904600  0.648000  0.250100  1
  C  C776  1  0.595400  0.852000  0.750100  1
  C  C777  1  0.072300  0.394600  0.768800  1
  C  C778  1  0.427700  0.105400  0.268800  1
  C  C779  1  0.927700  0.605400  0.231200  1
  C  C780  1  0.572300  0.894600  0.731200  1
  C  C781  1  0.017000  0.389100  0.766940  1
  C  C782  1  0.483000  0.110900  0.266940  1
  C  C783  1  0.983000  0.610900  0.233060  1
  C  C784  1  0.517000  0.889100  0.733060  1
  C  C785  1  0.106900  0.318800  0.681100  1
  C  C786  1  0.393100  0.181200  0.181100  1
  C  C787  1  0.893100  0.681200  0.318900  1
  C  C788  1  0.606900  0.818800  0.818900  1
  C  C789  1  0.949000  0.389200  0.716100  1
  C  C790  1  0.551000  0.110800  0.216100  1
  C  C791  1  0.051000  0.610800  0.283900  1
  C  C792  1  0.449000  0.889200  0.783900  1
  C  C793  1  0.113300  0.874500  0.474200  1
  C  C794  1  0.386700  0.625500  0.974200  1
  C  C795  1  0.886700  0.125500  0.525800  1
  C  C796  1  0.613300  0.374500  0.025800  1
  C  C797  1  0.078000  0.857500  0.408100  1
  C  C798  1  0.422000  0.642500  0.908100  1
  C  C799  1  0.922000  0.142500  0.591900  1
  C  C800  1  0.578000  0.357500  0.091900  1
  C  C801  1  0.096100  0.807800  0.414300  1
  C  C802  1  0.403900  0.692200  0.914300  1
  C  C803  1  0.903900  0.192200  0.585700  1
  C  C804  1  0.596100  0.307800  0.085700  1
  C  C805  1  0.086800  0.793100  0.456700  1
  C  C806  1  0.413200  0.706900  0.956700  1
  C  C807  1  0.913200  0.206900  0.543300  1
  C  C808  1  0.586800  0.293100  0.043300  1
  C  C809  1  0.099700  0.941000  0.428700  1
  C  C810  1  0.400300  0.559000  0.928700  1
  C  C811  1  0.900300  0.059000  0.571300  1
  C  C812  1  0.599700  0.441000  0.071300  1
  C  C813  1  0.115200  0.813200  0.526000  1
  C  C814  1  0.384800  0.686800  0.026000  1
  C  C815  1  0.884800  0.186800  0.474000  1
  C  C816  1  0.615200  0.313200  0.974000  1
  C  C817  1  0.689000  0.298000  0.302100  1.0
  C  C818  1  0.811000  0.202000  0.802100  1.0
  C  C819  1  0.311000  0.702000  0.697900  1.0
  C  C820  1  0.189000  0.798000  0.197900  1.0
  C  C821  1  0.723100  0.329300  0.281200  1.0
  C  C822  1  0.776900  0.170700  0.781200  1.0
  C  C823  1  0.276900  0.670700  0.718800  1.0
  C  C824  1  0.223100  0.829300  0.218800  1.0
  C  C825  1  0.753700  0.313260  0.250500  1.0
  C  C826  1  0.746300  0.186740  0.750500  1.0
  C  C827  1  0.246300  0.686740  0.749500  1.0
  C  C828  1  0.253700  0.813260  0.249500  1.0
  C  C829  1  0.785200  0.345400  0.230400  1.0
  C  C830  1  0.714800  0.154600  0.730400  1.0
  C  C831  1  0.214800  0.654600  0.769600  1.0
  C  C832  1  0.285200  0.845400  0.269600  1.0
  C  C833  1  0.786200  0.393600  0.241100  1.0
  C  C834  1  0.713800  0.106400  0.741100  1.0
  C  C835  1  0.213800  0.606400  0.758900  1.0
  C  C836  1  0.286200  0.893600  0.258900  1.0
  C  C837  1  0.755600  0.409600  0.271900  1.0
  C  C838  1  0.744400  0.090400  0.771900  1.0
  C  C839  1  0.244400  0.590400  0.728100  1.0
  C  C840  1  0.255600  0.909600  0.228100  1.0
  C  C841  1  0.724100  0.377500  0.292000  1.0
  C  C842  1  0.775900  0.122500  0.792000  1.0
  C  C843  1  0.275900  0.622500  0.708000  1.0
  C  C844  1  0.224100  0.877500  0.208000  1.0
  C  C845  1  0.753900  0.461600  0.278200  1.0
  C  C846  1  0.746100  0.038400  0.778200  1.0
  C  C847  1  0.246100  0.538400  0.721800  1.0
  C  C848  1  0.253900  0.961600  0.221800  1.0
  C  C849  1  0.733800  0.651500  0.307300  1.0
  C  C850  1  0.766200  0.848500  0.807300  1.0
  C  C851  1  0.266200  0.348500  0.692700  1.0
  C  C852  1  0.233800  0.151500  0.192700  1.0
  C  C853  1  0.731100  0.702800  0.314400  1.0
  C  C854  1  0.768900  0.797200  0.814400  1.0
  C  C855  1  0.268900  0.297200  0.685600  1.0
  C  C856  1  0.231100  0.202800  0.185600  1.0
  C  C857  1  0.758000  0.735500  0.290900  1.0
  C  C858  1  0.742000  0.764500  0.790900  1.0
  C  C859  1  0.242000  0.264500  0.709100  1.0
  C  C860  1  0.258000  0.235500  0.209100  1.0
  C  C861  1  0.756200  0.784200  0.299400  1.0
  C  C862  1  0.743800  0.715800  0.799400  1.0
  C  C863  1  0.243800  0.215800  0.700600  1.0
  C  C864  1  0.256200  0.284200  0.200600  1.0
  C  C865  1  0.727600  0.800400  0.331300  1.0
  C  C866  1  0.772400  0.699600  0.831300  1.0
  C  C867  1  0.272400  0.199600  0.668700  1.0
  C  C868  1  0.227600  0.300400  0.168700  1.0
  C  C869  1  0.700700  0.767700  0.354800  1.0
  C  C870  1  0.799300  0.732300  0.854800  1.0
  C  C871  1  0.299300  0.232300  0.645200  1.0
  C  C872  1  0.200700  0.267700  0.145200  1.0
  C  C873  1  0.702500  0.719000  0.346300  1.0
  C  C874  1  0.797500  0.781000  0.846300  1.0
  C  C875  1  0.297500  0.281000  0.653700  1.0
  C  C876  1  0.202500  0.219000  0.153700  1.0
  C  C877  1  0.673600  0.785700  0.392200  1.0
  C  C878  1  0.826400  0.714300  0.892200  1.0
  C  C879  1  0.326400  0.214300  0.607800  1.0
  C  C880  1  0.173600  0.285700  0.107800  1.0
  C  C881  1  0.548100  0.835500  0.412000  1.0
  C  C882  1  0.951900  0.664500  0.912000  1.0
  C  C883  1  0.451900  0.164500  0.588000  1.0
  C  C884  1  0.048100  0.335500  0.088000  1.0
  C  C885  1  0.500600  0.845900  0.388800  1.0
  C  C886  1  0.999400  0.654100  0.888800  1.0
  C  C887  1  0.499400  0.154100  0.611200  1.0
  C  C888  1  0.000600  0.345900  0.111200  1.0
  C  C889  1  0.497800  0.888600  0.367400  1.0
  C  C890  1  0.002200  0.611400  0.867400  1.0
  C  C891  1  0.502200  0.111400  0.632600  1.0
  C  C892  1  0.997800  0.388600  0.132600  1.0
  C  C893  1  0.454200  0.899700  0.347100  1.0
  C  C894  1  0.045800  0.600300  0.847100  1.0
  C  C895  1  0.545800  0.100300  0.652900  1.0
  C  C896  1  0.954200  0.399700  0.152900  1.0
  C  C897  1  0.413500  0.868200  0.348200  1.0
  C  C898  1  0.086500  0.631800  0.848200  1.0
  C  C899  1  0.586500  0.131800  0.651800  1.0
  C  C900  1  0.913500  0.368200  0.151800  1.0
  C  C901  1  0.416300  0.825500  0.369600  1.0
  C  C902  1  0.083700  0.674500  0.869600  1.0
  C  C903  1  0.583700  0.174500  0.630400  1.0
  C  C904  1  0.916300  0.325500  0.130400  1.0
  C  C905  1  0.459900  0.814400  0.389900  1.0
  C  C906  1  0.040100  0.685600  0.889900  1.0
  C  C907  1  0.540100  0.185600  0.610100  1.0
  C  C908  1  0.959900  0.314400  0.110100  1.0
  C  C909  1  0.372500  0.794300  0.373700  1.0
  C  C910  1  0.127500  0.705700  0.873700  1.0
  C  C911  1  0.627500  0.205700  0.626300  1.0
  C  C912  1  0.872500  0.294300  0.126300  1.0
  C  C913  1  0.208800  0.684300  0.402000  1.0
  C  C914  1  0.291200  0.815700  0.902000  1.0
  C  C915  1  0.791200  0.315700  0.598000  1.0
  C  C916  1  0.708800  0.184300  0.098000  1.0
  C  C917  1  0.163500  0.649200  0.407600  1.0
  C  C918  1  0.336500  0.850800  0.907600  1.0
  C  C919  1  0.836500  0.350800  0.592400  1.0
  C  C920  1  0.663500  0.149200  0.092400  1.0
  C  C921  1  0.116100  0.665000  0.398300  1.0
  C  C922  1  0.383900  0.835000  0.898300  1.0
  C  C923  1  0.883900  0.335000  0.601700  1.0
  C  C924  1  0.616100  0.165000  0.101700  1.0
  C  C925  1  0.076100  0.632500  0.397300  1.0
  C  C926  1  0.423900  0.867500  0.897300  1.0
  C  C927  1  0.923900  0.367500  0.602700  1.0
  C  C928  1  0.576100  0.132500  0.102700  1.0
  C  C929  1  0.083600  0.584300  0.405600  1.0
  C  C930  1  0.416400  0.915700  0.905600  1.0
  C  C931  1  0.916400  0.415700  0.594400  1.0
  C  C932  1  0.583600  0.084300  0.094400  1.0
  C  C933  1  0.131000  0.568600  0.414900  1.0
  C  C934  1  0.369000  0.931400  0.914900  1.0
  C  C935  1  0.869000  0.431400  0.585100  1.0
  C  C936  1  0.631000  0.068600  0.085100  1.0
  C  C937  1  0.171000  0.601000  0.415900  1.0
  C  C938  1  0.329000  0.899000  0.915900  1.0
  C  C939  1  0.829000  0.399000  0.584100  1.0
  C  C940  1  0.671000  0.101000  0.084100  1.0
  C  C941  1  0.141300  0.516900  0.421000  1.0
  C  C942  1  0.358700  0.983100  0.921000  1.0
  C  C943  1  0.858700  0.483100  0.579000  1.0
  C  C944  1  0.641300  0.016900  0.079000  1.0
  C  C945  1  0.176800  0.328300  0.443500  1.0
  C  C946  1  0.323200  0.171700  0.943500  1.0
  C  C947  1  0.823200  0.671700  0.556500  1.0
  C  C948  1  0.676800  0.828300  0.056500  1.0
  C  C949  1  0.187900  0.277500  0.452500  1.0
  C  C950  1  0.312100  0.222500  0.952500  1.0
  C  C951  1  0.812100  0.722500  0.547500  1.0
  C  C952  1  0.687900  0.777500  0.047500  1.0
  C  C953  1  0.150100  0.243200  0.447700  1.0
  C  C954  1  0.349900  0.256800  0.947700  1.0
  C  C955  1  0.849900  0.756800  0.552300  1.0
  C  C956  1  0.650100  0.743200  0.052300  1.0
  C  C957  1  0.157700  0.196100  0.459400  1.0
  C  C958  1  0.342300  0.303900  0.959400  1.0
  C  C959  1  0.842300  0.803900  0.540600  1.0
  C  C960  1  0.657700  0.696100  0.040600  1.0
  C  C961  1  0.203200  0.183200  0.475900  1.0
  C  C962  1  0.296800  0.316800  0.975900  1.0
  C  C963  1  0.796800  0.816800  0.524100  1.0
  C  C964  1  0.703200  0.683200  0.024100  1.0
  C  C965  1  0.241000  0.217500  0.480700  1.0
  C  C966  1  0.259000  0.282500  0.980700  1.0
  C  C967  1  0.759000  0.782500  0.519300  1.0
  C  C968  1  0.741000  0.717500  0.019300  1.0
  C  C969  1  0.233400  0.264700  0.469000  1.0
  C  C970  1  0.266600  0.235300  0.969000  1.0
  C  C971  1  0.766600  0.735300  0.531000  1.0
  C  C972  1  0.733400  0.764700  0.031000  1.0
  C  C973  1  0.288700  0.204600  0.499300  1.0
  C  C974  1  0.211300  0.295400  0.999300  1.0
  C  C975  1  0.711300  0.795400  0.500700  1.0
  C  C976  1  0.788700  0.704600  0.000700  1.0
  C  C977  1  0.417000  0.151500  0.474300  1.0
  C  C978  1  0.083000  0.348500  0.974300  1.0
  C  C979  1  0.583000  0.848500  0.525700  1.0
  C  C980  1  0.917000  0.651500  0.025700  1.0
  C  C981  1  0.444300  0.134600  0.438930  1.0
  C  C982  1  0.055700  0.365400  0.938930  1.0
  C  C983  1  0.555700  0.865400  0.561070  1.0
  C  C984  1  0.944300  0.634600  0.061070  1.0
  C  C985  1  0.436200  0.088000  0.425200  1.0
  C  C986  1  0.063800  0.412000  0.925200  1.0
  C  C987  1  0.563800  0.912000  0.574800  1.0
  C  C988  1  0.936200  0.588000  0.074800  1.0
  C  C989  1  0.463300  0.071000  0.392700  1.0
  C  C990  1  0.036700  0.429000  0.892700  1.0
  C  C991  1  0.536700  0.929000  0.607300  1.0
  C  C992  1  0.963300  0.571000  0.107300  1.0
  C  C993  1  0.498600  0.100500  0.374000  1.0
  C  C994  1  0.001400  0.399500  0.874000  1.0
  C  C995  1  0.501400  0.899500  0.626000  1.0
  C  C996  1  0.998600  0.600500  0.126000  1.0
  C  C997  1  0.506700  0.147100  0.387700  1.0
  C  C998  1  0.993300  0.352900  0.887700  1.0
  C  C999  1  0.493300  0.852900  0.612300  1.0
  C  C1000  1  0.006700  0.647100  0.112300  1.0
  C  C1001  1  0.479600  0.164100  0.420200  1.0
  C  C1002  1  0.020400  0.335900  0.920200  1.0
  C  C1003  1  0.520400  0.835900  0.579800  1.0
  C  C1004  1  0.979600  0.664100  0.079800  1.0
  C  C1005  1  0.547600  0.177900  0.368300  1.0
  C  C1006  1  0.952400  0.322100  0.868300  1.0
  C  C1007  1  0.452400  0.822100  0.631700  1.0
  C  C1008  1  0.047600  0.677900  0.131700  1.0
  C  C1009  1  0.554500  0.260200  0.276200  1.0
  C  C1010  1  0.945500  0.239800  0.776200  1.0
  C  C1011  1  0.445500  0.739800  0.723800  1.0
  C  C1012  1  0.054500  0.760200  0.223800  1.0
  C  C1013  1  0.520500  0.277200  0.244600  1.0
  C  C1014  1  0.979500  0.222800  0.744600  1.0
  C  C1015  1  0.479500  0.722800  0.755400  1.0
  C  C1016  1  0.020500  0.777200  0.255400  1.0
  C  C1017  1  0.516300  0.250100  0.209600  1.0
  C  C1018  1  0.983700  0.249900  0.709600  1.0
  C  C1019  1  0.483700  0.749900  0.790400  1.0
  C  C1020  1  0.016300  0.750100  0.290400  1.0
  C  C1021  1  0.488900  0.267100  0.177300  1.0
  C  C1022  1  0.011100  0.232900  0.677300  1.0
  C  C1023  1  0.511100  0.732900  0.822700  1.0
  C  C1024  1  0.988900  0.767100  0.322700  1.0
  C  C1025  1  0.465700  0.311100  0.179900  1.0
  C  C1026  1  0.034300  0.188900  0.679900  1.0
  C  C1027  1  0.534300  0.688900  0.820100  1.0
  C  C1028  1  0.965700  0.811100  0.320100  1.0
  C  C1029  1  0.470000  0.338200  0.214900  1.0
  C  C1030  1  0.030000  0.161800  0.714900  1.0
  C  C1031  1  0.530000  0.661800  0.785100  1.0
  C  C1032  1  0.970000  0.838200  0.285100  1.0
  C  C1033  1  0.497300  0.321200  0.247300  1.0
  C  C1034  1  0.002700  0.178800  0.747300  1.0
  C  C1035  1  0.502700  0.678800  0.752700  1.0
  C  C1036  1  0.997300  0.821200  0.252700  1.0
  C  C1037  1  0.446600  0.385900  0.218700  1.0
  C  C1038  1  0.053400  0.114100  0.718700  1.0
  C  C1039  1  0.553400  0.614100  0.781300  1.0
  C  C1040  1  0.946600  0.885900  0.281300  1.0
  C  C1041  1  0.364500  0.560700  0.227600  1.0
  C  C1042  1  0.135500  0.939300  0.727600  1.0
  C  C1043  1  0.635500  0.439300  0.772400  1.0
  C  C1044  1  0.864500  0.060700  0.272400  1.0
  C  C1045  1  0.337800  0.606300  0.233500  1.0
  C  C1046  1  0.162200  0.893700  0.733500  1.0
  C  C1047  1  0.662200  0.393700  0.766500  1.0
  C  C1048  1  0.837800  0.106300  0.266500  1.0
  C  C1049  1  0.312300  0.624600  0.200640  1.0
  C  C1050  1  0.187700  0.875400  0.700640  1.0
  C  C1051  1  0.687700  0.375400  0.799360  1.0
  C  C1052  1  0.812300  0.124600  0.299360  1.0
  C  C1053  1  0.282700  0.664500  0.205200  1.0
  C  C1054  1  0.217300  0.835500  0.705200  1.0
  C  C1055  1  0.717300  0.335500  0.794800  1.0
  C  C1056  1  0.782700  0.164500  0.294800  1.0
  C  C1057  1  0.278600  0.686300  0.242700  1.0
  C  C1058  1  0.221400  0.813700  0.742700  1.0
  C  C1059  1  0.721400  0.313700  0.757300  1.0
  C  C1060  1  0.778600  0.186300  0.257300  1.0
  C  C1061  1  0.304100  0.668100  0.275570  1.0
  C  C1062  1  0.195900  0.831900  0.775570  1.0
  C  C1063  1  0.695900  0.331900  0.724430  1.0
  C  C1064  1  0.804100  0.168100  0.224430  1.0
  C  C1065  1  0.333700  0.628100  0.271000  1.0
  C  C1066  1  0.166300  0.871900  0.771000  1.0
  C  C1067  1  0.666300  0.371900  0.729000  1.0
  C  C1068  1  0.833700  0.128100  0.229000  1.0
  C  C1069  1  0.301100  0.692100  0.313800  1.0
  C  C1070  1  0.198900  0.807900  0.813800  1.0
  C  C1071  1  0.698900  0.307900  0.686200  1.0
  C  C1072  1  0.801100  0.192100  0.186200  1.0
  C  C1073  1  0.276600  0.781300  0.457700  1.0
  C  C1074  1  0.223400  0.718700  0.957700  1.0
  C  C1075  1  0.723400  0.218700  0.542300  1.0
  C  C1076  1  0.776600  0.281300  0.042300  1.0
  C  C1077  1  0.269700  0.804100  0.499100  1.0
  C  C1078  1  0.230300  0.695900  0.999100  1.0
  C  C1079  1  0.730300  0.195900  0.500900  1.0
  C  C1080  1  0.769700  0.304100  0.000900  1.0
  C  C1081  1  0.240200  0.844200  0.503200  1.0
  C  C1082  1  0.259800  0.655800  0.003200  1.0
  C  C1083  1  0.759800  0.155800  0.496800  1.0
  C  C1084  1  0.740200  0.344200  0.996800  1.0
  C  C1085  1  0.236400  0.866800  0.540300  1.0
  C  C1086  1  0.263600  0.633200  0.040300  1.0
  C  C1087  1  0.763600  0.133200  0.459700  1.0
  C  C1088  1  0.736400  0.366800  0.959700  1.0
  C  C1089  1  0.262100  0.849300  0.573400  1.0
  C  C1090  1  0.237900  0.650700  0.073400  1.0
  C  C1091  1  0.737900  0.150700  0.426600  1.0
  C  C1092  1  0.762100  0.349300  0.926600  1.0
  C  C1093  1  0.291500  0.809100  0.569300  1.0
  C  C1094  1  0.208500  0.690900  0.069300  1.0
  C  C1095  1  0.708500  0.190900  0.430700  1.0
  C  C1096  1  0.791500  0.309100  0.930700  1.0
  C  C1097  1  0.295300  0.786500  0.532200  1.0
  C  C1098  1  0.204700  0.713500  0.032200  1.0
  C  C1099  1  0.704700  0.213500  0.467800  1.0
  C  C1100  1  0.795300  0.286500  0.967800  1.0
  C  C1101  1  0.319100  0.794100  0.606300  1.0
  C  C1102  1  0.180900  0.705900  0.106300  1.0
  C  C1103  1  0.680900  0.205900  0.393700  1.0
  C  C1104  1  0.819100  0.294100  0.893700  1.0
  C  C1105  1  0.183300  0.439800  0.653100  1.0
  C  C1106  1  0.316700  0.060200  0.153100  1.0
  C  C1107  1  0.816700  0.560200  0.346900  1.0
  C  C1108  1  0.683300  0.939800  0.846900  1.0
  C  C1109  1  0.142900  0.437600  0.622500  1.0
  C  C1110  1  0.357100  0.062400  0.122500  1.0
  C  C1111  1  0.857100  0.562400  0.377500  1.0
  C  C1112  1  0.642900  0.937600  0.877500  1.0
  C  C1113  1  0.093400  0.430800  0.633880  1.0
  C  C1114  1  0.406600  0.069200  0.133880  1.0
  C  C1115  1  0.906600  0.569200  0.366120  1.0
  C  C1116  1  0.593400  0.930800  0.866120  1.0
  C  C1117  1  0.056600  0.425100  0.604700  1.0
  C  C1118  1  0.443400  0.074900  0.104700  1.0
  C  C1119  1  0.943400  0.574900  0.395300  1.0
  C  C1120  1  0.556600  0.925100  0.895300  1.0
  C  C1121  1  0.069300  0.426100  0.564200  1.0
  C  C1122  1  0.430700  0.073900  0.064200  1.0
  C  C1123  1  0.930700  0.573900  0.435800  1.0
  C  C1124  1  0.569300  0.926100  0.935800  1.0
  C  C1125  1  0.118800  0.432800  0.552800  1.0
  C  C1126  1  0.381200  0.067200  0.052800  1.0
  C  C1127  1  0.881200  0.567200  0.447200  1.0
  C  C1128  1  0.618800  0.932800  0.947200  1.0
  C  C1129  1  0.155600  0.438600  0.581900  1.0
  C  C1130  1  0.344400  0.061400  0.081900  1.0
  C  C1131  1  0.844400  0.561400  0.418100  1.0
  C  C1132  1  0.655600  0.938600  0.918100  1.0
  C  C1133  1  0.131600  0.430600  0.508900  1.0
  C  C1134  1  0.368400  0.069400  0.008900  1.0
  C  C1135  1  0.868400  0.569400  0.491100  1.0
  C  C1136  1  0.631600  0.930600  0.991100  1.0
  C  C1137  1  0.187300  0.415400  0.353900  1.0
  C  C1138  1  0.312700  0.084600  0.853900  1.0
  C  C1139  1  0.812700  0.584600  0.646100  1.0
  C  C1140  1  0.687300  0.915400  0.146100  1.0
  C  C1141  1  0.202100  0.409400  0.310440  1.0
  C  C1142  1  0.297900  0.090600  0.810440  1.0
  C  C1143  1  0.797900  0.590600  0.689560  1.0
  C  C1144  1  0.702100  0.909400  0.189560  1.0
  C  C1145  1  0.168400  0.393700  0.281300  1.0
  C  C1146  1  0.331600  0.106300  0.781300  1.0
  C  C1147  1  0.831600  0.606300  0.718700  1.0
  C  C1148  1  0.668400  0.893700  0.218700  1.0
  C  C1149  1  0.183000  0.391200  0.241200  1.0
  C  C1150  1  0.317000  0.108800  0.741200  1.0
  C  C1151  1  0.817000  0.608800  0.758800  1.0
  C  C1152  1  0.683000  0.891200  0.258800  1.0
  C  C1153  1  0.231400  0.404500  0.230310  1.0
  C  C1154  1  0.268600  0.095500  0.730310  1.0
  C  C1155  1  0.768600  0.595500  0.769690  1.0
  C  C1156  1  0.731400  0.904500  0.269690  1.0
  C  C1157  1  0.265100  0.420200  0.259400  1.0
  C  C1158  1  0.234900  0.079800  0.759400  1.0
  C  C1159  1  0.734900  0.579800  0.740600  1.0
  C  C1160  1  0.765100  0.920200  0.240600  1.0
  C  C1161  1  0.250500  0.422600  0.299500  1.0
  C  C1162  1  0.249500  0.077400  0.799500  1.0
  C  C1163  1  0.749500  0.577400  0.700500  1.0
  C  C1164  1  0.750500  0.922600  0.200500  1.0
  C  C1165  1  0.317100  0.437600  0.246100  1.0
  C  C1166  1  0.182900  0.062400  0.746100  1.0
  C  C1167  1  0.682900  0.562400  0.753900  1.0
  C  C1168  1  0.817100  0.937600  0.253900  1.0
  C  C1169  1  0.493500  0.509800  0.199300  1.0
  C  C1170  1  0.006500  0.990200  0.699300  1.0
  C  C1171  1  0.506500  0.490200  0.800700  1.0
  C  C1172  1  0.993500  0.009800  0.300700  1.0
  C  C1173  1  0.544700  0.531200  0.189000  1.0
  C  C1174  1  0.955300  0.968800  0.689000  1.0
  C  C1175  1  0.455300  0.468800  0.811000  1.0
  C  C1176  1  0.044700  0.031200  0.311000  1.0
  C  C1177  1  0.555300  0.541000  0.148800  1.0
  C  C1178  1  0.944700  0.959000  0.648800  1.0
  C  C1179  1  0.444700  0.459000  0.851200  1.0
  C  C1180  1  0.055300  0.041000  0.351200  1.0
  C  C1181  1  0.602700  0.557200  0.137800  1.0
  C  C1182  1  0.897300  0.942800  0.637800  1.0
  C  C1183  1  0.397300  0.442800  0.862200  1.0
  C  C1184  1  0.102700  0.057200  0.362200  1.0
  C  C1185  1  0.639400  0.563600  0.166800  1.0
  C  C1186  1  0.860600  0.936400  0.666800  1.0
  C  C1187  1  0.360600  0.436400  0.833200  1.0
  C  C1188  1  0.139400  0.063600  0.333200  1.0
  C  C1189  1  0.628900  0.553800  0.207000  1.0
  C  C1190  1  0.871100  0.946200  0.707000  1.0
  C  C1191  1  0.371100  0.446200  0.793000  1.0
  C  C1192  1  0.128900  0.053800  0.293000  1.0
  C  C1193  1  0.581500  0.537600  0.218100  1.0
  C  C1194  1  0.918500  0.962400  0.718100  1.0
  C  C1195  1  0.418500  0.462400  0.781900  1.0
  C  C1196  1  0.081500  0.037600  0.281900  1.0
  C  C1197  1  0.668600  0.555500  0.238700  1.0
  C  C1198  1  0.831400  0.944500  0.738700  1.0
  C  C1199  1  0.331400  0.444500  0.761300  1.0
  C  C1200  1  0.168600  0.055500  0.261300  1.0
  C  C1201  1  0.677960  0.108590  0.255740  1.0
  C  C1202  1  0.822040  0.391410  0.755740  1.0
  C  C1203  1  0.322040  0.891410  0.744260  1.0
  C  C1204  1  0.177960  0.608590  0.244260  1.0
  C  C1205  1  0.720100  0.035300  0.237000  1.0
  C  C1206  1  0.779900  0.464700  0.737000  1.0
  C  C1207  1  0.279900  0.964700  0.763000  1.0
  C  C1208  1  0.220100  0.535300  0.263000  1.0
  C  C1209  1  0.696200  0.041700  0.196900  1.0
  C  C1210  1  0.803800  0.458300  0.696900  1.0
  C  C1211  1  0.303800  0.958300  0.803100  1.0
  C  C1212  1  0.196200  0.541700  0.303100  1.0
  C  C1213  1  0.698900  0.093400  0.185620  1.0
  C  C1214  1  0.801100  0.406600  0.685620  1.0
  C  C1215  1  0.301100  0.906600  0.814380  1.0
  C  C1216  1  0.198900  0.593400  0.314380  1.0
  C  C1217  1  0.662100  0.170700  0.206500  1.0
  C  C1218  1  0.837900  0.329300  0.706500  1.0
  C  C1219  1  0.337900  0.829300  0.793500  1.0
  C  C1220  1  0.162100  0.670700  0.293500  1.0
  C  C1221  1  0.705500  0.055600  0.308880  1.0
  C  C1222  1  0.794500  0.444400  0.808880  1.0
  C  C1223  1  0.294500  0.944400  0.691120  1.0
  C  C1224  1  0.205500  0.555600  0.191120  1.0
  C  C1225  1  0.807330  0.587750  0.169110  1.0
  C  C1226  1  0.692670  0.912250  0.669110  1.0
  C  C1227  1  0.192670  0.412250  0.830890  1.0
  C  C1228  1  0.307330  0.087750  0.330890  1.0
  C  C1229  1  0.765500  0.623400  0.111680  1.0
  C  C1230  1  0.734500  0.876600  0.611680  1.0
  C  C1231  1  0.234500  0.376600  0.888320  1.0
  C  C1232  1  0.265500  0.123400  0.388320  1.0
  C  C1233  1  0.802000  0.597000  0.086620  1.0
  C  C1234  1  0.698000  0.903000  0.586620  1.0
  C  C1235  1  0.198000  0.403000  0.913380  1.0
  C  C1236  1  0.302000  0.097000  0.413380  1.0
  C  C1237  1  0.808700  0.548200  0.103770  1.0
  C  C1238  1  0.691300  0.951800  0.603770  1.0
  C  C1239  1  0.191300  0.451800  0.896230  1.0
  C  C1240  1  0.308700  0.048200  0.396230  1.0
  C  C1241  1  0.847600  0.510800  0.163800  1.0
  C  C1242  1  0.652400  0.989200  0.663800  1.0
  C  C1243  1  0.152400  0.489200  0.836200  1.0
  C  C1244  1  0.347600  0.010800  0.336200  1.0
  C  C1245  1  0.760800  0.660400  0.179700  1.0
  C  C1246  1  0.739200  0.839600  0.679700  1.0
  C  C1247  1  0.239200  0.339600  0.820300  1.0
  C  C1248  1  0.260800  0.160400  0.320300  1.0
  C  C1249  1  0.655310  0.966780  0.425200  1.0
  C  C1250  1  0.844690  0.533220  0.925200  1.0
  C  C1251  1  0.344690  0.033220  0.574800  1.0
  C  C1252  1  0.155310  0.466780  0.074800  1.0
  C  C1253  1  0.624100  0.043700  0.447700  1.0
  C  C1254  1  0.875900  0.456300  0.947700  1.0
  C  C1255  1  0.375900  0.956300  0.552300  1.0
  C  C1256  1  0.124100  0.543700  0.052300  1.0
  C  C1257  1  0.627300  0.058100  0.404600  1.0
  C  C1258  1  0.872700  0.441900  0.904600  1.0
  C  C1259  1  0.372700  0.941900  0.595400  1.0
  C  C1260  1  0.127300  0.558100  0.095400  1.0
  C  C1261  1  0.609500  0.017400  0.378950  1.0
  C  C1262  1  0.890500  0.482600  0.878950  1.0
  C  C1263  1  0.390500  0.982600  0.621050  1.0
  C  C1264  1  0.109500  0.517400  0.121050  1.0
  C  C1265  1  0.641800  0.938600  0.356800  1.0
  C  C1266  1  0.858200  0.561400  0.856800  1.0
  C  C1267  1  0.358200  0.061400  0.643200  1.0
  C  C1268  1  0.141800  0.438600  0.143200  1.0
  C  C1269  1  0.663200  0.987400  0.495850  1.0
  C  C1270  1  0.836800  0.512600  0.995850  1.0
  C  C1271  1  0.336800  0.012600  0.504150  1.0
  C  C1272  1  0.163200  0.487400  0.004150  1.0
  C  C1273  1  0.185580  0.856800  0.334070  1.0
  C  C1274  1  0.314420  0.643200  0.834070  1.0
  C  C1275  1  0.814420  0.143200  0.665930  1.0
  C  C1276  1  0.685580  0.356800  0.165930  1.0
  C  C1277  1  0.120100  0.867900  0.284500  1.0
  C  C1278  1  0.379900  0.632100  0.784500  1.0
  C  C1279  1  0.879900  0.132100  0.715500  1.0
  C  C1280  1  0.620100  0.367900  0.215500  1.0
  C  C1281  1  0.114700  0.916700  0.302000  1.0
  C  C1282  1  0.385300  0.583300  0.802000  1.0
  C  C1283  1  0.885300  0.083300  0.698000  1.0
  C  C1284  1  0.614700  0.416700  0.198000  1.0
  C  C1285  1  0.165000  0.937180  0.311900  1.0
  C  C1286  1  0.335000  0.562820  0.811900  1.0
  C  C1287  1  0.835000  0.062820  0.688100  1.0
  C  C1288  1  0.665000  0.437180  0.188100  1.0
  C  C1289  1  0.232800  0.924300  0.361500  1.0
  C  C1290  1  0.267200  0.575700  0.861500  1.0
  C  C1291  1  0.767200  0.075700  0.638500  1.0
  C  C1292  1  0.732800  0.424300  0.138500  1.0
  C  C1293  1  0.143800  0.786210  0.306400  1.0
  C  C1294  1  0.356200  0.713790  0.806400  1.0
  C  C1295  1  0.856200  0.213790  0.693600  1.0
  C  C1296  1  0.643800  0.286210  0.193600  1.0
  C  C1297  1  0.998500  0.379800  0.434690  1.0
  C  C1298  1  0.501500  0.120200  0.934690  1.0
  C  C1299  1  0.001500  0.620200  0.565310  1.0
  C  C1300  1  0.498500  0.879800  0.065310  1.0
  C  C1301  1  0.947200  0.312400  0.458000  1.0
  C  C1302  1  0.552800  0.187600  0.958000  1.0
  C  C1303  1  0.052800  0.687600  0.542000  1.0
  C  C1304  1  0.447200  0.812400  0.042000  1.0
  C  C1305  1  0.933600  0.344100  0.492300  1.0
  C  C1306  1  0.566400  0.155900  0.992300  1.0
  C  C1307  1  0.066400  0.655900  0.507700  1.0
  C  C1308  1  0.433600  0.844100  0.007700  1.0
  C  C1309  1  0.926300  0.393700  0.477100  1.0
  C  C1310  1  0.573700  0.106300  0.977100  1.0
  C  C1311  1  0.073700  0.606300  0.522900  1.0
  C  C1312  1  0.426300  0.893700  0.022900  1.0
  C  C1313  1  0.017400  0.300100  0.410500  1.0
  C  C1314  1  0.482600  0.199900  0.910500  1.0
  C  C1315  1  0.982600  0.699900  0.589500  1.0
  C  C1316  1  0.517400  0.800100  0.089500  1.0
  C  C1317  1  0.976100  0.461900  0.448900  1.0
  C  C1318  1  0.523900  0.038100  0.948900  1.0
  C  C1319  1  0.023900  0.538100  0.551100  1.0
  C  C1320  1  0.476100  0.961900  0.051100  1.0
  C  C1321  1  0.362100  0.461900  0.087640  1.0
  C  C1322  1  0.137900  0.038100  0.587640  1.0
  C  C1323  1  0.637900  0.538100  0.912360  1.0
  C  C1324  1  0.862100  0.961900  0.412360  1.0
  C  C1325  1  0.377500  0.425400  0.022300  1.0
  C  C1326  1  0.122500  0.074600  0.522300  1.0
  C  C1327  1  0.622500  0.574600  0.977700  1.0
  C  C1328  1  0.877500  0.925400  0.477700  1.0
  C  C1329  1  0.338400  0.457800  0.006730  1.0
  C  C1330  1  0.161600  0.042200  0.506730  1.0
  C  C1331  1  0.661600  0.542200  0.993270  1.0
  C  C1332  1  0.838400  0.957800  0.493270  1.0
  C  C1333  1  0.297100  0.460400  0.036600  1.0
  C  C1334  1  0.202900  0.039600  0.536600  1.0
  C  C1335  1  0.702900  0.539600  0.963400  1.0
  C  C1336  1  0.797100  0.960400  0.463400  1.0
  C  C1337  1  0.281500  0.494100  0.104600  1.0
  C  C1338  1  0.218500  0.005900  0.604600  1.0
  C  C1339  1  0.718500  0.505900  0.895400  1.0
  C  C1340  1  0.781500  0.994100  0.395400  1.0
  C  C1341  1  0.441700  0.424300  0.076300  1.0
  C  C1342  1  0.058300  0.075700  0.576300  1.0
  C  C1343  1  0.558300  0.575700  0.923700  1.0
  C  C1344  1  0.941700  0.924300  0.423700  1.0
  N  N1345  1  0.462280  0.929000  0.465000  1
  N  N1346  1  0.037720  0.571000  0.965000  1
  N  N1347  1  0.537720  0.071000  0.535000  1
  N  N1348  1  0.962280  0.429000  0.035000  1
  N  N1349  1  0.381180  0.902500  0.453000  1
  N  N1350  1  0.118820  0.597500  0.953000  1
  N  N1351  1  0.618820  0.097500  0.547000  1
  N  N1352  1  0.881180  0.402500  0.047000  1
  N  N1353  1  0.034990  0.479700  0.265620  1
  N  N1354  1  0.465010  0.020300  0.765620  1
  N  N1355  1  0.965010  0.520300  0.734380  1
  N  N1356  1  0.534990  0.979700  0.234380  1
  N  N1357  1  0.952220  0.472400  0.285200  1
  N  N1358  1  0.547780  0.027600  0.785200  1
  N  N1359  1  0.047780  0.527600  0.714800  1
  N  N1360  1  0.452220  0.972400  0.214800  1
  N  N1361  1  0.076300  0.345800  0.709500  1
  N  N1362  1  0.423700  0.154200  0.209500  1
  N  N1363  1  0.923700  0.654200  0.290500  1
  N  N1364  1  0.576300  0.845800  0.790500  1
  N  N1365  1  0.001700  0.381700  0.725550  1
  N  N1366  1  0.498300  0.118300  0.225550  1
  N  N1367  1  0.998300  0.618300  0.274450  1
  N  N1368  1  0.501700  0.881700  0.774450  1
  N  N1369  1  0.101800  0.889300  0.437100  1
  N  N1370  1  0.398200  0.610700  0.937100  1
  N  N1371  1  0.898200  0.110700  0.562900  1
  N  N1372  1  0.601800  0.389300  0.062900  1
  N  N1373  1  0.109700  0.827900  0.483700  1
  N  N1374  1  0.390300  0.672100  0.983700  1
  N  N1375  1  0.890300  0.172100  0.516300  1
  N  N1376  1  0.609700  0.327900  0.016300  1
  N  N1377  1  0.676500  0.121800  0.217100  1.0
  N  N1378  1  0.823500  0.378200  0.717100  1.0
  N  N1379  1  0.323500  0.878200  0.782900  1.0
  N  N1380  1  0.176500  0.621800  0.282900  1.0
  N  N1381  1  0.696800  0.066330  0.266170  1.0
  N  N1382  1  0.803200  0.433670  0.766170  1.0
  N  N1383  1  0.303200  0.933670  0.733830  1.0
  N  N1384  1  0.196800  0.566330  0.233830  1.0
  N  N1385  1  0.782000  0.624000  0.153200  1.0
  N  N1386  1  0.718000  0.876000  0.653200  1.0
  N  N1387  1  0.218000  0.376000  0.846800  1.0
  N  N1388  1  0.282000  0.124000  0.346800  1.0
  N  N1389  1  0.823200  0.552200  0.145650  1.0
  N  N1390  1  0.676800  0.947800  0.645650  1.0
  N  N1391  1  0.176800  0.447800  0.854350  1.0
  N  N1392  1  0.323200  0.052200  0.354350  1.0
  N  N1393  1  0.651800  0.000200  0.453950  1.0
  N  N1394  1  0.848200  0.499800  0.953950  1.0
  N  N1395  1  0.348200  0.999800  0.546050  1.0
  N  N1396  1  0.151800  0.500200  0.046050  1.0
  N  N1397  1  0.637600  0.975100  0.388360  1.0
  N  N1398  1  0.862400  0.524900  0.888360  1.0
  N  N1399  1  0.362400  0.024900  0.611640  1.0
  N  N1400  1  0.137600  0.475100  0.111640  1.0
  N  N1401  1  0.190900  0.904370  0.338000  1.0
  N  N1402  1  0.309100  0.595630  0.838000  1.0
  N  N1403  1  0.809100  0.095630  0.662000  1.0
  N  N1404  1  0.690900  0.404370  0.162000  1.0
  N  N1405  1  0.148200  0.838410  0.311900  1.0
  N  N1406  1  0.351800  0.661590  0.811900  1.0
  N  N1407  1  0.851800  0.161590  0.688100  1.0
  N  N1408  1  0.648200  0.338410  0.188100  1.0
  N  N1409  1  0.970800  0.410000  0.456000  1.0
  N  N1410  1  0.529200  0.090000  0.956000  1.0
  N  N1411  1  0.029200  0.590000  0.544000  1.0
  N  N1412  1  0.470800  0.910000  0.044000  1.0
  N  N1413  1  0.990600  0.332500  0.437600  1.0
  N  N1414  1  0.509400  0.167500  0.937600  1.0
  N  N1415  1  0.009400  0.667500  0.562400  1.0
  N  N1416  1  0.490600  0.832500  0.062400  1.0
  N  N1417  1  0.317000  0.475200  0.075300  1.0
  N  N1418  1  0.183000  0.024800  0.575300  1.0
  N  N1419  1  0.683000  0.524800  0.924700  1.0
  N  N1420  1  0.817000  0.975200  0.424700  1.0
  N  N1421  1  0.393700  0.441800  0.061700  1.0
  N  N1422  1  0.106300  0.058200  0.561700  1.0
  N  N1423  1  0.606300  0.558200  0.938300  1.0
  N  N1424  1  0.893700  0.941800  0.438300  1.0
  O  O1425  1  0.411000  0.971300  0.424700  1
  O  O1426  1  0.089000  0.528700  0.924700  1
  O  O1427  1  0.589000  0.028700  0.575300  1
  O  O1428  1  0.911000  0.471300  0.075300  1
  O  O1429  1  0.972800  0.483100  0.219600  1
  O  O1430  1  0.527200  0.016900  0.719600  1
  O  O1431  1  0.027200  0.516900  0.780400  1
  O  O1432  1  0.472800  0.983100  0.280400  1
  O  O1433  1  0.013300  0.348200  0.664150  1
  O  O1434  1  0.486700  0.151800  0.164150  1
  O  O1435  1  0.986700  0.651800  0.335850  1
  O  O1436  1  0.513300  0.848200  0.835850  1
  O  O1437  1  0.128000  0.905000  0.500700  1
  O  O1438  1  0.372000  0.595000  0.000700  1
  O  O1439  1  0.872000  0.095000  0.499300  1
  O  O1440  1  0.628000  0.405000  0.999300  1
  O  O1441  1  0.660900  0.533700  0.369800  1
  O  O1442  1  0.839100  0.966300  0.869800  1
  O  O1443  1  0.339100  0.466300  0.630200  1
  O  O1444  1  0.160900  0.033700  0.130200  1
  O  O1445  1  0.364600  0.651100  0.428900  1
  O  O1446  1  0.135400  0.848900  0.928900  1
  O  O1447  1  0.635400  0.348900  0.571100  1
  O  O1448  1  0.864600  0.151100  0.071100  1
  O  O1449  1  0.576700  0.330600  0.393900  1
  O  O1450  1  0.923300  0.169400  0.893900  1
  O  O1451  1  0.423300  0.669400  0.606100  1
  O  O1452  1  0.076700  0.830600  0.106100  1
  O  O1453  1  0.282490  0.451100  0.455000  1
  O  O1454  1  0.217510  0.048900  0.955000  1
  O  O1455  1  0.717510  0.548900  0.545000  1
  O  O1456  1  0.782490  0.951100  0.045000  1
  O  O1457  1  0.685300  0.252300  0.290900  1.0
  O  O1458  1  0.814700  0.247700  0.790900  1.0
  O  O1459  1  0.314700  0.747700  0.709100  1.0
  O  O1460  1  0.185300  0.752300  0.209100  1.0
  O  O1461  1  0.660300  0.311500  0.329300  1.0
  O  O1462  1  0.839700  0.188500  0.829300  1.0
  O  O1463  1  0.339700  0.688500  0.670700  1.0
  O  O1464  1  0.160300  0.811500  0.170700  1.0
  O  O1465  1  0.779900  0.490000  0.257500  1.0
  O  O1466  1  0.720100  0.010000  0.757500  1.0
  O  O1467  1  0.220100  0.510000  0.742500  1.0
  O  O1468  1  0.279900  0.990000  0.242500  1.0
  O  O1469  1  0.723700  0.474200  0.306400  1.0
  O  O1470  1  0.776300  0.025800  0.806400  1.0
  O  O1471  1  0.276300  0.525800  0.693600  1.0
  O  O1472  1  0.223700  0.974200  0.193600  1.0
  O  O1473  1  0.763600  0.637900  0.279000  1.0
  O  O1474  1  0.736400  0.862100  0.779000  1.0
  O  O1475  1  0.236400  0.362100  0.721000  1.0
  O  O1476  1  0.263600  0.137900  0.221000  1.0
  O  O1477  1  0.707600  0.622700  0.326800  1.0
  O  O1478  1  0.792400  0.877300  0.826800  1.0
  O  O1479  1  0.292400  0.377300  0.673200  1.0
  O  O1480  1  0.207600  0.122700  0.173200  1.0
  O  O1481  1  0.679000  0.829300  0.400600  1.0
  O  O1482  1  0.821000  0.670700  0.900600  1.0
  O  O1483  1  0.321000  0.170700  0.599400  1.0
  O  O1484  1  0.179000  0.329300  0.099400  1.0
  O  O1485  1  0.648500  0.754600  0.412100  1.0
  O  O1486  1  0.851500  0.745400  0.912100  1.0
  O  O1487  1  0.351500  0.245400  0.587900  1.0
  O  O1488  1  0.148500  0.254600  0.087900  1.0
  O  O1489  1  0.581100  0.867400  0.417400  1.0
  O  O1490  1  0.918900  0.632600  0.917400  1.0
  O  O1491  1  0.418900  0.132600  0.582600  1.0
  O  O1492  1  0.081100  0.367400  0.082600  1.0
  O  O1493  1  0.549400  0.793400  0.429600  1.0
  O  O1494  1  0.950600  0.706600  0.929600  1.0
  O  O1495  1  0.450600  0.206600  0.570400  1.0
  O  O1496  1  0.049400  0.293400  0.070400  1.0
  O  O1497  1  0.329800  0.807300  0.361400  1.0
  O  O1498  1  0.170200  0.692700  0.861400  1.0
  O  O1499  1  0.670200  0.192700  0.638600  1.0
  O  O1500  1  0.829800  0.307300  0.138600  1.0
  O  O1501  1  0.377900  0.753700  0.390900  1.0
  O  O1502  1  0.122100  0.746300  0.890900  1.0
  O  O1503  1  0.622100  0.246300  0.609100  1.0
  O  O1504  1  0.877900  0.253700  0.109100  1.0
  O  O1505  1  0.201000  0.722000  0.385200  1.0
  O  O1506  1  0.299000  0.778000  0.885200  1.0
  O  O1507  1  0.799000  0.278000  0.614800  1.0
  O  O1508  1  0.701000  0.222000  0.114800  1.0
  O  O1509  1  0.250100  0.667100  0.414600  1.0
  O  O1510  1  0.249900  0.832900  0.914600  1.0
  O  O1511  1  0.749900  0.332900  0.585400  1.0
  O  O1512  1  0.750100  0.167100  0.085400  1.0
  O  O1513  1  0.105400  0.486800  0.414400  1.0
  O  O1514  1  0.394600  0.013200  0.914400  1.0
  O  O1515  1  0.894600  0.513200  0.585600  1.0
  O  O1516  1  0.605400  0.986800  0.085600  1.0
  O  O1517  1  0.185500  0.504200  0.431600  1.0
  O  O1518  1  0.314500  0.995800  0.931600  1.0
  O  O1519  1  0.814500  0.495800  0.568400  1.0
  O  O1520  1  0.685500  0.004200  0.068400  1.0
  O  O1521  1  0.133000  0.339700  0.431600  1.0
  O  O1522  1  0.367000  0.160300  0.931600  1.0
  O  O1523  1  0.867000  0.660300  0.568400  1.0
  O  O1524  1  0.633000  0.839700  0.068400  1.0
  O  O1525  1  0.213300  0.359300  0.449900  1.0
  O  O1526  1  0.286700  0.140700  0.949900  1.0
  O  O1527  1  0.786700  0.640700  0.550100  1.0
  O  O1528  1  0.713300  0.859300  0.050100  1.0
  O  O1529  1  0.292500  0.163100  0.513900  1.0
  O  O1530  1  0.207500  0.336900  0.013900  1.0
  O  O1531  1  0.707500  0.836900  0.486100  1.0
  O  O1532  1  0.792500  0.663100  0.986100  1.0
  O  O1533  1  0.322000  0.235800  0.502800  1.0
  O  O1534  1  0.178000  0.264200  0.002800  1.0
  O  O1535  1  0.678000  0.764200  0.497200  1.0
  O  O1536  1  0.822000  0.735800  0.997200  1.0
  O  O1537  1  0.392000  0.122100  0.496100  1.0
  O  O1538  1  0.108000  0.377900  0.996100  1.0
  O  O1539  1  0.608000  0.877900  0.503900  1.0
  O  O1540  1  0.892000  0.622100  0.003900  1.0
  O  O1541  1  0.422200  0.195900  0.484600  1.0
  O  O1542  1  0.077800  0.304100  0.984600  1.0
  O  O1543  1  0.577800  0.804100  0.515400  1.0
  O  O1544  1  0.922200  0.695900  0.015400  1.0
  O  O1545  1  0.575500  0.160400  0.342200  1.0
  O  O1546  1  0.924500  0.339600  0.842200  1.0
  O  O1547  1  0.424500  0.839600  0.657800  1.0
  O  O1548  1  0.075500  0.660400  0.157800  1.0
  O  O1549  1  0.549300  0.221500  0.380300  1.0
  O  O1550  1  0.950700  0.278500  0.880300  1.0
  O  O1551  1  0.450700  0.778500  0.619700  1.0
  O  O1552  1  0.049300  0.721500  0.119700  1.0
  O  O1553  1  0.579800  0.223600  0.270400  1.0
  O  O1554  1  0.920200  0.276400  0.770400  1.0
  O  O1555  1  0.420200  0.776400  0.729600  1.0
  O  O1556  1  0.079800  0.723600  0.229600  1.0
  O  O1557  1  0.555100  0.285300  0.308500  1.0
  O  O1558  1  0.944900  0.214700  0.808500  1.0
  O  O1559  1  0.444900  0.714700  0.691500  1.0
  O  O1560  1  0.055100  0.785300  0.191500  1.0
  O  O1561  1  0.425500  0.402500  0.186500  1.0
  O  O1562  1  0.074500  0.097500  0.686500  1.0
  O  O1563  1  0.574500  0.597500  0.813500  1.0
  O  O1564  1  0.925500  0.902500  0.313500  1.0
  O  O1565  1  0.448700  0.407100  0.251600  1.0
  O  O1566  1  0.051300  0.092900  0.751600  1.0
  O  O1567  1  0.551300  0.592900  0.748400  1.0
  O  O1568  1  0.948700  0.907100  0.248400  1.0
  O  O1569  1  0.363500  0.538800  0.194800  1.0
  O  O1570  1  0.136500  0.961200  0.694800  1.0
  O  O1571  1  0.636500  0.461200  0.805200  1.0
  O  O1572  1  0.863500  0.038800  0.305200  1.0
  O  O1573  1  0.386900  0.544400  0.260100  1.0
  O  O1574  1  0.113100  0.955600  0.760100  1.0
  O  O1575  1  0.613100  0.455600  0.739900  1.0
  O  O1576  1  0.886900  0.044400  0.239900  1.0
  O  O1577  1  0.274800  0.730800  0.316300  1.0
  O  O1578  1  0.225200  0.769200  0.816300  1.0
  O  O1579  1  0.725200  0.269200  0.683700  1.0
  O  O1580  1  0.774800  0.230800  0.183700  1.0
  O  O1581  1  0.322100  0.676100  0.344400  1.0
  O  O1582  1  0.177900  0.823900  0.844400  1.0
  O  O1583  1  0.677900  0.323900  0.655600  1.0
  O  O1584  1  0.822100  0.176100  0.155600  1.0
  O  O1585  1  0.257900  0.798900  0.428500  1.0
  O  O1586  1  0.242100  0.701100  0.928500  1.0
  O  O1587  1  0.742100  0.201100  0.571500  1.0
  O  O1588  1  0.757900  0.298900  0.071500  1.0
  O  O1589  1  0.304300  0.743300  0.458000  1.0
  O  O1590  1  0.195700  0.756700  0.958000  1.0
  O  O1591  1  0.695700  0.256700  0.542000  1.0
  O  O1592  1  0.804300  0.243300  0.042000  1.0
  O  O1593  1  0.319900  0.814800  0.637800  1.0
  O  O1594  1  0.180100  0.685200  0.137800  1.0
  O  O1595  1  0.680100  0.185200  0.362200  1.0
  O  O1596  1  0.819900  0.314800  0.862200  1.0
  O  O1597  1  0.346400  0.755400  0.598700  1.0
  O  O1598  1  0.153600  0.744600  0.098700  1.0
  O  O1599  1  0.653600  0.244600  0.401300  1.0
  O  O1600  1  0.846400  0.255400  0.901300  1.0
  O  O1601  1  0.171300  0.436900  0.689400  1.0
  O  O1602  1  0.328700  0.063100  0.189400  1.0
  O  O1603  1  0.828700  0.563100  0.310600  1.0
  O  O1604  1  0.671300  0.936900  0.810600  1.0
  O  O1605  1  0.226700  0.450700  0.641300  1.0
  O  O1606  1  0.273300  0.049300  0.141300  1.0
  O  O1607  1  0.773300  0.549300  0.358700  1.0
  O  O1608  1  0.726700  0.950700  0.858700  1.0
  O  O1609  1  0.099500  0.420000  0.482300  1.0
  O  O1610  1  0.400500  0.080000  0.982300  1.0
  O  O1611  1  0.900500  0.580000  0.517700  1.0
  O  O1612  1  0.599500  0.920000  0.017700  1.0
  O  O1613  1  0.178100  0.437400  0.499100  1.0
  O  O1614  1  0.321900  0.062600  0.999100  1.0
  O  O1615  1  0.821900  0.562600  0.500900  1.0
  O  O1616  1  0.678100  0.937400  0.000900  1.0
  O  O1617  1  0.142500  0.407300  0.361300  1.0
  O  O1618  1  0.357500  0.092700  0.861300  1.0
  O  O1619  1  0.857500  0.592700  0.638700  1.0
  O  O1620  1  0.642500  0.907300  0.138700  1.0
  O  O1621  1  0.220400  0.426500  0.379200  1.0
  O  O1622  1  0.279600  0.073500  0.879200  1.0
  O  O1623  1  0.779600  0.573500  0.620800  1.0
  O  O1624  1  0.720400  0.926500  0.120800  1.0
  O  O1625  1  0.324500  0.441500  0.207900  1.0
  O  O1626  1  0.175500  0.058500  0.707900  1.0
  O  O1627  1  0.675500  0.558500  0.792100  1.0
  O  O1628  1  0.824500  0.941500  0.292100  1.0
  O  O1629  1  0.348300  0.447400  0.272600  1.0
  O  O1630  1  0.151700  0.052600  0.772600  1.0
  O  O1631  1  0.651700  0.552600  0.727400  1.0
  O  O1632  1  0.848300  0.947400  0.227400  1.0
  O  O1633  1  0.462900  0.501400  0.172100  1.0
  O  O1634  1  0.037100  0.998600  0.672100  1.0
  O  O1635  1  0.537100  0.498600  0.827900  1.0
  O  O1636  1  0.962900  0.001400  0.327900  1.0
  O  O1637  1  0.486300  0.505400  0.237800  1.0
  O  O1638  1  0.013700  0.994600  0.737800  1.0
  O  O1639  1  0.513700  0.494600  0.762200  1.0
  O  O1640  1  0.986300  0.005400  0.262200  1.0
  O  O1641  1  0.713700  0.563500  0.225400  1.0
  O  O1642  1  0.786300  0.936500  0.725400  1.0
  O  O1643  1  0.286300  0.436500  0.774600  1.0
  O  O1644  1  0.213700  0.063500  0.274600  1.0
  O  O1645  1  0.658000  0.549000  0.273900  1.0
  O  O1646  1  0.842000  0.951000  0.773900  1.0
  O  O1647  1  0.342000  0.451000  0.726100  1.0
  O  O1648  1  0.158000  0.049000  0.226100  1.0
  O  O1649  1  0.661200  0.136600  0.282980  1.0
  O  O1650  1  0.838800  0.363400  0.782980  1.0
  O  O1651  1  0.338800  0.863400  0.717020  1.0
  O  O1652  1  0.161200  0.636600  0.217020  1.0
  O  O1653  1  0.816400  0.587100  0.206980  1.0
  O  O1654  1  0.683600  0.912900  0.706980  1.0
  O  O1655  1  0.183600  0.412900  0.793020  1.0
  O  O1656  1  0.316400  0.087100  0.293020  1.0
  O  O1657  1  0.675800  0.926700  0.433200  1.0
  O  O1658  1  0.824200  0.573300  0.933200  1.0
  O  O1659  1  0.324200  0.073300  0.566800  1.0
  O  O1660  1  0.175800  0.426700  0.066800  1.0
  O  O1661  1  0.216200  0.828890  0.351500  1.0
  O  O1662  1  0.283800  0.671110  0.851500  1.0
  O  O1663  1  0.783800  0.171110  0.648500  1.0
  O  O1664  1  0.716200  0.328890  0.148500  1.0
  O  O1665  1  0.032900  0.396300  0.411400  1.0
  O  O1666  1  0.467100  0.103700  0.911400  1.0
  O  O1667  1  0.967100  0.603700  0.588600  1.0
  O  O1668  1  0.532900  0.896300  0.088600  1.0
  O  O1669  1  0.375200  0.468400  0.124400  1.0
  O  O1670  1  0.124800  0.031600  0.624400  1.0
  O  O1671  1  0.624800  0.531600  0.875600  1.0
  O  O1672  1  0.875200  0.968400  0.375600  1.0
