# generated using pymatgen
data_Mo12H210C173O59
_symmetry_space_group_name_H-M   'P 1'
_cell_length_a   25.64860000
_cell_length_b   25.68200000
_cell_length_c   29.18100000
_cell_angle_alpha   65.48100000
_cell_angle_beta   63.98200000
_cell_angle_gamma   86.86500000
_symmetry_Int_Tables_number   1
_chemical_formula_structural   Mo12H210C173O59
_chemical_formula_sum   'Mo24 H420 C346 O118'
_cell_volume   15524.24572847
_cell_formula_units_Z   2
loop_
 _symmetry_equiv_pos_site_id
 _symmetry_equiv_pos_as_xyz
  1  'x, y, z'
loop_
 _atom_site_type_symbol
 _atom_site_label
 _atom_site_symmetry_multiplicity
 _atom_site_fract_x
 _atom_site_fract_y
 _atom_site_fract_z
 _atom_site_occupancy
  Mo  Mo1  1  0.501610  0.122600  0.842340  1.0
  Mo  Mo2  1  0.498390  0.877400  0.157660  1.0
  Mo  Mo3  1  0.500750  0.196860  0.774630  1.0
  Mo  Mo4  1  0.499250  0.803140  0.225370  1.0
  Mo  Mo5  1  0.898130  0.326270  0.455720  1.0
  Mo  Mo6  1  0.101870  0.673730  0.544280  1.0
  Mo  Mo7  1  0.820780  0.363450  0.464200  1.0
  Mo  Mo8  1  0.179220  0.636550  0.535800  1.0
  Mo  Mo9  1  0.892330  0.695890  0.111080  1.0
  Mo  Mo10  1  0.107670  0.304110  0.888920  1.0
  Mo  Mo11  1  0.815220  0.657460  0.189280  1.0
  Mo  Mo12  1  0.184780  0.342540  0.810720  1.0
  Mo  Mo13  1  0.724930  0.913320  0.377070  1.0
  Mo  Mo14  1  0.275070  0.086680  0.622930  1.0
  Mo  Mo15  1  0.680100  0.832620  0.400940  1.0
  Mo  Mo16  1  0.319900  0.167380  0.599060  1.0
  Mo  Mo17  1  0.328850  0.718430  0.761350  1.0
  Mo  Mo18  1  0.671150  0.281570  0.238650  1.0
  Mo  Mo19  1  0.363810  0.676010  0.708190  1.0
  Mo  Mo20  1  0.636190  0.323990  0.291810  1.0
  Mo  Mo21  1  0.720490  0.535220  0.725230  1.0
  Mo  Mo22  1  0.279510  0.464780  0.274770  1.0
  Mo  Mo23  1  0.678730  0.528430  0.679040  1.0
  Mo  Mo24  1  0.321270  0.471570  0.320960  1.0
  H  H25  1  0.871400  0.029200  0.676900  1
  H  H26  1  0.128600  0.970800  0.323100  1
  H  H27  1  0.870900  0.096200  0.663600  1
  H  H28  1  0.129100  0.903800  0.336400  1
  H  H29  1  0.860800  0.072800  0.624700  1
  H  H30  1  0.139200  0.927200  0.375300  1
  H  H31  1  0.779400  0.965100  0.714200  1
  H  H32  1  0.220600  0.034900  0.285800  1
  H  H33  1  0.768400  0.008900  0.662400  1
  H  H34  1  0.231600  0.991100  0.337600  1
  H  H35  1  0.718600  0.990000  0.726100  1
  H  H36  1  0.281400  0.010000  0.273900  1
  H  H37  1  0.795700  0.999400  0.774900  1
  H  H38  1  0.204300  0.000600  0.225100  1
  H  H39  1  0.734600  0.023900  0.788500  1
  H  H40  1  0.265400  0.976100  0.211500  1
  H  H41  1  0.793800  0.065700  0.764300  1
  H  H42  1  0.206200  0.934300  0.235700  1
  H  H43  1  0.807600  0.993200  0.881000  1
  H  H44  1  0.192400  0.006800  0.119000  1
  H  H45  1  0.805600  0.974700  0.941400  1
  H  H46  1  0.194400  0.025300  0.058600  1
  H  H47  1  0.745800  0.974400  0.936700  1
  H  H48  1  0.254200  0.025600  0.063300  1
  H  H49  1  0.778600  0.920900  0.858200  1
  H  H50  1  0.221400  0.079100  0.141800  1
  H  H51  1  0.716700  0.900300  0.914100  1
  H  H52  1  0.283300  0.099700  0.085900  1
  H  H53  1  0.758800  0.854000  0.902800  1
  H  H54  1  0.241200  0.146000  0.097200  1
  H  H55  1  0.871700  0.921700  0.864900  1
  H  H56  1  0.128300  0.078300  0.135100  1
  H  H57  1  0.852300  0.854600  0.908900  1
  H  H58  1  0.147700  0.145400  0.091100  1
  H  H59  1  0.870500  0.900600  0.925300  1
  H  H60  1  0.129500  0.099400  0.074700  1
  H  H61  1  0.593100  0.235500  0.034900  1
  H  H62  1  0.406900  0.764500  0.965100  1
  H  H63  1  0.548900  0.239800  0.008700  1
  H  H64  1  0.451100  0.760200  0.991300  1
  H  H65  1  0.591000  0.296600  0.989200  1
  H  H66  1  0.409000  0.703400  0.010800  1
  H  H67  1  0.699800  0.245900  0.976800  1
  H  H68  1  0.300200  0.754100  0.023200  1
  H  H69  1  0.699300  0.307100  0.930200  1
  H  H70  1  0.300700  0.692900  0.069800  1
  H  H71  1  0.726400  0.257100  0.912000  1
  H  H72  1  0.273600  0.742900  0.088000  1
  H  H73  1  0.634800  0.158500  0.006800  1
  H  H74  1  0.365200  0.841500  0.993200  1
  H  H75  1  0.660700  0.168600  0.942400  1
  H  H76  1  0.339300  0.831400  0.057600  1
  H  H77  1  0.591300  0.161800  0.980000  1
  H  H78  1  0.408700  0.838200  0.020000  1
  H  H79  1  0.563400  0.690900  0.918200  1
  H  H80  1  0.436600  0.309100  0.081800  1
  H  H81  1  0.572900  0.721000  0.854200  1
  H  H82  1  0.427100  0.279000  0.145800  1
  H  H83  1  0.597200  0.661600  0.876500  1
  H  H84  1  0.402800  0.338400  0.123500  1
  H  H85  1  0.456000  0.693500  0.951200  1
  H  H86  1  0.544000  0.306500  0.048800  1
  H  H87  1  0.420400  0.664100  0.932400  1
  H  H88  1  0.579600  0.335900  0.067600  1
  H  H89  1  0.466400  0.722300  0.887000  1
  H  H90  1  0.533600  0.277700  0.113000  1
  H  H91  1  0.493200  0.602800  0.988600  1
  H  H92  1  0.506800  0.397200  0.011400  1
  H  H93  1  0.524900  0.569700  0.950100  1
  H  H94  1  0.475100  0.430300  0.049900  1
  H  H95  1  0.456000  0.571800  0.972500  1
  H  H96  1  0.544000  0.428200  0.027500  1
  H  H97  1  0.948400  0.149800  0.231100  1
  H  H98  1  0.051600  0.850200  0.768900  1
  H  H99  1  0.945400  0.217000  0.215700  1
  H  H100  1  0.054600  0.783000  0.784300  1
  H  H101  1  0.888400  0.174400  0.236200  1
  H  H102  1  0.111600  0.825600  0.763800  1
  H  H103  1  0.898000  0.075800  0.329600  1
  H  H104  1  0.102000  0.924200  0.670400  1
  H  H105  1  0.836900  0.099000  0.337100  1
  H  H106  1  0.163100  0.901000  0.662900  1
  H  H107  1  0.861800  0.093500  0.380200  1
  H  H108  1  0.138200  0.906500  0.619800  1
  H  H109  1  0.985800  0.142300  0.298000  1
  H  H110  1  0.014200  0.857700  0.702000  1
  H  H111  1  0.949800  0.160600  0.348200  1
  H  H112  1  0.050200  0.839400  0.651800  1
  H  H113  1  0.982500  0.209200  0.284100  1
  H  H114  1  0.017500  0.790800  0.715900  1
  H  H115  1  0.770100  0.492000  0.187800  1
  H  H116  1  0.229900  0.508000  0.812200  1
  H  H117  1  0.063900  0.962300  0.052000  1
  H  H118  1  0.936100  0.037700  0.948000  1
  H  H119  1  0.004400  0.941500  0.054900  1
  H  H120  1  0.995600  0.058500  0.945100  1
  H  H121  1  0.037300  0.894900  0.084400  1
  H  H122  1  0.962700  0.105100  0.915600  1
  H  H123  1  0.065900  0.959600  0.136200  1
  H  H124  1  0.934100  0.040400  0.863800  1
  H  H125  1  0.040100  0.891900  0.170300  1
  H  H126  1  0.959900  0.108100  0.829700  1
  H  H127  1  0.007900  0.935700  0.195900  1
  H  H128  1  0.992100  0.064300  0.804100  1
  H  H129  1  0.013600  0.029900  0.091900  1
  H  H130  1  0.986400  0.970100  0.908100  1
  H  H131  1  0.954500  0.006500  0.150600  1
  H  H132  1  0.045500  0.993500  0.849400  1
  H  H133  1  0.954000  0.009000  0.095100  1
  H  H134  1  0.046000  0.991000  0.904900  1
  H  H135  1  0.007900  0.507700  0.950200  1
  H  H136  1  0.992100  0.492300  0.049800  1
  H  H137  1  0.992500  0.534500  0.993200  1
  H  H138  1  0.007500  0.465500  0.006800  1
  H  H139  1  0.981200  0.467100  0.015300  1
  H  H140  1  0.018800  0.532900  0.984700  1
  H  H141  1  0.936800  0.447000  0.949900  1
  H  H142  1  0.063200  0.553000  0.050100  1
  H  H143  1  0.909100  0.405900  0.015000  1
  H  H144  1  0.090900  0.594100  0.985000  1
  H  H145  1  0.941200  0.553200  0.909900  1
  H  H146  1  0.058800  0.446800  0.090100  1
  H  H147  1  0.875100  0.552400  0.948900  1
  H  H148  1  0.124900  0.447600  0.051100  1
  H  H149  1  0.925000  0.580800  0.952400  1
  H  H150  1  0.075000  0.419200  0.047600  1
  H  H151  1  0.174900  0.586800  0.917000  1
  H  H152  1  0.825100  0.413200  0.083000  1
  H  H153  1  0.092400  0.430100  0.963100  1
  H  H154  1  0.907600  0.569900  0.036900  1
  H  H155  1  0.129500  0.555200  0.010600  1
  H  H156  1  0.870500  0.444800  0.989400  1
  H  H157  1  0.678200  0.070400  0.751800  1.0
  H  H158  1  0.321800  0.929600  0.248200  1.0
  H  H159  1  0.830200  0.151900  0.608100  1.0
  H  H160  1  0.169800  0.848100  0.391900  1.0
  H  H161  1  0.685900  0.231200  0.636000  1.0
  H  H162  1  0.314100  0.768800  0.364000  1.0
  H  H163  1  0.857100  0.012900  0.664600  1.0
  H  H164  1  0.142900  0.987100  0.335400  1.0
  H  H165  1  0.867900  0.082000  0.630300  1.0
  H  H166  1  0.132100  0.918000  0.369700  1.0
  H  H167  1  0.824500  0.043100  0.626500  1.0
  H  H168  1  0.175500  0.956900  0.373500  1.0
  H  H169  1  0.761200  0.961300  0.747800  1.0
  H  H170  1  0.238800  0.038700  0.252200  1.0
  H  H171  1  0.728400  0.991300  0.709900  1.0
  H  H172  1  0.271600  0.008700  0.290100  1.0
  H  H173  1  0.709300  0.996600  0.767700  1.0
  H  H174  1  0.290700  0.003400  0.232300  1.0
  H  H175  1  0.828300  0.019700  0.754000  1.0
  H  H176  1  0.171700  0.980300  0.246000  1.0
  H  H177  1  0.777600  0.055900  0.774600  1.0
  H  H178  1  0.222400  0.944100  0.225400  1.0
  H  H179  1  0.839600  0.088900  0.721000  1.0
  H  H180  1  0.160400  0.911100  0.279000  1.0
  H  H181  1  0.036200  0.467400  0.287800  1.0
  H  H182  1  0.963800  0.532600  0.712200  1.0
  H  H183  1  0.033000  0.607600  0.156600  1.0
  H  H184  1  0.967000  0.392400  0.843400  1.0
  H  H185  1  0.881600  0.522200  0.299600  1.0
  H  H186  1  0.118400  0.477800  0.700400  1.0
  H  H187  1  0.183100  0.552900  0.197300  1.0
  H  H188  1  0.816900  0.447100  0.802700  1.0
  H  H189  1  0.125800  0.516600  0.255600  1.0
  H  H190  1  0.874200  0.483400  0.744400  1.0
  H  H191  1  0.131300  0.585400  0.223400  1.0
  H  H192  1  0.868700  0.414600  0.776600  1.0
  H  H193  1  0.169000  0.490200  0.157100  1.0
  H  H194  1  0.831000  0.509800  0.842900  1.0
  H  H195  1  0.108200  0.482100  0.155900  1.0
  H  H196  1  0.891800  0.517900  0.844100  1.0
  H  H197  1  0.111300  0.453700  0.214800  1.0
  H  H198  1  0.888700  0.546300  0.785200  1.0
  H  H199  1  0.178500  0.596600  0.106900  1.0
  H  H200  1  0.821500  0.403400  0.893100  1.0
  H  H201  1  0.126600  0.630000  0.131100  1.0
  H  H202  1  0.873400  0.370000  0.868900  1.0
  H  H203  1  0.118100  0.589400  0.104700  1.0
  H  H204  1  0.881900  0.410600  0.895300  1.0
  H  H205  1  0.824300  0.821100  0.994400  1.0
  H  H206  1  0.175700  0.178900  0.005600  1.0
  H  H207  1  0.676200  0.892900  0.011100  1.0
  H  H208  1  0.323800  0.107100  0.988900  1.0
  H  H209  1  0.681000  0.763100  0.148100  1.0
  H  H210  1  0.319000  0.236900  0.851900  1.0
  H  H211  1  0.856600  0.972500  0.878500  1.0
  H  H212  1  0.143400  0.027500  0.121500  1.0
  H  H213  1  0.864700  0.923900  0.930300  1.0
  H  H214  1  0.135300  0.076100  0.069700  1.0
  H  H215  1  0.819800  0.968400  0.940900  1.0
  H  H216  1  0.180200  0.031600  0.059100  1.0
  H  H217  1  0.766400  0.966500  0.870300  1.0
  H  H218  1  0.233600  0.033500  0.129700  1.0
  H  H219  1  0.727000  0.961700  0.932700  1.0
  H  H220  1  0.273000  0.038300  0.067300  1.0
  H  H221  1  0.713900  0.913500  0.916200  1.0
  H  H222  1  0.286100  0.086500  0.083800  1.0
  H  H223  1  0.835300  0.896700  0.855200  1.0
  H  H224  1  0.164700  0.103300  0.144800  1.0
  H  H225  1  0.783100  0.843600  0.901600  1.0
  H  H226  1  0.216900  0.156400  0.098400  1.0
  H  H227  1  0.841800  0.847200  0.907500  1.0
  H  H228  1  0.158200  0.152800  0.092500  1.0
  H  H229  1  0.577400  0.022800  0.168200  1.0
  H  H230  1  0.422600  0.977200  0.831800  1.0
  H  H231  1  0.665000  0.038000  0.249800  1.0
  H  H232  1  0.335000  0.962000  0.750200  1.0
  H  H233  1  0.594700  0.879200  0.287400  1.0
  H  H234  1  0.405300  0.120800  0.712600  1.0
  H  H235  1  0.622800  0.176800  0.189600  1.0
  H  H236  1  0.377200  0.823200  0.810400  1.0
  H  H237  1  0.632700  0.122200  0.236100  1.0
  H  H238  1  0.367300  0.877800  0.763900  1.0
  H  H239  1  0.571100  0.122900  0.234500  1.0
  H  H240  1  0.428900  0.877100  0.765500  1.0
  H  H241  1  0.711200  0.168100  0.113500  1.0
  H  H242  1  0.288800  0.831900  0.886500  1.0
  H  H243  1  0.718000  0.108700  0.107400  1.0
  H  H244  1  0.282000  0.891300  0.892600  1.0
  H  H245  1  0.722300  0.113100  0.158800  1.0
  H  H246  1  0.277700  0.886900  0.841200  1.0
  H  H247  1  0.616000  0.169100  0.110900  1.0
  H  H248  1  0.384000  0.830900  0.889100  1.0
  H  H249  1  0.564600  0.114800  0.154500  1.0
  H  H250  1  0.435400  0.885200  0.845500  1.0
  H  H251  1  0.622200  0.109700  0.104800  1.0
  H  H252  1  0.377800  0.890300  0.895200  1.0
  H  H253  1  0.820600  0.862300  0.484600  1.0
  H  H254  1  0.179400  0.137700  0.515400  1.0
  H  H255  1  0.817700  0.719600  0.617200  1.0
  H  H256  1  0.182300  0.280400  0.382800  1.0
  H  H257  1  0.723200  0.710300  0.539400  1.0
  H  H258  1  0.276800  0.289700  0.460600  1.0
  H  H259  1  0.913800  0.819000  0.600900  1.0
  H  H260  1  0.086200  0.181000  0.399100  1.0
  H  H261  1  0.913300  0.769700  0.580900  1.0
  H  H262  1  0.086700  0.230300  0.419100  1.0
  H  H263  1  0.857100  0.770500  0.634400  1.0
  H  H264  1  0.142900  0.229500  0.365600  1.0
  H  H265  1  0.853500  0.896300  0.587000  1.0
  H  H266  1  0.146500  0.103700  0.413000  1.0
  H  H267  1  0.795700  0.849200  0.620500  1.0
  H  H268  1  0.204300  0.150800  0.379500  1.0
  H  H269  1  0.812500  0.898400  0.558000  1.0
  H  H270  1  0.187500  0.101600  0.442000  1.0
  H  H271  1  0.939500  0.894700  0.504600  1.0
  H  H272  1  0.060500  0.105300  0.495400  1.0
  H  H273  1  0.899600  0.896400  0.474600  1.0
  H  H274  1  0.100400  0.103600  0.525400  1.0
  H  H275  1  0.939100  0.846200  0.483700  1.0
  H  H276  1  0.060900  0.153800  0.516300  1.0
  H  H277  1  0.667600  0.354100  0.869900  1.0
  H  H278  1  0.332400  0.645900  0.130100  1.0
  H  H279  1  0.584200  0.198900  0.913400  1.0
  H  H280  1  0.415800  0.801100  0.086600  1.0
  H  H281  1  0.595900  0.340400  0.775400  1.0
  H  H282  1  0.404100  0.659600  0.224600  1.0
  H  H283  1  0.674200  0.173700  0.986200  1.0
  H  H284  1  0.325800  0.826300  0.013800  1.0
  H  H285  1  0.708700  0.207000  0.918500  1.0
  H  H286  1  0.291300  0.793000  0.081500  1.0
  H  H287  1  0.648600  0.163900  0.948800  1.0
  H  H288  1  0.351400  0.836100  0.051200  1.0
  H  H289  1  0.672600  0.266200  0.993200  1.0
  H  H290  1  0.327400  0.733800  0.006800  1.0
  H  H291  1  0.646100  0.317800  0.960300  1.0
  H  H292  1  0.353900  0.682200  0.039700  1.0
  H  H293  1  0.707200  0.301000  0.925700  1.0
  H  H294  1  0.292800  0.699000  0.074300  1.0
  H  H295  1  0.580200  0.199800  0.039500  1.0
  H  H296  1  0.419800  0.800200  0.960500  1.0
  H  H297  1  0.553500  0.190400  0.002700  1.0
  H  H298  1  0.446500  0.809600  0.997300  1.0
  H  H299  1  0.552500  0.250500  0.007200  1.0
  H  H300  1  0.447500  0.749500  0.992800  1.0
  H  H301  1  0.436800  0.670000  0.857700  1.0
  H  H302  1  0.563200  0.330000  0.142300  1.0
  H  H303  1  0.583900  0.597500  0.845300  1.0
  H  H304  1  0.416100  0.402500  0.154700  1.0
  H  H305  1  0.513400  0.604300  0.743200  1.0
  H  H306  1  0.486600  0.395700  0.256800  1.0
  H  H307  1  0.447900  0.627100  0.989800  1.0
  H  H308  1  0.552100  0.372900  0.010200  1.0
  H  H309  1  0.445000  0.577500  0.970900  1.0
  H  H310  1  0.555000  0.422500  0.029100  1.0
  H  H311  1  0.416000  0.634300  0.951700  1.0
  H  H312  1  0.584000  0.365700  0.048300  1.0
  H  H313  1  0.554400  0.637100  0.950500  1.0
  H  H314  1  0.445600  0.362900  0.049500  1.0
  H  H315  1  0.595100  0.649000  0.886000  1.0
  H  H316  1  0.404900  0.351000  0.114000  1.0
  H  H317  1  0.555700  0.587000  0.931200  1.0
  H  H318  1  0.444300  0.413000  0.068800  1.0
  H  H319  1  0.509600  0.723500  0.917600  1.0
  H  H320  1  0.490400  0.276500  0.082400  1.0
  H  H321  1  0.477600  0.728600  0.879900  1.0
  H  H322  1  0.522400  0.271400  0.120100  1.0
  H  H323  1  0.547700  0.735000  0.852800  1.0
  H  H324  1  0.452300  0.265000  0.147200  1.0
  H  H325  1  0.898300  0.479200  0.644900  1.0
  H  H326  1  0.101700  0.520800  0.355100  1.0
  H  H327  1  0.962900  0.392500  0.547900  1.0
  H  H328  1  0.037100  0.607500  0.452100  1.0
  H  H329  1  0.806300  0.449000  0.573200  1.0
  H  H330  1  0.193700  0.551000  0.426800  1.0
  H  H331  1  0.011400  0.390200  0.675600  1.0
  H  H332  1  0.988600  0.609800  0.324400  1.0
  H  H333  1  0.960500  0.353000  0.679200  1.0
  H  H334  1  0.039500  0.647000  0.320800  1.0
  H  H335  1  0.946700  0.406900  0.694400  1.0
  H  H336  1  0.053300  0.593100  0.305600  1.0
  H  H337  1  0.052600  0.489900  0.600400  1.0
  H  H338  1  0.947400  0.510100  0.399600  1.0
  H  H339  1  0.988300  0.507700  0.618200  1.0
  H  H340  1  0.011700  0.492300  0.381800  1.0
  H  H341  1  0.029300  0.518400  0.554000  1.0
  H  H342  1  0.970700  0.481600  0.446000  1.0
  H  H343  1  0.074400  0.406700  0.577000  1.0
  H  H344  1  0.925600  0.593300  0.423000  1.0
  H  H345  1  0.051700  0.434500  0.530200  1.0
  H  H346  1  0.948300  0.565500  0.469800  1.0
  H  H347  1  0.024700  0.369800  0.578800  1.0
  H  H348  1  0.975300  0.630200  0.421200  1.0
  H  H349  1  0.904100  0.224400  0.360400  1.0
  H  H350  1  0.095900  0.775600  0.639600  1.0
  H  H351  1  0.815400  0.202600  0.282300  1.0
  H  H352  1  0.184600  0.797400  0.717700  1.0
  H  H353  1  0.762700  0.304600  0.364500  1.0
  H  H354  1  0.237300  0.695400  0.635500  1.0
  H  H355  1  0.994700  0.165300  0.258400  1.0
  H  H356  1  0.005300  0.834700  0.741600  1.0
  H  H357  1  0.980800  0.203600  0.292600  1.0
  H  H358  1  0.019200  0.796400  0.707400  1.0
  H  H359  1  0.975900  0.227600  0.234800  1.0
  H  H360  1  0.024100  0.772400  0.765200  1.0
  H  H361  1  0.922100  0.083400  0.344500  1.0
  H  H362  1  0.077900  0.916600  0.655500  1.0
  H  H363  1  0.855900  0.092200  0.377200  1.0
  H  H364  1  0.144100  0.907800  0.622800  1.0
  H  H365  1  0.907900  0.121500  0.379100  1.0
  H  H366  1  0.092100  0.878500  0.620900  1.0
  H  H367  1  0.915400  0.119400  0.255200  1.0
  H  H368  1  0.084600  0.880600  0.744800  1.0
  H  H369  1  0.895700  0.181000  0.230800  1.0
  H  H370  1  0.104300  0.819000  0.769200  1.0
  H  H371  1  0.848800  0.128100  0.286400  1.0
  H  H372  1  0.151200  0.871900  0.713600  1.0
  H  H373  1  0.958800  0.848800  0.122900  1.0
  H  H374  1  0.041200  0.151200  0.877100  1.0
  H  H375  1  0.896400  0.929600  0.225600  1.0
  H  H376  1  0.103600  0.070400  0.774400  1.0
  H  H377  1  0.801800  0.783100  0.263800  1.0
  H  H378  1  0.198200  0.216900  0.736200  1.0
  H  H379  1  0.037200  0.997900  0.045400  1.0
  H  H380  1  0.962800  0.002100  0.954600  1.0
  H  H381  1  0.967600  0.989900  0.068100  1.0
  H  H382  1  0.032400  0.010100  0.931900  1.0
  H  H383  1  0.003600  0.940500  0.055400  1.0
  H  H384  1  0.996400  0.059500  0.944600  1.0
  H  H385  1  0.080900  0.939500  0.107100  1.0
  H  H386  1  0.919100  0.060500  0.892900  1.0
  H  H387  1  0.048700  0.881500  0.116800  1.0
  H  H388  1  0.951300  0.118500  0.883200  1.0
  H  H389  1  0.040200  0.891600  0.170100  1.0
  H  H390  1  0.959800  0.108400  0.829900  1.0
  H  H391  1  0.025200  0.014600  0.127000  1.0
  H  H392  1  0.974800  0.985400  0.873000  1.0
  H  H393  1  0.982600  0.968700  0.190400  1.0
  H  H394  1  0.017400  0.031300  0.809600  1.0
  H  H395  1  0.955600  0.007400  0.149500  1.0
  H  H396  1  0.044400  0.992600  0.850500  1.0
  H  H397  1  0.592100  0.971300  0.505300  1.0
  H  H398  1  0.407900  0.028700  0.494700  1.0
  H  H399  1  0.439100  0.899200  0.649900  1.0
  H  H400  1  0.560900  0.100800  0.350100  1.0
  H  H401  1  0.516700  0.808800  0.558600  1.0
  H  H402  1  0.483300  0.191200  0.441400  1.0
  H  H403  1  0.525100  0.023500  0.641900  1.0
  H  H404  1  0.474900  0.976500  0.358100  1.0
  H  H405  1  0.567800  0.979400  0.625600  1.0
  H  H406  1  0.432200  0.020600  0.374400  1.0
  H  H407  1  0.500200  0.955900  0.671100  1.0
  H  H408  1  0.499800  0.044100  0.328900  1.0
  H  H409  1  0.448000  0.048100  0.611000  1.0
  H  H410  1  0.552000  0.951900  0.389000  1.0
  H  H411  1  0.421900  0.980900  0.640000  1.0
  H  H412  1  0.578100  0.019100  0.360000  1.0
  H  H413  1  0.439300  0.020000  0.574600  1.0
  H  H414  1  0.560700  0.980000  0.425400  1.0
  H  H415  1  0.552000  0.083900  0.541000  1.0
  H  H416  1  0.448000  0.916100  0.459000  1.0
  H  H417  1  0.545000  0.056200  0.503600  1.0
  H  H418  1  0.455000  0.943800  0.496400  1.0
  H  H419  1  0.595000  0.040500  0.523700  1.0
  H  H420  1  0.405000  0.959500  0.476300  1.0
  H  H421  1  0.241300  0.505800  0.814800  1.0
  H  H422  1  0.758700  0.494200  0.185200  1.0
  H  H423  1  0.216900  0.563700  0.927500  1.0
  H  H424  1  0.783100  0.436300  0.072500  1.0
  H  H425  1  0.128000  0.407900  0.979600  1.0
  H  H426  1  0.872000  0.592100  0.020400  1.0
  H  H427  1  0.182600  0.473900  0.074700  1.0
  H  H428  1  0.817400  0.526100  0.925300  1.0
  H  H429  1  0.220100  0.517400  0.010900  1.0
  H  H430  1  0.779900  0.482600  0.989100  1.0
  H  H431  1  0.221600  0.450800  0.030500  1.0
  H  H432  1  0.778400  0.549200  0.969500  1.0
  H  H433  1  0.094800  0.516300  0.072000  1.0
  H  H434  1  0.905200  0.483700  0.928000  1.0
  H  H435  1  0.075700  0.518700  0.027000  1.0
  H  H436  1  0.924300  0.481300  0.973000  1.0
  H  H437  1  0.131100  0.560300  0.008200  1.0
  H  H438  1  0.868900  0.439700  0.991800  1.0
  H  H439  1  0.094000  0.411100  0.103300  1.0
  H  H440  1  0.906000  0.588900  0.896700  1.0
  H  H441  1  0.131900  0.387000  0.059500  1.0
  H  H442  1  0.868100  0.613000  0.940500  1.0
  H  H443  1  0.075000  0.412100  0.058700  1.0
  H  H444  1  0.925000  0.587900  0.941300  1.0
  C  C445  1  0.853600  0.063300  0.663400  1
  C  C446  1  0.146400  0.936700  0.336600  1
  C  C447  1  0.761100  0.999000  0.701100  1
  C  C448  1  0.238900  0.001000  0.298900  1
  C  C449  1  0.776900  0.033300  0.763000  1
  C  C450  1  0.223100  0.966700  0.237000  1
  C  C451  1  0.786500  0.967330  0.921600  1
  C  C452  1  0.213500  0.032670  0.078400  1
  C  C453  1  0.757700  0.893900  0.898500  1
  C  C454  1  0.242300  0.106100  0.101500  1
  C  C455  1  0.851200  0.894400  0.905100  1
  C  C456  1  0.148800  0.105600  0.094900  1
  C  C457  1  0.587800  0.254700  0.000800  1
  C  C458  1  0.412200  0.745300  0.999200  1
  C  C459  1  0.695600  0.265200  0.942000  1
  C  C460  1  0.304400  0.734800  0.058000  1
  C  C461  1  0.630000  0.176960  0.972300  1
  C  C462  1  0.370000  0.823040  0.027700  1
  C  C463  1  0.565400  0.683900  0.887000  1
  C  C464  1  0.434600  0.316100  0.113000  1
  C  C465  1  0.458000  0.685600  0.920400  1
  C  C466  1  0.542000  0.314400  0.079600  1
  C  C467  1  0.494100  0.593400  0.959000  1
  C  C468  1  0.505900  0.406600  0.041000  1
  C  C469  1  0.923500  0.177700  0.240800  1
  C  C470  1  0.076500  0.822300  0.759200  1
  C  C471  1  0.872500  0.102660  0.340800  1
  C  C472  1  0.127500  0.897340  0.659200  1
  C  C473  1  0.960800  0.169700  0.308800  1
  C  C474  1  0.039200  0.830300  0.691200  1
  C  C475  1  0.729840  0.400340  0.182640  1
  C  C476  1  0.270160  0.599660  0.817360  1
  C  C477  1  0.027600  0.934200  0.075500  1
  C  C478  1  0.972400  0.065800  0.924500  1
  C  C479  1  0.029900  0.931000  0.161000  1
  C  C480  1  0.970100  0.069000  0.839000  1
  C  C481  1  0.977200  0.002010  0.115700  1
  C  C482  1  0.022800  0.997990  0.884300  1
  C  C483  1  0.981000  0.503800  0.987300  1
  C  C484  1  0.019000  0.496200  0.012700  1
  C  C485  1  0.918700  0.496900  0.993860  1
  C  C486  1  0.081300  0.503100  0.006140  1
  C  C487  1  0.909100  0.442700  0.987000  1
  C  C488  1  0.090900  0.557300  0.013000  1
  C  C489  1  0.913600  0.549900  0.946600  1
  C  C490  1  0.086400  0.450100  0.053400  1
  C  C491  1  0.212190  0.506500  0.848680  1
  C  C492  1  0.787810  0.493500  0.151320  1
  C  C493  1  0.166400  0.460470  0.887200  1
  C  C494  1  0.833600  0.539530  0.112800  1
  C  C495  1  0.172700  0.554600  0.909400  1
  C  C496  1  0.827300  0.445400  0.090600  1
  C  C497  1  0.126900  0.508600  0.947900  1
  C  C498  1  0.873100  0.491400  0.052100  1
  C  C499  1  0.123700  0.461500  0.936800  1
  C  C500  1  0.876300  0.538500  0.063200  1
  C  C501  1  0.215370  0.553560  0.859800  1
  C  C502  1  0.784630  0.446440  0.140200  1
  C  C503  1  0.610600  0.152400  0.736900  1.0
  C  C504  1  0.389400  0.847600  0.263100  1.0
  C  C505  1  0.672760  0.150760  0.699280  1.0
  C  C506  1  0.327240  0.849240  0.300720  1.0
  C  C507  1  0.699830  0.103220  0.716670  1.0
  C  C508  1  0.300170  0.896780  0.283330  1.0
  C  C509  1  0.758510  0.103640  0.682690  1.0
  C  C510  1  0.241490  0.896360  0.317310  1.0
  C  C511  1  0.790120  0.151600  0.631310  1.0
  C  C512  1  0.209880  0.848400  0.368690  1.0
  C  C513  1  0.763060  0.199140  0.613920  1.0
  C  C514  1  0.236940  0.800860  0.386080  1.0
  C  C515  1  0.704380  0.198720  0.647910  1.0
  C  C516  1  0.295620  0.801280  0.352090  1.0
  C  C517  1  0.796800  0.250800  0.558700  1.0
  C  C518  1  0.203200  0.749200  0.441300  1.0
  C  C519  1  0.787230  0.050370  0.702370  1.0
  C  C520  1  0.212770  0.949630  0.297630  1.0
  C  C521  1  0.838800  0.046800  0.651300  1.0
  C  C522  1  0.161200  0.953200  0.348700  1.0
  C  C523  1  0.742500  0.994870  0.734900  1.0
  C  C524  1  0.257500  0.005130  0.265100  1.0
  C  C525  1  0.810300  0.054000  0.741500  1.0
  C  C526  1  0.189700  0.946000  0.258500  1.0
  C  C527  1  0.920100  0.438500  0.359600  1.0
  C  C528  1  0.079900  0.561500  0.640400  1.0
  C  C529  1  0.954230  0.487730  0.302270  1.0
  C  C530  1  0.045770  0.512270  0.697730  1.0
  C  C531  1  0.014840  0.493780  0.271630  1.0
  C  C532  1  0.985160  0.506220  0.728370  1.0
  C  C533  1  0.044200  0.538430  0.217340  1.0
  C  C534  1  0.955800  0.461570  0.782660  1.0
  C  C535  1  0.012960  0.577040  0.193680  1.0
  C  C536  1  0.987040  0.422960  0.806320  1.0
  C  C537  1  0.952340  0.570980  0.224320  1.0
  C  C538  1  0.047660  0.429020  0.775680  1.0
  C  C539  1  0.922980  0.526330  0.278620  1.0
  C  C540  1  0.077020  0.473670  0.721380  1.0
  C  C541  1  0.917600  0.609800  0.198300  1.0
  C  C542  1  0.082400  0.390200  0.801700  1.0
  C  C543  1  0.110980  0.542450  0.185350  1.0
  C  C544  1  0.889020  0.457550  0.814650  1.0
  C  C545  1  0.140420  0.550000  0.218400  1.0
  C  C546  1  0.859580  0.450000  0.781600  1.0
  C  C547  1  0.126200  0.487100  0.177600  1.0
  C  C548  1  0.873800  0.512900  0.822400  1.0
  C  C549  1  0.135780  0.594300  0.126740  1.0
  C  C550  1  0.864220  0.405700  0.873260  1.0
  C  C551  1  0.791300  0.745800  0.101400  1.0
  C  C552  1  0.208700  0.254200  0.898600  1.0
  C  C553  1  0.757460  0.785810  0.075020  1.0
  C  C554  1  0.242540  0.214190  0.924980  1.0
  C  C555  1  0.784890  0.823000  0.017490  1.0
  C  C556  1  0.215110  0.177000  0.982510  1.0
  C  C557  1  0.754600  0.862900  0.993670  1.0
  C  C558  1  0.245400  0.137100  0.006330  1.0
  C  C559  1  0.696880  0.865620  0.027380  1.0
  C  C560  1  0.303120  0.134380  0.972620  1.0
  C  C561  1  0.669450  0.828430  0.084920  1.0
  C  C562  1  0.330550  0.171570  0.915080  1.0
  C  C563  1  0.699740  0.788520  0.108730  1.0
  C  C564  1  0.300260  0.211480  0.891270  1.0
  C  C565  1  0.608400  0.831900  0.122000  1.0
  C  C566  1  0.391600  0.168100  0.878000  1.0
  C  C567  1  0.787190  0.904200  0.930350  1.0
  C  C568  1  0.212810  0.095800  0.069650  1.0
  C  C569  1  0.836500  0.946000  0.919000  1.0
  C  C570  1  0.163500  0.054000  0.081000  1.0
  C  C571  1  0.744800  0.939700  0.910600  1.0
  C  C572  1  0.255200  0.060300  0.089400  1.0
  C  C573  1  0.814300  0.869800  0.895540  1.0
  C  C574  1  0.185700  0.130200  0.104460  1.0
  C  C575  1  0.550300  0.908900  0.215500  1.0
  C  C576  1  0.449700  0.091100  0.784500  1.0
  C  C577  1  0.581070  0.945580  0.226440  1.0
  C  C578  1  0.418930  0.054420  0.773560  1.0
  C  C579  1  0.591580  0.005440  0.195370  1.0
  C  C580  1  0.408420  0.994560  0.804630  1.0
  C  C581  1  0.622860  0.039860  0.204070  1.0
  C  C582  1  0.377140  0.960140  0.795930  1.0
  C  C583  1  0.643630  0.014430  0.243830  1.0
  C  C584  1  0.356370  0.985570  0.756170  1.0
  C  C585  1  0.633130  0.954570  0.274900  1.0
  C  C586  1  0.366870  0.045430  0.725100  1.0
  C  C587  1  0.601840  0.920140  0.266200  1.0
  C  C588  1  0.398160  0.079860  0.733800  1.0
  C  C589  1  0.656700  0.925900  0.316700  1.0
  C  C590  1  0.343300  0.074100  0.683300  1.0
  C  C591  1  0.636540  0.106070  0.170700  1.0
  C  C592  1  0.363460  0.893930  0.829300  1.0
  C  C593  1  0.613700  0.134540  0.211400  1.0
  C  C594  1  0.386300  0.865460  0.788600  1.0
  C  C595  1  0.703020  0.125740  0.134300  1.0
  C  C596  1  0.296980  0.874260  0.865700  1.0
  C  C597  1  0.607200  0.126810  0.131700  1.0
  C  C598  1  0.392800  0.873190  0.868300  1.0
  C  C599  1  0.746300  0.819200  0.462600  1.0
  C  C600  1  0.253700  0.180800  0.537400  1.0
  C  C601  1  0.769040  0.790500  0.505380  1.0
  C  C602  1  0.230960  0.209500  0.494620  1.0
  C  C603  1  0.807050  0.822440  0.509920  1.0
  C  C604  1  0.192950  0.177560  0.490080  1.0
  C  C605  1  0.825200  0.796000  0.551580  1.0
  C  C606  1  0.174800  0.204000  0.448420  1.0
  C  C607  1  0.805340  0.737620  0.588690  1.0
  C  C608  1  0.194660  0.262380  0.411310  1.0
  C  C609  1  0.767330  0.705680  0.584150  1.0
  C  C610  1  0.232670  0.294320  0.415850  1.0
  C  C611  1  0.749180  0.732120  0.542500  1.0
  C  C612  1  0.250820  0.267880  0.457500  1.0
  C  C613  1  0.743400  0.643700  0.626500  1.0
  C  C614  1  0.256600  0.356300  0.373500  1.0
  C  C615  1  0.864110  0.833190  0.557850  1.0
  C  C616  1  0.135890  0.166810  0.442150  1.0
  C  C617  1  0.889400  0.794600  0.597000  1.0
  C  C618  1  0.110600  0.205400  0.403000  1.0
  C  C619  1  0.828200  0.872800  0.583100  1.0
  C  C620  1  0.171800  0.127200  0.416900  1.0
  C  C621  1  0.915200  0.871000  0.500000  1.0
  C  C622  1  0.084800  0.129000  0.500000  1.0
  C  C623  1  0.657200  0.419300  0.777400  1.0
  C  C624  1  0.342800  0.580700  0.222600  1.0
  C  C625  1  0.634710  0.356540  0.816990  1.0
  C  C626  1  0.365290  0.643460  0.183010  1.0
  C  C627  1  0.646580  0.331220  0.863030  1.0
  C  C628  1  0.353420  0.668780  0.136970  1.0
  C  C629  1  0.627700  0.272470  0.898970  1.0
  C  C630  1  0.372300  0.727530  0.101030  1.0
  C  C631  1  0.597000  0.239030  0.888870  1.0
  C  C632  1  0.403000  0.760970  0.111130  1.0
  C  C633  1  0.585160  0.264350  0.842840  1.0
  C  C634  1  0.414840  0.735650  0.157160  1.0
  C  C635  1  0.604000  0.323100  0.806900  1.0
  C  C636  1  0.396000  0.676900  0.193100  1.0
  C  C637  1  0.553000  0.228900  0.831800  1.0
  C  C638  1  0.447000  0.771100  0.168200  1.0
  C  C639  1  0.635170  0.242630  0.952980  1.0
  C  C640  1  0.364830  0.757370  0.047020  1.0
  C  C641  1  0.669800  0.192300  0.951500  1.0
  C  C642  1  0.330200  0.807700  0.048500  1.0
  C  C643  1  0.668200  0.285800  0.958600  1.0
  C  C644  1  0.331800  0.714200  0.041400  1.0
  C  C645  1  0.574900  0.218600  0.005320  1.0
  C  C646  1  0.425100  0.781400  0.994680  1.0
  C  C647  1  0.423900  0.660000  0.776100  1.0
  C  C648  1  0.576100  0.340000  0.223900  1.0
  C  C649  1  0.468300  0.639700  0.797700  1.0
  C  C650  1  0.531700  0.360300  0.202300  1.0
  C  C651  1  0.467060  0.651300  0.840500  1.0
  C  C652  1  0.532940  0.348700  0.159500  1.0
  C  C653  1  0.510200  0.635600  0.858260  1.0
  C  C654  1  0.489800  0.364400  0.141740  1.0
  C  C655  1  0.554450  0.608300  0.833100  1.0
  C  C656  1  0.445550  0.391700  0.166900  1.0
  C  C657  1  0.555600  0.596600  0.790300  1.0
  C  C658  1  0.444400  0.403400  0.209700  1.0
  C  C659  1  0.512500  0.612300  0.772540  1.0
  C  C660  1  0.487500  0.387700  0.227460  1.0
  C  C661  1  0.604800  0.570600  0.761300  1.0
  C  C662  1  0.395200  0.429400  0.238700  1.0
  C  C663  1  0.506900  0.649530  0.905680  1.0
  C  C664  1  0.493100  0.350470  0.094320  1.0
  C  C665  1  0.448700  0.619400  0.959400  1.0
  C  C666  1  0.551300  0.380600  0.040600  1.0
  C  C667  1  0.557600  0.628800  0.919600  1.0
  C  C668  1  0.442400  0.371200  0.080400  1.0
  C  C669  1  0.510800  0.715100  0.887300  1.0
  C  C670  1  0.489200  0.284900  0.112700  1.0
  C  C671  1  0.794700  0.495500  0.642700  1.0
  C  C672  1  0.205300  0.504500  0.357300  1.0
  C  C673  1  0.845380  0.468600  0.612850  1.0
  C  C674  1  0.154620  0.531400  0.387150  1.0
  C  C675  1  0.894590  0.463410  0.622050  1.0
  C  C676  1  0.105410  0.536590  0.377950  1.0
  C  C677  1  0.938380  0.435050  0.597860  1.0
  C  C678  1  0.061620  0.564950  0.402140  1.0
  C  C679  1  0.932970  0.411880  0.564460  1.0
  C  C680  1  0.067030  0.588120  0.435540  1.0
  C  C681  1  0.883800  0.417080  0.555260  1.0
  C  C682  1  0.116200  0.582920  0.444740  1.0
  C  C683  1  0.839960  0.445430  0.579450  1.0
  C  C684  1  0.160040  0.554570  0.420550  1.0
  C  C685  1  0.876800  0.392300  0.519500  1.0
  C  C686  1  0.123200  0.607700  0.480500  1.0
  C  C687  1  0.992670  0.432040  0.607800  1.0
  C  C688  1  0.007330  0.567960  0.392200  1.0
  C  C689  1  0.976300  0.391900  0.669850  1.0
  C  C690  1  0.023700  0.608100  0.330150  1.0
  C  C691  1  0.018000  0.492470  0.593800  1.0
  C  C692  1  0.982000  0.507530  0.406200  1.0
  C  C693  1  0.040160  0.408600  0.570100  1.0
  C  C694  1  0.959840  0.591400  0.429900  1.0
  C  C695  1  0.843100  0.295100  0.400600  1.0
  C  C696  1  0.156900  0.704900  0.599400  1.0
  C  C697  1  0.834500  0.268380  0.367490  1.0
  C  C698  1  0.165500  0.731620  0.632510  1.0
  C  C699  1  0.872970  0.232290  0.350410  1.0
  C  C700  1  0.127030  0.767710  0.649590  1.0
  C  C701  1  0.865830  0.207780  0.318680  1.0
  C  C702  1  0.134170  0.792220  0.681320  1.0
  C  C703  1  0.820300  0.219360  0.304030  1.0
  C  C704  1  0.179700  0.780640  0.695970  1.0
  C  C705  1  0.781830  0.255460  0.321110  1.0
  C  C706  1  0.218170  0.744540  0.678890  1.0
  C  C707  1  0.788960  0.279970  0.352840  1.0
  C  C708  1  0.211040  0.720030  0.647160  1.0
  C  C709  1  0.734800  0.269800  0.302700  1.0
  C  C710  1  0.265200  0.730200  0.697300  1.0
  C  C711  1  0.905290  0.164910  0.302400  1.0
  C  C712  1  0.094710  0.835090  0.697600  1.0
  C  C713  1  0.969990  0.192900  0.269000  1.0
  C  C714  1  0.030010  0.807100  0.731000  1.0
  C  C715  1  0.897000  0.110600  0.355600  1.0
  C  C716  1  0.103000  0.889400  0.644400  1.0
  C  C717  1  0.889900  0.146700  0.265400  1.0
  C  C718  1  0.110100  0.853300  0.734600  1.0
  C  C719  1  0.870800  0.760800  0.176600  1.0
  C  C720  1  0.129200  0.239200  0.823400  1.0
  C  C721  1  0.879290  0.808820  0.191360  1.0
  C  C722  1  0.120710  0.191180  0.808640  1.0
  C  C723  1  0.929100  0.850850  0.155880  1.0
  C  C724  1  0.070900  0.149150  0.844120  1.0
  C  C725  1  0.935480  0.895850  0.168630  1.0
  C  C726  1  0.064520  0.104150  0.831370  1.0
  C  C727  1  0.892040  0.898830  0.216860  1.0
  C  C728  1  0.107960  0.101170  0.783140  1.0
  C  C729  1  0.842230  0.856810  0.252330  1.0
  C  C730  1  0.157770  0.143190  0.747670  1.0
  C  C731  1  0.835850  0.811800  0.239590  1.0
  C  C732  1  0.164150  0.188200  0.760410  1.0
  C  C733  1  0.793800  0.861900  0.302000  1.0
  C  C734  1  0.206200  0.138100  0.698000  1.0
  C  C735  1  0.991950  0.940330  0.130540  1.0
  C  C736  1  0.008050  0.059670  0.869460  1.0
  C  C737  1  0.000900  0.969800  0.069340  1.0
  C  C738  1  0.999100  0.030200  0.930660  1.0
  C  C739  1  0.045240  0.910600  0.131200  1.0
  C  C740  1  0.954760  0.089400  0.868800  1.0
  C  C741  1  0.988500  0.987000  0.151200  1.0
  C  C742  1  0.011500  0.013000  0.848800  1.0
  C  C743  1  0.610500  0.884500  0.475300  1.0
  C  C744  1  0.389500  0.115500  0.524700  1.0
  C  C745  1  0.561640  0.889490  0.524550  1.0
  C  C746  1  0.438360  0.110510  0.475450  1.0
  C  C747  1  0.561220  0.939550  0.532070  1.0
  C  C748  1  0.438780  0.060450  0.467930  1.0
  C  C749  1  0.515550  0.943180  0.578800  1.0
  C  C750  1  0.484450  0.056820  0.421200  1.0
  C  C751  1  0.470300  0.896740  0.617990  1.0
  C  C752  1  0.529700  0.103260  0.382010  1.0
  C  C753  1  0.470720  0.846680  0.610470  1.0
  C  C754  1  0.529280  0.153320  0.389530  1.0
  C  C755  1  0.516390  0.843050  0.563750  1.0
  C  C756  1  0.483610  0.156950  0.436250  1.0
  C  C757  1  0.423500  0.793900  0.654900  1.0
  C  C758  1  0.576500  0.206100  0.345100  1.0
  C  C759  1  0.512000  0.997900  0.588420  1.0
  C  C760  1  0.488000  0.002100  0.411580  1.0
  C  C761  1  0.527700  0.988300  0.636100  1.0
  C  C762  1  0.472300  0.011700  0.363900  1.0
  C  C763  1  0.449690  0.013100  0.605000  1.0
  C  C764  1  0.550310  0.986900  0.395000  1.0
  C  C765  1  0.554900  0.049230  0.534260  1.0
  C  C766  1  0.445100  0.950770  0.465740  1.0
  C  C767  1  0.266750  0.601440  0.815480  1.0
  C  C768  1  0.733250  0.398560  0.184520  1.0
  C  C769  1  0.214350  0.502000  0.850440  1.0
  C  C770  1  0.785650  0.498000  0.149560  1.0
  C  C771  1  0.176600  0.451300  0.893900  1.0
  C  C772  1  0.823400  0.548700  0.106100  1.0
  C  C773  1  0.229360  0.543900  0.862900  1.0
  C  C774  1  0.770640  0.456100  0.137100  1.0
  C  C775  1  0.206600  0.535100  0.918900  1.0
  C  C776  1  0.793400  0.464900  0.081100  1.0
  C  C777  1  0.168800  0.484400  0.962420  1.0
  C  C778  1  0.831200  0.515600  0.037580  1.0
  C  C779  1  0.153800  0.442520  0.949900  1.0
  C  C780  1  0.846200  0.557480  0.050100  1.0
  C  C781  1  0.145900  0.475600  0.023700  1.0
  C  C782  1  0.854100  0.524400  0.976300  1.0
  C  C783  1  0.197400  0.479500  0.036200  1.0
  C  C784  1  0.802600  0.520500  0.963800  1.0
  C  C785  1  0.108600  0.522300  0.033500  1.0
  C  C786  1  0.891400  0.477700  0.966500  1.0
  C  C787  1  0.107900  0.416000  0.065200  1.0
  C  C788  1  0.892100  0.584000  0.934800  1.0
  C  C789  1  0.162970  0.408580  0.876030  1.0
  C  C790  1  0.837030  0.591420  0.123970  1.0
  O  O791  1  0.731230  0.400300  0.469200  1
  O  O792  1  0.268770  0.599700  0.530800  1
  O  O793  1  0.993030  0.297300  0.438900  1
  O  O794  1  0.006970  0.702700  0.561100  1
  O  O795  1  0.976550  0.744500  0.020240  1
  O  O796  1  0.023450  0.255500  0.979760  1
  O  O797  1  0.729000  0.613700  0.279190  1
  O  O798  1  0.271000  0.386300  0.720810  1
  O  O799  1  0.636800  0.740960  0.419400  1
  O  O800  1  0.363200  0.259040  0.580600  1
  O  O801  1  0.768600  0.009400  0.347700  1
  O  O802  1  0.231400  0.990600  0.652300  1
  O  O803  1  0.635000  0.501700  0.632400  1
  O  O804  1  0.365000  0.498300  0.367600  1
  O  O805  1  0.753700  0.544800  0.787110  1
  O  O806  1  0.246300  0.455200  0.212890  1
  O  O807  1  0.511130  0.038740  0.914540  1
  O  O808  1  0.488870  0.961260  0.085460  1
  O  O809  1  0.424400  0.637700  0.643230  1
  O  O810  1  0.575600  0.362300  0.356770  1
  O  O811  1  0.282040  0.751960  0.833440  1
  O  O812  1  0.717960  0.248040  0.166560  1
  O  O813  1  0.585730  0.114300  0.788480  1.0
  O  O814  1  0.414270  0.885700  0.211520  1.0
  O  O815  1  0.585230  0.194010  0.717190  1.0
  O  O816  1  0.414770  0.805990  0.282810  1.0
  O  O817  1  0.851600  0.250910  0.531500  1.0
  O  O818  1  0.148400  0.749090  0.468500  1.0
  O  O819  1  0.769770  0.290820  0.541110  1.0
  O  O820  1  0.230230  0.709180  0.458890  1.0
  O  O821  1  0.948840  0.398290  0.377350  1.0
  O  O822  1  0.051160  0.601710  0.622650  1.0
  O  O823  1  0.866300  0.437380  0.387490  1.0
  O  O824  1  0.133700  0.562620  0.612510  1.0
  O  O825  1  0.944960  0.645520  0.146260  1.0
  O  O826  1  0.055040  0.354480  0.853740  1.0
  O  O827  1  0.862800  0.604680  0.229390  1.0
  O  O828  1  0.137200  0.395320  0.770610  1.0
  O  O829  1  0.845600  0.748950  0.070750  1.0
  O  O830  1  0.154400  0.251050  0.929250  1.0
  O  O831  1  0.763310  0.709040  0.153910  1.0
  O  O832  1  0.236690  0.290960  0.846090  1.0
  O  O833  1  0.582930  0.872360  0.101250  1.0
  O  O834  1  0.417070  0.127640  0.898750  1.0
  O  O835  1  0.583660  0.794660  0.173200  1.0
  O  O836  1  0.416340  0.205340  0.826800  1.0
  O  O837  1  0.536480  0.932280  0.175050  1.0
  O  O838  1  0.463520  0.067720  0.824950  1.0
  O  O839  1  0.538320  0.853940  0.246650  1.0
  O  O840  1  0.461680  0.146060  0.753350  1.0
  O  O841  1  0.689930  0.956910  0.320370  1.0
  O  O842  1  0.310070  0.043090  0.679630  1.0
  O  O843  1  0.642870  0.871790  0.346010  1.0
  O  O844  1  0.357130  0.128210  0.653990  1.0
  O  O845  1  0.761480  0.873630  0.432600  1.0
  O  O846  1  0.238520  0.126370  0.567400  1.0
  O  O847  1  0.714200  0.788610  0.457580  1.0
  O  O848  1  0.285800  0.211390  0.542420  1.0
  O  O849  1  0.755920  0.622220  0.667440  1.0
  O  O850  1  0.244080  0.377780  0.332560  1.0
  O  O851  1  0.711460  0.615020  0.618980  1.0
  O  O852  1  0.288540  0.384980  0.381020  1.0
  O  O853  1  0.687800  0.447880  0.785290  1.0
  O  O854  1  0.312200  0.552120  0.214710  1.0
  O  O855  1  0.643730  0.441480  0.735970  1.0
  O  O856  1  0.356270  0.558520  0.264030  1.0
  O  O857  1  0.540480  0.173790  0.862900  1.0
  O  O858  1  0.459520  0.826210  0.137100  1.0
  O  O859  1  0.539870  0.252290  0.791000  1.0
  O  O860  1  0.460130  0.747710  0.209000  1.0
  O  O861  1  0.387900  0.690590  0.795640  1.0
  O  O862  1  0.612100  0.309410  0.204360  1.0
  O  O863  1  0.424600  0.645970  0.739230  1.0
  O  O864  1  0.575400  0.354030  0.260770  1.0
  O  O865  1  0.646300  0.563010  0.773900  1.0
  O  O866  1  0.353700  0.436990  0.226100  1.0
  O  O867  1  0.603820  0.556500  0.723910  1.0
  O  O868  1  0.396180  0.443500  0.276090  1.0
  O  O869  1  0.796700  0.508590  0.679570  1.0
  O  O870  1  0.203300  0.491410  0.320430  1.0
  O  O871  1  0.751910  0.501060  0.630780  1.0
  O  O872  1  0.248090  0.498940  0.369220  1.0
  O  O873  1  0.913830  0.362580  0.501640  1.0
  O  O874  1  0.086170  0.637420  0.498360  1.0
  O  O875  1  0.832100  0.402620  0.510080  1.0
  O  O876  1  0.167900  0.597380  0.489920  1.0
  O  O877  1  0.887550  0.286800  0.409880  1.0
  O  O878  1  0.112450  0.713200  0.590120  1.0
  O  O879  1  0.804830  0.325310  0.419410  1.0
  O  O880  1  0.195170  0.674690  0.580590  1.0
  O  O881  1  0.734710  0.253050  0.267730  1.0
  O  O882  1  0.265290  0.746950  0.732270  1.0
  O  O883  1  0.696800  0.298740  0.323730  1.0
  O  O884  1  0.303200  0.701260  0.676270  1.0
  O  O885  1  0.908410  0.762130  0.129780  1.0
  O  O886  1  0.091590  0.237870  0.870220  1.0
  O  O887  1  0.826580  0.721420  0.212610  1.0
  O  O888  1  0.173420  0.278580  0.787390  1.0
  O  O889  1  0.797810  0.906330  0.309480  1.0
  O  O890  1  0.202190  0.093670  0.690520  1.0
  O  O891  1  0.750210  0.821220  0.334680  1.0
  O  O892  1  0.249790  0.178780  0.665320  1.0
  O  O893  1  0.654480  0.924500  0.442950  1.0
  O  O894  1  0.345520  0.075500  0.557050  1.0
  O  O895  1  0.607340  0.838950  0.468080  1.0
  O  O896  1  0.392660  0.161050  0.531920  1.0
  O  O897  1  0.386140  0.795430  0.700330  1.0
  O  O898  1  0.613860  0.204570  0.299670  1.0
  O  O899  1  0.424360  0.750560  0.644360  1.0
  O  O900  1  0.575640  0.249440  0.355640  1.0
  O  O901  1  0.268000  0.643780  0.827580  1.0
  O  O902  1  0.732000  0.356220  0.172420  1.0
  O  O903  1  0.305250  0.599270  0.770070  1.0
  O  O904  1  0.694750  0.400730  0.229930  1.0
  O  O905  1  0.119640  0.367670  0.912940  1.0
  O  O906  1  0.880360  0.632330  0.087060  1.0
  O  O907  1  0.200830  0.408640  0.829330  1.0
  O  O908  1  0.799170  0.591360  0.170670  1.0
