
#######################################################################
#
#                 Cambridge Crystallographic Data Centre
#                                CCDC 
#
#######################################################################
#
# If this CIF has been generated from an entry in the Cambridge 
# Structural Database, then it will include bibliographic, chemical, 
# crystal, experimental, refinement or atomic coordinate data resulting 
# from the CCDC's data processing and validation procedures.
#
#######################################################################

data_XUQLOM
_chemical_formula_moiety         'C288 H144 Mo24 O96'
_chemical_name_systematic        
'tetracosakis(\m-naphthalene-2,7-dicarboxylato)-tetracosa-molybdenum unknown solvate'
_symmetry_cell_setting           hexagonal
_symmetry_space_group_name_H-M   'P 63/m'
_symmetry_Int_Tables_number      176
_space_group_name_Hall           '-P 6c'
loop_
_symmetry_equiv_pos_site_id
_symmetry_equiv_pos_as_xyz
1 x,y,z
2 -y,x-y,z
3 -x+y,-x,z
4 -x,-y,1/2+z
5 y,-x+y,1/2+z
6 x-y,x,1/2+z
7 -x,-y,-z
8 y,-x+y,-z
9 x-y,x,-z
10 x,y,1/2-z
11 -y,x-y,1/2-z
12 -x+y,-x,1/2-z
_cell_length_a                   33.052(2)
_cell_length_b                   33.052(2)
_cell_length_c                   33.833(4)
_cell_angle_alpha                90
_cell_angle_beta                 90
_cell_angle_gamma                120
_cell_volume                     32008.6
_exptl_crystal_colour            'dark red'
_exptl_crystal_description       block
_cell_formula_units_Z            2
loop_
_atom_site_label
_atom_site_type_symbol
_atom_site_fract_x
_atom_site_fract_y
_atom_site_fract_z
Mo1 Mo 0.60946(3) -0.02611(3) 0.2500
Mo2 Mo 0.59810(3) -0.09552(3) 0.2500
Mo3 Mo 0.96676(3) 0.27466(3) 0.2500
Mo4 Mo 1.02532(3) 0.26391(3) 0.2500
Mo5 Mo 0.74518(2) 0.19357(2) -0.010675(18)
Mo6 Mo 0.75988(2) 0.16600(2) -0.062083(19)
O1 O 0.9193(2) 0.2024(2) 0.2500
O2 O 0.9796(2) 0.1912(2) 0.2500
O3 O 0.6824(2) 0.0012(2) 0.2500
O4 O 0.6704(2) -0.0710(2) 0.2500
O5 O 1.0494(2) 0.58706(19) 0.2500
O6 O 1.12283(18) 0.6475(2) 0.2500
O7 O 1.0111(2) 0.3467(2) 0.2500
O8 O 1.0727(2) 0.3358(2) 0.2500
O9 O 0.96382(15) 0.27218(16) 0.18843(15)
O10 O 1.02414(14) 0.26157(17) 0.18770(15)
O11 O 0.61166(16) -0.02388(13) 0.18824(14)
O12 O 0.60015(16) -0.09507(13) 0.18758(13)
C1 C 0.9370(4) 0.1750(4) 0.2500
C2 C 0.90395(16) 0.12397(13) 0.2500
C3 C 0.92226(12) 0.09416(17) 0.2500
H1 H 0.9551 0.1067 0.2500
C4 C 0.89246(13) 0.04605(17) 0.2500
H2 H 0.9050 0.0257 0.2500
C5 C 0.84434(13) 0.02772(13) 0.2500
C6 C 0.81453(16) -0.02039(12) 0.2500
H3 H 0.8270 -0.0408 0.2500
C7 C 0.76642(15) -0.03870(13) 0.2500
H4 H 0.7461 -0.0716 0.2500
C8 C 0.74812(12) -0.00889(18) 0.2500
C9 C 0.77793(13) 0.03922(17) 0.2500
H5 H 0.7654 0.0596 0.2500
C10 C 0.82604(13) 0.05753(13) 0.2500
C11 C 0.85584(17) 0.10564(13) 0.2500
H6 H 0.8433 0.1260 0.2500
C12 C 0.6973(4) -0.0279(4) 0.2500
C13 C 1.0939(3) 0.6041(3) 0.2500
C14 C 1.11270(19) 0.57184(15) 0.2500
C15 C 1.16074(18) 0.58967(12) 0.2500
H7 H 1.1814 0.6225 0.2500
C16 C 1.17857(13) 0.55947(13) 0.2500
H8 H 1.2114 0.5717 0.2500
C17 C 1.14838(12) 0.51142(12) 0.2500
C18 C 1.16619(14) 0.48119(16) 0.2500
H9 H 1.1990 0.4934 0.2500
C19 C 1.13597(19) 0.43316(15) 0.2500
H10 H 1.1481 0.4125 0.2500
C20 C 1.08793(18) 0.41534(12) 0.2500
C21 C 1.07012(13) 0.44557(13) 0.2500
H11 H 1.0373 0.4334 0.2500
C22 C 1.10034(12) 0.49359(13) 0.2500
C23 C 1.08251(14) 0.52380(16) 0.2500
H12 H 1.0497 0.5116 0.2500
C24 C 1.0556(4) 0.3627(4) 0.2500
O13 O 0.8026(4) 0.2008(4) 0.0181(6)
O14 O 0.8159(4) 0.1701(4) -0.0343(4)
C25 C 0.98814(12) 0.25778(10) 0.17200(9)
C26 C 0.97189(18) 0.23534(9) 0.13188(9)
C27 C 0.99669(17) 0.21664(16) 0.11385(14)
H13 H 1.0230 0.2182 0.1268
C28 C 0.98305(16) 0.19563(19) 0.07694(15)
H14 H 1.0000 0.1829 0.0646
C29 C 0.94460(14) 0.19330(14) 0.05803(11)
C30 C 0.93096(18) 0.17229(19) 0.02111(12)
H15 H 0.9479 0.1595 0.0088
C31 C 0.89251(18) 0.16996(19) 0.00220(12)
H16 H 0.8832 0.1556 -0.0230
C32 C 0.86769(15) 0.18866(19) 0.02022(16)
C33 C 0.88134(14) 0.20968(17) 0.05713(16)
H17 H 0.8644 0.2225 0.0694
C34 C 0.91979(13) 0.21200(11) 0.07605(11)
C35 C 0.93344(17) 0.23302(11) 0.11296(11)
H18 H 0.9165 0.2458 0.1253
C36 C 0.82586(19) 0.1864(3) 0.0000(3)
O15 O 0.7741(3) 0.2589(7) -0.0366(4)
O16 O 0.7891(3) 0.2289(5) -0.0907(4)
O17 O 0.8083(3) 0.4944(4) -0.0385(3)
O18 O 0.8367(3) 0.5383(3) -0.0914(3)
C37 C 0.78716(17) 0.2602(2) -0.0715(3)
C38 C 0.80270(9) 0.30534(18) -0.0934(2)
C39 C 0.81916(13) 0.31166(18) -0.1321(2)
H19 H 0.8209 0.2872 -0.1453
C40 C 0.83315(18) 0.3538(2) -0.15131(17)
H20 H 0.8444 0.3581 -0.1777
C41 C 0.83068(14) 0.38959(18) -0.13196(15)
C42 C 0.8447(2) 0.43172(19) -0.15121(17)
H21 H 0.8559 0.4360 -0.1776
C43 C 0.84219(18) 0.46752(18) -0.1319(2)
H22 H 0.8518 0.4963 -0.1450
C44 C 0.82573(16) 0.4612(2) -0.0932(2)
C45 C 0.81175(14) 0.4191(2) -0.07399(17)
H23 H 0.8005 0.4148 -0.0476
C46 C 0.81422(10) 0.38327(19) -0.09334(15)
C47 C 0.80023(11) 0.3411(2) -0.07409(17)
H24 H 0.7890 0.3368 -0.0477
C48 C 0.8235(2) 0.5008(2) -0.0731(3)
O19 O 0.7014(3) 0.1289(3) 0.0127(4)
O20 O 0.7154(3) 0.1003(4) -0.0404(3)
C49 C 0.69831(7) 0.09512(16) -0.0065(2)
C50 C 0.67353(8) 0.04652(16) 0.01085(18)
C51 C 0.65712(16) 0.0072(2) -0.01310(12)
H25 H 0.6614 0.0107 -0.0409
C52 C 0.6344(2) -0.03711(17) 0.00367(9)
H26 H 0.6232 -0.0640 -0.0127
C53 C 0.62816(16) -0.04217(14) 0.04438(9)
C54 C 0.6055(2) -0.08649(15) 0.06118(13)
H27 H 0.5943 -0.1134 0.0448
C55 C 0.59921(19) -0.0915(2) 0.10187(14)
H28 H 0.5837 -0.1218 0.1133
C56 C 0.61561(16) -0.0522(3) 0.12584(9)
C57 C 0.63829(13) -0.0079(2) 0.10903(10)
H29 H 0.6495 0.0189 0.1254
C58 C 0.64457(10) -0.00287(15) 0.06833(11)
C59 C 0.66725(8) 0.04146(14) 0.05155(17)
H30 H 0.6785 0.0683 0.0679
C60 C 0.60855(9) -0.05830(12) 0.17005(9)
Mo1A Mo 1.02611(3) 0.63557(4) 0.2500
Mo2A Mo 1.09552(3) 0.69362(4) 0.2500
Mo3A Mo 0.72534(3) 0.69210(4) 0.2500
Mo4A Mo 0.73609(3) 0.76141(4) 0.2500
Mo5A Mo 0.80643(2) 0.55161(3) -0.010675(18)
Mo6A Mo 0.83400(2) 0.59388(3) -0.062083(19)
O1A O 0.7976(2) 0.7169(3) 0.2500
O2A O 0.8088(2) 0.7884(3) 0.2500
O3A O 0.9988(2) 0.6812(3) 0.2500
O4A O 1.0710(2) 0.7414(3) 0.2500
O5A O 0.41294(19) 0.46234(28) 0.2500
O6A O 0.3525(2) 0.47533(27) 0.2500
O7A O 0.6533(2) 0.6644(3) 0.2500
O8A O 0.6642(2) 0.7369(3) 0.2500
O9A O 0.72782(16) 0.69164(22) 0.18843(15)
O10A O 0.73843(17) 0.76257(22) 0.18770(15)
O11A O 1.02388(13) 0.63554(21) 0.18824(14)
O12A O 1.09507(13) 0.69522(21) 0.18758(13)
C1A C 0.8250(4) 0.7620(6) 0.2500
C2A C 0.87603(13) 0.77998(21) 0.2500
C3A C 0.90584(17) 0.82810(21) 0.2500
H1A H 0.8933 0.8484 0.2500
C4A C 0.95395(17) 0.84641(21) 0.2500
H2A H 0.9743 0.8793 0.2500
C5A C 0.97228(13) 0.81662(18) 0.2500
C6A C 1.02039(12) 0.83492(20) 0.2500
H3A H 1.0408 0.8678 0.2500
C7A C 1.03870(13) 0.80512(20) 0.2500
H4A H 1.0716 0.8177 0.2500
C8A C 1.00889(18) 0.75701(22) 0.2500
C9A C 0.96078(17) 0.73871(21) 0.2500
H5A H 0.9404 0.7058 0.2500
C10A C 0.94247(13) 0.76851(18) 0.2500
C11A C 0.89436(13) 0.75020(21) 0.2500
H6A H 0.8740 0.7173 0.2500
C12A C 1.0279(4) 0.7252(6) 0.2500
C13A C 0.3959(3) 0.4898(4) 0.2500
C14A C 0.42816(15) 0.54086(24) 0.2500
C15A C 0.41033(12) 0.57107(22) 0.2500
H7A H 0.3775 0.5589 0.2500
C16A C 0.44053(13) 0.61910(18) 0.2500
H8A H 0.4283 0.6397 0.2500
C17A C 0.48858(12) 0.63696(17) 0.2500
C18A C 0.51881(16) 0.68500(21) 0.2500
H9A H 0.5066 0.7056 0.2500
C19A C 0.56684(15) 0.70281(24) 0.2500
H10A H 0.5875 0.7356 0.2500
C20A C 0.58466(12) 0.67259(22) 0.2500
C21A C 0.55443(13) 0.62455(18) 0.2500
H11A H 0.5666 0.6039 0.2500
C22A C 0.50641(13) 0.60675(18) 0.2500
C23A C 0.47620(16) 0.55871(21) 0.2500
H12A H 0.4884 0.5381 0.2500
C24A C 0.6373(4) 0.6929(6) 0.2500
O13A O 0.7992(4) 0.6018(6) 0.0181(6)
O14A O 0.8299(4) 0.6458(6) -0.0343(4)
C25A C 0.74222(10) 0.73036(16) 0.17200(9)
C26A C 0.76466(9) 0.73655(20) 0.13188(9)
C27A C 0.78336(16) 0.78005(23) 0.11385(14)
H13A H 0.7818 0.8048 0.1268
C28A C 0.80437(19) 0.78742(25) 0.07694(15)
H14A H 0.8171 0.8171 0.0646
C29A C 0.80670(14) 0.75130(20) 0.05803(11)
C30A C 0.82771(19) 0.75867(26) 0.02111(12)
H15A H 0.8405 0.7884 0.0088
C31A C 0.83004(19) 0.72255(26) 0.00220(12)
H16A H 0.8444 0.7276 -0.0230
C32A C 0.81134(19) 0.67903(24) 0.02022(16)
C33A C 0.79032(17) 0.67166(22) 0.05713(16)
H17A H 0.7775 0.6419 0.0694
C34A C 0.78800(11) 0.70779(17) 0.07605(11)
C35A C 0.76698(11) 0.70042(20) 0.11296(11)
H18A H 0.7542 0.6707 0.1253
C36A C 0.8136(3) 0.63946(36) 0.0000(3)
O15A O 0.7411(7) 0.5152(8) -0.0366(4)
O16A O 0.7711(5) 0.5602(6) -0.0907(4)
O17A O 0.5056(4) 0.3139(5) -0.0385(3)
O18A O 0.4617(3) 0.2984(4) -0.0914(3)
C37A C 0.7398(2) 0.52696(26) -0.0715(3)
C38A C 0.69466(18) 0.49736(20) -0.0934(2)
C39A C 0.68834(18) 0.50750(22) -0.1321(2)
H19A H 0.7128 0.5337 -0.1453
C40A C 0.6462(2) 0.47935(27) -0.15131(17)
H20A H 0.6419 0.4863 -0.1777
C41A C 0.61041(18) 0.44109(23) -0.13196(15)
C42A C 0.56828(19) 0.41298(28) -0.15121(17)
H21A H 0.5640 0.4199 -0.1776
C43A C 0.53248(18) 0.37467(25) -0.1319(2)
H22A H 0.5037 0.3555 -0.1450
C44A C 0.5388(2) 0.36453(26) -0.0932(2)
C45A C 0.5809(2) 0.39265(24) -0.07399(17)
H23A H 0.5852 0.3857 -0.0476
C46A C 0.61673(19) 0.43095(21) -0.09334(15)
C47A C 0.6589(2) 0.45913(23) -0.07409(17)
H24A H 0.6632 0.4522 -0.0477
C48A C 0.4992(2) 0.3227(3) -0.0731(3)
O19A O 0.8711(3) 0.5725(4) 0.0127(4)
O20A O 0.8997(4) 0.6151(5) -0.0404(3)
C49A C 0.90488(16) 0.60319(17) -0.0065(2)
C50A C 0.95348(16) 0.62701(18) 0.01085(18)
C51A C 0.9928(2) 0.64992(26) -0.01310(12)
H25A H 0.9893 0.6507 -0.0409
C52A C 1.03711(17) 0.67151(26) 0.00367(9)
H26A H 1.0640 0.6872 -0.0127
C53A C 1.04217(14) 0.67033(21) 0.04438(9)
C54A C 1.08649(15) 0.69199(25) 0.06118(13)
H27A H 1.1134 0.7077 0.0448
C55A C 1.0915(2) 0.69071(28) 0.10187(14)
H28A H 1.1218 0.7055 0.1133
C56A C 1.0522(3) 0.66781(34) 0.12584(9)
C57A C 1.0079(2) 0.64619(24) 0.10903(10)
H29A H 0.9811 0.6306 0.1254
C58A C 1.00287(15) 0.64744(18) 0.06833(11)
C59A C 0.95854(14) 0.62579(16) 0.05155(17)
H30A H 0.9317 0.6102 0.0679
C60A C 1.05830(12) 0.66685(15) 0.17005(9)
Mo1B Mo 0.36443(4) 0.39054(3) 0.2500
Mo2B Mo 0.30638(4) 0.40190(3) 0.2500
Mo3B Mo 0.30790(4) 0.03324(3) 0.2500
Mo4B Mo 0.23859(4) -0.02532(3) 0.2500
Mo5B Mo 0.44839(3) 0.25482(2) -0.010675(18)
Mo6B Mo 0.40612(3) 0.24012(2) -0.062083(19)
O1B O 0.2831(3) 0.0807(2) 0.2500
O2B O 0.2116(3) 0.0204(2) 0.2500
O3B O 0.3188(3) 0.3176(2) 0.2500
O4B O 0.2586(3) 0.3296(2) 0.2500
O5B O 0.53766(28) -0.0494(2) 0.2500
O6B O 0.52467(27) -0.12283(18) 0.2500
O7B O 0.3356(3) -0.0111(2) 0.2500
O8B O 0.2631(3) -0.0727(2) 0.2500
O9B O 0.30836(22) 0.03618(15) 0.18843(15)
O10B O 0.23743(22) -0.02414(14) 0.18770(15)
O11B O 0.36446(21) 0.38834(16) 0.18824(14)
O12B O 0.30478(21) 0.39985(16) 0.18758(13)
C1B C 0.2380(6) 0.0630(4) 0.2500
C2B C 0.22002(21) 0.09605(16) 0.2500
C3B C 0.17190(21) 0.07774(12) 0.2500
H1B H 0.1516 0.0449 0.2500
C4B C 0.15359(21) 0.10754(13) 0.2500
H2B H 0.1207 0.0950 0.2500
C5B C 0.18338(18) 0.15566(13) 0.2500
C6B C 0.16508(20) 0.18547(16) 0.2500
H3B H 0.1322 0.1730 0.2500
C7B C 0.19488(20) 0.23358(15) 0.2500
H4B H 0.1823 0.2539 0.2500
C8B C 0.24299(22) 0.25188(12) 0.2500
C9B C 0.26129(21) 0.22207(13) 0.2500
H5B H 0.2942 0.2346 0.2500
C10B C 0.23149(18) 0.17396(13) 0.2500
C11B C 0.24980(21) 0.14416(17) 0.2500
H6B H 0.2827 0.1567 0.2500
C12B C 0.2748(6) 0.3027(4) 0.2500
C13B C 0.5102(4) -0.0939(3) 0.2500
C14B C 0.45914(24) -0.11270(19) 0.2500
C15B C 0.42893(22) -0.16074(18) 0.2500
H7B H 0.4411 -0.1814 0.2500
C16B C 0.38090(18) -0.17857(13) 0.2500
H8B H 0.3603 -0.2114 0.2500
C17B C 0.36304(17) -0.14838(12) 0.2500
C18B C 0.31500(21) -0.16619(14) 0.2500
H9B H 0.2944 -0.1990 0.2500
C19B C 0.29719(24) -0.13597(19) 0.2500
H10B H 0.2644 -0.1481 0.2500
C20B C 0.32741(22) -0.08793(18) 0.2500
C21B C 0.37545(18) -0.07012(13) 0.2500
H11B H 0.3961 -0.0373 0.2500
C22B C 0.39325(18) -0.10034(12) 0.2500
C23B C 0.44129(21) -0.08251(14) 0.2500
H12B H 0.4619 -0.0497 0.2500
C24B C 0.3071(6) -0.0556(4) 0.2500
O13B O 0.3982(6) 0.1974(4) 0.0181(6)
O14B O 0.3542(6) 0.1841(4) -0.0343(4)
C25B C 0.26964(16) 0.01186(12) 0.17200(9)
C26B C 0.26345(20) 0.02811(18) 0.13188(9)
C27B C 0.21995(23) 0.00331(17) 0.11385(14)
H13B H 0.1952 -0.0230 0.1268
C28B C 0.21258(25) 0.01695(16) 0.07694(15)
H14B H 0.1829 0.0000 0.0646
C29B C 0.24870(20) 0.05540(14) 0.05803(11)
C30B C 0.24133(26) 0.06904(18) 0.02111(12)
H15B H 0.2116 0.0521 0.0088
C31B C 0.27745(26) 0.10749(18) 0.00220(12)
H16B H 0.2724 0.1168 -0.0230
C32B C 0.32097(24) 0.13231(15) 0.02022(16)
C33B C 0.32834(22) 0.11866(14) 0.05713(16)
H17B H 0.3581 0.1356 0.0694
C34B C 0.29221(17) 0.08021(13) 0.07605(11)
C35B C 0.29958(20) 0.06656(17) 0.11296(11)
H18B H 0.3293 0.0835 0.1253
C36B C 0.36054(36) 0.17414(19) 0.0000(3)
O15B O 0.4848(8) 0.2259(3) -0.0366(4)
O16B O 0.4398(6) 0.2109(3) -0.0907(4)
O17B O 0.6861(5) 0.1917(3) -0.0385(3)
O18B O 0.7016(4) 0.1633(3) -0.0914(3)
C37B C 0.47304(26) 0.21284(17) -0.0715(3)
C38B C 0.50264(20) 0.19730(9) -0.0934(2)
C39B C 0.49250(22) 0.18084(13) -0.1321(2)
H19B H 0.4663 0.1791 -0.1453
C40B C 0.52065(27) 0.16685(18) -0.15131(17)
H20B H 0.5137 0.1556 -0.1777
C41B C 0.55891(23) 0.16932(14) -0.13196(15)
C42B C 0.58702(28) 0.1553(2) -0.15121(17)
H21B H 0.5801 0.1441 -0.1776
C43B C 0.62533(25) 0.15781(18) -0.1319(2)
H22B H 0.6445 0.1482 -0.1450
C44B C 0.63547(26) 0.17427(16) -0.0932(2)
C45B C 0.60735(24) 0.18825(14) -0.07399(17)
H23B H 0.6143 0.1995 -0.0476
C46B C 0.56905(21) 0.18578(10) -0.09334(15)
C47B C 0.54087(23) 0.19977(11) -0.07409(17)
H24B H 0.5478 0.2110 -0.0477
C48B C 0.6773(3) 0.1765(2) -0.0731(3)
O19B O 0.4275(4) 0.2986(3) 0.0127(4)
O20B O 0.3849(5) 0.2846(3) -0.0404(3)
C49B C 0.39681(17) 0.30169(7) -0.0065(2)
C50B C 0.37299(18) 0.32647(8) 0.01085(18)
C51B C 0.35008(26) 0.34288(16) -0.01310(12)
H25B H 0.3493 0.3386 -0.0409
C52B C 0.32849(26) 0.3656(2) 0.00367(9)
H26B H 0.3128 0.3768 -0.0127
C53B C 0.32967(21) 0.37184(16) 0.04438(9)
C54B C 0.30801(25) 0.3945(2) 0.06118(13)
H27B H 0.2923 0.4057 0.0448
C55B C 0.30929(28) 0.40079(19) 0.10187(14)
H28B H 0.2945 0.4163 0.1133
C56B C 0.33219(34) 0.38439(16) 0.12584(9)
C57B C 0.35381(24) 0.36171(13) 0.10903(10)
H29B H 0.3694 0.3505 0.1254
C58B C 0.35256(18) 0.35543(10) 0.06833(11)
C59B C 0.37421(16) 0.33275(8) 0.05155(17)
H30B H 0.3898 0.3215 0.0679
C60B C 0.33315(15) 0.39145(9) 0.17005(9)
Mo5I Mo 0.74518(2) 0.19357(2) 0.510675(18)
Mo6I Mo 0.75988(2) 0.16600(2) 0.562083(19)
O9I O 0.96382(15) 0.27218(16) 0.31157(15)
O10I O 1.02414(14) 0.26157(17) 0.31230(15)
O11I O 0.61166(16) -0.02388(13) 0.31176(14)
O12I O 0.60015(16) -0.09507(13) 0.31242(13)
O13I O 0.8026(4) 0.2008(4) 0.4819(6)
O14I O 0.8159(4) 0.1701(4) 0.5343(4)
C25I C 0.98814(12) 0.25778(10) 0.32800(9)
C26I C 0.97189(18) 0.23534(9) 0.36812(9)
C27I C 0.99669(17) 0.21664(16) 0.38615(14)
H13I H 1.0230 0.2182 0.3732
C28I C 0.98305(16) 0.19563(19) 0.42306(15)
H14I H 1.0000 0.1829 0.4354
C29I C 0.94460(14) 0.19330(14) 0.44197(11)
C30I C 0.93096(18) 0.17229(19) 0.47889(12)
H15I H 0.9479 0.1595 0.4912
C31I C 0.89251(18) 0.16996(19) 0.49780(12)
H16I H 0.8832 0.1556 0.5230
C32I C 0.86769(15) 0.18866(19) 0.47978(16)
C33I C 0.88134(14) 0.20968(17) 0.44287(16)
H17I H 0.8644 0.2225 0.4306
C34I C 0.91979(13) 0.21200(11) 0.42395(11)
C35I C 0.93344(17) 0.23302(11) 0.38704(11)
H18I H 0.9165 0.2458 0.3747
C36I C 0.82586(19) 0.1864(3) 0.5000(3)
O15I O 0.7741(3) 0.2589(7) 0.5366(4)
O16I O 0.7891(3) 0.2289(5) 0.5907(4)
O17I O 0.8083(3) 0.4944(4) 0.5385(3)
O18I O 0.8367(3) 0.5383(3) 0.5914(3)
C37I C 0.78716(17) 0.2602(2) 0.5715(3)
C38I C 0.80270(9) 0.30534(18) 0.5934(2)
C39I C 0.81916(13) 0.31166(18) 0.6321(2)
H19I H 0.8209 0.2872 0.6453
C40I C 0.83315(18) 0.3538(2) 0.65131(17)
H20I H 0.8444 0.3581 0.6777
C41I C 0.83068(14) 0.38959(18) 0.63196(15)
C42I C 0.8447(2) 0.43172(19) 0.65121(17)
H21I H 0.8559 0.4360 0.6776
C43I C 0.84219(18) 0.46752(18) 0.6319(2)
H22I H 0.8518 0.4963 0.6450
C44I C 0.82573(16) 0.4612(2) 0.5932(2)
C45I C 0.81175(14) 0.4191(2) 0.57399(17)
H23I H 0.8005 0.4148 0.5476
C46I C 0.81422(10) 0.38327(19) 0.59334(15)
C47I C 0.80023(11) 0.3411(2) 0.57409(17)
H24I H 0.7890 0.3368 0.5477
C48I C 0.8235(2) 0.5008(2) 0.5731(3)
O19I O 0.7014(3) 0.1289(3) 0.4873(4)
O20I O 0.7154(3) 0.1003(4) 0.5404(3)
C49I C 0.69831(7) 0.09512(16) 0.5065(2)
C50I C 0.67353(8) 0.04652(16) 0.48915(18)
C51I C 0.65712(16) 0.0072(2) 0.51310(12)
H25I H 0.6614 0.0107 0.5409
C52I C 0.6344(2) -0.03711(17) 0.49633(9)
H26I H 0.6232 -0.0640 0.5127
C53I C 0.62816(16) -0.04217(14) 0.45562(9)
C54I C 0.6055(2) -0.08649(15) 0.43882(13)
H27I H 0.5943 -0.1134 0.4552
C55I C 0.59921(19) -0.0915(2) 0.39813(14)
H28I H 0.5837 -0.1218 0.3867
C56I C 0.61561(16) -0.0522(3) 0.37416(9)
C57I C 0.63829(13) -0.0079(2) 0.39097(10)
H29I H 0.6495 0.0189 0.3746
C58I C 0.64457(10) -0.00287(15) 0.43167(11)
C59I C 0.66725(8) 0.04146(14) 0.44845(17)
H30I H 0.6785 0.0683 0.4321
C60I C 0.60855(9) -0.05830(12) 0.32995(9)
Mo5J Mo 0.80643(2) 0.55161(3) 0.510675(18)
Mo6J Mo 0.83400(2) 0.59388(3) 0.562083(19)
O9J O 0.72782(16) 0.69164(22) 0.31157(15)
O10J O 0.73843(17) 0.76257(22) 0.31230(15)
O11J O 1.02388(13) 0.63554(21) 0.31176(14)
O12J O 1.09507(13) 0.69522(21) 0.31242(13)
O13J O 0.7992(4) 0.6018(6) 0.4819(6)
O14J O 0.8299(4) 0.6458(6) 0.5343(4)
C25J C 0.74222(10) 0.73036(16) 0.32800(9)
C26J C 0.76466(9) 0.73655(20) 0.36812(9)
C27J C 0.78336(16) 0.78005(23) 0.38615(14)
H13J H 0.7818 0.8048 0.3732
C28J C 0.80437(19) 0.78742(25) 0.42306(15)
H14J H 0.8171 0.8171 0.4354
C29J C 0.80670(14) 0.75130(20) 0.44197(11)
C30J C 0.82771(19) 0.75867(26) 0.47889(12)
H15J H 0.8405 0.7884 0.4912
C31J C 0.83004(19) 0.72255(26) 0.49780(12)
H16J H 0.8444 0.7276 0.5230
C32J C 0.81134(19) 0.67903(24) 0.47978(16)
C33J C 0.79032(17) 0.67166(22) 0.44287(16)
H17J H 0.7775 0.6419 0.4306
C34J C 0.78800(11) 0.70779(17) 0.42395(11)
C35J C 0.76698(11) 0.70042(20) 0.38704(11)
H18J H 0.7542 0.6707 0.3747
C36J C 0.8136(3) 0.63946(36) 0.5000(3)
O15J O 0.7411(7) 0.5152(8) 0.5366(4)
O16J O 0.7711(5) 0.5602(6) 0.5907(4)
O17J O 0.5056(4) 0.3139(5) 0.5385(3)
O18J O 0.4617(3) 0.2984(4) 0.5914(3)
C37J C 0.7398(2) 0.52696(26) 0.5715(3)
C38J C 0.69466(18) 0.49736(20) 0.5934(2)
C39J C 0.68834(18) 0.50750(22) 0.6321(2)
H19J H 0.7128 0.5337 0.6453
C40J C 0.6462(2) 0.47935(27) 0.65131(17)
H20J H 0.6419 0.4863 0.6777
C41J C 0.61041(18) 0.44109(23) 0.63196(15)
C42J C 0.56828(19) 0.41298(28) 0.65121(17)
H21J H 0.5640 0.4199 0.6776
C43J C 0.53248(18) 0.37467(25) 0.6319(2)
H22J H 0.5037 0.3555 0.6450
C44J C 0.5388(2) 0.36453(26) 0.5932(2)
C45J C 0.5809(2) 0.39265(24) 0.57399(17)
H23J H 0.5852 0.3857 0.5476
C46J C 0.61673(19) 0.43095(21) 0.59334(15)
C47J C 0.6589(2) 0.45913(23) 0.57409(17)
H24J H 0.6632 0.4522 0.5477
C48J C 0.4992(2) 0.3227(3) 0.5731(3)
O19J O 0.8711(3) 0.5725(4) 0.4873(4)
O20J O 0.8997(4) 0.6151(5) 0.5404(3)
C49J C 0.90488(16) 0.60319(17) 0.5065(2)
C50J C 0.95348(16) 0.62701(18) 0.48915(18)
C51J C 0.9928(2) 0.64992(26) 0.51310(12)
H25J H 0.9893 0.6507 0.5409
C52J C 1.03711(17) 0.67151(26) 0.49633(9)
H26J H 1.0640 0.6872 0.5127
C53J C 1.04217(14) 0.67033(21) 0.45562(9)
C54J C 1.08649(15) 0.69199(25) 0.43882(13)
H27J H 1.1134 0.7077 0.4552
C55J C 1.0915(2) 0.69071(28) 0.39813(14)
H28J H 1.1218 0.7055 0.3867
C56J C 1.0522(3) 0.66781(34) 0.37416(9)
C57J C 1.0079(2) 0.64619(24) 0.39097(10)
H29J H 0.9811 0.6306 0.3746
C58J C 1.00287(15) 0.64744(18) 0.43167(11)
C59J C 0.95854(14) 0.62579(16) 0.44845(17)
H30J H 0.9317 0.6102 0.4321
C60J C 1.05830(12) 0.66685(15) 0.32995(9)
Mo5K Mo 0.44839(3) 0.25482(2) 0.510675(18)
Mo6K Mo 0.40612(3) 0.24012(2) 0.562083(19)
O9K O 0.30836(22) 0.03618(15) 0.31157(15)
O10K O 0.23743(22) -0.02414(14) 0.31230(15)
O11K O 0.36446(21) 0.38834(16) 0.31176(14)
O12K O 0.30478(21) 0.39985(16) 0.31242(13)
O13K O 0.3982(6) 0.1974(4) 0.4819(6)
O14K O 0.3542(6) 0.1841(4) 0.5343(4)
C25K C 0.26964(16) 0.01186(12) 0.32800(9)
C26K C 0.26345(20) 0.02811(18) 0.36812(9)
C27K C 0.21995(23) 0.00331(17) 0.38615(14)
H13K H 0.1952 -0.0230 0.3732
C28K C 0.21258(25) 0.01695(16) 0.42306(15)
H14K H 0.1829 0.0000 0.4354
C29K C 0.24870(20) 0.05540(14) 0.44197(11)
C30K C 0.24133(26) 0.06904(18) 0.47889(12)
H15K H 0.2116 0.0521 0.4912
C31K C 0.27745(26) 0.10749(18) 0.49780(12)
H16K H 0.2724 0.1168 0.5230
C32K C 0.32097(24) 0.13231(15) 0.47978(16)
C33K C 0.32834(22) 0.11866(14) 0.44287(16)
H17K H 0.3581 0.1356 0.4306
C34K C 0.29221(17) 0.08021(13) 0.42395(11)
C35K C 0.29958(20) 0.06656(17) 0.38704(11)
H18K H 0.3293 0.0835 0.3747
C36K C 0.36054(36) 0.17414(19) 0.5000(3)
O15K O 0.4848(8) 0.2259(3) 0.5366(4)
O16K O 0.4398(6) 0.2109(3) 0.5907(4)
O17K O 0.6861(5) 0.1917(3) 0.5385(3)
O18K O 0.7016(4) 0.1633(3) 0.5914(3)
C37K C 0.47304(26) 0.21284(17) 0.5715(3)
C38K C 0.50264(20) 0.19730(9) 0.5934(2)
C39K C 0.49250(22) 0.18084(13) 0.6321(2)
H19K H 0.4663 0.1791 0.6453
C40K C 0.52065(27) 0.16685(18) 0.65131(17)
H20K H 0.5137 0.1556 0.6777
C41K C 0.55891(23) 0.16932(14) 0.63196(15)
C42K C 0.58702(28) 0.1553(2) 0.65121(17)
H21K H 0.5801 0.1441 0.6776
C43K C 0.62533(25) 0.15781(18) 0.6319(2)
H22K H 0.6445 0.1482 0.6450
C44K C 0.63547(26) 0.17427(16) 0.5932(2)
C45K C 0.60735(24) 0.18825(14) 0.57399(17)
H23K H 0.6143 0.1995 0.5476
C46K C 0.56905(21) 0.18578(10) 0.59334(15)
C47K C 0.54087(23) 0.19977(11) 0.57409(17)
H24K H 0.5478 0.2110 0.5477
C48K C 0.6773(3) 0.1765(2) 0.5731(3)
O19K O 0.4275(4) 0.2986(3) 0.4873(4)
O20K O 0.3849(5) 0.2846(3) 0.5404(3)
C49K C 0.39681(17) 0.30169(7) 0.5065(2)
C50K C 0.37299(18) 0.32647(8) 0.48915(18)
C51K C 0.35008(26) 0.34288(16) 0.51310(12)
H25K H 0.3493 0.3386 0.5409
C52K C 0.32849(26) 0.3656(2) 0.49633(9)
H26K H 0.3128 0.3768 0.5127
C53K C 0.32967(21) 0.37184(16) 0.45562(9)
C54K C 0.30801(25) 0.3945(2) 0.43882(13)
H27K H 0.2923 0.4057 0.4552
C55K C 0.30929(28) 0.40079(19) 0.39813(14)
H28K H 0.2945 0.4163 0.3867
C56K C 0.33219(34) 0.38439(16) 0.37416(9)
C57K C 0.35381(24) 0.36171(13) 0.39097(10)
H29K H 0.3694 0.3505 0.3746
C58K C 0.35256(18) 0.35543(10) 0.43167(11)
C59K C 0.37421(16) 0.33275(8) 0.44845(17)
H30K H 0.3898 0.3215 0.4321
C60K C 0.33315(15) 0.39145(9) 0.32995(9)
loop_
_geom_bond_atom_site_label_1
_geom_bond_atom_site_label_2
_geom_bond_site_symmetry_1
_geom_bond_site_symmetry_2
Mo1 Mo2 1_555 1_555
Mo2 O4 1_555 1_555
Mo3 Mo4 1_555 1_555
Mo4 O2 1_555 1_555
Mo5 Mo6 1_555 1_555
Mo6 O14 1_555 1_555
O1 Mo3 1_555 1_555
O2 C1 1_555 1_555
O3 Mo1 1_555 1_555
O4 C12 1_555 1_555
O5 C13 1_555 1_555
O6 C13 1_555 1_555
O7 Mo3 1_555 1_555
O8 Mo4 1_555 1_555
O9 Mo3 1_555 1_555
O10 Mo4 1_555 1_555
O11 Mo1 1_555 1_555
O12 Mo2 1_555 1_555
C1 O1 1_555 1_555
C2 C1 1_555 1_555
C3 C2 1_555 1_555
H1 C3 1_555 1_555
C4 C3 1_555 1_555
H2 C4 1_555 1_555
C5 C4 1_555 1_555
C6 C5 1_555 1_555
H3 C6 1_555 1_555
C7 C6 1_555 1_555
H4 C7 1_555 1_555
C8 C7 1_555 1_555
C9 C8 1_555 1_555
H5 C9 1_555 1_555
C10 C5 1_555 1_555
C11 C2 1_555 1_555
H6 C11 1_555 1_555
C12 O3 1_555 1_555
C13 C14 1_555 1_555
C14 C15 1_555 1_555
C15 H7 1_555 1_555
C16 C15 1_555 1_555
H8 C16 1_555 1_555
C17 C16 1_555 1_555
C18 C17 1_555 1_555
H9 C18 1_555 1_555
C19 C18 1_555 1_555
H10 C19 1_555 1_555
C20 C19 1_555 1_555
C21 C20 1_555 1_555
H11 C21 1_555 1_555
C22 C17 1_555 1_555
C23 C14 1_555 1_555
H12 C23 1_555 1_555
C24 O7 1_555 1_555
O13 Mo5 1_555 1_555
O14 C36 1_555 1_555
C25 O9 1_555 1_555
C26 C25 1_555 1_555
C27 C26 1_555 1_555
H13 C27 1_555 1_555
C28 C27 1_555 1_555
H14 C28 1_555 1_555
C29 C28 1_555 1_555
C30 C29 1_555 1_555
H15 C30 1_555 1_555
C31 C30 1_555 1_555
H16 C31 1_555 1_555
C32 C31 1_555 1_555
C33 C32 1_555 1_555
H17 C33 1_555 1_555
C34 C29 1_555 1_555
C35 C26 1_555 1_555
H18 C35 1_555 1_555
C36 O13 1_555 1_555
O15 Mo5 1_555 1_555
O16 Mo6 1_555 1_555
O17 C48 1_555 1_555
O18 C48 1_555 1_555
C37 O15 1_555 1_555
C38 C37 1_555 1_555
C39 C38 1_555 1_555
H19 C39 1_555 1_555
C40 C39 1_555 1_555
H20 C40 1_555 1_555
C41 C40 1_555 1_555
C42 C41 1_555 1_555
H21 C42 1_555 1_555
C43 C42 1_555 1_555
H22 C43 1_555 1_555
C44 C43 1_555 1_555
C45 C44 1_555 1_555
H23 C45 1_555 1_555
C46 C41 1_555 1_555
C47 C38 1_555 1_555
H24 C47 1_555 1_555
C48 C44 1_555 1_555
O19 Mo5 1_555 1_555
O20 Mo6 1_555 1_555
C49 O19 1_555 1_555
C50 C49 1_555 1_555
C51 C50 1_555 1_555
H25 C51 1_555 1_555
C52 C51 1_555 1_555
H26 C52 1_555 1_555
C53 C52 1_555 1_555
C54 C53 1_555 1_555
H27 C54 1_555 1_555
C55 C54 1_555 1_555
H28 C55 1_555 1_555
C56 C55 1_555 1_555
C57 C56 1_555 1_555
H29 C57 1_555 1_555
C58 C53 1_555 1_555
C59 C50 1_555 1_555
H30 C59 1_555 1_555
C60 O11 1_555 1_555
Mo1A O5 1_555 1_555
Mo2A O6 1_555 1_555
Mo3A Mo4A 1_555 1_555
Mo4A O2A 1_555 1_555
Mo5A O17 1_555 1_555
Mo6A O18 1_555 1_555
O1A Mo3A 1_555 1_555
O2A C1A 1_555 1_555
O3A Mo1A 1_555 1_555
O4A Mo2A 1_555 1_555
O5A C13A 1_555 1_555
O6A C13A 1_555 1_555
O7A Mo3A 1_555 1_555
O8A Mo4A 1_555 1_555
O9A Mo3A 1_555 1_555
O10A Mo4A 1_555 1_555
O11A Mo1A 1_555 1_555
O12A Mo2A 1_555 1_555
C1A O1A 1_555 1_555
C2A C1A 1_555 1_555
C3A C2A 1_555 1_555
H1A C3A 1_555 1_555
C4A C3A 1_555 1_555
H2A C4A 1_555 1_555
C5A C4A 1_555 1_555
C6A C5A 1_555 1_555
H3A C6A 1_555 1_555
C7A C6A 1_555 1_555
H4A C7A 1_555 1_555
C8A C7A 1_555 1_555
C9A C8A 1_555 1_555
H5A C9A 1_555 1_555
C10A C5A 1_555 1_555
C11A C2A 1_555 1_555
H6A C11A 1_555 1_555
C12A O3A 1_555 1_555
C13A C14A 1_555 1_555
C14A C15A 1_555 1_555
C15A H7A 1_555 1_555
C16A C15A 1_555 1_555
H8A C16A 1_555 1_555
C17A C16A 1_555 1_555
C18A C17A 1_555 1_555
H9A C18A 1_555 1_555
C19A C18A 1_555 1_555
H10A C19A 1_555 1_555
C20A C19A 1_555 1_555
C21A C20A 1_555 1_555
H11A C21A 1_555 1_555
C22A C17A 1_555 1_555
C23A C14A 1_555 1_555
H12A C23A 1_555 1_555
C24A O7A 1_555 1_555
O13A Mo5A 1_555 1_555
O14A Mo6A 1_555 1_555
C25A O9A 1_555 1_555
C26A C25A 1_555 1_555
C27A C26A 1_555 1_555
H13A C27A 1_555 1_555
C28A C27A 1_555 1_555
H14A C28A 1_555 1_555
C29A C28A 1_555 1_555
C30A C29A 1_555 1_555
H15A C30A 1_555 1_555
C31A C30A 1_555 1_555
H16A C31A 1_555 1_555
C32A C31A 1_555 1_555
C33A C32A 1_555 1_555
H17A C33A 1_555 1_555
C34A C29A 1_555 1_555
C35A C26A 1_555 1_555
H18A C35A 1_555 1_555
C36A O13A 1_555 1_555
O15A Mo5A 1_555 1_555
O16A Mo6A 1_555 1_555
O17A C48A 1_555 1_555
O18A C48A 1_555 1_555
C37A O15A 1_555 1_555
C38A C37A 1_555 1_555
C39A C38A 1_555 1_555
H19A C39A 1_555 1_555
C40A C39A 1_555 1_555
H20A C40A 1_555 1_555
C41A C40A 1_555 1_555
C42A C41A 1_555 1_555
H21A C42A 1_555 1_555
C43A C42A 1_555 1_555
H22A C43A 1_555 1_555
C44A C43A 1_555 1_555
C45A C44A 1_555 1_555
H23A C45A 1_555 1_555
C46A C41A 1_555 1_555
C47A C38A 1_555 1_555
H24A C47A 1_555 1_555
C48A C44A 1_555 1_555
O19A Mo5A 1_555 1_555
O20A Mo6A 1_555 1_555
C49A O19A 1_555 1_555
C50A C49A 1_555 1_555
C51A C50A 1_555 1_555
H25A C51A 1_555 1_555
C52A C51A 1_555 1_555
H26A C52A 1_555 1_555
C53A C52A 1_555 1_555
C54A C53A 1_555 1_555
H27A C54A 1_555 1_555
C55A C54A 1_555 1_555
H28A C55A 1_555 1_555
C56A C55A 1_555 1_555
C57A C56A 1_555 1_555
H29A C57A 1_555 1_555
C58A C53A 1_555 1_555
C59A C50A 1_555 1_555
H30A C59A 1_555 1_555
C60A O11A 1_555 1_555
Mo1B O5A 1_555 1_555
Mo2B O6A 1_555 1_555
Mo3B Mo4B 1_555 1_555
Mo4B O2B 1_555 1_555
Mo5B O17A 1_555 1_555
Mo6B O18A 1_555 1_555
O1B Mo3B 1_555 1_555
O2B C1B 1_555 1_555
O3B Mo1B 1_555 1_555
O4B Mo2B 1_555 1_555
O5B Mo1 1_555 1_555
O6B Mo2 1_555 1_555
O7B Mo3B 1_555 1_555
O8B Mo4B 1_555 1_555
O9B Mo3B 1_555 1_555
O10B Mo4B 1_555 1_555
O11B Mo1B 1_555 1_555
O12B Mo2B 1_555 1_555
C1B O1B 1_555 1_555
C2B C1B 1_555 1_555
C3B C2B 1_555 1_555
H1B C3B 1_555 1_555
C4B C3B 1_555 1_555
H2B C4B 1_555 1_555
C5B C4B 1_555 1_555
C6B C5B 1_555 1_555
H3B C6B 1_555 1_555
C7B C6B 1_555 1_555
H4B C7B 1_555 1_555
C8B C7B 1_555 1_555
C9B C8B 1_555 1_555
H5B C9B 1_555 1_555
C10B C5B 1_555 1_555
C11B C2B 1_555 1_555
H6B C11B 1_555 1_555
C12B O3B 1_555 1_555
C13B O5B 1_555 1_555
C14B C13B 1_555 1_555
C15B C14B 1_555 1_555
H7B C15B 1_555 1_555
C16B C15B 1_555 1_555
H8B C16B 1_555 1_555
C17B C16B 1_555 1_555
C18B C17B 1_555 1_555
H9B C18B 1_555 1_555
C19B C18B 1_555 1_555
H10B C19B 1_555 1_555
C20B C19B 1_555 1_555
C21B C20B 1_555 1_555
H11B C21B 1_555 1_555
C22B C17B 1_555 1_555
C23B C14B 1_555 1_555
H12B C23B 1_555 1_555
C24B O7B 1_555 1_555
O13B Mo5B 1_555 1_555
O14B Mo6B 1_555 1_555
C25B O9B 1_555 1_555
C26B C25B 1_555 1_555
C27B C26B 1_555 1_555
H13B C27B 1_555 1_555
C28B C27B 1_555 1_555
H14B C28B 1_555 1_555
C29B C28B 1_555 1_555
C30B C29B 1_555 1_555
H15B C30B 1_555 1_555
C31B C30B 1_555 1_555
H16B C31B 1_555 1_555
C32B C31B 1_555 1_555
C33B C32B 1_555 1_555
H17B C33B 1_555 1_555
C34B C29B 1_555 1_555
C35B C26B 1_555 1_555
H18B C35B 1_555 1_555
C36B O13B 1_555 1_555
O15B Mo5B 1_555 1_555
O16B Mo6B 1_555 1_555
O17B Mo5 1_555 1_555
O18B Mo6 1_555 1_555
C37B O15B 1_555 1_555
C38B C37B 1_555 1_555
C39B C38B 1_555 1_555
H19B C39B 1_555 1_555
C40B C39B 1_555 1_555
H20B C40B 1_555 1_555
C41B C40B 1_555 1_555
C42B C41B 1_555 1_555
H21B C42B 1_555 1_555
C43B C42B 1_555 1_555
H22B C43B 1_555 1_555
C44B C43B 1_555 1_555
C45B C44B 1_555 1_555
H23B C45B 1_555 1_555
C46B C41B 1_555 1_555
C47B C38B 1_555 1_555
H24B C47B 1_555 1_555
C48B O17B 1_555 1_555
O19B Mo5B 1_555 1_555
O20B Mo6B 1_555 1_555
C49B O19B 1_555 1_555
C50B C49B 1_555 1_555
C51B C50B 1_555 1_555
H25B C51B 1_555 1_555
C52B C51B 1_555 1_555
H26B C52B 1_555 1_555
C53B C52B 1_555 1_555
C54B C53B 1_555 1_555
H27B C54B 1_555 1_555
C55B C54B 1_555 1_555
H28B C55B 1_555 1_555
C56B C55B 1_555 1_555
C57B C56B 1_555 1_555
H29B C57B 1_555 1_555
C58B C53B 1_555 1_555
C59B C50B 1_555 1_555
H30B C59B 1_555 1_555
C60B O11B 1_555 1_555
Mo5I Mo6I 1_555 1_555
Mo6I O14I 1_555 1_555
O9I Mo3 1_555 1_555
O10I Mo4 1_555 1_555
O11I Mo1 1_555 1_555
O12I Mo2 1_555 1_555
O13I Mo5I 1_555 1_555
O14I C36I 1_555 1_555
C25I O9I 1_555 1_555
C26I C25I 1_555 1_555
C27I C26I 1_555 1_555
H13I C27I 1_555 1_555
C28I C27I 1_555 1_555
H14I C28I 1_555 1_555
C29I C28I 1_555 1_555
C30I C29I 1_555 1_555
H15I C30I 1_555 1_555
C31I C30I 1_555 1_555
H16I C31I 1_555 1_555
C32I C31I 1_555 1_555
C33I C32I 1_555 1_555
H17I C33I 1_555 1_555
C34I C29I 1_555 1_555
C35I C26I 1_555 1_555
H18I C35I 1_555 1_555
C36I O13I 1_555 1_555
O15I Mo5I 1_555 1_555
O16I Mo6I 1_555 1_555
O17I C48I 1_555 1_555
O18I C48I 1_555 1_555
C37I O15I 1_555 1_555
C38I C37I 1_555 1_555
C39I C38I 1_555 1_555
H19I C39I 1_555 1_555
C40I C39I 1_555 1_555
H20I C40I 1_555 1_555
C41I C40I 1_555 1_555
C42I C41I 1_555 1_555
H21I C42I 1_555 1_555
C43I C42I 1_555 1_555
H22I C43I 1_555 1_555
C44I C43I 1_555 1_555
C45I C44I 1_555 1_555
H23I C45I 1_555 1_555
C46I C41I 1_555 1_555
C47I C38I 1_555 1_555
H24I C47I 1_555 1_555
C48I C44I 1_555 1_555
O19I Mo5I 1_555 1_555
O20I Mo6I 1_555 1_555
C49I O19I 1_555 1_555
C50I C49I 1_555 1_555
C51I C50I 1_555 1_555
H25I C51I 1_555 1_555
C52I C51I 1_555 1_555
H26I C52I 1_555 1_555
C53I C52I 1_555 1_555
C54I C53I 1_555 1_555
H27I C54I 1_555 1_555
C55I C54I 1_555 1_555
H28I C55I 1_555 1_555
C56I C55I 1_555 1_555
C57I C56I 1_555 1_555
H29I C57I 1_555 1_555
C58I C53I 1_555 1_555
C59I C50I 1_555 1_555
H30I C59I 1_555 1_555
C60I O11I 1_555 1_555
Mo5J O17I 1_555 1_555
Mo6J O18I 1_555 1_555
O9J Mo3A 1_555 1_555
O10J Mo4A 1_555 1_555
O11J Mo1A 1_555 1_555
O12J Mo2A 1_555 1_555
O13J Mo5J 1_555 1_555
O14J Mo6J 1_555 1_555
C25J O9J 1_555 1_555
C26J C25J 1_555 1_555
C27J C26J 1_555 1_555
H13J C27J 1_555 1_555
C28J C27J 1_555 1_555
H14J C28J 1_555 1_555
C29J C28J 1_555 1_555
C30J C29J 1_555 1_555
H15J C30J 1_555 1_555
C31J C30J 1_555 1_555
H16J C31J 1_555 1_555
C32J C31J 1_555 1_555
C33J C32J 1_555 1_555
H17J C33J 1_555 1_555
C34J C29J 1_555 1_555
C35J C26J 1_555 1_555
H18J C35J 1_555 1_555
C36J O13J 1_555 1_555
O15J Mo5J 1_555 1_555
O16J Mo6J 1_555 1_555
O17J C48J 1_555 1_555
O18J C48J 1_555 1_555
C37J O15J 1_555 1_555
C38J C37J 1_555 1_555
C39J C38J 1_555 1_555
H19J C39J 1_555 1_555
C40J C39J 1_555 1_555
H20J C40J 1_555 1_555
C41J C40J 1_555 1_555
C42J C41J 1_555 1_555
H21J C42J 1_555 1_555
C43J C42J 1_555 1_555
H22J C43J 1_555 1_555
C44J C43J 1_555 1_555
C45J C44J 1_555 1_555
H23J C45J 1_555 1_555
C46J C41J 1_555 1_555
C47J C38J 1_555 1_555
H24J C47J 1_555 1_555
C48J C44J 1_555 1_555
O19J Mo5J 1_555 1_555
O20J Mo6J 1_555 1_555
C49J O19J 1_555 1_555
C50J C49J 1_555 1_555
C51J C50J 1_555 1_555
H25J C51J 1_555 1_555
C52J C51J 1_555 1_555
H26J C52J 1_555 1_555
C53J C52J 1_555 1_555
C54J C53J 1_555 1_555
H27J C54J 1_555 1_555
C55J C54J 1_555 1_555
H28J C55J 1_555 1_555
C56J C55J 1_555 1_555
C57J C56J 1_555 1_555
H29J C57J 1_555 1_555
C58J C53J 1_555 1_555
C59J C50J 1_555 1_555
H30J C59J 1_555 1_555
C60J O11J 1_555 1_555
Mo5K O17J 1_555 1_555
Mo6K O18J 1_555 1_555
O9K Mo3B 1_555 1_555
O10K Mo4B 1_555 1_555
O11K Mo1B 1_555 1_555
O12K Mo2B 1_555 1_555
O13K Mo5K 1_555 1_555
O14K Mo6K 1_555 1_555
C25K O9K 1_555 1_555
C26K C25K 1_555 1_555
C27K C26K 1_555 1_555
H13K C27K 1_555 1_555
C28K C27K 1_555 1_555
H14K C28K 1_555 1_555
C29K C28K 1_555 1_555
C30K C29K 1_555 1_555
H15K C30K 1_555 1_555
C31K C30K 1_555 1_555
H16K C31K 1_555 1_555
C32K C31K 1_555 1_555
C33K C32K 1_555 1_555
H17K C33K 1_555 1_555
C34K C29K 1_555 1_555
C35K C26K 1_555 1_555
H18K C35K 1_555 1_555
C36K O13K 1_555 1_555
O15K Mo5K 1_555 1_555
O16K Mo6K 1_555 1_555
O17K Mo5I 1_555 1_555
O18K Mo6I 1_555 1_555
C37K O15K 1_555 1_555
C38K C37K 1_555 1_555
C39K C38K 1_555 1_555
H19K C39K 1_555 1_555
C40K C39K 1_555 1_555
H20K C40K 1_555 1_555
C41K C40K 1_555 1_555
C42K C41K 1_555 1_555
H21K C42K 1_555 1_555
C43K C42K 1_555 1_555
H22K C43K 1_555 1_555
C44K C43K 1_555 1_555
C45K C44K 1_555 1_555
H23K C45K 1_555 1_555
C46K C41K 1_555 1_555
C47K C38K 1_555 1_555
H24K C47K 1_555 1_555
C48K O17K 1_555 1_555
O19K Mo5K 1_555 1_555
O20K Mo6K 1_555 1_555
C49K O19K 1_555 1_555
C50K C49K 1_555 1_555
C51K C50K 1_555 1_555
H25K C51K 1_555 1_555
C52K C51K 1_555 1_555
H26K C52K 1_555 1_555
C53K C52K 1_555 1_555
C54K C53K 1_555 1_555
H27K C54K 1_555 1_555
C55K C54K 1_555 1_555
H28K C55K 1_555 1_555
C56K C55K 1_555 1_555
C57K C56K 1_555 1_555
H29K C57K 1_555 1_555
C58K C53K 1_555 1_555
C59K C50K 1_555 1_555
H30K C59K 1_555 1_555
C60K O11K 1_555 1_555
O8 C24 1_555 1_555
O10 C25 1_555 1_555
O12 C60 1_555 1_555
C8 C12 1_555 1_555
C9 C10 1_555 1_555
C10 C11 1_555 1_555
C20 C24 1_555 1_555
C21 C22 1_555 1_555
C22 C23 1_555 1_555
C32 C36 1_555 1_555
C33 C34 1_555 1_555
C34 C35 1_555 1_555
O16 C37 1_555 1_555
C45 C46 1_555 1_555
C46 C47 1_555 1_555
O20 C49 1_555 1_555
C56 C60 1_555 1_555
C57 C58 1_555 1_555
C58 C59 1_555 1_555
Mo1A Mo2A 1_555 1_555
Mo5A Mo6A 1_555 1_555
O4A C12A 1_555 1_555
O8A C24A 1_555 1_555
O10A C25A 1_555 1_555
O12A C60A 1_555 1_555
C8A C12A 1_555 1_555
C9A C10A 1_555 1_555
C10A C11A 1_555 1_555
C20A C24A 1_555 1_555
C21A C22A 1_555 1_555
C22A C23A 1_555 1_555
O14A C36A 1_555 1_555
C32A C36A 1_555 1_555
C33A C34A 1_555 1_555
C34A C35A 1_555 1_555
O16A C37A 1_555 1_555
C45A C46A 1_555 1_555
C46A C47A 1_555 1_555
O20A C49A 1_555 1_555
C56A C60A 1_555 1_555
C57A C58A 1_555 1_555
C58A C59A 1_555 1_555
Mo1B Mo2B 1_555 1_555
Mo5B Mo6B 1_555 1_555
O4B C12B 1_555 1_555
O6B C13B 1_555 1_555
O8B C24B 1_555 1_555
O10B C25B 1_555 1_555
O12B C60B 1_555 1_555
C8B C12B 1_555 1_555
C9B C10B 1_555 1_555
C10B C11B 1_555 1_555
C20B C24B 1_555 1_555
C21B C22B 1_555 1_555
C22B C23B 1_555 1_555
O14B C36B 1_555 1_555
C32B C36B 1_555 1_555
C33B C34B 1_555 1_555
C34B C35B 1_555 1_555
O16B C37B 1_555 1_555
O18B C48B 1_555 1_555
C44B C48B 1_555 1_555
C45B C46B 1_555 1_555
C46B C47B 1_555 1_555
O20B C49B 1_555 1_555
C56B C60B 1_555 1_555
C57B C58B 1_555 1_555
C58B C59B 1_555 1_555
O10I C25I 1_555 1_555
O12I C60I 1_555 1_555
C32I C36I 1_555 1_555
C33I C34I 1_555 1_555
C34I C35I 1_555 1_555
O16I C37I 1_555 1_555
C45I C46I 1_555 1_555
C46I C47I 1_555 1_555
O20I C49I 1_555 1_555
C56I C60I 1_555 1_555
C57I C58I 1_555 1_555
C58I C59I 1_555 1_555
Mo5J Mo6J 1_555 1_555
O10J C25J 1_555 1_555
O12J C60J 1_555 1_555
O14J C36J 1_555 1_555
C32J C36J 1_555 1_555
C33J C34J 1_555 1_555
C34J C35J 1_555 1_555
O16J C37J 1_555 1_555
C45J C46J 1_555 1_555
C46J C47J 1_555 1_555
O20J C49J 1_555 1_555
C56J C60J 1_555 1_555
C57J C58J 1_555 1_555
C58J C59J 1_555 1_555
Mo5K Mo6K 1_555 1_555
O10K C25K 1_555 1_555
O12K C60K 1_555 1_555
O14K C36K 1_555 1_555
C32K C36K 1_555 1_555
C33K C34K 1_555 1_555
C34K C35K 1_555 1_555
O16K C37K 1_555 1_555
O18K C48K 1_555 1_555
C44K C48K 1_555 1_555
C45K C46K 1_555 1_555
C46K C47K 1_555 1_555
O20K C49K 1_555 1_555
C56K C60K 1_555 1_555
C57K C58K 1_555 1_555
C58K C59K 1_555 1_555

#END
