
#######################################################################
#
#                 Cambridge Crystallographic Data Centre
#                                CCDC 
#
#######################################################################
#
# If this CIF has been generated from an entry in the Cambridge 
# Structural Database, then it will include bibliographic, chemical, 
# crystal, experimental, refinement or atomic coordinate data resulting 
# from the CCDC's data processing and validation procedures.
#
#######################################################################

data_XUXJUX
_chemical_formula_moiety         'C138 H120 N36 Ni4 O6 2+,O4 S1 2-'
_chemical_name_systematic        
"hexakis(\m-1,3-bis(2,2'-bipyridin-5-ylmethyl)urea)-tetra-nickel sulfate unknown solvate"
_symmetry_cell_setting           rhombohedral
_symmetry_space_group_name_H-M   'R 3'
_symmetry_Int_Tables_number      146
_space_group_name_Hall           'R 3'
loop_
_symmetry_equiv_pos_site_id
_symmetry_equiv_pos_as_xyz
1 x,y,z
2 -y,x-y,z
3 -x+y,-x,z
4 2/3+x,1/3+y,1/3+z
5 2/3-y,1/3+x-y,1/3+z
6 2/3-x+y,1/3-x,1/3+z
7 1/3+x,2/3+y,2/3+z
8 1/3-y,2/3+x-y,2/3+z
9 1/3-x+y,2/3-x,2/3+z
_cell_length_a                   27.4685(19)
_cell_length_b                   27.4685(19)
_cell_length_c                   19.581(3)
_cell_angle_alpha                90
_cell_angle_beta                 90
_cell_angle_gamma                120
_cell_volume                     12794.9
_cell_formula_units_Z            3
loop_
_atom_site_label
_atom_site_type_symbol
_atom_site_fract_x
_atom_site_fract_y
_atom_site_fract_z
Ni1 Ni 0.3333 0.6667 -0.01496(8)
Ni2 Ni 0.52265(4) 0.94426(3) 0.47281(6)
O1 O 0.4712(2) 0.8583(2) 0.1892(3)
O2 O 0.26566(18) 0.78866(19) 0.5278(2)
N1 N 0.2623(4) 0.6545(4) -0.0695(4)
N2 N 0.3128(3) 0.7180(3) 0.0375(3)
N3 N 0.3812(3) 0.7963(2) 0.2265(3)
H1 H 0.3607 0.7685 0.2546
N4 N 0.4565(3) 0.7856(2) 0.2578(3)
H2 H 0.4314 0.7557 0.2801
N5 N 0.2962(2) 0.7778(2) 0.4227(3)
H3 H 0.3056 0.7571 0.3978
N6 N 0.28656(19) 0.7212(2) 0.5122(3)
H4 H 0.3009 0.7063 0.4845
C1 C 0.2415(5) 0.6240(5) -0.1282(5)
H5 H 0.2613 0.6078 -0.1490
C2 C 0.1924(6) 0.6161(7) -0.1579(6)
H6 H 0.1758 0.5917 -0.1958
C3 C 0.1689(6) 0.6451(6) -0.1301(7)
H7 H 0.1372 0.6436 -0.1517
C4 C 0.1897(5) 0.6759(5) -0.0727(5)
H8 H 0.1702 0.6925 -0.0522
C5 C 0.2389(4) 0.6838(4) -0.0431(5)
C6 C 0.2661(4) 0.7183(4) 0.0168(4)
C7 C 0.2474(4) 0.7501(5) 0.0499(5)
H9 H 0.2143 0.7490 0.0336
C8 C 0.2743(4) 0.7832(3) 0.1049(4)
H10 H 0.2615 0.8060 0.1258
C9 C 0.3215(3) 0.7820(3) 0.1290(4)
C10 C 0.3381(3) 0.7494(3) 0.0928(4)
H11 H 0.3707 0.7493 0.1088
C11 C 0.3538(3) 0.8198(3) 0.1893(4)
H12 H 0.3819 0.8575 0.1723
H13 H 0.3274 0.8242 0.2197
C12 C 0.4397(4) 0.8144(4) 0.2219(4)
N7 N 0.5975(3) 0.9654(3) 0.5204(4)
C13 C 0.6179(4) 1.0001(3) 0.5766(5)
H14 H 0.5972 1.0150 0.5979
C14 C 0.6705(5) 1.0121(5) 0.6004(6)
H15 H 0.6858 1.0355 0.6394
C15 C 0.7010(4) 0.9913(5) 0.5693(7)
H16 H 0.7365 1.0000 0.5875
C16 C 0.6808(3) 0.9579(5) 0.5118(6)
H17 H 0.7031 0.9464 0.4871
C17 C 0.6257(4) 0.9416(4) 0.4915(5)
N8 N 0.5494(3) 0.8981(2) 0.4152(3)
C18 C 0.5992(3) 0.9044(3) 0.4357(4)
C19 C 0.6225(3) 0.8779(3) 0.3997(5)
H18 H 0.6579 0.8830 0.4137
C20 C 0.5960(4) 0.8443(3) 0.3442(5)
H19 H 0.6131 0.8271 0.3194
C21 C 0.5439(3) 0.8360(3) 0.3252(3)
C22 C 0.5236(3) 0.8649(3) 0.3614(4)
H20 H 0.4887 0.8610 0.3474
C23 C 0.5128(3) 0.8006(3) 0.2619(3)
H21 H 0.5323 0.8221 0.2203
H22 H 0.5153 0.7659 0.2622
N9 N 0.5583(3) 1.0089(2) 0.4004(3)
C24 C 0.6131(3) 1.0496(3) 0.3937(6)
H23 H 0.6392 1.0517 0.4271
C25 C 0.6332(4) 1.0886(3) 0.3398(7)
H24 H 0.6714 1.1179 0.3381
C26 C 0.5953(5) 1.0828(4) 0.2892(7)
H25 H 0.6071 1.1060 0.2498
C27 C 0.5418(4) 1.0435(4) 0.2978(5)
H26 H 0.5152 1.0415 0.2652
C28 C 0.5222(3) 1.0054(3) 0.3511(5)
N10 N 0.4538(2) 0.9238(2) 0.4114(3)
C29 C 0.4648(3) 0.9603(3) 0.3605(4)
C30 C 0.4222(4) 0.9544(3) 0.3169(4)
H27 H 0.4305 0.9804 0.2805
C31 C 0.3681(3) 0.9110(3) 0.3264(4)
H28 H 0.3389 0.9055 0.2960
C32 C 0.3574(3) 0.8759(3) 0.3807(3)
C33 C 0.4003(3) 0.8825(2) 0.4200(3)
H29 H 0.3924 0.8565 0.4561
C34 C 0.2969(2) 0.8269(3) 0.3912(4)
H30 H 0.2761 0.8396 0.4209
H31 H 0.2774 0.8158 0.3466
C35 C 0.2810(3) 0.7631(3) 0.4911(4)
N11 N 0.0135(3) 0.5137(3) 0.5431(4)
C36 C -0.0408(4) 0.4708(5) 0.5376(6)
H32 H -0.0629 0.4693 0.4995
C37 C -0.0632(5) 0.4303(5) 0.5865(8)
H33 H -0.1003 0.3996 0.5810
C38 C -0.0330(5) 0.4331(5) 0.6438(8)
H34 H -0.0496 0.4056 0.6787
C39 C 0.0223(4) 0.4769(5) 0.6502(5)
H35 H 0.0439 0.4803 0.6897
C40 C 0.0448(4) 0.5153(4) 0.5969(5)
N12 N 0.1180(3) 0.5945(3) 0.5421(3)
C41 C 0.1045(3) 0.5618(3) 0.5984(5)
C42 C 0.1434(4) 0.5701(3) 0.6470(4)
H36 H 0.1326 0.5453 0.6850
C43 C 0.1991(4) 0.6145(3) 0.6422(4)
H37 H 0.2258 0.6207 0.6769
C44 C 0.2139(3) 0.6488(3) 0.5856(4)
C45 C 0.1715(3) 0.6358(3) 0.5392(4)
H38 H 0.1815 0.6593 0.5000
C46 C 0.2694(3) 0.6983(3) 0.5814(3)
H39 H 0.2972 0.6887 0.5995
H40 H 0.2704 0.7279 0.6111
Ni2A Ni 0.05574(3) 0.57839(5) 0.47281(6)
O1A O 0.1417(2) 0.6129(3) 0.1892(3)
O2A O 0.21134(19) 0.47700(26) 0.5278(2)
N1A N 0.3455(4) 0.6078(6) -0.0695(4)
N2A N 0.2820(3) 0.5948(4) 0.0375(3)
N3A N 0.2037(2) 0.5849(4) 0.2265(3)
H1A H 0.2315 0.5922 0.2546
N4A N 0.2144(2) 0.6709(4) 0.2578(3)
H2A H 0.2443 0.6757 0.2801
N5A N 0.2222(2) 0.5184(3) 0.4227(3)
H3A H 0.2429 0.5485 0.3978
N6A N 0.2788(2) 0.56536(28) 0.5122(3)
H4A H 0.2937 0.5946 0.4845
C1A C 0.3760(5) 0.6175(7) -0.1282(5)
H5A H 0.3922 0.6535 -0.1490
C2A C 0.3839(7) 0.5763(9) -0.1579(6)
H6A H 0.4083 0.5841 -0.1958
C3A C 0.3549(6) 0.5238(8) -0.1301(7)
H7A H 0.3564 0.4936 -0.1517
C4A C 0.3241(5) 0.5138(7) -0.0727(5)
H8A H 0.3075 0.4777 -0.0522
C5A C 0.3162(4) 0.5551(6) -0.0431(5)
C6A C 0.2817(4) 0.5478(6) 0.0168(4)
C7A C 0.2499(5) 0.4973(6) 0.0499(5)
H9A H 0.2510 0.4653 0.0336
C8A C 0.2168(3) 0.4911(5) 0.1049(4)
H10A H 0.1940 0.4555 0.1258
C9A C 0.2180(3) 0.5395(4) 0.1290(4)
C10A C 0.2506(3) 0.5887(4) 0.0928(4)
H11A H 0.2507 0.6214 0.1088
C11A C 0.1802(3) 0.5340(4) 0.1893(4)
H12A H 0.1425 0.5244 0.1723
H13A H 0.1758 0.5032 0.2197
C12A C 0.1856(4) 0.6253(6) 0.2219(4)
N7A N 0.0346(3) 0.6321(4) 0.5204(4)
C13A C -0.0001(3) 0.6178(5) 0.5766(5)
H14A H -0.0150 0.5822 0.5979
C14A C -0.0121(5) 0.6584(7) 0.6004(6)
H15A H -0.0355 0.6503 0.6394
C15A C 0.0087(5) 0.7097(6) 0.5693(7)
H16A H 0.0000 0.7365 0.5875
C16A C 0.0421(5) 0.7229(6) 0.5118(6)
H17A H 0.0536 0.7567 0.4871
C17A C 0.0584(4) 0.6841(6) 0.4915(5)
N8A N 0.1019(2) 0.6513(4) 0.4152(3)
C18A C 0.0956(3) 0.6948(4) 0.4357(4)
C19A C 0.1221(3) 0.7446(4) 0.3997(5)
H18A H 0.1170 0.7749 0.4137
C20A C 0.1557(3) 0.7517(5) 0.3442(5)
H19A H 0.1729 0.7860 0.3194
C21A C 0.1640(3) 0.7079(4) 0.3252(3)
C22A C 0.1351(3) 0.6587(4) 0.3614(4)
H20A H 0.1390 0.6277 0.3474
C23A C 0.1994(3) 0.7122(4) 0.2619(3)
H21A H 0.1779 0.7102 0.2203
H22A H 0.2341 0.7494 0.2622
N9A N -0.0089(2) 0.5494(4) 0.4004(3)
C24A C -0.0496(3) 0.5635(4) 0.3937(6)
H23A H -0.0517 0.5875 0.4271
C25A C -0.0886(3) 0.5446(5) 0.3398(7)
H24A H -0.1179 0.5535 0.3381
C26A C -0.0828(4) 0.5125(6) 0.2892(7)
H25A H -0.1060 0.5011 0.2498
C27A C -0.0435(4) 0.4983(6) 0.2978(5)
H26A H -0.0415 0.4737 0.2652
C28A C -0.0054(3) 0.5168(4) 0.3511(5)
N10A N 0.0762(2) 0.5300(3) 0.4114(3)
C29A C 0.0397(3) 0.5045(4) 0.3605(4)
C30A C 0.0456(3) 0.4678(5) 0.3169(4)
H27A H 0.0196 0.4501 0.2805
C31A C 0.0890(3) 0.4571(4) 0.3264(4)
H28A H 0.0945 0.4334 0.2960
C32A C 0.1241(3) 0.4815(4) 0.3807(3)
C33A C 0.1175(2) 0.5178(4) 0.4200(3)
H29A H 0.1435 0.5359 0.4561
C34A C 0.1731(3) 0.4700(4) 0.3912(4)
H30A H 0.1604 0.4365 0.4209
H31A H 0.1842 0.4616 0.3466
C35A C 0.2369(3) 0.5179(4) 0.4911(4)
N11A N 0.4863(3) 0.4998(4) 0.5431(4)
C36A C 0.5292(5) 0.4884(6) 0.5376(6)
H32A H 0.5307 0.4678 0.4995
C37A C 0.5697(5) 0.5065(7) 0.5865(8)
H33A H 0.6004 0.5001 0.5810
C38A C 0.5669(5) 0.5339(7) 0.6438(8)
H34A H 0.5944 0.5448 0.6787
C39A C 0.5231(5) 0.5454(6) 0.6502(5)
H35A H 0.5197 0.5636 0.6897
C40A C 0.4847(4) 0.5295(6) 0.5969(5)
N12A N 0.4055(3) 0.5235(4) 0.5421(3)
C41A C 0.4382(3) 0.5427(4) 0.5984(5)
C42A C 0.4299(3) 0.5733(5) 0.6470(4)
H36A H 0.4547 0.5873 0.6850
C43A C 0.3855(3) 0.5846(5) 0.6422(4)
H37A H 0.3793 0.6051 0.6769
C44A C 0.3512(3) 0.5651(4) 0.5856(4)
C45A C 0.3642(3) 0.5357(4) 0.5392(4)
H38A H 0.3407 0.5222 0.5000
C46A C 0.3017(3) 0.5711(4) 0.5814(3)
H39A H 0.3113 0.6085 0.5995
H40A H 0.2721 0.5425 0.6111
Ni2B Ni 0.42161(5) 0.47735(4) 0.47281(6)
O1B O 0.3871(3) 0.5288(2) 0.1892(3)
O2B O 0.52300(26) 0.73434(18) 0.5278(2)
N1B N 0.3922(6) 0.7377(4) -0.0695(4)
N2B N 0.4052(4) 0.6872(3) 0.0375(3)
N3B N 0.4151(4) 0.6188(3) 0.2265(3)
H1B H 0.4078 0.6393 0.2546
N4B N 0.3291(4) 0.5435(3) 0.2578(3)
H2B H 0.3243 0.5686 0.2801
N5B N 0.4816(3) 0.7038(2) 0.4227(3)
H3B H 0.4515 0.6944 0.3978
N6B N 0.43464(28) 0.71344(19) 0.5122(3)
H4B H 0.4054 0.6991 0.4845
C1B C 0.3825(7) 0.7585(5) -0.1282(5)
H5B H 0.3465 0.7387 -0.1490
C2B C 0.4237(9) 0.8076(6) -0.1579(6)
H6B H 0.4159 0.8242 -0.1958
C3B C 0.4762(8) 0.8311(6) -0.1301(7)
H7B H 0.5064 0.8628 -0.1517
C4B C 0.4862(7) 0.8103(5) -0.0727(5)
H8B H 0.5223 0.8298 -0.0522
C5B C 0.4449(6) 0.7611(4) -0.0431(5)
C6B C 0.4522(6) 0.7339(4) 0.0168(4)
C7B C 0.5027(6) 0.7526(4) 0.0499(5)
H9B H 0.5347 0.7857 0.0336
C8B C 0.5089(5) 0.7257(4) 0.1049(4)
H10B H 0.5445 0.7385 0.1258
C9B C 0.4605(4) 0.6785(3) 0.1290(4)
C10B C 0.4113(4) 0.6619(3) 0.0928(4)
H11B H 0.3786 0.6293 0.1088
C11B C 0.4660(4) 0.6462(3) 0.1893(4)
H12B H 0.4756 0.6181 0.1723
H13B H 0.4968 0.6726 0.2197
C12B C 0.3747(6) 0.5603(4) 0.2219(4)
N7B N 0.3679(4) 0.4025(3) 0.5204(4)
C13B C 0.3822(5) 0.3821(4) 0.5766(5)
H14B H 0.4178 0.4028 0.5979
C14B C 0.3416(7) 0.3295(5) 0.6004(6)
H15B H 0.3497 0.3142 0.6394
C15B C 0.2903(6) 0.2990(4) 0.5693(7)
H16B H 0.2635 0.2635 0.5875
C16B C 0.2771(6) 0.3192(3) 0.5118(6)
H17B H 0.2433 0.2969 0.4871
C17B C 0.3159(6) 0.3743(4) 0.4915(5)
N8B N 0.3487(4) 0.4506(3) 0.4152(3)
C18B C 0.3052(4) 0.4008(3) 0.4357(4)
C19B C 0.2554(4) 0.3775(3) 0.3997(5)
H18B H 0.2251 0.3421 0.4137
C20B C 0.2483(5) 0.4040(4) 0.3442(5)
H19B H 0.2140 0.3869 0.3194
C21B C 0.2921(4) 0.4561(3) 0.3252(3)
C22B C 0.3413(4) 0.4764(3) 0.3614(4)
H20B H 0.3723 0.5113 0.3474
C23B C 0.2878(4) 0.4872(3) 0.2619(3)
H21B H 0.2898 0.4677 0.2203
H22B H 0.2506 0.4847 0.2622
N9B N 0.4506(4) 0.4417(3) 0.4004(3)
C24B C 0.4365(4) 0.3869(3) 0.3937(6)
H23B H 0.4125 0.3608 0.4271
C25B C 0.4554(5) 0.3668(4) 0.3398(7)
H24B H 0.4465 0.3286 0.3381
C26B C 0.4875(6) 0.4047(5) 0.2892(7)
H25B H 0.4989 0.3929 0.2498
C27B C 0.5017(6) 0.4582(4) 0.2978(5)
H26B H 0.5263 0.4848 0.2652
C28B C 0.4832(4) 0.4778(3) 0.3511(5)
N10B N 0.4700(3) 0.5462(2) 0.4114(3)
C29B C 0.4955(4) 0.5352(3) 0.3605(4)
C30B C 0.5322(5) 0.5778(4) 0.3169(4)
H27B H 0.5499 0.5695 0.2805
C31B C 0.5429(4) 0.6319(3) 0.3264(4)
H28B H 0.5666 0.6611 0.2960
C32B C 0.5185(4) 0.6426(3) 0.3807(3)
C33B C 0.4822(4) 0.5997(3) 0.4200(3)
H29B H 0.4641 0.6076 0.4561
C34B C 0.5300(4) 0.7031(2) 0.3912(4)
H30B H 0.5635 0.7239 0.4209
H31B H 0.5384 0.7226 0.3466
C35B C 0.4821(4) 0.7190(3) 0.4911(4)
N11B N 0.5002(4) 0.9865(3) 0.5431(4)
C36B C 0.5116(6) 1.0408(4) 0.5376(6)
H32B H 0.5322 1.0629 0.4995
C37B C 0.4935(7) 1.0632(5) 0.5865(8)
H33B H 0.4999 1.1003 0.5810
C38B C 0.4661(7) 1.0330(5) 0.6438(8)
H34B H 0.4552 1.0496 0.6787
C39B C 0.4546(6) 0.9777(4) 0.6502(5)
H35B H 0.4364 0.9561 0.6897
C40B C 0.4705(6) 0.9552(4) 0.5969(5)
N12B N 0.4765(4) 0.8820(3) 0.5421(3)
C41B C 0.4573(4) 0.8955(3) 0.5984(5)
C42B C 0.4267(5) 0.8566(4) 0.6470(4)
H36B H 0.4127 0.8674 0.6850
C43B C 0.4154(5) 0.8009(4) 0.6422(4)
H37B H 0.3949 0.7742 0.6769
C44B C 0.4349(4) 0.7861(3) 0.5856(4)
C45B C 0.4643(4) 0.8285(3) 0.5392(4)
H38B H 0.4778 0.8185 0.5000
C46B C 0.4289(4) 0.7306(3) 0.5814(3)
H39B H 0.3915 0.7028 0.5995
H40B H 0.4575 0.7296 0.6111
S1 S 0.3333 0.6667 0.35412(12)
O3 O 0.3333 0.6667 0.4286(3)
O4 O 0.29166(14) 0.61150(14) 0.32980(17)
O4A O 0.38850(14) 0.68016(20) 0.32980(17)
O4B O 0.31984(20) 0.70834(14) 0.32980(17)
loop_
_geom_bond_atom_site_label_1
_geom_bond_atom_site_label_2
_geom_bond_site_symmetry_1
_geom_bond_site_symmetry_2
Ni1 N1 1_555 1_555
Ni2 N7 1_555 1_555
O1 C12 1_555 1_555
O2 C35 1_555 1_555
N1 C1 1_555 1_555
N2 Ni1 1_555 1_555
N3 H1 1_555 1_555
N4 H2 1_555 1_555
N5 H3 1_555 1_555
N6 H4 1_555 1_555
C1 H5 1_555 1_555
C2 C1 1_555 1_555
H6 C2 1_555 1_555
C3 C2 1_555 1_555
H7 C3 1_555 1_555
C4 C3 1_555 1_555
H8 C4 1_555 1_555
C5 N1 1_555 1_555
C6 N2 1_555 1_555
C7 C6 1_555 1_555
H9 C7 1_555 1_555
C8 C7 1_555 1_555
H10 C8 1_555 1_555
C9 C8 1_555 1_555
C10 N2 1_555 1_555
H11 C10 1_555 1_555
C11 N3 1_555 1_555
H12 C11 1_555 1_555
H13 C11 1_555 1_555
C12 N3 1_555 1_555
N7 C13 1_555 1_555
C13 H14 1_555 1_555
C14 C13 1_555 1_555
H15 C14 1_555 1_555
C15 C14 1_555 1_555
H16 C15 1_555 1_555
C16 C15 1_555 1_555
H17 C16 1_555 1_555
C17 N7 1_555 1_555
N8 Ni2 1_555 1_555
C18 C17 1_555 1_555
C19 C18 1_555 1_555
H18 C19 1_555 1_555
C20 C19 1_555 1_555
H19 C20 1_555 1_555
C21 C20 1_555 1_555
C22 N8 1_555 1_555
H20 C22 1_555 1_555
C23 N4 1_555 1_555
H21 C23 1_555 1_555
H22 C23 1_555 1_555
N9 Ni2 1_555 1_555
C24 N9 1_555 1_555
H23 C24 1_555 1_555
C25 C24 1_555 1_555
H24 C25 1_555 1_555
C26 C25 1_555 1_555
H25 C26 1_555 1_555
C27 C26 1_555 1_555
H26 C27 1_555 1_555
C28 N9 1_555 1_555
N10 Ni2 1_555 1_555
C29 C28 1_555 1_555
C30 C29 1_555 1_555
H27 C30 1_555 1_555
C31 C30 1_555 1_555
H28 C31 1_555 1_555
C32 C31 1_555 1_555
C33 N10 1_555 1_555
H29 C33 1_555 1_555
C34 N5 1_555 1_555
H30 C34 1_555 1_555
H31 C34 1_555 1_555
C35 N5 1_555 1_555
N11 C36 1_555 1_555
C36 H32 1_555 1_555
C37 C36 1_555 1_555
H33 C37 1_555 1_555
C38 C37 1_555 1_555
H34 C38 1_555 1_555
C39 C38 1_555 1_555
H35 C39 1_555 1_555
C40 N11 1_555 1_555
N12 C41 1_555 1_555
C41 C40 1_555 1_555
C42 C41 1_555 1_555
H36 C42 1_555 1_555
C43 C42 1_555 1_555
H37 C43 1_555 1_555
C44 C43 1_555 1_555
C45 N12 1_555 1_555
H38 C45 1_555 1_555
C46 N6 1_555 1_555
H39 C46 1_555 1_555
H40 C46 1_555 1_555
S1 O3 1_555 1_555
O4 S1 1_555 1_555
Ni2A N11 1_555 1_555
O1A C12A 1_555 1_555
O2A C35A 1_555 1_555
N1A Ni1 1_555 1_555
N2A Ni1 1_555 1_555
N3A H1A 1_555 1_555
N4A H2A 1_555 1_555
N5A H3A 1_555 1_555
N6A H4A 1_555 1_555
C1A N1A 1_555 1_555
H5A C1A 1_555 1_555
C2A C1A 1_555 1_555
H6A C2A 1_555 1_555
C3A C2A 1_555 1_555
H7A C3A 1_555 1_555
C4A C3A 1_555 1_555
H8A C4A 1_555 1_555
C5A N1A 1_555 1_555
C6A N2A 1_555 1_555
C7A C6A 1_555 1_555
H9A C7A 1_555 1_555
C8A C7A 1_555 1_555
H10A C8A 1_555 1_555
C9A C8A 1_555 1_555
C10A N2A 1_555 1_555
H11A C10A 1_555 1_555
C11A N3A 1_555 1_555
H12A C11A 1_555 1_555
H13A C11A 1_555 1_555
C12A N3A 1_555 1_555
N7A Ni2A 1_555 1_555
C13A N7A 1_555 1_555
H14A C13A 1_555 1_555
C14A C13A 1_555 1_555
H15A C14A 1_555 1_555
C15A C14A 1_555 1_555
H16A C15A 1_555 1_555
C16A C15A 1_555 1_555
H17A C16A 1_555 1_555
C17A N7A 1_555 1_555
N8A Ni2A 1_555 1_555
C18A C17A 1_555 1_555
C19A C18A 1_555 1_555
H18A C19A 1_555 1_555
C20A C19A 1_555 1_555
H19A C20A 1_555 1_555
C21A C20A 1_555 1_555
C22A N8A 1_555 1_555
H20A C22A 1_555 1_555
C23A N4A 1_555 1_555
H21A C23A 1_555 1_555
H22A C23A 1_555 1_555
N9A Ni2A 1_555 1_555
C24A N9A 1_555 1_555
H23A C24A 1_555 1_555
C25A C24A 1_555 1_555
H24A C25A 1_555 1_555
C26A C25A 1_555 1_555
H25A C26A 1_555 1_555
C27A C26A 1_555 1_555
H26A C27A 1_555 1_555
C28A N9A 1_555 1_555
N10A Ni2A 1_555 1_555
C29A C28A 1_555 1_555
C30A C29A 1_555 1_555
H27A C30A 1_555 1_555
C31A C30A 1_555 1_555
H28A C31A 1_555 1_555
C32A C31A 1_555 1_555
C33A N10A 1_555 1_555
H29A C33A 1_555 1_555
C34A N5A 1_555 1_555
H30A C34A 1_555 1_555
H31A C34A 1_555 1_555
C35A N5A 1_555 1_555
N11A C36A 1_555 1_555
C36A H32A 1_555 1_555
C37A C36A 1_555 1_555
H33A C37A 1_555 1_555
C38A C37A 1_555 1_555
H34A C38A 1_555 1_555
C39A C38A 1_555 1_555
H35A C39A 1_555 1_555
C40A N11A 1_555 1_555
N12A C41A 1_555 1_555
C41A C40A 1_555 1_555
C42A C41A 1_555 1_555
H36A C42A 1_555 1_555
C43A C42A 1_555 1_555
H37A C43A 1_555 1_555
C44A C43A 1_555 1_555
C45A N12A 1_555 1_555
H38A C45A 1_555 1_555
C46A N6A 1_555 1_555
H39A C46A 1_555 1_555
H40A C46A 1_555 1_555
Ni2B N11A 1_555 1_555
O1B C12B 1_555 1_555
O2B C35B 1_555 1_555
N1B Ni1 1_555 1_555
N2B Ni1 1_555 1_555
N3B H1B 1_555 1_555
N4B H2B 1_555 1_555
N5B H3B 1_555 1_555
N6B H4B 1_555 1_555
C1B N1B 1_555 1_555
H5B C1B 1_555 1_555
C2B C1B 1_555 1_555
H6B C2B 1_555 1_555
C3B C2B 1_555 1_555
H7B C3B 1_555 1_555
C4B C3B 1_555 1_555
H8B C4B 1_555 1_555
C5B N1B 1_555 1_555
C6B N2B 1_555 1_555
C7B C6B 1_555 1_555
H9B C7B 1_555 1_555
C8B C7B 1_555 1_555
H10B C8B 1_555 1_555
C9B C8B 1_555 1_555
C10B N2B 1_555 1_555
H11B C10B 1_555 1_555
C11B N3B 1_555 1_555
H12B C11B 1_555 1_555
H13B C11B 1_555 1_555
C12B N3B 1_555 1_555
N7B Ni2B 1_555 1_555
C13B N7B 1_555 1_555
H14B C13B 1_555 1_555
C14B C13B 1_555 1_555
H15B C14B 1_555 1_555
C15B C14B 1_555 1_555
H16B C15B 1_555 1_555
C16B C15B 1_555 1_555
H17B C16B 1_555 1_555
C17B N7B 1_555 1_555
N8B Ni2B 1_555 1_555
C18B C17B 1_555 1_555
C19B C18B 1_555 1_555
H18B C19B 1_555 1_555
C20B C19B 1_555 1_555
H19B C20B 1_555 1_555
C21B C20B 1_555 1_555
C22B N8B 1_555 1_555
H20B C22B 1_555 1_555
C23B N4B 1_555 1_555
H21B C23B 1_555 1_555
H22B C23B 1_555 1_555
N9B Ni2B 1_555 1_555
C24B N9B 1_555 1_555
H23B C24B 1_555 1_555
C25B C24B 1_555 1_555
H24B C25B 1_555 1_555
C26B C25B 1_555 1_555
H25B C26B 1_555 1_555
C27B C26B 1_555 1_555
H26B C27B 1_555 1_555
C28B N9B 1_555 1_555
N10B Ni2B 1_555 1_555
C29B C28B 1_555 1_555
C30B C29B 1_555 1_555
H27B C30B 1_555 1_555
C31B C30B 1_555 1_555
H28B C31B 1_555 1_555
C32B C31B 1_555 1_555
C33B N10B 1_555 1_555
H29B C33B 1_555 1_555
C34B N5B 1_555 1_555
H30B C34B 1_555 1_555
H31B C34B 1_555 1_555
C35B N5B 1_555 1_555
N11B Ni2 1_555 1_555
C36B N11B 1_555 1_555
H32B C36B 1_555 1_555
C37B C36B 1_555 1_555
H33B C37B 1_555 1_555
C38B C37B 1_555 1_555
H34B C38B 1_555 1_555
C39B C38B 1_555 1_555
H35B C39B 1_555 1_555
C40B N11B 1_555 1_555
N12B Ni2 1_555 1_555
C41B C40B 1_555 1_555
C42B C41B 1_555 1_555
H36B C42B 1_555 1_555
C43B C42B 1_555 1_555
H37B C43B 1_555 1_555
C44B C43B 1_555 1_555
C45B N12B 1_555 1_555
H38B C45B 1_555 1_555
C46B N6B 1_555 1_555
H39B C46B 1_555 1_555
H40B C46B 1_555 1_555
O4A S1 1_555 1_555
O4B S1 1_555 1_555
N4 C12 1_555 1_555
N6 C35 1_555 1_555
C4 C5 1_555 1_555
C5 C6 1_555 1_555
C9 C10 1_555 1_555
C9 C11 1_555 1_555
C16 C17 1_555 1_555
N8 C18 1_555 1_555
C21 C22 1_555 1_555
C21 C23 1_555 1_555
C27 C28 1_555 1_555
N10 C29 1_555 1_555
C32 C33 1_555 1_555
C32 C34 1_555 1_555
C39 C40 1_555 1_555
N12 Ni2A 1_555 1_555
C44 C45 1_555 1_555
C44 C46 1_555 1_555
N4A C12A 1_555 1_555
N6A C35A 1_555 1_555
C4A C5A 1_555 1_555
C5A C6A 1_555 1_555
C9A C10A 1_555 1_555
C9A C11A 1_555 1_555
C16A C17A 1_555 1_555
N8A C18A 1_555 1_555
C21A C22A 1_555 1_555
C21A C23A 1_555 1_555
C27A C28A 1_555 1_555
N10A C29A 1_555 1_555
C32A C33A 1_555 1_555
C32A C34A 1_555 1_555
C39A C40A 1_555 1_555
N12A Ni2B 1_555 1_555
C44A C45A 1_555 1_555
C44A C46A 1_555 1_555
N4B C12B 1_555 1_555
N6B C35B 1_555 1_555
C4B C5B 1_555 1_555
C5B C6B 1_555 1_555
C9B C10B 1_555 1_555
C9B C11B 1_555 1_555
C16B C17B 1_555 1_555
N8B C18B 1_555 1_555
C21B C22B 1_555 1_555
C21B C23B 1_555 1_555
C27B C28B 1_555 1_555
N10B C29B 1_555 1_555
C32B C33B 1_555 1_555
C32B C34B 1_555 1_555
C39B C40B 1_555 1_555
N12B C41B 1_555 1_555
C44B C45B 1_555 1_555
C44B C46B 1_555 1_555

#END
