# generated using pymatgen
data_Zn4H216C192SN39O76
_symmetry_space_group_name_H-M   'P 1'
_cell_length_a   19.60770000
_cell_length_b   35.82620000
_cell_length_c   38.30100000
_cell_angle_alpha   90.00000000
_cell_angle_beta   90.00000000
_cell_angle_gamma   99.45000000
_symmetry_Int_Tables_number   1
_chemical_formula_structural   Zn4H216C192SN39O76
_chemical_formula_sum   'Zn16 H864 C768 S4 N156 O304'
_cell_volume   26540.15515740
_cell_formula_units_Z   4
loop_
 _symmetry_equiv_pos_site_id
 _symmetry_equiv_pos_as_xyz
  1  'x, y, z'
loop_
 _atom_site_type_symbol
 _atom_site_label
 _atom_site_symmetry_multiplicity
 _atom_site_fract_x
 _atom_site_fract_y
 _atom_site_fract_z
 _atom_site_occupancy
  Zn  Zn1  1  0.207410  0.381500  0.902614  1
  Zn  Zn2  1  0.292590  0.118500  0.402614  1
  Zn  Zn3  1  0.792590  0.618500  0.097386  1
  Zn  Zn4  1  0.707410  0.881500  0.597386  1
  Zn  Zn5  1  0.791990  0.432722  0.686569  1
  Zn  Zn6  1  0.708010  0.067278  0.186569  1
  Zn  Zn7  1  0.208010  0.567278  0.313431  1
  Zn  Zn8  1  0.291990  0.932722  0.813431  1
  Zn  Zn9  1  0.644860  0.203557  0.911539  1
  Zn  Zn10  1  0.855140  0.296443  0.411539  1
  Zn  Zn11  1  0.355140  0.796443  0.088461  1
  Zn  Zn12  1  0.144860  0.703557  0.588461  1
  Zn  Zn13  1  0.003030  0.143159  0.676126  1
  Zn  Zn14  1  0.496970  0.356841  0.176126  1
  Zn  Zn15  1  0.996970  0.856841  0.323874  1
  Zn  Zn16  1  0.503030  0.643159  0.823874  1
  H  H17  1  0.247900  0.416200  0.976600  1
  H  H18  1  0.252100  0.083800  0.476600  1
  H  H19  1  0.752100  0.583800  0.023400  1
  H  H20  1  0.747900  0.916200  0.523400  1
  H  H21  1  0.251000  0.397400  0.033300  1
  H  H22  1  0.249000  0.102600  0.533300  1
  H  H23  1  0.749000  0.602600  0.966700  1
  H  H24  1  0.751000  0.897400  0.466700  1
  H  H25  1  0.180500  0.290700  0.002900  1
  H  H26  1  0.319500  0.209300  0.502900  1
  H  H27  1  0.819500  0.709300  0.997100  1
  H  H28  1  0.680500  0.790700  0.497100  1
  H  H29  1  0.144400  0.253700  0.961000  1
  H  H30  1  0.355600  0.246300  0.461000  1
  H  H31  1  0.855600  0.746300  0.039000  1
  H  H32  1  0.644400  0.753700  0.539000  1
  H  H33  1  0.108200  0.216800  0.912300  1
  H  H34  1  0.391800  0.283200  0.412300  1
  H  H35  1  0.891800  0.783200  0.087700  1
  H  H36  1  0.608200  0.716800  0.587700  1
  H  H37  1  0.154300  0.309100  0.852400  1
  H  H38  1  0.345700  0.190900  0.352400  1
  H  H39  1  0.845700  0.690900  0.147600  1
  H  H40  1  0.654300  0.809100  0.647600  1
  H  H41  1  0.323300  0.455100  0.906800  1
  H  H42  1  0.176700  0.044900  0.406800  1
  H  H43  1  0.676700  0.544900  0.093200  1
  H  H44  1  0.823300  0.955100  0.593200  1
  H  H45  1  0.332100  0.519300  0.910600  1
  H  H46  1  0.167900  0.980700  0.410600  1
  H  H47  1  0.667900  0.480700  0.089400  1
  H  H48  1  0.832100  0.019300  0.589400  1
  H  H49  1  0.123800  0.505300  0.915900  1
  H  H50  1  0.376200  0.994700  0.415900  1
  H  H51  1  0.876200  0.494700  0.084100  1
  H  H52  1  0.623800  0.005300  0.584100  1
  H  H53  1  0.028500  0.466600  0.915700  1
  H  H54  1  0.471500  0.033400  0.415700  1
  H  H55  1  0.971500  0.533400  0.084300  1
  H  H56  1  0.528500  0.966600  0.584300  1
  H  H57  1  0.930400  0.420900  0.913700  1
  H  H58  1  0.569600  0.079100  0.413700  1
  H  H59  1  0.069600  0.579100  0.086300  1
  H  H60  1  0.430400  0.920900  0.586300  1
  H  H61  1  0.049900  0.342500  0.899900  1
  H  H62  1  0.450100  0.157500  0.399900  1
  H  H63  1  0.950100  0.657500  0.100100  1
  H  H64  1  0.549900  0.842500  0.600100  1
  H  H65  1  0.355500  0.385900  0.939800  1
  H  H66  1  0.144500  0.114100  0.439800  1
  H  H67  1  0.644500  0.614100  0.060200  1
  H  H68  1  0.855500  0.885900  0.560200  1
  H  H69  1  0.467000  0.384300  0.924900  1
  H  H70  1  0.033000  0.115700  0.424900  1
  H  H71  1  0.533000  0.615700  0.075100  1
  H  H72  1  0.967000  0.884300  0.575100  1
  H  H73  1  0.405500  0.366400  0.824400  1
  H  H74  1  0.094500  0.133600  0.324400  1
  H  H75  1  0.594500  0.633600  0.175600  1
  H  H76  1  0.905500  0.866400  0.675600  1
  H  H77  1  0.914000  0.280000  0.718700  1
  H  H78  1  0.586000  0.220000  0.218700  1
  H  H79  1  0.086000  0.720000  0.281300  1
  H  H80  1  0.414000  0.780000  0.781300  1
  H  H81  1  0.001500  0.325600  0.715400  1
  H  H82  1  0.498500  0.174400  0.215400  1
  H  H83  1  0.998500  0.674400  0.284600  1
  H  H84  1  0.501500  0.825600  0.784600  1
  H  H85  1  0.062000  0.278800  0.758800  1
  H  H86  1  0.438000  0.221200  0.258800  1
  H  H87  1  0.938000  0.721200  0.241200  1
  H  H88  1  0.562000  0.778800  0.741200  1
  H  H89  1  0.320800  0.358200  0.789600  1
  H  H90  1  0.179200  0.141800  0.289600  1
  H  H91  1  0.679200  0.641800  0.210400  1
  H  H92  1  0.820800  0.858200  0.710400  1
  H  H93  1  0.054200  0.263400  0.814400  1
  H  H94  1  0.445800  0.236600  0.314400  1
  H  H95  1  0.945800  0.736600  0.185600  1
  H  H96  1  0.554200  0.763400  0.685600  1
  H  H97  1  0.228100  0.363600  0.751700  1
  H  H98  1  0.271900  0.136400  0.251700  1
  H  H99  1  0.771900  0.636400  0.248300  1
  H  H100  1  0.728100  0.863600  0.748300  1
  H  H101  1  0.909000  0.202600  0.808700  1
  H  H102  1  0.591000  0.297400  0.308700  1
  H  H103  1  0.091000  0.797400  0.191300  1
  H  H104  1  0.409000  0.702600  0.691300  1
  H  H105  1  0.814400  0.210800  0.782400  1
  H  H106  1  0.685600  0.289200  0.282400  1
  H  H107  1  0.185600  0.789200  0.217600  1
  H  H108  1  0.314400  0.710800  0.717600  1
  H  H109  1  0.118900  0.388500  0.834400  1
  H  H110  1  0.381100  0.111500  0.334400  1
  H  H111  1  0.881100  0.611500  0.165600  1
  H  H112  1  0.618900  0.888500  0.665600  1
  H  H113  1  0.935400  0.248900  0.867100  1
  H  H114  1  0.564600  0.251100  0.367100  1
  H  H115  1  0.064600  0.751100  0.132900  1
  H  H116  1  0.435400  0.748900  0.632900  1
  H  H117  1  0.652500  0.445200  0.651600  1
  H  H118  1  0.847500  0.054800  0.151600  1
  H  H119  1  0.347500  0.554800  0.348400  1
  H  H120  1  0.152500  0.945200  0.848400  1
  H  H121  1  0.927400  0.309600  0.866500  1
  H  H122  1  0.572600  0.190400  0.366500  1
  H  H123  1  0.072600  0.690400  0.133500  1
  H  H124  1  0.427400  0.809600  0.633500  1
  H  H125  1  0.546900  0.459900  0.667400  1
  H  H126  1  0.953100  0.040100  0.167400  1
  H  H127  1  0.453100  0.540100  0.332600  1
  H  H128  1  0.046900  0.959900  0.832600  1
  H  H129  1  0.763600  0.283700  0.762600  1
  H  H130  1  0.736400  0.216300  0.262600  1
  H  H131  1  0.236400  0.716300  0.237400  1
  H  H132  1  0.263600  0.783700  0.737400  1
  H  H133  1  0.791400  0.310500  0.812500  1
  H  H134  1  0.708600  0.189500  0.312500  1
  H  H135  1  0.208600  0.689500  0.187500  1
  H  H136  1  0.291400  0.810500  0.687500  1
  H  H137  1  0.605600  0.458600  0.768000  1
  H  H138  1  0.894400  0.041400  0.268000  1
  H  H139  1  0.394400  0.541400  0.232000  1
  H  H140  1  0.105600  0.958600  0.732000  1
  H  H141  1  0.016600  0.354800  0.785000  1
  H  H142  1  0.483400  0.145200  0.285000  1
  H  H143  1  0.983400  0.645200  0.215000  1
  H  H144  1  0.516600  0.854800  0.715000  1
  H  H145  1  0.926800  0.371900  0.808100  1
  H  H146  1  0.573200  0.128100  0.308100  1
  H  H147  1  0.073200  0.628100  0.191900  1
  H  H148  1  0.426800  0.871900  0.691900  1
  H  H149  1  0.685800  0.449400  0.803400  1
  H  H150  1  0.814200  0.050600  0.303400  1
  H  H151  1  0.314200  0.550600  0.196600  1
  H  H152  1  0.185800  0.949400  0.696600  1
  H  H153  1  0.777000  0.438400  0.839300  1
  H  H154  1  0.723000  0.061600  0.339300  1
  H  H155  1  0.223000  0.561600  0.160700  1
  H  H156  1  0.277000  0.938400  0.660700  1
  H  H157  1  0.881800  0.418300  0.753200  1
  H  H158  1  0.618200  0.081700  0.253200  1
  H  H159  1  0.118200  0.581700  0.246800  1
  H  H160  1  0.381800  0.918300  0.746800  1
  H  H161  1  0.814000  0.479400  0.615700  1
  H  H162  1  0.686000  0.020600  0.115700  1
  H  H163  1  0.186000  0.520600  0.384300  1
  H  H164  1  0.314000  0.979400  0.884300  1
  H  H165  1  0.811300  0.468300  0.557900  1
  H  H166  1  0.688700  0.031700  0.057900  1
  H  H167  1  0.188700  0.531700  0.442100  1
  H  H168  1  0.311300  0.968300  0.942100  1
  H  H169  1  0.731800  0.359700  0.576400  1
  H  H170  1  0.768200  0.140300  0.076400  1
  H  H171  1  0.268200  0.640300  0.423600  1
  H  H172  1  0.231800  0.859700  0.923600  1
  H  H173  1  0.680800  0.321900  0.616600  1
  H  H174  1  0.819200  0.178100  0.116600  1
  H  H175  1  0.319200  0.678100  0.383400  1
  H  H176  1  0.180800  0.821900  0.883400  1
  H  H177  1  0.651300  0.278100  0.662400  1
  H  H178  1  0.848700  0.221900  0.162400  1
  H  H179  1  0.348700  0.721900  0.337600  1
  H  H180  1  0.151300  0.778100  0.837600  1
  H  H181  1  0.755000  0.354200  0.728300  1
  H  H182  1  0.745000  0.145800  0.228300  1
  H  H183  1  0.245000  0.645800  0.271700  1
  H  H184  1  0.255000  0.854200  0.771700  1
  H  H185  1  0.752300  0.515400  0.683200  1
  H  H186  1  0.747700  0.984600  0.183200  1
  H  H187  1  0.247700  0.484600  0.316800  1
  H  H188  1  0.252300  0.015400  0.816800  1
  H  H189  1  0.807600  0.577600  0.680000  1
  H  H190  1  0.692400  0.922400  0.180000  1
  H  H191  1  0.192400  0.422400  0.320000  1
  H  H192  1  0.307600  0.077600  0.820000  1
  H  H193  1  0.989400  0.540500  0.690500  1
  H  H194  1  0.510600  0.959500  0.190500  1
  H  H195  1  0.010600  0.459500  0.309500  1
  H  H196  1  0.489400  0.040500  0.809500  1
  H  H197  1  0.040200  0.491500  0.698500  1
  H  H198  1  0.459800  0.008500  0.198500  1
  H  H199  1  0.959800  0.508500  0.301500  1
  H  H200  1  0.540200  0.991500  0.801500  1
  H  H201  1  0.089900  0.438100  0.691000  1
  H  H202  1  0.410100  0.061900  0.191000  1
  H  H203  1  0.910100  0.561900  0.309000  1
  H  H204  1  0.589900  0.938100  0.809000  1
  H  H205  1  0.899700  0.377800  0.679300  1
  H  H206  1  0.600300  0.122200  0.179300  1
  H  H207  1  0.100300  0.622200  0.320700  1
  H  H208  1  0.399700  0.877800  0.820700  1
  H  H209  1  0.611100  0.175700  0.989300  1
  H  H210  1  0.888900  0.324300  0.489300  1
  H  H211  1  0.388900  0.824300  0.010700  1
  H  H212  1  0.111100  0.675700  0.510700  1
  H  H213  1  0.624400  0.197700  0.044900  1
  H  H214  1  0.875600  0.302300  0.544900  1
  H  H215  1  0.375600  0.802300  0.955100  1
  H  H216  1  0.124400  0.697700  0.455100  1
  H  H217  1  0.711500  0.299100  0.006000  1
  H  H218  1  0.788500  0.200900  0.506000  1
  H  H219  1  0.288500  0.700900  0.994000  1
  H  H220  1  0.211500  0.799100  0.494000  1
  H  H221  1  0.713100  0.334400  0.961200  1
  H  H222  1  0.786900  0.165600  0.461200  1
  H  H223  1  0.286900  0.665600  0.038800  1
  H  H224  1  0.213100  0.834400  0.538800  1
  H  H225  1  0.741300  0.368000  0.908700  1
  H  H226  1  0.758700  0.132000  0.408700  1
  H  H227  1  0.258700  0.632000  0.091300  1
  H  H228  1  0.241300  0.868000  0.591300  1
  H  H229  1  0.706100  0.269300  0.856700  1
  H  H230  1  0.793900  0.230700  0.356700  1
  H  H231  1  0.293900  0.730700  0.143300  1
  H  H232  1  0.206100  0.769300  0.643300  1
  H  H233  1  0.513700  0.142500  0.930500  1
  H  H234  1  0.986300  0.357500  0.430500  1
  H  H235  1  0.486300  0.857500  0.069500  1
  H  H236  1  0.013700  0.642500  0.569500  1
  H  H237  1  0.481400  0.077100  0.931700  1
  H  H238  1  0.018600  0.422900  0.431700  1
  H  H239  1  0.518600  0.922900  0.068300  1
  H  H240  1  0.981400  0.577100  0.568300  1
  H  H241  1  0.679800  0.068400  0.907500  1
  H  H242  1  0.820200  0.431600  0.407500  1
  H  H243  1  0.320200  0.931600  0.092500  1
  H  H244  1  0.179800  0.568400  0.592500  1
  H  H245  1  0.785900  0.098500  0.905500  1
  H  H246  1  0.714100  0.401500  0.405500  1
  H  H247  1  0.214100  0.901500  0.094500  1
  H  H248  1  0.285900  0.598500  0.594500  1
  H  H249  1  0.894900  0.135800  0.903500  1
  H  H250  1  0.605100  0.364200  0.403500  1
  H  H251  1  0.105100  0.864200  0.096500  1
  H  H252  1  0.394900  0.635800  0.596500  1
  H  H253  1  0.807300  0.228600  0.909500  1
  H  H254  1  0.692700  0.271400  0.409500  1
  H  H255  1  0.192700  0.771400  0.090500  1
  H  H256  1  0.307300  0.728600  0.590500  1
  H  H257  1  0.510300  0.217600  0.950200  1
  H  H258  1  0.989700  0.282400  0.450200  1
  H  H259  1  0.489700  0.782400  0.049800  1
  H  H260  1  0.010300  0.717600  0.549800  1
  H  H261  1  0.402500  0.233000  0.936300  1
  H  H262  1  0.097500  0.267000  0.436300  1
  H  H263  1  0.597500  0.767000  0.063700  1
  H  H264  1  0.902500  0.733000  0.563700  1
  H  H265  1  0.455800  0.235100  0.835300  1
  H  H266  1  0.044200  0.264900  0.335300  1
  H  H267  1  0.544200  0.764900  0.164700  1
  H  H268  1  0.955800  0.735100  0.664700  1
  H  H269  1  0.528600  0.224500  0.797300  1
  H  H270  1  0.971400  0.275500  0.297300  1
  H  H271  1  0.471400  0.775500  0.202700  1
  H  H272  1  0.028600  0.724500  0.702700  1
  H  H273  1  0.611400  0.205500  0.758700  1
  H  H274  1  0.888600  0.294500  0.258700  1
  H  H275  1  0.388600  0.794500  0.241300  1
  H  H276  1  0.111400  0.705500  0.741300  1
  H  H277  1  0.719400  0.181100  0.841700  1
  H  H278  1  0.780600  0.318900  0.341700  1
  H  H279  1  0.280600  0.818900  0.158300  1
  H  H280  1  0.219400  0.681100  0.658300  1
  H  H281  1  0.958700  0.104100  0.604300  1
  H  H282  1  0.541300  0.395900  0.104300  1
  H  H283  1  0.041300  0.895900  0.395700  1
  H  H284  1  0.458700  0.604100  0.895700  1
  H  H285  1  0.964600  0.117600  0.545400  1
  H  H286  1  0.535400  0.382400  0.045400  1
  H  H287  1  0.035400  0.882400  0.454600  1
  H  H288  1  0.464600  0.617600  0.954600  1
  H  H289  1  0.070300  0.220600  0.569000  1
  H  H290  1  0.429700  0.279400  0.069000  1
  H  H291  1  0.929700  0.779400  0.431000  1
  H  H292  1  0.570300  0.720600  0.931000  1
  H  H293  1  0.101000  0.260300  0.610400  1
  H  H294  1  0.399000  0.239700  0.110400  1
  H  H295  1  0.899000  0.739700  0.389600  1
  H  H296  1  0.601000  0.760300  0.889600  1
  H  H297  1  0.136200  0.299900  0.656800  1
  H  H298  1  0.363800  0.200100  0.156800  1
  H  H299  1  0.863800  0.700100  0.343200  1
  H  H300  1  0.636200  0.799900  0.843200  1
  H  H301  1  0.084500  0.212100  0.721600  1
  H  H302  1  0.415500  0.287900  0.221600  1
  H  H303  1  0.915500  0.787900  0.278400  1
  H  H304  1  0.584500  0.712100  0.778400  1
  H  H305  1  0.102800  0.102500  0.628800  1
  H  H306  1  0.397200  0.397500  0.128800  1
  H  H307  1  0.897200  0.897500  0.371200  1
  H  H308  1  0.602800  0.602500  0.871200  1
  H  H309  1  0.202200  0.076900  0.634100  1
  H  H310  1  0.297800  0.423100  0.134100  1
  H  H311  1  0.797800  0.923100  0.365900  1
  H  H312  1  0.702200  0.576900  0.865900  1
  H  H313  1  0.194800  0.094900  0.737800  1
  H  H314  1  0.305200  0.405100  0.237800  1
  H  H315  1  0.805200  0.905100  0.262200  1
  H  H316  1  0.694800  0.594900  0.762200  1
  H  H317  1  0.132800  0.107000  0.780200  1
  H  H318  1  0.367200  0.393000  0.280200  1
  H  H319  1  0.867200  0.893000  0.219800  1
  H  H320  1  0.632800  0.607000  0.719800  1
  H  H321  1  0.063400  0.125700  0.823900  1
  H  H322  1  0.436600  0.374300  0.323900  1
  H  H323  1  0.936600  0.874300  0.176100  1
  H  H324  1  0.563400  0.625700  0.676100  1
  H  H325  1  0.943600  0.160500  0.750900  1
  H  H326  1  0.556400  0.339500  0.250900  1
  H  H327  1  0.056400  0.839500  0.249100  1
  H  H328  1  0.443600  0.660500  0.749100  1
  H  H329  1  0.974900  0.053200  0.668300  1
  H  H330  1  0.525100  0.446800  0.168300  1
  H  H331  1  0.025100  0.946800  0.331700  1
  H  H332  1  0.474900  0.553200  0.831700  1
  H  H333  1  0.888600  0.003500  0.681600  1
  H  H334  1  0.611400  0.496500  0.181600  1
  H  H335  1  0.111400  0.996500  0.318400  1
  H  H336  1  0.388600  0.503500  0.818400  1
  H  H337  1  0.764100  0.080000  0.704400  1
  H  H338  1  0.735900  0.420000  0.204400  1
  H  H339  1  0.235900  0.920000  0.295600  1
  H  H340  1  0.264100  0.580000  0.795600  1
  H  H341  1  0.745100  0.135600  0.683700  1
  H  H342  1  0.754900  0.364400  0.183700  1
  H  H343  1  0.254900  0.864400  0.316300  1
  H  H344  1  0.245100  0.635600  0.816300  1
  H  H345  1  0.737400  0.199400  0.683000  1
  H  H346  1  0.762600  0.300600  0.183000  1
  H  H347  1  0.262600  0.800600  0.317000  1
  H  H348  1  0.237400  0.699400  0.817000  1
  H  H349  1  0.944700  0.222400  0.684200  1
  H  H350  1  0.555300  0.277600  0.184200  1
  H  H351  1  0.055300  0.777600  0.315800  1
  H  H352  1  0.444700  0.722400  0.815800  1
  H  H353  1  0.152800  0.222900  0.838100  1
  H  H354  1  0.347200  0.277100  0.338100  1
  H  H355  1  0.847200  0.777100  0.161900  1
  H  H356  1  0.652800  0.722900  0.661900  1
  H  H357  1  0.073800  0.214400  0.849900  1
  H  H358  1  0.426200  0.285600  0.349900  1
  H  H359  1  0.926200  0.785600  0.150100  1
  H  H360  1  0.573800  0.714400  0.650100  1
  H  H361  1  0.190700  0.282100  0.729000  1
  H  H362  1  0.309300  0.217900  0.229000  1
  H  H363  1  0.809300  0.717900  0.271000  1
  H  H364  1  0.690700  0.782100  0.771000  1
  H  H365  1  0.139200  0.310800  0.719500  1
  H  H366  1  0.360800  0.189200  0.219500  1
  H  H367  1  0.860800  0.689200  0.280500  1
  H  H368  1  0.639200  0.810800  0.780500  1
  H  H369  1  0.899600  0.340700  0.929600  1
  H  H370  1  0.600400  0.159300  0.429600  1
  H  H371  1  0.100400  0.659300  0.070400  1
  H  H372  1  0.399600  0.840700  0.570400  1
  H  H373  1  0.879600  0.356300  0.892500  1
  H  H374  1  0.620400  0.143700  0.392500  1
  H  H375  1  0.120400  0.643700  0.107500  1
  H  H376  1  0.379600  0.856300  0.607500  1
  H  H377  1  0.949300  0.215200  0.930500  1
  H  H378  1  0.550700  0.284800  0.430500  1
  H  H379  1  0.050700  0.784800  0.069500  1
  H  H380  1  0.449300  0.715200  0.569500  1
  H  H381  1  0.965100  0.197700  0.893500  1
  H  H382  1  0.534900  0.302300  0.393500  1
  H  H383  1  0.034900  0.802300  0.106500  1
  H  H384  1  0.465100  0.697700  0.606500  1
  H  H385  1  0.115500  0.410900  0.756700  1
  H  H386  1  0.384500  0.089100  0.256700  1
  H  H387  1  0.884500  0.589100  0.243300  1
  H  H388  1  0.615500  0.910900  0.743300  1
  H  H389  1  0.104900  0.367500  0.745100  1
  H  H390  1  0.395100  0.132500  0.245100  1
  H  H391  1  0.895100  0.632500  0.254900  1
  H  H392  1  0.604900  0.867500  0.754900  1
  H  H393  1  0.933000  0.447300  0.824600  1
  H  H394  1  0.567000  0.052700  0.324600  1
  H  H395  1  0.067000  0.552700  0.175400  1
  H  H396  1  0.433000  0.947300  0.675400  1
  H  H397  1  0.886500  0.413500  0.845100  1
  H  H398  1  0.613500  0.086500  0.345100  1
  H  H399  1  0.113500  0.586500  0.154900  1
  H  H400  1  0.386500  0.913500  0.654900  1
  H  H401  1  0.828900  0.267700  0.660500  1
  H  H402  1  0.671100  0.232300  0.160500  1
  H  H403  1  0.171100  0.732300  0.339500  1
  H  H404  1  0.328900  0.767700  0.839500  1
  H  H405  1  0.798500  0.264100  0.699300  1
  H  H406  1  0.701500  0.235900  0.199300  1
  H  H407  1  0.201500  0.735900  0.300700  1
  H  H408  1  0.298500  0.764100  0.800700  1
  H  H409  1  0.033200  0.360700  0.652800  1
  H  H410  1  0.466800  0.139300  0.152800  1
  H  H411  1  0.966800  0.639300  0.347200  1
  H  H412  1  0.533200  0.860700  0.847200  1
  H  H413  1  0.077500  0.369100  0.687800  1
  H  H414  1  0.422500  0.130900  0.187800  1
  H  H415  1  0.922500  0.630900  0.312200  1
  H  H416  1  0.577500  0.869100  0.812200  1
  H  H417  1  0.703900  0.356700  0.838200  1
  H  H418  1  0.796100  0.143300  0.338200  1
  H  H419  1  0.296100  0.643300  0.161800  1
  H  H420  1  0.203900  0.856700  0.661800  1
  H  H421  1  0.784400  0.362100  0.847000  1
  H  H422  1  0.715600  0.137900  0.347000  1
  H  H423  1  0.215600  0.637900  0.153000  1
  H  H424  1  0.284400  0.862100  0.653000  1
  H  H425  1  0.632800  0.285000  0.736900  1
  H  H426  1  0.867200  0.215000  0.236900  1
  H  H427  1  0.367200  0.715000  0.263100  1
  H  H428  1  0.132800  0.785000  0.763100  1
  H  H429  1  0.684400  0.258400  0.722400  1
  H  H430  1  0.815600  0.241600  0.222400  1
  H  H431  1  0.315600  0.741600  0.277600  1
  H  H432  1  0.184400  0.758400  0.777600  1
  H  H433  1  0.714300  0.148400  0.771700  1
  H  H434  1  0.785700  0.351600  0.271700  1
  H  H435  1  0.285700  0.851600  0.228300  1
  H  H436  1  0.214300  0.648400  0.728300  1
  H  H437  1  0.720700  0.186400  0.749200  1
  H  H438  1  0.779300  0.313600  0.249200  1
  H  H439  1  0.279300  0.813600  0.250800  1
  H  H440  1  0.220700  0.686400  0.750800  1
  H  H441  1  0.923200  0.131800  0.831500  1
  H  H442  1  0.576800  0.368200  0.331500  1
  H  H443  1  0.076800  0.868200  0.168500  1
  H  H444  1  0.423200  0.631800  0.668500  1
  H  H445  1  0.977500  0.169500  0.838500  1
  H  H446  1  0.522500  0.330500  0.338500  1
  H  H447  1  0.022500  0.830500  0.161500  1
  H  H448  1  0.477500  0.669500  0.661500  1
  H  H449  1  0.259100  0.576200  0.965800  1
  H  H450  1  0.240900  0.923800  0.465800  1
  H  H451  1  0.740900  0.423800  0.034200  1
  H  H452  1  0.759100  0.076200  0.534200  1
  H  H453  1  0.186600  0.548500  0.962100  1
  H  H454  1  0.313400  0.951500  0.462100  1
  H  H455  1  0.813400  0.451500  0.037900  1
  H  H456  1  0.686600  0.048500  0.537900  1
  H  H457  1  0.192000  0.592500  0.952900  1
  H  H458  1  0.308000  0.907500  0.452900  1
  H  H459  1  0.808000  0.407500  0.047100  1
  H  H460  1  0.692000  0.092500  0.547100  1
  H  H461  1  0.300500  0.611500  0.911800  1
  H  H462  1  0.199500  0.888500  0.411800  1
  H  H463  1  0.699500  0.388500  0.088200  1
  H  H464  1  0.800500  0.111500  0.588200  1
  H  H465  1  0.304400  0.581900  0.880900  1
  H  H466  1  0.195600  0.918100  0.380900  1
  H  H467  1  0.695600  0.418100  0.119100  1
  H  H468  1  0.804400  0.081900  0.619100  1
  H  H469  1  0.336600  0.575200  0.918300  1
  H  H470  1  0.163400  0.924800  0.418300  1
  H  H471  1  0.663400  0.424800  0.081700  1
  H  H472  1  0.836600  0.075200  0.581700  1
  H  H473  1  0.141300  0.571200  0.894600  1
  H  H474  1  0.358700  0.928800  0.394600  1
  H  H475  1  0.858700  0.428800  0.105400  1
  H  H476  1  0.641300  0.071200  0.605400  1
  H  H477  1  0.197400  0.562000  0.866900  1
  H  H478  1  0.302600  0.938000  0.366900  1
  H  H479  1  0.802600  0.438000  0.133100  1
  H  H480  1  0.697400  0.062000  0.633100  1
  H  H481  1  0.205100  0.603100  0.884300  1
  H  H482  1  0.294900  0.896900  0.384300  1
  H  H483  1  0.794900  0.396900  0.115700  1
  H  H484  1  0.705100  0.103100  0.615700  1
  H  H485  1  0.183300  0.378300  0.076300  1
  H  H486  1  0.316700  0.121700  0.576300  1
  H  H487  1  0.816700  0.621700  0.923700  1
  H  H488  1  0.683300  0.878300  0.423700  1
  H  H489  1  0.194900  0.352400  0.109100  1
  H  H490  1  0.305100  0.147600  0.609100  1
  H  H491  1  0.805100  0.647600  0.890900  1
  H  H492  1  0.694900  0.852400  0.390900  1
  H  H493  1  0.128700  0.341000  0.084600  1
  H  H494  1  0.371300  0.159000  0.584600  1
  H  H495  1  0.871300  0.659000  0.915400  1
  H  H496  1  0.628700  0.841000  0.415400  1
  H  H497  1  0.286100  0.332200  0.103200  1
  H  H498  1  0.213900  0.167800  0.603200  1
  H  H499  1  0.713900  0.667800  0.896800  1
  H  H500  1  0.786100  0.832200  0.396800  1
  H  H501  1  0.291100  0.371400  0.082700  1
  H  H502  1  0.208900  0.128600  0.582700  1
  H  H503  1  0.708900  0.628600  0.917300  1
  H  H504  1  0.791100  0.871400  0.417300  1
  H  H505  1  0.322500  0.337100  0.065700  1
  H  H506  1  0.177500  0.162900  0.565700  1
  H  H507  1  0.677500  0.662900  0.934300  1
  H  H508  1  0.822500  0.837100  0.434300  1
  H  H509  1  0.227000  0.282700  0.090000  1
  H  H510  1  0.273000  0.217300  0.590000  1
  H  H511  1  0.773000  0.717300  0.910000  1
  H  H512  1  0.727000  0.782700  0.410000  1
  H  H513  1  0.268100  0.286400  0.053700  1
  H  H514  1  0.231900  0.213600  0.553700  1
  H  H515  1  0.731900  0.713600  0.946300  1
  H  H516  1  0.768100  0.786400  0.446300  1
  H  H517  1  0.185800  0.274300  0.054000  1
  H  H518  1  0.314200  0.225700  0.554000  1
  H  H519  1  0.814200  0.725700  0.946000  1
  H  H520  1  0.685800  0.774300  0.446000  1
  H  H521  1  0.571700  0.418600  0.891000  1
  H  H522  1  0.928300  0.081400  0.391000  1
  H  H523  1  0.428300  0.581400  0.109000  1
  H  H524  1  0.071700  0.918600  0.609000  1
  H  H525  1  0.624900  0.390500  0.882100  1
  H  H526  1  0.875100  0.109500  0.382100  1
  H  H527  1  0.375100  0.609500  0.117900  1
  H  H528  1  0.124900  0.890500  0.617900  1
  H  H529  1  0.569100  0.380200  0.912600  1
  H  H530  1  0.930900  0.119800  0.412600  1
  H  H531  1  0.430900  0.619800  0.087400  1
  H  H532  1  0.069100  0.880200  0.587400  1
  H  H533  1  0.521200  0.318200  0.884700  1
  H  H534  1  0.978800  0.181800  0.384700  1
  H  H535  1  0.478800  0.681800  0.115300  1
  H  H536  1  0.021200  0.818200  0.615300  1
  H  H537  1  0.575200  0.325700  0.853100  1
  H  H538  1  0.924800  0.174300  0.353100  1
  H  H539  1  0.424800  0.674300  0.146900  1
  H  H540  1  0.075200  0.825700  0.646900  1
  H  H541  1  0.494000  0.316500  0.845200  1
  H  H542  1  0.006000  0.183500  0.345200  1
  H  H543  1  0.506000  0.683500  0.154800  1
  H  H544  1  0.994000  0.816500  0.654800  1
  H  H545  1  0.511300  0.374900  0.809200  1
  H  H546  1  0.988700  0.125100  0.309200  1
  H  H547  1  0.488700  0.625100  0.190800  1
  H  H548  1  0.011300  0.874900  0.690800  1
  H  H549  1  0.590700  0.385600  0.820500  1
  H  H550  1  0.909300  0.114400  0.320500  1
  H  H551  1  0.409300  0.614400  0.179500  1
  H  H552  1  0.090700  0.885600  0.679500  1
  H  H553  1  0.538800  0.415100  0.826800  1
  H  H554  1  0.961200  0.084900  0.326800  1
  H  H555  1  0.461200  0.584900  0.173200  1
  H  H556  1  0.038800  0.915100  0.673200  1
  H  H557  1  0.858300  0.388300  0.492300  1
  H  H558  1  0.641700  0.111700  0.992300  1
  H  H559  1  0.141700  0.611700  0.507700  1
  H  H560  1  0.358300  0.888300  0.007700  1
  H  H561  1  0.877800  0.399100  0.532000  1
  H  H562  1  0.622200  0.100900  0.032000  1
  H  H563  1  0.122200  0.600900  0.468000  1
  H  H564  1  0.377800  0.899100  0.968000  1
  H  H565  1  0.873800  0.431800  0.504000  1
  H  H566  1  0.626200  0.068200  0.004000  1
  H  H567  1  0.126200  0.568200  0.496000  1
  H  H568  1  0.373800  0.931800  0.996000  1
  H  H569  1  0.697100  0.360500  0.506200  1
  H  H570  1  0.802900  0.139500  0.006200  1
  H  H571  1  0.302900  0.639500  0.493800  1
  H  H572  1  0.197100  0.860500  0.993800  1
  H  H573  1  0.755200  0.348300  0.531000  1
  H  H574  1  0.744800  0.151700  0.031000  1
  H  H575  1  0.244800  0.651700  0.469000  1
  H  H576  1  0.255200  0.848300  0.969000  1
  H  H577  1  0.771900  0.357600  0.490800  1
  H  H578  1  0.728100  0.142400  0.990800  1
  H  H579  1  0.228100  0.642400  0.509200  1
  H  H580  1  0.271900  0.857600  0.009200  1
  H  H581  1  0.762600  0.431000  0.475800  1
  H  H582  1  0.737400  0.069000  0.975800  1
  H  H583  1  0.237400  0.569000  0.524200  1
  H  H584  1  0.262600  0.931000  0.024200  1
  H  H585  1  0.774700  0.458600  0.508900  1
  H  H586  1  0.725300  0.041400  0.008900  1
  H  H587  1  0.225300  0.541400  0.491100  1
  H  H588  1  0.274700  0.958600  0.991100  1
  H  H589  1  0.700600  0.433300  0.502500  1
  H  H590  1  0.799400  0.066700  0.002500  1
  H  H591  1  0.299400  0.566700  0.497500  1
  H  H592  1  0.200600  0.933300  0.997500  1
  H  H593  1  0.449500  0.421800  0.753400  1
  H  H594  1  0.050500  0.078200  0.253400  1
  H  H595  1  0.550500  0.578200  0.246600  1
  H  H596  1  0.949500  0.921800  0.746600  1
  H  H597  1  0.425200  0.457300  0.772100  1
  H  H598  1  0.074800  0.042700  0.272100  1
  H  H599  1  0.574800  0.542700  0.227900  1
  H  H600  1  0.925200  0.957300  0.727900  1
  H  H601  1  0.499900  0.447000  0.780300  1
  H  H602  1  0.000100  0.053000  0.280300  1
  H  H603  1  0.500100  0.553000  0.219700  1
  H  H604  1  0.999900  0.947000  0.719700  1
  H  H605  1  0.547100  0.517200  0.763600  1
  H  H606  1  0.952900  0.982800  0.263600  1
  H  H607  1  0.452900  0.482800  0.236400  1
  H  H608  1  0.047100  0.017200  0.736400  1
  H  H609  1  0.472000  0.524500  0.751900  1
  H  H610  1  0.028000  0.975500  0.251900  1
  H  H611  1  0.528000  0.475500  0.248100  1
  H  H612  1  0.972000  0.024500  0.748100  1
  H  H613  1  0.535000  0.531400  0.724800  1
  H  H614  1  0.965000  0.968600  0.224800  1
  H  H615  1  0.465000  0.468600  0.275200  1
  H  H616  1  0.035000  0.031400  0.775200  1
  H  H617  1  0.458200  0.492600  0.685700  1
  H  H618  1  0.041800  0.007400  0.185700  1
  H  H619  1  0.541800  0.507400  0.314300  1
  H  H620  1  0.958200  0.992600  0.814300  1
  H  H621  1  0.398200  0.471900  0.710600  1
  H  H622  1  0.101800  0.028100  0.210600  1
  H  H623  1  0.601800  0.528100  0.289400  1
  H  H624  1  0.898200  0.971900  0.789400  1
  H  H625  1  0.444500  0.447500  0.688600  1
  H  H626  1  0.055500  0.052500  0.188600  1
  H  H627  1  0.555500  0.552500  0.311400  1
  H  H628  1  0.944500  0.947500  0.811400  1
  H  H629  1  0.034700  0.635700  0.665200  1
  H  H630  1  0.465300  0.864300  0.165200  1
  H  H631  1  0.965300  0.364300  0.334800  1
  H  H632  1  0.534700  0.135700  0.834800  1
  H  H633  1  0.021400  0.592500  0.652700  1
  H  H634  1  0.478600  0.907500  0.152700  1
  H  H635  1  0.978600  0.407500  0.347300  1
  H  H636  1  0.521400  0.092500  0.847300  1
  H  H637  1  0.044200  0.602800  0.692100  1
  H  H638  1  0.455800  0.897200  0.192100  1
  H  H639  1  0.955800  0.397200  0.307900  1
  H  H640  1  0.544200  0.102800  0.807900  1
  H  H641  1  0.947200  0.622200  0.731300  1
  H  H642  1  0.552800  0.877800  0.231300  1
  H  H643  1  0.052800  0.377800  0.268700  1
  H  H644  1  0.447200  0.122200  0.768700  1
  H  H645  1  0.873900  0.622100  0.712900  1
  H  H646  1  0.626100  0.877900  0.212900  1
  H  H647  1  0.126100  0.377900  0.287100  1
  H  H648  1  0.373900  0.122100  0.787100  1
  H  H649  1  0.937400  0.654900  0.704200  1
  H  H650  1  0.562600  0.845100  0.204200  1
  H  H651  1  0.062600  0.345100  0.295800  1
  H  H652  1  0.437400  0.154900  0.795800  1
  H  H653  1  0.872900  0.638300  0.659400  1
  H  H654  1  0.627100  0.861700  0.159400  1
  H  H655  1  0.127100  0.361700  0.340600  1
  H  H656  1  0.372900  0.138300  0.840600  1
  H  H657  1  0.887500  0.604500  0.634600  1
  H  H658  1  0.612500  0.895500  0.134600  1
  H  H659  1  0.112500  0.395500  0.365400  1
  H  H660  1  0.387500  0.104500  0.865400  1
  H  H661  1  0.943700  0.642200  0.637900  1
  H  H662  1  0.556300  0.857800  0.137900  1
  H  H663  1  0.056300  0.357800  0.362100  1
  H  H664  1  0.443700  0.142200  0.862100  1
  H  H665  1  0.349500  0.239500  0.822200  1
  H  H666  1  0.150500  0.260500  0.322200  1
  H  H667  1  0.650500  0.760500  0.177800  1
  H  H668  1  0.849500  0.739500  0.677800  1
  H  H669  1  0.375600  0.282200  0.834500  1
  H  H670  1  0.124400  0.217800  0.334500  1
  H  H671  1  0.624400  0.717800  0.165500  1
  H  H672  1  0.875600  0.782200  0.665500  1
  H  H673  1  0.294700  0.265600  0.833900  1
  H  H674  1  0.205300  0.234400  0.333900  1
  H  H675  1  0.705300  0.734400  0.166100  1
  H  H676  1  0.794700  0.765600  0.666100  1
  H  H677  1  0.303700  0.191500  0.865300  1
  H  H678  1  0.196300  0.308500  0.365300  1
  H  H679  1  0.696300  0.808500  0.134700  1
  H  H680  1  0.803700  0.691500  0.634700  1
  H  H681  1  0.247600  0.216400  0.878000  1
  H  H682  1  0.252400  0.283600  0.378000  1
  H  H683  1  0.752400  0.783600  0.122000  1
  H  H684  1  0.747600  0.716400  0.622000  1
  H  H685  1  0.298000  0.201500  0.905800  1
  H  H686  1  0.202000  0.298500  0.405800  1
  H  H687  1  0.702000  0.798500  0.094200  1
  H  H688  1  0.798000  0.701500  0.594200  1
  H  H689  1  0.291700  0.288200  0.890400  1
  H  H690  1  0.208300  0.211800  0.390400  1
  H  H691  1  0.708300  0.711800  0.109600  1
  H  H692  1  0.791700  0.788200  0.609600  1
  H  H693  1  0.371000  0.296600  0.902200  1
  H  H694  1  0.129000  0.203400  0.402200  1
  H  H695  1  0.629000  0.703400  0.097800  1
  H  H696  1  0.871000  0.796600  0.597800  1
  H  H697  1  0.316800  0.266900  0.923500  1
  H  H698  1  0.183200  0.233100  0.423500  1
  H  H699  1  0.683200  0.733100  0.076500  1
  H  H700  1  0.816800  0.766900  0.576500  1
  H  H701  1  0.643100  0.003700  0.896000  1
  H  H702  1  0.856900  0.496300  0.396000  1
  H  H703  1  0.356900  0.996300  0.104000  1
  H  H704  1  0.143100  0.503700  0.604000  1
  H  H705  1  0.600600  0.022700  0.867200  1
  H  H706  1  0.899400  0.477300  0.367200  1
  H  H707  1  0.399400  0.977300  0.132800  1
  H  H708  1  0.100600  0.522700  0.632800  1
  H  H709  1  0.572300  0.980800  0.880900  1
  H  H710  1  0.927700  0.519200  0.380900  1
  H  H711  1  0.427700  0.019200  0.119100  1
  H  H712  1  0.072300  0.480800  0.619100  1
  H  H713  1  0.628200  0.015800  0.951900  1
  H  H714  1  0.871800  0.484200  0.451900  1
  H  H715  1  0.371800  0.984200  0.048100  1
  H  H716  1  0.128200  0.515800  0.548100  1
  H  H717  1  0.572100  0.978500  0.945900  1
  H  H718  1  0.927900  0.521500  0.445900  1
  H  H719  1  0.427900  0.021500  0.054100  1
  H  H720  1  0.072100  0.478500  0.554100  1
  H  H721  1  0.552200  0.013200  0.967900  1
  H  H722  1  0.947800  0.486800  0.467900  1
  H  H723  1  0.447800  0.986800  0.032100  1
  H  H724  1  0.052200  0.513200  0.532100  1
  H  H725  1  0.475600  0.985200  0.897000  1
  H  H726  1  0.024400  0.514800  0.397000  1
  H  H727  1  0.524400  0.014800  0.103000  1
  H  H728  1  0.975600  0.485200  0.603000  1
  H  H729  1  0.469700  0.028500  0.889400  1
  H  H730  1  0.030300  0.471500  0.389400  1
  H  H731  1  0.530300  0.971500  0.110600  1
  H  H732  1  0.969700  0.528500  0.610600  1
  H  H733  1  0.453700  0.011300  0.927700  1
  H  H734  1  0.046300  0.488700  0.427700  1
  H  H735  1  0.546300  0.988700  0.072300  1
  H  H736  1  0.953700  0.511300  0.572300  1
  H  H737  1  0.311100  0.028400  0.726100  1
  H  H738  1  0.188900  0.471600  0.226100  1
  H  H739  1  0.688900  0.971600  0.273900  1
  H  H740  1  0.811100  0.528400  0.773900  1
  H  H741  1  0.228800  0.025600  0.724800  1
  H  H742  1  0.271200  0.474400  0.224800  1
  H  H743  1  0.771200  0.974400  0.275200  1
  H  H744  1  0.728800  0.525600  0.775200  1
  H  H745  1  0.274700  0.059100  0.746100  1
  H  H746  1  0.225300  0.440900  0.246100  1
  H  H747  1  0.725300  0.940900  0.253900  1
  H  H748  1  0.774700  0.559100  0.753900  1
  H  H749  1  0.379600  0.094900  0.687800  1
  H  H750  1  0.120400  0.405100  0.187800  1
  H  H751  1  0.620400  0.905100  0.312200  1
  H  H752  1  0.879600  0.594900  0.812200  1
  H  H753  1  0.339400  0.110500  0.719600  1
  H  H754  1  0.160600  0.389500  0.219600  1
  H  H755  1  0.660600  0.889500  0.280400  1
  H  H756  1  0.839400  0.610500  0.780400  1
  H  H757  1  0.323900  0.121900  0.680300  1
  H  H758  1  0.176100  0.378100  0.180300  1
  H  H759  1  0.676100  0.878100  0.319700  1
  H  H760  1  0.823900  0.621900  0.819700  1
  H  H761  1  0.302400  0.059600  0.641400  1
  H  H762  1  0.197600  0.440400  0.141400  1
  H  H763  1  0.697600  0.940400  0.358600  1
  H  H764  1  0.802400  0.559600  0.858600  1
  H  H765  1  0.256100  0.023300  0.658600  1
  H  H766  1  0.243900  0.476700  0.158600  1
  H  H767  1  0.743900  0.976700  0.341400  1
  H  H768  1  0.756100  0.523300  0.841400  1
  H  H769  1  0.336900  0.033100  0.667400  1
  H  H770  1  0.163100  0.466900  0.167400  1
  H  H771  1  0.663100  0.966900  0.332600  1
  H  H772  1  0.836900  0.533100  0.832600  1
  H  H773  1  0.086500  0.173900  0.471400  1
  H  H774  1  0.413500  0.326100  0.971400  1
  H  H775  1  0.913500  0.826100  0.528600  1
  H  H776  1  0.586500  0.673900  0.028600  1
  H  H777  1  0.090500  0.145200  0.503100  1
  H  H778  1  0.409500  0.354800  0.003100  1
  H  H779  1  0.909500  0.854800  0.496900  1
  H  H780  1  0.590500  0.645200  0.996900  1
  H  H781  1  0.125800  0.188600  0.506600  1
  H  H782  1  0.374200  0.311400  0.006600  1
  H  H783  1  0.874200  0.811400  0.493400  1
  H  H784  1  0.625800  0.688600  0.993400  1
  H  H785  1  0.914500  0.161300  0.501200  1
  H  H786  1  0.585500  0.338700  0.001200  1
  H  H787  1  0.085500  0.838700  0.498800  1
  H  H788  1  0.414500  0.661300  0.998800  1
  H  H789  1  0.960500  0.129200  0.493700  1
  H  H790  1  0.539500  0.370800  0.993700  1
  H  H791  1  0.039500  0.870800  0.506300  1
  H  H792  1  0.460500  0.629200  0.006300  1
  H  H793  1  0.960000  0.162900  0.466300  1
  H  H794  1  0.540000  0.337100  0.966300  1
  H  H795  1  0.040000  0.837100  0.533700  1
  H  H796  1  0.460000  0.662900  0.033700  1
  H  H797  1  0.052100  0.237700  0.511100  1
  H  H798  1  0.447900  0.262300  0.011100  1
  H  H799  1  0.947900  0.762300  0.488900  1
  H  H800  1  0.552100  0.737700  0.988900  1
  H  H801  1  0.971700  0.225300  0.519600  1
  H  H802  1  0.528300  0.274700  0.019600  1
  H  H803  1  0.028300  0.774700  0.480400  1
  H  H804  1  0.471700  0.725300  0.980400  1
  H  H805  1  0.998900  0.223200  0.480400  1
  H  H806  1  0.501100  0.276800  0.980400  1
  H  H807  1  0.001100  0.776800  0.519600  1
  H  H808  1  0.498900  0.723200  0.019600  1
  H  H809  1  0.799900  0.005500  0.756300  1
  H  H810  1  0.700100  0.494500  0.256300  1
  H  H811  1  0.200100  0.994500  0.243700  1
  H  H812  1  0.299900  0.505500  0.743700  1
  H  H813  1  0.719600  0.987600  0.754900  1
  H  H814  1  0.780400  0.512400  0.254900  1
  H  H815  1  0.280400  0.012400  0.245100  1
  H  H816  1  0.219600  0.487600  0.745100  1
  H  H817  1  0.742900  0.032400  0.752100  1
  H  H818  1  0.757100  0.467600  0.252100  1
  H  H819  1  0.257100  0.967600  0.247900  1
  H  H820  1  0.242900  0.532400  0.747900  1
  H  H821  1  0.749500  0.944900  0.710700  1
  H  H822  1  0.750500  0.555100  0.210700  1
  H  H823  1  0.250500  0.055100  0.289300  1
  H  H824  1  0.249500  0.444900  0.789300  1
  H  H825  1  0.827900  0.964800  0.704900  1
  H  H826  1  0.672100  0.535200  0.204900  1
  H  H827  1  0.172100  0.035200  0.295100  1
  H  H828  1  0.327900  0.464800  0.795100  1
  H  H829  1  0.774600  0.960800  0.672900  1
  H  H830  1  0.725400  0.539200  0.172900  1
  H  H831  1  0.225400  0.039200  0.327100  1
  H  H832  1  0.274600  0.460800  0.827100  1
  H  H833  1  0.656100  0.992100  0.700800  1
  H  H834  1  0.843900  0.507900  0.200800  1
  H  H835  1  0.343900  0.007900  0.299200  1
  H  H836  1  0.156100  0.492100  0.799200  1
  H  H837  1  0.698500  0.998300  0.665000  1
  H  H838  1  0.801500  0.501700  0.165000  1
  H  H839  1  0.301500  0.001700  0.335000  1
  H  H840  1  0.198500  0.498300  0.835000  1
  H  H841  1  0.688300  0.033900  0.688500  1
  H  H842  1  0.811700  0.466100  0.188500  1
  H  H843  1  0.311700  0.966100  0.311500  1
  H  H844  1  0.188300  0.533900  0.811500  1
  H  H845  1  0.768800  0.307800  0.066200  1
  H  H846  1  0.731200  0.192200  0.566200  1
  H  H847  1  0.231200  0.692200  0.933800  1
  H  H848  1  0.268800  0.807800  0.433800  1
  H  H849  1  0.713300  0.318400  0.093500  1
  H  H850  1  0.786700  0.181600  0.593500  1
  H  H851  1  0.286700  0.681600  0.906500  1
  H  H852  1  0.213300  0.818400  0.406500  1
  H  H853  1  0.700200  0.321800  0.052500  1
  H  H854  1  0.799800  0.178200  0.552500  1
  H  H855  1  0.299800  0.678200  0.947500  1
  H  H856  1  0.200200  0.821800  0.447500  1
  H  H857  1  0.698900  0.214700  0.091500  1
  H  H858  1  0.801100  0.285300  0.591500  1
  H  H859  1  0.301100  0.785300  0.908500  1
  H  H860  1  0.198900  0.714700  0.408500  1
  H  H861  1  0.737100  0.250600  0.112700  1
  H  H862  1  0.762900  0.249400  0.612700  1
  H  H863  1  0.262900  0.749400  0.887300  1
  H  H864  1  0.237100  0.750600  0.387300  1
  H  H865  1  0.768000  0.239300  0.076200  1
  H  H866  1  0.732000  0.260700  0.576200  1
  H  H867  1  0.232000  0.760700  0.923800  1
  H  H868  1  0.268000  0.739300  0.423800  1
  H  H869  1  0.580900  0.278700  0.078700  1
  H  H870  1  0.919100  0.221300  0.578700  1
  H  H871  1  0.419100  0.721300  0.921300  1
  H  H872  1  0.080900  0.778700  0.421300  1
  H  H873  1  0.615200  0.266200  0.113800  1
  H  H874  1  0.884800  0.233800  0.613800  1
  H  H875  1  0.384800  0.733800  0.886200  1
  H  H876  1  0.115200  0.766200  0.386200  1
  H  H877  1  0.584400  0.235000  0.085600  1
  H  H878  1  0.915600  0.265000  0.585600  1
  H  H879  1  0.415600  0.765000  0.914400  1
  H  H880  1  0.084400  0.735000  0.414400  1
  C  C881  1  0.233500  0.390200  0.982060  1
  C  C882  1  0.266500  0.109800  0.482060  1
  C  C883  1  0.766500  0.609800  0.017940  1
  C  C884  1  0.733500  0.890200  0.517940  1
  C  C885  1  0.235600  0.379100  0.015800  1
  C  C886  1  0.264400  0.120900  0.515800  1
  C  C887  1  0.764400  0.620900  0.984200  1
  C  C888  1  0.735600  0.879100  0.484200  1
  C  C889  1  0.215700  0.342000  0.025200  1
  C  C890  1  0.284300  0.158000  0.525200  1
  C  C891  1  0.784300  0.658000  0.974800  1
  C  C892  1  0.715700  0.842000  0.474800  1
  C  C893  1  0.194400  0.316800  0.997930  1
  C  C894  1  0.305600  0.183200  0.497930  1
  C  C895  1  0.805600  0.683200  0.002070  1
  C  C896  1  0.694400  0.816800  0.502070  1
  C  C897  1  0.193000  0.329400  0.963600  1
  C  C898  1  0.307000  0.170600  0.463600  1
  C  C899  1  0.807000  0.670600  0.036400  1
  C  C900  1  0.693000  0.829400  0.536400  1
  C  C901  1  0.169800  0.303800  0.934780  1
  C  C902  1  0.330200  0.196200  0.434780  1
  C  C903  1  0.830200  0.696200  0.065220  1
  C  C904  1  0.669800  0.803800  0.565220  1
  C  C905  1  0.146200  0.265000  0.938500  1
  C  C906  1  0.353800  0.235000  0.438500  1
  C  C907  1  0.853800  0.735000  0.061500  1
  C  C908  1  0.646200  0.765000  0.561500  1
  C  C909  1  0.125500  0.243000  0.909590  1
  C  C910  1  0.374500  0.257000  0.409590  1
  C  C911  1  0.874500  0.757000  0.090410  1
  C  C912  1  0.625500  0.743000  0.590410  1
  C  C913  1  0.130000  0.259110  0.876750  1
  C  C914  1  0.370000  0.240890  0.376750  1
  C  C915  1  0.870000  0.740890  0.123250  1
  C  C916  1  0.630000  0.759110  0.623250  1
  C  C917  1  0.152400  0.297510  0.874720  1
  C  C918  1  0.347600  0.202490  0.374720  1
  C  C919  1  0.847600  0.702490  0.125280  1
  C  C920  1  0.652400  0.797510  0.625280  1
  C  C921  1  0.282000  0.465600  0.908490  1
  C  C922  1  0.218000  0.034400  0.408490  1
  C  C923  1  0.718000  0.534400  0.091510  1
  C  C924  1  0.782000  0.965600  0.591510  1
  C  C925  1  0.287700  0.504000  0.910900  1
  C  C926  1  0.212300  0.996000  0.410900  1
  C  C927  1  0.712300  0.496000  0.089100  1
  C  C928  1  0.787700  0.004000  0.589100  1
  C  C929  1  0.229900  0.520800  0.913720  1
  C  C930  1  0.270100  0.979200  0.413720  1
  C  C931  1  0.770100  0.479200  0.086280  1
  C  C932  1  0.729900  0.020800  0.586280  1
  C  C933  1  0.165800  0.495570  0.913620  1
  C  C934  1  0.334200  0.004430  0.413620  1
  C  C935  1  0.834200  0.504430  0.086380  1
  C  C936  1  0.665800  0.995570  0.586380  1
  C  C937  1  0.164100  0.457310  0.910250  1
  C  C938  1  0.335900  0.042690  0.410250  1
  C  C939  1  0.835900  0.542690  0.089750  1
  C  C940  1  0.664100  0.957310  0.589750  1
  C  C941  1  0.098000  0.430030  0.909140  1
  C  C942  1  0.402000  0.069970  0.409140  1
  C  C943  1  0.902000  0.569970  0.090860  1
  C  C944  1  0.598000  0.930030  0.590860  1
  C  C945  1  0.032500  0.440750  0.912570  1
  C  C946  1  0.467500  0.059250  0.412570  1
  C  C947  1  0.967500  0.559250  0.087430  1
  C  C948  1  0.532500  0.940750  0.587430  1
  C  C949  1  0.974800  0.413740  0.911300  1
  C  C950  1  0.525200  0.086260  0.411300  1
  C  C951  1  0.025200  0.586260  0.088700  1
  C  C952  1  0.474800  0.913740  0.588700  1
  C  C953  1  0.980200  0.376410  0.906650  1
  C  C954  1  0.519800  0.123590  0.406650  1
  C  C955  1  0.019800  0.623590  0.093350  1
  C  C956  1  0.480200  0.876410  0.593350  1
  C  C957  1  0.045400  0.368200  0.903460  1
  C  C958  1  0.454600  0.131800  0.403460  1
  C  C959  1  0.954600  0.631800  0.096540  1
  C  C960  1  0.545400  0.868200  0.596540  1
  C  C961  1  0.366200  0.382400  0.915940  1
  C  C962  1  0.133800  0.117600  0.415940  1
  C  C963  1  0.633800  0.617600  0.084060  1
  C  C964  1  0.866200  0.882400  0.584060  1
  C  C965  1  0.432600  0.380980  0.907200  1
  C  C966  1  0.067400  0.119020  0.407200  1
  C  C967  1  0.567400  0.619020  0.092800  1
  C  C968  1  0.932600  0.880980  0.592800  1
  C  C969  1  0.451900  0.374820  0.872770  1
  C  C970  1  0.048100  0.125180  0.372770  1
  C  C971  1  0.548100  0.625180  0.127230  1
  C  C972  1  0.951900  0.874820  0.627230  1
  C  C973  1  0.396600  0.370990  0.848320  1
  C  C974  1  0.103400  0.129010  0.348320  1
  C  C975  1  0.603400  0.629010  0.151680  1
  C  C976  1  0.896600  0.870990  0.651680  1
  C  C977  1  0.330800  0.373770  0.858670  1
  C  C978  1  0.169200  0.126230  0.358670  1
  C  C979  1  0.669200  0.626230  0.141330  1
  C  C980  1  0.830800  0.873770  0.641330  1
  C  C981  1  0.273100  0.373010  0.833310  1
  C  C982  1  0.226900  0.126990  0.333310  1
  C  C983  1  0.726900  0.626990  0.166690  1
  C  C984  1  0.773100  0.873010  0.666690  1
  C  C985  1  0.279500  0.365340  0.798330  1
  C  C986  1  0.220500  0.134660  0.298330  1
  C  C987  1  0.720500  0.634660  0.201670  1
  C  C988  1  0.779500  0.865340  0.701670  1
  C  C989  1  0.224300  0.368270  0.775970  1
  C  C990  1  0.275700  0.131730  0.275970  1
  C  C991  1  0.775700  0.631730  0.224030  1
  C  C992  1  0.724300  0.868270  0.724030  1
  C  C993  1  0.164100  0.378070  0.789380  1
  C  C994  1  0.335900  0.121930  0.289380  1
  C  C995  1  0.835900  0.621930  0.210620  1
  C  C996  1  0.664100  0.878070  0.710620  1
  C  C997  1  0.160900  0.383060  0.824730  1
  C  C998  1  0.339100  0.116940  0.324730  1
  C  C999  1  0.839100  0.616940  0.175270  1
  C  C1000  1  0.660900  0.883060  0.675270  1
  C  C1001  1  0.642700  0.447700  0.675690  1
  C  C1002  1  0.857300  0.052300  0.175690  1
  C  C1003  1  0.357300  0.552300  0.324310  1
  C  C1004  1  0.142700  0.947700  0.824310  1
  C  C1005  1  0.579700  0.456800  0.684950  1
  C  C1006  1  0.920300  0.043200  0.184950  1
  C  C1007  1  0.420300  0.543200  0.315050  1
  C  C1008  1  0.079700  0.956800  0.815050  1
  C  C1009  1  0.564200  0.461400  0.719550  1
  C  C1010  1  0.935800  0.038600  0.219550  1
  C  C1011  1  0.435800  0.538600  0.280450  1
  C  C1012  1  0.064200  0.961400  0.780450  1
  C  C1013  1  0.614100  0.455800  0.743790  1
  C  C1014  1  0.885900  0.044200  0.243790  1
  C  C1015  1  0.385900  0.544200  0.256210  1
  C  C1016  1  0.114100  0.955800  0.756210  1
  C  C1017  1  0.677000  0.446070  0.732550  1
  C  C1018  1  0.823000  0.053930  0.232550  1
  C  C1019  1  0.323000  0.553930  0.267450  1
  C  C1020  1  0.177000  0.946070  0.767450  1
  C  C1021  1  0.733200  0.439290  0.757860  1
  C  C1022  1  0.766800  0.060710  0.257860  1
  C  C1023  1  0.266800  0.560710  0.242140  1
  C  C1024  1  0.233200  0.939290  0.742140  1
  C  C1025  1  0.726700  0.442840  0.793530  1
  C  C1026  1  0.773300  0.057160  0.293530  1
  C  C1027  1  0.273300  0.557160  0.206470  1
  C  C1028  1  0.226700  0.942840  0.706470  1
  C  C1029  1  0.780900  0.436710  0.814650  1
  C  C1030  1  0.719100  0.063290  0.314650  1
  C  C1031  1  0.219100  0.563290  0.185350  1
  C  C1032  1  0.280900  0.936710  0.685350  1
  C  C1033  1  0.841100  0.428000  0.799870  1
  C  C1034  1  0.658900  0.072000  0.299870  1
  C  C1035  1  0.158900  0.572000  0.200130  1
  C  C1036  1  0.341100  0.928000  0.700130  1
  C  C1037  1  0.841600  0.424780  0.763890  1
  C  C1038  1  0.658400  0.075220  0.263890  1
  C  C1039  1  0.158400  0.575220  0.236110  1
  C  C1040  1  0.341600  0.924780  0.736110  1
  C  C1041  1  0.798200  0.454400  0.607690  1
  C  C1042  1  0.701800  0.045600  0.107690  1
  C  C1043  1  0.201800  0.545600  0.392310  1
  C  C1044  1  0.298200  0.954400  0.892310  1
  C  C1045  1  0.795900  0.448100  0.573520  1
  C  C1046  1  0.704100  0.051900  0.073520  1
  C  C1047  1  0.204100  0.551900  0.426480  1
  C  C1048  1  0.295900  0.948100  0.926480  1
  C  C1049  1  0.770900  0.411600  0.560110  1
  C  C1050  1  0.729100  0.088400  0.060110  1
  C  C1051  1  0.229100  0.588400  0.439890  1
  C  C1052  1  0.270900  0.911600  0.939890  1
  C  C1053  1  0.750100  0.384500  0.584020  1
  C  C1054  1  0.749900  0.115500  0.084020  1
  C  C1055  1  0.249900  0.615500  0.415980  1
  C  C1056  1  0.250100  0.884500  0.915980  1
  C  C1057  1  0.754700  0.392070  0.619360  1
  C  C1058  1  0.745300  0.107930  0.119360  1
  C  C1059  1  0.245300  0.607930  0.380640  1
  C  C1060  1  0.254700  0.892070  0.880640  1
  C  C1061  1  0.733800  0.362950  0.646650  1
  C  C1062  1  0.766200  0.137050  0.146650  1
  C  C1063  1  0.266200  0.637050  0.353350  1
  C  C1064  1  0.233800  0.862950  0.853350  1
  C  C1065  1  0.695700  0.328300  0.639750  1
  C  C1066  1  0.804300  0.171700  0.139750  1
  C  C1067  1  0.304300  0.671700  0.360250  1
  C  C1068  1  0.195700  0.828300  0.860250  1
  C  C1069  1  0.678500  0.302140  0.666940  1
  C  C1070  1  0.821500  0.197860  0.166940  1
  C  C1071  1  0.321500  0.697860  0.333060  1
  C  C1072  1  0.178500  0.802140  0.833060  1
  C  C1073  1  0.701300  0.311690  0.700100  1
  C  C1074  1  0.798700  0.188310  0.200100  1
  C  C1075  1  0.298700  0.688310  0.299900  1
  C  C1076  1  0.201300  0.811690  0.799900  1
  C  C1077  1  0.739400  0.347290  0.705320  1
  C  C1078  1  0.760600  0.152710  0.205320  1
  C  C1079  1  0.260600  0.652710  0.294680  1
  C  C1080  1  0.239400  0.847290  0.794680  1
  C  C1081  1  0.801400  0.520590  0.683970  1
  C  C1082  1  0.698600  0.979410  0.183970  1
  C  C1083  1  0.198600  0.479410  0.316030  1
  C  C1084  1  0.301400  0.020590  0.816030  1
  C  C1085  1  0.834100  0.557800  0.682300  1
  C  C1086  1  0.665900  0.942200  0.182300  1
  C  C1087  1  0.165900  0.442200  0.317700  1
  C  C1088  1  0.334100  0.057800  0.817700  1
  C  C1089  1  0.904500  0.566200  0.684200  1
  C  C1090  1  0.595500  0.933800  0.184200  1
  C  C1091  1  0.095500  0.433800  0.315800  1
  C  C1092  1  0.404500  0.066200  0.815800  1
  C  C1093  1  0.940500  0.535960  0.688200  1
  C  C1094  1  0.559500  0.964040  0.188200  1
  C  C1095  1  0.059500  0.464040  0.311800  1
  C  C1096  1  0.440500  0.035960  0.811800  1
  C  C1097  1  0.904000  0.498650  0.688900  1
  C  C1098  1  0.596000  0.001350  0.188900  1
  C  C1099  1  0.096000  0.501350  0.311100  1
  C  C1100  1  0.404000  0.998650  0.811100  1
  C  C1101  1  0.941600  0.465680  0.689250  1
  C  C1102  1  0.558400  0.034320  0.189250  1
  C  C1103  1  0.058400  0.534320  0.310750  1
  C  C1104  1  0.441600  0.965680  0.810750  1
  C  C1105  1  0.012100  0.467980  0.693200  1
  C  C1106  1  0.487900  0.032020  0.193200  1
  C  C1107  1  0.987900  0.532020  0.306800  1
  C  C1108  1  0.512100  0.967980  0.806800  1
  C  C1109  1  0.041100  0.436200  0.689470  1
  C  C1110  1  0.458900  0.063800  0.189470  1
  C  C1111  1  0.958900  0.563800  0.310530  1
  C  C1112  1  0.541100  0.936200  0.810530  1
  C  C1113  1  0.000600  0.401020  0.683430  1
  C  C1114  1  0.499400  0.098980  0.183430  1
  C  C1115  1  0.999400  0.598980  0.316570  1
  C  C1116  1  0.500600  0.901020  0.816570  1
  C  C1117  1  0.929500  0.401310  0.682270  1
  C  C1118  1  0.570500  0.098690  0.182270  1
  C  C1119  1  0.070500  0.598690  0.317730  1
  C  C1120  1  0.429500  0.901310  0.817730  1
  C  C1121  1  0.631100  0.201400  0.992830  1
  C  C1122  1  0.868900  0.298600  0.492830  1
  C  C1123  1  0.368900  0.798600  0.007170  1
  C  C1124  1  0.131100  0.701400  0.507170  1
  C  C1125  1  0.639500  0.214180  0.026050  1
  C  C1126  1  0.860500  0.285820  0.526050  1
  C  C1127  1  0.360500  0.785820  0.973950  1
  C  C1128  1  0.139500  0.714180  0.473950  1
  C  C1129  1  0.670100  0.251200  0.032780  1
  C  C1130  1  0.829900  0.248800  0.532780  1
  C  C1131  1  0.329900  0.748800  0.967220  1
  C  C1132  1  0.170100  0.751200  0.467220  1
  C  C1133  1  0.689700  0.273500  0.003180  1
  C  C1134  1  0.810300  0.226500  0.503180  1
  C  C1135  1  0.310300  0.726500  0.996820  1
  C  C1136  1  0.189700  0.773500  0.496820  1
  C  C1137  1  0.677700  0.258620  0.969720  1
  C  C1138  1  0.822300  0.241380  0.469720  1
  C  C1139  1  0.322300  0.741380  0.030280  1
  C  C1140  1  0.177700  0.758620  0.530280  1
  C  C1141  1  0.695400  0.282150  0.938410  1
  C  C1142  1  0.804600  0.217850  0.438410  1
  C  C1143  1  0.304600  0.717850  0.061590  1
  C  C1144  1  0.195400  0.782150  0.561590  1
  C  C1145  1  0.712400  0.321310  0.939620  1
  C  C1146  1  0.787600  0.178690  0.439620  1
  C  C1147  1  0.287600  0.678690  0.060380  1
  C  C1148  1  0.212400  0.821310  0.560380  1
  C  C1149  1  0.728700  0.341260  0.908210  1
  C  C1150  1  0.771300  0.158740  0.408210  1
  C  C1151  1  0.271300  0.658740  0.091790  1
  C  C1152  1  0.228700  0.841260  0.591790  1
  C  C1153  1  0.726400  0.322520  0.877250  1
  C  C1154  1  0.773600  0.177480  0.377250  1
  C  C1155  1  0.273600  0.677480  0.122750  1
  C  C1156  1  0.226400  0.822520  0.622750  1
  C  C1157  1  0.708100  0.282860  0.878160  1
  C  C1158  1  0.791900  0.217140  0.378160  1
  C  C1159  1  0.291900  0.717140  0.121840  1
  C  C1160  1  0.208100  0.782860  0.621840  1
  C  C1161  1  0.548000  0.127130  0.926050  1
  C  C1162  1  0.952000  0.372870  0.426050  1
  C  C1163  1  0.452000  0.872870  0.073950  1
  C  C1164  1  0.048000  0.627130  0.573950  1
  C  C1165  1  0.527700  0.087750  0.926240  1
  C  C1166  1  0.972300  0.412250  0.426240  1
  C  C1167  1  0.472300  0.912250  0.073760  1
  C  C1168  1  0.027700  0.587750  0.573760  1
  C  C1169  1  0.575600  0.064320  0.918410  1
  C  C1170  1  0.924400  0.435680  0.418410  1
  C  C1171  1  0.424400  0.935680  0.081590  1
  C  C1172  1  0.075600  0.564320  0.581590  1
  C  C1173  1  0.644500  0.082890  0.912460  1
  C  C1174  1  0.855500  0.417110  0.412460  1
  C  C1175  1  0.355500  0.917110  0.087540  1
  C  C1176  1  0.144500  0.582890  0.587540  1
  C  C1177  1  0.660600  0.122480  0.913830  1
  C  C1178  1  0.839400  0.377520  0.413830  1
  C  C1179  1  0.339400  0.877520  0.086170  1
  C  C1180  1  0.160600  0.622480  0.586170  1
  C  C1181  1  0.732300  0.143210  0.909660  1
  C  C1182  1  0.767700  0.356790  0.409660  1
  C  C1183  1  0.267700  0.856790  0.090340  1
  C  C1184  1  0.232300  0.643210  0.590340  1
  C  C1185  1  0.790700  0.125310  0.906650  1
  C  C1186  1  0.709300  0.374690  0.406650  1
  C  C1187  1  0.209300  0.874690  0.093350  1
  C  C1188  1  0.290700  0.625310  0.593350  1
  C  C1189  1  0.854700  0.147350  0.905370  1
  C  C1190  1  0.645300  0.352650  0.405370  1
  C  C1191  1  0.145300  0.852650  0.094630  1
  C  C1192  1  0.354700  0.647350  0.594630  1
  C  C1193  1  0.861100  0.186360  0.906700  1
  C  C1194  1  0.638900  0.313640  0.406700  1
  C  C1195  1  0.138900  0.813640  0.093300  1
  C  C1196  1  0.361100  0.686360  0.593300  1
  C  C1197  1  0.803000  0.201840  0.908900  1
  C  C1198  1  0.697000  0.298160  0.408900  1
  C  C1199  1  0.197000  0.798160  0.091100  1
  C  C1200  1  0.303000  0.701840  0.591100  1
  C  C1201  1  0.499000  0.221000  0.926410  1
  C  C1202  1  0.001000  0.279000  0.426410  1
  C  C1203  1  0.501000  0.779000  0.073590  1
  C  C1204  1  0.999000  0.721000  0.573590  1
  C  C1205  1  0.434600  0.230560  0.918190  1
  C  C1206  1  0.065400  0.269440  0.418190  1
  C  C1207  1  0.565400  0.769440  0.081810  1
  C  C1208  1  0.934600  0.730560  0.581810  1
  C  C1209  1  0.417100  0.236500  0.883690  1
  C  C1210  1  0.082900  0.263500  0.383690  1
  C  C1211  1  0.582900  0.763500  0.116310  1
  C  C1212  1  0.917100  0.736500  0.616310  1
  C  C1213  1  0.465300  0.231380  0.859250  1
  C  C1214  1  0.034700  0.268620  0.359250  1
  C  C1215  1  0.534700  0.768620  0.140750  1
  C  C1216  1  0.965300  0.731380  0.640750  1
  C  C1217  1  0.527100  0.220900  0.868420  1
  C  C1218  1  0.972900  0.279100  0.368420  1
  C  C1219  1  0.472900  0.779100  0.131580  1
  C  C1220  1  0.027100  0.720900  0.631580  1
  C  C1221  1  0.578900  0.212730  0.841800  1
  C  C1222  1  0.921100  0.287270  0.341800  1
  C  C1223  1  0.421100  0.787270  0.158200  1
  C  C1224  1  0.078900  0.712730  0.658200  1
  C  C1225  1  0.568000  0.215290  0.806050  1
  C  C1226  1  0.932000  0.284710  0.306050  1
  C  C1227  1  0.432000  0.784710  0.193950  1
  C  C1228  1  0.068000  0.715290  0.693950  1
  C  C1229  1  0.617100  0.203880  0.783220  1
  C  C1230  1  0.882900  0.296120  0.283220  1
  C  C1231  1  0.382900  0.796120  0.216780  1
  C  C1232  1  0.117100  0.703880  0.716780  1
  C  C1233  1  0.673200  0.190410  0.796550  1
  C  C1234  1  0.826800  0.309590  0.296550  1
  C  C1235  1  0.326800  0.809590  0.203450  1
  C  C1236  1  0.173200  0.690410  0.703450  1
  C  C1237  1  0.679900  0.189730  0.832310  1
  C  C1238  1  0.820100  0.310270  0.332310  1
  C  C1239  1  0.320100  0.810270  0.167690  1
  C  C1240  1  0.179900  0.689730  0.667690  1
  C  C1241  1  0.981000  0.128400  0.596930  1
  C  C1242  1  0.519000  0.371600  0.096930  1
  C  C1243  1  0.019000  0.871600  0.403070  1
  C  C1244  1  0.481000  0.628400  0.903070  1
  C  C1245  1  0.984400  0.136200  0.561800  1
  C  C1246  1  0.515600  0.363800  0.061800  1
  C  C1247  1  0.015600  0.863800  0.438200  1
  C  C1248  1  0.484400  0.636200  0.938200  1
  C  C1249  1  0.016000  0.170400  0.550640  1
  C  C1250  1  0.484000  0.329600  0.050640  1
  C  C1251  1  0.984000  0.829600  0.449360  1
  C  C1252  1  0.516000  0.670400  0.949360  1
  C  C1253  1  0.046000  0.196600  0.575900  1
  C  C1254  1  0.454000  0.303400  0.075900  1
  C  C1255  1  0.954000  0.803400  0.424100  1
  C  C1256  1  0.546000  0.696600  0.924100  1
  C  C1257  1  0.039500  0.186800  0.611330  1
  C  C1258  1  0.460500  0.313200  0.111330  1
  C  C1259  1  0.960500  0.813200  0.388670  1
  C  C1260  1  0.539500  0.686800  0.888670  1
  C  C1261  1  0.068700  0.213930  0.639610  1
  C  C1262  1  0.431300  0.286070  0.139610  1
  C  C1263  1  0.931300  0.786070  0.360390  1
  C  C1264  1  0.568700  0.713930  0.860390  1
  C  C1265  1  0.096800  0.250900  0.633610  1
  C  C1266  1  0.403200  0.249100  0.133610  1
  C  C1267  1  0.903200  0.749100  0.366390  1
  C  C1268  1  0.596800  0.750900  0.866390  1
  C  C1269  1  0.118500  0.274000  0.660800  1
  C  C1270  1  0.381500  0.226000  0.160800  1
  C  C1271  1  0.881500  0.726000  0.339200  1
  C  C1272  1  0.618500  0.774000  0.839200  1
  C  C1273  1  0.114900  0.259670  0.694660  1
  C  C1274  1  0.385100  0.240330  0.194660  1
  C  C1275  1  0.885100  0.740330  0.305340  1
  C  C1276  1  0.614900  0.759670  0.805340  1
  C  C1277  1  0.087100  0.222450  0.698690  1
  C  C1278  1  0.412900  0.277550  0.198690  1
  C  C1279  1  0.912900  0.777550  0.301310  1
  C  C1280  1  0.587100  0.722450  0.801310  1
  C  C1281  1  0.121800  0.100780  0.651490  1
  C  C1282  1  0.378200  0.399220  0.151490  1
  C  C1283  1  0.878200  0.899220  0.348510  1
  C  C1284  1  0.621800  0.600780  0.848510  1
  C  C1285  1  0.181300  0.085580  0.654300  1
  C  C1286  1  0.318700  0.414420  0.154300  1
  C  C1287  1  0.818700  0.914420  0.345700  1
  C  C1288  1  0.681300  0.585580  0.845700  1
  C  C1289  1  0.211000  0.083000  0.687350  1
  C  C1290  1  0.289000  0.417000  0.187350  1
  C  C1291  1  0.789000  0.917000  0.312650  1
  C  C1292  1  0.711000  0.583000  0.812650  1
  C  C1293  1  0.176700  0.095710  0.714880  1
  C  C1294  1  0.323300  0.404290  0.214880  1
  C  C1295  1  0.823300  0.904290  0.285120  1
  C  C1296  1  0.676700  0.595710  0.785120  1
  C  C1297  1  0.115400  0.109880  0.709660  1
  C  C1298  1  0.384600  0.390120  0.209660  1
  C  C1299  1  0.884600  0.890120  0.290340  1
  C  C1300  1  0.615400  0.609880  0.790340  1
  C  C1301  1  0.075500  0.121910  0.739560  1
  C  C1302  1  0.424500  0.378090  0.239560  1
  C  C1303  1  0.924500  0.878090  0.260440  1
  C  C1304  1  0.575500  0.621910  0.760440  1
  C  C1305  1  0.092900  0.117600  0.774300  1
  C  C1306  1  0.407100  0.382400  0.274300  1
  C  C1307  1  0.907100  0.882400  0.225700  1
  C  C1308  1  0.592900  0.617600  0.725700  1
  C  C1309  1  0.051900  0.128700  0.800100  1
  C  C1310  1  0.448100  0.371300  0.300100  1
  C  C1311  1  0.948100  0.871300  0.199900  1
  C  C1312  1  0.551900  0.628700  0.699900  1
  C  C1313  1  0.993900  0.144150  0.791740  1
  C  C1314  1  0.506100  0.355850  0.291740  1
  C  C1315  1  0.006100  0.855850  0.208260  1
  C  C1316  1  0.493900  0.644150  0.708260  1
  C  C1317  1  0.982000  0.148830  0.757130  1
  C  C1318  1  0.518000  0.351170  0.257130  1
  C  C1319  1  0.018000  0.851170  0.242870  1
  C  C1320  1  0.482000  0.648830  0.742870  1
  C  C1321  1  0.930900  0.058570  0.675100  1
  C  C1322  1  0.569100  0.441430  0.175100  1
  C  C1323  1  0.069100  0.941430  0.324900  1
  C  C1324  1  0.430900  0.558570  0.824900  1
  C  C1325  1  0.880000  0.028760  0.683580  1
  C  C1326  1  0.620000  0.471240  0.183580  1
  C  C1327  1  0.120000  0.971240  0.316420  1
  C  C1328  1  0.380000  0.528760  0.816420  1
  C  C1329  1  0.815200  0.035780  0.695230  1
  C  C1330  1  0.684800  0.464220  0.195230  1
  C  C1331  1  0.184800  0.964220  0.304770  1
  C  C1332  1  0.315200  0.535780  0.804770  1
  C  C1333  1  0.806600  0.073650  0.696290  1
  C  C1334  1  0.693400  0.426350  0.196290  1
  C  C1335  1  0.193400  0.926350  0.303710  1
  C  C1336  1  0.306600  0.573650  0.803710  1
  C  C1337  1  0.859400  0.102330  0.685660  1
  C  C1338  1  0.640600  0.397670  0.185660  1
  C  C1339  1  0.140600  0.897670  0.314340  1
  C  C1340  1  0.359400  0.602330  0.814340  1
  C  C1341  1  0.850400  0.141640  0.684720  1
  C  C1342  1  0.649600  0.358360  0.184720  1
  C  C1343  1  0.149600  0.858360  0.315280  1
  C  C1344  1  0.350400  0.641640  0.815280  1
  C  C1345  1  0.786200  0.153830  0.683990  1
  C  C1346  1  0.713800  0.346170  0.183990  1
  C  C1347  1  0.213800  0.846170  0.316010  1
  C  C1348  1  0.286200  0.653830  0.816010  1
  C  C1349  1  0.781300  0.191410  0.683740  1
  C  C1350  1  0.718700  0.308590  0.183740  1
  C  C1351  1  0.218700  0.808590  0.316260  1
  C  C1352  1  0.281300  0.691410  0.816260  1
  C  C1353  1  0.842100  0.217970  0.684640  1
  C  C1354  1  0.657900  0.282030  0.184640  1
  C  C1355  1  0.157900  0.782030  0.315360  1
  C  C1356  1  0.342100  0.717970  0.815360  1
  C  C1357  1  0.903200  0.204510  0.684350  1
  C  C1358  1  0.596800  0.295490  0.184350  1
  C  C1359  1  0.096800  0.795490  0.315650  1
  C  C1360  1  0.403200  0.704510  0.815650  1
  C  C1361  1  0.112400  0.234930  0.844190  1
  C  C1362  1  0.387600  0.265070  0.344190  1
  C  C1363  1  0.887600  0.765070  0.155810  1
  C  C1364  1  0.612400  0.734930  0.655810  1
  C  C1365  1  0.133900  0.259630  0.785550  1
  C  C1366  1  0.366100  0.240370  0.285550  1
  C  C1367  1  0.866100  0.740370  0.214450  1
  C  C1368  1  0.633900  0.759630  0.714450  1
  C  C1369  1  0.141500  0.284080  0.725340  1
  C  C1370  1  0.358500  0.215920  0.225340  1
  C  C1371  1  0.858500  0.715920  0.274660  1
  C  C1372  1  0.641500  0.784080  0.774660  1
  C  C1373  1  0.916200  0.346010  0.905400  1
  C  C1374  1  0.583800  0.153990  0.405400  1
  C  C1375  1  0.083800  0.653990  0.094600  1
  C  C1376  1  0.416200  0.846010  0.594600  1
  C  C1377  1  0.929900  0.279660  0.908440  1
  C  C1378  1  0.570100  0.220340  0.408440  1
  C  C1379  1  0.070100  0.720340  0.091560  1
  C  C1380  1  0.429900  0.779660  0.591560  1
  C  C1381  1  0.932500  0.211210  0.906190  1
  C  C1382  1  0.567500  0.288790  0.406190  1
  C  C1383  1  0.067500  0.788790  0.093810  1
  C  C1384  1  0.432500  0.711210  0.593810  1
  C  C1385  1  0.105900  0.384600  0.765460  1
  C  C1386  1  0.394100  0.115400  0.265460  1
  C  C1387  1  0.894100  0.615400  0.234540  1
  C  C1388  1  0.605900  0.884600  0.734540  1
  C  C1389  1  0.007400  0.406980  0.792960  1
  C  C1390  1  0.492600  0.093020  0.292960  1
  C  C1391  1  0.992600  0.593020  0.207040  1
  C  C1392  1  0.507400  0.906980  0.707040  1
  C  C1393  1  0.902900  0.422460  0.821590  1
  C  C1394  1  0.597100  0.077540  0.321590  1
  C  C1395  1  0.097100  0.577540  0.178410  1
  C  C1396  1  0.402900  0.922460  0.678410  1
  C  C1397  1  0.838000  0.259850  0.684570  1
  C  C1398  1  0.662000  0.240150  0.184570  1
  C  C1399  1  0.162000  0.740150  0.315430  1
  C  C1400  1  0.338000  0.759850  0.815430  1
  C  C1401  1  0.937600  0.310570  0.677400  1
  C  C1402  1  0.562400  0.189430  0.177400  1
  C  C1403  1  0.062400  0.689430  0.322600  1
  C  C1404  1  0.437600  0.810570  0.822600  1
  C  C1405  1  0.030000  0.365300  0.678210  1
  C  C1406  1  0.470000  0.134700  0.178210  1
  C  C1407  1  0.970000  0.634700  0.321790  1
  C  C1408  1  0.530000  0.865300  0.821790  1
  C  C1409  1  0.742400  0.342950  0.843630  1
  C  C1410  1  0.757600  0.157050  0.343630  1
  C  C1411  1  0.257600  0.657050  0.156370  1
  C  C1412  1  0.242400  0.842950  0.656370  1
  C  C1413  1  0.705500  0.313710  0.787890  1
  C  C1414  1  0.794500  0.186290  0.287890  1
  C  C1415  1  0.294500  0.686290  0.212110  1
  C  C1416  1  0.205500  0.813710  0.712110  1
  C  C1417  1  0.681500  0.284350  0.730400  1
  C  C1418  1  0.818500  0.215650  0.230400  1
  C  C1419  1  0.318500  0.715650  0.269600  1
  C  C1420  1  0.181500  0.784350  0.769600  1
  C  C1421  1  0.725300  0.176400  0.772990  1
  C  C1422  1  0.774700  0.323600  0.272990  1
  C  C1423  1  0.274700  0.823600  0.227010  1
  C  C1424  1  0.225300  0.676400  0.727010  1
  C  C1425  1  0.834700  0.162100  0.797200  1
  C  C1426  1  0.665300  0.337900  0.297200  1
  C  C1427  1  0.165300  0.837900  0.202800  1
  C  C1428  1  0.334700  0.662100  0.702800  1
  C  C1429  1  0.948000  0.155200  0.820400  1
  C  C1430  1  0.552000  0.344800  0.320400  1
  C  C1431  1  0.052000  0.844800  0.179600  1
  C  C1432  1  0.448000  0.655200  0.679600  1
  C  C1433  1  0.232300  0.563100  0.917300  1
  C  C1434  1  0.267700  0.936900  0.417300  1
  C  C1435  1  0.767700  0.436900  0.082700  1
  C  C1436  1  0.732300  0.063100  0.582700  1
  C  C1437  1  0.216300  0.570600  0.952200  1
  C  C1438  1  0.283700  0.929400  0.452200  1
  C  C1439  1  0.783700  0.429400  0.047800  1
  C  C1440  1  0.716300  0.070600  0.547800  1
  C  C1441  1  0.299000  0.584700  0.906100  1
  C  C1442  1  0.201000  0.915300  0.406100  1
  C  C1443  1  0.701000  0.415300  0.093900  1
  C  C1444  1  0.799000  0.084700  0.593900  1
  C  C1445  1  0.190400  0.576000  0.888300  1
  C  C1446  1  0.309600  0.924000  0.388300  1
  C  C1447  1  0.809600  0.424000  0.111700  1
  C  C1448  1  0.690400  0.076000  0.611700  1
  C  C1449  1  0.217100  0.330000  0.063100  1
  C  C1450  1  0.282900  0.170000  0.563100  1
  C  C1451  1  0.782900  0.670000  0.936900  1
  C  C1452  1  0.717100  0.830000  0.436900  1
  C  C1453  1  0.177800  0.352200  0.085100  1
  C  C1454  1  0.322200  0.147800  0.585100  1
  C  C1455  1  0.822200  0.647800  0.914900  1
  C  C1456  1  0.677800  0.852200  0.414900  1
  C  C1457  1  0.285000  0.343800  0.080100  1
  C  C1458  1  0.215000  0.156200  0.580100  1
  C  C1459  1  0.715000  0.656200  0.919900  1
  C  C1460  1  0.785000  0.843800  0.419900  1
  C  C1461  1  0.225200  0.290000  0.065400  1
  C  C1462  1  0.274800  0.210000  0.565400  1
  C  C1463  1  0.774800  0.710000  0.934600  1
  C  C1464  1  0.725200  0.790000  0.434600  1
  C  C1465  1  0.525300  0.370990  0.862720  1
  C  C1466  1  0.974700  0.129010  0.362720  1
  C  C1467  1  0.474700  0.629010  0.137280  1
  C  C1468  1  0.025300  0.870990  0.637280  1
  C  C1469  1  0.577600  0.392000  0.889600  1
  C  C1470  1  0.922400  0.108000  0.389600  1
  C  C1471  1  0.422400  0.608000  0.110400  1
  C  C1472  1  0.077600  0.892000  0.610400  1
  C  C1473  1  0.529300  0.329200  0.861300  1
  C  C1474  1  0.970700  0.170800  0.361300  1
  C  C1475  1  0.470700  0.670800  0.138700  1
  C  C1476  1  0.029300  0.829200  0.638700  1
  C  C1477  1  0.543100  0.388200  0.826500  1
  C  C1478  1  0.956900  0.111800  0.326500  1
  C  C1479  1  0.456900  0.611800  0.173500  1
  C  C1480  1  0.043100  0.888200  0.673500  1
  C  C1481  1  0.770900  0.404700  0.520400  1
  C  C1482  1  0.729100  0.095300  0.020400  1
  C  C1483  1  0.229100  0.595300  0.479600  1
  C  C1484  1  0.270900  0.904700  0.979600  1
  C  C1485  1  0.853600  0.406100  0.511200  1
  C  C1486  1  0.646400  0.093900  0.011200  1
  C  C1487  1  0.146400  0.593900  0.488800  1
  C  C1488  1  0.353600  0.906100  0.988800  1
  C  C1489  1  0.746700  0.364300  0.511300  1
  C  C1490  1  0.753300  0.135700  0.011300  1
  C  C1491  1  0.253300  0.635700  0.488700  1
  C  C1492  1  0.246700  0.864300  0.988700  1
  C  C1493  1  0.750600  0.434200  0.500300  1
  C  C1494  1  0.749400  0.065800  0.000300  1
  C  C1495  1  0.249400  0.565800  0.499700  1
  C  C1496  1  0.250600  0.934200  0.999700  1
  C  C1497  1  0.495900  0.473400  0.731700  1
  C  C1498  1  0.004100  0.026600  0.231700  1
  C  C1499  1  0.504100  0.526600  0.268300  1
  C  C1500  1  0.995900  0.973400  0.768300  1
  C  C1501  1  0.464700  0.447500  0.762200  1
  C  C1502  1  0.035300  0.052500  0.262200  1
  C  C1503  1  0.535300  0.552500  0.237800  1
  C  C1504  1  0.964700  0.947500  0.737800  1
  C  C1505  1  0.514200  0.515600  0.744200  1
  C  C1506  1  0.985800  0.984400  0.244200  1
  C  C1507  1  0.485800  0.484400  0.255800  1
  C  C1508  1  0.014200  0.015600  0.755800  1
  C  C1509  1  0.444600  0.471100  0.701400  1
  C  C1510  1  0.055400  0.028900  0.201400  1
  C  C1511  1  0.555400  0.528900  0.298600  1
  C  C1512  1  0.944600  0.971100  0.798600  1
  C  C1513  1  0.943900  0.606300  0.682500  1
  C  C1514  1  0.556100  0.893700  0.182500  1
  C  C1515  1  0.056100  0.393700  0.317500  1
  C  C1516  1  0.443900  0.106300  0.817500  1
  C  C1517  1  0.017200  0.609600  0.672200  1
  C  C1518  1  0.482800  0.890400  0.172200  1
  C  C1519  1  0.982800  0.390400  0.327800  1
  C  C1520  1  0.517200  0.109600  0.827800  1
  C  C1521  1  0.924200  0.628000  0.709700  1
  C  C1522  1  0.575800  0.872000  0.209700  1
  C  C1523  1  0.075800  0.372000  0.290300  1
  C  C1524  1  0.424200  0.128000  0.790300  1
  C  C1525  1  0.908600  0.624600  0.650500  1
  C  C1526  1  0.591400  0.875400  0.150500  1
  C  C1527  1  0.091400  0.375400  0.349500  1
  C  C1528  1  0.408600  0.124600  0.849500  1
  C  C1529  1  0.345300  0.245700  0.876800  1
  C  C1530  1  0.154700  0.254300  0.376800  1
  C  C1531  1  0.654700  0.754300  0.123200  1
  C  C1532  1  0.845300  0.745700  0.623200  1
  C  C1533  1  0.340900  0.259500  0.838200  1
  C  C1534  1  0.159100  0.240500  0.338200  1
  C  C1535  1  0.659100  0.740500  0.161800  1
  C  C1536  1  0.840900  0.759500  0.661800  1
  C  C1537  1  0.294300  0.210800  0.881900  1
  C  C1538  1  0.205700  0.289200  0.381900  1
  C  C1539  1  0.705700  0.789200  0.118100  1
  C  C1540  1  0.794300  0.710800  0.618100  1
  C  C1541  1  0.329900  0.277100  0.900300  1
  C  C1542  1  0.170100  0.222900  0.400300  1
  C  C1543  1  0.670100  0.722900  0.099700  1
  C  C1544  1  0.829900  0.777100  0.599700  1
  C  C1545  1  0.556300  0.022300  0.916500  1
  C  C1546  1  0.943700  0.477700  0.416500  1
  C  C1547  1  0.443700  0.977700  0.083500  1
  C  C1548  1  0.056300  0.522300  0.583500  1
  C  C1549  1  0.596700  0.005900  0.887500  1
  C  C1550  1  0.903300  0.494100  0.387500  1
  C  C1551  1  0.403300  0.994100  0.112500  1
  C  C1552  1  0.096700  0.505900  0.612500  1
  C  C1553  1  0.579000  0.006200  0.948100  1
  C  C1554  1  0.921000  0.493800  0.448100  1
  C  C1555  1  0.421000  0.993800  0.051900  1
  C  C1556  1  0.079000  0.506200  0.551900  1
  C  C1557  1  0.482600  0.010900  0.906800  1
  C  C1558  1  0.017400  0.489100  0.406800  1
  C  C1559  1  0.517400  0.989100  0.093200  1
  C  C1560  1  0.982600  0.510900  0.593200  1
  C  C1561  1  0.279600  0.067500  0.692600  1
  C  C1562  1  0.220400  0.432500  0.192600  1
  C  C1563  1  0.720400  0.932500  0.307400  1
  C  C1564  1  0.779600  0.567500  0.807400  1
  C  C1565  1  0.273000  0.043000  0.725400  1
  C  C1566  1  0.227000  0.457000  0.225400  1
  C  C1567  1  0.727000  0.957000  0.274600  1
  C  C1568  1  0.773000  0.543000  0.774600  1
  C  C1569  1  0.335500  0.101700  0.695300  1
  C  C1570  1  0.164500  0.398300  0.195300  1
  C  C1571  1  0.664500  0.898300  0.304700  1
  C  C1572  1  0.835500  0.601700  0.804700  1
  C  C1573  1  0.295100  0.043800  0.662400  1
  C  C1574  1  0.204900  0.456200  0.162400  1
  C  C1575  1  0.704900  0.956200  0.337600  1
  C  C1576  1  0.795100  0.543800  0.837600  1
  C  C1577  1  0.021500  0.180700  0.511100  1
  C  C1578  1  0.478500  0.319300  0.011100  1
  C  C1579  1  0.978500  0.819300  0.488900  1
  C  C1580  1  0.521500  0.680700  0.988900  1
  C  C1581  1  0.086500  0.171300  0.496800  1
  C  C1582  1  0.413500  0.328700  0.996800  1
  C  C1583  1  0.913500  0.828700  0.503200  1
  C  C1584  1  0.586500  0.671300  0.003200  1
  C  C1585  1  0.958000  0.156200  0.491200  1
  C  C1586  1  0.542000  0.343800  0.991200  1
  C  C1587  1  0.042000  0.843800  0.508800  1
  C  C1588  1  0.458000  0.656200  0.008800  1
  C  C1589  1  0.010100  0.220100  0.505000  1
  C  C1590  1  0.489900  0.279900  0.005000  1
  C  C1591  1  0.989900  0.779900  0.495000  1
  C  C1592  1  0.510100  0.720100  0.995000  1
  C  C1593  1  0.759300  0.004600  0.707700  1
  C  C1594  1  0.740700  0.495400  0.207700  1
  C  C1595  1  0.240700  0.995400  0.292300  1
  C  C1596  1  0.259300  0.504600  0.792300  1
  C  C1597  1  0.755100  0.007800  0.746000  1
  C  C1598  1  0.744900  0.492200  0.246000  1
  C  C1599  1  0.244900  0.992200  0.254000  1
  C  C1600  1  0.255100  0.507800  0.754000  1
  C  C1601  1  0.779700  0.965000  0.698100  1
  C  C1602  1  0.720300  0.535000  0.198100  1
  C  C1603  1  0.220300  0.035000  0.301900  1
  C  C1604  1  0.279700  0.465000  0.801900  1
  C  C1605  1  0.695300  0.007500  0.688900  1
  C  C1606  1  0.804700  0.492500  0.188900  1
  C  C1607  1  0.304700  0.992500  0.311100  1
  C  C1608  1  0.195300  0.507500  0.811100  1
  C  C1609  1  0.681600  0.265900  0.069900  1
  C  C1610  1  0.818400  0.234100  0.569900  1
  C  C1611  1  0.318400  0.734100  0.930100  1
  C  C1612  1  0.181600  0.765900  0.430100  1
  C  C1613  1  0.719400  0.307200  0.070600  1
  C  C1614  1  0.780600  0.192800  0.570600  1
  C  C1615  1  0.280600  0.692800  0.929400  1
  C  C1616  1  0.219400  0.807200  0.429400  1
  C  C1617  1  0.725400  0.240300  0.089300  1
  C  C1618  1  0.774600  0.259700  0.589300  1
  C  C1619  1  0.274600  0.759700  0.910700  1
  C  C1620  1  0.225400  0.740300  0.410700  1
  C  C1621  1  0.608500  0.261000  0.088800  1
  C  C1622  1  0.891500  0.239000  0.588800  1
  C  C1623  1  0.391500  0.739000  0.911200  1
  C  C1624  1  0.108500  0.761000  0.411200  1
  C  C1625  1  0.028900  0.522800  0.851400  1
  C  C1626  1  0.471100  0.977200  0.351400  1
  C  C1627  1  0.971100  0.477200  0.148600  1
  C  C1628  1  0.528900  0.022800  0.648600  1
  C  C1629  1  0.853100  0.228800  0.001100  1
  C  C1630  1  0.646900  0.271200  0.501100  1
  C  C1631  1  0.146900  0.771200  0.998900  1
  C  C1632  1  0.353100  0.728800  0.498900  1
  C  C1633  1  0.953000  0.982300  0.586100  1
  C  C1634  1  0.547000  0.517700  0.086100  1
  C  C1635  1  0.047000  0.017700  0.413900  1
  C  C1636  1  0.453000  0.482300  0.913900  1
  C  C1637  1  0.255700  0.193000  0.680000  1
  C  C1638  1  0.244300  0.307000  0.180000  1
  C  C1639  1  0.744300  0.807000  0.320000  1
  C  C1640  1  0.755700  0.693000  0.820000  1
  C  C1641  1  0.954000  0.394400  0.587700  1
  C  C1642  1  0.546000  0.105600  0.087700  1
  C  C1643  1  0.046000  0.605600  0.412300  1
  C  C1644  1  0.454000  0.894400  0.912300  1
  C  C1645  1  0.255300  0.134200  0.791900  1
  C  C1646  1  0.244700  0.365800  0.291900  1
  C  C1647  1  0.744700  0.865800  0.208100  1
  C  C1648  1  0.755300  0.634200  0.708100  1
  S  S1649  1  0.918570  0.284990  0.792470  1
  S  S1650  1  0.581430  0.215010  0.292470  1
  S  S1651  1  0.081430  0.715010  0.207530  1
  S  S1652  1  0.418570  0.784990  0.707530  1
  N  N1653  1  0.211900  0.365870  0.955740  1
  N  N1654  1  0.288100  0.134130  0.455740  1
  N  N1655  1  0.788100  0.634130  0.044260  1
  N  N1656  1  0.711900  0.865870  0.544260  1
  N  N1657  1  0.171800  0.319550  0.902600  1
  N  N1658  1  0.328200  0.180450  0.402600  1
  N  N1659  1  0.828200  0.680450  0.097400  1
  N  N1660  1  0.671800  0.819550  0.597400  1
  N  N1661  1  0.221500  0.441800  0.908330  1
  N  N1662  1  0.278500  0.058200  0.408330  1
  N  N1663  1  0.778500  0.558200  0.091670  1
  N  N1664  1  0.721500  0.941800  0.591670  1
  N  N1665  1  0.103300  0.393550  0.904920  1
  N  N1666  1  0.396700  0.106450  0.404920  1
  N  N1667  1  0.896700  0.606450  0.095080  1
  N  N1668  1  0.603300  0.893550  0.595080  1
  N  N1669  1  0.314300  0.378860  0.892300  1
  N  N1670  1  0.185700  0.121140  0.392300  1
  N  N1671  1  0.685700  0.621140  0.107700  1
  N  N1672  1  0.814300  0.878860  0.607700  1
  N  N1673  1  0.213700  0.380760  0.846680  1
  N  N1674  1  0.286300  0.119240  0.346680  1
  N  N1675  1  0.786300  0.619240  0.153320  1
  N  N1676  1  0.713700  0.880760  0.653320  1
  N  N1677  1  0.836700  0.491290  0.686660  1
  N  N1678  1  0.663300  0.008710  0.186660  1
  N  N1679  1  0.163300  0.508710  0.313340  1
  N  N1680  1  0.336700  0.991290  0.813340  1
  N  N1681  1  0.901300  0.431790  0.684970  1
  N  N1682  1  0.598700  0.068210  0.184970  1
  N  N1683  1  0.098700  0.568210  0.315030  1
  N  N1684  1  0.401300  0.931790  0.815030  1
  N  N1685  1  0.779000  0.426920  0.631430  1
  N  N1686  1  0.721000  0.073080  0.131430  1
  N  N1687  1  0.221000  0.573080  0.368570  1
  N  N1688  1  0.279000  0.926920  0.868570  1
  N  N1689  1  0.755400  0.372430  0.679480  1
  N  N1690  1  0.744600  0.127570  0.179480  1
  N  N1691  1  0.244600  0.627570  0.320520  1
  N  N1692  1  0.255400  0.872430  0.820520  1
  N  N1693  1  0.690500  0.442210  0.698990  1
  N  N1694  1  0.809500  0.057790  0.198990  1
  N  N1695  1  0.309500  0.557790  0.301010  1
  N  N1696  1  0.190500  0.942210  0.801010  1
  N  N1697  1  0.789200  0.430260  0.743000  1
  N  N1698  1  0.710800  0.069740  0.243000  1
  N  N1699  1  0.210800  0.569740  0.257000  1
  N  N1700  1  0.289200  0.930260  0.757000  1
  N  N1701  1  0.634900  0.200270  0.854590  1
  N  N1702  1  0.865100  0.299730  0.354590  1
  N  N1703  1  0.365100  0.799730  0.145410  1
  N  N1704  1  0.134900  0.700270  0.645410  1
  N  N1705  1  0.545200  0.216640  0.901640  1
  N  N1706  1  0.954800  0.283360  0.401640  1
  N  N1707  1  0.454800  0.783360  0.098360  1
  N  N1708  1  0.045200  0.716640  0.598360  1
  N  N1709  1  0.738800  0.180960  0.910220  1
  N  N1710  1  0.761200  0.319040  0.410220  1
  N  N1711  1  0.261200  0.819040  0.089780  1
  N  N1712  1  0.238800  0.680960  0.589780  1
  N  N1713  1  0.612300  0.144190  0.920030  1
  N  N1714  1  0.887700  0.355810  0.420030  1
  N  N1715  1  0.387700  0.855810  0.079970  1
  N  N1716  1  0.112300  0.644190  0.579970  1
  N  N1717  1  0.693300  0.263150  0.907890  1
  N  N1718  1  0.806700  0.236850  0.407890  1
  N  N1719  1  0.306700  0.736850  0.092110  1
  N  N1720  1  0.193300  0.763150  0.592110  1
  N  N1721  1  0.649200  0.222750  0.964650  1
  N  N1722  1  0.850800  0.277250  0.464650  1
  N  N1723  1  0.350800  0.777250  0.035350  1
  N  N1724  1  0.149200  0.722750  0.535350  1
  N  N1725  1  0.007700  0.153290  0.621200  1
  N  N1726  1  0.492300  0.346710  0.121200  1
  N  N1727  1  0.992300  0.846710  0.378800  1
  N  N1728  1  0.507700  0.653290  0.878800  1
  N  N1729  1  0.063200  0.199550  0.671820  1
  N  N1730  1  0.436800  0.300450  0.171820  1
  N  N1731  1  0.936800  0.800450  0.328180  1
  N  N1732  1  0.563200  0.699550  0.828180  1
  N  N1733  1  0.921700  0.094970  0.675980  1
  N  N1734  1  0.578300  0.405030  0.175980  1
  N  N1735  1  0.078300  0.905030  0.324020  1
  N  N1736  1  0.421700  0.594970  0.824020  1
  N  N1737  1  0.908600  0.167850  0.684230  1
  N  N1738  1  0.591400  0.332150  0.184230  1
  N  N1739  1  0.091400  0.832150  0.315770  1
  N  N1740  1  0.408600  0.667850  0.815770  1
  N  N1741  1  0.088800  0.113240  0.678300  1
  N  N1742  1  0.411200  0.386760  0.178300  1
  N  N1743  1  0.911200  0.886760  0.321700  1
  N  N1744  1  0.588800  0.613240  0.821700  1
  N  N1745  1  0.020400  0.138140  0.730990  1
  N  N1746  1  0.479600  0.361860  0.230990  1
  N  N1747  1  0.979600  0.861860  0.269010  1
  N  N1748  1  0.520400  0.638140  0.769010  1
  N  N1749  1  0.900100  0.283420  0.697300  1
  N  N1750  1  0.599900  0.216580  0.197300  1
  N  N1751  1  0.099900  0.716580  0.302700  1
  N  N1752  1  0.400100  0.783420  0.802700  1
  N  N1753  1  0.990600  0.332020  0.694200  1
  N  N1754  1  0.509400  0.167980  0.194200  1
  N  N1755  1  0.009400  0.667980  0.305800  1
  N  N1756  1  0.490600  0.832020  0.805800  1
  N  N1757  1  0.104900  0.274730  0.757200  1
  N  N1758  1  0.395100  0.225270  0.257200  1
  N  N1759  1  0.895100  0.725270  0.242800  1
  N  N1760  1  0.604900  0.774730  0.742800  1
  N  N1761  1  0.093400  0.254450  0.814220  1
  N  N1762  1  0.406600  0.245550  0.314220  1
  N  N1763  1  0.906600  0.745550  0.185780  1
  N  N1764  1  0.593400  0.754450  0.685780  1
  N  N1765  1  0.897800  0.177810  0.808490  1
  N  N1766  1  0.602200  0.322190  0.308490  1
  N  N1767  1  0.102200  0.822190  0.191510  1
  N  N1768  1  0.397800  0.677810  0.691510  1
  N  N1769  1  0.795400  0.186830  0.784120  1
  N  N1770  1  0.704600  0.313170  0.284120  1
  N  N1771  1  0.204600  0.813170  0.215880  1
  N  N1772  1  0.295400  0.686830  0.715880  1
  N  N1773  1  0.933000  0.247410  0.890040  1
  N  N1774  1  0.567000  0.252590  0.390040  1
  N  N1775  1  0.067000  0.752590  0.109960  1
  N  N1776  1  0.433000  0.747410  0.609960  1
  N  N1777  1  0.925100  0.310850  0.889420  1
  N  N1778  1  0.574900  0.189150  0.389420  1
  N  N1779  1  0.074900  0.689150  0.110580  1
  N  N1780  1  0.425100  0.810850  0.610580  1
  N  N1781  1  0.724400  0.292570  0.761180  1
  N  N1782  1  0.775600  0.207430  0.261180  1
  N  N1783  1  0.275600  0.707430  0.238820  1
  N  N1784  1  0.224400  0.792570  0.738820  1
  N  N1785  1  0.753200  0.320320  0.813950  1
  N  N1786  1  0.746800  0.179680  0.313950  1
  N  N1787  1  0.246800  0.679680  0.186050  1
  N  N1788  1  0.253200  0.820320  0.686050  1
  N  N1789  1  0.038100  0.378170  0.782070  1
  N  N1790  1  0.461900  0.121830  0.282070  1
  N  N1791  1  0.961900  0.621830  0.217930  1
  N  N1792  1  0.538100  0.878170  0.717930  1
  N  N1793  1  0.943800  0.396170  0.807390  1
  N  N1794  1  0.556200  0.103830  0.307390  1
  N  N1795  1  0.056200  0.603830  0.192610  1
  N  N1796  1  0.443800  0.896170  0.692610  1
  N  N1797  1  0.102600  0.568800  0.750400  1
  N  N1798  1  0.397400  0.931200  0.250400  1
  N  N1799  1  0.897400  0.431200  0.249600  1
  N  N1800  1  0.602600  0.068800  0.749600  1
  N  N1801  1  0.088500  0.996300  0.645200  1
  N  N1802  1  0.411500  0.503700  0.145200  1
  N  N1803  1  0.911500  0.003700  0.354800  1
  N  N1804  1  0.588500  0.496300  0.854800  1
  N  N1805  1  0.223800  0.410700  0.684100  1
  N  N1806  1  0.276200  0.089300  0.184100  1
  N  N1807  1  0.776200  0.589300  0.315900  1
  N  N1808  1  0.723800  0.910700  0.815900  1
  O  O1809  1  0.034600  0.440520  0.790470  1
  O  O1810  1  0.465400  0.059480  0.290470  1
  O  O1811  1  0.965400  0.559480  0.209530  1
  O  O1812  1  0.534600  0.940520  0.709530  1
  O  O1813  1  0.192600  0.251990  0.785070  1
  O  O1814  1  0.307400  0.248010  0.285070  1
  O  O1815  1  0.807400  0.748010  0.214930  1
  O  O1816  1  0.692600  0.751990  0.714930  1
  O  O1817  1  0.930700  0.279450  0.940790  1
  O  O1818  1  0.569300  0.220550  0.440790  1
  O  O1819  1  0.069300  0.720550  0.059210  1
  O  O1820  1  0.430700  0.779450  0.559210  1
  O  O1821  1  0.813800  0.127300  0.798040  1
  O  O1822  1  0.686200  0.372700  0.298040  1
  O  O1823  1  0.186200  0.872700  0.201960  1
  O  O1824  1  0.313800  0.627300  0.701960  1
  O  O1825  1  0.650300  0.325130  0.788470  1
  O  O1826  1  0.849700  0.174870  0.288470  1
  O  O1827  1  0.349700  0.674870  0.211530  1
  O  O1828  1  0.150300  0.825130  0.711530  1
  O  O1829  1  0.924300  0.314540  0.646750  1
  O  O1830  1  0.575700  0.185460  0.146750  1
  O  O1831  1  0.075700  0.685460  0.353250  1
  O  O1832  1  0.424300  0.814540  0.853250  1
  O  O1833  1  0.857540  0.266400  0.772750  1
  O  O1834  1  0.642460  0.233600  0.272750  1
  O  O1835  1  0.142460  0.733600  0.227250  1
  O  O1836  1  0.357540  0.766400  0.727250  1
  O  O1837  1  0.972700  0.301460  0.767610  1
  O  O1838  1  0.527300  0.198540  0.267610  1
  O  O1839  1  0.027300  0.698540  0.232390  1
  O  O1840  1  0.472700  0.801460  0.732390  1
  O  O1841  1  0.945190  0.256750  0.814530  1
  O  O1842  1  0.554810  0.243250  0.314530  1
  O  O1843  1  0.054810  0.743250  0.185470  1
  O  O1844  1  0.445190  0.756750  0.685470  1
  O  O1845  1  0.899250  0.315030  0.814920  1
  O  O1846  1  0.600750  0.184970  0.314920  1
  O  O1847  1  0.100750  0.684970  0.185080  1
  O  O1848  1  0.399250  0.815030  0.685080  1
  O  O1849  1  0.102000  0.549100  0.725500  1
  O  O1850  1  0.398000  0.950900  0.225500  1
  O  O1851  1  0.898000  0.450900  0.274500  1
  O  O1852  1  0.602000  0.049100  0.774500  1
  O  O1853  1  0.163300  0.593100  0.757400  1
  O  O1854  1  0.336700  0.906900  0.257400  1
  O  O1855  1  0.836700  0.406900  0.242600  1
  O  O1856  1  0.663300  0.093100  0.742600  1
  O  O1857  1  0.054400  0.572000  0.771500  1
  O  O1858  1  0.445600  0.928000  0.271500  1
  O  O1859  1  0.945600  0.428000  0.228500  1
  O  O1860  1  0.554400  0.072000  0.728500  1
  O  O1861  1  0.958000  0.518200  0.843000  1
  O  O1862  1  0.542000  0.981800  0.343000  1
  O  O1863  1  0.042000  0.481800  0.157000  1
  O  O1864  1  0.458000  0.018200  0.657000  1
  O  O1865  1  0.837000  0.265700  0.985900  1
  O  O1866  1  0.663000  0.234300  0.485900  1
  O  O1867  1  0.163000  0.734300  0.014100  1
  O  O1868  1  0.337000  0.765700  0.514100  1
  O  O1869  1  0.110600  0.995900  0.615600  1
  O  O1870  1  0.389400  0.504100  0.115600  1
  O  O1871  1  0.889400  0.004100  0.384400  1
  O  O1872  1  0.610600  0.495900  0.884400  1
  O  O1873  1  0.115400  0.988600  0.669900  1
  O  O1874  1  0.384600  0.511400  0.169900  1
  O  O1875  1  0.884600  0.011400  0.330100  1
  O  O1876  1  0.615400  0.488600  0.830100  1
  O  O1877  1  0.030000  0.002100  0.646800  1
  O  O1878  1  0.470000  0.497900  0.146800  1
  O  O1879  1  0.970000  0.997900  0.353200  1
  O  O1880  1  0.530000  0.502100  0.853200  1
  O  O1881  1  0.966900  0.030700  0.581300  1
  O  O1882  1  0.533100  0.469300  0.081300  1
  O  O1883  1  0.033100  0.969300  0.418700  1
  O  O1884  1  0.466900  0.530700  0.918700  1
  O  O1885  1  0.208300  0.376500  0.689800  1
  O  O1886  1  0.291700  0.123500  0.189800  1
  O  O1887  1  0.791700  0.623500  0.310200  1
  O  O1888  1  0.708300  0.876500  0.810200  1
  O  O1889  1  0.296500  0.411700  0.674100  1
  O  O1890  1  0.203500  0.088300  0.174100  1
  O  O1891  1  0.703500  0.588300  0.325900  1
  O  O1892  1  0.796500  0.911700  0.825900  1
  O  O1893  1  0.212000  0.444500  0.669800  1
  O  O1894  1  0.288000  0.055500  0.169800  1
  O  O1895  1  0.788000  0.555500  0.330200  1
  O  O1896  1  0.712000  0.944500  0.830200  1
  O  O1897  1  0.274600  0.231100  0.687700  1
  O  O1898  1  0.225400  0.268900  0.187700  1
  O  O1899  1  0.725400  0.768900  0.312300  1
  O  O1900  1  0.774600  0.731100  0.812300  1
  O  O1901  1  0.949500  0.350200  0.585000  1
  O  O1902  1  0.550500  0.149800  0.085000  1
  O  O1903  1  0.050500  0.649800  0.415000  1
  O  O1904  1  0.449500  0.850200  0.915000  1
  O  O1905  1  0.250000  0.177800  0.783700  1
  O  O1906  1  0.250000  0.322200  0.283700  1
  O  O1907  1  0.750000  0.822200  0.216300  1
  O  O1908  1  0.750000  0.677800  0.716300  1
  O  O1909  1  0.609600  0.128000  0.679800  1
  O  O1910  1  0.890400  0.372000  0.179800  1
  O  O1911  1  0.390400  0.872000  0.320200  1
  O  O1912  1  0.109600  0.628000  0.820200  1
  O  O1913  1  0.705500  0.074400  0.823960  1
  O  O1914  1  0.794500  0.425600  0.323960  1
  O  O1915  1  0.294500  0.925600  0.176040  1
  O  O1916  1  0.205500  0.574400  0.676040  1
  O  O1917  1  0.784100  0.028780  0.917200  1
  O  O1918  1  0.715900  0.471220  0.417200  1
  O  O1919  1  0.215900  0.971220  0.082800  1
  O  O1920  1  0.284100  0.528780  0.582800  1
  O  O1921  1  0.773300  0.016900  0.845660  1
  O  O1922  1  0.726700  0.483100  0.345660  1
  O  O1923  1  0.226700  0.983100  0.154340  1
  O  O1924  1  0.273300  0.516900  0.654340  1
  O  O1925  1  0.741200  0.959500  0.948100  1
  O  O1926  1  0.758800  0.540500  0.448100  1
  O  O1927  1  0.258800  0.040500  0.051900  1
  O  O1928  1  0.241200  0.459500  0.551900  1
  O  O1929  1  0.639300  0.950600  0.018200  1
  O  O1930  1  0.860700  0.549400  0.518200  1
  O  O1931  1  0.360700  0.049400  0.981800  1
  O  O1932  1  0.139300  0.450600  0.481800  1
  O  O1933  1  0.499900  0.232300  0.714800  1
  O  O1934  1  0.000100  0.267700  0.214800  1
  O  O1935  1  0.500100  0.767700  0.285200  1
  O  O1936  1  0.999900  0.732300  0.785200  1
  O  O1937  1  0.420200  0.231300  0.765700  1
  O  O1938  1  0.079800  0.268700  0.265700  1
  O  O1939  1  0.579800  0.768700  0.234300  1
  O  O1940  1  0.920200  0.731300  0.734300  1
  O  O1941  1  0.513900  0.289900  0.774200  1
  O  O1942  1  0.986100  0.210100  0.274200  1
  O  O1943  1  0.486100  0.710100  0.225800  1
  O  O1944  1  0.013900  0.789900  0.725800  1
  O  O1945  1  0.328100  0.283100  0.649000  1
  O  O1946  1  0.171900  0.216900  0.149000  1
  O  O1947  1  0.671900  0.716900  0.351000  1
  O  O1948  1  0.828100  0.783100  0.851000  1
  O  O1949  1  0.413300  0.332400  0.761600  1
  O  O1950  1  0.086700  0.167600  0.261600  1
  O  O1951  1  0.586700  0.667600  0.238400  1
  O  O1952  1  0.913300  0.832400  0.738400  1
  O  O1953  1  0.361100  0.354600  0.692400  1
  O  O1954  1  0.138900  0.145400  0.192400  1
  O  O1955  1  0.638900  0.645400  0.307600  1
  O  O1956  1  0.861100  0.854600  0.807600  1
  O  O1957  1  0.315300  0.270100  0.748400  1
  O  O1958  1  0.184700  0.229900  0.248400  1
  O  O1959  1  0.684700  0.729900  0.251600  1
  O  O1960  1  0.815300  0.770100  0.751600  1
  O  O1961  1  0.153800  0.285900  0.554700  1
  O  O1962  1  0.346200  0.214100  0.054700  1
  O  O1963  1  0.846200  0.714100  0.445300  1
  O  O1964  1  0.653800  0.785900  0.945300  1
  O  O1965  1  0.170600  0.339900  0.598900  1
  O  O1966  1  0.329400  0.160100  0.098900  1
  O  O1967  1  0.829400  0.660100  0.401100  1
  O  O1968  1  0.670600  0.839900  0.901100  1
  O  O1969  1  0.013500  0.523400  0.952500  1
  O  O1970  1  0.486500  0.976600  0.452500  1
  O  O1971  1  0.986500  0.476600  0.047500  1
  O  O1972  1  0.513500  0.023400  0.547500  1
  O  O1973  1  0.684200  0.512400  0.611200  1
  O  O1974  1  0.815800  0.987600  0.111200  1
  O  O1975  1  0.315800  0.487600  0.388800  1
  O  O1976  1  0.184200  0.012400  0.888800  1
  O  O1977  1  0.873900  0.484000  0.897800  1
  O  O1978  1  0.626100  0.016000  0.397800  1
  O  O1979  1  0.126100  0.516000  0.102200  1
  O  O1980  1  0.373900  0.984000  0.602200  1
  O  O1981  1  0.911900  0.473700  0.984400  1
  O  O1982  1  0.588100  0.026300  0.484400  1
  O  O1983  1  0.088100  0.526300  0.015600  1
  O  O1984  1  0.411900  0.973700  0.515600  1
  O  O1985  1  0.639100  0.552600  0.664700  1
  O  O1986  1  0.860900  0.947400  0.164700  1
  O  O1987  1  0.360900  0.447400  0.335300  1
  O  O1988  1  0.139100  0.052600  0.835300  1
  O  O1989  1  0.731600  0.451200  0.896900  1
  O  O1990  1  0.768400  0.048800  0.396900  1
  O  O1991  1  0.268400  0.548800  0.103100  1
  O  O1992  1  0.231600  0.951200  0.603100  1
  O  O1993  1  0.833400  0.399600  0.967000  1
  O  O1994  1  0.666600  0.100400  0.467000  1
  O  O1995  1  0.166600  0.600400  0.033000  1
  O  O1996  1  0.333400  0.899600  0.533000  1
  O  O1997  1  0.837900  0.344400  0.002800  1
  O  O1998  1  0.662100  0.155600  0.502800  1
  O  O1999  1  0.162100  0.655600  0.997200  1
  O  O2000  1  0.337900  0.844400  0.497200  1
  O  O2001  1  0.700000  0.416100  0.960100  1
  O  O2002  1  0.800000  0.083900  0.460100  1
  O  O2003  1  0.300000  0.583900  0.039900  1
  O  O2004  1  0.200000  0.916100  0.539900  1
  O  O2005  1  0.607600  0.445600  0.997900  1
  O  O2006  1  0.892400  0.054400  0.497900  1
  O  O2007  1  0.392400  0.554400  0.002100  1
  O  O2008  1  0.107600  0.945600  0.502100  1
  O  O2009  1  0.499300  0.560500  0.644900  1
  O  O2010  1  0.000700  0.939500  0.144900  1
  O  O2011  1  0.500700  0.439500  0.355100  1
  O  O2012  1  0.999300  0.060500  0.855100  1
  O  O2013  1  0.464200  0.498000  0.600300  1
  O  O2014  1  0.035800  0.002000  0.100300  1
  O  O2015  1  0.535800  0.502000  0.399700  1
  O  O2016  1  0.964200  0.998000  0.899700  1
  O  O2017  1  0.365000  0.438800  0.614600  1
  O  O2018  1  0.135000  0.061200  0.114600  1
  O  O2019  1  0.635000  0.561200  0.385400  1
  O  O2020  1  0.865000  0.938800  0.885400  1
  O  O2021  1  0.515200  0.265500  0.588000  1
  O  O2022  1  0.984800  0.234500  0.088000  1
  O  O2023  1  0.484800  0.734500  0.412000  1
  O  O2024  1  0.015200  0.765500  0.912000  1
  O  O2025  1  0.464300  0.280900  0.652400  1
  O  O2026  1  0.035700  0.219100  0.152400  1
  O  O2027  1  0.535700  0.719100  0.347600  1
  O  O2028  1  0.964300  0.780900  0.847600  1
  O  O2029  1  0.589900  0.333333  0.568200  1
  O  O2030  1  0.910100  0.166667  0.068200  1
  O  O2031  1  0.410100  0.666667  0.431800  1
  O  O2032  1  0.089900  0.833333  0.931800  1
  O  O2033  1  0.545200  0.327800  0.497400  1
  O  O2034  1  0.954800  0.172200  0.997400  1
  O  O2035  1  0.454800  0.672200  0.502600  1
  O  O2036  1  0.045200  0.827800  0.002600  1
  O  O2037  1  0.512200  0.356300  0.688100  1
  O  O2038  1  0.987800  0.143700  0.188100  1
  O  O2039  1  0.487800  0.643700  0.311900  1
  O  O2040  1  0.012200  0.856300  0.811900  1
  O  O2041  1  0.570100  0.392500  0.603700  1
  O  O2042  1  0.929900  0.107500  0.103700  1
  O  O2043  1  0.429900  0.607500  0.396300  1
  O  O2044  1  0.070100  0.892500  0.896300  1
  O  O2045  1  0.611300  0.204100  0.684300  1
  O  O2046  1  0.888700  0.295900  0.184300  1
  O  O2047  1  0.388700  0.795900  0.315700  1
  O  O2048  1  0.111300  0.704100  0.815700  1
  O  O2049  1  0.215800  0.124100  0.838300  1
  O  O2050  1  0.284200  0.375900  0.338300  1
  O  O2051  1  0.784200  0.875900  0.161700  1
  O  O2052  1  0.715800  0.624100  0.661700  1
  O  O2053  1  0.148800  0.412700  0.599900  1
  O  O2054  1  0.351200  0.087300  0.099900  1
  O  O2055  1  0.851200  0.587300  0.400100  1
  O  O2056  1  0.648800  0.912700  0.900100  1
  O  O2057  1  0.039300  0.132600  0.895100  1
  O  O2058  1  0.460700  0.367400  0.395100  1
  O  O2059  1  0.960700  0.867400  0.104900  1
  O  O2060  1  0.539300  0.632600  0.604900  1
  O  O2061  1  0.989300  0.113000  0.962400  1
  O  O2062  1  0.510700  0.387000  0.462400  1
  O  O2063  1  0.010700  0.887000  0.037600  1
  O  O2064  1  0.489300  0.613000  0.537600  1
  O  O2065  1  0.884800  0.061500  0.812600  1
  O  O2066  1  0.615200  0.438500  0.312600  1
  O  O2067  1  0.115200  0.938500  0.187400  1
  O  O2068  1  0.384800  0.561500  0.687400  1
  O  O2069  1  0.933500  0.010000  0.008800  1
  O  O2070  1  0.566500  0.490000  0.508800  1
  O  O2071  1  0.066500  0.990000  0.991200  1
  O  O2072  1  0.433500  0.510000  0.491200  1
  O  O2073  1  0.025700  0.298900  0.993100  1
  O  O2074  1  0.474300  0.201100  0.493100  1
  O  O2075  1  0.974300  0.701100  0.006900  1
  O  O2076  1  0.525700  0.798900  0.506900  1
  O  O2077  1  0.178200  0.452200  0.067200  1
  O  O2078  1  0.321800  0.047800  0.567200  1
  O  O2079  1  0.821800  0.547800  0.932800  1
  O  O2080  1  0.678200  0.952200  0.432800  1
  O  O2081  1  0.179400  0.475200  0.002700  1
  O  O2082  1  0.320600  0.024800  0.502700  1
  O  O2083  1  0.820600  0.524800  0.997300  1
  O  O2084  1  0.679400  0.975200  0.497300  1
  O  O2085  1  0.311100  0.483200  0.004300  1
  O  O2086  1  0.188900  0.016800  0.504300  1
  O  O2087  1  0.688900  0.516800  0.995700  1
  O  O2088  1  0.811100  0.983200  0.495700  1
  O  O2089  1  0.967900  0.502400  0.776300  1
  O  O2090  1  0.532100  0.997600  0.276300  1
  O  O2091  1  0.032100  0.497600  0.223700  1
  O  O2092  1  0.467900  0.002400  0.723700  1
  O  O2093  1  0.043600  0.234000  0.021500  1
  O  O2094  1  0.456400  0.266000  0.521500  1
  O  O2095  1  0.956400  0.766000  0.978500  1
  O  O2096  1  0.543600  0.734000  0.478500  1
  O  O2097  1  0.910500  0.046600  0.947800  1
  O  O2098  1  0.589500  0.453400  0.447800  1
  O  O2099  1  0.089500  0.953400  0.052200  1
  O  O2100  1  0.410500  0.546600  0.552200  1
  O  O2101  1  0.051800  0.396000  0.001600  1
  O  O2102  1  0.448200  0.104000  0.501600  1
  O  O2103  1  0.948200  0.604000  0.998400  1
  O  O2104  1  0.551800  0.896000  0.498400  1
  O  O2105  1  0.578600  0.466800  0.577600  1
  O  O2106  1  0.921400  0.033200  0.077600  1
  O  O2107  1  0.421400  0.533200  0.422400  1
  O  O2108  1  0.078600  0.966800  0.922400  1
  O  O2109  1  0.182500  0.042500  0.570100  1
  O  O2110  1  0.317500  0.457500  0.070100  1
  O  O2111  1  0.817500  0.957500  0.429900  1
  O  O2112  1  0.682500  0.542500  0.929900  1
