# generated using pymatgen
data_Zn4CrH216C189N36O29
_symmetry_space_group_name_H-M   'P 1'
_cell_length_a   19.66310000
_cell_length_b   36.12300000
_cell_length_c   38.37700000
_cell_angle_alpha   90.00000000
_cell_angle_beta   90.00000000
_cell_angle_gamma   100.99500000
_symmetry_Int_Tables_number   1
_chemical_formula_structural   Zn4CrH216C189N36O29
_chemical_formula_sum   'Zn16 Cr4 H864 C756 N144 O116'
_cell_volume   26758.43827760
_cell_formula_units_Z   4
loop_
 _symmetry_equiv_pos_site_id
 _symmetry_equiv_pos_as_xyz
  1  'x, y, z'
loop_
 _atom_site_type_symbol
 _atom_site_label
 _atom_site_symmetry_multiplicity
 _atom_site_fract_x
 _atom_site_fract_y
 _atom_site_fract_z
 _atom_site_occupancy
  Zn  Zn1  1  0.853230  0.292999  0.921397  1
  Zn  Zn2  1  0.646770  0.207001  0.421397  1
  Zn  Zn3  1  0.146770  0.707001  0.078603  1
  Zn  Zn4  1  0.353230  0.792999  0.578603  1
  Zn  Zn5  1  0.693110  0.062806  0.695170  1
  Zn  Zn6  1  0.806890  0.437194  0.195170  1
  Zn  Zn7  1  0.306890  0.937194  0.304830  1
  Zn  Zn8  1  0.193110  0.562806  0.804830  1
  Zn  Zn9  1  0.281730  0.114270  0.913730  1
  Zn  Zn10  1  0.218270  0.385730  0.413730  1
  Zn  Zn11  1  0.718270  0.885730  0.086270  1
  Zn  Zn12  1  0.781730  0.614270  0.586270  1
  Zn  Zn13  1  0.491220  0.348762  0.687621  1
  Zn  Zn14  1  0.008780  0.151238  0.187621  1
  Zn  Zn15  1  0.508780  0.651238  0.312379  1
  Zn  Zn16  1  0.991220  0.848762  0.812379  1
  Cr  Cr17  1  0.570990  0.207560  0.803500  1
  Cr  Cr18  1  0.929010  0.292440  0.303500  1
  Cr  Cr19  1  0.429010  0.792440  0.196500  1
  Cr  Cr20  1  0.070990  0.707560  0.696500  1
  H  H21  1  0.724900  0.205500  0.777000  1
  H  H22  1  0.775100  0.294500  0.277000  1
  H  H23  1  0.275100  0.794500  0.223000  1
  H  H24  1  0.224900  0.705500  0.723000  1
  H  H25  1  0.790500  0.223800  0.870200  1
  H  H26  1  0.709500  0.276200  0.370200  1
  H  H27  1  0.209500  0.776200  0.129800  1
  H  H28  1  0.290500  0.723800  0.629800  1
  H  H29  1  0.698300  0.179600  0.827600  1
  H  H30  1  0.801700  0.320400  0.327600  1
  H  H31  1  0.301700  0.820400  0.172400  1
  H  H32  1  0.198300  0.679600  0.672400  1
  H  H33  1  0.789200  0.137000  0.854700  1
  H  H34  1  0.710800  0.363000  0.354700  1
  H  H35  1  0.210800  0.863000  0.145300  1
  H  H36  1  0.289200  0.637000  0.645300  1
  H  H37  1  0.708700  0.130400  0.864300  1
  H  H38  1  0.791300  0.369600  0.364300  1
  H  H39  1  0.291300  0.869600  0.135700  1
  H  H40  1  0.208700  0.630400  0.635700  1
  H  H41  1  0.468700  0.135900  0.795200  1
  H  H42  1  0.031300  0.364100  0.295200  1
  H  H43  1  0.531300  0.864100  0.204800  1
  H  H44  1  0.968700  0.635900  0.704800  1
  H  H45  1  0.387700  0.279100  0.919200  1
  H  H46  1  0.112300  0.220900  0.419200  1
  H  H47  1  0.612300  0.720900  0.080800  1
  H  H48  1  0.887700  0.779100  0.580800  1
  H  H49  1  0.691100  0.264700  0.922100  1
  H  H50  1  0.808900  0.235300  0.422100  1
  H  H51  1  0.308900  0.735300  0.077900  1
  H  H52  1  0.191100  0.764700  0.577900  1
  H  H53  1  0.586400  0.293200  0.820500  1
  H  H54  1  0.913600  0.206800  0.320500  1
  H  H55  1  0.413600  0.706800  0.179500  1
  H  H56  1  0.086400  0.793200  0.679500  1
  H  H57  1  0.368700  0.105900  0.844700  1
  H  H58  1  0.131300  0.394100  0.344700  1
  H  H59  1  0.631300  0.894100  0.155300  1
  H  H60  1  0.868700  0.605900  0.655300  1
  H  H61  1  0.435200  0.228200  0.821400  1
  H  H62  1  0.064800  0.271800  0.321400  1
  H  H63  1  0.564800  0.771800  0.178600  1
  H  H64  1  0.935200  0.728200  0.678600  1
  H  H65  1  0.421300  0.210200  0.767500  1
  H  H66  1  0.078700  0.289800  0.267500  1
  H  H67  1  0.578700  0.789800  0.232500  1
  H  H68  1  0.921300  0.710200  0.732500  1
  H  H69  1  0.586000  0.117600  0.693100  1
  H  H70  1  0.914000  0.382400  0.193100  1
  H  H71  1  0.414000  0.882400  0.306900  1
  H  H72  1  0.086000  0.617600  0.806900  1
  H  H73  1  0.442300  0.151600  0.910900  1
  H  H74  1  0.057700  0.348400  0.410900  1
  H  H75  1  0.557700  0.848400  0.089100  1
  H  H76  1  0.942300  0.651600  0.589100  1
  H  H77  1  0.546800  0.270800  0.696600  1
  H  H78  1  0.953200  0.229200  0.196600  1
  H  H79  1  0.453200  0.729200  0.303400  1
  H  H80  1  0.046800  0.770800  0.803400  1
  H  H81  1  0.333500  0.185400  0.861000  1
  H  H82  1  0.166500  0.314600  0.361000  1
  H  H83  1  0.666500  0.814600  0.139000  1
  H  H84  1  0.833500  0.685400  0.639000  1
  H  H85  1  0.252400  0.121900  0.762200  1
  H  H86  1  0.247600  0.378100  0.262200  1
  H  H87  1  0.747600  0.878100  0.237800  1
  H  H88  1  0.752400  0.621900  0.737800  1
  H  H89  1  0.856500  0.208300  0.751900  1
  H  H90  1  0.643500  0.291700  0.251900  1
  H  H91  1  0.143500  0.791700  0.248100  1
  H  H92  1  0.356500  0.708300  0.748100  1
  H  H93  1  0.804500  0.234200  0.738400  1
  H  H94  1  0.695500  0.265800  0.238400  1
  H  H95  1  0.195500  0.765800  0.261600  1
  H  H96  1  0.304500  0.734200  0.761600  1
  H  H97  1  0.557300  0.118300  0.818400  1
  H  H98  1  0.942700  0.381700  0.318400  1
  H  H99  1  0.442700  0.881700  0.181600  1
  H  H100  1  0.057300  0.618300  0.681600  1
  H  H101  1  0.750500  0.128900  0.926900  1
  H  H102  1  0.749500  0.371100  0.426900  1
  H  H103  1  0.249500  0.871100  0.073100  1
  H  H104  1  0.250500  0.628900  0.573100  1
  H  H105  1  0.599100  0.072500  0.761800  1
  H  H106  1  0.900900  0.427500  0.261800  1
  H  H107  1  0.400900  0.927500  0.238200  1
  H  H108  1  0.099100  0.572500  0.738200  1
  H  H109  1  0.734400  0.138600  0.740100  1
  H  H110  1  0.765600  0.361400  0.240100  1
  H  H111  1  0.265600  0.861400  0.259900  1
  H  H112  1  0.234400  0.638600  0.759900  1
  H  H113  1  0.678400  0.280800  0.795700  1
  H  H114  1  0.821600  0.219200  0.295700  1
  H  H115  1  0.321600  0.719200  0.204300  1
  H  H116  1  0.178400  0.780800  0.704300  1
  H  H117  1  0.559600  0.242900  0.879800  1
  H  H118  1  0.940400  0.257100  0.379800  1
  H  H119  1  0.440400  0.757100  0.120200  1
  H  H120  1  0.059600  0.742900  0.620200  1
  H  H121  1  0.080200  0.125800  0.837400  1
  H  H122  1  0.419800  0.374200  0.337400  1
  H  H123  1  0.919800  0.874200  0.162600  1
  H  H124  1  0.580200  0.625800  0.662600  1
  H  H125  1  0.815100  0.425900  0.916400  1
  H  H126  1  0.684900  0.074100  0.416400  1
  H  H127  1  0.184900  0.574100  0.083600  1
  H  H128  1  0.315100  0.925900  0.583600  1
  H  H129  1  0.780200  0.164400  0.975900  1
  H  H130  1  0.719800  0.335600  0.475900  1
  H  H131  1  0.219800  0.835600  0.024100  1
  H  H132  1  0.280200  0.664400  0.524100  1
  H  H133  1  0.552400  0.331800  0.761900  1
  H  H134  1  0.947600  0.168200  0.261900  1
  H  H135  1  0.447600  0.668200  0.238100  1
  H  H136  1  0.052400  0.831800  0.738100  1
  H  H137  1  0.573200  0.212800  0.728800  1
  H  H138  1  0.926800  0.287200  0.228800  1
  H  H139  1  0.426800  0.787200  0.271200  1
  H  H140  1  0.073200  0.712800  0.771200  1
  H  H141  1  0.966700  0.269700  0.808100  1
  H  H142  1  0.533300  0.230300  0.308100  1
  H  H143  1  0.033300  0.730300  0.191900  1
  H  H144  1  0.466700  0.769700  0.691900  1
  H  H145  1  0.407400  0.279800  0.730700  1
  H  H146  1  0.092600  0.220200  0.230700  1
  H  H147  1  0.592600  0.720200  0.269300  1
  H  H148  1  0.907400  0.779800  0.769300  1
  H  H149  1  0.753000  0.293600  0.692100  1
  H  H150  1  0.747000  0.206400  0.192100  1
  H  H151  1  0.247000  0.706400  0.307900  1
  H  H152  1  0.253000  0.793600  0.807900  1
  H  H153  1  0.484300  0.167000  0.724300  1
  H  H154  1  0.015700  0.333000  0.224300  1
  H  H155  1  0.515700  0.833000  0.275700  1
  H  H156  1  0.984300  0.667000  0.775700  1
  H  H157  1  0.838700  0.218000  0.678800  1
  H  H158  1  0.661300  0.282000  0.178800  1
  H  H159  1  0.161300  0.782000  0.321200  1
  H  H160  1  0.338700  0.718000  0.821200  1
  H  H161  1  0.992600  0.284500  0.959400  1
  H  H162  1  0.507400  0.215500  0.459400  1
  H  H163  1  0.007400  0.715500  0.040600  1
  H  H164  1  0.492600  0.784500  0.540600  1
  H  H165  1  0.809500  0.177400  0.630600  1
  H  H166  1  0.690500  0.322600  0.130600  1
  H  H167  1  0.190500  0.822600  0.369400  1
  H  H168  1  0.309500  0.677400  0.869400  1
  H  H169  1  0.774000  0.309800  0.851900  1
  H  H170  1  0.726000  0.190200  0.351900  1
  H  H171  1  0.226000  0.690200  0.148100  1
  H  H172  1  0.274000  0.809800  0.648100  1
  H  H173  1  0.549000  0.274800  0.943600  1
  H  H174  1  0.951000  0.225200  0.443600  1
  H  H175  1  0.451000  0.725200  0.056400  1
  H  H176  1  0.049000  0.774800  0.556400  1
  H  H177  1  0.529500  0.292000  0.907400  1
  H  H178  1  0.970500  0.208000  0.407400  1
  H  H179  1  0.470500  0.708000  0.092600  1
  H  H180  1  0.029500  0.792000  0.592600  1
  H  H181  1  0.795200  0.044300  0.813200  1
  H  H182  1  0.704800  0.455700  0.313200  1
  H  H183  1  0.204800  0.955700  0.186800  1
  H  H184  1  0.295200  0.544300  0.686800  1
  H  H185  1  0.163500  0.131000  0.800500  1
  H  H186  1  0.336500  0.369000  0.300500  1
  H  H187  1  0.836500  0.869000  0.199500  1
  H  H188  1  0.663500  0.631000  0.699500  1
  H  H189  1  0.355800  0.242000  0.969100  1
  H  H190  1  0.144200  0.258000  0.469100  1
  H  H191  1  0.644200  0.758000  0.030900  1
  H  H192  1  0.855800  0.742000  0.530900  1
  H  H193  1  0.344000  0.271200  0.845700  1
  H  H194  1  0.156000  0.228800  0.345700  1
  H  H195  1  0.656000  0.728800  0.154300  1
  H  H196  1  0.844000  0.771200  0.654300  1
  H  H197  1  0.424000  0.278600  0.856200  1
  H  H198  1  0.076000  0.221400  0.356200  1
  H  H199  1  0.576000  0.721400  0.143800  1
  H  H200  1  0.924000  0.778600  0.643800  1
  H  H201  1  0.736300  0.414700  0.704400  1
  H  H202  1  0.763700  0.085300  0.204400  1
  H  H203  1  0.263700  0.585300  0.295600  1
  H  H204  1  0.236300  0.914700  0.795600  1
  H  H205  1  0.346600  0.193900  0.664900  1
  H  H206  1  0.153400  0.306100  0.164900  1
  H  H207  1  0.653400  0.806100  0.335100  1
  H  H208  1  0.846600  0.693900  0.835100  1
  H  H209  1  0.565700  0.182300  0.878700  1
  H  H210  1  0.934300  0.317700  0.378700  1
  H  H211  1  0.434300  0.817700  0.121300  1
  H  H212  1  0.065700  0.682300  0.621300  1
  H  H213  1  0.884600  0.286300  0.769100  1
  H  H214  1  0.615400  0.213700  0.269100  1
  H  H215  1  0.115400  0.713700  0.230900  1
  H  H216  1  0.384600  0.786300  0.730900  1
  H  H217  1  0.598100  0.355300  0.916500  1
  H  H218  1  0.901900  0.144700  0.416500  1
  H  H219  1  0.401900  0.644700  0.083500  1
  H  H220  1  0.098100  0.855300  0.583500  1
  H  H221  1  0.097300  0.268300  0.946400  1
  H  H222  1  0.402700  0.231700  0.446400  1
  H  H223  1  0.902700  0.731700  0.053600  1
  H  H224  1  0.597300  0.768300  0.553600  1
  H  H225  1  0.551800  0.070200  0.922000  1
  H  H226  1  0.948200  0.429800  0.422000  1
  H  H227  1  0.448200  0.929800  0.078000  1
  H  H228  1  0.051800  0.570200  0.578000  1
  H  H229  1  0.984200  0.357500  0.936000  1
  H  H230  1  0.515800  0.142500  0.436000  1
  H  H231  1  0.015800  0.642500  0.064000  1
  H  H232  1  0.484200  0.857500  0.564000  1
  H  H233  1  0.136000  0.112200  0.951600  1
  H  H234  1  0.364000  0.387800  0.451600  1
  H  H235  1  0.864000  0.887800  0.048400  1
  H  H236  1  0.636000  0.612200  0.548400  1
  H  H237  1  0.367600  0.081600  0.766300  1
  H  H238  1  0.132400  0.418400  0.266300  1
  H  H239  1  0.632400  0.918400  0.233700  1
  H  H240  1  0.867600  0.581600  0.733700  1
  H  H241  1  0.381400  0.125200  0.755800  1
  H  H242  1  0.118600  0.374800  0.255800  1
  H  H243  1  0.618600  0.874800  0.244200  1
  H  H244  1  0.881400  0.625200  0.744200  1
  H  H245  1  0.670100  0.019900  0.621900  1
  H  H246  1  0.829900  0.480100  0.121900  1
  H  H247  1  0.329900  0.980100  0.378100  1
  H  H248  1  0.170100  0.519900  0.878100  1
  H  H249  1  0.710600  0.394000  0.917000  1
  H  H250  1  0.789400  0.106000  0.417000  1
  H  H251  1  0.289400  0.606000  0.083000  1
  H  H252  1  0.210600  0.894000  0.583000  1
  H  H253  1  0.760600  0.142000  0.589300  1
  H  H254  1  0.739400  0.358000  0.089300  1
  H  H255  1  0.239400  0.858000  0.410700  1
  H  H256  1  0.260600  0.642000  0.910700  1
  H  H257  1  0.025100  0.115100  0.937800  1
  H  H258  1  0.474900  0.384900  0.437800  1
  H  H259  1  0.974900  0.884900  0.062200  1
  H  H260  1  0.525100  0.615100  0.562200  1
  H  H261  1  0.246100  0.080700  0.989500  1
  H  H262  1  0.253900  0.419300  0.489500  1
  H  H263  1  0.753900  0.919300  0.010500  1
  H  H264  1  0.746100  0.580700  0.510500  1
  H  H265  1  0.040000  0.259800  0.845800  1
  H  H266  1  0.460000  0.240200  0.345800  1
  H  H267  1  0.960000  0.740200  0.154200  1
  H  H268  1  0.540000  0.759800  0.654200  1
  H  H269  1  0.750900  0.357000  0.691800  1
  H  H270  1  0.749100  0.143000  0.191800  1
  H  H271  1  0.249100  0.643000  0.308200  1
  H  H272  1  0.250900  0.857000  0.808200  1
  H  H273  1  0.799200  0.202100  0.020400  1
  H  H274  1  0.700800  0.297900  0.520400  1
  H  H275  1  0.200800  0.797900  0.979600  1
  H  H276  1  0.299200  0.702100  0.479600  1
  H  H277  1  0.887000  0.305300  0.053500  1
  H  H278  1  0.613000  0.194700  0.553500  1
  H  H279  1  0.113000  0.694700  0.946500  1
  H  H280  1  0.387000  0.805300  0.446500  1
  H  H281  1  0.891900  0.325400  0.996600  1
  H  H282  1  0.608100  0.174600  0.496600  1
  H  H283  1  0.108100  0.674600  0.003400  1
  H  H284  1  0.391900  0.825400  0.503400  1
  H  H285  1  0.834200  0.052100  0.661500  1
  H  H286  1  0.665800  0.447900  0.161500  1
  H  H287  1  0.165800  0.947900  0.338500  1
  H  H288  1  0.334200  0.552100  0.838500  1
  H  H289  1  0.683300  0.033600  0.563700  1
  H  H290  1  0.816700  0.466400  0.063700  1
  H  H291  1  0.316700  0.966400  0.436300  1
  H  H292  1  0.183300  0.533600  0.936300  1
  H  H293  1  0.352400  0.987900  0.919800  1
  H  H294  1  0.147600  0.512100  0.419800  1
  H  H295  1  0.647600  0.012100  0.080200  1
  H  H296  1  0.852400  0.487900  0.580200  1
  H  H297  1  0.941000  0.037400  0.678200  1
  H  H298  1  0.559000  0.462600  0.178200  1
  H  H299  1  0.059000  0.962600  0.321800  1
  H  H300  1  0.441000  0.537400  0.821800  1
  H  H301  1  0.301100  0.393300  0.749800  1
  H  H302  1  0.198900  0.106700  0.249800  1
  H  H303  1  0.698900  0.606700  0.250200  1
  H  H304  1  0.801100  0.893300  0.750200  1
  H  H305  1  0.160600  0.042800  0.922400  1
  H  H306  1  0.339400  0.457200  0.422400  1
  H  H307  1  0.839400  0.957200  0.077600  1
  H  H308  1  0.660600  0.542800  0.577600  1
  H  H309  1  0.531900  0.390800  0.616500  1
  H  H310  1  0.968100  0.109200  0.116500  1
  H  H311  1  0.468100  0.609200  0.383500  1
  H  H312  1  0.031900  0.890800  0.883500  1
  H  H313  1  0.448400  0.026600  0.923400  1
  H  H314  1  0.051600  0.473400  0.423400  1
  H  H315  1  0.551600  0.973400  0.076600  1
  H  H316  1  0.948400  0.526600  0.576600  1
  H  H317  1  0.395800  0.053400  0.690000  1
  H  H318  1  0.104200  0.446600  0.190000  1
  H  H319  1  0.604200  0.946600  0.310000  1
  H  H320  1  0.895800  0.553400  0.810000  1
  H  H321  1  0.393000  0.389000  0.640200  1
  H  H322  1  0.107000  0.111000  0.140200  1
  H  H323  1  0.607000  0.611000  0.359800  1
  H  H324  1  0.893000  0.889000  0.859800  1
  H  H325  1  0.782100  0.341400  0.779100  1
  H  H326  1  0.717900  0.158600  0.279100  1
  H  H327  1  0.217900  0.658600  0.220900  1
  H  H328  1  0.282100  0.841400  0.720900  1
  H  H329  1  0.771600  0.301600  0.759600  1
  H  H330  1  0.728400  0.198400  0.259600  1
  H  H331  1  0.228400  0.698400  0.240400  1
  H  H332  1  0.271600  0.801600  0.740400  1
  H  H333  1  0.662800  0.226400  0.672500  1
  H  H334  1  0.837200  0.273600  0.172500  1
  H  H335  1  0.337200  0.773600  0.327500  1
  H  H336  1  0.162800  0.726400  0.827500  1
  H  H337  1  0.689400  0.230400  0.711800  1
  H  H338  1  0.810600  0.269600  0.211800  1
  H  H339  1  0.310600  0.769600  0.288200  1
  H  H340  1  0.189400  0.730400  0.788200  1
  H  H341  1  0.321000  0.207600  0.011300  1
  H  H342  1  0.179000  0.292400  0.511300  1
  H  H343  1  0.679000  0.792400  0.988700  1
  H  H344  1  0.821000  0.707600  0.488700  1
  H  H345  1  0.423700  0.273500  0.578200  1
  H  H346  1  0.076300  0.226500  0.078200  1
  H  H347  1  0.576300  0.726500  0.421800  1
  H  H348  1  0.923700  0.773500  0.921800  1
  H  H349  1  0.245500  0.104800  0.045800  1
  H  H350  1  0.254500  0.395200  0.545800  1
  H  H351  1  0.754500  0.895200  0.954200  1
  H  H352  1  0.745500  0.604800  0.454200  1
  H  H353  1  0.583900  0.367100  0.839100  1
  H  H354  1  0.916100  0.132900  0.339100  1
  H  H355  1  0.416100  0.632900  0.160900  1
  H  H356  1  0.083900  0.867100  0.660900  1
  H  H357  1  0.527800  0.331300  0.851300  1
  H  H358  1  0.972200  0.168700  0.351300  1
  H  H359  1  0.472200  0.668700  0.148700  1
  H  H360  1  0.027800  0.831300  0.648700  1
  H  H361  1  0.445300  0.001000  0.691400  1
  H  H362  1  0.054700  0.499000  0.191400  1
  H  H363  1  0.554700  0.999000  0.308600  1
  H  H364  1  0.945300  0.501000  0.808600  1
  H  H365  1  0.148200  0.978200  0.933600  1
  H  H366  1  0.351800  0.521800  0.433600  1
  H  H367  1  0.851800  0.021800  0.066400  1
  H  H368  1  0.648200  0.478200  0.566400  1
  H  H369  1  0.453400  0.132600  0.661700  1
  H  H370  1  0.046600  0.367400  0.161700  1
  H  H371  1  0.546600  0.867400  0.338300  1
  H  H372  1  0.953400  0.632600  0.838300  1
  H  H373  1  0.409800  0.122500  0.696600  1
  H  H374  1  0.090200  0.377500  0.196600  1
  H  H375  1  0.590200  0.877500  0.303400  1
  H  H376  1  0.909800  0.622500  0.803400  1
  H  H377  1  0.876000  0.037400  0.777500  1
  H  H378  1  0.624000  0.462600  0.277500  1
  H  H379  1  0.124000  0.962600  0.222500  1
  H  H380  1  0.376000  0.537400  0.722500  1
  H  H381  1  0.014700  0.422000  0.936800  1
  H  H382  1  0.485300  0.078000  0.436800  1
  H  H383  1  0.985300  0.578000  0.063200  1
  H  H384  1  0.514700  0.922000  0.563200  1
  H  H385  1  0.680600  0.920600  0.677000  1
  H  H386  1  0.819400  0.579400  0.177000  1
  H  H387  1  0.319400  0.079400  0.323000  1
  H  H388  1  0.180600  0.420600  0.823000  1
  H  H389  1  0.590100  0.150500  0.941200  1
  H  H390  1  0.909900  0.349500  0.441200  1
  H  H391  1  0.409900  0.849500  0.058800  1
  H  H392  1  0.090100  0.650500  0.558800  1
  H  H393  1  0.610300  0.135600  0.904100  1
  H  H394  1  0.889700  0.364400  0.404100  1
  H  H395  1  0.389700  0.864400  0.095900  1
  H  H396  1  0.110300  0.635600  0.595900  1
  H  H397  1  0.734300  0.982700  0.685500  1
  H  H398  1  0.765700  0.517300  0.185500  1
  H  H399  1  0.265700  0.017300  0.314500  1
  H  H400  1  0.234300  0.482700  0.814500  1
  H  H401  1  0.292900  0.412900  0.646800  1
  H  H402  1  0.207100  0.087100  0.146800  1
  H  H403  1  0.707100  0.587100  0.353200  1
  H  H404  1  0.792900  0.912900  0.853200  1
  H  H405  1  0.701300  0.052600  0.847400  1
  H  H406  1  0.798700  0.447400  0.347400  1
  H  H407  1  0.298700  0.947400  0.152600  1
  H  H408  1  0.201300  0.552600  0.652600  1
  H  H409  1  0.519600  0.437300  0.678900  1
  H  H410  1  0.980400  0.062700  0.178900  1
  H  H411  1  0.480400  0.562700  0.321100  1
  H  H412  1  0.019600  0.937300  0.821100  1
  H  H413  1  0.546500  0.042600  0.832300  1
  H  H414  1  0.953500  0.457400  0.332300  1
  H  H415  1  0.453500  0.957400  0.167700  1
  H  H416  1  0.046500  0.542600  0.667700  1
  H  H417  1  0.594100  0.075400  0.854000  1
  H  H418  1  0.905900  0.424600  0.354000  1
  H  H419  1  0.405900  0.924600  0.146000  1
  H  H420  1  0.094100  0.575400  0.646000  1
  H  H421  1  0.613600  0.487000  0.680200  1
  H  H422  1  0.886400  0.013000  0.180200  1
  H  H423  1  0.386400  0.513000  0.319800  1
  H  H424  1  0.113600  0.987000  0.819800  1
  H  H425  1  0.294400  0.212400  0.736900  1
  H  H426  1  0.205600  0.287600  0.236900  1
  H  H427  1  0.705600  0.787600  0.263100  1
  H  H428  1  0.794400  0.712400  0.763100  1
  H  H429  1  0.340400  0.181900  0.727000  1
  H  H430  1  0.159600  0.318100  0.227000  1
  H  H431  1  0.659600  0.818100  0.273000  1
  H  H432  1  0.840400  0.681900  0.773000  1
  H  H433  1  0.522600  0.379200  0.557200  1
  H  H434  1  0.977400  0.120800  0.057200  1
  H  H435  1  0.477400  0.620800  0.442800  1
  H  H436  1  0.022600  0.879200  0.942800  1
  H  H437  1  0.496400  0.953100  0.686100  1
  H  H438  1  0.003600  0.546900  0.186100  1
  H  H439  1  0.503600  0.046900  0.313900  1
  H  H440  1  0.996400  0.453100  0.813900  1
  H  H441  1  0.387700  0.232700  0.619600  1
  H  H442  1  0.112300  0.267300  0.119600  1
  H  H443  1  0.612300  0.767300  0.380400  1
  H  H444  1  0.887700  0.732700  0.880400  1
  H  H445  1  0.441900  0.372200  0.835300  1
  H  H446  1  0.058100  0.127800  0.335300  1
  H  H447  1  0.558100  0.627800  0.164700  1
  H  H448  1  0.941900  0.872200  0.664700  1
  H  H449  1  0.370700  0.389700  0.791100  1
  H  H450  1  0.129300  0.110300  0.291100  1
  H  H451  1  0.629300  0.610300  0.208900  1
  H  H452  1  0.870700  0.889700  0.708900  1
  H  H453  1  0.210600  0.214800  0.905300  1
  H  H454  1  0.289400  0.285200  0.405300  1
  H  H455  1  0.789400  0.785200  0.094700  1
  H  H456  1  0.710600  0.714800  0.594700  1
  H  H457  1  0.129200  0.198800  0.909000  1
  H  H458  1  0.370800  0.301200  0.409000  1
  H  H459  1  0.870800  0.801200  0.091000  1
  H  H460  1  0.629200  0.698800  0.591000  1
  H  H461  1  0.166800  0.231100  0.934800  1
  H  H462  1  0.333200  0.268900  0.434800  1
  H  H463  1  0.833200  0.768900  0.065200  1
  H  H464  1  0.666800  0.731100  0.565200  1
  H  H465  1  0.198800  0.229300  0.844600  1
  H  H466  1  0.301200  0.270700  0.344600  1
  H  H467  1  0.801200  0.770700  0.155400  1
  H  H468  1  0.698800  0.729300  0.655400  1
  H  H469  1  0.145800  0.255200  0.832000  1
  H  H470  1  0.354200  0.244800  0.332000  1
  H  H471  1  0.854200  0.744800  0.168000  1
  H  H472  1  0.645800  0.755200  0.668000  1
  H  H473  1  0.117100  0.213400  0.846100  1
  H  H474  1  0.382900  0.286600  0.346100  1
  H  H475  1  0.882900  0.786600  0.153900  1
  H  H476  1  0.617100  0.713400  0.653900  1
  H  H477  1  0.866800  0.110900  0.897000  1
  H  H478  1  0.633200  0.389100  0.397000  1
  H  H479  1  0.133200  0.889100  0.103000  1
  H  H480  1  0.366800  0.610900  0.603000  1
  H  H481  1  0.925500  0.121100  0.926200  1
  H  H482  1  0.574500  0.378900  0.426200  1
  H  H483  1  0.074500  0.878900  0.073800  1
  H  H484  1  0.425500  0.621100  0.573800  1
  H  H485  1  0.914800  0.081200  0.906700  1
  H  H486  1  0.585200  0.418800  0.406700  1
  H  H487  1  0.085200  0.918800  0.093300  1
  H  H488  1  0.414800  0.581200  0.593300  1
  H  H489  1  0.804300  0.289200  0.096200  1
  H  H490  1  0.695700  0.210800  0.596200  1
  H  H491  1  0.195700  0.710800  0.903800  1
  H  H492  1  0.304300  0.789200  0.403800  1
  H  H493  1  0.786200  0.257500  0.125700  1
  H  H494  1  0.713800  0.242500  0.625700  1
  H  H495  1  0.213800  0.742500  0.874300  1
  H  H496  1  0.286200  0.757500  0.374300  1
  H  H497  1  0.739100  0.255500  0.091500  1
  H  H498  1  0.760900  0.244500  0.591500  1
  H  H499  1  0.260900  0.744500  0.908500  1
  H  H500  1  0.239100  0.755500  0.408500  1
  H  H501  1  0.750300  0.144100  0.498000  1
  H  H502  1  0.749700  0.355900  0.998000  1
  H  H503  1  0.249700  0.855900  0.502000  1
  H  H504  1  0.250300  0.644100  0.002000  1
  H  H505  1  0.801400  0.144300  0.530500  1
  H  H506  1  0.698600  0.355700  0.030500  1
  H  H507  1  0.198600  0.855700  0.469500  1
  H  H508  1  0.301400  0.644300  0.969500  1
  H  H509  1  0.728200  0.156700  0.535600  1
  H  H510  1  0.771800  0.343300  0.035600  1
  H  H511  1  0.271800  0.843300  0.464400  1
  H  H512  1  0.228200  0.656700  0.964400  1
  H  H513  1  0.896700  0.110400  0.836000  1
  H  H514  1  0.603300  0.389600  0.336000  1
  H  H515  1  0.103300  0.889600  0.164000  1
  H  H516  1  0.396700  0.610400  0.664000  1
  H  H517  1  0.945000  0.080100  0.842800  1
  H  H518  1  0.555000  0.419900  0.342800  1
  H  H519  1  0.055000  0.919900  0.157200  1
  H  H520  1  0.445000  0.580100  0.657200  1
  H  H521  1  0.975700  0.118900  0.823400  1
  H  H522  1  0.524300  0.381100  0.323400  1
  H  H523  1  0.024300  0.881100  0.176600  1
  H  H524  1  0.475700  0.618900  0.676600  1
  H  H525  1  0.252100  0.281900  0.884500  1
  H  H526  1  0.247900  0.218100  0.384500  1
  H  H527  1  0.747900  0.718100  0.115500  1
  H  H528  1  0.752100  0.781900  0.615500  1
  H  H529  1  0.205500  0.297100  0.913300  1
  H  H530  1  0.294500  0.202900  0.413300  1
  H  H531  1  0.794500  0.702900  0.086700  1
  H  H532  1  0.705500  0.797100  0.586700  1
  H  H533  1  0.196200  0.306500  0.873000  1
  H  H534  1  0.303800  0.193500  0.373000  1
  H  H535  1  0.803800  0.693500  0.127000  1
  H  H536  1  0.696200  0.806500  0.627000  1
  H  H537  1  0.269200  0.473400  0.720600  1
  H  H538  1  0.230800  0.026600  0.220600  1
  H  H539  1  0.730800  0.526600  0.279400  1
  H  H540  1  0.769200  0.973400  0.779400  1
  H  H541  1  0.250100  0.445000  0.752700  1
  H  H542  1  0.249900  0.055000  0.252700  1
  H  H543  1  0.749900  0.555000  0.247300  1
  H  H544  1  0.750100  0.945000  0.747300  1
  H  H545  1  0.191400  0.464100  0.735000  1
  H  H546  1  0.308600  0.035900  0.235000  1
  H  H547  1  0.808600  0.535900  0.265000  1
  H  H548  1  0.691400  0.964100  0.765000  1
  H  H549  1  0.926800  0.278100  0.096400  1
  H  H550  1  0.573200  0.221900  0.596400  1
  H  H551  1  0.073200  0.721900  0.903600  1
  H  H552  1  0.426800  0.778100  0.403600  1
  H  H553  1  0.944500  0.238500  0.084800  1
  H  H554  1  0.555500  0.261500  0.584800  1
  H  H555  1  0.055500  0.761500  0.915200  1
  H  H556  1  0.444500  0.738500  0.415200  1
  H  H557  1  0.912100  0.243000  0.122500  1
  H  H558  1  0.587900  0.257000  0.622500  1
  H  H559  1  0.087900  0.757000  0.877500  1
  H  H560  1  0.412100  0.743000  0.377500  1
  H  H561  1  0.916700  0.169800  0.868100  1
  H  H562  1  0.583300  0.330200  0.368100  1
  H  H563  1  0.083300  0.830200  0.131900  1
  H  H564  1  0.416700  0.669800  0.631900  1
  H  H565  1  0.996900  0.179000  0.857600  1
  H  H566  1  0.503100  0.321000  0.357600  1
  H  H567  1  0.003100  0.821000  0.142400  1
  H  H568  1  0.496900  0.679000  0.642400  1
  H  H569  1  0.975000  0.177700  0.897800  1
  H  H570  1  0.525000  0.322300  0.397800  1
  H  H571  1  0.025000  0.822300  0.102200  1
  H  H572  1  0.475000  0.677700  0.602200  1
  H  H573  1  0.748100  0.079100  0.485200  1
  H  H574  1  0.751900  0.420900  0.985200  1
  H  H575  1  0.251900  0.920900  0.514800  1
  H  H576  1  0.248100  0.579100  0.014800  1
  H  H577  1  0.723500  0.046800  0.513500  1
  H  H578  1  0.776500  0.453200  0.013500  1
  H  H579  1  0.276500  0.953200  0.486500  1
  H  H580  1  0.223500  0.546800  0.986500  1
  H  H581  1  0.798200  0.073500  0.516800  1
  H  H582  1  0.701800  0.426500  0.016800  1
  H  H583  1  0.201800  0.926500  0.483200  1
  H  H584  1  0.298200  0.573500  0.983200  1
  H  H585  1  0.226700  0.455700  0.662800  1
  H  H586  1  0.273300  0.044300  0.162800  1
  H  H587  1  0.773300  0.544300  0.337200  1
  H  H588  1  0.726700  0.955700  0.837200  1
  H  H589  1  0.148300  0.444200  0.676100  1
  H  H590  1  0.351700  0.055800  0.176100  1
  H  H591  1  0.851700  0.555800  0.323900  1
  H  H592  1  0.648300  0.944200  0.823900  1
  H  H593  1  0.182100  0.414900  0.653700  1
  H  H594  1  0.317900  0.085100  0.153700  1
  H  H595  1  0.817900  0.585100  0.346300  1
  H  H596  1  0.682100  0.914900  0.846300  1
  H  H597  1  0.007400  0.515700  0.901700  1
  H  H598  1  0.492600  0.984300  0.401700  1
  H  H599  1  0.992600  0.484300  0.098300  1
  H  H600  1  0.507400  0.015700  0.598300  1
  H  H601  1  0.990200  0.478400  0.878300  1
  H  H602  1  0.509800  0.021600  0.378300  1
  H  H603  1  0.009800  0.521600  0.121700  1
  H  H604  1  0.490200  0.978400  0.621700  1
  H  H605  1  0.038000  0.479200  0.912100  1
  H  H606  1  0.462000  0.020800  0.412100  1
  H  H607  1  0.962000  0.520800  0.087900  1
  H  H608  1  0.538000  0.979200  0.587900  1
  H  H609  1  0.406900  0.352300  0.514200  1
  H  H610  1  0.093100  0.147700  0.014200  1
  H  H611  1  0.593100  0.647700  0.485800  1
  H  H612  1  0.906900  0.852300  0.985800  1
  H  H613  1  0.367300  0.309900  0.520600  1
  H  H614  1  0.132700  0.190100  0.020600  1
  H  H615  1  0.632700  0.690100  0.479400  1
  H  H616  1  0.867300  0.809900  0.979400  1
  H  H617  1  0.403400  0.321700  0.483800  1
  H  H618  1  0.096600  0.178300  0.983800  1
  H  H619  1  0.596600  0.678300  0.516200  1
  H  H620  1  0.903400  0.821700  0.016200  1
  H  H621  1  0.638800  0.100300  0.493900  1
  H  H622  1  0.861200  0.399700  0.993900  1
  H  H623  1  0.361200  0.899700  0.506100  1
  H  H624  1  0.138800  0.600300  0.006100  1
  H  H625  1  0.617200  0.111400  0.532200  1
  H  H626  1  0.882800  0.388600  0.032200  1
  H  H627  1  0.382800  0.888600  0.467800  1
  H  H628  1  0.117200  0.611400  0.967800  1
  H  H629  1  0.616700  0.068200  0.522800  1
  H  H630  1  0.883300  0.431800  0.022800  1
  H  H631  1  0.383300  0.931800  0.477200  1
  H  H632  1  0.116700  0.568200  0.977200  1
  H  H633  1  0.521200  0.273000  0.525200  1
  H  H634  1  0.978800  0.227000  0.025200  1
  H  H635  1  0.478800  0.727000  0.474800  1
  H  H636  1  0.021200  0.773000  0.974800  1
  H  H637  1  0.474700  0.272800  0.490900  1
  H  H638  1  0.025300  0.227200  0.990900  1
  H  H639  1  0.525300  0.727200  0.509100  1
  H  H640  1  0.974700  0.772800  0.009100  1
  H  H641  1  0.438600  0.261300  0.527700  1
  H  H642  1  0.061400  0.238700  0.027700  1
  H  H643  1  0.561400  0.738700  0.472300  1
  H  H644  1  0.938600  0.761300  0.972300  1
  H  H645  1  0.026900  0.071900  0.770200  1
  H  H646  1  0.473100  0.428100  0.270200  1
  H  H647  1  0.973100  0.928100  0.229800  1
  H  H648  1  0.526900  0.571900  0.729800  1
  H  H649  1  0.055300  0.036100  0.784400  1
  H  H650  1  0.444700  0.463900  0.284400  1
  H  H651  1  0.944700  0.963900  0.215600  1
  H  H652  1  0.555300  0.536100  0.715600  1
  H  H653  1  0.978900  0.041600  0.794400  1
  H  H654  1  0.521100  0.458400  0.294400  1
  H  H655  1  0.021100  0.958400  0.205600  1
  H  H656  1  0.478900  0.541600  0.705600  1
  H  H657  1  0.967900  0.516800  0.959700  1
  H  H658  1  0.532100  0.983200  0.459700  1
  H  H659  1  0.032100  0.483200  0.040300  1
  H  H660  1  0.467900  0.016800  0.540300  1
  H  H661  1  0.998400  0.479600  0.967600  1
  H  H662  1  0.501600  0.020400  0.467600  1
  H  H663  1  0.001600  0.520400  0.032400  1
  H  H664  1  0.498400  0.979600  0.532400  1
  H  H665  1  0.919400  0.480700  0.976700  1
  H  H666  1  0.580600  0.019300  0.476700  1
  H  H667  1  0.080600  0.519300  0.023300  1
  H  H668  1  0.419400  0.980700  0.523300  1
  H  H669  1  0.141500  0.928200  0.907600  1
  H  H670  1  0.358500  0.571800  0.407600  1
  H  H671  1  0.858500  0.071800  0.092400  1
  H  H672  1  0.641500  0.428200  0.592400  1
  H  H673  1  0.165900  0.888500  0.909600  1
  H  H674  1  0.334100  0.611500  0.409600  1
  H  H675  1  0.834100  0.111500  0.090400  1
  H  H676  1  0.665900  0.388500  0.590400  1
  H  H677  1  0.194200  0.917700  0.879200  1
  H  H678  1  0.305800  0.582300  0.379200  1
  H  H679  1  0.805800  0.082300  0.120800  1
  H  H680  1  0.694200  0.417700  0.620800  1
  H  H681  1  0.811900  0.189800  0.110400  1
  H  H682  1  0.688100  0.310200  0.610400  1
  H  H683  1  0.188100  0.810200  0.889600  1
  H  H684  1  0.311900  0.689800  0.389600  1
  H  H685  1  0.851200  0.184800  0.074600  1
  H  H686  1  0.648800  0.315200  0.574600  1
  H  H687  1  0.148800  0.815200  0.925400  1
  H  H688  1  0.351200  0.684800  0.425400  1
  H  H689  1  0.770700  0.187100  0.074200  1
  H  H690  1  0.729300  0.312900  0.574200  1
  H  H691  1  0.229300  0.812900  0.925800  1
  H  H692  1  0.270700  0.687100  0.425800  1
  H  H693  1  0.463500  0.906000  0.648300  1
  H  H694  1  0.036500  0.594000  0.148300  1
  H  H695  1  0.536500  0.094000  0.351700  1
  H  H696  1  0.963500  0.406000  0.851700  1
  H  H697  1  0.442700  0.885400  0.684700  1
  H  H698  1  0.057300  0.614600  0.184700  1
  H  H699  1  0.557300  0.114600  0.315300  1
  H  H700  1  0.942700  0.385400  0.815300  1
  H  H701  1  0.455800  0.861200  0.651300  1
  H  H702  1  0.044200  0.638800  0.151300  1
  H  H703  1  0.544200  0.138800  0.348700  1
  H  H704  1  0.955800  0.361200  0.848700  1
  H  H705  1  0.678300  0.528400  0.716800  1
  H  H706  1  0.821700  0.971600  0.216800  1
  H  H707  1  0.321700  0.471600  0.283200  1
  H  H708  1  0.178300  0.028400  0.783200  1
  H  H709  1  0.754700  0.541200  0.732300  1
  H  H710  1  0.745300  0.958800  0.232300  1
  H  H711  1  0.245300  0.458800  0.267700  1
  H  H712  1  0.254700  0.041200  0.767700  1
  H  H713  1  0.701200  0.508000  0.750600  1
  H  H714  1  0.798800  0.992000  0.250600  1
  H  H715  1  0.298800  0.492000  0.249400  1
  H  H716  1  0.201200  0.008000  0.749400  1
  H  H717  1  0.537000  0.364200  0.506800  1
  H  H718  1  0.963000  0.135800  0.006800  1
  H  H719  1  0.463000  0.635800  0.493200  1
  H  H720  1  0.037000  0.864200  0.993200  1
  H  H721  1  0.533800  0.330600  0.479300  1
  H  H722  1  0.966200  0.169400  0.979300  1
  H  H723  1  0.466200  0.669400  0.520700  1
  H  H724  1  0.033800  0.830600  0.020700  1
  H  H725  1  0.577300  0.330600  0.514600  1
  H  H726  1  0.922700  0.169400  0.014600  1
  H  H727  1  0.422700  0.669400  0.485400  1
  H  H728  1  0.077300  0.830600  0.985400  1
  H  H729  1  0.176500  0.377800  0.738400  1
  H  H730  1  0.323500  0.122200  0.238400  1
  H  H731  1  0.823500  0.622200  0.261600  1
  H  H732  1  0.676500  0.877800  0.761600  1
  H  H733  1  0.152200  0.368400  0.699000  1
  H  H734  1  0.347800  0.131600  0.199000  1
  H  H735  1  0.847800  0.631600  0.301000  1
  H  H736  1  0.652200  0.868400  0.801000  1
  H  H737  1  0.118600  0.397800  0.721200  1
  H  H738  1  0.381400  0.102200  0.221200  1
  H  H739  1  0.881400  0.602200  0.278800  1
  H  H740  1  0.618600  0.897800  0.778800  1
  H  H741  1  0.291400  0.891000  0.930400  1
  H  H742  1  0.208600  0.609000  0.430400  1
  H  H743  1  0.708600  0.109000  0.069600  1
  H  H744  1  0.791400  0.391000  0.569600  1
  H  H745  1  0.331100  0.929000  0.948300  1
  H  H746  1  0.168900  0.571000  0.448300  1
  H  H747  1  0.668900  0.071000  0.051700  1
  H  H748  1  0.831100  0.429000  0.551700  1
  H  H749  1  0.329500  0.925200  0.906700  1
  H  H750  1  0.170500  0.574800  0.406700  1
  H  H751  1  0.670500  0.074800  0.093300  1
  H  H752  1  0.829500  0.425200  0.593300  1
  H  H753  1  0.052600  0.057600  0.708800  1
  H  H754  1  0.447400  0.442400  0.208800  1
  H  H755  1  0.947400  0.942400  0.291200  1
  H  H756  1  0.552600  0.557600  0.791200  1
  H  H757  1  0.023900  0.016900  0.692400  1
  H  H758  1  0.476100  0.483100  0.192400  1
  H  H759  1  0.976100  0.983100  0.307600  1
  H  H760  1  0.523900  0.516900  0.807600  1
  H  H761  1  0.083600  0.021900  0.721300  1
  H  H762  1  0.416400  0.478100  0.221300  1
  H  H763  1  0.916400  0.978100  0.278700  1
  H  H764  1  0.583600  0.521900  0.778700  1
  H  H765  1  0.007500  0.973400  0.760000  1
  H  H766  1  0.492500  0.526600  0.260000  1
  H  H767  1  0.992500  0.026600  0.240000  1
  H  H768  1  0.507500  0.473400  0.740000  1
  H  H769  1  0.948300  0.968200  0.730800  1
  H  H770  1  0.551700  0.531800  0.230800  1
  H  H771  1  0.051700  0.031800  0.269200  1
  H  H772  1  0.448300  0.468200  0.769200  1
  H  H773  1  0.930800  0.978700  0.769800  1
  H  H774  1  0.569200  0.521300  0.269800  1
  H  H775  1  0.069200  0.021300  0.230200  1
  H  H776  1  0.430800  0.478700  0.730200  1
  H  H777  1  0.572500  0.891500  0.617000  1
  H  H778  1  0.927500  0.608500  0.117000  1
  H  H779  1  0.427500  0.108500  0.383000  1
  H  H780  1  0.072500  0.391500  0.883000  1
  H  H781  1  0.562000  0.849500  0.632100  1
  H  H782  1  0.938000  0.650500  0.132100  1
  H  H783  1  0.438000  0.150500  0.367900  1
  H  H784  1  0.062000  0.349500  0.867900  1
  H  H785  1  0.632000  0.878900  0.640100  1
  H  H786  1  0.868000  0.621100  0.140100  1
  H  H787  1  0.368000  0.121100  0.359900  1
  H  H788  1  0.132000  0.378900  0.859900  1
  H  H789  1  0.160800  0.928900  0.962500  1
  H  H790  1  0.339200  0.571100  0.462500  1
  H  H791  1  0.839200  0.071100  0.037500  1
  H  H792  1  0.660800  0.428900  0.537500  1
  H  H793  1  0.233600  0.929300  0.981200  1
  H  H794  1  0.266400  0.570700  0.481200  1
  H  H795  1  0.766400  0.070700  0.018800  1
  H  H796  1  0.733600  0.429300  0.518800  1
  H  H797  1  0.194600  0.892000  0.961900  1
  H  H798  1  0.305400  0.608000  0.461900  1
  H  H799  1  0.805400  0.108000  0.038100  1
  H  H800  1  0.694600  0.392000  0.538100  1
  H  H801  1  0.817800  0.467400  0.717700  1
  H  H802  1  0.682200  0.032600  0.217700  1
  H  H803  1  0.182200  0.532600  0.282300  1
  H  H804  1  0.317800  0.967400  0.782300  1
  H  H805  1  0.770900  0.474400  0.750200  1
  H  H806  1  0.729100  0.025600  0.250200  1
  H  H807  1  0.229100  0.525600  0.249800  1
  H  H808  1  0.270900  0.974400  0.749800  1
  H  H809  1  0.824100  0.508900  0.733600  1
  H  H810  1  0.675900  0.991100  0.233600  1
  H  H811  1  0.175900  0.491100  0.266400  1
  H  H812  1  0.324100  0.008900  0.766400  1
  H  H813  1  0.194900  0.132000  0.079300  1
  H  H814  1  0.305100  0.368000  0.579300  1
  H  H815  1  0.805100  0.868000  0.920700  1
  H  H816  1  0.694900  0.632000  0.420700  1
  H  H817  1  0.177300  0.173400  0.081300  1
  H  H818  1  0.322700  0.326600  0.581300  1
  H  H819  1  0.822700  0.826600  0.918700  1
  H  H820  1  0.677300  0.673400  0.418700  1
  H  H821  1  0.213200  0.156900  0.113700  1
  H  H822  1  0.286800  0.343100  0.613700  1
  H  H823  1  0.786800  0.843100  0.886300  1
  H  H824  1  0.713200  0.656900  0.386300  1
  H  H825  1  0.721700  0.514700  0.657500  1
  H  H826  1  0.778300  0.985300  0.157500  1
  H  H827  1  0.278300  0.485300  0.342500  1
  H  H828  1  0.221700  0.014700  0.842500  1
  H  H829  1  0.785700  0.493300  0.656200  1
  H  H830  1  0.714300  0.006700  0.156200  1
  H  H831  1  0.214300  0.506700  0.343800  1
  H  H832  1  0.285700  0.993300  0.843800  1
  H  H833  1  0.795100  0.534300  0.673300  1
  H  H834  1  0.704900  0.965700  0.173300  1
  H  H835  1  0.204900  0.465700  0.326700  1
  H  H836  1  0.295100  0.034300  0.826700  1
  H  H837  1  0.302300  0.123900  0.093600  1
  H  H838  1  0.197700  0.376100  0.593600  1
  H  H839  1  0.697700  0.876100  0.906400  1
  H  H840  1  0.802300  0.623900  0.406400  1
  H  H841  1  0.326100  0.158900  0.119300  1
  H  H842  1  0.173900  0.341100  0.619300  1
  H  H843  1  0.673900  0.841100  0.880700  1
  H  H844  1  0.826100  0.658900  0.380700  1
  H  H845  1  0.372300  0.153600  0.086000  1
  H  H846  1  0.127700  0.346400  0.586000  1
  H  H847  1  0.627700  0.846400  0.914000  1
  H  H848  1  0.872300  0.653600  0.414000  1
  H  H849  1  0.545800  0.837400  0.688100  1
  H  H850  1  0.954200  0.662600  0.188100  1
  H  H851  1  0.454200  0.162600  0.311900  1
  H  H852  1  0.045800  0.337400  0.811900  1
  H  H853  1  0.559700  0.867500  0.719100  1
  H  H854  1  0.940300  0.632500  0.219100  1
  H  H855  1  0.440300  0.132500  0.280900  1
  H  H856  1  0.059700  0.367500  0.780900  1
  H  H857  1  0.619700  0.864800  0.691600  1
  H  H858  1  0.880300  0.635200  0.191600  1
  H  H859  1  0.380300  0.135200  0.308400  1
  H  H860  1  0.119700  0.364800  0.808400  1
  H  H861  1  0.307000  0.230100  0.066200  1
  H  H862  1  0.193000  0.269900  0.566200  1
  H  H863  1  0.693000  0.769900  0.933800  1
  H  H864  1  0.807000  0.730100  0.433800  1
  H  H865  1  0.373300  0.210900  0.071000  1
  H  H866  1  0.126700  0.289100  0.571000  1
  H  H867  1  0.626700  0.789100  0.929000  1
  H  H868  1  0.873300  0.710900  0.429000  1
  H  H869  1  0.326600  0.216600  0.104000  1
  H  H870  1  0.173400  0.283400  0.604000  1
  H  H871  1  0.673400  0.783400  0.896000  1
  H  H872  1  0.826600  0.716600  0.396000  1
  H  H873  1  0.893800  0.520600  0.918000  1
  H  H874  1  0.606200  0.979400  0.418000  1
  H  H875  1  0.106200  0.479400  0.082000  1
  H  H876  1  0.393800  0.020600  0.582000  1
  H  H877  1  0.843700  0.487000  0.937600  1
  H  H878  1  0.656300  0.013000  0.437600  1
  H  H879  1  0.156300  0.513000  0.062400  1
  H  H880  1  0.343700  0.987000  0.562400  1
  H  H881  1  0.854100  0.485100  0.896400  1
  H  H882  1  0.645900  0.014900  0.396400  1
  H  H883  1  0.145900  0.514900  0.103600  1
  H  H884  1  0.354100  0.985100  0.603600  1
  C  C885  1  0.767200  0.173610  0.891970  1
  C  C886  1  0.732800  0.326390  0.391970  1
  C  C887  1  0.232800  0.826390  0.108030  1
  C  C888  1  0.267200  0.673610  0.608030  1
  C  C889  1  0.763100  0.350850  0.920200  1
  C  C890  1  0.736900  0.149150  0.420200  1
  C  C891  1  0.236900  0.649150  0.079800  1
  C  C892  1  0.263100  0.850850  0.579800  1
  C  C893  1  0.802700  0.215650  0.951350  1
  C  C894  1  0.697300  0.284350  0.451350  1
  C  C895  1  0.197300  0.784350  0.048650  1
  C  C896  1  0.302700  0.715650  0.548650  1
  C  C897  1  0.788200  0.211330  0.892060  1
  C  C898  1  0.711800  0.288670  0.392060  1
  C  C899  1  0.211800  0.788670  0.107940  1
  C  C900  1  0.288200  0.711330  0.607940  1
  C  C901  1  0.785300  0.179460  0.803100  1
  C  C902  1  0.714700  0.320540  0.303100  1
  C  C903  1  0.214700  0.820540  0.196900  1
  C  C904  1  0.285300  0.679460  0.696900  1
  C  C905  1  0.633200  0.305310  0.918440  1
  C  C906  1  0.866800  0.194690  0.418440  1
  C  C907  1  0.366800  0.694690  0.081560  1
  C  C908  1  0.133200  0.805310  0.581560  1
  C  C909  1  0.354700  0.233010  0.794100  1
  C  C910  1  0.145300  0.266990  0.294100  1
  C  C911  1  0.645300  0.766990  0.205900  1
  C  C912  1  0.854700  0.733010  0.705900  1
  C  C913  1  0.365300  0.235210  0.884120  1
  C  C914  1  0.134700  0.264790  0.384120  1
  C  C915  1  0.634700  0.764790  0.115880  1
  C  C916  1  0.865300  0.735210  0.615880  1
  C  C917  1  0.835300  0.373160  0.922690  1
  C  C918  1  0.664700  0.126840  0.422690  1
  C  C919  1  0.164700  0.626840  0.077310  1
  C  C920  1  0.335300  0.873160  0.577310  1
  C  C921  1  0.650700  0.275210  0.695120  1
  C  C922  1  0.849300  0.224790  0.195120  1
  C  C923  1  0.349300  0.724790  0.304880  1
  C  C924  1  0.150700  0.775210  0.804880  1
  C  C925  1  0.750300  0.150020  0.859720  1
  C  C926  1  0.749700  0.349980  0.359720  1
  C  C927  1  0.249700  0.849980  0.140280  1
  C  C928  1  0.250300  0.650020  0.640280  1
  C  C929  1  0.371000  0.252740  0.917140  1
  C  C930  1  0.129000  0.247260  0.417140  1
  C  C931  1  0.629000  0.747260  0.082860  1
  C  C932  1  0.871000  0.752740  0.582860  1
  C  C933  1  0.214100  0.119150  0.844690  1
  C  C934  1  0.285900  0.380850  0.344690  1
  C  C935  1  0.785900  0.880850  0.155310  1
  C  C936  1  0.714100  0.619150  0.655310  1
  C  C937  1  0.753300  0.134900  0.658920  1
  C  C938  1  0.746700  0.365100  0.158920  1
  C  C939  1  0.246700  0.865100  0.341080  1
  C  C940  1  0.253300  0.634900  0.841080  1
  C  C941  1  0.694300  0.291270  0.920750  1
  C  C942  1  0.805700  0.208730  0.420750  1
  C  C943  1  0.305700  0.708730  0.079250  1
  C  C944  1  0.194300  0.791270  0.579250  1
  C  C945  1  0.326300  0.110420  0.835420  1
  C  C946  1  0.173700  0.389580  0.335420  1
  C  C947  1  0.673700  0.889580  0.164580  1
  C  C948  1  0.826300  0.610420  0.664580  1
  C  C949  1  0.556100  0.093600  0.692270  1
  C  C950  1  0.943900  0.406400  0.192270  1
  C  C951  1  0.443900  0.906400  0.307730  1
  C  C952  1  0.056100  0.593600  0.807730  1
  C  C953  1  0.326500  0.192450  0.943220  1
  C  C954  1  0.173500  0.307550  0.443220  1
  C  C955  1  0.673500  0.807550  0.056780  1
  C  C956  1  0.826500  0.692450  0.556780  1
  C  C957  1  0.917400  0.282260  0.852400  1
  C  C958  1  0.582600  0.217740  0.352400  1
  C  C959  1  0.082600  0.717740  0.147600  1
  C  C960  1  0.417400  0.782260  0.647600  1
  C  C961  1  0.444200  0.125730  0.913830  1
  C  C962  1  0.055800  0.374270  0.413830  1
  C  C963  1  0.555800  0.874270  0.086170  1
  C  C964  1  0.944200  0.625730  0.586170  1
  C  C965  1  0.970200  0.275750  0.878060  1
  C  C966  1  0.529800  0.224250  0.378060  1
  C  C967  1  0.029800  0.724250  0.121940  1
  C  C968  1  0.470200  0.775750  0.621940  1
  C  C969  1  0.158100  0.120250  0.870310  1
  C  C970  1  0.341900  0.379750  0.370310  1
  C  C971  1  0.841900  0.879750  0.129690  1
  C  C972  1  0.658100  0.620250  0.629690  1
  C  C973  1  0.320100  0.113840  0.800420  1
  C  C974  1  0.179900  0.386160  0.300420  1
  C  C975  1  0.679900  0.886160  0.199580  1
  C  C976  1  0.820100  0.613840  0.699580  1
  C  C977  1  0.589000  0.288670  0.695350  1
  C  C978  1  0.911000  0.211330  0.195350  1
  C  C979  1  0.411000  0.711330  0.304650  1
  C  C980  1  0.089000  0.788670  0.804650  1
  C  C981  1  0.474900  0.084340  0.802280  1
  C  C982  1  0.025100  0.415660  0.302280  1
  C  C983  1  0.525100  0.915660  0.197720  1
  C  C984  1  0.974900  0.584340  0.697720  1
  C  C985  1  0.750400  0.054520  0.766580  1
  C  C986  1  0.749600  0.445480  0.266580  1
  C  C987  1  0.249600  0.945480  0.233420  1
  C  C988  1  0.250400  0.554520  0.733420  1
  C  C989  1  0.339400  0.197370  0.883100  1
  C  C990  1  0.160600  0.302630  0.383100  1
  C  C991  1  0.660600  0.802630  0.116900  1
  C  C992  1  0.839400  0.697370  0.616900  1
  C  C993  1  0.258300  0.120300  0.786730  1
  C  C994  1  0.241700  0.379700  0.286730  1
  C  C995  1  0.741700  0.879700  0.213270  1
  C  C996  1  0.758300  0.620300  0.713270  1
  C  C997  1  0.644000  0.350550  0.692820  1
  C  C998  1  0.856000  0.149450  0.192820  1
  C  C999  1  0.356000  0.649450  0.307180  1
  C  C1000  1  0.144000  0.850550  0.807180  1
  C  C1001  1  0.380400  0.381310  0.722050  1
  C  C1002  1  0.119600  0.118690  0.222050  1
  C  C1003  1  0.619600  0.618690  0.277950  1
  C  C1004  1  0.880400  0.881310  0.777950  1
  C  C1005  1  0.807600  0.208260  0.745580  1
  C  C1006  1  0.692400  0.291740  0.245580  1
  C  C1007  1  0.192400  0.791740  0.254420  1
  C  C1008  1  0.307600  0.708260  0.754420  1
  C  C1009  1  0.764500  0.155500  0.925190  1
  C  C1010  1  0.735500  0.344500  0.425190  1
  C  C1011  1  0.235500  0.844500  0.074810  1
  C  C1012  1  0.264500  0.655500  0.574810  1
  C  C1013  1  0.385900  0.063340  0.919520  1
  C  C1014  1  0.114100  0.436660  0.419520  1
  C  C1015  1  0.614100  0.936660  0.080480  1
  C  C1016  1  0.885900  0.563340  0.580480  1
  C  C1017  1  0.639400  0.066780  0.772490  1
  C  C1018  1  0.860600  0.433220  0.272490  1
  C  C1019  1  0.360600  0.933220  0.227510  1
  C  C1020  1  0.139400  0.566780  0.727510  1
  C  C1021  1  0.749800  0.146860  0.717460  1
  C  C1022  1  0.750200  0.353140  0.217460  1
  C  C1023  1  0.250200  0.853140  0.282540  1
  C  C1024  1  0.249800  0.646860  0.782540  1
  C  C1025  1  0.640100  0.062970  0.808280  1
  C  C1026  1  0.859900  0.437030  0.308280  1
  C  C1027  1  0.359900  0.937030  0.191720  1
  C  C1028  1  0.140100  0.562970  0.691720  1
  C  C1029  1  0.038000  0.121200  0.886310  1
  C  C1030  1  0.462000  0.378800  0.386310  1
  C  C1031  1  0.962000  0.878800  0.113690  1
  C  C1032  1  0.538000  0.621200  0.613690  1
  C  C1033  1  0.373100  0.232460  0.704240  1
  C  C1034  1  0.126900  0.267540  0.204240  1
  C  C1035  1  0.626900  0.767540  0.295760  1
  C  C1036  1  0.873100  0.732460  0.795760  1
  C  C1037  1  0.090900  0.122820  0.861250  1
  C  C1038  1  0.409100  0.377180  0.361250  1
  C  C1039  1  0.909100  0.877180  0.138750  1
  C  C1040  1  0.590900  0.622820  0.638750  1
  C  C1041  1  0.851000  0.412230  0.920820  1
  C  C1042  1  0.649000  0.087770  0.420820  1
  C  C1043  1  0.149000  0.587770  0.079180  1
  C  C1044  1  0.351000  0.912230  0.579180  1
  C  C1045  1  0.507000  0.116100  0.916810  1
  C  C1046  1  0.993000  0.383900  0.416810  1
  C  C1047  1  0.493000  0.883900  0.083190  1
  C  C1048  1  0.007000  0.616100  0.583190  1
  C  C1049  1  0.665500  0.331100  0.807980  1
  C  C1050  1  0.834500  0.168900  0.307980  1
  C  C1051  1  0.334500  0.668900  0.192020  1
  C  C1052  1  0.165500  0.831100  0.692020  1
  C  C1053  1  0.543300  0.027800  0.692220  1
  C  C1054  1  0.956700  0.472200  0.192220  1
  C  C1055  1  0.456700  0.972200  0.307780  1
  C  C1056  1  0.043300  0.527800  0.807780  1
  C  C1057  1  0.550100  0.182700  0.687610  1
  C  C1058  1  0.949900  0.317300  0.187610  1
  C  C1059  1  0.449900  0.817300  0.312390  1
  C  C1060  1  0.050100  0.682700  0.812390  1
  C  C1061  1  0.781900  0.176280  0.953810  1
  C  C1062  1  0.718100  0.323720  0.453810  1
  C  C1063  1  0.218100  0.823720  0.046190  1
  C  C1064  1  0.281900  0.676280  0.546190  1
  C  C1065  1  0.515400  0.343920  0.768410  1
  C  C1066  1  0.984600  0.156080  0.268410  1
  C  C1067  1  0.484600  0.656080  0.231590  1
  C  C1068  1  0.015400  0.843920  0.731590  1
  C  C1069  1  0.927400  0.278690  0.816630  1
  C  C1070  1  0.572600  0.221310  0.316630  1
  C  C1071  1  0.072600  0.721310  0.183370  1
  C  C1072  1  0.427400  0.778690  0.683370  1
  C  C1073  1  0.424000  0.279480  0.648950  1
  C  C1074  1  0.076000  0.220520  0.148950  1
  C  C1075  1  0.576000  0.720520  0.351050  1
  C  C1076  1  0.924000  0.779480  0.851050  1
  C  C1077  1  0.403900  0.269610  0.707790  1
  C  C1078  1  0.096100  0.230390  0.207790  1
  C  C1079  1  0.596100  0.730390  0.292210  1
  C  C1080  1  0.903900  0.769610  0.792210  1
  C  C1081  1  0.709700  0.301600  0.693110  1
  C  C1082  1  0.790300  0.198400  0.193110  1
  C  C1083  1  0.290300  0.698400  0.306890  1
  C  C1084  1  0.209700  0.801600  0.806890  1
  C  C1085  1  0.824300  0.240250  0.981920  1
  C  C1086  1  0.675700  0.259750  0.481920  1
  C  C1087  1  0.175700  0.759750  0.018080  1
  C  C1088  1  0.324300  0.740250  0.518080  1
  C  C1089  1  0.304700  0.167600  0.973500  1
  C  C1090  1  0.195300  0.332400  0.473500  1
  C  C1091  1  0.695300  0.832400  0.026500  1
  C  C1092  1  0.804700  0.667600  0.526500  1
  C  C1093  1  0.822100  0.301510  0.806640  1
  C  C1094  1  0.677900  0.198490  0.306640  1
  C  C1095  1  0.177900  0.698490  0.193360  1
  C  C1096  1  0.322100  0.801510  0.693360  1
  C  C1097  1  0.811100  0.193630  0.681860  1
  C  C1098  1  0.688900  0.306370  0.181860  1
  C  C1099  1  0.188900  0.806370  0.318140  1
  C  C1100  1  0.311100  0.693630  0.818140  1
  C  C1101  1  0.002300  0.279450  0.935770  1
  C  C1102  1  0.497700  0.220550  0.435770  1
  C  C1103  1  0.997700  0.720550  0.064230  1
  C  C1104  1  0.502300  0.779450  0.564230  1
  C  C1105  1  0.793700  0.169730  0.653370  1
  C  C1106  1  0.706300  0.330270  0.153370  1
  C  C1107  1  0.206300  0.830270  0.346630  1
  C  C1108  1  0.293700  0.669730  0.846630  1
  C  C1109  1  0.318200  0.037690  0.921700  1
  C  C1110  1  0.181800  0.462310  0.421700  1
  C  C1111  1  0.681800  0.962310  0.078300  1
  C  C1112  1  0.818200  0.537690  0.578300  1
  C  C1113  1  0.452200  0.306330  0.621250  1
  C  C1114  1  0.047800  0.193670  0.121250  1
  C  C1115  1  0.547800  0.693670  0.378750  1
  C  C1116  1  0.952200  0.806330  0.878750  1
  C  C1117  1  0.814300  0.302450  0.842730  1
  C  C1118  1  0.685700  0.197550  0.342730  1
  C  C1119  1  0.185700  0.697550  0.157270  1
  C  C1120  1  0.314300  0.802450  0.657270  1
  C  C1121  1  0.563700  0.279300  0.919010  1
  C  C1122  1  0.936300  0.220700  0.419010  1
  C  C1123  1  0.436300  0.720700  0.080990  1
  C  C1124  1  0.063700  0.779300  0.580990  1
  C  C1125  1  0.754800  0.050290  0.802760  1
  C  C1126  1  0.745200  0.449710  0.302760  1
  C  C1127  1  0.245200  0.949710  0.197240  1
  C  C1128  1  0.254800  0.550290  0.697240  1
  C  C1129  1  0.808700  0.049380  0.742150  1
  C  C1130  1  0.691300  0.450620  0.242150  1
  C  C1131  1  0.191300  0.950620  0.257850  1
  C  C1132  1  0.308700  0.549380  0.757850  1
  C  C1133  1  0.205100  0.124600  0.809090  1
  C  C1134  1  0.294900  0.375400  0.309090  1
  C  C1135  1  0.794900  0.875400  0.190910  1
  C  C1136  1  0.705100  0.624600  0.690910  1
  C  C1137  1  0.351700  0.230700  0.946630  1
  C  C1138  1  0.148300  0.269300  0.446630  1
  C  C1139  1  0.648300  0.769300  0.053370  1
  C  C1140  1  0.851700  0.730700  0.553370  1
  C  C1141  1  0.383100  0.258620  0.851320  1
  C  C1142  1  0.116900  0.241380  0.351320  1
  C  C1143  1  0.616900  0.741380  0.148680  1
  C  C1144  1  0.883100  0.758620  0.648680  1
  C  C1145  1  0.692300  0.420300  0.698700  1
  C  C1146  1  0.807700  0.079700  0.198700  1
  C  C1147  1  0.307700  0.579700  0.301300  1
  C  C1148  1  0.192300  0.920300  0.801300  1
  C  C1149  1  0.367800  0.219300  0.669470  1
  C  C1150  1  0.132200  0.280700  0.169470  1
  C  C1151  1  0.632200  0.780700  0.330530  1
  C  C1152  1  0.867800  0.719300  0.830530  1
  C  C1153  1  0.919000  0.431680  0.925350  1
  C  C1154  1  0.581000  0.068320  0.425350  1
  C  C1155  1  0.081000  0.568320  0.074650  1
  C  C1156  1  0.419000  0.931680  0.574650  1
  C  C1157  1  0.788100  0.181610  0.714040  1
  C  C1158  1  0.711900  0.318390  0.214040  1
  C  C1159  1  0.211900  0.818390  0.285960  1
  C  C1160  1  0.288100  0.681610  0.785960  1
  C  C1161  1  0.878800  0.288530  0.793540  1
  C  C1162  1  0.621200  0.211470  0.293540  1
  C  C1163  1  0.121200  0.711470  0.206460  1
  C  C1164  1  0.378800  0.788530  0.706460  1
  C  C1165  1  0.733200  0.106160  0.630050  1
  C  C1166  1  0.766800  0.393840  0.130050  1
  C  C1167  1  0.266800  0.893840  0.369950  1
  C  C1168  1  0.233200  0.606160  0.869950  1
  C  C1169  1  0.421100  0.369850  0.751900  1
  C  C1170  1  0.078900  0.130150  0.251900  1
  C  C1171  1  0.578900  0.630150  0.248100  1
  C  C1172  1  0.921100  0.869850  0.748100  1
  C  C1173  1  0.638400  0.344430  0.917510  1
  C  C1174  1  0.861600  0.155570  0.417510  1
  C  C1175  1  0.361600  0.655570  0.082490  1
  C  C1176  1  0.138400  0.844430  0.582490  1
  C  C1177  1  0.065000  0.269750  0.928250  1
  C  C1178  1  0.435000  0.230250  0.428250  1
  C  C1179  1  0.935000  0.730250  0.071750  1
  C  C1180  1  0.565000  0.769750  0.571750  1
  C  C1181  1  0.935300  0.474110  0.923800  1
  C  C1182  1  0.564700  0.025890  0.423800  1
  C  C1183  1  0.064700  0.525890  0.076200  1
  C  C1184  1  0.435300  0.974110  0.576200  1
  C  C1185  1  0.508800  0.078400  0.920300  1
  C  C1186  1  0.991200  0.421600  0.420300  1
  C  C1187  1  0.491200  0.921600  0.079700  1
  C  C1188  1  0.008800  0.578400  0.579700  1
  C  C1189  1  0.948800  0.371760  0.932450  1
  C  C1190  1  0.551200  0.128240  0.432450  1
  C  C1191  1  0.051200  0.628240  0.067550  1
  C  C1192  1  0.448800  0.871760  0.567550  1
  C  C1193  1  0.124900  0.114960  0.927810  1
  C  C1194  1  0.375100  0.385040  0.427810  1
  C  C1195  1  0.875100  0.885040  0.072190  1
  C  C1196  1  0.624900  0.614960  0.572190  1
  C  C1197  1  0.379100  0.107500  0.775700  1
  C  C1198  1  0.120900  0.392500  0.275700  1
  C  C1199  1  0.620900  0.892500  0.224300  1
  C  C1200  1  0.879100  0.607500  0.724300  1
  C  C1201  1  0.688800  0.045050  0.615020  1
  C  C1202  1  0.811200  0.454950  0.115020  1
  C  C1203  1  0.311200  0.954950  0.384980  1
  C  C1204  1  0.188800  0.545050  0.884980  1
  C  C1205  1  0.705400  0.367320  0.918090  1
  C  C1206  1  0.794600  0.132680  0.418090  1
  C  C1207  1  0.294600  0.632680  0.081910  1
  C  C1208  1  0.205400  0.867320  0.581910  1
  C  C1209  1  0.081000  0.262110  0.893880  1
  C  C1210  1  0.419000  0.237890  0.393880  1
  C  C1211  1  0.919000  0.737890  0.106120  1
  C  C1212  1  0.581000  0.762110  0.606120  1
  C  C1213  1  0.637200  0.391150  0.692600  1
  C  C1214  1  0.862800  0.108850  0.192600  1
  C  C1215  1  0.362800  0.608850  0.307400  1
  C  C1216  1  0.137200  0.891150  0.807400  1
  C  C1217  1  0.741100  0.116660  0.595330  1
  C  C1218  1  0.758900  0.383340  0.095330  1
  C  C1219  1  0.258900  0.883340  0.404670  1
  C  C1220  1  0.241100  0.616660  0.904670  1
  C  C1221  1  0.506900  0.350880  0.802980  1
  C  C1222  1  0.993100  0.149120  0.302980  1
  C  C1223  1  0.493100  0.649120  0.197020  1
  C  C1224  1  0.006900  0.850880  0.697020  1
  C  C1225  1  0.058400  0.116870  0.919660  1
  C  C1226  1  0.441600  0.383130  0.419660  1
  C  C1227  1  0.941600  0.883130  0.080340  1
  C  C1228  1  0.558400  0.616870  0.580340  1
  C  C1229  1  0.260900  0.106900  0.993600  1
  C  C1230  1  0.239100  0.393100  0.493600  1
  C  C1231  1  0.739100  0.893100  0.006400  1
  C  C1232  1  0.760900  0.606900  0.506400  1
  C  C1233  1  0.031500  0.265180  0.869430  1
  C  C1234  1  0.468500  0.234820  0.369430  1
  C  C1235  1  0.968500  0.734820  0.130570  1
  C  C1236  1  0.531500  0.765180  0.630570  1
  C  C1237  1  0.708900  0.339000  0.692470  1
  C  C1238  1  0.791100  0.161000  0.192470  1
  C  C1239  1  0.291100  0.661000  0.307530  1
  C  C1240  1  0.208900  0.839000  0.807530  1
  C  C1241  1  0.818900  0.227770  0.015950  1
  C  C1242  1  0.681100  0.272230  0.515950  1
  C  C1243  1  0.181100  0.772230  0.984050  1
  C  C1244  1  0.318900  0.727770  0.484050  1
  C  C1245  1  0.869800  0.288010  0.035480  1
  C  C1246  1  0.630200  0.211990  0.535480  1
  C  C1247  1  0.130200  0.711990  0.964520  1
  C  C1248  1  0.369800  0.788010  0.464520  1
  C  C1249  1  0.564700  0.211900  0.920570  1
  C  C1250  1  0.935300  0.288100  0.420570  1
  C  C1251  1  0.435300  0.788100  0.079430  1
  C  C1252  1  0.064700  0.711900  0.579430  1
  C  C1253  1  0.873600  0.299690  0.001450  1
  C  C1254  1  0.626400  0.200310  0.501450  1
  C  C1255  1  0.126400  0.700310  0.998550  1
  C  C1256  1  0.373600  0.799690  0.498550  1
  C  C1257  1  0.684300  0.457800  0.696600  1
  C  C1258  1  0.815700  0.042200  0.196600  1
  C  C1259  1  0.315700  0.542200  0.303400  1
  C  C1260  1  0.184300  0.957800  0.803400  1
  C  C1261  1  0.247100  0.975500  0.925300  1
  C  C1262  1  0.252900  0.524500  0.425300  1
  C  C1263  1  0.752900  0.024500  0.074700  1
  C  C1264  1  0.747100  0.475500  0.574700  1
  C  C1265  1  0.842900  0.049100  0.685610  1
  C  C1266  1  0.657100  0.450900  0.185610  1
  C  C1267  1  0.157100  0.950900  0.314390  1
  C  C1268  1  0.342900  0.549100  0.814390  1
  C  C1269  1  0.151000  0.251200  0.885710  1
  C  C1270  1  0.349000  0.248800  0.385710  1
  C  C1271  1  0.849000  0.748800  0.114290  1
  C  C1272  1  0.651000  0.751200  0.614290  1
  C  C1273  1  0.695600  0.053200  0.580370  1
  C  C1274  1  0.804400  0.446800  0.080370  1
  C  C1275  1  0.304400  0.946800  0.419630  1
  C  C1276  1  0.195600  0.553200  0.919630  1
  C  C1277  1  0.312200  0.998700  0.921900  1
  C  C1278  1  0.187800  0.501300  0.421900  1
  C  C1279  1  0.687800  0.001300  0.078100  1
  C  C1280  1  0.812200  0.498700  0.578100  1
  C  C1281  1  0.907200  0.040400  0.695160  1
  C  C1282  1  0.592800  0.459600  0.195160  1
  C  C1283  1  0.092800  0.959600  0.304840  1
  C  C1284  1  0.407200  0.540400  0.804840  1
  C  C1285  1  0.319800  0.393360  0.727010  1
  C  C1286  1  0.180200  0.106640  0.227010  1
  C  C1287  1  0.680200  0.606640  0.272990  1
  C  C1288  1  0.819800  0.893360  0.772990  1
  C  C1289  1  0.200700  0.031800  0.923800  1
  C  C1290  1  0.299300  0.468200  0.423800  1
  C  C1291  1  0.799300  0.968200  0.076200  1
  C  C1292  1  0.700700  0.531800  0.576200  1
  C  C1293  1  0.509900  0.366450  0.608780  1
  C  C1294  1  0.990100  0.133550  0.108780  1
  C  C1295  1  0.490100  0.633550  0.391220  1
  C  C1296  1  0.009900  0.866450  0.891220  1
  C  C1297  1  0.447200  0.052700  0.921300  1
  C  C1298  1  0.052800  0.447300  0.421300  1
  C  C1299  1  0.552800  0.947300  0.078700  1
  C  C1300  1  0.947200  0.552700  0.578700  1
  C  C1301  1  0.580500  0.996280  0.689860  1
  C  C1302  1  0.919500  0.503720  0.189860  1
  C  C1303  1  0.419500  0.003720  0.310140  1
  C  C1304  1  0.080500  0.496280  0.810140  1
  C  C1305  1  0.444800  0.056200  0.690580  1
  C  C1306  1  0.055200  0.443800  0.190580  1
  C  C1307  1  0.555200  0.943800  0.309420  1
  C  C1308  1  0.944800  0.556200  0.809420  1
  C  C1309  1  0.374300  0.390270  0.662920  1
  C  C1310  1  0.125700  0.109730  0.162920  1
  C  C1311  1  0.625700  0.609730  0.337080  1
  C  C1312  1  0.874300  0.890270  0.837080  1
  C  C1313  1  0.769600  0.313800  0.782570  1
  C  C1314  1  0.730400  0.186200  0.282570  1
  C  C1315  1  0.230400  0.686200  0.217430  1
  C  C1316  1  0.269600  0.813800  0.717430  1
  C  C1317  1  0.486000  0.092090  0.690540  1
  C  C1318  1  0.014000  0.407910  0.190540  1
  C  C1319  1  0.514000  0.907910  0.309460  1
  C  C1320  1  0.986000  0.592090  0.809460  1
  C  C1321  1  0.651500  0.234400  0.696130  1
  C  C1322  1  0.848500  0.265600  0.196130  1
  C  C1323  1  0.348500  0.765600  0.303870  1
  C  C1324  1  0.151500  0.734400  0.803870  1
  C  C1325  1  0.475600  0.324200  0.561190  1
  C  C1326  1  0.024400  0.175800  0.061190  1
  C  C1327  1  0.524400  0.675800  0.438810  1
  C  C1328  1  0.975600  0.824200  0.938810  1
  C  C1329  1  0.305900  0.181400  0.007430  1
  C  C1330  1  0.194100  0.318600  0.507430  1
  C  C1331  1  0.694100  0.818600  0.992570  1
  C  C1332  1  0.805900  0.681400  0.492570  1
  C  C1333  1  0.447000  0.297740  0.585570  1
  C  C1334  1  0.053000  0.202260  0.085570  1
  C  C1335  1  0.553000  0.702260  0.414430  1
  C  C1336  1  0.947000  0.797740  0.914430  1
  C  C1337  1  0.262200  0.121400  0.027200  1
  C  C1338  1  0.237800  0.378600  0.527200  1
  C  C1339  1  0.737800  0.878600  0.972800  1
  C  C1340  1  0.762200  0.621400  0.472800  1
  C  C1341  1  0.965500  0.125220  0.875950  1
  C  C1342  1  0.534500  0.374780  0.375950  1
  C  C1343  1  0.034500  0.874780  0.124050  1
  C  C1344  1  0.465500  0.625220  0.624050  1
  C  C1345  1  0.555400  0.342900  0.831200  1
  C  C1346  1  0.944600  0.157100  0.331200  1
  C  C1347  1  0.444600  0.657100  0.168800  1
  C  C1348  1  0.055400  0.842900  0.668800  1
  C  C1349  1  0.474300  0.025200  0.691400  1
  C  C1350  1  0.025700  0.474800  0.191400  1
  C  C1351  1  0.525700  0.974800  0.308600  1
  C  C1352  1  0.974300  0.525200  0.808600  1
  C  C1353  1  0.284000  0.406050  0.698750  1
  C  C1354  1  0.216000  0.093950  0.198750  1
  C  C1355  1  0.716000  0.593950  0.301250  1
  C  C1356  1  0.784000  0.906050  0.801250  1
  C  C1357  1  0.192700  0.992700  0.928300  1
  C  C1358  1  0.307300  0.507300  0.428300  1
  C  C1359  1  0.807300  0.007300  0.071700  1
  C  C1360  1  0.692700  0.492700  0.571700  1
  C  C1361  1  0.457300  0.127300  0.686840  1
  C  C1362  1  0.042700  0.372700  0.186840  1
  C  C1363  1  0.542700  0.872700  0.313160  1
  C  C1364  1  0.957300  0.627300  0.813160  1
  C  C1365  1  0.868600  0.040600  0.753290  1
  C  C1366  1  0.631400  0.459400  0.253290  1
  C  C1367  1  0.131400  0.959400  0.246710  1
  C  C1368  1  0.368600  0.540600  0.746710  1
  C  C1369  1  0.840800  0.250900  0.043530  1
  C  C1370  1  0.659200  0.249100  0.543530  1
  C  C1371  1  0.159200  0.749100  0.956470  1
  C  C1372  1  0.340800  0.750900  0.456470  1
  C  C1373  1  0.968000  0.410290  0.932240  1
  C  C1374  1  0.532000  0.089710  0.432240  1
  C  C1375  1  0.032000  0.589710  0.067760  1
  C  C1376  1  0.468000  0.910290  0.567760  1
  C  C1377  1  0.653500  0.939400  0.680400  1
  C  C1378  1  0.846500  0.560600  0.180400  1
  C  C1379  1  0.346500  0.060600  0.319600  1
  C  C1380  1  0.153500  0.439400  0.819600  1
  C  C1381  1  0.574200  0.145870  0.916850  1
  C  C1382  1  0.925800  0.354130  0.416850  1
  C  C1383  1  0.425800  0.854130  0.083150  1
  C  C1384  1  0.074200  0.645870  0.583150  1
  C  C1385  1  0.685100  0.976300  0.685500  1
  C  C1386  1  0.814900  0.523700  0.185500  1
  C  C1387  1  0.314900  0.023700  0.314500  1
  C  C1388  1  0.185100  0.476300  0.814500  1
  C  C1389  1  0.313900  0.404330  0.666790  1
  C  C1390  1  0.186100  0.095670  0.166790  1
  C  C1391  1  0.686100  0.595670  0.333210  1
  C  C1392  1  0.813900  0.904330  0.833210  1
  C  C1393  1  0.698800  0.055000  0.822810  1
  C  C1394  1  0.801200  0.445000  0.322810  1
  C  C1395  1  0.301200  0.945000  0.177190  1
  C  C1396  1  0.198800  0.555000  0.677190  1
  C  C1397  1  0.564700  0.432340  0.682940  1
  C  C1398  1  0.935300  0.067660  0.182940  1
  C  C1399  1  0.435300  0.567660  0.317060  1
  C  C1400  1  0.064700  0.932340  0.817060  1
  C  C1401  1  0.577800  0.067510  0.830290  1
  C  C1402  1  0.922200  0.432490  0.330290  1
  C  C1403  1  0.422200  0.932490  0.169710  1
  C  C1404  1  0.077800  0.567510  0.669710  1
  C  C1405  1  0.620500  0.462300  0.685910  1
  C  C1406  1  0.879500  0.037700  0.185910  1
  C  C1407  1  0.379500  0.537700  0.314090  1
  C  C1408  1  0.120500  0.962300  0.814090  1
  C  C1409  1  0.342500  0.208670  0.733280  1
  C  C1410  1  0.157500  0.291330  0.233280  1
  C  C1411  1  0.657500  0.791330  0.266720  1
  C  C1412  1  0.842500  0.708670  0.766720  1
  C  C1413  1  0.720500  0.090100  0.569310  1
  C  C1414  1  0.779500  0.409900  0.069310  1
  C  C1415  1  0.279500  0.909900  0.430690  1
  C  C1416  1  0.220500  0.590100  0.930690  1
  C  C1417  1  0.286600  0.158900  0.034600  1
  C  C1418  1  0.213400  0.341100  0.534600  1
  C  C1419  1  0.713400  0.841100  0.965400  1
  C  C1420  1  0.786600  0.658900  0.465400  1
  C  C1421  1  0.505300  0.359600  0.573220  1
  C  C1422  1  0.994700  0.140400  0.073220  1
  C  C1423  1  0.494700  0.640400  0.426780  1
  C  C1424  1  0.005300  0.859600  0.926780  1
  C  C1425  1  0.918700  0.036300  0.729900  1
  C  C1426  1  0.581300  0.463700  0.229900  1
  C  C1427  1  0.081300  0.963700  0.270100  1
  C  C1428  1  0.418700  0.536300  0.770100  1
  C  C1429  1  0.545600  0.958500  0.685500  1
  C  C1430  1  0.954400  0.541500  0.185500  1
  C  C1431  1  0.454400  0.041500  0.314500  1
  C  C1432  1  0.045600  0.458500  0.814500  1
  C  C1433  1  0.392100  0.242070  0.642780  1
  C  C1434  1  0.107900  0.257930  0.142780  1
  C  C1435  1  0.607900  0.757930  0.357220  1
  C  C1436  1  0.892100  0.742070  0.857220  1
  C  C1437  1  0.451100  0.367500  0.811530  1
  C  C1438  1  0.048900  0.132500  0.311530  1
  C  C1439  1  0.548900  0.632500  0.188470  1
  C  C1440  1  0.951100  0.867500  0.688470  1
  C  C1441  1  0.408200  0.377600  0.785340  1
  C  C1442  1  0.091800  0.122400  0.285340  1
  C  C1443  1  0.591800  0.622400  0.214660  1
  C  C1444  1  0.908200  0.877600  0.714660  1
  C  C1445  1  0.580300  0.929600  0.680300  1
  C  C1446  1  0.919700  0.570400  0.180300  1
  C  C1447  1  0.419700  0.070400  0.319700  1
  C  C1448  1  0.080300  0.429600  0.819700  1
  C  C1449  1  0.165700  0.221300  0.910950  1
  C  C1450  1  0.334300  0.278700  0.410950  1
  C  C1451  1  0.834300  0.778700  0.089050  1
  C  C1452  1  0.665700  0.721300  0.589050  1
  C  C1453  1  0.153400  0.235900  0.848800  1
  C  C1454  1  0.346600  0.264100  0.348800  1
  C  C1455  1  0.846600  0.764100  0.151200  1
  C  C1456  1  0.653400  0.735900  0.651200  1
  C  C1457  1  0.215800  0.419300  0.704330  1
  C  C1458  1  0.284200  0.080700  0.204330  1
  C  C1459  1  0.784200  0.580700  0.295670  1
  C  C1460  1  0.715800  0.919300  0.795670  1
  C  C1461  1  0.913500  0.108100  0.904000  1
  C  C1462  1  0.586500  0.391900  0.404000  1
  C  C1463  1  0.086500  0.891900  0.096000  1
  C  C1464  1  0.413500  0.608100  0.596000  1
  C  C1465  1  0.242400  0.933100  0.927200  1
  C  C1466  1  0.257600  0.566900  0.427200  1
  C  C1467  1  0.757600  0.066900  0.072800  1
  C  C1468  1  0.742400  0.433100  0.572800  1
  C  C1469  1  0.786400  0.262400  0.100550  1
  C  C1470  1  0.713600  0.237600  0.600550  1
  C  C1471  1  0.213600  0.737600  0.899450  1
  C  C1472  1  0.286400  0.762400  0.399450  1
  C  C1473  1  0.833800  0.238100  0.081810  1
  C  C1474  1  0.666200  0.261900  0.581810  1
  C  C1475  1  0.166200  0.761900  0.918190  1
  C  C1476  1  0.333800  0.738100  0.418190  1
  C  C1477  1  0.752800  0.139700  0.523100  1
  C  C1478  1  0.747200  0.360300  0.023100  1
  C  C1479  1  0.247200  0.860300  0.476900  1
  C  C1480  1  0.252800  0.639700  0.976900  1
  C  C1481  1  0.741400  0.492000  0.706100  1
  C  C1482  1  0.758600  0.008000  0.206100  1
  C  C1483  1  0.258600  0.508000  0.293900  1
  C  C1484  1  0.241400  0.992000  0.793900  1
  C  C1485  1  0.943900  0.107100  0.841560  1
  C  C1486  1  0.556100  0.392900  0.341560  1
  C  C1487  1  0.056100  0.892900  0.158440  1
  C  C1488  1  0.443900  0.607100  0.658440  1
  C  C1489  1  0.206200  0.287500  0.889500  1
  C  C1490  1  0.293800  0.212500  0.389500  1
  C  C1491  1  0.793800  0.712500  0.110500  1
  C  C1492  1  0.706200  0.787500  0.610500  1
  C  C1493  1  0.719500  0.099200  0.531140  1
  C  C1494  1  0.780500  0.400800  0.031140  1
  C  C1495  1  0.280500  0.900800  0.468860  1
  C  C1496  1  0.219500  0.599200  0.968860  1
  C  C1497  1  0.233300  0.453700  0.730700  1
  C  C1498  1  0.266700  0.046300  0.230700  1
  C  C1499  1  0.766700  0.546300  0.269300  1
  C  C1500  1  0.733300  0.953700  0.769300  1
  C  C1501  1  0.912200  0.250700  0.098000  1
  C  C1502  1  0.587800  0.249300  0.598000  1
  C  C1503  1  0.087800  0.749300  0.902000  1
  C  C1504  1  0.412200  0.750700  0.402000  1
  C  C1505  1  0.963400  0.166500  0.874700  1
  C  C1506  1  0.536600  0.333500  0.374700  1
  C  C1507  1  0.036600  0.833500  0.125300  1
  C  C1508  1  0.463400  0.666500  0.625300  1
  C  C1509  1  0.472800  0.315600  0.522060  1
  C  C1510  1  0.027200  0.184400  0.022060  1
  C  C1511  1  0.527200  0.684400  0.477940  1
  C  C1512  1  0.972800  0.815600  0.977940  1
  C  C1513  1  0.749900  0.072400  0.509900  1
  C  C1514  1  0.750100  0.427600  0.009900  1
  C  C1515  1  0.250100  0.927600  0.490100  1
  C  C1516  1  0.249900  0.572400  0.990100  1
  C  C1517  1  0.191100  0.434900  0.671400  1
  C  C1518  1  0.308900  0.065100  0.171400  1
  C  C1519  1  0.808900  0.565100  0.328600  1
  C  C1520  1  0.691100  0.934900  0.828600  1
  C  C1521  1  0.998100  0.488100  0.902100  1
  C  C1522  1  0.501900  0.011900  0.402100  1
  C  C1523  1  0.001900  0.511900  0.097900  1
  C  C1524  1  0.498100  0.988100  0.597900  1
  C  C1525  1  0.406900  0.325800  0.509000  1
  C  C1526  1  0.093100  0.174200  0.009000  1
  C  C1527  1  0.593100  0.674200  0.491000  1
  C  C1528  1  0.906900  0.825800  0.991000  1
  C  C1529  1  0.640400  0.094300  0.518800  1
  C  C1530  1  0.859600  0.405700  0.018800  1
  C  C1531  1  0.359600  0.905700  0.481200  1
  C  C1532  1  0.140400  0.594300  0.981200  1
  C  C1533  1  0.477200  0.277800  0.516000  1
  C  C1534  1  0.022800  0.222200  0.016000  1
  C  C1535  1  0.522800  0.722200  0.484000  1
  C  C1536  1  0.977200  0.777800  0.984000  1
  C  C1537  1  0.014300  0.045100  0.776100  1
  C  C1538  1  0.485700  0.454900  0.276100  1
  C  C1539  1  0.985700  0.954900  0.223900  1
  C  C1540  1  0.514300  0.545100  0.723900  1
  C  C1541  1  0.957200  0.489200  0.960200  1
  C  C1542  1  0.542800  0.010800  0.460200  1
  C  C1543  1  0.042800  0.510800  0.039800  1
  C  C1544  1  0.457200  0.989200  0.539800  1
  C  C1545  1  0.180300  0.915200  0.903700  1
  C  C1546  1  0.319700  0.584800  0.403700  1
  C  C1547  1  0.819700  0.084800  0.096300  1
  C  C1548  1  0.680300  0.415200  0.596300  1
  C  C1549  1  0.815300  0.196400  0.085600  1
  C  C1550  1  0.684700  0.303600  0.585600  1
  C  C1551  1  0.184700  0.803600  0.914400  1
  C  C1552  1  0.315300  0.696400  0.414400  1
  C  C1553  1  0.470400  0.885300  0.663500  1
  C  C1554  1  0.029600  0.614700  0.163500  1
  C  C1555  1  0.529600  0.114700  0.336500  1
  C  C1556  1  0.970400  0.385300  0.836500  1
  C  C1557  1  0.716900  0.519700  0.728300  1
  C  C1558  1  0.783100  0.980300  0.228300  1
  C  C1559  1  0.283100  0.480300  0.271700  1
  C  C1560  1  0.216900  0.019700  0.771700  1
  C  C1561  1  0.535700  0.337100  0.504100  1
  C  C1562  1  0.964300  0.162900  0.004100  1
  C  C1563  1  0.464300  0.662900  0.495900  1
  C  C1564  1  0.035700  0.837100  0.995900  1
  C  C1565  1  0.161200  0.388200  0.716800  1
  C  C1566  1  0.338800  0.111800  0.216800  1
  C  C1567  1  0.838800  0.611800  0.283200  1
  C  C1568  1  0.661200  0.888200  0.783200  1
  C  C1569  1  0.303100  0.918500  0.928200  1
  C  C1570  1  0.196900  0.581500  0.428200  1
  C  C1571  1  0.696900  0.081500  0.071800  1
  C  C1572  1  0.803100  0.418500  0.571800  1
  C  C1573  1  0.041600  0.030400  0.713600  1
  C  C1574  1  0.458400  0.469600  0.213600  1
  C  C1575  1  0.958400  0.969600  0.286400  1
  C  C1576  1  0.541600  0.530400  0.786400  1
  C  C1577  1  0.545800  0.890100  0.673000  1
  C  C1578  1  0.954200  0.609900  0.173000  1
  C  C1579  1  0.454200  0.109900  0.327000  1
  C  C1580  1  0.045800  0.390100  0.827000  1
  C  C1581  1  0.985100  0.022300  0.743200  1
  C  C1582  1  0.514900  0.477700  0.243200  1
  C  C1583  1  0.014900  0.977700  0.256800  1
  C  C1584  1  0.485100  0.522300  0.756800  1
  C  C1585  1  0.966400  0.982400  0.751600  1
  C  C1586  1  0.533600  0.517600  0.251600  1
  C  C1587  1  0.033600  0.017600  0.248400  1
  C  C1588  1  0.466400  0.482400  0.748400  1
  C  C1589  1  0.581900  0.876000  0.636800  1
  C  C1590  1  0.918100  0.624000  0.136800  1
  C  C1591  1  0.418100  0.124000  0.363200  1
  C  C1592  1  0.081900  0.376000  0.863200  1
  C  C1593  1  0.204400  0.919600  0.961300  1
  C  C1594  1  0.295600  0.580400  0.461300  1
  C  C1595  1  0.795600  0.080400  0.038700  1
  C  C1596  1  0.704400  0.419600  0.538700  1
  C  C1597  1  0.792200  0.485200  0.728500  1
  C  C1598  1  0.707800  0.014800  0.228500  1
  C  C1599  1  0.207800  0.514800  0.271500  1
  C  C1600  1  0.292200  0.985200  0.771500  1
  C  C1601  1  0.210400  0.157600  0.088200  1
  C  C1602  1  0.289600  0.342400  0.588200  1
  C  C1603  1  0.789600  0.842400  0.911800  1
  C  C1604  1  0.710400  0.657600  0.411800  1
  C  C1605  1  0.763000  0.510300  0.669900  1
  C  C1606  1  0.737000  0.989700  0.169900  1
  C  C1607  1  0.237000  0.489700  0.330100  1
  C  C1608  1  0.263000  0.010300  0.830100  1
  C  C1609  1  0.324800  0.150500  0.095000  1
  C  C1610  1  0.175200  0.349500  0.595000  1
  C  C1611  1  0.675200  0.849500  0.905000  1
  C  C1612  1  0.824800  0.650500  0.405000  1
  C  C1613  1  0.569600  0.862800  0.694700  1
  C  C1614  1  0.930400  0.637200  0.194700  1
  C  C1615  1  0.430400  0.137200  0.305300  1
  C  C1616  1  0.069600  0.362800  0.805300  1
  C  C1617  1  0.283600  0.174600  0.072800  1
  C  C1618  1  0.216400  0.325400  0.572800  1
  C  C1619  1  0.716400  0.825400  0.927200  1
  C  C1620  1  0.783600  0.674600  0.427200  1
  C  C1621  1  0.326000  0.210900  0.079000  1
  C  C1622  1  0.174000  0.289100  0.579000  1
  C  C1623  1  0.674000  0.789100  0.921000  1
  C  C1624  1  0.826000  0.710900  0.421000  1
  C  C1625  1  0.876900  0.493300  0.918500  1
  C  C1626  1  0.623100  0.006700  0.418500  1
  C  C1627  1  0.123100  0.506700  0.081500  1
  C  C1628  1  0.376900  0.993300  0.581500  1
  C  C1629  1  0.383000  0.342400  0.889600  1
  C  C1630  1  0.117000  0.157600  0.389600  1
  C  C1631  1  0.617000  0.657600  0.110400  1
  C  C1632  1  0.883000  0.842400  0.610400  1
  C  C1633  1  0.531700  0.102300  0.598200  1
  C  C1634  1  0.968300  0.397700  0.098200  1
  C  C1635  1  0.468300  0.897700  0.401800  1
  C  C1636  1  0.031700  0.602300  0.901800  1
  C  C1637  1  0.618100  0.436800  0.786500  1
  C  C1638  1  0.881900  0.063200  0.286500  1
  C  C1639  1  0.381900  0.563200  0.213500  1
  C  C1640  1  0.118100  0.936800  0.713500  1
  N  N1641  1  0.474500  0.353220  0.743160  1
  N  N1642  1  0.025500  0.146780  0.243160  1
  N  N1643  1  0.525500  0.646780  0.256840  1
  N  N1644  1  0.974500  0.853220  0.756840  1
  N  N1645  1  0.585600  0.325340  0.693970  1
  N  N1646  1  0.914400  0.174660  0.193970  1
  N  N1647  1  0.414400  0.674660  0.306030  1
  N  N1648  1  0.085600  0.825340  0.806030  1
  N  N1649  1  0.757200  0.313230  0.921200  1
  N  N1650  1  0.742800  0.186770  0.421200  1
  N  N1651  1  0.242800  0.686770  0.078800  1
  N  N1652  1  0.257200  0.813230  0.578800  1
  N  N1653  1  0.806000  0.232680  0.920150  1
  N  N1654  1  0.694000  0.267320  0.420150  1
  N  N1655  1  0.194000  0.767320  0.079850  1
  N  N1656  1  0.306000  0.732680  0.579850  1
  N  N1657  1  0.861200  0.293480  0.865020  1
  N  N1658  1  0.638800  0.206520  0.365020  1
  N  N1659  1  0.138800  0.706520  0.134980  1
  N  N1660  1  0.361200  0.793480  0.634980  1
  N  N1661  1  0.429700  0.292870  0.681700  1
  N  N1662  1  0.070300  0.207130  0.181700  1
  N  N1663  1  0.570300  0.707130  0.318300  1
  N  N1664  1  0.929700  0.792870  0.818300  1
  N  N1665  1  0.731900  0.123090  0.690650  1
  N  N1666  1  0.768100  0.376910  0.190650  1
  N  N1667  1  0.268100  0.876910  0.309350  1
  N  N1668  1  0.231900  0.623090  0.809350  1
  N  N1669  1  0.383900  0.100490  0.914850  1
  N  N1670  1  0.116100  0.399510  0.414850  1
  N  N1671  1  0.616100  0.899510  0.085150  1
  N  N1672  1  0.883900  0.600490  0.585150  1
  N  N1673  1  0.693100  0.062870  0.751910  1
  N  N1674  1  0.806900  0.437130  0.251910  1
  N  N1675  1  0.306900  0.937130  0.248090  1
  N  N1676  1  0.193100  0.562870  0.748090  1
  N  N1677  1  0.273500  0.113300  0.857560  1
  N  N1678  1  0.226500  0.386700  0.357560  1
  N  N1679  1  0.726500  0.886700  0.142440  1
  N  N1680  1  0.773500  0.613300  0.642440  1
  N  N1681  1  0.884300  0.352830  0.928120  1
  N  N1682  1  0.615700  0.147170  0.428120  1
  N  N1683  1  0.115700  0.647170  0.071880  1
  N  N1684  1  0.384300  0.852830  0.571880  1
  N  N1685  1  0.321400  0.175540  0.912160  1
  N  N1686  1  0.178600  0.324460  0.412160  1
  N  N1687  1  0.678600  0.824460  0.087840  1
  N  N1688  1  0.821400  0.675540  0.587840  1
  N  N1689  1  0.852700  0.276570  0.974670  1
  N  N1690  1  0.647300  0.223430  0.474670  1
  N  N1691  1  0.147300  0.723430  0.025330  1
  N  N1692  1  0.352700  0.776570  0.525330  1
  N  N1693  1  0.765400  0.198630  0.775980  1
  N  N1694  1  0.734600  0.301370  0.275980  1
  N  N1695  1  0.234600  0.801370  0.224020  1
  N  N1696  1  0.265400  0.698630  0.724020  1
  N  N1697  1  0.707700  0.071400  0.640110  1
  N  N1698  1  0.792300  0.428600  0.140110  1
  N  N1699  1  0.292300  0.928600  0.359890  1
  N  N1700  1  0.207700  0.571400  0.859890  1
  N  N1701  1  0.583700  0.063100  0.692840  1
  N  N1702  1  0.916300  0.436900  0.192840  1
  N  N1703  1  0.416300  0.936900  0.307160  1
  N  N1704  1  0.083700  0.563100  0.807160  1
  N  N1705  1  0.485500  0.341140  0.632200  1
  N  N1706  1  0.014500  0.158860  0.132200  1
  N  N1707  1  0.514500  0.658860  0.367800  1
  N  N1708  1  0.985500  0.841140  0.867800  1
  N  N1709  1  0.647800  0.004410  0.690560  1
  N  N1710  1  0.852200  0.495590  0.190560  1
  N  N1711  1  0.352200  0.995590  0.309440  1
  N  N1712  1  0.147800  0.504410  0.809440  1
  N  N1713  1  0.954800  0.282210  0.911970  1
  N  N1714  1  0.545200  0.217790  0.411970  1
  N  N1715  1  0.045200  0.717790  0.088030  1
  N  N1716  1  0.454800  0.782210  0.588030  1
  N  N1717  1  0.175400  0.116760  0.904320  1
  N  N1718  1  0.324600  0.383240  0.404320  1
  N  N1719  1  0.824600  0.883240  0.095680  1
  N  N1720  1  0.675400  0.616760  0.595680  1
  N  N1721  1  0.407600  0.378260  0.690430  1
  N  N1722  1  0.092400  0.121740  0.190430  1
  N  N1723  1  0.592400  0.621740  0.309570  1
  N  N1724  1  0.907600  0.878260  0.809570  1
  N  N1725  1  0.737700  0.171520  0.829230  1
  N  N1726  1  0.762300  0.328480  0.329230  1
  N  N1727  1  0.262300  0.828480  0.170770  1
  N  N1728  1  0.237700  0.671520  0.670770  1
  N  N1729  1  0.793500  0.053370  0.708240  1
  N  N1730  1  0.706500  0.446630  0.208240  1
  N  N1731  1  0.206500  0.946630  0.291760  1
  N  N1732  1  0.293500  0.553370  0.791760  1
  N  N1733  1  0.445900  0.112780  0.791950  1
  N  N1734  1  0.054100  0.387220  0.291950  1
  N  N1735  1  0.554100  0.887220  0.208050  1
  N  N1736  1  0.945900  0.612780  0.708050  1
  N  N1737  1  0.281800  0.131560  0.966190  1
  N  N1738  1  0.218200  0.368440  0.466190  1
  N  N1739  1  0.718200  0.868440  0.033810  1
  N  N1740  1  0.781800  0.631560  0.533810  1
  N  N1741  1  0.601400  0.317770  0.819710  1
  N  N1742  1  0.898600  0.182230  0.319710  1
  N  N1743  1  0.398600  0.682230  0.180290  1
  N  N1744  1  0.101400  0.817770  0.680290  1
  N  N1745  1  0.261800  0.053270  0.921540  1
  N  N1746  1  0.238200  0.446730  0.421540  1
  N  N1747  1  0.738200  0.946730  0.078460  1
  N  N1748  1  0.761800  0.553270  0.578460  1
  N  N1749  1  0.397500  0.237970  0.821730  1
  N  N1750  1  0.102500  0.262030  0.321730  1
  N  N1751  1  0.602500  0.762030  0.178270  1
  N  N1752  1  0.897500  0.737970  0.678270  1
  N  N1753  1  0.380300  0.216370  0.765740  1
  N  N1754  1  0.119700  0.283630  0.265740  1
  N  N1755  1  0.619700  0.783630  0.234260  1
  N  N1756  1  0.880300  0.716370  0.734260  1
  N  N1757  1  0.538800  0.094130  0.817000  1
  N  N1758  1  0.961200  0.405870  0.317000  1
  N  N1759  1  0.461200  0.905870  0.183000  1
  N  N1760  1  0.038800  0.594130  0.683000  1
  N  N1761  1  0.699700  0.304560  0.795690  1
  N  N1762  1  0.800300  0.195440  0.295690  1
  N  N1763  1  0.300300  0.695440  0.204310  1
  N  N1764  1  0.199700  0.804560  0.704310  1
  N  N1765  1  0.562200  0.244050  0.902670  1
  N  N1766  1  0.937800  0.255950  0.402670  1
  N  N1767  1  0.437800  0.755950  0.097330  1
  N  N1768  1  0.062200  0.744050  0.597330  1
  N  N1769  1  0.573500  0.397150  0.685680  1
  N  N1770  1  0.926500  0.102850  0.185680  1
  N  N1771  1  0.426500  0.602850  0.314320  1
  N  N1772  1  0.073500  0.897150  0.814320  1
  N  N1773  1  0.587900  0.209780  0.707540  1
  N  N1774  1  0.912100  0.290220  0.207540  1
  N  N1775  1  0.412100  0.790220  0.292460  1
  N  N1776  1  0.087900  0.709780  0.792460  1
  N  N1777  1  0.496400  0.160880  0.703340  1
  N  N1778  1  0.003600  0.339120  0.203340  1
  N  N1779  1  0.503600  0.839120  0.296660  1
  N  N1780  1  0.996400  0.660880  0.796660  1
  N  N1781  1  0.567800  0.180810  0.901550  1
  N  N1782  1  0.932200  0.319190  0.401550  1
  N  N1783  1  0.432200  0.819190  0.098450  1
  N  N1784  1  0.067800  0.680810  0.598450  1
  O  O1785  1  0.638500  0.227290  0.780830  1
  O  O1786  1  0.861500  0.272710  0.280830  1
  O  O1787  1  0.361500  0.772710  0.219170  1
  O  O1788  1  0.138500  0.727290  0.719170  1
  O  O1789  1  0.544990  0.238700  0.828720  1
  O  O1790  1  0.955010  0.261300  0.328720  1
  O  O1791  1  0.455010  0.761300  0.171280  1
  O  O1792  1  0.044990  0.738700  0.671280  1
  O  O1793  1  0.591490  0.173520  0.827760  1
  O  O1794  1  0.908510  0.326480  0.327760  1
  O  O1795  1  0.408510  0.826480  0.172240  1
  O  O1796  1  0.091490  0.673520  0.672240  1
  O  O1797  1  0.507900  0.190000  0.775940  1
  O  O1798  1  0.992100  0.310000  0.275940  1
  O  O1799  1  0.492100  0.810000  0.224060  1
  O  O1800  1  0.007900  0.690000  0.724060  1
  O  O1801  1  0.841300  0.169910  0.804550  1
  O  O1802  1  0.658700  0.330090  0.304550  1
  O  O1803  1  0.158700  0.830090  0.195450  1
  O  O1804  1  0.341300  0.669910  0.695450  1
  O  O1805  1  0.298300  0.242840  0.793760  1
  O  O1806  1  0.201700  0.257160  0.293760  1
  O  O1807  1  0.701700  0.757160  0.206240  1
  O  O1808  1  0.798300  0.742840  0.706240  1
  O  O1809  1  0.564600  0.210670  0.952680  1
  O  O1810  1  0.935400  0.289330  0.452680  1
  O  O1811  1  0.435400  0.789330  0.047320  1
  O  O1812  1  0.064600  0.710670  0.547320  1
  O  O1813  1  0.445900  0.050770  0.799320  1
  O  O1814  1  0.054100  0.449230  0.299320  1
  O  O1815  1  0.554100  0.949230  0.200680  1
  O  O1816  1  0.945900  0.550770  0.700680  1
  O  O1817  1  0.691800  0.365010  0.808650  1
  O  O1818  1  0.808200  0.134990  0.308650  1
  O  O1819  1  0.308200  0.634990  0.191350  1
  O  O1820  1  0.191800  0.865010  0.691350  1
  O  O1821  1  0.566700  0.178730  0.657070  1
  O  O1822  1  0.933300  0.321270  0.157070  1
  O  O1823  1  0.433300  0.821270  0.342930  1
  O  O1824  1  0.066700  0.678730  0.842930  1
  O  O1825  1  0.007250  0.002860  0.894570  1
  O  O1826  1  0.492750  0.497140  0.394570  1
  O  O1827  1  0.992750  0.997140  0.105430  1
  O  O1828  1  0.507250  0.502860  0.605430  1
  O  O1829  1  0.345080  0.502450  0.621900  1
  O  O1830  1  0.154920  0.997550  0.121900  1
  O  O1831  1  0.654920  0.497550  0.378100  1
  O  O1832  1  0.845080  0.002450  0.878100  1
  O  O1833  1  0.360600  0.502200  0.660130  1
  O  O1834  1  0.139400  0.997800  0.160130  1
  O  O1835  1  0.639400  0.497800  0.339870  1
  O  O1836  1  0.860600  0.002200  0.839870  1
  O  O1837  1  0.425080  0.365370  0.919990  1
  O  O1838  1  0.074920  0.134630  0.419990  1
  O  O1839  1  0.574920  0.634630  0.080010  1
  O  O1840  1  0.925080  0.865370  0.580010  1
  O  O1841  1  0.011600  0.046400  0.002520  1
  O  O1842  1  0.488400  0.453600  0.502520  1
  O  O1843  1  0.988400  0.953600  0.997480  1
  O  O1844  1  0.511600  0.546400  0.497480  1
  O  O1845  1  0.077800  0.160980  0.773440  1
  O  O1846  1  0.422200  0.339020  0.273440  1
  O  O1847  1  0.922200  0.839020  0.226560  1
  O  O1848  1  0.577800  0.660980  0.726560  1
  O  O1849  1  0.682800  0.063730  0.912510  1
  O  O1850  1  0.817200  0.436270  0.412510  1
  O  O1851  1  0.317200  0.936270  0.087490  1
  O  O1852  1  0.182800  0.563730  0.587490  1
  O  O1853  1  0.545400  0.143200  0.594400  1
  O  O1854  1  0.954600  0.356800  0.094400  1
  O  O1855  1  0.454600  0.856800  0.405600  1
  O  O1856  1  0.045400  0.643200  0.905600  1
  O  O1857  1  0.604800  0.441100  0.819800  1
  O  O1858  1  0.895200  0.058900  0.319800  1
  O  O1859  1  0.395200  0.558900  0.180200  1
  O  O1860  1  0.104800  0.941100  0.680200  1
  O  O1861  1  0.668300  0.230900  0.995100  1
  O  O1862  1  0.831700  0.269100  0.495100  1
  O  O1863  1  0.331700  0.769100  0.004900  1
  O  O1864  1  0.168300  0.730900  0.504900  1
  O  O1865  1  0.268600  0.112900  0.697100  1
  O  O1866  1  0.231400  0.387100  0.197100  1
  O  O1867  1  0.731400  0.887100  0.302900  1
  O  O1868  1  0.768600  0.612900  0.802900  1
  O  O1869  1  0.170800  0.223300  0.758800  1
  O  O1870  1  0.329200  0.276700  0.258800  1
  O  O1871  1  0.829200  0.776700  0.241200  1
  O  O1872  1  0.670800  0.723300  0.741200  1
  O  O1873  1  0.280200  0.373800  0.849400  1
  O  O1874  1  0.219800  0.126200  0.349400  1
  O  O1875  1  0.719800  0.626200  0.150600  1
  O  O1876  1  0.780200  0.873800  0.650600  1
  O  O1877  1  0.982500  0.203000  0.787800  1
  O  O1878  1  0.517500  0.297000  0.287800  1
  O  O1879  1  0.017500  0.797000  0.212200  1
  O  O1880  1  0.482500  0.703000  0.712200  1
  O  O1881  1  0.498100  0.985900  0.773500  1
  O  O1882  1  0.001900  0.514100  0.273500  1
  O  O1883  1  0.501900  0.014100  0.226500  1
  O  O1884  1  0.998100  0.485900  0.726500  1
  O  O1885  1  0.884000  0.295800  0.701900  1
  O  O1886  1  0.616000  0.204200  0.201900  1
  O  O1887  1  0.116000  0.704200  0.298100  1
  O  O1888  1  0.384000  0.795800  0.798100  1
  O  O1889  1  0.351000  0.447200  0.838100  1
  O  O1890  1  0.149000  0.052800  0.338100  1
  O  O1891  1  0.649000  0.552800  0.161900  1
  O  O1892  1  0.851000  0.947200  0.661900  1
  O  O1893  1  0.706400  0.465200  0.920000  1
  O  O1894  1  0.793600  0.034800  0.420000  1
  O  O1895  1  0.293600  0.534800  0.080000  1
  O  O1896  1  0.206400  0.965200  0.580000  1
  O  O1897  1  0.805200  0.429800  0.820400  1
  O  O1898  1  0.694800  0.070200  0.320400  1
  O  O1899  1  0.194800  0.570200  0.179600  1
  O  O1900  1  0.305200  0.929800  0.679600  1
