
#######################################################################
#
#                 Cambridge Crystallographic Data Centre
#                                CCDC 
#
#######################################################################
#
# If this CIF has been generated from an entry in the Cambridge 
# Structural Database, then it will include bibliographic, chemical, 
# crystal, experimental, refinement or atomic coordinate data resulting 
# from the CCDC's data processing and validation procedures.
#
#######################################################################

data_XUXKIM
_chemical_formula_moiety         
'C186 H216 N36 O6 Zn4 2+,3(C1 H4 O1),Cr1 O4 2-,16(H2 O1)'
_chemical_name_systematic        
"hexakis(\m-1,3-bis((4'-tert-butyl-2,2'-bipyridin-5-yl)methyl)urea)-tetra-zinc tetrachloro-chromium methanol solvate unknown solvate hexadecahydrate"
_symmetry_cell_setting           monoclinic
_symmetry_space_group_name_H-M   'P 21/n'
_symmetry_Int_Tables_number      14
_space_group_name_Hall           '-P 2yn'
loop_
_symmetry_equiv_pos_site_id
_symmetry_equiv_pos_as_xyz
1 x,y,z
2 1/2-x,1/2+y,1/2-z
3 -x,-y,-z
4 1/2+x,1/2-y,1/2+z
_cell_length_a                   19.6631(12)
_cell_length_b                   38.377(2)
_cell_length_c                   36.123(2)
_cell_angle_alpha                90
_cell_angle_beta                 100.9950(10)
_cell_angle_gamma                90
_cell_volume                     26758.4
_cell_formula_units_Z            4
loop_
_atom_site_label
_atom_site_type_symbol
_atom_site_fract_x
_atom_site_fract_y
_atom_site_fract_z
Cr1 Cr 0.42901(5) 0.19650(2) 0.79244(3)
O1 O 0.3615(2) 0.21917(10) 0.77271(11)
O2 O 0.45501(19) 0.17128(10) 0.76130(11)
O3 O 0.40851(19) 0.17224(10) 0.82648(11)
O4 O 0.4921(2) 0.22406(10) 0.81000(11)
Zn1 Zn 0.14677(3) 0.078603(15) 0.707001(17)
Zn2 Zn 0.30689(4) 0.304830(17) 0.937194(19)
Zn3 Zn 0.71827(4) 0.08627(2) 0.88573(2)
Zn4 Zn 0.50878(3) 0.312379(15) 0.651238(19)
N1 N 0.5255(2) 0.25684(11) 0.64678(13)
N2 N 0.4144(2) 0.30603(11) 0.67466(13)
N3 N 0.2428(2) 0.07880(10) 0.68677(13)
N4 N 0.1940(2) 0.07985(10) 0.76732(13)
N5 N 0.1388(2) 0.13498(11) 0.70652(12)
N6 N 0.5703(2) 0.31830(11) 0.70713(13)
N7 N 0.2681(3) 0.30935(11) 0.87691(13)
N8 N 0.6161(2) 0.08515(14) 0.89951(15)
N9 N 0.3069(3) 0.24809(12) 0.93713(13)
N10 N 0.7265(2) 0.14244(13) 0.88670(13)
N11 N 0.1157(2) 0.07188(11) 0.64717(13)
N12 N 0.6786(2) 0.08784(12) 0.82446(14)
N13 N 0.1473(2) 0.02533(10) 0.72343(13)
N14 N 0.2346(2) 0.22402(12) 0.80137(14)
H1 H 0.2751 0.2230 0.7945
N15 N 0.2923(3) 0.35989(12) 0.92860(14)
N16 N 0.4163(3) 0.30716(13) 0.93690(15)
N17 N 0.5145(2) 0.36780(11) 0.65886(14)
C1 C 0.2328(3) 0.10803(14) 0.82639(17)
N18 N 0.3522(4) 0.30944(13) 0.99559(15)
C2 C 0.2369(3) 0.07980(12) 0.64915(16)
N19 N 0.0452(2) 0.08803(11) 0.71779(13)
O5 O 0.1587(2) 0.19545(11) 0.83009(13)
C3 C 0.1973(3) 0.04865(13) 0.78435(15)
O6 O 0.7017(2) 0.20624(13) 0.75716(14)
N20 N 0.8246(2) 0.09568(13) 0.88324(14)
C4 C 0.2118(3) 0.10794(13) 0.78867(15)
H2 H 0.2095 0.1298 0.7762
C5 C 0.2147(3) 0.19690(14) 0.82054(16)
N21 N 0.5924(3) 0.30957(11) 0.62174(14)
C6 C 0.3668(3) 0.08156(14) 0.69469(18)
C7 C 0.6453(3) 0.20590(17) 0.76699(17)
N22 N 0.2623(2) 0.17077(12) 0.82848(14)
H3 H 0.3017 0.1724 0.8204
N23 N 0.2065(3) 0.29176(12) 0.94663(14)
C8 C 0.6347(3) 0.11588(15) 0.76479(17)
C9 C 0.1647(3) 0.07731(13) 0.62684(16)
C10 C 0.3493(3) 0.30488(13) 0.72479(18)
C11 C 0.2497(3) 0.14028(16) 0.84998(17)
H4 H 0.2108 0.1453 0.8630
H5 H 0.2913 0.1357 0.8696
O7 O 0.4354(3) 0.04732(12) 0.78933(15)
N24 N 0.5541(3) 0.20805(16) 0.88722(15)
H6 H 0.5313 0.2048 0.8641
N25 N 0.7182(3) 0.03381(14) 0.86844(18)
C12 C 0.6290(3) 0.08286(17) 0.74726(19)
H7 H 0.6123 0.0808 0.7209
C13 C 0.7859(3) 0.15531(16) 0.88085(16)
C14 C 0.2467(3) 0.34108(15) 0.86510(16)
C15 C 0.3057(3) 0.07925(13) 0.70873(17)
H8 H 0.3089 0.0779 0.7353
N26 N 0.3986(3) 0.18029(13) 0.68223(15)
H9 H 0.4136 0.1795 0.7068
C16 C 0.6737(3) 0.16458(17) 0.88958(16)
H10 H 0.6313 0.1553 0.8941
N27 N 0.7382(3) 0.07846(19) 0.94673(17)
N28 N 0.6025(3) 0.17827(13) 0.76203(15)
H11 H 0.5648 0.1786 0.7718
O8 O 0.5541(3) 0.20068(14) 0.94923(13)
N29 N 0.6197(3) 0.23426(13) 0.78363(14)
H12 H 0.5787 0.2325 0.7898
C17 C 0.4439(4) 0.30773(16) 0.9064(2)
H13 H 0.4140 0.3069 0.8824
C18 C 0.6735(3) 0.05678(16) 0.80755(19)
C19 C 0.0826(3) 0.14760(14) 0.71774(14)
C20 C 0.5558(3) 0.08617(16) 0.87427(18)
H14 H 0.5577 0.0891 0.8484
C21 C 0.0298(3) 0.12194(14) 0.72425(14)
C22 C 0.8419(3) 0.12969(15) 0.87975(16)
C23 C 0.6799(3) 0.19958(17) 0.88616(17)
C24 C 0.4110(3) 0.30465(12) 0.71133(17)
H15 H 0.4532 0.3034 0.7292
C25 C 0.5251(3) 0.19772(18) 0.91566(19)
C26 C 0.2496(3) 0.23342(15) 0.94548(17)
C27 C 0.6606(3) 0.11690(15) 0.80263(17)
H16 H 0.6665 0.1390 0.8146
C28 C 0.7417(3) 0.21327(18) 0.8797(2)
H17 H 0.7476 0.2378 0.8781
C29 C 0.3560(3) 0.30718(14) 0.64945(18)
C30 C 0.6196(3) 0.27795(14) 0.61869(16)
C31 C 0.1924(3) 0.25442(15) 0.79174(17)
H18 H 0.1435 0.2481 0.7917
H19 H 0.1955 0.2616 0.7658
N30 N 0.4612(3) 0.18300(15) 0.90587(16)
H20 H 0.4427 0.1816 0.8817
C32 C 0.2355(3) 0.07481(15) 0.84450(17)
H21 H 0.2495 0.0731 0.8711
C33 C 0.6141(4) 0.08048(17) 0.93666(18)
C34 C 0.3606(3) 0.22751(17) 0.93322(17)
H22 H 0.4009 0.2382 0.9275
C35 C 0.2502(3) 0.28254(15) 0.85314(16)
H23 H 0.2656 0.2599 0.8614
C36 C 0.3599(3) 0.19172(15) 0.93703(17)
C37 C 0.9620(3) 0.11369(17) 0.87880(17)
N31 N 0.3003(3) 0.20431(15) 0.69544(17)
H24 H 0.3216 0.2043 0.7192
N32 N 0.4378(2) 0.09733(13) 0.75595(15)
H25 H 0.4404 0.1202 0.7571
C38 C 0.6269(3) 0.29576(17) 0.76754(17)
C39 C 0.9091(3) 0.13875(17) 0.87718(17)
H26 H 0.9198 0.1626 0.8742
C40 C 0.1490(3) 0.07918(14) 0.58777(17)
H27 H 0.1849 0.0836 0.5741
C41 C 0.4930(3) 0.08319(15) 0.88390(18)
C42 C 0.3345(4) 0.19202(16) 0.6689(2)
O9 O 0.3082(3) 0.19135(13) 0.63499(15)
C43 C 0.4567(4) 0.30778(16) 0.9722(2)
C44 C 0.4499(4) 0.31239(17) 0.8173(2)
N33 N 0.4265(3) 0.31432(11) 0.60285(14)
C45 C 0.2181(3) 0.04619(15) 0.82372(17)
H28 H 0.2198 0.0241 0.8356
O10 O 0.4333(3) 0.34293(11) 0.82127(15)
C46 C 0.4846(3) 0.23159(14) 0.65608(16)
H29 H 0.4476 0.2381 0.6682
N34 N 0.4121(3) 0.29246(14) 0.79022(15)
H30 H 0.4268 0.2712 0.7872
C47 C 0.0726(3) 0.18337(14) 0.72131(17)
H31 H 0.0333 0.1919 0.7303
C48 C 0.5760(3) 0.35105(14) 0.72052(17)
C49 C 0.5961(3) 0.29221(14) 0.73039(17)
H32 H 0.5926 0.2693 0.7202
C50 C 0.2903(3) 0.30689(14) 0.6984(2)
H33 H 0.2470 0.3079 0.7064
N35 N 0.5036(3) 0.29666(15) 0.83912(17)
H34 H 0.5157 0.2757 0.8330
C51 C 0.1757(3) 0.01808(13) 0.75975(15)
C52 C 0.6953(3) 0.02650(17) 0.8324(2)
C53 C 0.1779(3) 0.19336(14) 0.69849(17)
C54 C 0.1889(3) 0.31814(16) 0.80637(18)
H35 H 0.1613 0.3212 0.7820
C55 C -0.0023(3) 0.06423(15) 0.72055(17)
H36 H 0.0074 0.0406 0.7155
C56 C 0.2063(4) 0.34663(16) 0.83027(18)
H37 H 0.1905 0.3694 0.8226
C57 C 0.6818(4) 0.0783(2) 0.96231(19)
C58 C 0.5478(3) 0.37875(14) 0.69367(18)
C59 C 0.1857(3) 0.15727(13) 0.69755(16)
H38 H 0.2260 0.1481 0.6902
C60 C 0.4363(3) 0.08099(17) 0.7207(2)
H39 H 0.4510 0.0564 0.7252
H40 H 0.4705 0.0926 0.7080
C61 C 0.2452(4) 0.19724(16) 0.94971(19)
H41 H 0.2048 0.1868 0.9557
C62 C 0.1913(4) 0.25785(15) 0.95062(17)
C63 C 0.7949(3) 0.19091(17) 0.8754(2)
H42 H 0.8365 0.1995 0.8690
C64 C 0.6483(3) 0.05337(17) 0.7693(2)
H43 H 0.6442 0.0309 0.7580
C65 C 0.6169(3) 0.14868(16) 0.74138(17)
H44 H 0.6560 0.1543 0.7288
H45 H 0.5760 0.1438 0.7214
C66 C 0.3077(4) 0.3013(2) 0.5797(2)
H46 H 0.2637 0.2956 0.5853
C67 C 0.6322(4) 0.33053(19) 0.7807(2)
H47 H 0.6534 0.3351 0.8061
C68 C 0.0810(4) 0.07465(15) 0.56832(18)
C69 C 0.2119(3) 0.28596(14) 0.81839(16)
N36 N 0.4322(3) 0.09845(14) 0.81919(16)
H48 H 0.4343 0.1213 0.8177
C70 C 0.1212(3) 0.20646(15) 0.71147(18)
H49 H 0.1154 0.2309 0.7137
C71 C 0.2668(4) 0.36995(15) 0.89384(17)
C72 C 0.5789(3) 0.24810(14) 0.63015(17)
C73 C 0.3616(3) 0.08249(16) 0.65557(19)
H50 H 0.4019 0.0835 0.6447
C74 C -0.0650(3) 0.07175(16) 0.73025(18)
H51 H -0.0973 0.0536 0.7317
C75 C 0.0647(4) 0.07620(19) 0.52589(19)
C76 C 0.4912(4) 0.07970(19) 0.9216(2)
H52 H 0.4482 0.0780 0.9298
C77 C 0.0512(3) 0.06755(15) 0.62824(17)
H53 H 0.0158 0.0640 0.6425
C78 C 0.8751(3) 0.07219(18) 0.88504(19)
H54 H 0.8640 0.0484 0.8878
C79 C 0.6209(3) 0.22430(18) 0.8925(2)
H55 H 0.6324 0.2337 0.9184
H56 H 0.6186 0.2442 0.8748
C80 C 0.3112(4) 0.38498(17) 0.95495(19)
H57 H 0.3299 0.3781 0.9801
C81 C 0.2946(3) 0.08191(15) 0.63268(18)
H58 H 0.2894 0.0830 0.6060
C82 C -0.0810(3) 0.10612(18) 0.73789(17)
C83 C 0.3628(3) 0.30740(15) 0.60885(18)
C84 C 0.2589(4) 0.40467(16) 0.88334(19)
H59 H 0.2394 0.4107 0.8580
C85 C 0.4931(3) 0.19702(14) 0.64912(17)
C86 C 0.9416(3) 0.08034(16) 0.88313(18)
H60 H 0.9749 0.0622 0.8849
C87 C 0.7391(4) 0.0064(2) 0.8931(3)
H61 H 0.7539 0.0105 0.9193
C88 C -0.0315(3) 0.13057(16) 0.73482(16)
H62 H -0.0400 0.1542 0.7402
C89 C 0.2911(3) 0.30753(16) 0.6610(2)
H63 H 0.2491 0.3082 0.6430
C90 C 0.1811(4) -0.01595(15) 0.77223(18)
H64 H 0.2008 -0.0204 0.7979
C91 C 0.1302(4) -0.03548(15) 0.71199(19)
H65 H 0.1130 -0.0535 0.6947
C92 C 0.4353(3) 0.07943(16) 0.7881(2)
C93 C 0.1264(3) -0.00145(15) 0.70031(18)
H66 H 0.1081 0.0034 0.6746
C94 C 0.3157(4) 0.3034(3) 0.5422(2)
C95 C 0.7529(5) 0.0747(4) 1.0245(2)
C96 C 0.1571(4) 0.31439(17) 0.9509(2)
H67 H 0.1658 0.3385 0.9479
C97 C -0.1510(3) 0.11429(19) 0.7488(2)
C98 C 0.3044(4) 0.41963(18) 0.9468(2)
H68 H 0.3167 0.4363 0.9664
C99 C 0.6878(4) 0.0781(2) 1.0013(2)
H69 H 0.6476 0.0802 1.0121
C100 C 0.0928(4) 0.30484(19) 0.9596(2)
H70 H 0.0590 0.3218 0.9626
C101 C 0.6802(3) 0.27299(16) 0.60664(19)
H71 H 0.6989 0.2502 0.6067
C102 C 0.7993(5) 0.0762(3) 0.9682(2)
H72 H 0.8394 0.0776 0.9572
C103 C 0.4901(3) 0.39122(15) 0.63355(19)
H73 H 0.4681 0.3835 0.6092
C104 C 0.5528(4) 0.0787(2) 0.9473(2)
H74 H 0.5516 0.0766 0.9734
C105 C 0.4195(5) 0.31014(17) 1.00372(18)
C106 C 0.5552(4) 0.30942(19) 0.9438(2)
H75 H 0.6042 0.3100 0.9466
C107 C 0.6257(3) 0.33708(15) 0.60973(19)
H76 H 0.6070 0.3598 0.6110
C108 C 0.2304(4) 0.21743(16) 0.6862(2)
H77 H 0.2179 0.2209 0.6586
H78 H 0.2284 0.2404 0.6984
C109 C 0.5140(4) 0.30946(16) 0.90791(19)
C110 C 0.3485(4) 0.30387(16) 0.7656(2)
H79 H 0.3372 0.3275 0.7736
H80 H 0.3106 0.2882 0.7696
C111 C 0.5244(4) 0.43881(16) 0.6758(2)
C112 C 0.6941(4) -0.00743(18) 0.8186(3)
H81 H 0.6790 -0.0113 0.7924
C113 C 0.5530(4) 0.41443(15) 0.70226(19)
H82 H 0.5763 0.4218 0.7265
C114 C 0.7378(5) -0.0272(2) 0.8786(3)
H83 H 0.7545 -0.0458 0.8952
C115 C 1.0345(3) 0.12405(17) 0.87478(18)
C116 C 0.4446(4) 0.16880(16) 0.6571(2)
H84 H 0.4161 0.1609 0.6329
H85 H 0.4722 0.1487 0.6687
C117 C 0.5257(5) 0.3086(2) 0.9748(2)
H86 H 0.5547 0.3086 0.9990
C118 C 0.7160(3) 0.30125(15) 0.59395(18)
C119 C 0.8073(5) 0.0717(4) 1.0073(3)
H87 H 0.8518 0.0664 1.0218
C120 C 0.5427(4) 0.31316(18) 0.8727(2)
H88 H 0.5466 0.3383 0.8674
H89 H 0.5902 0.3034 0.8775
C121 C 0.1314(4) 0.24671(17) 0.9594(2)
H90 H 0.1240 0.2225 0.9626
C122 C 0.1592(5) -0.04353(16) 0.7491(2)
C123 C 0.0320(4) 0.06776(16) 0.58971(17)
H91 H -0.0147 0.0632 0.5780
C124 C 0.3465(5) 0.3196(2) 1.0606(2)
H92 H 0.3194 0.3230 1.0794
C125 C 0.4258(3) 0.08315(18) 0.85413(19)
H93 H 0.4099 0.0588 0.8495
H94 H 0.3897 0.0959 0.8644
C126 C 0.3149(5) 0.31450(18) 1.0237(2)
H95 H 0.2657 0.3145 1.0173
C127 C 0.6861(3) 0.33321(16) 0.59567(18)
H96 H 0.7071 0.3532 0.5871
C128 C 0.3012(4) 0.17719(17) 0.9450(2)
H97 H 0.2987 0.1526 0.9474
C129 C 0.4353(3) 0.31706(16) 0.56766(18)
H98 H 0.4804 0.3211 0.5627
C130 C 0.4222(3) 0.16971(17) 0.93249(19)
H99 H 0.4535 0.1677 0.9574
H100 H 0.4059 0.1460 0.9246
C131 C 0.3795(4) 0.31409(19) 0.5377(2)
H101 H 0.3864 0.3198 0.5130
C132 C 0.6575(3) 0.26672(17) 0.79133(19)
H102 H 0.7056 0.2631 0.7876
H103 H 0.6596 0.2730 0.8181
C133 C 0.2795(5) 0.43069(18) 0.9099(2)
C134 C 0.7134(5) -0.0346(2) 0.8411(3)
C135 C 0.4947(4) 0.42678(16) 0.6404(2)
H104 H 0.4774 0.4428 0.6208
C136 C 0.0813(4) 0.2701(2) 0.9637(2)
C137 C 0.4544(5) 0.3145(2) 1.0415(2)
H105 H 0.5036 0.3139 1.0469
C138 C 0.6079(4) 0.35722(17) 0.75793(19)
H106 H 0.6123 0.3804 0.7673
C139 C 0.5489(5) 0.18847(17) 0.6325(3)
H107 H 0.5581 0.1647 0.6278
C140 C 0.5918(4) 0.21466(17) 0.6224(3)
H108 H 0.6293 0.2089 0.6103
C141 C 0.4197(6) 0.3197(3) 1.0704(2)
C142 C -0.1657(4) 0.08905(19) 0.7787(2)
H109 H -0.2106 0.0947 0.7852
H110 H -0.1292 0.0910 0.8012
H111 H -0.1668 0.0652 0.7689
C143 C -0.1534(4) 0.1512(2) 0.7641(3)
H112 H -0.1988 0.1554 0.7707
H113 H -0.1458 0.1680 0.7448
H114 H -0.1171 0.1539 0.7866
C144 C 0.7842(4) 0.29567(18) 0.5807(2)
C145 C 1.0865(4) 0.0960(2) 0.8919(3)
H115 H 1.1332 0.1030 0.8891
H116 H 1.0745 0.0738 0.8789
H117 H 1.0852 0.0933 0.9188
C146 C 0.7576(10) 0.0728(6) 1.0669(3)
C147 C 0.2136(5) -0.10055(18) 0.7376(3)
H118 H 0.1957 -0.0962 0.7108
H119 H 0.2138 -0.1257 0.7425
H120 H 0.2609 -0.0915 0.7445
C148 C 0.1662(7) -0.08181(19) 0.7619(2)
C149 C 0.2472(6) 0.4769(2) 0.8603(3)
H121 H 0.2497 0.5020 0.8559
H122 H 0.1986 0.4695 0.8557
H123 H 0.2718 0.4644 0.8433
C150 C 0.2586(6) 0.2939(5) 0.5080(3)
C151 C 1.0561(3) 0.15844(18) 0.8929(2)
H124 H 1.1033 0.1640 0.8896
H125 H 1.0550 0.1572 0.9199
H126 H 1.0243 0.1766 0.8811
C152 C -0.2062(4) 0.1105(3) 0.7125(2)
H127 H -0.2521 0.1155 0.7181
H128 H -0.2055 0.0867 0.7029
H129 H -0.1962 0.1270 0.6935
C153 C 0.2805(5) 0.46886(19) 0.9008(3)
C154 C 0.7667(5) 0.2693(2) 0.5463(3)
H130 H 0.7308 0.2794 0.5266
H131 H 0.7499 0.2473 0.5550
H132 H 0.8086 0.2650 0.5359
C155 C 0.0878(6) -0.0980(2) 0.7493(4)
H133 H 0.0732 -0.0964 0.7219
H134 H 0.0555 -0.0848 0.7615
H135 H 0.0879 -0.1225 0.7570
C156 C 1.0366(4) 0.1253(3) 0.8335(2)
H136 H 1.0833 0.1319 0.8302
H137 H 1.0031 0.1424 0.8210
H138 H 1.0250 0.1022 0.8223
C157 C 0.5272(5) 0.47794(18) 0.6844(3)
C158 C 0.2501(6) 0.4901(2) 0.9276(3)
H139 H 0.2519 0.5148 0.9209
H140 H 0.2765 0.4865 0.9532
H141 H 0.2018 0.4832 0.9265
C159 C 0.8089(4) 0.3286(2) 0.5651(3)
H142 H 0.7733 0.3372 0.5443
H143 H 0.8517 0.3239 0.5558
H144 H 0.8179 0.3463 0.5851
C160 C 0.0019(10) 0.0979(6) 0.5119(6)
H145 H -0.0074 0.0983 0.4843
H146 H 0.0098 0.1217 0.5216
H147 H -0.0380 0.0879 0.5208
C161 C 0.5931(6) 0.4910(2) 0.6742(4)
H148 H 0.5931 0.4858 0.6477
H149 H 0.6327 0.4794 0.6901
H150 H 0.5966 0.5162 0.6783
C162 C 0.3596(6) 0.4812(2) 0.9057(3)
H151 H 0.3612 0.5061 0.8997
H152 H 0.3828 0.4678 0.8886
H153 H 0.3833 0.4772 0.9318
C163 C 0.5228(7) 0.4840(2) 0.7222(3)
H154 H 0.4788 0.4748 0.7270
H155 H 0.5253 0.5091 0.7272
H156 H 0.5614 0.4723 0.7387
C164 C -0.0143(5) 0.2239(3) 0.9549(3)
H157 H -0.0269 0.2298 0.9281
H158 H -0.0553 0.2156 0.9639
H159 H 0.0211 0.2056 0.9584
C165 C 0.0428(8) 0.0398(4) 0.5108(4)
H160 H 0.0321 0.0403 0.4832
H161 H 0.0016 0.0324 0.5204
H162 H 0.0806 0.0233 0.5193
C166 C 0.8197(7) 0.0963(4) 1.0848(3)
H163 H 0.8585 0.0924 1.0718
H164 H 0.8341 0.0904 1.1115
H165 H 0.8058 0.1208 1.0823
C167 C 0.1847(8) -0.0856(4) 0.8036(4)
H166 H 0.1881 -0.1104 0.8102
H167 H 0.1488 -0.0746 0.8152
H168 H 0.2293 -0.0742 0.8129
C168 C 0.5296(5) 0.3365(2) 1.1147(2)
H169 H 0.5365 0.3517 1.0940
H170 H 0.5573 0.3153 1.1146
H171 H 0.5442 0.3487 1.1388
C169 C 0.2831(9) 0.2717(6) 0.4803(5)
H172 H 0.3217 0.2832 0.4716
H173 H 0.2453 0.2677 0.4588
H174 H 0.2988 0.2494 0.4920
C170 C 0.4643(7) 0.4959(2) 0.6629(4)
H175 H 0.4630 0.4932 0.6358
H176 H 0.4662 0.5207 0.6694
H177 H 0.4227 0.4854 0.6694
C171 C 0.8388(5) 0.2832(4) 0.6118(4)
H178 H 0.8235 0.2616 0.6222
H179 H 0.8478 0.3010 0.6316
H180 H 0.8814 0.2788 0.6022
C172 C 0.6969(8) 0.0718(5) 1.0815(3)
H181 H 0.7086 0.0696 1.1090
H182 H 0.6689 0.0517 1.0710
H183 H 0.6705 0.0933 1.0748
C173 C -0.0416(6) 0.2864(3) 0.9696(4)
H184 H -0.0526 0.2912 0.9424
H185 H -0.0239 0.3076 0.9831
H186 H -0.0836 0.2787 0.9781
C174 C 0.4542(8) 0.3270(5) 1.1099(3)
C175 C 0.0149(4) 0.2568(2) 0.9777(3)
C176 C 0.0336(6) 0.2484(3) 1.0176(3)
H187 H -0.0075 0.2400 1.0266
H188 H 0.0517 0.2692 1.0318
H189 H 0.0692 0.2302 1.0213
C177 C 0.4181(8) 0.3632(5) 1.1240(4)
H190 H 0.4275 0.3830 1.1085
H191 H 0.4380 0.3679 1.1505
H192 H 0.3680 0.3599 1.1211
C178 C 0.7956(9) 0.0387(6) 1.0804(4)
H193 H 0.8392 0.0375 1.0711
H194 H 0.7664 0.0188 1.0707
H195 H 0.8054 0.0381 1.1080
C179 C 0.2078(10) 0.2715(4) 0.5148(5)
H196 H 0.1822 0.2823 0.5326
H197 H 0.2291 0.2498 0.5256
H198 H 0.1759 0.2664 0.4911
C180 C 0.7896(8) -0.0882(4) 0.8424(5)
H199 H 0.8051 -0.0793 0.8680
H200 H 0.8227 -0.0813 0.8266
H201 H 0.7868 -0.1137 0.8431
C181 C 0.2370(9) 0.3301(4) 0.4897(5)
H202 H 0.2783 0.3425 0.4853
H203 H 0.2143 0.3438 0.5067
H204 H 0.2049 0.3267 0.4657
C182 C 0.6752(8) -0.0950(3) 0.8495(5)
H205 H 0.6977 -0.0936 0.8761
H206 H 0.6739 -0.1193 0.8411
H207 H 0.6277 -0.0860 0.8464
C183 C 0.4304(8) 0.3053(4) 1.1372(3)
H208 H 0.4542 0.3119 1.1626
H209 H 0.4403 0.2809 1.1325
H210 H 0.3803 0.3084 1.1352
C184 C 0.7164(7) -0.0728(3) 0.8254(4)
C185 C 0.6740(12) -0.0790(6) 0.7891(7)
H211 H 0.6930 -0.0662 0.7699
H212 H 0.6267 -0.0710 0.7891
H213 H 0.6734 -0.1040 0.7834
C186 C 0.1231(10) 0.0815(5) 0.5067(6)
H214 H 0.1062 0.0820 0.4794
H215 H 0.1563 0.0624 0.5130
H216 H 0.1459 0.1036 0.5149
O11 O 0.99275(14) 0.10543(7) 0.99714(8)
O12 O 0.65492(14) 0.37810(7) 0.49755(8)
O13 O 0.6394(4) 0.33987(18) 0.4978(2)
O14 O 0.57492(16) 0.08001(8) 0.63463(9)
C187 C 0.6170(9) 0.1104(4) 0.6576(5)
O15 O 0.9884(3) -0.00252(14) 0.95360(15)
O16 O 0.9222(3) 0.22656(17) 0.83902(18)
O17 O 0.3172(3) 0.08749(17) 0.93627(19)
O18 O 0.4546(4) 0.4056(2) 0.8568(2)
C188 C 0.4683(6) 0.4018(3) 0.8977(3)
O19 O 0.3952(5) 0.1802(3) 0.5589(3)
C189 C 0.3819(6) 0.2135(3) 0.5632(3)
O20 O 0.3317(5) 0.0049(3) 0.7691(3)
O21 O 0.7314(6) 0.3029(3) 0.8871(3)
O22 O 0.8292(5) 0.2412(2) 0.7767(3)
O23 O -0.2802(5) 0.1506(3) 0.6262(3)
O24 O 1.0175(5) 0.2122(2) 0.7970(3)
O25 O 0.5019(6) 0.2265(3) 1.0141(4)
O26 O 0.1160(6) 0.2981(3) 0.7042(3)
O27 O -0.3510(5) 0.1619(3) 0.5528(3)
O28 O 0.2936(6) 0.0800(3) 0.5348(3)
O29 O 0.1948(6) 0.1796(3) 0.5702(3)
loop_
_geom_bond_atom_site_label_1
_geom_bond_atom_site_label_2
_geom_bond_site_symmetry_1
_geom_bond_site_symmetry_2
Cr1 O1 1_555 1_555
O2 Cr1 1_555 1_555
O3 Cr1 1_555 1_555
O4 Cr1 1_555 1_555
Zn1 N3 1_555 1_555
Zn2 N7 1_555 1_555
Zn3 N8 1_555 1_555
Zn4 N1 1_555 1_555
N1 C46 1_555 1_555
N2 Zn4 1_555 1_555
N3 C2 1_555 1_555
N4 Zn1 1_555 1_555
N5 Zn1 1_555 1_555
N6 Zn4 1_555 1_555
N7 C14 1_555 1_555
N8 C20 1_555 1_555
N9 Zn2 1_555 1_555
N10 Zn3 1_555 1_555
N11 Zn1 1_555 1_555
N12 Zn3 1_555 1_555
N13 Zn1 1_555 1_555
N14 H1 1_555 1_555
N15 Zn2 1_555 1_555
N16 Zn2 1_555 1_555
N17 Zn4 1_555 1_555
C1 C4 1_555 1_555
N18 Zn2 1_555 1_555
C2 C9 1_555 1_555
N19 Zn1 1_555 1_555
O5 C5 1_555 1_555
C3 N4 1_555 1_555
O6 C7 1_555 1_555
N20 Zn3 1_555 1_555
C4 N4 1_555 1_555
H2 C4 1_555 1_555
C5 N14 1_555 1_555
N21 Zn4 1_555 1_555
C6 C15 1_555 1_555
C7 N28 1_555 1_555
N22 C5 1_555 1_555
H3 N22 1_555 1_555
N23 Zn2 1_555 1_555
C8 C12 1_555 1_555
C9 N11 1_555 1_555
C10 C24 1_555 1_555
C11 C1 1_555 1_555
H4 C11 1_555 1_555
H5 C11 1_555 1_555
O7 C92 1_555 1_555
N24 H6 1_555 1_555
N25 Zn3 1_555 1_555
C12 H7 1_555 1_555
C13 N10 1_555 1_555
C14 C56 1_555 1_555
C15 N3 1_555 1_555
H8 C15 1_555 1_555
N26 H9 1_555 1_555
C16 N10 1_555 1_555
H10 C16 1_555 1_555
N27 Zn3 1_555 1_555
N28 H11 1_555 1_555
O8 C25 1_555 1_555
N29 C7 1_555 1_555
H12 N29 1_555 1_555
C17 N16 1_555 1_555
H13 C17 1_555 1_555
C18 N12 1_555 1_555
C19 N5 1_555 1_555
C20 H14 1_555 1_555
C21 N19 1_555 1_555
C22 N20 1_555 1_555
C23 C16 1_555 1_555
C24 N2 1_555 1_555
H15 C24 1_555 1_555
C25 N24 1_555 1_555
C26 N9 1_555 1_555
C27 N12 1_555 1_555
H16 C27 1_555 1_555
C28 C23 1_555 1_555
H17 C28 1_555 1_555
C29 N2 1_555 1_555
C30 N21 1_555 1_555
C31 N14 1_555 1_555
H18 C31 1_555 1_555
H19 C31 1_555 1_555
N30 C25 1_555 1_555
H20 N30 1_555 1_555
C32 C1 1_555 1_555
H21 C32 1_555 1_555
C33 N8 1_555 1_555
C34 N9 1_555 1_555
H22 C34 1_555 1_555
C35 N7 1_555 1_555
H23 C35 1_555 1_555
C36 C34 1_555 1_555
C37 C39 1_555 1_555
N31 H24 1_555 1_555
N32 H25 1_555 1_555
C38 C49 1_555 1_555
C39 C22 1_555 1_555
H26 C39 1_555 1_555
C40 C9 1_555 1_555
H27 C40 1_555 1_555
C41 C20 1_555 1_555
C42 N26 1_555 1_555
O9 C42 1_555 1_555
C43 N16 1_555 1_555
C44 O10 1_555 1_555
N33 Zn4 1_555 1_555
C45 C3 1_555 1_555
H28 C45 1_555 1_555
C46 H29 1_555 1_555
N34 C44 1_555 1_555
H30 N34 1_555 1_555
C47 C19 1_555 1_555
H31 C47 1_555 1_555
C48 N6 1_555 1_555
C49 N6 1_555 1_555
H32 C49 1_555 1_555
C50 C10 1_555 1_555
H33 C50 1_555 1_555
N35 C44 1_555 1_555
H34 N35 1_555 1_555
C51 N13 1_555 1_555
C52 N25 1_555 1_555
C53 C59 1_555 1_555
C54 H35 1_555 1_555
C55 N19 1_555 1_555
H36 C55 1_555 1_555
C56 C54 1_555 1_555
H37 C56 1_555 1_555
C57 N27 1_555 1_555
C58 N17 1_555 1_555
C59 N5 1_555 1_555
H38 C59 1_555 1_555
C60 C6 1_555 1_555
H39 C60 1_555 1_555
H40 C60 1_555 1_555
C61 C26 1_555 1_555
H41 C61 1_555 1_555
C62 N23 1_555 1_555
C63 C13 1_555 1_555
H42 C63 1_555 1_555
C64 C12 1_555 1_555
H43 C64 1_555 1_555
C65 C8 1_555 1_555
H44 C65 1_555 1_555
H45 C65 1_555 1_555
C66 H46 1_555 1_555
C67 C38 1_555 1_555
H47 C67 1_555 1_555
C68 C40 1_555 1_555
C69 C31 1_555 1_555
N36 H48 1_555 1_555
C70 C47 1_555 1_555
H49 C70 1_555 1_555
C71 N15 1_555 1_555
C72 N1 1_555 1_555
C73 C6 1_555 1_555
H50 C73 1_555 1_555
C74 C55 1_555 1_555
H51 C74 1_555 1_555
C75 C68 1_555 1_555
C76 C41 1_555 1_555
H52 C76 1_555 1_555
C77 N11 1_555 1_555
H53 C77 1_555 1_555
C78 N20 1_555 1_555
H54 C78 1_555 1_555
C79 N24 1_555 1_555
H55 C79 1_555 1_555
H56 C79 1_555 1_555
C80 N15 1_555 1_555
H57 C80 1_555 1_555
C81 C2 1_555 1_555
H58 C81 1_555 1_555
C82 C74 1_555 1_555
C83 C29 1_555 1_555
C84 C71 1_555 1_555
H59 C84 1_555 1_555
C85 C46 1_555 1_555
C86 C37 1_555 1_555
H60 C86 1_555 1_555
C87 N25 1_555 1_555
H61 C87 1_555 1_555
C88 C21 1_555 1_555
H62 C88 1_555 1_555
C89 C29 1_555 1_555
H63 C89 1_555 1_555
C90 C51 1_555 1_555
H64 C90 1_555 1_555
C91 H65 1_555 1_555
C92 N32 1_555 1_555
C93 N13 1_555 1_555
H66 C93 1_555 1_555
C94 C66 1_555 1_555
C95 C99 1_555 1_555
C96 N23 1_555 1_555
H67 C96 1_555 1_555
C97 C82 1_555 1_555
C98 C80 1_555 1_555
H68 C98 1_555 1_555
C99 C57 1_555 1_555
H69 C99 1_555 1_555
C100 C96 1_555 1_555
H70 C100 1_555 1_555
C101 C30 1_555 1_555
H71 C101 1_555 1_555
C102 N27 1_555 1_555
H72 C102 1_555 1_555
C103 N17 1_555 1_555
H73 C103 1_555 1_555
C104 C33 1_555 1_555
H74 C104 1_555 1_555
C105 N18 1_555 1_555
C106 H75 1_555 1_555
C107 N21 1_555 1_555
H76 C107 1_555 1_555
C108 N31 1_555 1_555
H77 C108 1_555 1_555
H78 C108 1_555 1_555
C109 C17 1_555 1_555
C110 C10 1_555 1_555
H79 C110 1_555 1_555
H80 C110 1_555 1_555
C111 C113 1_555 1_555
C112 C52 1_555 1_555
H81 C112 1_555 1_555
C113 C58 1_555 1_555
H82 C113 1_555 1_555
C114 C87 1_555 1_555
H83 C114 1_555 1_555
C115 C37 1_555 1_555
C116 N26 1_555 1_555
H84 C116 1_555 1_555
H85 C116 1_555 1_555
C117 C43 1_555 1_555
H86 C117 1_555 1_555
C118 C101 1_555 1_555
C119 C95 1_555 1_555
H87 C119 1_555 1_555
C120 N35 1_555 1_555
H88 C120 1_555 1_555
H89 C120 1_555 1_555
C121 C62 1_555 1_555
H90 C121 1_555 1_555
C122 C90 1_555 1_555
C123 C68 1_555 1_555
H91 C123 1_555 1_555
C124 H92 1_555 1_555
C125 C41 1_555 1_555
H93 C125 1_555 1_555
H94 C125 1_555 1_555
C126 N18 1_555 1_555
H95 C126 1_555 1_555
C127 C107 1_555 1_555
H96 C127 1_555 1_555
C128 C36 1_555 1_555
H97 C128 1_555 1_555
C129 N33 1_555 1_555
H98 C129 1_555 1_555
C130 N30 1_555 1_555
H99 C130 1_555 1_555
H100 C130 1_555 1_555
C131 C94 1_555 1_555
H101 C131 1_555 1_555
C132 N29 1_555 1_555
H102 C132 1_555 1_555
H103 C132 1_555 1_555
C133 C84 1_555 1_555
C134 C112 1_555 1_555
C135 C103 1_555 1_555
H104 C135 1_555 1_555
C136 C100 1_555 1_555
C137 C105 1_555 1_555
H105 C137 1_555 1_555
C138 C48 1_555 1_555
H106 C138 1_555 1_555
C139 C85 1_555 1_555
H107 C139 1_555 1_555
C140 C72 1_555 1_555
H108 C140 1_555 1_555
C141 C124 1_555 1_555
C142 C97 1_555 1_555
H109 C142 1_555 1_555
H110 C142 1_555 1_555
H111 C142 1_555 1_555
C143 C97 1_555 1_555
H112 C143 1_555 1_555
H113 C143 1_555 1_555
H114 C143 1_555 1_555
C144 C118 1_555 1_555
C145 C115 1_555 1_555
H115 C145 1_555 1_555
H116 C145 1_555 1_555
H117 C145 1_555 1_555
C146 C95 1_555 1_555
C147 H118 1_555 1_555
H119 C147 1_555 1_555
H120 C147 1_555 1_555
C148 C122 1_555 1_555
C149 H121 1_555 1_555
H122 C149 1_555 1_555
H123 C149 1_555 1_555
C150 C94 1_555 1_555
C151 C115 1_555 1_555
H124 C151 1_555 1_555
H125 C151 1_555 1_555
H126 C151 1_555 1_555
C152 C97 1_555 1_555
H127 C152 1_555 1_555
H128 C152 1_555 1_555
H129 C152 1_555 1_555
C153 C133 1_555 1_555
C154 C144 1_555 1_555
H130 C154 1_555 1_555
H131 C154 1_555 1_555
H132 C154 1_555 1_555
C155 C148 1_555 1_555
H133 C155 1_555 1_555
H134 C155 1_555 1_555
H135 C155 1_555 1_555
C156 C115 1_555 1_555
H136 C156 1_555 1_555
H137 C156 1_555 1_555
H138 C156 1_555 1_555
C157 C111 1_555 1_555
C158 C153 1_555 1_555
H139 C158 1_555 1_555
H140 C158 1_555 1_555
H141 C158 1_555 1_555
C159 C144 1_555 1_555
H142 C159 1_555 1_555
H143 C159 1_555 1_555
H144 C159 1_555 1_555
C160 C75 1_555 1_555
H145 C160 1_555 1_555
H146 C160 1_555 1_555
H147 C160 1_555 1_555
C161 C157 1_555 1_555
H148 C161 1_555 1_555
H149 C161 1_555 1_555
H150 C161 1_555 1_555
C162 C153 1_555 1_555
H151 C162 1_555 1_555
H152 C162 1_555 1_555
H153 C162 1_555 1_555
C163 C157 1_555 1_555
H154 C163 1_555 1_555
H155 C163 1_555 1_555
H156 C163 1_555 1_555
C164 H157 1_555 1_555
H158 C164 1_555 1_555
H159 C164 1_555 1_555
C165 C75 1_555 1_555
H160 C165 1_555 1_555
H161 C165 1_555 1_555
H162 C165 1_555 1_555
C166 C146 1_555 1_555
H163 C166 1_555 1_555
H164 C166 1_555 1_555
H165 C166 1_555 1_555
C167 C148 1_555 1_555
H166 C167 1_555 1_555
H167 C167 1_555 1_555
H168 C167 1_555 1_555
C168 H169 1_555 1_555
H170 C168 1_555 1_555
H171 C168 1_555 1_555
C169 C150 1_555 1_555
H172 C169 1_555 1_555
H173 C169 1_555 1_555
H174 C169 1_555 1_555
C170 C157 1_555 1_555
H175 C170 1_555 1_555
H176 C170 1_555 1_555
H177 C170 1_555 1_555
C171 C144 1_555 1_555
H178 C171 1_555 1_555
H179 C171 1_555 1_555
H180 C171 1_555 1_555
C172 C146 1_555 1_555
H181 C172 1_555 1_555
H182 C172 1_555 1_555
H183 C172 1_555 1_555
C173 H184 1_555 1_555
H185 C173 1_555 1_555
H186 C173 1_555 1_555
C174 C141 1_555 1_555
C175 C136 1_555 1_555
C176 C175 1_555 1_555
H187 C176 1_555 1_555
H188 C176 1_555 1_555
H189 C176 1_555 1_555
C177 C174 1_555 1_555
H190 C177 1_555 1_555
H191 C177 1_555 1_555
H192 C177 1_555 1_555
C178 C146 1_555 1_555
H193 C178 1_555 1_555
H194 C178 1_555 1_555
H195 C178 1_555 1_555
C179 C150 1_555 1_555
H196 C179 1_555 1_555
H197 C179 1_555 1_555
H198 C179 1_555 1_555
C180 H199 1_555 1_555
H200 C180 1_555 1_555
H201 C180 1_555 1_555
C181 C150 1_555 1_555
H202 C181 1_555 1_555
H203 C181 1_555 1_555
H204 C181 1_555 1_555
C182 H205 1_555 1_555
H206 C182 1_555 1_555
H207 C182 1_555 1_555
C183 C174 1_555 1_555
H208 C183 1_555 1_555
H209 C183 1_555 1_555
H210 C183 1_555 1_555
C184 C134 1_555 1_555
C185 C184 1_555 1_555
H211 C185 1_555 1_555
H212 C185 1_555 1_555
H213 C185 1_555 1_555
C186 C75 1_555 1_555
H214 C186 1_555 1_555
H215 C186 1_555 1_555
H216 C186 1_555 1_555
O14 C187 1_555 1_555
O18 C188 1_555 1_555
O19 C189 1_555 1_555
C3 C51 1_555 1_555
N22 C11 1_555 1_555
C8 C27 1_555 1_555
C13 C22 1_555 1_555
C14 C71 1_555 1_555
N28 C65 1_555 1_555
C18 C52 1_555 1_555
C18 C64 1_555 1_555
C19 C21 1_555 1_555
C23 C79 1_555 1_555
C26 C62 1_555 1_555
C28 C63 1_555 1_555
C30 C72 1_555 1_555
C32 C45 1_555 1_555
C33 C57 1_555 1_555
C35 C69 1_555 1_555
C36 C130 1_555 1_555
N31 C42 1_555 1_555
N32 C60 1_555 1_555
C38 C132 1_555 1_555
C43 C105 1_555 1_555
N33 C83 1_555 1_555
N34 C110 1_555 1_555
C48 C58 1_555 1_555
C50 C89 1_555 1_555
C53 C70 1_555 1_555
C53 C108 1_555 1_555
C54 C69 1_555 1_555
C61 C128 1_555 1_555
C66 C83 1_555 1_555
C67 C138 1_555 1_555
N36 C92 1_555 1_555
N36 C125 1_555 1_555
C73 C81 1_555 1_555
C76 C104 1_555 1_555
C77 C123 1_555 1_555
C78 C86 1_555 1_555
C82 C88 1_555 1_555
C85 C116 1_555 1_555
C91 C93 1_555 1_555
C91 C122 1_555 1_555
C98 C133 1_555 1_555
C102 C119 1_555 1_555
C106 C109 1_555 1_555
C106 C117 1_555 1_555
C109 C120 1_555 1_555
C111 C135 1_555 1_555
C114 C134 1_555 1_555
C118 C127 1_555 1_555
C121 C136 1_555 1_555
C124 C126 1_555 1_555
C129 C131 1_555 1_555
C137 C141 1_555 1_555
C139 C140 1_555 1_555
C147 C148 1_555 1_555
C149 C153 1_555 1_555
C164 C175 1_555 1_555
C168 C174 1_555 1_555
C173 C175 1_555 1_555
C180 C184 1_555 1_555
C182 C184 1_555 1_555

#END
