# generated using pymatgen
data_Zn4MoH216C188N36O23
_symmetry_space_group_name_H-M   'P 1'
_cell_length_a   19.63340000
_cell_length_b   35.90200000
_cell_length_c   38.32800000
_cell_angle_alpha   90.00000000
_cell_angle_beta   90.00000000
_cell_angle_gamma   99.97700000
_symmetry_Int_Tables_number   1
_chemical_formula_structural   Zn4MoH216C188N36O23
_chemical_formula_sum   'Zn16 Mo4 H864 C752 N144 O92'
_cell_volume   26608.01510309
_cell_formula_units_Z   4
loop_
 _symmetry_equiv_pos_site_id
 _symmetry_equiv_pos_as_xyz
  1  'x, y, z'
loop_
 _atom_site_type_symbol
 _atom_site_label
 _atom_site_symmetry_multiplicity
 _atom_site_fract_x
 _atom_site_fract_y
 _atom_site_fract_z
 _atom_site_occupancy
  Zn  Zn1  1  0.497090  0.355930  0.674950  1
  Zn  Zn2  1  0.002910  0.144070  0.174950  1
  Zn  Zn3  1  0.502910  0.644070  0.325050  1
  Zn  Zn4  1  0.997090  0.855930  0.825050  1
  Zn  Zn5  1  0.856030  0.298320  0.910620  1
  Zn  Zn6  1  0.643970  0.201680  0.410620  1
  Zn  Zn7  1  0.143970  0.701680  0.089380  1
  Zn  Zn8  1  0.356030  0.798320  0.589380  1
  Zn  Zn9  1  0.710350  0.069730  0.686710  1
  Zn  Zn10  1  0.789650  0.430270  0.186710  1
  Zn  Zn11  1  0.289650  0.930270  0.313290  1
  Zn  Zn12  1  0.210350  0.569730  0.813290  1
  Zn  Zn13  1  0.294710  0.120610  0.901860  1
  Zn  Zn14  1  0.205290  0.379390  0.401860  1
  Zn  Zn15  1  0.705290  0.879390  0.098140  1
  Zn  Zn16  1  0.794710  0.620610  0.598140  1
  Mo  Mo17  1  0.583070  0.216313  0.791773  1
  Mo  Mo18  1  0.916930  0.283687  0.291773  1
  Mo  Mo19  1  0.416930  0.783687  0.208227  1
  Mo  Mo20  1  0.083070  0.716313  0.708227  1
  H  H21  1  0.575000  0.192400  0.871000  1
  H  H22  1  0.925000  0.307600  0.371000  1
  H  H23  1  0.425000  0.807600  0.129000  1
  H  H24  1  0.075000  0.692400  0.629000  1
  H  H25  1  0.561600  0.251200  0.868900  1
  H  H26  1  0.938400  0.248800  0.368900  1
  H  H27  1  0.438400  0.748800  0.131100  1
  H  H28  1  0.061600  0.751200  0.631100  1
  H  H29  1  0.432300  0.220100  0.757500  1
  H  H30  1  0.067700  0.279900  0.257500  1
  H  H31  1  0.567700  0.779900  0.242500  1
  H  H32  1  0.932300  0.720100  0.742500  1
  H  H33  1  0.441900  0.237200  0.811900  1
  H  H34  1  0.058100  0.262800  0.311900  1
  H  H35  1  0.558100  0.762800  0.188100  1
  H  H36  1  0.941900  0.737200  0.688100  1
  H  H37  1  0.484000  0.141600  0.782800  1
  H  H38  1  0.016000  0.358400  0.282800  1
  H  H39  1  0.516000  0.858400  0.217200  1
  H  H40  1  0.984000  0.641600  0.717200  1
  H  H41  1  0.571600  0.125800  0.809700  1
  H  H42  1  0.928400  0.374200  0.309700  1
  H  H43  1  0.428400  0.874200  0.190300  1
  H  H44  1  0.071600  0.625800  0.690300  1
  H  H45  1  0.496400  0.176000  0.710500  1
  H  H46  1  0.003600  0.324000  0.210500  1
  H  H47  1  0.503600  0.824000  0.289500  1
  H  H48  1  0.996400  0.676000  0.789500  1
  H  H49  1  0.588000  0.220600  0.714000  1
  H  H50  1  0.912000  0.279400  0.214000  1
  H  H51  1  0.412000  0.779400  0.286000  1
  H  H52  1  0.088000  0.720600  0.786000  1
  H  H53  1  0.748200  0.221000  0.760200  1
  H  H54  1  0.751800  0.279000  0.260200  1
  H  H55  1  0.251800  0.779000  0.239800  1
  H  H56  1  0.248200  0.721000  0.739800  1
  H  H57  1  0.716600  0.191800  0.808300  1
  H  H58  1  0.783400  0.308200  0.308300  1
  H  H59  1  0.283400  0.808200  0.191700  1
  H  H60  1  0.216600  0.691800  0.691700  1
  H  H61  1  0.689400  0.293300  0.782100  1
  H  H62  1  0.810600  0.206700  0.282100  1
  H  H63  1  0.310600  0.706700  0.217900  1
  H  H64  1  0.189400  0.793300  0.717900  1
  H  H65  1  0.597900  0.302600  0.807000  1
  H  H66  1  0.902100  0.197400  0.307000  1
  H  H67  1  0.402100  0.697400  0.193000  1
  H  H68  1  0.097900  0.802600  0.693000  1
  H  H69  1  0.394800  0.393500  0.627400  1
  H  H70  1  0.105200  0.106500  0.127400  1
  H  H71  1  0.605200  0.606500  0.372600  1
  H  H72  1  0.894800  0.893500  0.872600  1
  H  H73  1  0.295100  0.418600  0.633200  1
  H  H74  1  0.204900  0.081400  0.133200  1
  H  H75  1  0.704900  0.581400  0.366800  1
  H  H76  1  0.795100  0.918600  0.866800  1
  H  H77  1  0.314200  0.409700  0.737300  1
  H  H78  1  0.185800  0.090300  0.237300  1
  H  H79  1  0.685800  0.590300  0.262700  1
  H  H80  1  0.814200  0.909700  0.762700  1
  H  H81  1  0.387700  0.405200  0.777700  1
  H  H82  1  0.112300  0.094800  0.277700  1
  H  H83  1  0.612300  0.594800  0.222300  1
  H  H84  1  0.887700  0.905200  0.722300  1
  H  H85  1  0.448100  0.382200  0.822000  1
  H  H86  1  0.051900  0.117800  0.322000  1
  H  H87  1  0.551900  0.617800  0.178000  1
  H  H88  1  0.948100  0.882200  0.678000  1
  H  H89  1  0.558400  0.340300  0.749400  1
  H  H90  1  0.941600  0.159700  0.249400  1
  H  H91  1  0.441600  0.659700  0.250600  1
  H  H92  1  0.058400  0.840300  0.750600  1
  H  H93  1  0.526500  0.447100  0.667200  1
  H  H94  1  0.973500  0.052900  0.167200  1
  H  H95  1  0.473500  0.552900  0.332800  1
  H  H96  1  0.026500  0.947100  0.832800  1
  H  H97  1  0.615300  0.495800  0.682900  1
  H  H98  1  0.884700  0.004200  0.182900  1
  H  H99  1  0.384700  0.504200  0.317100  1
  H  H100  1  0.115300  0.995800  0.817100  1
  H  H101  1  0.734200  0.421200  0.703200  1
  H  H102  1  0.765800  0.078800  0.203200  1
  H  H103  1  0.265800  0.578800  0.296800  1
  H  H104  1  0.234200  0.921200  0.796800  1
  H  H105  1  0.754700  0.366600  0.684100  1
  H  H106  1  0.745300  0.133400  0.184100  1
  H  H107  1  0.245300  0.633400  0.315900  1
  H  H108  1  0.254700  0.866600  0.815900  1
  H  H109  1  0.762400  0.302800  0.681700  1
  H  H110  1  0.737600  0.197200  0.181700  1
  H  H111  1  0.237600  0.697200  0.318300  1
  H  H112  1  0.262400  0.802800  0.818300  1
  H  H113  1  0.555600  0.278000  0.681900  1
  H  H114  1  0.944400  0.222000  0.181900  1
  H  H115  1  0.444400  0.722000  0.318100  1
  H  H116  1  0.055600  0.778000  0.818100  1
  H  H117  1  0.543000  0.394400  0.604300  1
  H  H118  1  0.957000  0.105600  0.104300  1
  H  H119  1  0.457000  0.605600  0.395700  1
  H  H120  1  0.043000  0.894400  0.895700  1
  H  H121  1  0.538900  0.383100  0.545700  1
  H  H122  1  0.961100  0.116900  0.045700  1
  H  H123  1  0.461100  0.616900  0.454300  1
  H  H124  1  0.038900  0.883100  0.954300  1
  H  H125  1  0.435100  0.280300  0.567100  1
  H  H126  1  0.064900  0.219700  0.067100  1
  H  H127  1  0.564900  0.719700  0.432900  1
  H  H128  1  0.935100  0.780300  0.932900  1
  H  H129  1  0.396000  0.241400  0.609400  1
  H  H130  1  0.104000  0.258600  0.109400  1
  H  H131  1  0.604000  0.758600  0.390600  1
  H  H132  1  0.896000  0.741400  0.890600  1
  H  H133  1  0.358200  0.201100  0.654800  1
  H  H134  1  0.141800  0.298900  0.154800  1
  H  H135  1  0.641800  0.798900  0.345200  1
  H  H136  1  0.858200  0.701100  0.845200  1
  H  H137  1  0.417800  0.287400  0.719900  1
  H  H138  1  0.082200  0.212600  0.219900  1
  H  H139  1  0.582200  0.712600  0.280100  1
  H  H140  1  0.917800  0.787400  0.780100  1
  H  H141  1  0.988800  0.360800  0.929700  1
  H  H142  1  0.511200  0.139200  0.429700  1
  H  H143  1  0.011200  0.639200  0.070300  1
  H  H144  1  0.488800  0.860800  0.570300  1
  H  H145  1  0.021600  0.424500  0.930700  1
  H  H146  1  0.478400  0.075500  0.430700  1
  H  H147  1  0.978400  0.575500  0.069300  1
  H  H148  1  0.521600  0.924500  0.569300  1
  H  H149  1  0.826400  0.434000  0.907100  1
  H  H150  1  0.673600  0.066000  0.407100  1
  H  H151  1  0.173600  0.566000  0.092900  1
  H  H152  1  0.326400  0.934000  0.592900  1
  H  H153  1  0.719000  0.403700  0.905000  1
  H  H154  1  0.781000  0.096300  0.405000  1
  H  H155  1  0.281000  0.596300  0.095000  1
  H  H156  1  0.219000  0.903700  0.595000  1
  H  H157  1  0.607700  0.366000  0.905200  1
  H  H158  1  0.892300  0.134000  0.405200  1
  H  H159  1  0.392300  0.634000  0.094800  1
  H  H160  1  0.107700  0.866000  0.594800  1
  H  H161  1  0.694800  0.274200  0.908300  1
  H  H162  1  0.805200  0.225800  0.408300  1
  H  H163  1  0.305200  0.725800  0.091700  1
  H  H164  1  0.194800  0.774200  0.591700  1
  H  H165  1  0.886300  0.324800  0.987600  1
  H  H166  1  0.613700  0.175200  0.487600  1
  H  H167  1  0.113700  0.675200  0.012400  1
  H  H168  1  0.386300  0.824800  0.512400  1
  H  H169  1  0.870500  0.301700  0.044200  1
  H  H170  1  0.629500  0.198300  0.544200  1
  H  H171  1  0.129500  0.698300  0.955800  1
  H  H172  1  0.370500  0.801700  0.455800  1
  H  H173  1  0.787000  0.200200  0.003000  1
  H  H174  1  0.713000  0.299800  0.503000  1
  H  H175  1  0.213000  0.799800  0.997000  1
  H  H176  1  0.287000  0.700200  0.497000  1
  H  H177  1  0.786700  0.166100  0.957900  1
  H  H178  1  0.713300  0.333900  0.457900  1
  H  H179  1  0.213300  0.833900  0.042100  1
  H  H180  1  0.286700  0.666100  0.542100  1
  H  H181  1  0.760800  0.133900  0.904800  1
  H  H182  1  0.739200  0.366100  0.404800  1
  H  H183  1  0.239200  0.866100  0.095200  1
  H  H184  1  0.260800  0.633900  0.595200  1
  H  H185  1  0.797500  0.233300  0.854700  1
  H  H186  1  0.702500  0.266700  0.354700  1
  H  H187  1  0.202500  0.766700  0.145300  1
  H  H188  1  0.297500  0.733300  0.645300  1
  H  H189  1  0.988900  0.284200  0.951200  1
  H  H190  1  0.511100  0.215800  0.451200  1
  H  H191  1  0.011100  0.715800  0.048800  1
  H  H192  1  0.488900  0.784200  0.548800  1
  H  H193  1  0.099100  0.270800  0.937300  1
  H  H194  1  0.400900  0.229200  0.437300  1
  H  H195  1  0.900900  0.729200  0.062700  1
  H  H196  1  0.599100  0.770800  0.562700  1
  H  H197  1  0.050300  0.271000  0.835800  1
  H  H198  1  0.449700  0.229000  0.335800  1
  H  H199  1  0.949700  0.729000  0.164200  1
  H  H200  1  0.550300  0.771000  0.664200  1
  H  H201  1  0.973900  0.277300  0.796800  1
  H  H202  1  0.526100  0.222700  0.296800  1
  H  H203  1  0.026100  0.722700  0.203200  1
  H  H204  1  0.473900  0.777300  0.703200  1
  H  H205  1  0.894400  0.295500  0.758900  1
  H  H206  1  0.605600  0.204500  0.258900  1
  H  H207  1  0.105600  0.704500  0.241100  1
  H  H208  1  0.394400  0.795500  0.741100  1
  H  H209  1  0.786200  0.322500  0.839300  1
  H  H210  1  0.713800  0.177500  0.339300  1
  H  H211  1  0.213800  0.677500  0.160700  1
  H  H212  1  0.286200  0.822500  0.660700  1
  H  H213  1  0.845600  0.055900  0.652100  1
  H  H214  1  0.654400  0.444100  0.152100  1
  H  H215  1  0.154400  0.944100  0.347900  1
  H  H216  1  0.345600  0.555900  0.847900  1
  H  H217  1  0.956600  0.045200  0.666800  1
  H  H218  1  0.543400  0.454800  0.166800  1
  H  H219  1  0.043400  0.954800  0.333200  1
  H  H220  1  0.456600  0.545200  0.833200  1
  H  H221  1  0.895900  0.046400  0.768000  1
  H  H222  1  0.604100  0.453600  0.268000  1
  H  H223  1  0.104100  0.953600  0.232000  1
  H  H224  1  0.395900  0.546400  0.732000  1
  H  H225  1  0.814700  0.053100  0.803600  1
  H  H226  1  0.685300  0.446900  0.303600  1
  H  H227  1  0.185300  0.946900  0.196400  1
  H  H228  1  0.314700  0.553100  0.696400  1
  H  H229  1  0.724200  0.061300  0.838500  1
  H  H230  1  0.775800  0.438700  0.338500  1
  H  H231  1  0.275800  0.938700  0.161500  1
  H  H232  1  0.224200  0.561300  0.661500  1
  H  H233  1  0.622800  0.084200  0.753500  1
  H  H234  1  0.877200  0.415800  0.253500  1
  H  H235  1  0.377200  0.915800  0.246500  1
  H  H236  1  0.122800  0.584200  0.746500  1
  H  H237  1  0.751000  0.987300  0.685100  1
  H  H238  1  0.749000  0.512700  0.185100  1
  H  H239  1  0.249000  0.012700  0.314900  1
  H  H240  1  0.251000  0.487300  0.814900  1
  H  H241  1  0.696800  0.925600  0.684700  1
  H  H242  1  0.803200  0.574400  0.184700  1
  H  H243  1  0.303200  0.074400  0.315300  1
  H  H244  1  0.196800  0.425600  0.815300  1
  H  H245  1  0.514100  0.960500  0.688800  1
  H  H246  1  0.985900  0.539500  0.188800  1
  H  H247  1  0.485900  0.039500  0.311200  1
  H  H248  1  0.014100  0.460500  0.811200  1
  H  H249  1  0.463900  0.009000  0.694600  1
  H  H250  1  0.036100  0.491000  0.194600  1
  H  H251  1  0.536100  0.991000  0.305400  1
  H  H252  1  0.963900  0.509000  0.805400  1
  H  H253  1  0.415100  0.062500  0.689400  1
  H  H254  1  0.084900  0.437500  0.189400  1
  H  H255  1  0.584900  0.937500  0.310600  1
  H  H256  1  0.915100  0.562500  0.810600  1
  H  H257  1  0.601600  0.124800  0.677600  1
  H  H258  1  0.898400  0.375200  0.177600  1
  H  H259  1  0.398400  0.875200  0.322400  1
  H  H260  1  0.101600  0.624800  0.822400  1
  H  H261  1  0.686500  0.021400  0.616900  1
  H  H262  1  0.813500  0.478600  0.116900  1
  H  H263  1  0.313500  0.978600  0.383100  1
  H  H264  1  0.186500  0.521400  0.883100  1
  H  H265  1  0.686100  0.031500  0.557600  1
  H  H266  1  0.813900  0.468500  0.057600  1
  H  H267  1  0.313900  0.968500  0.442400  1
  H  H268  1  0.186100  0.531500  0.942400  1
  H  H269  1  0.761000  0.140000  0.575800  1
  H  H270  1  0.739000  0.360000  0.075800  1
  H  H271  1  0.239000  0.860000  0.424200  1
  H  H272  1  0.261000  0.640000  0.924200  1
  H  H273  1  0.818100  0.179100  0.613500  1
  H  H274  1  0.681900  0.320900  0.113500  1
  H  H275  1  0.181900  0.820900  0.386500  1
  H  H276  1  0.318100  0.679100  0.886500  1
  H  H277  1  0.853500  0.222600  0.659200  1
  H  H278  1  0.646500  0.277400  0.159200  1
  H  H279  1  0.146500  0.777400  0.340800  1
  H  H280  1  0.353500  0.722600  0.840800  1
  H  H281  1  0.753000  0.148800  0.726400  1
  H  H282  1  0.747000  0.351200  0.226400  1
  H  H283  1  0.247000  0.851200  0.273600  1
  H  H284  1  0.253000  0.648800  0.773600  1
  H  H285  1  0.254400  0.086900  0.976000  1
  H  H286  1  0.245600  0.413100  0.476000  1
  H  H287  1  0.745600  0.913100  0.024000  1
  H  H288  1  0.754400  0.586900  0.524000  1
  H  H289  1  0.245400  0.106900  0.031700  1
  H  H290  1  0.254600  0.393100  0.531700  1
  H  H291  1  0.754600  0.893100  0.968300  1
  H  H292  1  0.745400  0.606900  0.468300  1
  H  H293  1  0.320500  0.212100  0.000600  1
  H  H294  1  0.179500  0.287900  0.500600  1
  H  H295  1  0.679500  0.787900  0.999400  1
  H  H296  1  0.820500  0.712100  0.499400  1
  H  H297  1  0.358800  0.249000  0.959000  1
  H  H298  1  0.141200  0.251000  0.459000  1
  H  H299  1  0.641200  0.751000  0.041000  1
  H  H300  1  0.858800  0.749000  0.541000  1
  H  H301  1  0.392200  0.285000  0.910300  1
  H  H302  1  0.107800  0.215000  0.410300  1
  H  H303  1  0.607800  0.715000  0.089700  1
  H  H304  1  0.892200  0.785000  0.589700  1
  H  H305  1  0.347200  0.192200  0.850400  1
  H  H306  1  0.152800  0.307800  0.350400  1
  H  H307  1  0.652800  0.807800  0.149600  1
  H  H308  1  0.847200  0.692200  0.649600  1
  H  H309  1  0.177700  0.047100  0.905800  1
  H  H310  1  0.322300  0.452900  0.405800  1
  H  H311  1  0.822300  0.952900  0.094200  1
  H  H312  1  0.677700  0.547100  0.594200  1
  H  H313  1  0.170200  0.982700  0.911300  1
  H  H314  1  0.329800  0.517300  0.411300  1
  H  H315  1  0.829800  0.017300  0.088700  1
  H  H316  1  0.670200  0.482700  0.588700  1
  H  H317  1  0.378200  0.998000  0.915300  1
  H  H318  1  0.121800  0.502000  0.415300  1
  H  H319  1  0.621800  0.002000  0.084700  1
  H  H320  1  0.878200  0.498000  0.584700  1
  H  H321  1  0.470700  0.036300  0.916400  1
  H  H322  1  0.029300  0.463700  0.416400  1
  H  H323  1  0.529300  0.963700  0.083600  1
  H  H324  1  0.970700  0.536300  0.583600  1
  H  H325  1  0.571000  0.082100  0.914000  1
  H  H326  1  0.929000  0.417900  0.414000  1
  H  H327  1  0.429000  0.917900  0.086000  1
  H  H328  1  0.071000  0.582100  0.586000  1
  H  H329  1  0.450600  0.160100  0.902100  1
  H  H330  1  0.049400  0.339900  0.402100  1
  H  H331  1  0.549400  0.839900  0.097900  1
  H  H332  1  0.950600  0.660100  0.597900  1
  H  H333  1  0.147800  0.117400  0.938400  1
  H  H334  1  0.352200  0.382600  0.438400  1
  H  H335  1  0.852200  0.882600  0.061600  1
  H  H336  1  0.647800  0.617400  0.561600  1
  H  H337  1  0.035800  0.120800  0.922600  1
  H  H338  1  0.464200  0.379200  0.422600  1
  H  H339  1  0.964200  0.879200  0.077400  1
  H  H340  1  0.535800  0.620800  0.577400  1
  H  H341  1  0.098500  0.135300  0.823200  1
  H  H342  1  0.401500  0.364700  0.323200  1
  H  H343  1  0.901500  0.864700  0.176800  1
  H  H344  1  0.598500  0.635300  0.676800  1
  H  H345  1  0.183700  0.141300  0.787900  1
  H  H346  1  0.316300  0.358700  0.287900  1
  H  H347  1  0.816300  0.858700  0.212100  1
  H  H348  1  0.683700  0.641300  0.712100  1
  H  H349  1  0.275800  0.134300  0.751000  1
  H  H350  1  0.224200  0.365700  0.251000  1
  H  H351  1  0.724200  0.865700  0.249000  1
  H  H352  1  0.775800  0.634300  0.749000  1
  H  H353  1  0.382500  0.110500  0.834000  1
  H  H354  1  0.117500  0.389500  0.334000  1
  H  H355  1  0.617500  0.889500  0.166000  1
  H  H356  1  0.882500  0.610500  0.666000  1
  H  H357  1  0.383500  0.083900  0.758300  1
  H  H358  1  0.116500  0.416100  0.258300  1
  H  H359  1  0.616500  0.916100  0.241700  1
  H  H360  1  0.883500  0.583900  0.741700  1
  H  H361  1  0.395300  0.126300  0.743700  1
  H  H362  1  0.104700  0.373700  0.243700  1
  H  H363  1  0.604700  0.873700  0.256300  1
  H  H364  1  0.895300  0.626300  0.756300  1
  H  H365  1  0.568700  0.049400  0.823300  1
  H  H366  1  0.931300  0.450600  0.323300  1
  H  H367  1  0.431300  0.950600  0.176700  1
  H  H368  1  0.068700  0.549400  0.676700  1
  H  H369  1  0.613000  0.082600  0.845700  1
  H  H370  1  0.887000  0.417400  0.345700  1
  H  H371  1  0.387000  0.917400  0.154300  1
  H  H372  1  0.113000  0.582600  0.654300  1
  H  H373  1  0.588100  0.374700  0.828100  1
  H  H374  1  0.911900  0.125300  0.328100  1
  H  H375  1  0.411900  0.625300  0.171900  1
  H  H376  1  0.088100  0.874700  0.671900  1
  H  H377  1  0.534000  0.337700  0.838000  1
  H  H378  1  0.966000  0.162300  0.338000  1
  H  H379  1  0.466000  0.662300  0.162000  1
  H  H380  1  0.034000  0.837700  0.662000  1
  H  H381  1  0.793400  0.353700  0.768600  1
  H  H382  1  0.706600  0.146300  0.268600  1
  H  H383  1  0.206600  0.646300  0.231400  1
  H  H384  1  0.293400  0.853700  0.731400  1
  H  H385  1  0.784000  0.314400  0.748000  1
  H  H386  1  0.716000  0.185600  0.248000  1
  H  H387  1  0.216000  0.685600  0.252000  1
  H  H388  1  0.284000  0.814400  0.752000  1
  H  H389  1  0.347600  0.280700  0.837300  1
  H  H390  1  0.152400  0.219300  0.337300  1
  H  H391  1  0.652400  0.719300  0.162700  1
  H  H392  1  0.847600  0.780700  0.662700  1
  H  H393  1  0.427500  0.288000  0.848100  1
  H  H394  1  0.072500  0.212000  0.348100  1
  H  H395  1  0.572500  0.712000  0.151900  1
  H  H396  1  0.927500  0.788000  0.651900  1
  H  H397  1  0.353800  0.190000  0.716700  1
  H  H398  1  0.146200  0.310000  0.216700  1
  H  H399  1  0.646200  0.810000  0.283300  1
  H  H400  1  0.853800  0.690000  0.783300  1
  H  H401  1  0.303800  0.219000  0.726600  1
  H  H402  1  0.196200  0.281000  0.226600  1
  H  H403  1  0.696200  0.781000  0.273400  1
  H  H404  1  0.803800  0.719000  0.773400  1
  H  H405  1  0.470300  0.137900  0.648500  1
  H  H406  1  0.029700  0.362100  0.148500  1
  H  H407  1  0.529700  0.862100  0.351500  1
  H  H408  1  0.970300  0.637900  0.851500  1
  H  H409  1  0.423300  0.130200  0.682700  1
  H  H410  1  0.076700  0.369800  0.182700  1
  H  H411  1  0.576700  0.869800  0.317300  1
  H  H412  1  0.923300  0.630200  0.817300  1
  H  H413  1  0.673100  0.234200  0.657000  1
  H  H414  1  0.826900  0.265800  0.157000  1
  H  H415  1  0.326900  0.765800  0.343000  1
  H  H416  1  0.173100  0.734200  0.843000  1
  H  H417  1  0.701600  0.237100  0.696100  1
  H  H418  1  0.798400  0.262900  0.196100  1
  H  H419  1  0.298400  0.762900  0.303900  1
  H  H420  1  0.201600  0.737100  0.803900  1
  H  H421  1  0.803300  0.146300  0.835400  1
  H  H422  1  0.696700  0.353700  0.335400  1
  H  H423  1  0.196700  0.853700  0.164600  1
  H  H424  1  0.303300  0.646300  0.664600  1
  H  H425  1  0.722100  0.139800  0.842700  1
  H  H426  1  0.777900  0.360200  0.342700  1
  H  H427  1  0.277900  0.860200  0.157300  1
  H  H428  1  0.222100  0.639800  0.657300  1
  H  H429  1  0.875800  0.217500  0.733600  1
  H  H430  1  0.624200  0.282500  0.233600  1
  H  H431  1  0.124200  0.782500  0.266400  1
  H  H432  1  0.375800  0.717500  0.766400  1
  H  H433  1  0.824400  0.243800  0.719100  1
  H  H434  1  0.675600  0.256200  0.219100  1
  H  H435  1  0.175600  0.756200  0.280900  1
  H  H436  1  0.324400  0.743800  0.780900  1
  H  H437  1  0.552200  0.288600  0.931100  1
  H  H438  1  0.947800  0.211400  0.431100  1
  H  H439  1  0.447800  0.711400  0.068900  1
  H  H440  1  0.052200  0.788600  0.568900  1
  H  H441  1  0.536800  0.304800  0.893600  1
  H  H442  1  0.963200  0.195200  0.393600  1
  H  H443  1  0.463200  0.695200  0.106400  1
  H  H444  1  0.036800  0.804800  0.606400  1
  H  H445  1  0.600500  0.162700  0.934300  1
  H  H446  1  0.899500  0.337300  0.434300  1
  H  H447  1  0.399500  0.837300  0.065700  1
  H  H448  1  0.100500  0.662700  0.565700  1
  H  H449  1  0.624300  0.147800  0.897800  1
  H  H450  1  0.875700  0.352200  0.397800  1
  H  H451  1  0.375700  0.852200  0.102200  1
  H  H452  1  0.124300  0.647800  0.602200  1
  H  H453  1  0.671600  0.537800  0.714900  1
  H  H454  1  0.828400  0.962200  0.214900  1
  H  H455  1  0.328400  0.462200  0.285100  1
  H  H456  1  0.171600  0.037800  0.785100  1
  H  H457  1  0.698800  0.537600  0.675600  1
  H  H458  1  0.801200  0.962400  0.175600  1
  H  H459  1  0.301200  0.462400  0.324400  1
  H  H460  1  0.198800  0.037600  0.824400  1
  H  H461  1  0.749600  0.556500  0.705800  1
  H  H462  1  0.750400  0.943500  0.205800  1
  H  H463  1  0.250400  0.443500  0.294200  1
  H  H464  1  0.249600  0.056500  0.794200  1
  H  H465  1  0.823500  0.524500  0.692900  1
  H  H466  1  0.676500  0.975500  0.192900  1
  H  H467  1  0.176500  0.475500  0.307100  1
  H  H468  1  0.323500  0.024500  0.807100  1
  H  H469  1  0.773200  0.509000  0.661300  1
  H  H470  1  0.726800  0.991000  0.161300  1
  H  H471  1  0.226800  0.491000  0.338700  1
  H  H472  1  0.273200  0.009000  0.838700  1
  H  H473  1  0.811400  0.480500  0.682900  1
  H  H474  1  0.688600  0.019500  0.182900  1
  H  H475  1  0.188600  0.519500  0.317100  1
  H  H476  1  0.311400  0.980500  0.817100  1
  H  H477  1  0.690000  0.493400  0.755300  1
  H  H478  1  0.810000  0.006600  0.255300  1
  H  H479  1  0.310000  0.506600  0.244700  1
  H  H480  1  0.190000  0.993400  0.744700  1
  H  H481  1  0.761600  0.522500  0.753900  1
  H  H482  1  0.738400  0.977500  0.253900  1
  H  H483  1  0.238400  0.477500  0.246100  1
  H  H484  1  0.261600  0.022500  0.746100  1
  H  H485  1  0.761800  0.478000  0.755000  1
  H  H486  1  0.738200  0.022000  0.255000  1
  H  H487  1  0.238200  0.522000  0.245000  1
  H  H488  1  0.261800  0.978000  0.745000  1
  H  H489  1  0.537500  0.370800  0.491700  1
  H  H490  1  0.962500  0.129200  0.991700  1
  H  H491  1  0.462500  0.629200  0.508300  1
  H  H492  1  0.037500  0.870800  0.008300  1
  H  H493  1  0.537400  0.336800  0.464600  1
  H  H494  1  0.962600  0.163200  0.964600  1
  H  H495  1  0.462600  0.663200  0.535400  1
  H  H496  1  0.037400  0.836800  0.035400  1
  H  H497  1  0.587400  0.340600  0.497900  1
  H  H498  1  0.912600  0.159400  0.997900  1
  H  H499  1  0.412600  0.659400  0.502100  1
  H  H500  1  0.087400  0.840600  0.002100  1
  H  H501  1  0.401000  0.349300  0.502800  1
  H  H502  1  0.099000  0.150700  0.002800  1
  H  H503  1  0.599000  0.650700  0.497200  1
  H  H504  1  0.901000  0.849300  0.997200  1
  H  H505  1  0.374900  0.305400  0.510400  1
  H  H506  1  0.125100  0.194600  0.010400  1
  H  H507  1  0.625100  0.694600  0.489600  1
  H  H508  1  0.874900  0.805400  0.989600  1
  H  H509  1  0.404900  0.318800  0.472700  1
  H  H510  1  0.095100  0.181200  0.972700  1
  H  H511  1  0.595100  0.681200  0.527300  1
  H  H512  1  0.904900  0.818800  0.027300  1
  H  H513  1  0.496700  0.278000  0.478500  1
  H  H514  1  0.003300  0.222000  0.978500  1
  H  H515  1  0.503300  0.722000  0.521500  1
  H  H516  1  0.996700  0.778000  0.021500  1
  H  H517  1  0.466200  0.264000  0.515900  1
  H  H518  1  0.033800  0.236000  0.015900  1
  H  H519  1  0.533800  0.736000  0.484100  1
  H  H520  1  0.966200  0.764000  0.984100  1
  H  H521  1  0.546600  0.281400  0.511800  1
  H  H522  1  0.953400  0.218600  0.011800  1
  H  H523  1  0.453400  0.718600  0.488200  1
  H  H524  1  0.046600  0.781400  0.988200  1
  H  H525  1  0.162000  0.463100  0.669700  1
  H  H526  1  0.338000  0.036900  0.169700  1
  H  H527  1  0.838000  0.536900  0.330300  1
  H  H528  1  0.662000  0.963100  0.830300  1
  H  H529  1  0.198000  0.439100  0.642300  1
  H  H530  1  0.302000  0.060900  0.142300  1
  H  H531  1  0.802000  0.560900  0.357700  1
  H  H532  1  0.698000  0.939100  0.857700  1
  H  H533  1  0.241200  0.476700  0.659000  1
  H  H534  1  0.258800  0.023300  0.159000  1
  H  H535  1  0.758800  0.523300  0.341000  1
  H  H536  1  0.741200  0.976700  0.841000  1
  H  H537  1  0.245700  0.445200  0.743200  1
  H  H538  1  0.254300  0.054800  0.243200  1
  H  H539  1  0.754300  0.554800  0.256800  1
  H  H540  1  0.745700  0.945200  0.756800  1
  H  H541  1  0.186900  0.465900  0.727200  1
  H  H542  1  0.313100  0.034100  0.227200  1
  H  H543  1  0.813100  0.534100  0.272800  1
  H  H544  1  0.686900  0.965900  0.772800  1
  H  H545  1  0.266500  0.481100  0.718300  1
  H  H546  1  0.233500  0.018900  0.218300  1
  H  H547  1  0.733500  0.518900  0.281700  1
  H  H548  1  0.766500  0.981100  0.781700  1
  H  H549  1  0.183500  0.384500  0.719000  1
  H  H550  1  0.316500  0.115500  0.219000  1
  H  H551  1  0.816500  0.615500  0.281000  1
  H  H552  1  0.683500  0.884500  0.781000  1
  H  H553  1  0.160100  0.382900  0.679000  1
  H  H554  1  0.339900  0.117100  0.179000  1
  H  H555  1  0.839900  0.617100  0.321000  1
  H  H556  1  0.660100  0.882900  0.821000  1
  H  H557  1  0.126700  0.408500  0.706100  1
  H  H558  1  0.373300  0.091500  0.206100  1
  H  H559  1  0.873300  0.591500  0.293900  1
  H  H560  1  0.626700  0.908500  0.793900  1
  H  H561  1  0.887100  0.227200  0.108300  1
  H  H562  1  0.612900  0.272800  0.608300  1
  H  H563  1  0.112900  0.772800  0.891700  1
  H  H564  1  0.387100  0.727200  0.391700  1
  H  H565  1  0.912000  0.263900  0.084900  1
  H  H566  1  0.588000  0.236100  0.584900  1
  H  H567  1  0.088000  0.736100  0.915100  1
  H  H568  1  0.412000  0.763900  0.415100  1
  H  H569  1  0.919700  0.223000  0.070500  1
  H  H570  1  0.580300  0.277000  0.570500  1
  H  H571  1  0.080300  0.777000  0.929500  1
  H  H572  1  0.419700  0.723000  0.429500  1
  H  H573  1  0.772500  0.182800  0.092100  1
  H  H574  1  0.727500  0.317200  0.592100  1
  H  H575  1  0.227500  0.817200  0.907900  1
  H  H576  1  0.272500  0.682800  0.407900  1
  H  H577  1  0.806000  0.175900  0.055100  1
  H  H578  1  0.694000  0.324100  0.555100  1
  H  H579  1  0.194000  0.824100  0.944900  1
  H  H580  1  0.306000  0.675900  0.444900  1
  H  H581  1  0.732700  0.189500  0.056800  1
  H  H582  1  0.767300  0.310500  0.556800  1
  H  H583  1  0.267300  0.810500  0.943200  1
  H  H584  1  0.232700  0.689500  0.443200  1
  H  H585  1  0.759700  0.245800  0.110000  1
  H  H586  1  0.740300  0.254200  0.610000  1
  H  H587  1  0.240300  0.754200  0.890000  1
  H  H588  1  0.259700  0.745800  0.390000  1
  H  H589  1  0.724000  0.253600  0.073800  1
  H  H590  1  0.776000  0.246400  0.573800  1
  H  H591  1  0.276000  0.746400  0.926200  1
  H  H592  1  0.224000  0.753600  0.426200  1
  H  H593  1  0.790700  0.282100  0.087200  1
  H  H594  1  0.709300  0.217900  0.587200  1
  H  H595  1  0.209300  0.717900  0.912800  1
  H  H596  1  0.290700  0.782100  0.412800  1
  H  H597  1  0.904000  0.485700  0.963800  1
  H  H598  1  0.596000  0.014300  0.463800  1
  H  H599  1  0.096000  0.514300  0.036200  1
  H  H600  1  0.404000  0.985700  0.536200  1
  H  H601  1  0.960600  0.521300  0.952500  1
  H  H602  1  0.539400  0.978700  0.452500  1
  H  H603  1  0.039400  0.478700  0.047500  1
  H  H604  1  0.460600  0.021300  0.547500  1
  H  H605  1  0.984600  0.483700  0.966800  1
  H  H606  1  0.515400  0.016300  0.466800  1
  H  H607  1  0.015400  0.516300  0.033200  1
  H  H608  1  0.484600  0.983700  0.533200  1
  H  H609  1  0.018500  0.483600  0.880400  1
  H  H610  1  0.481500  0.016400  0.380400  1
  H  H611  1  0.981500  0.516400  0.119600  1
  H  H612  1  0.518500  0.983600  0.619600  1
  H  H613  1  0.051200  0.482800  0.918600  1
  H  H614  1  0.448800  0.017200  0.418600  1
  H  H615  1  0.948800  0.517200  0.081400  1
  H  H616  1  0.551200  0.982800  0.581400  1
  H  H617  1  0.026100  0.520300  0.904800  1
  H  H618  1  0.473900  0.979700  0.404800  1
  H  H619  1  0.973900  0.479700  0.095200  1
  H  H620  1  0.526100  0.020300  0.595200  1
  H  H621  1  0.905300  0.484800  0.869200  1
  H  H622  1  0.594700  0.015200  0.369200  1
  H  H623  1  0.094700  0.515200  0.130800  1
  H  H624  1  0.405300  0.984800  0.630800  1
  H  H625  1  0.917900  0.523800  0.890400  1
  H  H626  1  0.582100  0.976200  0.390400  1
  H  H627  1  0.082100  0.476200  0.109600  1
  H  H628  1  0.417900  0.023800  0.609600  1
  H  H629  1  0.854000  0.491400  0.900200  1
  H  H630  1  0.646000  0.008600  0.400200  1
  H  H631  1  0.146000  0.508600  0.099800  1
  H  H632  1  0.354000  0.991400  0.599800  1
  H  H633  1  0.170000  0.235900  0.924900  1
  H  H634  1  0.330000  0.264100  0.424900  1
  H  H635  1  0.830000  0.764100  0.075100  1
  H  H636  1  0.670000  0.735900  0.575100  1
  H  H637  1  0.218900  0.221900  0.896000  1
  H  H638  1  0.281100  0.278100  0.396000  1
  H  H639  1  0.781100  0.778100  0.104000  1
  H  H640  1  0.718900  0.721900  0.604000  1
  H  H641  1  0.138000  0.204900  0.896700  1
  H  H642  1  0.362000  0.295100  0.396700  1
  H  H643  1  0.862000  0.795100  0.103300  1
  H  H644  1  0.638000  0.704900  0.603300  1
  H  H645  1  0.154800  0.266100  0.825600  1
  H  H646  1  0.345200  0.233900  0.325600  1
  H  H647  1  0.845200  0.733900  0.174400  1
  H  H648  1  0.654800  0.766100  0.674400  1
  H  H649  1  0.128600  0.223300  0.837600  1
  H  H650  1  0.371400  0.276700  0.337600  1
  H  H651  1  0.871400  0.776700  0.162400  1
  H  H652  1  0.628600  0.723300  0.662400  1
  H  H653  1  0.209500  0.240200  0.837100  1
  H  H654  1  0.290500  0.259800  0.337100  1
  H  H655  1  0.790500  0.759800  0.162900  1
  H  H656  1  0.709500  0.740200  0.662900  1
  H  H657  1  0.204700  0.301200  0.909400  1
  H  H658  1  0.295300  0.198800  0.409400  1
  H  H659  1  0.795300  0.698800  0.090600  1
  H  H660  1  0.704700  0.801200  0.590600  1
  H  H661  1  0.200300  0.314800  0.869900  1
  H  H662  1  0.299700  0.185200  0.369900  1
  H  H663  1  0.799700  0.685200  0.130100  1
  H  H664  1  0.700300  0.814800  0.630100  1
  H  H665  1  0.257200  0.290000  0.880900  1
  H  H666  1  0.242800  0.210000  0.380900  1
  H  H667  1  0.742800  0.710000  0.119100  1
  H  H668  1  0.757200  0.790000  0.619100  1
  H  H669  1  0.735500  0.068600  0.474600  1
  H  H670  1  0.764500  0.431400  0.974600  1
  H  H671  1  0.264500  0.931400  0.525400  1
  H  H672  1  0.235500  0.568600  0.025400  1
  H  H673  1  0.706800  0.039000  0.504600  1
  H  H674  1  0.793200  0.461000  0.004600  1
  H  H675  1  0.293200  0.961000  0.495400  1
  H  H676  1  0.206800  0.539000  0.995400  1
  H  H677  1  0.786500  0.058500  0.504400  1
  H  H678  1  0.713500  0.441500  0.004400  1
  H  H679  1  0.213500  0.941500  0.495600  1
  H  H680  1  0.286500  0.558500  0.995600  1
  H  H681  1  0.642500  0.094900  0.484000  1
  H  H682  1  0.857500  0.405100  0.984000  1
  H  H683  1  0.357500  0.905100  0.516000  1
  H  H684  1  0.142500  0.594900  0.016000  1
  H  H685  1  0.622800  0.109600  0.521500  1
  H  H686  1  0.877200  0.390400  0.021500  1
  H  H687  1  0.377200  0.890400  0.478500  1
  H  H688  1  0.122800  0.609600  0.978500  1
  H  H689  1  0.618800  0.065300  0.514800  1
  H  H690  1  0.881200  0.434700  0.014800  1
  H  H691  1  0.381200  0.934700  0.485200  1
  H  H692  1  0.118800  0.565300  0.985200  1
  H  H693  1  0.752100  0.136800  0.484800  1
  H  H694  1  0.747900  0.363200  0.984800  1
  H  H695  1  0.247900  0.863200  0.515200  1
  H  H696  1  0.252100  0.636800  0.015200  1
  H  H697  1  0.805200  0.138700  0.516600  1
  H  H698  1  0.694800  0.361300  0.016600  1
  H  H699  1  0.194800  0.861300  0.483400  1
  H  H700  1  0.305200  0.638700  0.983400  1
  H  H701  1  0.732900  0.152800  0.521800  1
  H  H702  1  0.767100  0.347200  0.021800  1
  H  H703  1  0.267100  0.847200  0.478200  1
  H  H704  1  0.232900  0.652800  0.978200  1
  H  H705  1  0.082800  0.048200  0.766400  1
  H  H706  1  0.417200  0.451800  0.266400  1
  H  H707  1  0.917200  0.951800  0.233600  1
  H  H708  1  0.582800  0.548200  0.733600  1
  H  H709  1  0.009300  0.055900  0.779700  1
  H  H710  1  0.490700  0.444100  0.279700  1
  H  H711  1  0.990700  0.944100  0.220300  1
  H  H712  1  0.509300  0.555900  0.720300  1
  H  H713  1  0.050700  0.082700  0.750600  1
  H  H714  1  0.449300  0.417300  0.250600  1
  H  H715  1  0.949300  0.917300  0.249400  1
  H  H716  1  0.550700  0.582700  0.749400  1
  H  H717  1  0.972400  0.974700  0.727300  1
  H  H718  1  0.527600  0.525300  0.227300  1
  H  H719  1  0.027600  0.025300  0.272700  1
  H  H720  1  0.472400  0.474700  0.772700  1
  H  H721  1  0.965400  0.989600  0.766300  1
  H  H722  1  0.534600  0.510400  0.266300  1
  H  H723  1  0.034600  0.010400  0.233700  1
  H  H724  1  0.465400  0.489600  0.733700  1
  H  H725  1  0.039600  0.984900  0.751400  1
  H  H726  1  0.460400  0.515100  0.251400  1
  H  H727  1  0.960400  0.015100  0.248600  1
  H  H728  1  0.539600  0.484900  0.748600  1
  H  H729  1  0.020600  0.008800  0.684100  1
  H  H730  1  0.479400  0.491200  0.184100  1
  H  H731  1  0.979400  0.991200  0.315900  1
  H  H732  1  0.520600  0.508800  0.815900  1
  H  H733  1  0.089100  0.015400  0.707600  1
  H  H734  1  0.410900  0.484600  0.207600  1
  H  H735  1  0.910900  0.984600  0.292400  1
  H  H736  1  0.589100  0.515400  0.792400  1
  H  H737  1  0.064000  0.050500  0.688900  1
  H  H738  1  0.436000  0.449500  0.188900  1
  H  H739  1  0.936000  0.949500  0.311100  1
  H  H740  1  0.564000  0.550500  0.811100  1
  H  H741  1  0.628100  0.879000  0.713700  1
  H  H742  1  0.871900  0.621000  0.213700  1
  H  H743  1  0.371900  0.121000  0.286300  1
  H  H744  1  0.128100  0.379000  0.786300  1
  H  H745  1  0.601300  0.856500  0.678900  1
  H  H746  1  0.898700  0.643500  0.178900  1
  H  H747  1  0.398700  0.143500  0.321100  1
  H  H748  1  0.101300  0.356500  0.821100  1
  H  H749  1  0.556000  0.850200  0.713800  1
  H  H750  1  0.944000  0.649800  0.213800  1
  H  H751  1  0.444000  0.149800  0.286200  1
  H  H752  1  0.056000  0.350200  0.786200  1
  H  H753  1  0.574900  0.896300  0.631200  1
  H  H754  1  0.925100  0.603700  0.131200  1
  H  H755  1  0.425100  0.103700  0.368800  1
  H  H756  1  0.074900  0.396300  0.868800  1
  H  H757  1  0.570200  0.854700  0.647000  1
  H  H758  1  0.929800  0.645300  0.147000  1
  H  H759  1  0.429800  0.145300  0.353000  1
  H  H760  1  0.070200  0.354700  0.853000  1
  H  H761  1  0.639000  0.885400  0.652200  1
  H  H762  1  0.861000  0.614600  0.152200  1
  H  H763  1  0.361000  0.114600  0.347800  1
  H  H764  1  0.139000  0.385400  0.847800  1
  H  H765  1  0.475300  0.916500  0.666300  1
  H  H766  1  0.024700  0.583500  0.166300  1
  H  H767  1  0.524700  0.083500  0.333700  1
  H  H768  1  0.975300  0.416500  0.833700  1
  H  H769  1  0.453400  0.874600  0.681500  1
  H  H770  1  0.046600  0.625400  0.181500  1
  H  H771  1  0.546600  0.125400  0.318500  1
  H  H772  1  0.953400  0.374600  0.818500  1
  H  H773  1  0.498500  0.881400  0.646500  1
  H  H774  1  0.001500  0.618600  0.146500  1
  H  H775  1  0.501500  0.118600  0.353500  1
  H  H776  1  0.998500  0.381400  0.853500  1
  H  H777  1  0.931000  0.084000  0.884500  1
  H  H778  1  0.569000  0.416000  0.384500  1
  H  H779  1  0.069000  0.916000  0.115500  1
  H  H780  1  0.431000  0.584000  0.615500  1
  H  H781  1  0.880100  0.113300  0.876400  1
  H  H782  1  0.619900  0.386700  0.376400  1
  H  H783  1  0.119900  0.886700  0.123600  1
  H  H784  1  0.380100  0.613300  0.623600  1
  H  H785  1  0.933300  0.120900  0.908300  1
  H  H786  1  0.566700  0.379100  0.408300  1
  H  H787  1  0.066700  0.879100  0.091700  1
  H  H788  1  0.433300  0.620900  0.591700  1
  H  H789  1  0.966500  0.089600  0.824400  1
  H  H790  1  0.533500  0.410400  0.324400  1
  H  H791  1  0.033500  0.910400  0.175600  1
  H  H792  1  0.466500  0.589600  0.675600  1
  H  H793  1  0.996200  0.129900  0.807300  1
  H  H794  1  0.503800  0.370100  0.307300  1
  H  H795  1  0.003800  0.870100  0.192700  1
  H  H796  1  0.496200  0.629900  0.692700  1
  H  H797  1  0.916400  0.119700  0.818200  1
  H  H798  1  0.583600  0.380300  0.318200  1
  H  H799  1  0.083600  0.880300  0.181800  1
  H  H800  1  0.416400  0.619700  0.681800  1
  H  H801  1  0.928800  0.175700  0.852100  1
  H  H802  1  0.571200  0.324300  0.352100  1
  H  H803  1  0.071200  0.824300  0.147900  1
  H  H804  1  0.428800  0.675700  0.647900  1
  H  H805  1  0.009100  0.186000  0.842200  1
  H  H806  1  0.490900  0.314000  0.342200  1
  H  H807  1  0.990900  0.814000  0.157800  1
  H  H808  1  0.509100  0.686000  0.657800  1
  H  H809  1  0.985800  0.184200  0.882300  1
  H  H810  1  0.514200  0.315800  0.382300  1
  H  H811  1  0.014200  0.815800  0.117700  1
  H  H812  1  0.485800  0.684200  0.617700  1
  H  H813  1  0.166200  0.922700  0.924300  1
  H  H814  1  0.333800  0.577300  0.424300  1
  H  H815  1  0.833800  0.077300  0.075700  1
  H  H816  1  0.666200  0.422700  0.575700  1
  H  H817  1  0.205800  0.891300  0.908300  1
  H  H818  1  0.294200  0.608700  0.408300  1
  H  H819  1  0.794200  0.108700  0.091700  1
  H  H820  1  0.705800  0.391300  0.591700  1
  H  H821  1  0.190700  0.925500  0.884400  1
  H  H822  1  0.309300  0.574500  0.384400  1
  H  H823  1  0.809300  0.074500  0.115600  1
  H  H824  1  0.690700  0.425500  0.615600  1
  H  H825  1  0.322000  0.945300  0.962100  1
  H  H826  1  0.178000  0.554700  0.462100  1
  H  H827  1  0.678000  0.054700  0.037900  1
  H  H828  1  0.822000  0.445300  0.537900  1
  H  H829  1  0.278600  0.903700  0.956300  1
  H  H830  1  0.221400  0.596300  0.456300  1
  H  H831  1  0.721400  0.096300  0.043700  1
  H  H832  1  0.778600  0.403700  0.543700  1
  H  H833  1  0.240200  0.937300  0.968600  1
  H  H834  1  0.259800  0.562700  0.468600  1
  H  H835  1  0.759800  0.062700  0.031400  1
  H  H836  1  0.740200  0.437300  0.531400  1
  H  H837  1  0.344900  0.932900  0.888400  1
  H  H838  1  0.155100  0.567100  0.388400  1
  H  H839  1  0.655100  0.067100  0.111600  1
  H  H840  1  0.844900  0.432900  0.611600  1
  H  H841  1  0.273000  0.929500  0.868000  1
  H  H842  1  0.227000  0.570500  0.368000  1
  H  H843  1  0.727000  0.070500  0.132000  1
  H  H844  1  0.773000  0.429500  0.632000  1
  H  H845  1  0.287400  0.895700  0.892600  1
  H  H846  1  0.212600  0.604300  0.392600  1
  H  H847  1  0.712600  0.104300  0.107400  1
  H  H848  1  0.787400  0.395700  0.607400  1
  H  H849  1  0.215900  0.132700  0.084500  1
  H  H850  1  0.284100  0.367300  0.584500  1
  H  H851  1  0.784100  0.867300  0.915500  1
  H  H852  1  0.715900  0.632700  0.415500  1
  H  H853  1  0.179400  0.165000  0.067600  1
  H  H854  1  0.320600  0.335000  0.567600  1
  H  H855  1  0.820600  0.835000  0.932400  1
  H  H856  1  0.679400  0.665000  0.432400  1
  H  H857  1  0.218500  0.172200  0.104200  1
  H  H858  1  0.281500  0.327800  0.604200  1
  H  H859  1  0.781500  0.827800  0.895800  1
  H  H860  1  0.718500  0.672200  0.395800  1
  H  H861  1  0.334900  0.133200  0.071400  1
  H  H862  1  0.165100  0.366800  0.571400  1
  H  H863  1  0.665100  0.866800  0.928600  1
  H  H864  1  0.834900  0.633200  0.428600  1
  H  H865  1  0.301800  0.149500  0.105000  1
  H  H866  1  0.198200  0.350500  0.605000  1
  H  H867  1  0.698200  0.850500  0.895000  1
  H  H868  1  0.801800  0.649500  0.395000  1
  H  H869  1  0.372200  0.171900  0.088800  1
  H  H870  1  0.127800  0.328100  0.588800  1
  H  H871  1  0.627800  0.828100  0.911200  1
  H  H872  1  0.872200  0.671900  0.411200  1
  H  H873  1  0.245600  0.217000  0.043400  1
  H  H874  1  0.254400  0.283000  0.543400  1
  H  H875  1  0.754400  0.783000  0.956600  1
  H  H876  1  0.745600  0.717000  0.456600  1
  H  H877  1  0.308700  0.230600  0.069400  1
  H  H878  1  0.191300  0.269400  0.569400  1
  H  H879  1  0.691300  0.769400  0.930600  1
  H  H880  1  0.808700  0.730600  0.430600  1
  H  H881  1  0.235900  0.210000  0.084500  1
  H  H882  1  0.264100  0.290000  0.584500  1
  H  H883  1  0.764100  0.790000  0.915500  1
  H  H884  1  0.735900  0.710000  0.415500  1
  C  C885  1  0.377500  0.396600  0.650200  1
  C  C886  1  0.122500  0.103400  0.150200  1
  C  C887  1  0.622500  0.603400  0.349800  1
  C  C888  1  0.877500  0.896600  0.849800  1
  C  C889  1  0.318000  0.411900  0.653400  1
  C  C890  1  0.182000  0.088100  0.153400  1
  C  C891  1  0.682000  0.588100  0.346600  1
  C  C892  1  0.818000  0.911900  0.846600  1
  C  C893  1  0.291300  0.417400  0.686500  1
  C  C894  1  0.208700  0.082600  0.186500  1
  C  C895  1  0.708700  0.582600  0.313500  1
  C  C896  1  0.791300  0.917400  0.813500  1
  C  C897  1  0.329500  0.406600  0.714100  1
  C  C898  1  0.170500  0.093400  0.214100  1
  C  C899  1  0.670500  0.593400  0.285900  1
  C  C900  1  0.829500  0.906600  0.785900  1
  C  C901  1  0.389100  0.391400  0.708900  1
  C  C902  1  0.110900  0.108600  0.208900  1
  C  C903  1  0.610900  0.608600  0.291100  1
  C  C904  1  0.889100  0.891400  0.791100  1
  C  C905  1  0.430900  0.380500  0.738300  1
  C  C906  1  0.069100  0.119500  0.238300  1
  C  C907  1  0.569100  0.619500  0.261700  1
  C  C908  1  0.930900  0.880500  0.761700  1
  C  C909  1  0.421400  0.390000  0.772300  1
  C  C910  1  0.078600  0.110000  0.272300  1
  C  C911  1  0.578600  0.610000  0.227700  1
  C  C912  1  0.921400  0.890000  0.727700  1
  C  C913  1  0.459100  0.378100  0.798300  1
  C  C914  1  0.040900  0.121900  0.298300  1
  C  C915  1  0.540900  0.621900  0.201700  1
  C  C916  1  0.959100  0.878100  0.701700  1
  C  C917  1  0.513000  0.360200  0.790300  1
  C  C918  1  0.987000  0.139800  0.290300  1
  C  C919  1  0.487000  0.639800  0.209700  1
  C  C920  1  0.013000  0.860200  0.709700  1
  C  C921  1  0.521300  0.352810  0.755670  1
  C  C922  1  0.978700  0.147190  0.255670  1
  C  C923  1  0.478700  0.647190  0.244330  1
  C  C924  1  0.021300  0.852810  0.744330  1
  C  C925  1  0.569700  0.441300  0.674600  1
  C  C926  1  0.930300  0.058700  0.174600  1
  C  C927  1  0.430300  0.558700  0.325400  1
  C  C928  1  0.069700  0.941300  0.825400  1
  C  C929  1  0.623100  0.470500  0.684600  1
  C  C930  1  0.876900  0.029500  0.184600  1
  C  C931  1  0.376900  0.529500  0.315400  1
  C  C932  1  0.123100  0.970500  0.815400  1
  C  C933  1  0.683200  0.464700  0.696100  1
  C  C934  1  0.816800  0.035300  0.196100  1
  C  C935  1  0.316800  0.535300  0.303900  1
  C  C936  1  0.183200  0.964700  0.803900  1
  C  C937  1  0.691300  0.427300  0.695700  1
  C  C938  1  0.808700  0.072700  0.195700  1
  C  C939  1  0.308700  0.572700  0.304300  1
  C  C940  1  0.191300  0.927300  0.804300  1
  C  C941  1  0.640000  0.398300  0.684820  1
  C  C942  1  0.860000  0.101700  0.184820  1
  C  C943  1  0.360000  0.601700  0.315180  1
  C  C944  1  0.140000  0.898300  0.815180  1
  C  C945  1  0.650000  0.358700  0.684150  1
  C  C946  1  0.850000  0.141300  0.184150  1
  C  C947  1  0.350000  0.641300  0.315850  1
  C  C948  1  0.150000  0.858700  0.815850  1
  C  C949  1  0.713900  0.348000  0.683600  1
  C  C950  1  0.786100  0.152000  0.183600  1
  C  C951  1  0.286100  0.652000  0.316400  1
  C  C952  1  0.213900  0.848000  0.816400  1
  C  C953  1  0.718300  0.310200  0.682210  1
  C  C954  1  0.781700  0.189800  0.182210  1
  C  C955  1  0.281700  0.689800  0.317790  1
  C  C956  1  0.218300  0.810200  0.817790  1
  C  C957  1  0.659300  0.282700  0.681540  1
  C  C958  1  0.840700  0.217300  0.181540  1
  C  C959  1  0.340700  0.717300  0.318460  1
  C  C960  1  0.159300  0.782700  0.818460  1
  C  C961  1  0.597200  0.296100  0.681930  1
  C  C962  1  0.902800  0.203900  0.181930  1
  C  C963  1  0.402800  0.703900  0.318070  1
  C  C964  1  0.097200  0.796100  0.818070  1
  C  C965  1  0.520300  0.370300  0.596400  1
  C  C966  1  0.979700  0.129700  0.096400  1
  C  C967  1  0.479700  0.629700  0.403600  1
  C  C968  1  0.020300  0.870300  0.903600  1
  C  C969  1  0.518700  0.363900  0.561400  1
  C  C970  1  0.981300  0.136100  0.061400  1
  C  C971  1  0.481300  0.636100  0.438600  1
  C  C972  1  0.018700  0.863900  0.938600  1
  C  C973  1  0.488400  0.330300  0.549700  1
  C  C974  1  0.011600  0.169700  0.049700  1
  C  C975  1  0.511600  0.669700  0.450300  1
  C  C976  1  0.988400  0.830300  0.950300  1
  C  C977  1  0.458500  0.304400  0.574500  1
  C  C978  1  0.041500  0.195600  0.074500  1
  C  C979  1  0.541500  0.695600  0.425500  1
  C  C980  1  0.958500  0.804400  0.925500  1
  C  C981  1  0.461800  0.312900  0.610010  1
  C  C982  1  0.038200  0.187100  0.110010  1
  C  C983  1  0.538200  0.687100  0.389990  1
  C  C984  1  0.961800  0.812900  0.889990  1
  C  C985  1  0.431900  0.286000  0.638100  1
  C  C986  1  0.068100  0.214000  0.138100  1
  C  C987  1  0.568100  0.714000  0.361900  1
  C  C988  1  0.931900  0.786000  0.861900  1
  C  C989  1  0.401300  0.250500  0.632700  1
  C  C990  1  0.098700  0.249500  0.132700  1
  C  C991  1  0.598700  0.749500  0.367300  1
  C  C992  1  0.901300  0.750500  0.867300  1
  C  C993  1  0.377000  0.226800  0.659400  1
  C  C994  1  0.123000  0.273200  0.159400  1
  C  C995  1  0.623000  0.773200  0.340600  1
  C  C996  1  0.877000  0.726800  0.840600  1
  C  C997  1  0.379900  0.240500  0.694000  1
  C  C998  1  0.120100  0.259500  0.194000  1
  C  C999  1  0.620100  0.759500  0.306000  1
  C  C1000  1  0.879900  0.740500  0.806000  1
  C  C1001  1  0.412000  0.277100  0.697100  1
  C  C1002  1  0.088000  0.222900  0.197100  1
  C  C1003  1  0.588000  0.722900  0.302900  1
  C  C1004  1  0.912000  0.777100  0.802900  1
  C  C1005  1  0.954300  0.375800  0.925700  1
  C  C1006  1  0.545700  0.124200  0.425700  1
  C  C1007  1  0.045700  0.624200  0.074300  1
  C  C1008  1  0.454300  0.875800  0.574300  1
  C  C1009  1  0.974800  0.413900  0.925900  1
  C  C1010  1  0.525200  0.086100  0.425900  1
  C  C1011  1  0.025200  0.586100  0.074100  1
  C  C1012  1  0.474800  0.913900  0.574100  1
  C  C1013  1  0.926600  0.437300  0.919100  1
  C  C1014  1  0.573400  0.062700  0.419100  1
  C  C1015  1  0.073400  0.562700  0.080900  1
  C  C1016  1  0.426600  0.937300  0.580900  1
  C  C1017  1  0.860700  0.419300  0.912600  1
  C  C1018  1  0.639300  0.080700  0.412600  1
  C  C1019  1  0.139300  0.580700  0.087400  1
  C  C1020  1  0.360700  0.919300  0.587400  1
  C  C1021  1  0.841900  0.379800  0.913830  1
  C  C1022  1  0.658100  0.120200  0.413830  1
  C  C1023  1  0.158100  0.620200  0.086170  1
  C  C1024  1  0.341900  0.879800  0.586170  1
  C  C1025  1  0.769700  0.358900  0.909830  1
  C  C1026  1  0.730300  0.141100  0.409830  1
  C  C1027  1  0.230300  0.641100  0.090170  1
  C  C1028  1  0.269700  0.858900  0.590170  1
  C  C1029  1  0.713500  0.376900  0.906700  1
  C  C1030  1  0.786500  0.123100  0.406700  1
  C  C1031  1  0.286500  0.623100  0.093300  1
  C  C1032  1  0.213500  0.876900  0.593300  1
  C  C1033  1  0.647400  0.354200  0.906090  1
  C  C1034  1  0.852600  0.145800  0.406090  1
  C  C1035  1  0.352600  0.645800  0.093910  1
  C  C1036  1  0.147400  0.854200  0.593910  1
  C  C1037  1  0.638900  0.315900  0.906750  1
  C  C1038  1  0.861100  0.184100  0.406750  1
  C  C1039  1  0.361100  0.684100  0.093250  1
  C  C1040  1  0.138900  0.815900  0.593250  1
  C  C1041  1  0.699000  0.301000  0.908260  1
  C  C1042  1  0.801000  0.199000  0.408260  1
  C  C1043  1  0.301000  0.699000  0.091740  1
  C  C1044  1  0.199000  0.801000  0.591740  1
  C  C1045  1  0.866100  0.299000  0.991000  1
  C  C1046  1  0.633900  0.201000  0.491000  1
  C  C1047  1  0.133900  0.701000  0.009000  1
  C  C1048  1  0.366100  0.799000  0.509000  1
  C  C1049  1  0.856300  0.285400  0.025100  1
  C  C1050  1  0.643700  0.214600  0.525100  1
  C  C1051  1  0.143700  0.714600  0.974900  1
  C  C1052  1  0.356300  0.785400  0.474900  1
  C  C1053  1  0.825700  0.248100  0.031100  1
  C  C1054  1  0.674300  0.251900  0.531100  1
  C  C1055  1  0.174300  0.751900  0.968900  1
  C  C1056  1  0.325700  0.748100  0.468900  1
  C  C1057  1  0.808000  0.226000  0.000700  1
  C  C1058  1  0.692000  0.274000  0.500700  1
  C  C1059  1  0.192000  0.774000  0.999300  1
  C  C1060  1  0.308000  0.726000  0.499300  1
  C  C1061  1  0.820700  0.241500  0.967460  1
  C  C1062  1  0.679300  0.258500  0.467460  1
  C  C1063  1  0.179300  0.758500  0.032540  1
  C  C1064  1  0.320700  0.741500  0.532540  1
  C  C1065  1  0.803000  0.218800  0.935980  1
  C  C1066  1  0.697000  0.281200  0.435980  1
  C  C1067  1  0.197000  0.781200  0.064020  1
  C  C1068  1  0.303000  0.718800  0.564020  1
  C  C1069  1  0.787500  0.179600  0.936610  1
  C  C1070  1  0.712500  0.320400  0.436610  1
  C  C1071  1  0.212500  0.820400  0.063390  1
  C  C1072  1  0.287500  0.679600  0.563390  1
  C  C1073  1  0.773200  0.160700  0.904960  1
  C  C1074  1  0.726800  0.339300  0.404960  1
  C  C1075  1  0.226800  0.839300  0.095040  1
  C  C1076  1  0.273200  0.660700  0.595040  1
  C  C1077  1  0.776900  0.180300  0.873950  1
  C  C1078  1  0.723100  0.319700  0.373950  1
  C  C1079  1  0.223100  0.819700  0.126050  1
  C  C1080  1  0.276900  0.680300  0.626050  1
  C  C1081  1  0.794600  0.219300  0.875880  1
  C  C1082  1  0.705400  0.280700  0.375880  1
  C  C1083  1  0.205400  0.780700  0.124120  1
  C  C1084  1  0.294600  0.719300  0.624120  1
  C  C1085  1  0.001400  0.281300  0.927500  1
  C  C1086  1  0.498600  0.218700  0.427500  1
  C  C1087  1  0.998600  0.718700  0.072500  1
  C  C1088  1  0.501400  0.781300  0.572500  1
  C  C1089  1  0.067100  0.272800  0.919100  1
  C  C1090  1  0.432900  0.227200  0.419100  1
  C  C1091  1  0.932900  0.727200  0.080900  1
  C  C1092  1  0.567100  0.772800  0.580900  1
  C  C1093  1  0.085700  0.267400  0.884800  1
  C  C1094  1  0.414300  0.232600  0.384800  1
  C  C1095  1  0.914300  0.732600  0.115200  1
  C  C1096  1  0.585700  0.767400  0.615200  1
  C  C1097  1  0.038800  0.273000  0.859700  1
  C  C1098  1  0.461200  0.227000  0.359700  1
  C  C1099  1  0.961200  0.727000  0.140300  1
  C  C1100  1  0.538800  0.773000  0.640300  1
  C  C1101  1  0.975800  0.281400  0.868400  1
  C  C1102  1  0.524200  0.218600  0.368400  1
  C  C1103  1  0.024200  0.718600  0.131600  1
  C  C1104  1  0.475800  0.781400  0.631600  1
  C  C1105  1  0.924900  0.289640  0.841500  1
  C  C1106  1  0.575100  0.210360  0.341500  1
  C  C1107  1  0.075100  0.710360  0.158500  1
  C  C1108  1  0.424900  0.789640  0.658500  1
  C  C1109  1  0.934900  0.286800  0.805500  1
  C  C1110  1  0.565100  0.213200  0.305500  1
  C  C1111  1  0.065100  0.713200  0.194500  1
  C  C1112  1  0.434900  0.786800  0.694500  1
  C  C1113  1  0.888400  0.297700  0.783300  1
  C  C1114  1  0.611600  0.202300  0.283300  1
  C  C1115  1  0.111600  0.702300  0.216700  1
  C  C1116  1  0.388400  0.797700  0.716700  1
  C  C1117  1  0.832400  0.312000  0.796030  1
  C  C1118  1  0.667600  0.188000  0.296030  1
  C  C1119  1  0.167600  0.688000  0.203970  1
  C  C1120  1  0.332400  0.812000  0.703970  1
  C  C1121  1  0.825300  0.313100  0.830590  1
  C  C1122  1  0.674700  0.186900  0.330590  1
  C  C1123  1  0.174700  0.686900  0.169410  1
  C  C1124  1  0.325300  0.813100  0.669410  1
  C  C1125  1  0.857100  0.054700  0.676100  1
  C  C1126  1  0.642900  0.445300  0.176100  1
  C  C1127  1  0.142900  0.945300  0.323900  1
  C  C1128  1  0.357100  0.554700  0.823900  1
  C  C1129  1  0.923600  0.047200  0.684500  1
  C  C1130  1  0.576400  0.452800  0.184500  1
  C  C1131  1  0.076400  0.952800  0.315500  1
  C  C1132  1  0.423600  0.547200  0.815500  1
  C  C1133  1  0.939000  0.042900  0.719700  1
  C  C1134  1  0.561000  0.457100  0.219700  1
  C  C1135  1  0.061000  0.957100  0.280300  1
  C  C1136  1  0.439000  0.542900  0.780300  1
  C  C1137  1  0.887400  0.048500  0.743700  1
  C  C1138  1  0.612600  0.451500  0.243700  1
  C  C1139  1  0.112600  0.951500  0.256300  1
  C  C1140  1  0.387400  0.548500  0.756300  1
  C  C1141  1  0.826100  0.056800  0.733200  1
  C  C1142  1  0.673900  0.443200  0.233200  1
  C  C1143  1  0.173900  0.943200  0.266800  1
  C  C1144  1  0.326100  0.556800  0.766800  1
  C  C1145  1  0.772000  0.062800  0.757900  1
  C  C1146  1  0.728000  0.437200  0.257900  1
  C  C1147  1  0.228000  0.937200  0.242100  1
  C  C1148  1  0.272000  0.562800  0.742100  1
  C  C1149  1  0.774100  0.059100  0.793100  1
  C  C1150  1  0.725900  0.440900  0.293100  1
  C  C1151  1  0.225900  0.940900  0.206900  1
  C  C1152  1  0.274100  0.559100  0.706900  1
  C  C1153  1  0.720300  0.063800  0.813900  1
  C  C1154  1  0.779700  0.436200  0.313900  1
  C  C1155  1  0.279700  0.936200  0.186100  1
  C  C1156  1  0.220300  0.563800  0.686100  1
  C  C1157  1  0.660800  0.072100  0.799900  1
  C  C1158  1  0.839200  0.427900  0.299900  1
  C  C1159  1  0.339200  0.927900  0.200100  1
  C  C1160  1  0.160800  0.572100  0.700100  1
  C  C1161  1  0.662200  0.076900  0.764100  1
  C  C1162  1  0.837800  0.423100  0.264100  1
  C  C1163  1  0.337800  0.923100  0.235900  1
  C  C1164  1  0.162200  0.576900  0.735900  1
  C  C1165  1  0.701900  0.981800  0.686000  1
  C  C1166  1  0.798100  0.518200  0.186000  1
  C  C1167  1  0.298100  0.018200  0.314000  1
  C  C1168  1  0.201900  0.481800  0.814000  1
  C  C1169  1  0.670000  0.945200  0.685800  1
  C  C1170  1  0.830000  0.554800  0.185800  1
  C  C1171  1  0.330000  0.054800  0.314200  1
  C  C1172  1  0.170000  0.445200  0.814200  1
  C  C1173  1  0.601200  0.936500  0.687300  1
  C  C1174  1  0.898800  0.563500  0.187300  1
  C  C1175  1  0.398800  0.063500  0.312700  1
  C  C1176  1  0.101200  0.436500  0.812700  1
  C  C1177  1  0.563200  0.965900  0.688600  1
  C  C1178  1  0.936800  0.534100  0.188600  1
  C  C1179  1  0.436800  0.034100  0.311400  1
  C  C1180  1  0.063200  0.465900  0.811400  1
  C  C1181  1  0.597600  0.003400  0.689700  1
  C  C1182  1  0.902400  0.496600  0.189700  1
  C  C1183  1  0.402400  0.996600  0.310300  1
  C  C1184  1  0.097600  0.503400  0.810300  1
  C  C1185  1  0.561700  0.035700  0.688900  1
  C  C1186  1  0.938300  0.464300  0.188900  1
  C  C1187  1  0.438300  0.964300  0.311100  1
  C  C1188  1  0.061700  0.535700  0.811100  1
  C  C1189  1  0.492500  0.032900  0.690900  1
  C  C1190  1  0.007500  0.467100  0.190900  1
  C  C1191  1  0.507500  0.967100  0.309100  1
  C  C1192  1  0.992500  0.532900  0.809100  1
  C  C1193  1  0.463900  0.064800  0.687500  1
  C  C1194  1  0.036100  0.435200  0.187500  1
  C  C1195  1  0.536100  0.935200  0.312500  1
  C  C1196  1  0.963900  0.564800  0.812500  1
  C  C1197  1  0.501600  0.099600  0.681600  1
  C  C1198  1  0.998400  0.400400  0.181600  1
  C  C1199  1  0.498400  0.900400  0.318400  1
  C  C1200  1  0.001600  0.599600  0.818400  1
  C  C1201  1  0.572600  0.101000  0.680960  1
  C  C1202  1  0.927400  0.399000  0.180960  1
  C  C1203  1  0.427400  0.899000  0.319040  1
  C  C1204  1  0.072600  0.601000  0.819040  1
  C  C1205  1  0.701700  0.046300  0.608300  1
  C  C1206  1  0.798300  0.453700  0.108300  1
  C  C1207  1  0.298300  0.953700  0.391700  1
  C  C1208  1  0.201700  0.546300  0.891700  1
  C  C1209  1  0.702100  0.052000  0.572900  1
  C  C1210  1  0.797900  0.448000  0.072900  1
  C  C1211  1  0.297900  0.948000  0.427100  1
  C  C1212  1  0.202100  0.552000  0.927100  1
  C  C1213  1  0.725900  0.087700  0.559300  1
  C  C1214  1  0.774100  0.412300  0.059300  1
  C  C1215  1  0.274100  0.912300  0.440700  1
  C  C1216  1  0.225900  0.587700  0.940700  1
  C  C1217  1  0.745700  0.114900  0.583700  1
  C  C1218  1  0.754300  0.385100  0.083700  1
  C  C1219  1  0.254300  0.885100  0.416300  1
  C  C1220  1  0.245700  0.614900  0.916300  1
  C  C1221  1  0.745100  0.108600  0.618270  1
  C  C1222  1  0.754900  0.391400  0.118270  1
  C  C1223  1  0.254900  0.891400  0.381730  1
  C  C1224  1  0.245100  0.608600  0.881730  1
  C  C1225  1  0.767500  0.138500  0.645120  1
  C  C1226  1  0.732500  0.361500  0.145120  1
  C  C1227  1  0.232500  0.861500  0.354880  1
  C  C1228  1  0.267500  0.638500  0.854880  1
  C  C1229  1  0.805500  0.172800  0.637000  1
  C  C1230  1  0.694500  0.327200  0.137000  1
  C  C1231  1  0.194500  0.827200  0.363000  1
  C  C1232  1  0.305500  0.672800  0.863000  1
  C  C1233  1  0.825700  0.198800  0.664200  1
  C  C1234  1  0.674300  0.301200  0.164200  1
  C  C1235  1  0.174300  0.801200  0.335800  1
  C  C1236  1  0.325700  0.698800  0.835800  1
  C  C1237  1  0.805500  0.189940  0.697720  1
  C  C1238  1  0.694500  0.310060  0.197720  1
  C  C1239  1  0.194500  0.810060  0.302280  1
  C  C1240  1  0.305500  0.689940  0.802280  1
  C  C1241  1  0.767200  0.155200  0.703200  1
  C  C1242  1  0.732800  0.344800  0.203200  1
  C  C1243  1  0.232800  0.844800  0.296800  1
  C  C1244  1  0.267200  0.655200  0.796800  1
  C  C1245  1  0.267600  0.113100  0.981000  1
  C  C1246  1  0.232400  0.386900  0.481000  1
  C  C1247  1  0.732400  0.886900  0.019000  1
  C  C1248  1  0.767600  0.613100  0.519000  1
  C  C1249  1  0.263800  0.124900  0.014500  1
  C  C1250  1  0.236200  0.375100  0.514500  1
  C  C1251  1  0.736200  0.875100  0.985500  1
  C  C1252  1  0.763800  0.624900  0.485500  1
  C  C1253  1  0.285000  0.161200  0.024300  1
  C  C1254  1  0.215000  0.338800  0.524300  1
  C  C1255  1  0.715000  0.838800  0.975700  1
  C  C1256  1  0.785000  0.661200  0.475700  1
  C  C1257  1  0.307000  0.185800  0.996300  1
  C  C1258  1  0.193000  0.314200  0.496300  1
  C  C1259  1  0.693000  0.814200  0.003700  1
  C  C1260  1  0.807000  0.685800  0.503700  1
  C  C1261  1  0.309400  0.172400  0.962500  1
  C  C1262  1  0.190600  0.327600  0.462500  1
  C  C1263  1  0.690600  0.827600  0.037500  1
  C  C1264  1  0.809400  0.672400  0.537500  1
  C  C1265  1  0.333800  0.198600  0.933100  1
  C  C1266  1  0.166200  0.301400  0.433100  1
  C  C1267  1  0.666200  0.801400  0.066900  1
  C  C1268  1  0.833800  0.698600  0.566900  1
  C  C1269  1  0.356500  0.237500  0.936600  1
  C  C1270  1  0.143500  0.262500  0.436600  1
  C  C1271  1  0.643500  0.762500  0.063400  1
  C  C1272  1  0.856500  0.737500  0.563400  1
  C  C1273  1  0.375200  0.258800  0.907800  1
  C  C1274  1  0.124800  0.241200  0.407800  1
  C  C1275  1  0.624800  0.741200  0.092200  1
  C  C1276  1  0.875200  0.758800  0.592200  1
  C  C1277  1  0.370000  0.243100  0.874810  1
  C  C1278  1  0.130000  0.256900  0.374810  1
  C  C1279  1  0.630000  0.756900  0.125190  1
  C  C1280  1  0.870000  0.743100  0.625190  1
  C  C1281  1  0.348700  0.204000  0.872700  1
  C  C1282  1  0.151300  0.296000  0.372700  1
  C  C1283  1  0.651300  0.796000  0.127300  1
  C  C1284  1  0.848700  0.704000  0.627300  1
  C  C1285  1  0.219100  0.036900  0.908100  1
  C  C1286  1  0.280900  0.463100  0.408100  1
  C  C1287  1  0.780900  0.963100  0.091900  1
  C  C1288  1  0.719100  0.536900  0.591900  1
  C  C1289  1  0.214600  0.998200  0.911400  1
  C  C1290  1  0.285400  0.501800  0.411400  1
  C  C1291  1  0.785400  0.001800  0.088600  1
  C  C1292  1  0.714600  0.498200  0.588600  1
  C  C1293  1  0.269700  0.982100  0.914600  1
  C  C1294  1  0.230300  0.517900  0.414600  1
  C  C1295  1  0.730300  0.017900  0.085400  1
  C  C1296  1  0.769700  0.482100  0.585400  1
  C  C1297  1  0.336400  0.007800  0.913500  1
  C  C1298  1  0.163600  0.492200  0.413500  1
  C  C1299  1  0.663600  0.992200  0.086500  1
  C  C1300  1  0.836400  0.507800  0.586500  1
  C  C1301  1  0.338400  0.045300  0.909900  1
  C  C1302  1  0.161600  0.454700  0.409900  1
  C  C1303  1  0.661600  0.954700  0.090100  1
  C  C1304  1  0.838400  0.545300  0.590100  1
  C  C1305  1  0.404400  0.072700  0.909420  1
  C  C1306  1  0.095600  0.427300  0.409420  1
  C  C1307  1  0.595600  0.927300  0.090580  1
  C  C1308  1  0.904400  0.572700  0.590580  1
  C  C1309  1  0.467500  0.062200  0.913200  1
  C  C1310  1  0.032500  0.437800  0.413200  1
  C  C1311  1  0.532500  0.937800  0.086800  1
  C  C1312  1  0.967500  0.562200  0.586800  1
  C  C1313  1  0.526900  0.089400  0.912300  1
  C  C1314  1  0.973100  0.410600  0.412300  1
  C  C1315  1  0.473100  0.910600  0.087700  1
  C  C1316  1  0.026900  0.589400  0.587700  1
  C  C1317  1  0.522100  0.127300  0.909060  1
  C  C1318  1  0.977900  0.372700  0.409060  1
  C  C1319  1  0.477900  0.872700  0.090940  1
  C  C1320  1  0.022100  0.627300  0.590940  1
  C  C1321  1  0.456000  0.134500  0.905110  1
  C  C1322  1  0.044000  0.365500  0.405110  1
  C  C1323  1  0.544000  0.865500  0.094890  1
  C  C1324  1  0.956000  0.634500  0.594890  1
  C  C1325  1  0.137800  0.121000  0.914500  1
  C  C1326  1  0.362200  0.379000  0.414500  1
  C  C1327  1  0.862200  0.879000  0.085500  1
  C  C1328  1  0.637800  0.621000  0.585500  1
  C  C1329  1  0.070600  0.123400  0.905100  1
  C  C1330  1  0.429400  0.376600  0.405100  1
  C  C1331  1  0.929400  0.876600  0.094900  1
  C  C1332  1  0.570600  0.623400  0.594900  1
  C  C1333  1  0.053100  0.129600  0.870800  1
  C  C1334  1  0.446900  0.370400  0.370800  1
  C  C1335  1  0.946900  0.870400  0.129200  1
  C  C1336  1  0.553100  0.629600  0.629200  1
  C  C1337  1  0.107200  0.131700  0.847300  1
  C  C1338  1  0.392800  0.368300  0.347300  1
  C  C1339  1  0.892800  0.868300  0.152700  1
  C  C1340  1  0.607200  0.631700  0.652700  1
  C  C1341  1  0.172600  0.128710  0.857690  1
  C  C1342  1  0.327400  0.371290  0.357690  1
  C  C1343  1  0.827400  0.871290  0.142310  1
  C  C1344  1  0.672600  0.628710  0.642310  1
  C  C1345  1  0.231000  0.128120  0.832190  1
  C  C1346  1  0.269000  0.371880  0.332190  1
  C  C1347  1  0.769000  0.871880  0.167810  1
  C  C1348  1  0.731000  0.628120  0.667810  1
  C  C1349  1  0.224600  0.134200  0.797100  1
  C  C1350  1  0.275400  0.365800  0.297100  1
  C  C1351  1  0.775400  0.865800  0.202900  1
  C  C1352  1  0.724600  0.634200  0.702900  1
  C  C1353  1  0.279400  0.130000  0.775300  1
  C  C1354  1  0.220600  0.370000  0.275300  1
  C  C1355  1  0.720600  0.870000  0.224700  1
  C  C1356  1  0.779400  0.630000  0.724700  1
  C  C1357  1  0.338600  0.119600  0.788280  1
  C  C1358  1  0.161400  0.380400  0.288280  1
  C  C1359  1  0.661400  0.880400  0.211720  1
  C  C1360  1  0.838600  0.619600  0.711720  1
  C  C1361  1  0.341200  0.116200  0.824040  1
  C  C1362  1  0.158800  0.383800  0.324040  1
  C  C1363  1  0.658800  0.883800  0.175960  1
  C  C1364  1  0.841200  0.616200  0.675960  1
  C  C1365  1  0.394400  0.110900  0.765200  1
  C  C1366  1  0.105600  0.389100  0.265200  1
  C  C1367  1  0.605600  0.889100  0.234800  1
  C  C1368  1  0.894400  0.610900  0.734800  1
  C  C1369  1  0.494300  0.089600  0.793600  1
  C  C1370  1  0.005700  0.410400  0.293600  1
  C  C1371  1  0.505700  0.910400  0.206400  1
  C  C1372  1  0.994300  0.589600  0.706400  1
  C  C1373  1  0.597800  0.074800  0.821800  1
  C  C1374  1  0.902200  0.425200  0.321800  1
  C  C1375  1  0.402200  0.925200  0.178200  1
  C  C1376  1  0.097800  0.574800  0.678200  1
  C  C1377  1  0.561800  0.350800  0.818700  1
  C  C1378  1  0.938200  0.149200  0.318700  1
  C  C1379  1  0.438200  0.649200  0.181300  1
  C  C1380  1  0.061800  0.850800  0.681300  1
  C  C1381  1  0.671800  0.342500  0.795200  1
  C  C1382  1  0.828200  0.157500  0.295200  1
  C  C1383  1  0.328200  0.657500  0.204800  1
  C  C1384  1  0.171800  0.842500  0.704800  1
  C  C1385  1  0.780500  0.325900  0.771300  1
  C  C1386  1  0.719500  0.174100  0.271300  1
  C  C1387  1  0.219500  0.674100  0.228700  1
  C  C1388  1  0.280500  0.825900  0.728700  1
  C  C1389  1  0.387300  0.268100  0.842800  1
  C  C1390  1  0.112700  0.231900  0.342800  1
  C  C1391  1  0.612700  0.731900  0.157200  1
  C  C1392  1  0.887300  0.768100  0.657200  1
  C  C1393  1  0.362500  0.240800  0.783600  1
  C  C1394  1  0.137500  0.259200  0.283600  1
  C  C1395  1  0.637500  0.759200  0.216400  1
  C  C1396  1  0.862500  0.740800  0.716400  1
  C  C1397  1  0.352800  0.216600  0.723000  1
  C  C1398  1  0.147200  0.283400  0.223000  1
  C  C1399  1  0.647200  0.783400  0.277000  1
  C  C1400  1  0.852800  0.716600  0.777000  1
  C  C1401  1  0.471500  0.134300  0.674100  1
  C  C1402  1  0.028500  0.365700  0.174100  1
  C  C1403  1  0.528500  0.865700  0.325900  1
  C  C1404  1  0.971500  0.634300  0.825900  1
  C  C1405  1  0.563400  0.189800  0.674100  1
  C  C1406  1  0.936600  0.310200  0.174100  1
  C  C1407  1  0.436600  0.810200  0.325900  1
  C  C1408  1  0.063400  0.689800  0.825900  1
  C  C1409  1  0.662600  0.241400  0.681100  1
  C  C1410  1  0.837400  0.258600  0.181100  1
  C  C1411  1  0.337400  0.758600  0.318900  1
  C  C1412  1  0.162600  0.741400  0.818900  1
  C  C1413  1  0.763900  0.159500  0.840010  1
  C  C1414  1  0.736100  0.340500  0.340010  1
  C  C1415  1  0.236100  0.840500  0.159990  1
  C  C1416  1  0.263900  0.659500  0.659990  1
  C  C1417  1  0.801400  0.188500  0.784200  1
  C  C1418  1  0.698600  0.311500  0.284200  1
  C  C1419  1  0.198600  0.811500  0.215800  1
  C  C1420  1  0.301400  0.688500  0.715800  1
  C  C1421  1  0.827000  0.218000  0.727500  1
  C  C1422  1  0.673000  0.282000  0.227500  1
  C  C1423  1  0.173000  0.782000  0.272500  1
  C  C1424  1  0.327000  0.718000  0.772500  1
  C  C1425  1  0.569100  0.291700  0.906800  1
  C  C1426  1  0.930900  0.208300  0.406800  1
  C  C1427  1  0.430900  0.708300  0.093200  1
  C  C1428  1  0.069100  0.791700  0.593200  1
  C  C1429  1  0.574600  0.224700  0.911000  1
  C  C1430  1  0.925400  0.275300  0.411000  1
  C  C1431  1  0.425400  0.775300  0.089000  1
  C  C1432  1  0.074600  0.724700  0.589000  1
  C  C1433  1  0.586400  0.157600  0.909800  1
  C  C1434  1  0.913600  0.342400  0.409800  1
  C  C1435  1  0.413600  0.842400  0.090200  1
  C  C1436  1  0.086400  0.657600  0.590200  1
  C  C1437  1  0.735500  0.496500  0.706900  1
  C  C1438  1  0.764500  0.003500  0.206900  1
  C  C1439  1  0.264500  0.503500  0.293100  1
  C  C1440  1  0.235500  0.996500  0.793100  1
  C  C1441  1  0.711600  0.535800  0.700100  1
  C  C1442  1  0.788400  0.964200  0.200100  1
  C  C1443  1  0.288400  0.464200  0.299900  1
  C  C1444  1  0.211600  0.035800  0.799900  1
  C  C1445  1  0.789600  0.503100  0.684500  1
  C  C1446  1  0.710400  0.996900  0.184500  1
  C  C1447  1  0.210400  0.496900  0.315500  1
  C  C1448  1  0.289600  0.003100  0.815500  1
  C  C1449  1  0.737400  0.497700  0.746200  1
  C  C1450  1  0.762600  0.002300  0.246200  1
  C  C1451  1  0.262600  0.502300  0.253800  1
  C  C1452  1  0.237400  0.997700  0.753800  1
  C  C1453  1  0.485300  0.319600  0.510500  1
  C  C1454  1  0.014700  0.180400  0.010500  1
  C  C1455  1  0.514700  0.680400  0.489500  1
  C  C1456  1  0.985300  0.819600  0.989500  1
  C  C1457  1  0.542000  0.344200  0.489300  1
  C  C1458  1  0.958000  0.155800  0.989300  1
  C  C1459  1  0.458000  0.655800  0.510700  1
  C  C1460  1  0.042000  0.844200  0.010700  1
  C  C1461  1  0.409100  0.323700  0.497900  1
  C  C1462  1  0.090900  0.176300  0.997900  1
  C  C1463  1  0.590900  0.676300  0.502100  1
  C  C1464  1  0.909100  0.823700  0.002100  1
  C  C1465  1  0.499800  0.282900  0.503600  1
  C  C1466  1  0.000200  0.217100  0.003600  1
  C  C1467  1  0.500200  0.717100  0.496400  1
  C  C1468  1  0.999800  0.782900  0.996400  1
  C  C1469  1  0.226500  0.432700  0.691400  1
  C  C1470  1  0.273500  0.067300  0.191400  1
  C  C1471  1  0.773500  0.567300  0.308600  1
  C  C1472  1  0.726500  0.932700  0.808600  1
  C  C1473  1  0.205200  0.454600  0.663400  1
  C  C1474  1  0.294800  0.045400  0.163400  1
  C  C1475  1  0.794800  0.545400  0.336600  1
  C  C1476  1  0.705200  0.954600  0.836600  1
  C  C1477  1  0.231900  0.458500  0.722800  1
  C  C1478  1  0.268100  0.041500  0.222800  1
  C  C1479  1  0.768100  0.541500  0.277200  1
  C  C1480  1  0.731900  0.958500  0.777200  1
  C  C1481  1  0.169000  0.399100  0.699600  1
  C  C1482  1  0.331000  0.100900  0.199600  1
  C  C1483  1  0.831000  0.600900  0.300400  1
  C  C1484  1  0.669000  0.899100  0.800400  1
  C  C1485  1  0.814600  0.232600  0.067200  1
  C  C1486  1  0.685400  0.267400  0.567200  1
  C  C1487  1  0.185400  0.767400  0.932800  1
  C  C1488  1  0.314600  0.732600  0.432800  1
  C  C1489  1  0.890900  0.237100  0.084400  1
  C  C1490  1  0.609100  0.262900  0.584400  1
  C  C1491  1  0.109100  0.762900  0.915600  1
  C  C1492  1  0.390900  0.737100  0.415600  1
  C  C1493  1  0.778200  0.191500  0.067800  1
  C  C1494  1  0.721800  0.308500  0.567800  1
  C  C1495  1  0.221800  0.808500  0.932200  1
  C  C1496  1  0.278200  0.691500  0.432200  1
  C  C1497  1  0.768100  0.255600  0.086300  1
  C  C1498  1  0.731900  0.244400  0.586300  1
  C  C1499  1  0.231900  0.744400  0.913700  1
  C  C1500  1  0.268100  0.755600  0.413700  1
  C  C1501  1  0.948500  0.479300  0.918700  1
  C  C1502  1  0.551500  0.020700  0.418700  1
  C  C1503  1  0.051500  0.520700  0.081300  1
  C  C1504  1  0.448500  0.979300  0.581300  1
  C  C1505  1  0.949500  0.493600  0.953100  1
  C  C1506  1  0.550500  0.006400  0.453100  1
  C  C1507  1  0.050500  0.506400  0.046900  1
  C  C1508  1  0.449500  0.993600  0.546900  1
  C  C1509  1  0.016600  0.492600  0.904500  1
  C  C1510  1  0.483400  0.007400  0.404500  1
  C  C1511  1  0.983400  0.507400  0.095500  1
  C  C1512  1  0.516600  0.992600  0.595500  1
  C  C1513  1  0.902100  0.496400  0.892200  1
  C  C1514  1  0.597900  0.003600  0.392200  1
  C  C1515  1  0.097900  0.503600  0.107800  1
  C  C1516  1  0.402100  0.996400  0.607800  1
  C  C1517  1  0.159100  0.258300  0.876700  1
  C  C1518  1  0.340900  0.241700  0.376700  1
  C  C1519  1  0.840900  0.741700  0.123300  1
  C  C1520  1  0.659100  0.758300  0.623300  1
  C  C1521  1  0.172700  0.227600  0.900600  1
  C  C1522  1  0.327300  0.272400  0.400600  1
  C  C1523  1  0.827300  0.772400  0.099400  1
  C  C1524  1  0.672700  0.727600  0.599400  1
  C  C1525  1  0.163300  0.246000  0.841500  1
  C  C1526  1  0.336700  0.254000  0.341500  1
  C  C1527  1  0.836700  0.754000  0.158500  1
  C  C1528  1  0.663300  0.746000  0.658500  1
  C  C1529  1  0.209800  0.294300  0.885000  1
  C  C1530  1  0.290200  0.205700  0.385000  1
  C  C1531  1  0.790200  0.705700  0.115000  1
  C  C1532  1  0.709800  0.794300  0.615000  1
  C  C1533  1  0.722200  0.093800  0.521300  1
  C  C1534  1  0.777800  0.406200  0.021300  1
  C  C1535  1  0.277800  0.906200  0.478700  1
  C  C1536  1  0.222200  0.593800  0.978700  1
  C  C1537  1  0.739200  0.062300  0.499300  1
  C  C1538  1  0.760800  0.437700  0.999300  1
  C  C1539  1  0.260800  0.937700  0.500700  1
  C  C1540  1  0.239200  0.562300  0.000700  1
  C  C1541  1  0.644100  0.090600  0.509200  1
  C  C1542  1  0.855900  0.409400  0.009200  1
  C  C1543  1  0.355900  0.909400  0.490800  1
  C  C1544  1  0.144100  0.590600  0.990800  1
  C  C1545  1  0.756300  0.134200  0.510100  1
  C  C1546  1  0.743700  0.365800  0.010100  1
  C  C1547  1  0.243700  0.865800  0.489900  1
  C  C1548  1  0.256300  0.634200  0.989900  1
  C  C1549  1  0.005700  0.031900  0.732300  1
  C  C1550  1  0.494300  0.468100  0.232300  1
  C  C1551  1  0.994300  0.968100  0.267700  1
  C  C1552  1  0.505700  0.531900  0.767700  1
  C  C1553  1  0.039900  0.056700  0.759500  1
  C  C1554  1  0.460100  0.443300  0.259500  1
  C  C1555  1  0.960100  0.943300  0.240500  1
  C  C1556  1  0.539900  0.556700  0.740500  1
  C  C1557  1  0.994800  0.991700  0.745500  1
  C  C1558  1  0.505200  0.508300  0.245500  1
  C  C1559  1  0.005200  0.008300  0.254500  1
  C  C1560  1  0.494800  0.491700  0.754500  1
  C  C1561  1  0.048600  0.026100  0.700400  1
  C  C1562  1  0.451400  0.473900  0.200400  1
  C  C1563  1  0.951400  0.973900  0.299600  1
  C  C1564  1  0.548600  0.526100  0.799600  1
  C  C1565  1  0.554200  0.897000  0.690500  1
  C  C1566  1  0.945800  0.603000  0.190500  1
  C  C1567  1  0.445800  0.103000  0.309500  1
  C  C1568  1  0.054200  0.397000  0.809500  1
  C  C1569  1  0.587100  0.868800  0.699900  1
  C  C1570  1  0.912900  0.631200  0.199900  1
  C  C1571  1  0.412900  0.131200  0.300100  1
  C  C1572  1  0.087100  0.368800  0.800100  1
  C  C1573  1  0.588500  0.881600  0.650700  1
  C  C1574  1  0.911500  0.618400  0.150700  1
  C  C1575  1  0.411500  0.118400  0.349300  1
  C  C1576  1  0.088500  0.381600  0.849300  1
  C  C1577  1  0.489900  0.892000  0.669400  1
  C  C1578  1  0.010100  0.608000  0.169400  1
  C  C1579  1  0.510100  0.108000  0.330600  1
  C  C1580  1  0.989900  0.392000  0.830600  1
  C  C1581  1  0.981000  0.132900  0.860200  1
  C  C1582  1  0.519000  0.367100  0.360200  1
  C  C1583  1  0.019000  0.867100  0.139800  1
  C  C1584  1  0.481000  0.632900  0.639800  1
  C  C1585  1  0.926400  0.110700  0.884500  1
  C  C1586  1  0.573600  0.389300  0.384500  1
  C  C1587  1  0.073600  0.889300  0.115500  1
  C  C1588  1  0.426400  0.610700  0.615500  1
  C  C1589  1  0.963500  0.116600  0.824400  1
  C  C1590  1  0.536500  0.383400  0.324400  1
  C  C1591  1  0.036500  0.883400  0.175600  1
  C  C1592  1  0.463500  0.616600  0.675600  1
  C  C1593  1  0.975700  0.173000  0.859100  1
  C  C1594  1  0.524300  0.327000  0.359100  1
  C  C1595  1  0.024300  0.827000  0.140900  1
  C  C1596  1  0.475700  0.673000  0.640900  1
  C  C1597  1  0.266500  0.939900  0.918200  1
  C  C1598  1  0.233500  0.560100  0.418200  1
  C  C1599  1  0.733500  0.060100  0.081800  1
  C  C1600  1  0.766500  0.439900  0.581800  1
  C  C1601  1  0.202400  0.918200  0.908000  1
  C  C1602  1  0.297600  0.581800  0.408000  1
  C  C1603  1  0.797600  0.081800  0.092000  1
  C  C1604  1  0.702400  0.418200  0.592000  1
  C  C1605  1  0.277700  0.930800  0.954200  1
  C  C1606  1  0.222300  0.569200  0.454200  1
  C  C1607  1  0.722300  0.069200  0.045800  1
  C  C1608  1  0.777700  0.430800  0.545800  1
  C  C1609  1  0.295200  0.923200  0.889600  1
  C  C1610  1  0.204800  0.576800  0.389600  1
  C  C1611  1  0.704800  0.076800  0.110400  1
  C  C1612  1  0.795200  0.423200  0.610400  1
  C  C1613  1  0.289100  0.176800  0.061500  1
  C  C1614  1  0.210900  0.323200  0.561500  1
  C  C1615  1  0.710900  0.823200  0.938500  1
  C  C1616  1  0.789100  0.676800  0.438500  1
  C  C1617  1  0.219000  0.160000  0.081400  1
  C  C1618  1  0.281000  0.340000  0.581400  1
  C  C1619  1  0.781000  0.840000  0.918600  1
  C  C1620  1  0.719000  0.660000  0.418600  1
  C  C1621  1  0.327500  0.156300  0.083400  1
  C  C1622  1  0.172500  0.343700  0.583400  1
  C  C1623  1  0.672500  0.843700  0.916600  1
  C  C1624  1  0.827500  0.656300  0.416600  1
  C  C1625  1  0.268400  0.211000  0.064900  1
  C  C1626  1  0.231600  0.289000  0.564900  1
  C  C1627  1  0.731600  0.789000  0.935100  1
  C  C1628  1  0.768400  0.711000  0.435100  1
  C  C1629  1  0.279400  0.086100  0.681100  1
  C  C1630  1  0.220600  0.413900  0.181100  1
  C  C1631  1  0.720600  0.913900  0.318900  1
  C  C1632  1  0.779400  0.586100  0.818900  1
  C  C1633  1  0.955400  0.001700  0.855900  1
  C  C1634  1  0.544600  0.498300  0.355900  1
  C  C1635  1  0.044600  0.998300  0.144100  1
  C  C1636  1  0.455400  0.501700  0.644100  1
  N  N1637  1  0.412100  0.385800  0.677510  1
  N  N1638  1  0.087900  0.114200  0.177510  1
  N  N1639  1  0.587900  0.614200  0.322490  1
  N  N1640  1  0.912100  0.885800  0.822490  1
  N  N1641  1  0.481300  0.361810  0.730230  1
  N  N1642  1  0.018700  0.138190  0.230230  1
  N  N1643  1  0.518700  0.638190  0.269770  1
  N  N1644  1  0.981300  0.861810  0.769770  1
  N  N1645  1  0.493400  0.346300  0.619980  1
  N  N1646  1  0.006600  0.153700  0.119980  1
  N  N1647  1  0.506600  0.653700  0.380020  1
  N  N1648  1  0.993400  0.846300  0.880020  1
  N  N1649  1  0.436100  0.299600  0.670650  1
  N  N1650  1  0.063900  0.200400  0.170650  1
  N  N1651  1  0.563900  0.700400  0.329350  1
  N  N1652  1  0.936100  0.799600  0.829350  1
  N  N1653  1  0.579200  0.404680  0.675570  1
  N  N1654  1  0.920800  0.095320  0.175570  1
  N  N1655  1  0.420800  0.595320  0.324430  1
  N  N1656  1  0.079200  0.904680  0.824430  1
  N  N1657  1  0.592100  0.332230  0.682360  1
  N  N1658  1  0.907900  0.167770  0.182360  1
  N  N1659  1  0.407900  0.667770  0.317640  1
  N  N1660  1  0.092100  0.832230  0.817640  1
  N  N1661  1  0.849000  0.278020  0.963580  1
  N  N1662  1  0.651000  0.221980  0.463580  1
  N  N1663  1  0.151000  0.721980  0.036420  1
  N  N1664  1  0.349000  0.778020  0.536420  1
  N  N1665  1  0.807600  0.238280  0.905390  1
  N  N1666  1  0.692400  0.261720  0.405390  1
  N  N1667  1  0.192400  0.761720  0.094610  1
  N  N1668  1  0.307600  0.738280  0.594610  1
  N  N1669  1  0.956900  0.285200  0.901790  1
  N  N1670  1  0.543100  0.214800  0.401790  1
  N  N1671  1  0.043100  0.714800  0.098210  1
  N  N1672  1  0.456900  0.785200  0.598210  1
  N  N1673  1  0.868600  0.302120  0.854180  1
  N  N1674  1  0.631400  0.197880  0.354180  1
  N  N1675  1  0.131400  0.697880  0.145820  1
  N  N1676  1  0.368600  0.802120  0.645820  1
  N  N1677  1  0.889400  0.357490  0.920350  1
  N  N1678  1  0.610600  0.142510  0.420350  1
  N  N1679  1  0.110600  0.642510  0.079650  1
  N  N1680  1  0.389400  0.857490  0.579650  1
  N  N1681  1  0.762700  0.321360  0.909600  1
  N  N1682  1  0.737300  0.178640  0.409600  1
  N  N1683  1  0.237300  0.678640  0.090400  1
  N  N1684  1  0.262700  0.821360  0.590400  1
  N  N1685  1  0.810600  0.060050  0.698840  1
  N  N1686  1  0.689400  0.439950  0.198840  1
  N  N1687  1  0.189400  0.939950  0.301160  1
  N  N1688  1  0.310600  0.560050  0.801160  1
  N  N1689  1  0.713800  0.072040  0.743370  1
  N  N1690  1  0.786200  0.427960  0.243370  1
  N  N1691  1  0.286200  0.927960  0.256630  1
  N  N1692  1  0.213800  0.572040  0.756630  1
  N  N1693  1  0.665600  0.011180  0.687300  1
  N  N1694  1  0.834400  0.488820  0.187300  1
  N  N1695  1  0.334400  0.988820  0.312700  1
  N  N1696  1  0.165600  0.511180  0.812700  1
  N  N1697  1  0.601600  0.070850  0.684860  1
  N  N1698  1  0.898400  0.429150  0.184860  1
  N  N1699  1  0.398400  0.929150  0.315140  1
  N  N1700  1  0.101600  0.570850  0.815140  1
  N  N1701  1  0.721700  0.074210  0.631530  1
  N  N1702  1  0.778300  0.425790  0.131530  1
  N  N1703  1  0.278300  0.925790  0.368470  1
  N  N1704  1  0.221700  0.574210  0.868470  1
  N  N1705  1  0.748200  0.129290  0.678570  1
  N  N1706  1  0.751800  0.370710  0.178570  1
  N  N1707  1  0.251800  0.870710  0.321430  1
  N  N1708  1  0.248200  0.629290  0.821430  1
  N  N1709  1  0.280900  0.060810  0.908080  1
  N  N1710  1  0.219100  0.439190  0.408080  1
  N  N1711  1  0.719100  0.939190  0.091920  1
  N  N1712  1  0.780900  0.560810  0.591920  1
  N  N1713  1  0.399200  0.108630  0.905210  1
  N  N1714  1  0.100800  0.391370  0.405210  1
  N  N1715  1  0.600800  0.891370  0.094790  1
  N  N1716  1  0.899200  0.608630  0.594790  1
  N  N1717  1  0.189300  0.123550  0.891330  1
  N  N1718  1  0.310700  0.376450  0.391330  1
  N  N1719  1  0.810700  0.876450  0.108670  1
  N  N1720  1  0.689300  0.623550  0.608670  1
  N  N1721  1  0.289900  0.120420  0.845720  1
  N  N1722  1  0.210100  0.379580  0.345720  1
  N  N1723  1  0.710100  0.879580  0.154280  1
  N  N1724  1  0.789900  0.620420  0.654280  1
  N  N1725  1  0.289000  0.136600  0.954740  1
  N  N1726  1  0.211000  0.363400  0.454740  1
  N  N1727  1  0.711000  0.863400  0.045260  1
  N  N1728  1  0.789000  0.636600  0.545260  1
  N  N1729  1  0.329900  0.182140  0.901380  1
  N  N1730  1  0.170100  0.317860  0.401380  1
  N  N1731  1  0.670100  0.817860  0.098620  1
  N  N1732  1  0.829900  0.682140  0.598620  1
  N  N1733  1  0.578100  0.192100  0.893850  1
  N  N1734  1  0.921900  0.307900  0.393850  1
  N  N1735  1  0.421900  0.807900  0.106150  1
  N  N1736  1  0.078100  0.692100  0.606150  1
  N  N1737  1  0.567500  0.254200  0.891510  1
  N  N1738  1  0.932500  0.245800  0.391510  1
  N  N1739  1  0.432500  0.745800  0.108490  1
  N  N1740  1  0.067500  0.754200  0.608490  1
  N  N1741  1  0.390200  0.225180  0.755690  1
  N  N1742  1  0.109800  0.274820  0.255690  1
  N  N1743  1  0.609800  0.774820  0.244310  1
  N  N1744  1  0.890200  0.725180  0.744310  1
  N  N1745  1  0.403400  0.246620  0.811800  1
  N  N1746  1  0.096600  0.253380  0.311800  1
  N  N1747  1  0.596600  0.753380  0.188200  1
  N  N1748  1  0.903400  0.746620  0.688200  1
  N  N1749  1  0.462300  0.118090  0.781070  1
  N  N1750  1  0.037700  0.381910  0.281070  1
  N  N1751  1  0.537700  0.881910  0.218930  1
  N  N1752  1  0.962300  0.618090  0.718930  1
  N  N1753  1  0.555800  0.101400  0.808190  1
  N  N1754  1  0.944200  0.398600  0.308190  1
  N  N1755  1  0.444200  0.898600  0.191810  1
  N  N1756  1  0.055800  0.601400  0.691810  1
  N  N1757  1  0.509500  0.168800  0.689970  1
  N  N1758  1  0.990500  0.331200  0.189970  1
  N  N1759  1  0.490500  0.831200  0.310030  1
  N  N1760  1  0.009500  0.668800  0.810030  1
  N  N1761  1  0.601800  0.217200  0.692530  1
  N  N1762  1  0.898200  0.282800  0.192530  1
  N  N1763  1  0.398200  0.782800  0.307470  1
  N  N1764  1  0.101800  0.717200  0.807470  1
  N  N1765  1  0.785500  0.210640  0.758250  1
  N  N1766  1  0.714500  0.289360  0.258250  1
  N  N1767  1  0.214500  0.789360  0.241750  1
  N  N1768  1  0.285500  0.710640  0.741750  1
  N  N1769  1  0.754500  0.182000  0.809930  1
  N  N1770  1  0.745500  0.318000  0.309930  1
  N  N1771  1  0.245500  0.818000  0.190070  1
  N  N1772  1  0.254500  0.682000  0.690070  1
  N  N1773  1  0.709700  0.317100  0.782970  1
  N  N1774  1  0.790300  0.182900  0.282970  1
  N  N1775  1  0.290300  0.682900  0.217030  1
  N  N1776  1  0.209700  0.817100  0.717030  1
  N  N1777  1  0.610100  0.327400  0.806640  1
  N  N1778  1  0.889900  0.172600  0.306640  1
  N  N1779  1  0.389900  0.672600  0.193360  1
  N  N1780  1  0.110100  0.827400  0.693360  1
  O  O1781  1  0.655700  0.237160  0.767860  1
  O  O1782  1  0.844300  0.262840  0.267860  1
  O  O1783  1  0.344300  0.762840  0.232140  1
  O  O1784  1  0.155700  0.737160  0.732140  1
  O  O1785  1  0.517400  0.195710  0.762170  1
  O  O1786  1  0.982600  0.304290  0.262170  1
  O  O1787  1  0.482600  0.804290  0.237830  1
  O  O1788  1  0.017400  0.695710  0.737830  1
  O  O1789  1  0.606000  0.181150  0.818740  1
  O  O1790  1  0.894000  0.318850  0.318740  1
  O  O1791  1  0.394000  0.818850  0.181260  1
  O  O1792  1  0.106000  0.681150  0.681260  1
  O  O1793  1  0.552900  0.249920  0.817390  1
  O  O1794  1  0.947100  0.250080  0.317390  1
  O  O1795  1  0.447100  0.750080  0.182610  1
  O  O1796  1  0.052900  0.749920  0.682610  1
  O  O1797  1  0.467100  0.056190  0.791960  1
  O  O1798  1  0.032900  0.443810  0.291960  1
  O  O1799  1  0.532900  0.943810  0.208040  1
  O  O1800  1  0.967100  0.556190  0.708040  1
  O  O1801  1  0.580300  0.185160  0.643080  1
  O  O1802  1  0.919700  0.314840  0.143080  1
  O  O1803  1  0.419700  0.814840  0.356920  1
  O  O1804  1  0.080300  0.685160  0.856920  1
  O  O1805  1  0.694200  0.376800  0.795670  1
  O  O1806  1  0.805800  0.123200  0.295670  1
  O  O1807  1  0.305800  0.623200  0.204330  1
  O  O1808  1  0.194200  0.876800  0.704330  1
  O  O1809  1  0.576500  0.225040  0.943550  1
  O  O1810  1  0.923500  0.274960  0.443550  1
  O  O1811  1  0.423500  0.774960  0.056450  1
  O  O1812  1  0.076500  0.725040  0.556450  1
  O  O1813  1  0.303700  0.248920  0.783160  1
  O  O1814  1  0.196300  0.251080  0.283160  1
  O  O1815  1  0.696300  0.751080  0.216840  1
  O  O1816  1  0.803700  0.748920  0.716840  1
  O  O1817  1  0.855900  0.175300  0.784230  1
  O  O1818  1  0.644100  0.324700  0.284230  1
  O  O1819  1  0.144100  0.824700  0.215770  1
  O  O1820  1  0.355900  0.675300  0.715770  1
  O  O1821  1  0.326700  0.897100  0.029700  1
  O  O1822  1  0.173300  0.602900  0.529700  1
  O  O1823  1  0.673300  0.102900  0.970300  1
  O  O1824  1  0.826700  0.397100  0.470300  1
  O  O1825  1  0.810000  0.088800  0.958700  1
  O  O1826  1  0.690000  0.411200  0.458700  1
  O  O1827  1  0.190000  0.911200  0.041300  1
  O  O1828  1  0.310000  0.588800  0.541300  1
  O  O1829  1  0.454700  0.363200  0.892900  1
  O  O1830  1  0.045300  0.136800  0.392900  1
  O  O1831  1  0.545300  0.636800  0.107100  1
  O  O1832  1  0.954700  0.863200  0.607100  1
  O  O1833  1  0.293800  0.380000  0.833100  1
  O  O1834  1  0.206200  0.120000  0.333100  1
  O  O1835  1  0.706200  0.620000  0.166900  1
  O  O1836  1  0.793800  0.880000  0.666900  1
  O  O1837  1  0.890900  0.301800  0.684500  1
  O  O1838  1  0.609100  0.198200  0.184500  1
  O  O1839  1  0.109100  0.698200  0.315500  1
  O  O1840  1  0.390900  0.801800  0.815500  1
  O  O1841  1  0.623600  0.443100  0.812200  1
  O  O1842  1  0.876400  0.056900  0.312200  1
  O  O1843  1  0.376400  0.556900  0.187800  1
  O  O1844  1  0.123600  0.943100  0.687800  1
  O  O1845  1  0.802600  0.429600  0.823500  1
  O  O1846  1  0.697400  0.070400  0.323500  1
  O  O1847  1  0.197400  0.570400  0.176500  1
  O  O1848  1  0.302600  0.929600  0.676500  1
  O  O1849  1  0.735500  0.488200  0.844400  1
  O  O1850  1  0.764500  0.011800  0.344400  1
  O  O1851  1  0.264500  0.511800  0.155600  1
  O  O1852  1  0.235500  0.988200  0.655600  1
  O  O1853  1  0.093300  0.168900  0.757800  1
  O  O1854  1  0.406700  0.331100  0.257800  1
  O  O1855  1  0.906700  0.831100  0.242200  1
  O  O1856  1  0.593300  0.668900  0.742200  1
  O  O1857  1  0.780600  0.025500  0.418100  1
  O  O1858  1  0.719400  0.474500  0.918100  1
  O  O1859  1  0.219400  0.974500  0.581900  1
  O  O1860  1  0.280600  0.525500  0.081900  1
  O  O1861  1  0.552200  0.149600  0.582100  1
  O  O1862  1  0.947800  0.350400  0.082100  1
  O  O1863  1  0.447800  0.850400  0.417900  1
  O  O1864  1  0.052200  0.649600  0.917900  1
  O  O1865  1  0.293200  0.124700  0.685500  1
  O  O1866  1  0.206800  0.375300  0.185500  1
  O  O1867  1  0.706800  0.875300  0.314500  1
  O  O1868  1  0.793200  0.624700  0.814500  1
  O  O1869  1  0.894100  0.013400  0.837700  1
  O  O1870  1  0.605900  0.486600  0.337700  1
  O  O1871  1  0.105900  0.986600  0.162300  1
  O  O1872  1  0.394100  0.513400  0.662300  1
