
#######################################################################
#
#                 Cambridge Crystallographic Data Centre
#                                CCDC 
#
#######################################################################
#
# If this CIF has been generated from an entry in the Cambridge 
# Structural Database, then it will include bibliographic, chemical, 
# crystal, experimental, refinement or atomic coordinate data resulting 
# from the CCDC's data processing and validation procedures.
#
#######################################################################

data_XUXKAE
_chemical_formula_moiety         
'C138 H120 N36 Ni4 O6 6+,O4 P1 3-,3(N1 O3 1-),19(H2 O1)'
_chemical_name_systematic        
"hexakis(\m-1,3-bis(2,2'-bipyridin-5-ylmethyl)urea)-tetra-nickel phosphate trinitrate hydrate"
_symmetry_cell_setting           rhombohedral
_symmetry_space_group_name_H-M   'R 3'
_symmetry_Int_Tables_number      146
_space_group_name_Hall           'R 3'
loop_
_symmetry_equiv_pos_site_id
_symmetry_equiv_pos_as_xyz
1 x,y,z
2 -y,x-y,z
3 -x+y,-x,z
4 2/3+x,1/3+y,1/3+z
5 2/3-y,1/3+x-y,1/3+z
6 2/3-x+y,1/3-x,1/3+z
7 1/3+x,2/3+y,2/3+z
8 1/3-y,2/3+x-y,2/3+z
9 1/3-x+y,2/3-x,2/3+z
_cell_length_a                   27.5237(12)
_cell_length_b                   27.5237(12)
_cell_length_c                   19.5581(18)
_cell_angle_alpha                90
_cell_angle_beta                 90
_cell_angle_gamma                120
_cell_volume                     12831.3
_cell_formula_units_Z            3
loop_
_atom_site_label
_atom_site_type_symbol
_atom_site_fract_x
_atom_site_fract_y
_atom_site_fract_z
Ni1 Ni 0.38951(5) 0.24454(6) 0.14280(9)
Ni2 Ni 0.6667 0.3333 -0.34135(11)
O1 O 0.5400(5) 0.1423(4) 0.1898(6)
O2 O 0.4756(4) 0.2758(4) -0.1394(5)
N1 N 0.3242(3) 0.2159(4) 0.0710(6)
N2 N 0.4078(4) 0.1941(4) 0.0825(5)
N3 N 0.5562(4) 0.1863(4) 0.0908(6)
H1 H 0.5781 0.2168 0.0673
N4 N 0.6128(5) 0.2345(5) 0.1823(6)
H2 H 0.6280 0.2637 0.1549
N5 N 0.7373(4) 0.1910(3) 0.2131(4)
N6 N 0.4360(4) 0.3171(4) 0.0845(5)
N7 N 0.5472(3) 0.3356(4) -0.0722(5)
H3 H 0.5783 0.3423 -0.0514
N8 N 0.5377(4) 0.2515(5) -0.0998(5)
H4 H 0.5654 0.2592 -0.0712
N9 N 0.6168(4) 0.2607(4) -0.2868(5)
C1 C 0.2865(4) 0.2313(5) 0.0648(9)
H5 H 0.2856 0.2559 0.0981
C2 C 0.2474(5) 0.2131(6) 0.0112(8)
H6 H 0.2202 0.2247 0.0088
C3 C 0.2490(6) 0.1799(7) -0.0355(11)
H7 H 0.2226 0.1669 -0.0720
C4 C 0.2904(6) 0.1629(7) -0.0320(9)
H8 H 0.2926 0.1392 -0.0658
C5 C 0.3257(4) 0.1817(4) 0.0208(7)
C6 C 0.3723(4) 0.1667(5) 0.0302(8)
C7 C 0.3765(5) 0.1301(5) -0.0115(8)
H9 H 0.3507 0.1121 -0.0478
C8 C 0.4181(5) 0.1202(6) 0.0004(9)
H10 H 0.4207 0.0927 -0.0263
C9 C 0.4583(5) 0.1490(5) 0.0510(8)
C10 C 0.4494(4) 0.1819(4) 0.0925(7)
H11 H 0.4732 0.1976 0.1311
C11 C 0.5063(6) 0.1377(6) 0.0570(9)
H12 H 0.5170 0.1315 0.0109
H13 H 0.4943 0.1032 0.0843
C12 C 0.5669(4) 0.1826(4) 0.1576(6)
C13 C 0.6335(6) 0.2398(6) 0.2463(6)
H14 H 0.6029 0.2125 0.2760
H15 H 0.6440 0.2778 0.2631
C14 C 0.6965(5) 0.2027(4) 0.2069(6)
H16 H 0.6744 0.1905 0.1666
C15 C 0.6837(5) 0.2317(4) 0.2557(6)
C16 C 0.7177(6) 0.2492(5) 0.3118(7)
H17 H 0.7120 0.2697 0.3469
C17 C 0.7619(7) 0.2365(7) 0.3176(8)
H18 H 0.7854 0.2474 0.3568
C18 C 0.7695(5) 0.2075(4) 0.2638(7)
N10 N 0.8188(5) 0.1654(4) 0.2136(7)
C19 C 0.8596(6) 0.1539(6) 0.2069(8)
H19 H 0.8608 0.1339 0.1680
C20 C 0.9010(8) 0.1713(9) 0.2572(12)
H20 H 0.9307 0.1635 0.2523
C21 C 0.8988(10) 0.1981(11) 0.3106(12)
H21 H 0.9279 0.2105 0.3436
C22 C 0.8538(7) 0.2096(7) 0.3214(9)
H22 H 0.8506 0.2270 0.3618
C23 C 0.8161(6) 0.1935(6) 0.2687(7)
N11 N 0.3690(4) 0.3003(5) 0.1891(6)
C24 C 0.3342(5) 0.2872(6) 0.2418(7)
H23 H 0.3175 0.2505 0.2607
C25 C 0.3221(8) 0.3255(9) 0.2692(10)
H24 H 0.2969 0.3152 0.3067
C26 C 0.3452(10) 0.3766(9) 0.2438(12)
H25 H 0.3356 0.4024 0.2630
C27 C 0.3844(8) 0.3946(7) 0.1880(8)
H26 H 0.4028 0.4318 0.1708
C28 C 0.3930(5) 0.3524(5) 0.1612(7)
C29 C 0.4301(5) 0.3611(5) 0.1047(7)
C30 C 0.4581(5) 0.4123(5) 0.0682(7)
H27 H 0.4549 0.4434 0.0831
C31 C 0.4897(4) 0.4175(4) 0.0117(6)
H28 H 0.5064 0.4510 -0.0147
C32 C 0.4965(4) 0.3730(4) -0.0057(5)
C33 C 0.4699(3) 0.3246(4) 0.0314(5)
H29 H 0.4758 0.2945 0.0190
C34 C 0.5324(4) 0.3778(4) -0.0686(6)
H30 H 0.5114 0.3761 -0.1105
H31 H 0.5671 0.4149 -0.0678
C35 C 0.5187(4) 0.2871(5) -0.1039(6)
C36 C 0.5157(5) 0.2011(5) -0.1393(6)
H32 H 0.4780 0.1915 -0.1563
H33 H 0.5111 0.1702 -0.1091
C37 C 0.5848(5) 0.2545(5) -0.2329(6)
H34 H 0.5851 0.2872 -0.2168
C38 C 0.5507(5) 0.2047(5) -0.1978(6)
C39 C 0.5522(7) 0.1563(6) -0.2220(7)
H35 H 0.5299 0.1207 -0.2012
C40 C 0.5861(7) 0.1629(7) -0.2750(7)
H36 H 0.5894 0.1319 -0.2902
C41 C 0.6162(5) 0.2139(6) -0.3078(5)
N12 N 0.6799(5) 0.2753(6) -0.3945(4)
C42 C 0.7106(6) 0.2852(7) -0.4501(6)
H37 H 0.7295 0.3223 -0.4679
C43 C 0.7165(9) 0.2444(9) -0.4838(8)
H38 H 0.7382 0.2530 -0.5244
C44 C 0.6914(9) 0.1935(10) -0.4583(7)
H39 H 0.6961 0.1653 -0.4804
C45 C 0.6570(7) 0.1789(7) -0.3975(7)
H40 H 0.6388 0.1422 -0.3784
C46 C 0.6527(6) 0.2220(6) -0.3700(5)
Ni1A Ni 0.75546(6) 0.14497(8) 0.14280(9)
O1A O 0.8577(4) 0.3977(6) 0.1898(6)
O2A O 0.7242(4) 0.1998(6) -0.1394(5)
N1A N 0.7841(4) 0.1083(5) 0.0710(6)
N2A N 0.8059(4) 0.2137(6) 0.0825(5)
N3A N 0.8137(4) 0.3699(6) 0.0908(6)
H1A H 0.7832 0.3613 0.0673
N4A N 0.7655(5) 0.3783(7) 0.1823(6)
H2A H 0.7363 0.3643 0.1549
N5A N 0.8090(3) 0.5463(5) 0.2131(4)
N6A N 0.6829(4) 0.1189(6) 0.0845(5)
N7A N 0.6644(4) 0.2116(5) -0.0722(5)
H3A H 0.6577 0.2360 -0.0514
N8A N 0.7485(5) 0.2862(6) -0.0998(5)
H4A H 0.7408 0.3062 -0.0712
N9A N 0.7393(4) 0.3561(6) -0.2868(5)
C1A C 0.7687(5) 0.0552(6) 0.0648(9)
H5A H 0.7441 0.0297 0.0981
C2A C 0.7869(6) 0.0343(8) 0.0112(8)
H6A H 0.7753 -0.0045 0.0088
C3A C 0.8201(7) 0.0691(9) -0.0355(11)
H7A H 0.8331 0.0557 -0.0720
C4A C 0.8371(7) 0.1275(9) -0.0320(9)
H8A H 0.8608 0.1534 -0.0658
C5A C 0.8183(4) 0.1440(6) 0.0208(7)
C6A C 0.8333(5) 0.2056(6) 0.0302(8)
C7A C 0.8699(5) 0.2464(7) -0.0115(8)
H9A H 0.8879 0.2386 -0.0478
C8A C 0.8798(6) 0.2979(8) 0.0004(9)
H10A H 0.9073 0.3280 -0.0263
C9A C 0.8510(5) 0.3093(7) 0.0510(8)
C10A C 0.8181(4) 0.2675(6) 0.0925(7)
H11A H 0.8024 0.2756 0.1311
C11A C 0.8623(6) 0.3686(8) 0.0570(9)
H12A H 0.8685 0.3855 0.0109
H13A H 0.8968 0.3911 0.0843
C12A C 0.8174(4) 0.3843(6) 0.1576(6)
C13A C 0.7602(6) 0.3937(8) 0.2463(6)
H14A H 0.7875 0.3904 0.2760
H15A H 0.7222 0.3662 0.2631
C14A C 0.7973(4) 0.4938(6) 0.2069(6)
H16A H 0.8095 0.4839 0.1666
C15A C 0.7683(4) 0.4520(6) 0.2557(6)
C16A C 0.7508(5) 0.4685(8) 0.3118(7)
H17A H 0.7303 0.4423 0.3469
C17A C 0.7635(7) 0.5254(10) 0.3176(8)
H18A H 0.7526 0.5380 0.3568
C18A C 0.7925(4) 0.5620(6) 0.2638(7)
N10A N 0.8346(4) 0.6534(6) 0.2136(7)
C19A C 0.8461(6) 0.7057(8) 0.2069(8)
H19A H 0.8661 0.7269 0.1680
C20A C 0.8287(9) 0.7297(12) 0.2572(12)
H20A H 0.8365 0.7672 0.2523
C21A C 0.8019(11) 0.7007(15) 0.3106(12)
H21A H 0.7895 0.7174 0.3436
C22A C 0.7904(7) 0.6442(10) 0.3214(9)
H22A H 0.7730 0.6236 0.3618
C23A C 0.8065(6) 0.6226(8) 0.2687(7)
N11A N 0.6997(5) 0.0687(6) 0.1891(6)
C24A C 0.7128(6) 0.0470(8) 0.2418(7)
H23A H 0.7495 0.0670 0.2607
C25A C 0.6745(9) -0.0034(12) 0.2692(10)
H24A H 0.6848 -0.0183 0.3067
C26A C 0.6234(9) -0.0314(13) 0.2438(12)
H25A H 0.5976 -0.0668 0.2630
C27A C 0.6054(7) -0.0102(11) 0.1880(8)
H26A H 0.5682 -0.0290 0.1708
C28A C 0.6476(5) 0.0406(7) 0.1612(7)
C29A C 0.6389(5) 0.0690(7) 0.1047(7)
C30A C 0.5877(5) 0.0458(7) 0.0682(7)
H27A H 0.5566 0.0115 0.0831
C31A C 0.5825(4) 0.0722(6) 0.0117(6)
H28A H 0.5490 0.0554 -0.0147
C32A C 0.6270(4) 0.1235(6) -0.0057(5)
C33A C 0.6754(4) 0.1453(5) 0.0314(5)
H29A H 0.7055 0.1813 0.0190
C34A C 0.6222(4) 0.1546(6) -0.0686(6)
H30A H 0.6239 0.1353 -0.1105
H31A H 0.5851 0.1522 -0.0678
C35A C 0.7129(5) 0.2316(6) -0.1039(6)
C36A C 0.7989(5) 0.3146(7) -0.1393(6)
H32A H 0.8085 0.2865 -0.1563
H33A H 0.8298 0.3409 -0.1091
C37A C 0.7455(5) 0.3303(7) -0.2329(6)
H34A H 0.7128 0.2979 -0.2168
C38A C 0.7953(5) 0.3460(7) -0.1978(6)
C39A C 0.8437(6) 0.3959(9) -0.2220(7)
H35A H 0.8793 0.4092 -0.2012
C40A C 0.8371(7) 0.4232(10) -0.2750(7)
H36A H 0.8681 0.4575 -0.2902
C41A C 0.7861(6) 0.4023(8) -0.3078(5)
N12A N 0.7247(6) 0.4046(8) -0.3945(4)
C42A C 0.7148(7) 0.4254(9) -0.4501(6)
H37A H 0.6777 0.4072 -0.4679
C43A C 0.7556(9) 0.4721(13) -0.4838(8)
H38A H 0.7470 0.4852 -0.5244
C44A C 0.8065(10) 0.4979(13) -0.4583(7)
H39A H 0.8347 0.5308 -0.4804
C45A C 0.8211(7) 0.4781(10) -0.3975(7)
H40A H 0.8578 0.4966 -0.3784
C46A C 0.7780(6) 0.4307(8) -0.3700(5)
Ni1B Ni 0.85503(8) 0.61049(5) 0.14280(9)
O1B O 0.6023(6) 0.4600(5) 0.1898(6)
O2B O 0.8002(6) 0.5244(4) -0.1394(5)
N1B N 0.8917(5) 0.6758(3) 0.0710(6)
N2B N 0.7863(6) 0.5922(4) 0.0825(5)
N3B N 0.6301(6) 0.4438(4) 0.0908(6)
H1B H 0.6387 0.4219 0.0673
N4B N 0.6217(7) 0.3872(5) 0.1823(6)
H2B H 0.6357 0.3720 0.1549
N5B N 0.4537(5) 0.2627(4) 0.2131(4)
N6B N 0.8811(6) 0.5640(4) 0.0845(5)
N7B N 0.7884(5) 0.4528(3) -0.0722(5)
H3B H 0.7640 0.4217 -0.0514
N8B N 0.7138(6) 0.4623(4) -0.0998(5)
H4B H 0.6938 0.4346 -0.0712
N9B N 0.6439(6) 0.3832(4) -0.2868(5)
C1B C 0.9448(6) 0.7135(4) 0.0648(9)
H5B H 0.9703 0.7144 0.0981
C2B C 0.9657(8) 0.7526(5) 0.0112(8)
H6B H 1.0045 0.7798 0.0088
C3B C 0.9309(9) 0.7510(6) -0.0355(11)
H7B H 0.9443 0.7774 -0.0720
C4B C 0.8725(9) 0.7096(6) -0.0320(9)
H8B H 0.8466 0.7074 -0.0658
C5B C 0.8560(6) 0.6743(4) 0.0208(7)
C6B C 0.7944(6) 0.6277(4) 0.0302(8)
C7B C 0.7536(7) 0.6235(5) -0.0115(8)
H9B H 0.7614 0.6493 -0.0478
C8B C 0.7021(8) 0.5819(5) 0.0004(9)
H10B H 0.6720 0.5793 -0.0263
C9B C 0.6907(7) 0.5417(5) 0.0510(8)
C10B C 0.7325(6) 0.5506(4) 0.0925(7)
H11B H 0.7244 0.5268 0.1311
C11B C 0.6314(8) 0.4937(6) 0.0570(9)
H12B H 0.6145 0.4830 0.0109
H13B H 0.6089 0.5057 0.0843
C12B C 0.6157(6) 0.4331(4) 0.1576(6)
C13B C 0.6063(8) 0.3665(6) 0.2463(6)
H14B H 0.6096 0.3971 0.2760
H15B H 0.6338 0.3560 0.2631
C14B C 0.5062(6) 0.3035(5) 0.2069(6)
H16B H 0.5161 0.3256 0.1666
C15B C 0.5480(6) 0.3163(5) 0.2557(6)
C16B C 0.5315(8) 0.2823(6) 0.3118(7)
H17B H 0.5577 0.2880 0.3469
C17B C 0.4746(10) 0.2381(7) 0.3176(8)
H18B H 0.4620 0.2146 0.3568
C18B C 0.4380(6) 0.2305(5) 0.2638(7)
N10B N 0.3466(6) 0.1812(5) 0.2136(7)
C19B C 0.2943(8) 0.1404(6) 0.2069(8)
H19B H 0.2731 0.1392 0.1680
C20B C 0.2703(12) 0.0990(8) 0.2572(12)
H20B H 0.2328 0.0693 0.2523
C21B C 0.2993(15) 0.1012(10) 0.3106(12)
H21B H 0.2826 0.0721 0.3436
C22B C 0.3558(10) 0.1462(7) 0.3214(9)
H22B H 0.3764 0.1494 0.3618
C23B C 0.3774(8) 0.1839(6) 0.2687(7)
N11B N 0.9313(6) 0.6310(4) 0.1891(6)
C24B C 0.9530(8) 0.6658(5) 0.2418(7)
H23B H 0.9330 0.6825 0.2607
C25B C 1.0034(12) 0.6779(8) 0.2692(10)
H24B H 1.0183 0.7031 0.3067
C26B C 1.0314(13) 0.6548(10) 0.2438(12)
H25B H 1.0668 0.6644 0.2630
C27B C 1.0102(11) 0.6156(8) 0.1880(8)
H26B H 1.0290 0.5972 0.1708
C28B C 0.9594(7) 0.6070(5) 0.1612(7)
C29B C 0.9310(7) 0.5699(5) 0.1047(7)
C30B C 0.9542(7) 0.5419(5) 0.0682(7)
H27B H 0.9885 0.5451 0.0831
C31B C 0.9278(6) 0.5103(4) 0.0117(6)
H28B H 0.9446 0.4936 -0.0147
C32B C 0.8765(6) 0.5035(4) -0.0057(5)
C33B C 0.8547(5) 0.5301(3) 0.0314(5)
H29B H 0.8187 0.5242 0.0190
C34B C 0.8454(6) 0.4676(4) -0.0686(6)
H30B H 0.8647 0.4886 -0.1105
H31B H 0.8478 0.4329 -0.0678
C35B C 0.7684(6) 0.4813(4) -0.1039(6)
C36B C 0.6854(7) 0.4843(5) -0.1393(6)
H32B H 0.7135 0.5220 -0.1563
H33B H 0.6591 0.4889 -0.1091
C37B C 0.6697(7) 0.4152(5) -0.2329(6)
H34B H 0.7021 0.4149 -0.2168
C38B C 0.6540(7) 0.4493(5) -0.1978(6)
C39B C 0.6041(9) 0.4478(7) -0.2220(7)
H35B H 0.5908 0.4701 -0.2012
C40B C 0.5768(10) 0.4139(7) -0.2750(7)
H36B H 0.5425 0.4106 -0.2902
C41B C 0.5977(8) 0.3838(5) -0.3078(5)
N12B N 0.5954(8) 0.3201(5) -0.3945(4)
C42B C 0.5746(9) 0.2894(6) -0.4501(6)
H37B H 0.5928 0.2705 -0.4679
C43B C 0.5279(13) 0.2835(9) -0.4838(8)
H38B H 0.5148 0.2618 -0.5244
C44B C 0.5021(13) 0.3086(9) -0.4583(7)
H39B H 0.4692 0.3039 -0.4804
C45B C 0.5219(10) 0.3430(7) -0.3975(7)
H40B H 0.5034 0.3612 -0.3784
C46B C 0.5693(8) 0.3473(6) -0.3700(5)
P1 P 0.6667 0.3333 0.0266(2)
O3 O 0.7240(2) 0.3466(2) 0.0007(4)
O4 O 0.6667 0.3333 0.1026(5)
O3A O 0.6534(2) 0.3774(3) 0.0007(4)
O3B O 0.6226(3) 0.2760(2) 0.0007(4)
O5 O 0.6667 0.3333 0.4012(8)
O6 O 0.4665(9) 0.0493(8) -0.1016(13)
O7 O 0.2865(7) 0.1934(7) 0.4770(7)
O8 O 0.3088(11) 0.2467(12) 0.3932(15)
N13 N 0.3224(9) 0.2290(11) 0.4403(13)
O9 O 0.3708(12) 0.2480(16) 0.4559(17)
O10 O 0.3586(7) 0.4697(6) 0.0721(6)
O11 O 0.8047(15) 0.3823(10) -0.5776(11)
O12 O 0.4922(7) 0.5376(7) 0.1409(9)
O13 O 0.4455(9) 0.0994(10) 0.2680(13)
O14 O 0.4485(9) 0.5293(10) -0.0034(12)
O15 O 0.4678(16) -0.0410(13) -0.1272(16)
loop_
_geom_bond_atom_site_label_1
_geom_bond_atom_site_label_2
_geom_bond_site_symmetry_1
_geom_bond_site_symmetry_2
Ni1 N1 1_555 1_555
Ni2 N9 1_555 1_555
O1 C12 1_555 1_555
O2 C35 1_555 1_555
N1 C1 1_555 1_555
N2 Ni1 1_555 1_555
N3 H1 1_555 1_555
N4 H2 1_555 1_555
N5 C14 1_555 1_555
N6 Ni1 1_555 1_555
N7 H3 1_555 1_555
N8 H4 1_555 1_555
N9 C37 1_555 1_555
C1 H5 1_555 1_555
C2 C1 1_555 1_555
H6 C2 1_555 1_555
C3 C2 1_555 1_555
H7 C3 1_555 1_555
C4 C3 1_555 1_555
H8 C4 1_555 1_555
C5 N1 1_555 1_555
C6 N2 1_555 1_555
C7 C6 1_555 1_555
H9 C7 1_555 1_555
C8 C7 1_555 1_555
H10 C8 1_555 1_555
C9 C8 1_555 1_555
C10 N2 1_555 1_555
H11 C10 1_555 1_555
C11 N3 1_555 1_555
H12 C11 1_555 1_555
H13 C11 1_555 1_555
C12 N3 1_555 1_555
C13 N4 1_555 1_555
H14 C13 1_555 1_555
H15 C13 1_555 1_555
C14 H16 1_555 1_555
C15 C13 1_555 1_555
C16 C15 1_555 1_555
H17 C16 1_555 1_555
C17 C16 1_555 1_555
H18 C17 1_555 1_555
C18 N5 1_555 1_555
N10 C19 1_555 1_555
C19 H19 1_555 1_555
C20 C19 1_555 1_555
H20 C20 1_555 1_555
C21 C20 1_555 1_555
H21 C21 1_555 1_555
C22 C21 1_555 1_555
H22 C22 1_555 1_555
C23 C18 1_555 1_555
N11 Ni1 1_555 1_555
C24 N11 1_555 1_555
H23 C24 1_555 1_555
C25 C24 1_555 1_555
H24 C25 1_555 1_555
C26 C25 1_555 1_555
H25 C26 1_555 1_555
C27 C26 1_555 1_555
H26 C27 1_555 1_555
C28 N11 1_555 1_555
C29 N6 1_555 1_555
C30 C29 1_555 1_555
H27 C30 1_555 1_555
C31 C30 1_555 1_555
H28 C31 1_555 1_555
C32 C31 1_555 1_555
C33 N6 1_555 1_555
H29 C33 1_555 1_555
C34 N7 1_555 1_555
H30 C34 1_555 1_555
H31 C34 1_555 1_555
C35 N7 1_555 1_555
C36 N8 1_555 1_555
H32 C36 1_555 1_555
H33 C36 1_555 1_555
C37 H34 1_555 1_555
C38 C36 1_555 1_555
C39 C38 1_555 1_555
H35 C39 1_555 1_555
C40 C39 1_555 1_555
H36 C40 1_555 1_555
C41 N9 1_555 1_555
N12 Ni2 1_555 1_555
C42 N12 1_555 1_555
H37 C42 1_555 1_555
C43 C42 1_555 1_555
H38 C43 1_555 1_555
C44 C43 1_555 1_555
H39 C44 1_555 1_555
C45 C44 1_555 1_555
H40 C45 1_555 1_555
C46 C41 1_555 1_555
P1 O3 1_555 1_555
O4 P1 1_555 1_555
O7 N13 1_555 1_555
O8 N13 1_555 1_555
N13 O9 1_555 1_555
Ni1A N5 1_555 1_555
O1A C12A 1_555 1_555
O2A C35A 1_555 1_555
N1A Ni1A 1_555 1_555
N2A Ni1A 1_555 1_555
N3A H1A 1_555 1_555
N4A H2A 1_555 1_555
N5A C14A 1_555 1_555
N6A Ni1A 1_555 1_555
N7A H3A 1_555 1_555
N8A H4A 1_555 1_555
N9A Ni2 1_555 1_555
C1A N1A 1_555 1_555
H5A C1A 1_555 1_555
C2A C1A 1_555 1_555
H6A C2A 1_555 1_555
C3A C2A 1_555 1_555
H7A C3A 1_555 1_555
C4A C3A 1_555 1_555
H8A C4A 1_555 1_555
C5A N1A 1_555 1_555
C6A N2A 1_555 1_555
C7A C6A 1_555 1_555
H9A C7A 1_555 1_555
C8A C7A 1_555 1_555
H10A C8A 1_555 1_555
C9A C8A 1_555 1_555
C10A N2A 1_555 1_555
H11A C10A 1_555 1_555
C11A N3A 1_555 1_555
H12A C11A 1_555 1_555
H13A C11A 1_555 1_555
C12A N3A 1_555 1_555
C13A N4A 1_555 1_555
H14A C13A 1_555 1_555
H15A C13A 1_555 1_555
C14A H16A 1_555 1_555
C15A C13A 1_555 1_555
C16A C15A 1_555 1_555
H17A C16A 1_555 1_555
C17A C16A 1_555 1_555
H18A C17A 1_555 1_555
C18A N5A 1_555 1_555
N10A C19A 1_555 1_555
C19A H19A 1_555 1_555
C20A C19A 1_555 1_555
H20A C20A 1_555 1_555
C21A C20A 1_555 1_555
H21A C21A 1_555 1_555
C22A C21A 1_555 1_555
H22A C22A 1_555 1_555
C23A C18A 1_555 1_555
N11A Ni1A 1_555 1_555
C24A N11A 1_555 1_555
H23A C24A 1_555 1_555
C25A C24A 1_555 1_555
H24A C25A 1_555 1_555
C26A C25A 1_555 1_555
H25A C26A 1_555 1_555
C27A C26A 1_555 1_555
H26A C27A 1_555 1_555
C28A N11A 1_555 1_555
C29A N6A 1_555 1_555
C30A C29A 1_555 1_555
H27A C30A 1_555 1_555
C31A C30A 1_555 1_555
H28A C31A 1_555 1_555
C32A C31A 1_555 1_555
C33A N6A 1_555 1_555
H29A C33A 1_555 1_555
C34A N7A 1_555 1_555
H30A C34A 1_555 1_555
H31A C34A 1_555 1_555
C35A N7A 1_555 1_555
C36A N8A 1_555 1_555
H32A C36A 1_555 1_555
H33A C36A 1_555 1_555
C37A N9A 1_555 1_555
H34A C37A 1_555 1_555
C38A C36A 1_555 1_555
C39A C38A 1_555 1_555
H35A C39A 1_555 1_555
C40A C39A 1_555 1_555
H36A C40A 1_555 1_555
C41A N9A 1_555 1_555
N12A Ni2 1_555 1_555
C42A N12A 1_555 1_555
H37A C42A 1_555 1_555
C43A C42A 1_555 1_555
H38A C43A 1_555 1_555
C44A C43A 1_555 1_555
H39A C44A 1_555 1_555
C45A C44A 1_555 1_555
H40A C45A 1_555 1_555
C46A C41A 1_555 1_555
Ni1B N5A 1_555 1_555
O1B C12B 1_555 1_555
O2B C35B 1_555 1_555
N1B Ni1B 1_555 1_555
N2B Ni1B 1_555 1_555
N3B H1B 1_555 1_555
N4B H2B 1_555 1_555
N5B Ni1 1_555 1_555
N6B Ni1B 1_555 1_555
N7B H3B 1_555 1_555
N8B H4B 1_555 1_555
N9B Ni2 1_555 1_555
C1B N1B 1_555 1_555
H5B C1B 1_555 1_555
C2B C1B 1_555 1_555
H6B C2B 1_555 1_555
C3B C2B 1_555 1_555
H7B C3B 1_555 1_555
C4B C3B 1_555 1_555
H8B C4B 1_555 1_555
C5B N1B 1_555 1_555
C6B N2B 1_555 1_555
C7B C6B 1_555 1_555
H9B C7B 1_555 1_555
C8B C7B 1_555 1_555
H10B C8B 1_555 1_555
C9B C8B 1_555 1_555
C10B N2B 1_555 1_555
H11B C10B 1_555 1_555
C11B N3B 1_555 1_555
H12B C11B 1_555 1_555
H13B C11B 1_555 1_555
C12B N3B 1_555 1_555
C13B N4B 1_555 1_555
H14B C13B 1_555 1_555
H15B C13B 1_555 1_555
C14B N5B 1_555 1_555
H16B C14B 1_555 1_555
C15B C13B 1_555 1_555
C16B C15B 1_555 1_555
H17B C16B 1_555 1_555
C17B C16B 1_555 1_555
H18B C17B 1_555 1_555
C18B N5B 1_555 1_555
N10B Ni1 1_555 1_555
C19B N10B 1_555 1_555
H19B C19B 1_555 1_555
C20B C19B 1_555 1_555
H20B C20B 1_555 1_555
C21B C20B 1_555 1_555
H21B C21B 1_555 1_555
C22B C21B 1_555 1_555
H22B C22B 1_555 1_555
C23B C18B 1_555 1_555
N11B Ni1B 1_555 1_555
C24B N11B 1_555 1_555
H23B C24B 1_555 1_555
C25B C24B 1_555 1_555
H24B C25B 1_555 1_555
C26B C25B 1_555 1_555
H25B C26B 1_555 1_555
C27B C26B 1_555 1_555
H26B C27B 1_555 1_555
C28B N11B 1_555 1_555
C29B N6B 1_555 1_555
C30B C29B 1_555 1_555
H27B C30B 1_555 1_555
C31B C30B 1_555 1_555
H28B C31B 1_555 1_555
C32B C31B 1_555 1_555
C33B N6B 1_555 1_555
H29B C33B 1_555 1_555
C34B N7B 1_555 1_555
H30B C34B 1_555 1_555
H31B C34B 1_555 1_555
C35B N7B 1_555 1_555
C36B N8B 1_555 1_555
H32B C36B 1_555 1_555
H33B C36B 1_555 1_555
C37B N9B 1_555 1_555
H34B C37B 1_555 1_555
C38B C36B 1_555 1_555
C39B C38B 1_555 1_555
H35B C39B 1_555 1_555
C40B C39B 1_555 1_555
H36B C40B 1_555 1_555
C41B N9B 1_555 1_555
N12B Ni2 1_555 1_555
C42B N12B 1_555 1_555
H37B C42B 1_555 1_555
C43B C42B 1_555 1_555
H38B C43B 1_555 1_555
C44B C43B 1_555 1_555
H39B C44B 1_555 1_555
C45B C44B 1_555 1_555
H40B C45B 1_555 1_555
C46B C41B 1_555 1_555
O3A P1 1_555 1_555
O3B P1 1_555 1_555
N4 C12 1_555 1_555
N8 C35 1_555 1_555
C4 C5 1_555 1_555
C5 C6 1_555 1_555
C9 C10 1_555 1_555
C9 C11 1_555 1_555
C14 C15 1_555 1_555
C17 C18 1_555 1_555
N10 C23 1_555 1_555
N10 Ni1A 1_555 1_555
C22 C23 1_555 1_555
C27 C28 1_555 1_555
C28 C29 1_555 1_555
C32 C33 1_555 1_555
C32 C34 1_555 1_555
C37 C38 1_555 1_555
C40 C41 1_555 1_555
N12 C46 1_555 1_555
C45 C46 1_555 1_555
N4A C12A 1_555 1_555
N8A C35A 1_555 1_555
C4A C5A 1_555 1_555
C5A C6A 1_555 1_555
C9A C10A 1_555 1_555
C9A C11A 1_555 1_555
C14A C15A 1_555 1_555
C17A C18A 1_555 1_555
N10A C23A 1_555 1_555
N10A Ni1B 1_555 1_555
C22A C23A 1_555 1_555
C27A C28A 1_555 1_555
C28A C29A 1_555 1_555
C32A C33A 1_555 1_555
C32A C34A 1_555 1_555
C37A C38A 1_555 1_555
C40A C41A 1_555 1_555
N12A C46A 1_555 1_555
C45A C46A 1_555 1_555
N4B C12B 1_555 1_555
N8B C35B 1_555 1_555
C4B C5B 1_555 1_555
C5B C6B 1_555 1_555
C9B C10B 1_555 1_555
C9B C11B 1_555 1_555
C14B C15B 1_555 1_555
C17B C18B 1_555 1_555
N10B C23B 1_555 1_555
C22B C23B 1_555 1_555
C27B C28B 1_555 1_555
C28B C29B 1_555 1_555
C32B C33B 1_555 1_555
C32B C34B 1_555 1_555
C37B C38B 1_555 1_555
C40B C41B 1_555 1_555
N12B C46B 1_555 1_555
C45B C46B 1_555 1_555

#END
