
#######################################################################
#
#                 Cambridge Crystallographic Data Centre
#                                CCDC 
#
#######################################################################
#
# If this CIF has been generated from an entry in the Cambridge 
# Structural Database, then it will include bibliographic, chemical, 
# crystal, experimental, refinement or atomic coordinate data resulting 
# from the CCDC's data processing and validation procedures.
#
#######################################################################

data_XUXKEI
_chemical_formula_moiety         
'C186 H216 N36 O6 Zn4 5+,6(C1 H4 O1),O4 S1 2-,3(N1 O3 1-),51(H2 O1)'
_chemical_name_systematic        
"hexakis(\m-1,3-bis((4'-t-butyl-2,2'-bipyridin-5-yl)methyl)urea)-tetra-zinc sulfate trinitrate methanol solvate hydrate"
_symmetry_cell_setting           monoclinic
_symmetry_space_group_name_H-M   'P 21/n'
_symmetry_Int_Tables_number      14
_space_group_name_Hall           '-P 2yn'
loop_
_symmetry_equiv_pos_site_id
_symmetry_equiv_pos_as_xyz
1 x,y,z
2 1/2-x,1/2+y,1/2-z
3 -x,-y,-z
4 1/2+x,1/2-y,1/2+z
_cell_length_a                   19.6077(10)
_cell_length_b                   38.301(2)
_cell_length_c                   35.8262(19)
_cell_angle_alpha                90
_cell_angle_beta                 99.4500(10)
_cell_angle_gamma                90
_cell_volume                     26540.2
_cell_formula_units_Z            4
loop_
_atom_site_label
_atom_site_type_symbol
_atom_site_fract_x
_atom_site_fract_y
_atom_site_fract_z
Zn1 Zn 0.79259(3) 0.097386(18) 0.61850(2)
N1 N 0.7881(3) 0.04426(13) 0.63413(17)
C1 C 0.7665(4) 0.01794(19) 0.6098(2)
H1 H 0.7521 0.0234 0.5838
Zn2 Zn 1.20801(3) 0.313431(17) 0.567278(18)
N2 N 0.8282(2) 0.09740(12) 0.68045(14)
C2 C 0.7644(4) -0.0158(2) 0.6209(3)
H2 H 0.7490 -0.0333 0.6026
Zn3 Zn 1.35514(3) 0.088461(17) 0.796443(18)
N3 N 0.7785(2) 0.09167(13) 0.55820(15)
C3 C 0.7843(4) -0.0252(2) 0.6580(3)
Zn4 Zn 0.99697(3) 0.323874(17) 0.856841(19)
N4 N 0.8967(2) 0.09508(13) 0.60645(13)
C4 C 0.8056(4) 0.00207(18) 0.6832(2)
H3 H 0.8195 -0.0029 0.7093
O1 O 0.9654(2) 0.20953(14) 0.55948(13)
N5 N 0.6857(2) 0.10770(13) 0.62114(14)
C5 C 0.8070(3) 0.03640(17) 0.6706(2)
O2 O 0.8074(2) 0.21493(13) 0.74801(16)
N6 N 0.7863(2) 0.15332(12) 0.61924(13)
C6 C 0.8302(3) 0.06522(16) 0.6962(2)
O3 O 1.0693(3) 0.05921(12) 0.72055(14)
N7 N 1.1633(3) 0.31334(13) 0.50871(14)
C7 C 0.8538(4) 0.06150(19) 0.7350(2)
H4 H 0.8556 0.0390 0.7463
O4 O 1.1862(3) 0.20196(14) 0.87270(13)
N8 N 1.0987(2) 0.31503(13) 0.56821(14)
C8 C 0.8745(4) 0.09041(18) 0.7570(2)
H5 H 0.8918 0.0877 0.7832
O5 O 1.3497(2) 0.21153(12) 0.67487(13)
N9 N 1.2210(3) 0.36857(13) 0.57308(14)
C9 C 0.8700(3) 0.12325(16) 0.74089(18)
O6 O 1.0757(3) 0.35325(12) 0.68546(14)
N10 N 1.2446(2) 0.32052(12) 0.62757(13)
C10 C 0.8476(3) 0.12528(16) 0.70249(18)
H6 H 0.8457 0.1476 0.6909
N11 N 1.3095(3) 0.30101(13) 0.55779(14)
C11 C 0.7180(3) 0.09151(19) 0.5344(2)
H7 H 0.6767 0.0932 0.5449
N12 N 1.2108(2) 0.25700(12) 0.56974(12)
C12 C 0.7123(4) 0.0891(2) 0.4960(2)
H8 H 0.6679 0.0894 0.4807
N13 N 1.3651(2) 0.14541(12) 0.79973(13)
C13 C 0.7701(4) 0.08628(18) 0.4792(2)
N14 N 1.4548(2) 0.09836(12) 0.78336(13)
C14 C 0.8342(4) 0.08638(17) 0.50443(18)
H9 H 0.8762 0.0841 0.4947
N15 N 1.2612(2) 0.08978(12) 0.81904(13)
C15 C 0.8359(3) 0.08975(15) 0.54269(18)
N16 N 1.3877(2) 0.07997(12) 0.85581(14)
C16 C 0.9020(3) 0.09086(16) 0.56997(18)
N17 N 1.3067(2) 0.09211(11) 0.73685(13)
C17 C 0.9675(3) 0.08743(19) 0.55925(19)
H10 H 0.9715 0.0843 0.5334
N18 N 1.3508(2) 0.03535(12) 0.77725(13)
C18 C 1.0252(3) 0.08870(18) 0.58626(19)
H11 H 1.0696 0.0863 0.5791
N19 N 0.9923(3) 0.37880(13) 0.84671(15)
C19 C 1.0198(3) 0.09335(15) 0.62359(18)
N20 N 0.9368(2) 0.32818(12) 0.80045(14)
C20 C 0.9546(3) 0.09654(17) 0.63180(18)
H12 H 0.9501 0.1001 0.6575
N21 N 1.0783(3) 0.32402(13) 0.90503(14)
C21 C 0.6338(3) 0.08406(17) 0.6176(2)
H13 H 0.6445 0.0602 0.6141
N22 N 1.0914(2) 0.31577(12) 0.83215(13)
C22 C 0.5674(3) 0.09280(17) 0.61902(19)
H14 H 0.5330 0.0751 0.6157
N23 N 0.9112(3) 0.32170(12) 0.88676(14)
C23 C 0.5481(3) 0.12723(17) 0.62518(17)
N24 N 0.9796(2) 0.26901(12) 0.86186(13)
C24 C 0.6034(3) 0.15168(16) 0.62901(17)
H15 H 0.5945 0.1756 0.6336
N25 N 1.0999(3) 0.30270(14) 0.71658(14)
H16 H 1.0860 0.2813 0.7200
C25 C 0.6692(3) 0.14133(16) 0.62623(16)
N26 N 1.0094(3) 0.30580(15) 0.66798(15)
H17 H 0.9985 0.2846 0.6744
C26 C 0.7269(3) 0.16669(15) 0.62699(15)
N27 N 0.8951(3) 0.24280(14) 0.72527(16)
H18 H 0.9380 0.2412 0.7212
C27 C 0.7205(3) 0.20167(16) 0.63466(19)
H19 H 0.6792 0.2104 0.6418
N28 N 0.9066(3) 0.18578(14) 0.74555(16)
H20 H 0.9458 0.1856 0.7366
C28 C 0.7757(3) 0.22403(18) 0.63173(19)
H21 H 0.7719 0.2483 0.6364
N29 N 1.1022(3) 0.19151(14) 0.82219(15)
H22 H 1.0910 0.1913 0.7974
C29 C 0.8359(3) 0.21062(15) 0.62193(16)
N30 N 1.2046(3) 0.21588(14) 0.81317(15)
H23 H 1.1856 0.2176 0.7892
C30 C 0.8391(3) 0.17527(16) 0.61694(16)
H24 H 0.8811 0.1656 0.6115
N31 N 1.0670(3) 0.10996(13) 0.75259(15)
H25 H 1.0646 0.1329 0.7511
C31 C 1.3573(3) 0.32431(18) 0.5523(2)
H26 H 1.3475 0.3484 0.5548
N32 N 1.0749(3) 0.11058(14) 0.68915(15)
H27 H 1.0726 0.1335 0.6904
C32 C 1.4203(4) 0.31505(18) 0.5432(2)
H28 H 1.4531 0.3326 0.5401
N33 N 1.2756(3) 0.23882(13) 0.70743(14)
H29 H 1.2364 0.2374 0.7163
C33 C 1.4358(3) 0.28045(19) 0.5386(2)
N34 N 1.2468(2) 0.18605(13) 0.67968(15)
H30 H 1.2086 0.1875 0.6895
C34 C 1.3859(3) 0.25621(18) 0.5442(2)
H31 H 1.3944 0.2320 0.5414
N35 N 0.9619(3) 0.21793(15) 0.62183(15)
H32 H 0.9834 0.2150 0.6452
C35 C 1.3230(3) 0.26745(16) 0.55393(17)
N36 N 1.0562(3) 0.19261(15) 0.60383(15)
H33 H 1.0732 0.1919 0.6281
C36 C 1.2668(3) 0.24214(16) 0.56071(16)
C37 C 1.2733(3) 0.20647(17) 0.55716(19)
H34 H 1.3142 0.1966 0.5506
C38 C 1.2191(3) 0.18535(16) 0.56329(17)
H35 H 1.2230 0.1607 0.5616
C39 C 1.1589(3) 0.20013(16) 0.57200(16)
C40 C 1.1584(3) 0.23611(15) 0.57522(16)
H36 H 1.1182 0.2468 0.5817
C41 C 1.2018(3) 0.39231(17) 0.54560(19)
H37 H 1.1860 0.3843 0.5206
C42 C 1.2041(4) 0.42648(19) 0.5519(2)
H38 H 1.1887 0.4421 0.5317
C43 C 1.2291(4) 0.43989(18) 0.5884(2)
C44 C 1.2499(4) 0.41598(17) 0.6155(2)
H39 H 1.2682 0.4236 0.6403
C45 C 1.2453(3) 0.38064(15) 0.60793(17)
C46 C 1.2662(3) 0.35335(15) 0.63705(16)
C47 C 1.3043(3) 0.36025(16) 0.67170(18)
H40 H 1.3192 0.3834 0.6781
C48 C 1.3215(3) 0.33306(17) 0.69786(18)
H41 H 1.3487 0.3376 0.7219
C49 C 1.2987(3) 0.29990(15) 0.68831(16)
C50 C 1.2606(3) 0.29468(15) 0.65271(16)
H42 H 1.2450 0.2717 0.6458
C51 C 1.1986(4) 0.31603(17) 0.47941(17)
H43 H 1.2477 0.3168 0.4846
C52 C 1.1659(4) 0.3177(2) 0.4422(2)
H44 H 1.1924 0.3200 0.4224
C53 C 1.0955(5) 0.3158(2) 0.4338(2)
C54 C 1.0595(4) 0.3118(2) 0.46404(19)
H45 H 1.0106 0.3095 0.4595
C55 C 1.0960(3) 0.31110(16) 0.50135(17)
C56 C 1.0584(3) 0.31075(16) 0.53432(18)
C57 C 0.9879(4) 0.3068(2) 0.53202(19)
H46 H 0.9598 0.3015 0.5085
C58 C 0.9589(3) 0.31053(18) 0.5638(2)
H47 H 0.9101 0.3090 0.5619
C59 C 0.9994(3) 0.31657(16) 0.59898(18)
C60 C 1.0705(3) 0.31773(16) 0.59869(18)
H48 H 1.1003 0.3207 0.6222
C61 C 1.3689(3) 0.00717(16) 0.79860(19)
H49 H 1.3889 0.0107 0.8243
C62 C 1.3605(4) -0.02605(17) 0.78582(19)
H50 H 1.3756 -0.0449 0.8023
C63 C 1.3299(4) -0.03278(17) 0.7488(2)
C64 C 1.3103(4) -0.00318(17) 0.7265(2)
H51 H 1.2885 -0.0060 0.7009
C65 C 1.3223(3) 0.03028(15) 0.74138(17)
C66 C 1.3046(3) 0.06159(14) 0.71785(16)
C67 C 1.2876(3) 0.06038(16) 0.67869(17)
H52 H 1.2869 0.0388 0.6656
C68 C 1.2713(3) 0.09179(16) 0.65874(17)
H53 H 1.2587 0.0913 0.6320
C69 C 1.2736(3) 0.12275(15) 0.67748(16)
C70 C 1.2919(3) 0.12184(15) 0.71714(16)
H54 H 1.2939 0.1433 0.7307
C71 C 1.4520(3) 0.07395(18) 0.87287(19)
H55 H 1.4863 0.0695 0.8575
C72 C 1.4723(3) 0.07376(19) 0.91225(18)
H56 H 1.5186 0.0683 0.9229
C73 C 1.4244(3) 0.08159(18) 0.93568(18)
C74 C 1.3555(3) 0.08754(16) 0.91711(17)
H57 H 1.3202 0.0925 0.9316
C75 C 1.3394(3) 0.08617(14) 0.87752(16)
C76 C 1.2677(3) 0.09034(13) 0.85679(16)
C77 C 1.2093(3) 0.09335(16) 0.87469(18)
H58 H 1.2141 0.0945 0.9015
C78 C 1.1453(3) 0.09463(16) 0.85265(18)
H59 H 1.1051 0.0965 0.8642
C79 C 1.1389(3) 0.09330(14) 0.81364(17)
C80 C 1.1970(3) 0.09110(15) 0.79816(16)
H60 H 1.1927 0.0905 0.7714
C81 C 1.5010(3) 0.07359(18) 0.7790(2)
H61 H 1.4897 0.0498 0.7824
C82 C 1.5654(3) 0.08181(19) 0.76944(19)
H62 H 1.5975 0.0637 0.7670
C83 C 1.5829(3) 0.11631(19) 0.76350(17)
C84 C 1.5347(3) 0.14075(18) 0.76862(16)
H63 H 1.5442 0.1647 0.7649
C85 C 1.4729(3) 0.13158(16) 0.77910(15)
C86 C 1.4211(3) 0.15820(15) 0.78727(15)
C87 C 1.4320(3) 0.19395(17) 0.78471(18)
H64 H 1.4714 0.2027 0.7755
C88 C 1.3829(3) 0.21678(17) 0.79612(19)
H65 H 1.3886 0.2413 0.7945
C89 C 1.3268(3) 0.20345(16) 0.80959(17)
C90 C 1.3201(3) 0.16769(15) 0.81027(16)
H66 H 1.2806 0.1583 0.8189
C91 C 1.0190(4) 0.40307(17) 0.8716(2)
H67 H 1.0413 0.3957 0.8959
C92 C 1.0156(4) 0.4382(2) 0.8638(3)
H68 H 1.0354 0.4546 0.8824
C93 C 0.9840(4) 0.44936(18) 0.8296(3)
C94 C 0.9540(4) 0.42410(18) 0.8034(2)
H69 H 0.9297 0.4310 0.7794
C95 C 0.9605(3) 0.38867(15) 0.81320(19)
C96 C 0.9313(3) 0.36039(15) 0.78607(17)
C97 C 0.9032(4) 0.36639(19) 0.7491(2)
H70 H 0.8990 0.3896 0.7397
C98 C 0.8815(4) 0.3392(2) 0.7260(2)
H71 H 0.8638 0.3432 0.7001
C99 C 0.8851(3) 0.30534(16) 0.74033(17)
C100 C 0.9129(3) 0.30131(15) 0.77755(17)
H72 H 0.9155 0.2784 0.7879
C101 C 0.8782(3) 0.34851(17) 0.89922(19)
H73 H 0.8972 0.3712 0.8975
C102 C 0.8187(3) 0.34570(18) 0.91442(19)
H74 H 0.7978 0.3659 0.9231
C103 C 0.7890(4) 0.31265(19) 0.9170(2)
C104 C 0.8233(3) 0.28512(17) 0.90429(19)
H75 H 0.8052 0.2622 0.9051
C105 C 0.8846(3) 0.29034(16) 0.89012(17)
C106 C 0.9245(3) 0.26044(16) 0.87809(18)
C107 C 0.9071(4) 0.22570(19) 0.8824(3)
H76 H 0.8672 0.2198 0.8930
C108 C 0.9481(5) 0.1999(2) 0.8713(3)
H77 H 0.9366 0.1761 0.8743
C109 C 1.0061(3) 0.20826(16) 0.85585(18)
C110 C 1.0180(3) 0.24287(15) 0.85117(17)
H78 H 1.0564 0.2491 0.8395
C111 C 1.0691(4) 0.32490(18) 0.94143(18)
H79 H 1.0251 0.3317 0.9468
C112 C 1.1200(4) 0.31642(19) 0.97124(19)
H80 H 1.1114 0.3184 0.9965
C113 C 1.1848(4) 0.30477(18) 0.96422(19)
C114 C 1.1934(3) 0.30371(17) 0.92635(17)
H81 H 1.2359 0.2956 0.9200
C115 C 1.1406(3) 0.31434(16) 0.89767(18)
C116 C 1.1496(3) 0.31528(14) 0.85836(17)
C117 C 1.2138(3) 0.31601(16) 0.84617(19)
H82 H 1.2549 0.3163 0.8644
C118 C 1.2187(3) 0.31626(16) 0.80859(18)
H83 H 1.2626 0.3170 0.8006
C119 C 1.1579(3) 0.31536(14) 0.78203(18)
C120 C 1.0968(3) 0.31565(14) 0.79549(16)
H84 H 1.0553 0.3158 0.7776
C121 C 0.8876(3) 0.15581(17) 0.76507(19)
H85 H 0.8472 0.1619 0.7771
H86 H 0.9262 0.1501 0.7856
C122 C 0.8661(3) 0.21445(17) 0.74037(18)
C123 C 0.8585(3) 0.27466(18) 0.71592(19)
H87 H 0.8093 0.2710 0.7179
H88 H 0.8608 0.2805 0.6892
C124 C 1.0838(3) 0.0946(2) 0.65399(19)
H89 H 1.1004 0.0704 0.6593
H90 H 1.1204 0.1075 0.6437
C125 C 1.0701(3) 0.09156(17) 0.72034(19)
C126 C 1.0675(3) 0.09381(16) 0.78879(18)
H91 H 1.0507 0.0695 0.7848
H92 H 1.0349 0.1065 0.8023
C127 C 0.8941(3) 0.23454(18) 0.6154(2)
H93 H 0.8845 0.2433 0.5891
H94 H 0.8951 0.2549 0.6325
C128 C 0.9926(3) 0.20704(16) 0.59302(19)
C129 C 1.0971(3) 0.17841(18) 0.57754(19)
H95 H 1.0670 0.1754 0.5527
H96 H 1.1135 0.1549 0.5865
C130 C 1.1620(4) 0.31543(17) 0.74015(18)
H97 H 1.1711 0.3395 0.7323
H98 H 1.2015 0.3007 0.7359
C131 C 1.0624(4) 0.32260(17) 0.68943(18)
C132 C 0.9700(3) 0.32179(18) 0.6347(2)
H99 H 0.9668 0.3472 0.6393
H100 H 0.9225 0.3122 0.6309
C133 C 1.2576(3) 0.15637(16) 0.65705(17)
H101 H 1.2961 0.1618 0.6433
H102 H 1.2156 0.1530 0.6379
C134 C 1.2945(3) 0.21211(15) 0.68629(17)
C135 C 1.3185(3) 0.26960(16) 0.71565(17)
H103 H 1.3672 0.2631 0.7150
H104 H 1.3156 0.2776 0.7416
C136 C 1.2747(3) 0.22701(17) 0.8236(2)
H105 H 1.2857 0.2283 0.8516
H106 H 1.2793 0.2508 0.8136
C137 C 1.1653(4) 0.20280(17) 0.83790(19)
C138 C 1.0520(4) 0.17960(17) 0.8448(2)
H107 H 1.0768 0.1685 0.8682
H108 H 1.0225 0.1615 0.8305
C139 C 0.7677(4) 0.0827(2) 0.4369(2)
C140 C 0.7837(8) 0.0478(4) 0.4294(4)
H109 H 0.7409 0.0342 0.4238
H110 H 0.8134 0.0379 0.4515
H111 H 0.8080 0.0471 0.4075
C141 C 0.7010(7) 0.0939(4) 0.4153(3)
H112 H 0.6995 0.0882 0.3885
H113 H 0.6956 0.1191 0.4181
H114 H 0.6634 0.0817 0.4248
C142 C 0.8096(8) 0.1117(4) 0.4240(3)
H115 H 0.8587 0.1054 0.4288
H116 H 0.8026 0.1331 0.4380
H117 H 0.7949 0.1157 0.3969
C143 C 0.7829(6) -0.0631(2) 0.6700(3)
C144 C 0.8222(12) -0.0851(6) 0.6478(7)
H118 H 0.8167 -0.0763 0.6217
H119 H 0.8051 -0.1091 0.6476
H120 H 0.8713 -0.0846 0.6590
C145 C 0.7150(8) -0.0801(3) 0.6562(5)
H121 H 0.7139 -0.1032 0.6678
H122 H 0.7089 -0.0827 0.6286
H123 H 0.6775 -0.0657 0.6629
C146 C 0.7748(12) -0.0654(6) 0.7100(7)
H124 H 0.7730 -0.0900 0.7173
H125 H 0.7319 -0.0537 0.7136
H126 H 0.8142 -0.0540 0.7257
C147 C 0.4747(3) 0.13728(19) 0.62901(19)
C148 C 0.4224(4) 0.1104(2) 0.6080(3)
H127 H 0.4283 0.1090 0.5814
H128 H 0.3751 0.1179 0.6095
H129 H 0.4309 0.0874 0.6198
C149 C 0.4707(4) 0.1387(3) 0.6708(2)
H130 H 0.4788 0.1153 0.6818
H131 H 0.4248 0.1469 0.6743
H132 H 0.5060 0.1548 0.6835
C150 C 0.4569(4) 0.1735(2) 0.6118(2)
H133 H 0.4887 0.1908 0.6251
H134 H 0.4093 0.1795 0.6144
H135 H 0.4612 0.1732 0.5849
C151 C 1.2291(6) 0.4796(2) 0.5953(3)
C152 C 1.1464(7) 0.4888(3) 0.5939(4)
H136 H 1.1417 0.5077 0.6117
H137 H 1.1222 0.4680 0.6009
H138 H 1.1262 0.4960 0.5682
C153 C 1.2533(6) 0.4887(2) 0.6357(3)
H139 H 1.3029 0.4938 0.6395
H140 H 1.2448 0.4690 0.6517
H141 H 1.2281 0.5092 0.6424
C154 C 1.2494(9) 0.4997(3) 0.5658(4)
H142 H 1.2374 0.5242 0.5690
H143 H 1.2253 0.4911 0.5414
H144 H 1.2994 0.4975 0.5667
C155 C 1.5041(4) 0.2683(2) 0.5266(3)
C156 C 1.5353(5) 0.2378(3) 0.5525(3)
H145 H 1.5505 0.2466 0.5782
H146 H 1.5748 0.2279 0.5427
H147 H 1.5001 0.2197 0.5530
C157 C 1.4858(6) 0.2558(3) 0.4844(3)
H148 H 1.4529 0.2364 0.4828
H149 H 1.5280 0.2481 0.4755
H150 H 1.4650 0.2752 0.4686
C158 C 1.5554(5) 0.2986(3) 0.5289(4)
H151 H 1.5418 0.3143 0.5074
H152 H 1.6018 0.2894 0.5281
H153 H 1.5555 0.3114 0.5525
C159 C 1.0561(5) 0.3175(3) 0.3937(2)
C160 C 0.9828(5) 0.3278(3) 0.3904(2)
H154 H 0.9653 0.3348 0.3643
H155 H 0.9786 0.3473 0.4075
H156 H 0.9558 0.3079 0.3972
C161 C 1.0758(9) 0.2903(5) 0.3720(5)
H157 H 1.0528 0.2687 0.3778
H158 H 1.1261 0.2871 0.3779
H159 H 1.0626 0.2958 0.3451
C162 C 1.0914(8) 0.3495(4) 0.3754(4)
H160 H 1.1271 0.3406 0.3617
H161 H 1.1125 0.3654 0.3955
H162 H 1.0563 0.3621 0.3578
C163 C 1.6547(3) 0.1232(2) 0.7543(2)
C164 C 1.6591(5) 0.1618(2) 0.7405(3)
H163 H 1.6505 0.1778 0.7605
H164 H 1.6244 0.1655 0.7178
H165 H 1.7053 0.1661 0.7344
C165 C 1.7057(4) 0.1181(3) 0.7892(3)
H166 H 1.6963 0.1347 0.8085
H167 H 1.7524 0.1220 0.7836
H168 H 1.7020 0.0942 0.7985
C166 C 1.6701(4) 0.0997(2) 0.7229(2)
H169 H 1.7083 0.1096 0.7118
H170 H 1.6290 0.0978 0.7034
H171 H 1.6832 0.0765 0.7331
C167 C 1.4437(4) 0.0835(2) 0.9777(2)
C168 C 1.4033(7) 0.1125(4) 0.9941(3)
H172 H 1.3569 0.1040 0.9963
H173 H 1.3994 0.1328 0.9773
H174 H 1.4277 0.1191 1.0192
C169 C 1.4210(8) 0.0519(4) 0.9938(5)
H175 H 1.3718 0.0481 0.9842
H176 H 1.4279 0.0541 1.0215
H177 H 1.4478 0.0321 0.9868
C170 C 1.5174(6) 0.0932(3) 0.9891(3)
H178 H 1.5244 0.1030 1.0148
H179 H 1.5303 0.1106 0.9715
H180 H 1.5463 0.0723 0.9887
C171 C 0.7204(4) 0.3074(2) 0.9325(2)
C172 C 0.7270(5) 0.2746(3) 0.9570(3)
H181 H 0.6889 0.2739 0.9716
H182 H 0.7712 0.2752 0.9744
H183 H 0.7253 0.2539 0.9409
C173 C 0.6645(5) 0.3047(4) 0.8983(3)
H184 H 0.6204 0.3122 0.9051
H185 H 0.6606 0.2804 0.8895
H186 H 0.6761 0.3197 0.8781
C174 C 0.7049(6) 0.3376(3) 0.9562(3)
H187 H 0.6976 0.3586 0.9404
H188 H 0.7439 0.3414 0.9767
H189 H 0.6631 0.3326 0.9669
C175 C 0.9785(6) 0.4889(2) 0.8193(3)
C176 C 0.9135(8) 0.5032(3) 0.8287(5)
H190 H 0.9135 0.5286 0.8261
H191 H 0.9095 0.4969 0.8548
H192 H 0.8742 0.4934 0.8114
C177 C 1.0420(9) 0.5088(3) 0.8438(5)
H193 H 1.0855 0.4988 0.8387
H194 H 1.0395 0.5063 0.8708
H195 H 1.0400 0.5337 0.8371
C178 C 0.9899(7) 0.4950(2) 0.7799(3)
H196 H 0.9479 0.4889 0.7623
H197 H 1.0283 0.4804 0.7747
H198 H 1.0011 0.5196 0.7768
C179 C 1.2407(4) 0.2923(2) 0.9954(2)
C180 C 1.2449(6) 0.2540(3) 0.9922(4)
H199 H 1.2001 0.2437 0.9945
H200 H 1.2804 0.2451 1.0124
H201 H 1.2571 0.2479 0.9676
C181 C 1.2203(6) 0.3019(4) 1.0350(3)
H202 H 1.2505 0.2893 1.0551
H203 H 1.1721 0.2951 1.0352
H204 H 1.2254 0.3271 1.0392
C182 C 1.3047(5) 0.3111(3) 0.9925(3)
H205 H 1.3439 0.2992 1.0079
H206 H 1.3015 0.3350 1.0017
H207 H 1.3117 0.3115 0.9661
C183 C 1.3184(6) -0.0699(2) 0.7341(2)
C184 C 1.2806(10) -0.0706(3) 0.6928(3)
H208 H 1.2312 -0.0662 0.6922
H209 H 1.2867 -0.0935 0.6816
H210 H 1.2998 -0.0525 0.6782
C185 C 1.2746(5) -0.0893(2) 0.7597(3)
H211 H 1.3011 -0.0915 0.7853
H212 H 1.2629 -0.1127 0.7494
H213 H 1.2320 -0.0762 0.7607
C186 C 1.3915(7) -0.0888(2) 0.7390(4)
H214 H 1.4191 -0.0787 0.7213
H215 H 1.3848 -0.1138 0.7338
H216 H 1.4156 -0.0856 0.7650
S1 S 1.08143(7) 0.20753(4) 0.71501(4)
O7 O 1.14246(19) 0.22725(11) 0.73360(11)
O8 O 1.02730(19) 0.23239(10) 0.69854(11)
O9 O 1.05481(19) 0.18547(10) 0.74325(11)
O10 O 1.10075(19) 0.18508(11) 0.68497(11)
O11 O 0.8980(5) 0.2745(3) 0.4509(3)
N37 N 0.8974(7) 0.2496(4) 0.4312(4)
O12 O 0.8367(6) 0.2426(3) 0.4069(3)
O13 O 0.9456(7) 0.2285(4) 0.4280(4)
O14 O 1.0420(6) 0.1570(3) 0.4818(3)
C187 C 0.9711(10) 0.1486(5) 0.4772(5)
O15 O 1.1630(12) 0.0141(6) 0.7343(7)
C188 C 1.1469(11) -0.0011(6) 0.7712(6)
N38 N 0.9115(5) 0.3548(3) 1.0037(2)
O16 O 0.8894(6) 0.3844(4) 1.0041(4)
O17 O 0.8846(5) 0.3301(3) 1.0114(3)
O18 O 0.9700(7) 0.3532(3) 0.9979(3)
O19 O 1.0331(8) 0.4187(4) 0.9693(5)
C189 C 1.0470(10) 0.4139(5) 1.0177(6)
N39 N 0.7762(9) 0.3159(4) 0.5893(5)
O20 O 0.7917(5) 0.3102(3) 0.6235(3)
O21 O 0.7035(11) 0.3259(5) 0.5883(6)
O22 O 0.7880(7) 0.3302(4) 0.5555(4)
O23 O 0.7254(9) 0.3123(4) 0.7689(5)
C190 C 0.7443(9) 0.3200(4) 0.8070(5)
O24 O 1.0505(5) 0.4150(2) 0.6498(3)
C191 C 1.0460(7) 0.4123(4) 0.6056(4)
O25 O 0.7500(5) 0.2163(3) 0.8222(3)
C192 C 0.7447(9) 0.2081(5) 0.8658(5)
O26 O 1.3904(6) 0.3202(3) 0.8720(4)
O27 O 1.2945(4) 0.17604(19) 0.9256(2)
O28 O 1.2159(3) 0.08280(18) 0.97122(19)
O29 O 1.2267(4) 0.15434(18) 0.9831(2)
O30 O 1.2588(8) 0.0519(4) 1.0405(5)
O31 O 1.3607(10) -0.0182(5) 1.0494(5)
O32 O 0.5001(9) 0.2852(4) 0.7677(5)
O33 O 0.5798(10) 0.2343(5) 0.7687(6)
O34 O 0.4861(6) 0.2258(3) 0.7101(3)
O35 O 0.6719(8) 0.3510(4) 0.7169(4)
O36 O 0.5867(4) 0.23840(19) 0.6676(2)
O37 O 0.6389(12) 0.3076(6) 0.6454(7)
O38 O 0.6847(5) 0.2516(3) 0.7299(3)
O39 O 0.8462(9) 0.4453(5) 0.7141(5)
O40 O 0.8294(9) 0.4011(4) 0.6601(5)
O41 O 0.9865(6) 0.0475(3) 0.4766(3)
O42 O 1.3158(4) 0.3888(2) 0.4876(2)
O43 O 1.1261(6) 0.1022(3) 0.5160(3)
O44 O 1.0881(7) 0.0156(3) 0.5263(4)
O45 O 1.3609(4) 0.3353(2) 0.4474(2)
O46 O 1.2684(5) 0.1031(3) 0.5488(3)
O47 O 1.1666(4) 0.0330(2) 0.6004(2)
O48 O 1.1621(8) -0.0028(4) 0.6556(4)
O49 O 1.3000(5) 0.0399(2) 0.5839(3)
O50 O 1.3924(12) 0.0021(6) 0.5544(7)
O51 O 1.5007(5) 0.3551(2) 0.4395(3)
O52 O 1.5358(5) 0.3997(2) 0.5020(3)
O53 O 1.6350(7) 0.3854(4) 0.5612(4)
O54 O 1.4848(9) 0.4120(5) 0.7345(5)
O55 O 1.5357(8) 0.3476(4) 0.7191(5)
O56 O 1.4101(5) 0.4318(3) 0.6667(3)
O57 O 1.4548(7) 0.5026(4) 0.6722(4)
O58 O 1.4878(13) 0.3119(7) 0.6437(7)
O59 O 1.4299(7) 0.3963(4) 0.6075(4)
O60 O 1.3887(5) 0.3157(2) 0.7959(3)
O61 O 0.7842(4) 0.1617(2) 0.8759(2)
O62 O 0.8512(8) 0.4001(4) 0.5873(4)
O63 O 0.9607(6) 0.1049(3) 0.8674(3)
O64 O 1.0107(6) 0.0376(3) 0.8870(4)
O65 O 1.1152(4) 0.1874(2) 0.9385(2)
O66 O 1.0665(7) -0.0088(4) 0.9900(4)
O67 O 0.9743(6) 0.0069(3) 0.7011(3)
O68 O 0.8218(8) -0.0672(4) 0.5478(4)
O69 O 0.8206(8) -0.0027(4) 0.5248(4)
O70 O 0.6889(9) -0.0043(5) 0.5168(5)
O71 O 1.0321(5) 0.2237(2) 0.4976(3)
O72 O 0.9564(7) -0.0215(4) 0.7660(4)
O73 O 1.0895(5) 0.0522(3) 0.9534(3)
O74 O 0.9482(10) -0.0016(5) 0.6040(6)
O75 O 1.4214(5) 0.4224(3) 0.5332(3)
O76 O 0.8175(7) 0.4299(4) 0.9575(4)
loop_
_geom_bond_atom_site_label_1
_geom_bond_atom_site_label_2
_geom_bond_site_symmetry_1
_geom_bond_site_symmetry_2
Zn1 N1 1_555 1_555
N1 C1 1_555 1_555
C1 H1 1_555 1_555
Zn2 N7 1_555 1_555
N2 Zn1 1_555 1_555
C2 C1 1_555 1_555
H2 C2 1_555 1_555
Zn3 N13 1_555 1_555
N3 Zn1 1_555 1_555
C3 C2 1_555 1_555
Zn4 N19 1_555 1_555
N4 Zn1 1_555 1_555
C4 C3 1_555 1_555
H3 C4 1_555 1_555
O1 C128 1_555 1_555
N5 Zn1 1_555 1_555
C5 N1 1_555 1_555
O2 C122 1_555 1_555
N6 Zn1 1_555 1_555
C6 N2 1_555 1_555
O3 C125 1_555 1_555
N7 C51 1_555 1_555
C7 C6 1_555 1_555
H4 C7 1_555 1_555
O4 C137 1_555 1_555
N8 Zn2 1_555 1_555
C8 C7 1_555 1_555
H5 C8 1_555 1_555
O5 C134 1_555 1_555
N9 Zn2 1_555 1_555
C9 C8 1_555 1_555
O6 C131 1_555 1_555
N10 Zn2 1_555 1_555
C10 N2 1_555 1_555
H6 C10 1_555 1_555
N11 Zn2 1_555 1_555
C11 N3 1_555 1_555
H7 C11 1_555 1_555
N12 Zn2 1_555 1_555
C12 C11 1_555 1_555
H8 C12 1_555 1_555
N13 C86 1_555 1_555
C13 C12 1_555 1_555
N14 Zn3 1_555 1_555
C14 C13 1_555 1_555
H9 C14 1_555 1_555
N15 Zn3 1_555 1_555
C15 N3 1_555 1_555
N16 Zn3 1_555 1_555
C16 N4 1_555 1_555
N17 Zn3 1_555 1_555
C17 C16 1_555 1_555
H10 C17 1_555 1_555
N18 Zn3 1_555 1_555
C18 C17 1_555 1_555
H11 C18 1_555 1_555
N19 C91 1_555 1_555
C19 C18 1_555 1_555
N20 Zn4 1_555 1_555
C20 N4 1_555 1_555
H12 C20 1_555 1_555
N21 Zn4 1_555 1_555
C21 N5 1_555 1_555
H13 C21 1_555 1_555
N22 Zn4 1_555 1_555
C22 C21 1_555 1_555
H14 C22 1_555 1_555
N23 Zn4 1_555 1_555
C23 C22 1_555 1_555
N24 Zn4 1_555 1_555
C24 C23 1_555 1_555
H15 C24 1_555 1_555
N25 H16 1_555 1_555
C25 N5 1_555 1_555
N26 H17 1_555 1_555
C26 N6 1_555 1_555
N27 H18 1_555 1_555
C27 C26 1_555 1_555
H19 C27 1_555 1_555
N28 H20 1_555 1_555
C28 C27 1_555 1_555
H21 C28 1_555 1_555
N29 H22 1_555 1_555
C29 C28 1_555 1_555
N30 H23 1_555 1_555
C30 N6 1_555 1_555
H24 C30 1_555 1_555
N31 H25 1_555 1_555
C31 N11 1_555 1_555
H26 C31 1_555 1_555
N32 H27 1_555 1_555
C32 C31 1_555 1_555
H28 C32 1_555 1_555
N33 H29 1_555 1_555
C33 C32 1_555 1_555
N34 H30 1_555 1_555
C34 C33 1_555 1_555
H31 C34 1_555 1_555
N35 H32 1_555 1_555
C35 N11 1_555 1_555
N36 H33 1_555 1_555
C36 N12 1_555 1_555
C37 C36 1_555 1_555
H34 C37 1_555 1_555
C38 C37 1_555 1_555
H35 C38 1_555 1_555
C39 C38 1_555 1_555
C40 N12 1_555 1_555
H36 C40 1_555 1_555
C41 N9 1_555 1_555
H37 C41 1_555 1_555
C42 C41 1_555 1_555
H38 C42 1_555 1_555
C43 C42 1_555 1_555
C44 C43 1_555 1_555
H39 C44 1_555 1_555
C45 N9 1_555 1_555
C46 N10 1_555 1_555
C47 C46 1_555 1_555
H40 C47 1_555 1_555
C48 C47 1_555 1_555
H41 C48 1_555 1_555
C49 C48 1_555 1_555
C50 N10 1_555 1_555
H42 C50 1_555 1_555
C51 H43 1_555 1_555
C52 C51 1_555 1_555
H44 C52 1_555 1_555
C53 C52 1_555 1_555
C54 C53 1_555 1_555
H45 C54 1_555 1_555
C55 N7 1_555 1_555
C56 N8 1_555 1_555
C57 C56 1_555 1_555
H46 C57 1_555 1_555
C58 C57 1_555 1_555
H47 C58 1_555 1_555
C59 C58 1_555 1_555
C60 N8 1_555 1_555
H48 C60 1_555 1_555
C61 N18 1_555 1_555
H49 C61 1_555 1_555
C62 C61 1_555 1_555
H50 C62 1_555 1_555
C63 C62 1_555 1_555
C64 C63 1_555 1_555
H51 C64 1_555 1_555
C65 N18 1_555 1_555
C66 N17 1_555 1_555
C67 C66 1_555 1_555
H52 C67 1_555 1_555
C68 C67 1_555 1_555
H53 C68 1_555 1_555
C69 C68 1_555 1_555
C70 N17 1_555 1_555
H54 C70 1_555 1_555
C71 N16 1_555 1_555
H55 C71 1_555 1_555
C72 C71 1_555 1_555
H56 C72 1_555 1_555
C73 C72 1_555 1_555
C74 C73 1_555 1_555
H57 C74 1_555 1_555
C75 N16 1_555 1_555
C76 N15 1_555 1_555
C77 C76 1_555 1_555
H58 C77 1_555 1_555
C78 C77 1_555 1_555
H59 C78 1_555 1_555
C79 C78 1_555 1_555
C80 N15 1_555 1_555
H60 C80 1_555 1_555
C81 N14 1_555 1_555
H61 C81 1_555 1_555
C82 C81 1_555 1_555
H62 C82 1_555 1_555
C83 C82 1_555 1_555
C84 C83 1_555 1_555
H63 C84 1_555 1_555
C85 N14 1_555 1_555
C86 C85 1_555 1_555
C87 C86 1_555 1_555
H64 C87 1_555 1_555
C88 C87 1_555 1_555
H65 C88 1_555 1_555
C89 C88 1_555 1_555
C90 N13 1_555 1_555
H66 C90 1_555 1_555
C91 H67 1_555 1_555
C92 C91 1_555 1_555
H68 C92 1_555 1_555
C93 C92 1_555 1_555
C94 C93 1_555 1_555
H69 C94 1_555 1_555
C95 N19 1_555 1_555
C96 N20 1_555 1_555
C97 C96 1_555 1_555
H70 C97 1_555 1_555
C98 C97 1_555 1_555
H71 C98 1_555 1_555
C99 C98 1_555 1_555
C100 N20 1_555 1_555
H72 C100 1_555 1_555
C101 N23 1_555 1_555
H73 C101 1_555 1_555
C102 C101 1_555 1_555
H74 C102 1_555 1_555
C103 C102 1_555 1_555
C104 C103 1_555 1_555
H75 C104 1_555 1_555
C105 N23 1_555 1_555
C106 N24 1_555 1_555
C107 C106 1_555 1_555
H76 C107 1_555 1_555
C108 C107 1_555 1_555
H77 C108 1_555 1_555
C109 C108 1_555 1_555
C110 N24 1_555 1_555
H78 C110 1_555 1_555
C111 N21 1_555 1_555
H79 C111 1_555 1_555
C112 C111 1_555 1_555
H80 C112 1_555 1_555
C113 C112 1_555 1_555
C114 C113 1_555 1_555
H81 C114 1_555 1_555
C115 N21 1_555 1_555
C116 N22 1_555 1_555
C117 C116 1_555 1_555
H82 C117 1_555 1_555
C118 C117 1_555 1_555
H83 C118 1_555 1_555
C119 C118 1_555 1_555
C120 N22 1_555 1_555
H84 C120 1_555 1_555
C121 C9 1_555 1_555
H85 C121 1_555 1_555
H86 C121 1_555 1_555
C122 N27 1_555 1_555
C123 N27 1_555 1_555
H87 C123 1_555 1_555
H88 C123 1_555 1_555
C124 C19 1_555 1_555
H89 C124 1_555 1_555
H90 C124 1_555 1_555
C125 N31 1_555 1_555
C126 N31 1_555 1_555
H91 C126 1_555 1_555
H92 C126 1_555 1_555
C127 C29 1_555 1_555
H93 C127 1_555 1_555
H94 C127 1_555 1_555
C128 N35 1_555 1_555
C129 N36 1_555 1_555
H95 C129 1_555 1_555
H96 C129 1_555 1_555
C130 N25 1_555 1_555
H97 C130 1_555 1_555
H98 C130 1_555 1_555
C131 N25 1_555 1_555
C132 N26 1_555 1_555
H99 C132 1_555 1_555
H100 C132 1_555 1_555
C133 N34 1_555 1_555
H101 C133 1_555 1_555
H102 C133 1_555 1_555
C134 N33 1_555 1_555
C135 N33 1_555 1_555
H103 C135 1_555 1_555
H104 C135 1_555 1_555
C136 N30 1_555 1_555
H105 C136 1_555 1_555
H106 C136 1_555 1_555
C137 N29 1_555 1_555
C138 N29 1_555 1_555
H107 C138 1_555 1_555
H108 C138 1_555 1_555
C139 C13 1_555 1_555
C140 C139 1_555 1_555
H109 C140 1_555 1_555
H110 C140 1_555 1_555
H111 C140 1_555 1_555
C141 C139 1_555 1_555
H112 C141 1_555 1_555
H113 C141 1_555 1_555
H114 C141 1_555 1_555
C142 C139 1_555 1_555
H115 C142 1_555 1_555
H116 C142 1_555 1_555
H117 C142 1_555 1_555
C143 C3 1_555 1_555
C144 C143 1_555 1_555
H118 C144 1_555 1_555
H119 C144 1_555 1_555
H120 C144 1_555 1_555
C145 C143 1_555 1_555
H121 C145 1_555 1_555
H122 C145 1_555 1_555
H123 C145 1_555 1_555
C146 C143 1_555 1_555
H124 C146 1_555 1_555
H125 C146 1_555 1_555
H126 C146 1_555 1_555
C147 C23 1_555 1_555
C148 C147 1_555 1_555
H127 C148 1_555 1_555
H128 C148 1_555 1_555
H129 C148 1_555 1_555
C149 C147 1_555 1_555
H130 C149 1_555 1_555
H131 C149 1_555 1_555
H132 C149 1_555 1_555
C150 C147 1_555 1_555
H133 C150 1_555 1_555
H134 C150 1_555 1_555
H135 C150 1_555 1_555
C151 C43 1_555 1_555
C152 C151 1_555 1_555
H136 C152 1_555 1_555
H137 C152 1_555 1_555
H138 C152 1_555 1_555
C153 C151 1_555 1_555
H139 C153 1_555 1_555
H140 C153 1_555 1_555
H141 C153 1_555 1_555
C154 C151 1_555 1_555
H142 C154 1_555 1_555
H143 C154 1_555 1_555
H144 C154 1_555 1_555
C155 C33 1_555 1_555
C156 C155 1_555 1_555
H145 C156 1_555 1_555
H146 C156 1_555 1_555
H147 C156 1_555 1_555
C157 C155 1_555 1_555
H148 C157 1_555 1_555
H149 C157 1_555 1_555
H150 C157 1_555 1_555
C158 C155 1_555 1_555
H151 C158 1_555 1_555
H152 C158 1_555 1_555
H153 C158 1_555 1_555
C159 C53 1_555 1_555
C160 C159 1_555 1_555
H154 C160 1_555 1_555
H155 C160 1_555 1_555
H156 C160 1_555 1_555
C161 C159 1_555 1_555
H157 C161 1_555 1_555
H158 C161 1_555 1_555
H159 C161 1_555 1_555
C162 C159 1_555 1_555
H160 C162 1_555 1_555
H161 C162 1_555 1_555
H162 C162 1_555 1_555
C163 C83 1_555 1_555
C164 C163 1_555 1_555
H163 C164 1_555 1_555
H164 C164 1_555 1_555
H165 C164 1_555 1_555
C165 C163 1_555 1_555
H166 C165 1_555 1_555
H167 C165 1_555 1_555
H168 C165 1_555 1_555
C166 C163 1_555 1_555
H169 C166 1_555 1_555
H170 C166 1_555 1_555
H171 C166 1_555 1_555
C167 C73 1_555 1_555
C168 C167 1_555 1_555
H172 C168 1_555 1_555
H173 C168 1_555 1_555
H174 C168 1_555 1_555
C169 C167 1_555 1_555
H175 C169 1_555 1_555
H176 C169 1_555 1_555
H177 C169 1_555 1_555
C170 C167 1_555 1_555
H178 C170 1_555 1_555
H179 C170 1_555 1_555
H180 C170 1_555 1_555
C171 C103 1_555 1_555
C172 C171 1_555 1_555
H181 C172 1_555 1_555
H182 C172 1_555 1_555
H183 C172 1_555 1_555
C173 C171 1_555 1_555
H184 C173 1_555 1_555
H185 C173 1_555 1_555
H186 C173 1_555 1_555
C174 C171 1_555 1_555
H187 C174 1_555 1_555
H188 C174 1_555 1_555
H189 C174 1_555 1_555
C175 C93 1_555 1_555
C176 C175 1_555 1_555
H190 C176 1_555 1_555
H191 C176 1_555 1_555
H192 C176 1_555 1_555
C177 C175 1_555 1_555
H193 C177 1_555 1_555
H194 C177 1_555 1_555
H195 C177 1_555 1_555
C178 C175 1_555 1_555
H196 C178 1_555 1_555
H197 C178 1_555 1_555
H198 C178 1_555 1_555
C179 C113 1_555 1_555
C180 C179 1_555 1_555
H199 C180 1_555 1_555
H200 C180 1_555 1_555
H201 C180 1_555 1_555
C181 C179 1_555 1_555
H202 C181 1_555 1_555
H203 C181 1_555 1_555
H204 C181 1_555 1_555
C182 C179 1_555 1_555
H205 C182 1_555 1_555
H206 C182 1_555 1_555
H207 C182 1_555 1_555
C183 C63 1_555 1_555
C184 C183 1_555 1_555
H208 C184 1_555 1_555
H209 C184 1_555 1_555
H210 C184 1_555 1_555
C185 C183 1_555 1_555
H211 C185 1_555 1_555
H212 C185 1_555 1_555
H213 C185 1_555 1_555
C186 C183 1_555 1_555
H214 C186 1_555 1_555
H215 C186 1_555 1_555
H216 C186 1_555 1_555
S1 O7 1_555 1_555
O8 S1 1_555 1_555
O9 S1 1_555 1_555
O10 S1 1_555 1_555
O11 N37 1_555 1_555
N37 O12 1_555 1_555
O13 N37 1_555 1_555
O14 C187 1_555 1_555
O15 C188 1_555 1_555
N38 O16 1_555 1_555
O17 N38 1_555 1_555
O18 N38 1_555 1_555
O19 C189 1_555 1_555
N39 O20 1_555 1_555
O21 N39 1_555 1_555
O22 N39 1_555 1_555
O23 C190 1_555 1_555
O24 C191 1_555 1_555
O25 C192 1_555 1_555
C4 C5 1_555 1_555
C5 C6 1_555 1_555
C9 C10 1_555 1_555
C14 C15 1_555 1_555
C15 C16 1_555 1_555
C19 C20 1_555 1_555
C24 C25 1_555 1_555
C25 C26 1_555 1_555
N26 C131 1_555 1_555
N28 C121 1_555 1_555
N28 C122 1_555 1_555
C29 C30 1_555 1_555
N30 C137 1_555 1_555
N32 C124 1_555 1_555
N32 C125 1_555 1_555
N34 C134 1_555 1_555
C34 C35 1_555 1_555
N35 C127 1_555 1_555
C35 C36 1_555 1_555
N36 C128 1_555 1_555
C39 C40 1_555 1_555
C39 C129 1_555 1_555
C44 C45 1_555 1_555
C45 C46 1_555 1_555
C49 C50 1_555 1_555
C49 C135 1_555 1_555
C54 C55 1_555 1_555
C55 C56 1_555 1_555
C59 C60 1_555 1_555
C59 C132 1_555 1_555
C64 C65 1_555 1_555
C65 C66 1_555 1_555
C69 C70 1_555 1_555
C69 C133 1_555 1_555
C74 C75 1_555 1_555
C75 C76 1_555 1_555
C79 C80 1_555 1_555
C79 C126 1_555 1_555
C84 C85 1_555 1_555
C89 C90 1_555 1_555
C89 C136 1_555 1_555
C94 C95 1_555 1_555
C95 C96 1_555 1_555
C99 C100 1_555 1_555
C99 C123 1_555 1_555
C104 C105 1_555 1_555
C105 C106 1_555 1_555
C109 C110 1_555 1_555
C109 C138 1_555 1_555
C114 C115 1_555 1_555
C115 C116 1_555 1_555
C119 C120 1_555 1_555
C119 C130 1_555 1_555

#END
