
#######################################################################
#
#                 Cambridge Crystallographic Data Centre
#                                CCDC 
#
#######################################################################
#
# If this CIF has been generated from an entry in the Cambridge 
# Structural Database, then it will include bibliographic, chemical, 
# crystal, experimental, refinement or atomic coordinate data resulting 
# from the CCDC's data processing and validation procedures.
#
#######################################################################

data_XUXKOS
_chemical_formula_moiety         
'C186 H216 N36 O6 Zn4 2+,2(C1 H4 O1),Mo1 O4 2-,11(H2 O1)'
_chemical_name_systematic        
"hexakis(\m-1,3-bis((4'-t-butyl-2,2'-bipyridin-5-yl)methyl)urea)-tetra-zinc tetraoxo-molybdenum methanol solvate undecahydrate"
_symmetry_cell_setting           monoclinic
_symmetry_space_group_name_H-M   'P 21/n'
_symmetry_Int_Tables_number      14
_space_group_name_Hall           '-P 2yn'
loop_
_symmetry_equiv_pos_site_id
_symmetry_equiv_pos_as_xyz
1 x,y,z
2 1/2-x,1/2+y,1/2-z
3 -x,-y,-z
4 1/2+x,1/2-y,1/2+z
_cell_length_a                   19.6334(13)
_cell_length_b                   38.328(3)
_cell_length_c                   35.902(2)
_cell_angle_alpha                90
_cell_angle_beta                 99.977(2)
_cell_angle_gamma                90
_cell_volume                     26608
_cell_formula_units_Z            4
loop_
_atom_site_label
_atom_site_type_symbol
_atom_site_fract_x
_atom_site_fract_y
_atom_site_fract_z
Mo1 Mo 0.41693(3) 0.208227(17) 0.783687(19)
O1 O 0.3443(3) 0.23214(13) 0.76284(15)
O2 O 0.4826(2) 0.23783(12) 0.80429(14)
O3 O 0.3940(3) 0.18126(13) 0.81885(15)
O4 O 0.4471(2) 0.18261(12) 0.75008(14)
Zn1 Zn 0.50291(5) 0.32505(2) 0.64407(2)
Zn2 Zn 0.14397(4) 0.08938(2) 0.70168(2)
Zn3 Zn 0.28965(5) 0.31329(2) 0.93027(2)
Zn4 Zn 0.70529(4) 0.09814(2) 0.87939(3)
O5 O 0.5329(3) 0.20804(18) 0.94381(19)
O6 O 0.4197(3) 0.35692(16) 0.81484(18)
O7 O 0.3058(4) 0.20433(18) 0.6232(2)
O8 O 0.4235(3) 0.05645(15) 0.77496(18)
O9 O 0.6963(3) 0.21684(16) 0.75108(17)
O10 O 0.1441(3) 0.21577(14) 0.82470(16)
N1 N 0.5879(3) 0.32249(16) 0.61420(17)
N2 N 0.5187(3) 0.26977(15) 0.63819(16)
N3 N 0.5066(4) 0.38002(16) 0.6537(2)
N4 N 0.5639(3) 0.32935(15) 0.70040(17)
N5 N 0.4208(4) 0.32443(17) 0.59532(17)
N6 N 0.4079(3) 0.31764(14) 0.66777(16)
N7 N 0.1510(3) 0.03642(15) 0.72198(18)
N8 N 0.1924(3) 0.09461(15) 0.76172(15)
N9 N 0.0431(3) 0.09821(17) 0.71480(16)
N10 N 0.1314(3) 0.14582(15) 0.69788(16)
N11 N 0.1106(3) 0.07965(14) 0.64251(17)
N12 N 0.2373(3) 0.09040(14) 0.67864(18)
N13 N 0.1894(3) 0.30116(17) 0.93995(18)
N14 N 0.2862(3) 0.25663(15) 0.92796(15)
N15 N 0.3344(4) 0.31270(17) 0.98882(18)
N16 N 0.3984(3) 0.31514(15) 0.92915(18)
N17 N 0.2783(3) 0.36847(15) 0.92579(17)
N18 N 0.2518(3) 0.32143(14) 0.87071(16)
N19 N 0.7191(4) 0.09192(16) 0.93919(18)
N20 N 0.6008(3) 0.09479(16) 0.89137(18)
N21 N 0.8107(3) 0.10867(15) 0.87645(17)
N22 N 0.7101(3) 0.15428(14) 0.87958(15)
N23 N 0.7110(3) 0.04526(16) 0.8634(2)
N24 N 0.6701(3) 0.09862(16) 0.81786(17)
N25 N 0.4219(3) 0.10615(18) 0.8079(2)
H1 H 0.4250 0.1290 0.8076
N26 N 0.4325(3) 0.10849(17) 0.7458(2)
H2 H 0.4384 0.1311 0.7488
N27 N 0.6098(3) 0.24431(17) 0.77482(18)
H3 H 0.5677 0.2425 0.7799
N28 N 0.5966(3) 0.18820(18) 0.75338(19)
H4 H 0.5581 0.1881 0.7628
N29 N 0.5377(3) 0.21893(18) 0.88191(19)
H5 H 0.5160 0.2172 0.8584
N30 N 0.4442(4) 0.19181(19) 0.8986(2)
H6 H 0.4284 0.1903 0.8742
N31 N 0.4905(4) 0.31003(19) 0.8312(2)
H7 H 0.5036 0.2895 0.8240
N32 N 0.3982(4) 0.30747(18) 0.7828(2)
H8 H 0.4120 0.2860 0.7794
N33 N 0.2145(3) 0.24175(16) 0.78936(17)
H9 H 0.2518 0.2398 0.7790
N34 N 0.2455(3) 0.19007(17) 0.8180(2)
H10 H 0.2834 0.1917 0.8082
N35 N 0.2903(4) 0.21703(18) 0.6829(2)
H11 H 0.3106 0.2179 0.7067
N36 N 0.3899(4) 0.19336(18) 0.6726(2)
H12 H 0.4021 0.1930 0.6974
C1 C 0.6225(5) 0.3498(2) 0.6034(3)
H13 H 0.6052 0.3726 0.6065
C2 C 0.6820(5) 0.3466(2) 0.5881(3)
H14 H 0.7049 0.3668 0.5814
C3 C 0.7087(4) 0.3135(2) 0.5826(2)
C4 C 0.6705(5) 0.2859(2) 0.5934(3)
H15 H 0.6858 0.2627 0.5903
C5 C 0.6109(4) 0.2911(2) 0.6086(2)
C6 C 0.5691(4) 0.2617(2) 0.6195(2)
C7 C 0.5786(7) 0.2277(3) 0.6100(4)
H16 H 0.6123 0.2223 0.5948
C8 C 0.5409(7) 0.2017(2) 0.6219(4)
H17 H 0.5519 0.1780 0.6178
C9 C 0.4870(5) 0.2097(2) 0.6398(3)
C10 C 0.4787(4) 0.24433(18) 0.64719(19)
H18 H 0.4416 0.2506 0.6597
C11 C 0.4303(6) 0.3254(2) 0.5587(3)
H19 H 0.4735 0.3328 0.5529
C12 C 0.3769(8) 0.3154(3) 0.5295(3)
H20 H 0.3847 0.3171 0.5042
C13 C 0.3168(6) 0.3039(3) 0.5353(3)
C14 C 0.3087(6) 0.3043(2) 0.5727(3)
H21 H 0.2658 0.2968 0.5788
C15 C 0.3600(5) 0.31518(19) 0.6017(2)
C16 C 0.3500(4) 0.31585(18) 0.6413(2)
C17 C 0.2861(4) 0.3164(2) 0.6520(2)
H22 H 0.2453 0.3159 0.6334
C18 C 0.2817(4) 0.31779(19) 0.6898(3)
H23 H 0.2376 0.3183 0.6972
C19 C 0.3407(4) 0.31846(18) 0.7173(2)
C20 C 0.4028(4) 0.31807(18) 0.7039(2)
H24 H 0.4444 0.3181 0.7220
C21 C 0.4797(5) 0.4036(2) 0.6297(3)
H25 H 0.4570 0.3957 0.6056
C22 C 0.4813(6) 0.4386(3) 0.6361(4)
H26 H 0.4611 0.4543 0.6169
C23 C 0.5116(6) 0.4503(2) 0.6697(3)
C24 C 0.5415(6) 0.4255(2) 0.6956(3)
H27 H 0.5649 0.4329 0.7197
C25 C 0.5382(5) 0.38999(19) 0.6871(3)
C26 C 0.5681(4) 0.36190(19) 0.7140(2)
C27 C 0.5987(6) 0.3673(2) 0.7495(3)
H28 H 0.6040 0.3906 0.7586
C28 C 0.6230(5) 0.3406(3) 0.7732(3)
H29 H 0.6418 0.3452 0.7989
C29 C 0.6201(4) 0.3060(2) 0.7595(2)
C30 C 0.5880(4) 0.3029(2) 0.7229(2)
H30 H 0.5822 0.2801 0.7126
C31 C 0.0457(5) 0.0743(2) 0.6242(3)
H31 H 0.0112 0.0703 0.6392
C32 C 0.0252(4) 0.0741(2) 0.5861(2)
H32 H -0.0216 0.0693 0.5755
C33 C 0.0734(4) 0.0809(2) 0.5627(2)
C34 C 0.1393(4) 0.08740(18) 0.5807(2)
H33 H 0.1736 0.0929 0.5660
C35 C 0.1581(4) 0.08617(17) 0.6202(2)
C36 C 0.2303(4) 0.09017(16) 0.6411(2)
C37 C 0.2865(4) 0.0933(2) 0.6231(2)
H34 H 0.2810 0.0950 0.5963
C38 C 0.3526(4) 0.09391(19) 0.6458(2)
H35 H 0.3923 0.0948 0.6340
C39 C 0.3611(4) 0.09325(17) 0.6841(2)
C40 C 0.3010(4) 0.09174(17) 0.6990(2)
H36 H 0.3052 0.0917 0.7258
C41 C 0.1339(4) 0.0090(2) 0.7010(2)
H37 H 0.1137 0.0124 0.6752
C42 C 0.1437(6) -0.0251(2) 0.7146(3)
H38 H 0.1295 -0.0442 0.6983
C43 C 0.1743(6) -0.0311(2) 0.7519(3)
C44 C 0.1920(6) -0.0007(2) 0.7740(3)
H39 H 0.2130 -0.0030 0.7998
C45 C 0.1793(4) 0.03254(18) 0.7585(2)
C46 C 0.1970(4) 0.06402(17) 0.7812(2)
C47 C 0.2125(4) 0.06339(19) 0.8204(2)
H40 H 0.2133 0.0421 0.8339
C48 C 0.2268(4) 0.09504(19) 0.8393(2)
H41 H 0.2392 0.0952 0.8661
C49 C 0.2231(3) 0.12605(18) 0.8197(2)
C50 C 0.2054(3) 0.12412(18) 0.7807(2)
H42 H 0.2025 0.1453 0.7667
C51 C -0.0014(4) 0.0725(2) 0.7187(2)
H43 H 0.0111 0.0488 0.7158
C52 C -0.0671(4) 0.0809(3) 0.7272(2)
H44 H -0.0991 0.0627 0.7292
C53 C -0.0857(4) 0.1152(3) 0.7326(2)
C54 C -0.0388(4) 0.1403(2) 0.7270(2)
H45 H -0.0503 0.1642 0.7290
C55 C 0.0242(4) 0.1316(2) 0.7186(2)
C56 C 0.0751(4) 0.15850(19) 0.71036(18)
C57 C 0.0651(4) 0.1945(2) 0.7132(2)
H46 H 0.0261 0.2032 0.7227
C58 C 0.1116(4) 0.2167(2) 0.7023(2)
H47 H 0.1056 0.2411 0.7045
C59 C 0.1676(4) 0.20397(19) 0.6880(2)
C60 C 0.1747(4) 0.16941(19) 0.6869(2)
H48 H 0.2138 0.1607 0.6775
C61 C 0.1429(5) 0.3239(2) 0.9453(2)
H49 H 0.1544 0.3479 0.9441
C62 C 0.0764(6) 0.3155(3) 0.9528(3)
H50 H 0.0434 0.3332 0.9548
C63 C 0.0610(6) 0.2803(3) 0.9571(3)
C64 C 0.1126(5) 0.2563(2) 0.9515(3)
H51 H 0.1041 0.2320 0.9536
C65 C 0.1739(4) 0.2668(2) 0.9432(2)
C66 C 0.2280(4) 0.2421(2) 0.9372(2)
C67 C 0.2259(5) 0.2069(2) 0.9409(2)
H52 H 0.1853 0.1964 0.9469
C68 C 0.2797(5) 0.1861(2) 0.9362(2)
H53 H 0.2758 0.1615 0.9387
C69 C 0.3392(4) 0.2001(2) 0.9279(2)
C70 C 0.3378(4) 0.2359(2) 0.9231(2)
H54 H 0.3772 0.2465 0.9158
C71 C 0.2981(5) 0.3140(2) 1.0182(2)
H55 H 0.2490 0.3149 1.0127
C72 C 0.3300(7) 0.3142(3) 1.0548(3)
H56 H 0.3032 0.3153 1.0744
C73 C 0.3988(8) 0.3127(3) 1.0635(3)
C74 C 0.4368(7) 0.3114(3) 1.0341(3)
H57 H 0.4859 0.3112 1.0395
C75 C 0.4024(6) 0.3103(2) 0.9966(2)
C76 C 0.4383(5) 0.3111(2) 0.9643(3)
C77 C 0.5075(6) 0.3091(3) 0.9671(3)
H58 H 0.5361 0.3054 0.9910
C78 C 0.5361(5) 0.3125(2) 0.9352(3)
H59 H 0.5849 0.3106 0.9375
C79 C 0.4984(5) 0.3184(2) 0.9004(2)
C80 C 0.4274(4) 0.31904(19) 0.8990(2)
H60 H 0.3984 0.3224 0.8752
C81 C 0.2983(5) 0.3917(2) 0.9537(2)
H61 H 0.3135 0.3831 0.9786
C82 C 0.2979(5) 0.4271(2) 0.9480(3)
H62 H 0.3139 0.4424 0.9685
C83 C 0.2741(5) 0.4407(2) 0.9123(3)
C84 C 0.2543(5) 0.4163(2) 0.8851(2)
H63 H 0.2390 0.4242 0.8600
C85 C 0.2549(4) 0.38173(18) 0.8914(2)
C86 C 0.2325(4) 0.35488(19) 0.8615(2)
C87 C 0.1945(4) 0.3630(2) 0.8272(2)
H64 H 0.1819 0.3865 0.8209
C88 C 0.1743(4) 0.3358(2) 0.8012(2)
H65 H 0.1465 0.3408 0.7774
C89 C 0.1945(4) 0.30228(18) 0.81006(19)
C90 C 0.2328(3) 0.29680(18) 0.8448(2)
H66 H 0.2470 0.2736 0.8512
C91 C 0.7324(5) 0.0190(2) 0.8869(3)
H67 H 0.7456 0.0240 0.9131
C92 C 0.7362(6) -0.0145(3) 0.8751(3)
H68 H 0.7546 -0.0317 0.8931
C93 C 0.7150(5) -0.0243(2) 0.8388(3)
C94 C 0.6930(4) 0.0037(2) 0.8142(3)
H69 H 0.6795 -0.0006 0.7879
C95 C 0.6906(4) 0.0375(2) 0.8276(3)
C96 C 0.6662(4) 0.0669(2) 0.8014(2)
C97 C 0.6435(4) 0.0634(2) 0.7625(3)
H70 H 0.6412 0.0410 0.7510
C98 C 0.6248(4) 0.0922(2) 0.7412(2)
H71 H 0.6078 0.0897 0.7150
C99 C 0.6300(3) 0.12519(19) 0.7569(2)
C100 C 0.6513(4) 0.1273(2) 0.7960(2)
H72 H 0.6528 0.1496 0.8078
C101 C 0.7809(5) 0.0919(2) 0.9631(3)
H73 H 0.8223 0.0942 0.9529
C102 C 0.7854(5) 0.0886(2) 1.0018(3)
H74 H 0.8298 0.0887 1.0173
C103 C 0.7303(6) 0.0854(2) 1.0179(3)
C104 C 0.6636(5) 0.0865(2) 0.9922(2)
H75 H 0.6218 0.0847 1.0020
C105 C 0.6616(4) 0.0901(2) 0.9547(2)
C106 C 0.5956(4) 0.09058(19) 0.9273(2)
C107 C 0.5325(5) 0.0868(2) 0.9378(3)
H76 H 0.5293 0.0836 0.9637
C108 C 0.4731(5) 0.0877(2) 0.9106(3)
H77 H 0.4290 0.0860 0.9179
C109 C 0.4779(4) 0.09094(19) 0.8727(2)
C110 C 0.5440(4) 0.09489(19) 0.8655(2)
H78 H 0.5494 0.0979 0.8399
C111 C 0.8622(4) 0.0855(2) 0.8790(2)
H79 H 0.8522 0.0616 0.8826
C112 C 0.9294(4) 0.0949(2) 0.8766(2)
H80 H 0.9642 0.0774 0.8792
C113 C 0.9469(4) 0.1292(2) 0.8704(2)
C114 C 0.8928(4) 0.1527(2) 0.8683(2)
H81 H 0.9015 0.1768 0.8647
C115 C 0.8274(4) 0.14231(19) 0.87129(19)
C116 C 0.7690(3) 0.16781(17) 0.87188(18)
C117 C 0.7754(4) 0.2029(2) 0.8658(2)
H82 H 0.8163 0.2121 0.8587
C118 C 0.7206(4) 0.2247(2) 0.8700(2)
H83 H 0.7242 0.2490 0.8657
C119 C 0.6614(4) 0.21172(19) 0.8804(2)
C120 C 0.6588(4) 0.17596(19) 0.8838(2)
H84 H 0.6175 0.1660 0.8895
C121 C 0.6056(4) 0.2348(2) 0.8891(2)
H85 H 0.6165 0.2417 0.9161
H86 H 0.6047 0.2563 0.8737
C122 C 0.5057(5) 0.2064(2) 0.9104(3)
C123 C 0.4022(5) 0.1782(2) 0.9252(3)
H87 H 0.4313 0.1767 0.9506
H88 H 0.3870 0.1543 0.9174
C124 C 0.4382(5) 0.1813(2) 0.6492(3)
H89 H 0.4119 0.1719 0.6253
H90 H 0.4660 0.1620 0.6623
C125 C 0.3282(6) 0.2048(2) 0.6575(3)
C126 C 0.2195(5) 0.2287(2) 0.6741(3)
H91 H 0.2066 0.2314 0.6463
H92 H 0.2160 0.2520 0.6856
C127 C 0.6127(4) 0.1572(2) 0.7319(2)
H93 H 0.6524 0.1627 0.7193
H94 H 0.5725 0.1519 0.7120
C128 C 0.6375(4) 0.2164(2) 0.7592(2)
C129 C 0.6472(4) 0.2770(2) 0.7834(2)
H95 H 0.6462 0.2833 0.8100
H96 H 0.6962 0.2734 0.7810
C130 C 0.5285(5) 0.3259(2) 0.8657(3)
H97 H 0.5297 0.3515 0.8621
H98 H 0.5767 0.3173 0.8698
C131 C 0.4366(5) 0.3259(2) 0.8102(3)
C132 C 0.3374(5) 0.3189(2) 0.7586(2)
H99 H 0.3269 0.3430 0.7658
H100 H 0.2984 0.3039 0.7629
C133 C 0.2361(4) 0.15999(18) 0.8405(2)
H101 H 0.1967 0.1646 0.8537
H102 H 0.2779 0.1573 0.8602
C134 C 0.1986(4) 0.2158(2) 0.8115(2)
C135 C 0.1730(4) 0.2725(2) 0.7820(2)
H103 H 0.1242 0.2664 0.7825
H104 H 0.1756 0.2809 0.7562
C136 C 0.4309(4) 0.0932(2) 0.7083(3)
H105 H 0.4478 0.0689 0.7114
H106 H 0.4632 0.1064 0.6952
C137 C 0.4254(4) 0.0890(2) 0.7753(3)
C138 C 0.4136(4) 0.0902(3) 0.8424(3)
H107 H 0.3995 0.0657 0.8373
H108 H 0.3757 0.1022 0.8522
C139 C 0.2645(6) 0.2931(3) 0.5035(3)
C140 C 0.2884(11) 0.2999(5) 0.4642(6)
H109 H 0.3284 0.2851 0.4622
H110 H 0.3012 0.3244 0.4624
H111 H 0.2504 0.2942 0.4435
C141 C 0.2104(8) 0.3155(4) 0.4969(5)
H112 H 0.1765 0.3071 0.4755
H113 H 0.2268 0.3387 0.4910
H114 H 0.1886 0.3171 0.5195
C142 C 0.2626(11) 0.2538(5) 0.5023(6)
H115 H 0.3100 0.2447 0.5066
H116 H 0.2384 0.2461 0.4775
H117 H 0.2382 0.2450 0.5220
C143 C 0.5147(7) 0.4895(3) 0.6804(4)
C144 C 0.4580(10) 0.5107(5) 0.6558(5)
H118 H 0.4625 0.5083 0.6292
H119 H 0.4626 0.5354 0.6632
H120 H 0.4126 0.5021 0.6594
C145 C 0.5909(8) 0.5021(4) 0.6763(5)
H121 H 0.5990 0.4972 0.6507
H122 H 0.6251 0.4896 0.6946
H123 H 0.5951 0.5273 0.6812
C146 C 0.5002(7) 0.4964(4) 0.7171(4)
H124 H 0.5033 0.5215 0.7220
H125 H 0.5338 0.4841 0.7360
H126 H 0.4534 0.4882 0.7186
C147 C 0.7735(5) 0.3086(3) 0.5673(3)
C148 C 0.7948(7) 0.3366(4) 0.5454(4)
H127 H 0.8380 0.3303 0.5369
H128 H 0.8020 0.3577 0.5609
H129 H 0.7588 0.3410 0.5233
C149 C 0.7681(7) 0.2772(3) 0.5415(4)
H130 H 0.7543 0.2568 0.5548
H131 H 0.8131 0.2728 0.5341
H132 H 0.7335 0.2817 0.5189
C150 C 0.8310(9) 0.3004(5) 0.6009(5)
H133 H 0.8165 0.2810 0.6155
H134 H 0.8399 0.3210 0.6171
H135 H 0.8733 0.2939 0.5915
C151 C 0.1854(7) -0.0672(3) 0.7674(4)
C152 C 0.1091(8) -0.0844(4) 0.7629(4)
H136 H 0.1129 -0.1083 0.7728
H137 H 0.0880 -0.0849 0.7361
H138 H 0.0803 -0.0705 0.7770
C153 C 0.2218(10) -0.0678(5) 0.8085(5)
H139 H 0.2275 -0.0921 0.8172
H140 H 0.1940 -0.0551 0.8241
H141 H 0.2673 -0.0568 0.8105
C154 C 0.2319(6) -0.0863(3) 0.7444(3)
H142 H 0.2403 -0.1100 0.7542
H143 H 0.2760 -0.0738 0.7464
H144 H 0.2093 -0.0872 0.7179
C155 C 0.0515(5) 0.0813(2) 0.5207(2)
C156 C 0.0505(9) 0.0469(4) 0.5064(5)
H145 H 0.0960 0.0362 0.5143
H146 H 0.0394 0.0475 0.4787
H147 H 0.0154 0.0332 0.5163
C157 C -0.0166(7) 0.0955(4) 0.5074(4)
H148 H -0.0185 0.1196 0.5164
H149 H -0.0512 0.0814 0.5172
H150 H -0.0261 0.0952 0.4797
C158 C 0.0979(8) 0.1078(4) 0.5036(5)
H151 H 0.0947 0.1308 0.5152
H152 H 0.0821 0.1096 0.4762
H153 H 0.1460 0.0998 0.5086
C159 C -0.1591(5) 0.1233(2) 0.7417(3)
C160 C -0.1727(5) 0.0994(3) 0.7724(3)
H154 H -0.1700 0.0751 0.7641
H155 H -0.2189 0.1040 0.7781
H156 H -0.1380 0.1033 0.7951
C161 C -0.1633(6) 0.1585(3) 0.7540(3)
H157 H -0.1548 0.1744 0.7339
H158 H -0.1286 0.1624 0.7767
H159 H -0.2095 0.1629 0.7598
C162 C -0.2098(6) 0.1150(3) 0.7057(3)
H160 H -0.2047 0.0906 0.6988
H161 H -0.2003 0.1301 0.6852
H162 H -0.2572 0.1191 0.7100
C163 C 0.2778(6) 0.4787(3) 0.9062(3)
C164 C 0.2608(7) 0.5007(4) 0.9377(4)
H163 H 0.2645 0.5254 0.9314
H164 H 0.2932 0.4954 0.9610
H165 H 0.2135 0.4956 0.9415
C165 C 0.3559(8) 0.4908(4) 0.9094(4)
H166 H 0.3575 0.5160 0.9051
H167 H 0.3772 0.4785 0.8904
H168 H 0.3812 0.4852 0.9347
C166 C 0.2437(6) 0.4899(3) 0.8658(3)
H169 H 0.2479 0.5152 0.8632
H170 H 0.1948 0.4834 0.8613
H171 H 0.2671 0.4782 0.8472
C167 C -0.0057(7) 0.2677(3) 0.9681(4)
C168 C -0.0399(8) 0.2405(4) 0.9433(5)
H172 H -0.0828 0.2336 0.9518
H173 H -0.0093 0.2203 0.9441
H174 H -0.0507 0.2494 0.9173
C169 C 0.0052(8) 0.2545(4) 1.0083(4)
H175 H 0.0276 0.2727 1.0253
H176 H 0.0346 0.2337 1.0104
H177 H -0.0396 0.2486 1.0151
C170 C -0.0486(12) 0.2996(6) 0.9739(7)
H178 H -0.0206 0.3159 0.9912
H179 H -0.0891 0.2924 0.9846
H180 H -0.0640 0.3111 0.9495
C171 C 0.4458(12) 0.3095(6) 1.1030(6)
C172 C 0.4129(9) 0.3001(5) 1.1312(5)
H181 H 0.3719 0.2863 1.1210
H182 H 0.3987 0.3211 1.1435
H183 H 0.4440 0.2862 1.1498
C173 C 0.4115(19) 0.3493(10) 1.1184(11)
H184 H 0.4251 0.3688 1.1037
H185 H 0.4298 0.3530 1.1453
H186 H 0.3610 0.3478 1.1146
C174 C 0.5101(6) 0.3306(3) 1.1080(3)
H187 H 0.5247 0.3337 1.0835
H188 H 0.5466 0.3185 1.1254
H189 H 0.5015 0.3535 1.1186
C175 C 1.0190(5) 0.1398(2) 0.8671(3)
C176 C 1.0736(6) 0.1155(3) 0.8893(3)
H190 H 1.0690 0.1155 0.9160
H191 H 1.1199 0.1236 0.8867
H192 H 1.0667 0.0917 0.8791
C177 C 1.0365(6) 0.1756(3) 0.8834(3)
H193 H 1.0335 0.1756 0.9104
H194 H 1.0038 0.1927 0.8701
H195 H 1.0836 0.1818 0.8803
C178 C 1.0243(7) 0.1409(4) 0.8270(3)
H196 H 1.0712 0.1479 0.8243
H197 H 0.9909 0.1578 0.8140
H198 H 1.0142 0.1177 0.8158
C179 C 0.7335(6) 0.0818(3) 1.0601(3)
C180 C 0.7976(9) 0.0920(5) 1.0818(5)
H199 H 0.8338 0.0757 1.0773
H200 H 0.7942 0.0917 1.1087
H201 H 0.8093 0.1156 1.0745
C181 C 0.7223(10) 0.0458(5) 1.0692(5)
H202 H 0.6780 0.0379 1.0547
H203 H 0.7214 0.0437 1.0963
H204 H 0.7598 0.0314 1.0627
C182 C 0.7048(12) 0.1104(6) 1.0768(6)
H205 H 0.6551 0.1116 1.0671
H206 H 0.7270 0.1320 1.0705
H207 H 0.7126 0.1074 1.1043
C183 C 0.7109(7) -0.0615(4) 0.8232(4)
C184 C 0.7810(11) -0.0814(5) 0.8400(6)
H208 H 0.7841 -0.0845 0.8673
H209 H 0.8206 -0.0676 0.8350
H210 H 0.7815 -0.1042 0.8278
C185 C 0.6725(18) -0.0834(9) 0.8437(9)
H211 H 0.6651 -0.0714 0.8668
H212 H 0.6982 -0.1050 0.8505
H213 H 0.6278 -0.0888 0.8281
C186 C 0.7316(13) -0.0649(6) 0.7890(7)
H214 H 0.7544 -0.0434 0.7830
H215 H 0.6913 -0.0694 0.7694
H216 H 0.7641 -0.0845 0.7900
O11 O 0.6733(6) -0.0297(3) 1.1029(3)
O12 O 0.1900(7) 0.0413(4) 0.9112(4)
O13 O 0.5453(7) 0.1071(3) 0.6368(4)
O14 O 0.7062(7) 0.1669(4) 0.6200(4)
O15 O 0.1091(6) 0.3155(3) 0.6982(3)
O16 O 0.3764(6) 0.1878(3) 0.5569(3)
O17 O 0.1974(6) 0.1765(3) 0.5704(3)
O18 O 0.2645(6) 0.1556(3) 0.5118(3)
O19 O 0.9067(5) 0.2422(3) 0.8311(3)
O20 O 0.2194(4) 0.5819(2) 0.9745(2)
O21 O 0.4478(6) 0.4179(3) 0.8504(3)
O22 O 0.7068(5) 0.3145(2) 0.8753(3)
C187 C 0.7206(9) 0.3189(4) 0.9139(5)
O23 O 0.1059(6) 0.1623(3) 0.9866(3)
C188 C 0.0446(9) 0.1441(5) 0.9983(5)
loop_
_geom_bond_atom_site_label_1
_geom_bond_atom_site_label_2
_geom_bond_site_symmetry_1
_geom_bond_site_symmetry_2
Mo1 O1 1_555 1_555
O2 Mo1 1_555 1_555
O3 Mo1 1_555 1_555
O4 Mo1 1_555 1_555
Zn1 N1 1_555 1_555
Zn2 N7 1_555 1_555
Zn3 N13 1_555 1_555
Zn4 N19 1_555 1_555
O5 C122 1_555 1_555
O6 C131 1_555 1_555
O7 C125 1_555 1_555
O8 C137 1_555 1_555
O9 C128 1_555 1_555
O10 C134 1_555 1_555
N1 C1 1_555 1_555
N2 Zn1 1_555 1_555
N3 Zn1 1_555 1_555
N4 Zn1 1_555 1_555
N5 Zn1 1_555 1_555
N6 Zn1 1_555 1_555
N7 C41 1_555 1_555
N8 Zn2 1_555 1_555
N9 Zn2 1_555 1_555
N10 Zn2 1_555 1_555
N11 Zn2 1_555 1_555
N12 Zn2 1_555 1_555
N13 C61 1_555 1_555
N14 Zn3 1_555 1_555
N15 Zn3 1_555 1_555
N16 Zn3 1_555 1_555
N17 Zn3 1_555 1_555
N18 Zn3 1_555 1_555
N19 C101 1_555 1_555
N20 Zn4 1_555 1_555
N21 Zn4 1_555 1_555
N22 Zn4 1_555 1_555
N23 Zn4 1_555 1_555
N24 Zn4 1_555 1_555
N25 H1 1_555 1_555
N26 H2 1_555 1_555
N27 H3 1_555 1_555
N28 H4 1_555 1_555
N29 H5 1_555 1_555
N30 H6 1_555 1_555
N31 H7 1_555 1_555
N32 H8 1_555 1_555
N33 H9 1_555 1_555
N34 H10 1_555 1_555
N35 H11 1_555 1_555
N36 H12 1_555 1_555
C1 H13 1_555 1_555
C2 C1 1_555 1_555
H14 C2 1_555 1_555
C3 C2 1_555 1_555
C4 C3 1_555 1_555
H15 C4 1_555 1_555
C5 N1 1_555 1_555
C6 N2 1_555 1_555
C7 C6 1_555 1_555
H16 C7 1_555 1_555
C8 C7 1_555 1_555
H17 C8 1_555 1_555
C9 C8 1_555 1_555
C10 N2 1_555 1_555
H18 C10 1_555 1_555
C11 N5 1_555 1_555
H19 C11 1_555 1_555
C12 C11 1_555 1_555
H20 C12 1_555 1_555
C13 C12 1_555 1_555
C14 C13 1_555 1_555
H21 C14 1_555 1_555
C15 N5 1_555 1_555
C16 N6 1_555 1_555
C17 C16 1_555 1_555
H22 C17 1_555 1_555
C18 C17 1_555 1_555
H23 C18 1_555 1_555
C19 C18 1_555 1_555
C20 N6 1_555 1_555
H24 C20 1_555 1_555
C21 N3 1_555 1_555
H25 C21 1_555 1_555
C22 C21 1_555 1_555
H26 C22 1_555 1_555
C23 C22 1_555 1_555
C24 C23 1_555 1_555
H27 C24 1_555 1_555
C25 N3 1_555 1_555
C26 N4 1_555 1_555
C27 C26 1_555 1_555
H28 C27 1_555 1_555
C28 C27 1_555 1_555
H29 C28 1_555 1_555
C29 C28 1_555 1_555
C30 N4 1_555 1_555
H30 C30 1_555 1_555
C31 N11 1_555 1_555
H31 C31 1_555 1_555
C32 C31 1_555 1_555
H32 C32 1_555 1_555
C33 C32 1_555 1_555
C34 C33 1_555 1_555
H33 C34 1_555 1_555
C35 N11 1_555 1_555
C36 N12 1_555 1_555
C37 C36 1_555 1_555
H34 C37 1_555 1_555
C38 C37 1_555 1_555
H35 C38 1_555 1_555
C39 C38 1_555 1_555
C40 N12 1_555 1_555
H36 C40 1_555 1_555
C41 H37 1_555 1_555
C42 C41 1_555 1_555
H38 C42 1_555 1_555
C43 C42 1_555 1_555
C44 C43 1_555 1_555
H39 C44 1_555 1_555
C45 N7 1_555 1_555
C46 N8 1_555 1_555
C47 C46 1_555 1_555
H40 C47 1_555 1_555
C48 C47 1_555 1_555
H41 C48 1_555 1_555
C49 C48 1_555 1_555
C50 N8 1_555 1_555
H42 C50 1_555 1_555
C51 N9 1_555 1_555
H43 C51 1_555 1_555
C52 C51 1_555 1_555
H44 C52 1_555 1_555
C53 C52 1_555 1_555
C54 C53 1_555 1_555
H45 C54 1_555 1_555
C55 N9 1_555 1_555
C56 N10 1_555 1_555
C57 C56 1_555 1_555
H46 C57 1_555 1_555
C58 C57 1_555 1_555
H47 C58 1_555 1_555
C59 C58 1_555 1_555
C60 N10 1_555 1_555
H48 C60 1_555 1_555
C61 H49 1_555 1_555
C62 C61 1_555 1_555
H50 C62 1_555 1_555
C63 C62 1_555 1_555
C64 C63 1_555 1_555
H51 C64 1_555 1_555
C65 N13 1_555 1_555
C66 N14 1_555 1_555
C67 C66 1_555 1_555
H52 C67 1_555 1_555
C68 C67 1_555 1_555
H53 C68 1_555 1_555
C69 C68 1_555 1_555
C70 N14 1_555 1_555
H54 C70 1_555 1_555
C71 N15 1_555 1_555
H55 C71 1_555 1_555
C72 C71 1_555 1_555
H56 C72 1_555 1_555
C73 C72 1_555 1_555
C74 C73 1_555 1_555
H57 C74 1_555 1_555
C75 N15 1_555 1_555
C76 N16 1_555 1_555
C77 C76 1_555 1_555
H58 C77 1_555 1_555
C78 C77 1_555 1_555
H59 C78 1_555 1_555
C79 C78 1_555 1_555
C80 N16 1_555 1_555
H60 C80 1_555 1_555
C81 N17 1_555 1_555
H61 C81 1_555 1_555
C82 C81 1_555 1_555
H62 C82 1_555 1_555
C83 C82 1_555 1_555
C84 C83 1_555 1_555
H63 C84 1_555 1_555
C85 N17 1_555 1_555
C86 N18 1_555 1_555
C87 C86 1_555 1_555
H64 C87 1_555 1_555
C88 C87 1_555 1_555
H65 C88 1_555 1_555
C89 C88 1_555 1_555
C90 N18 1_555 1_555
H66 C90 1_555 1_555
C91 N23 1_555 1_555
H67 C91 1_555 1_555
C92 C91 1_555 1_555
H68 C92 1_555 1_555
C93 C92 1_555 1_555
C94 C93 1_555 1_555
H69 C94 1_555 1_555
C95 N23 1_555 1_555
C96 N24 1_555 1_555
C97 C96 1_555 1_555
H70 C97 1_555 1_555
C98 C97 1_555 1_555
H71 C98 1_555 1_555
C99 C98 1_555 1_555
C100 N24 1_555 1_555
H72 C100 1_555 1_555
C101 H73 1_555 1_555
C102 C101 1_555 1_555
H74 C102 1_555 1_555
C103 C102 1_555 1_555
C104 C103 1_555 1_555
H75 C104 1_555 1_555
C105 N19 1_555 1_555
C106 N20 1_555 1_555
C107 C106 1_555 1_555
H76 C107 1_555 1_555
C108 C107 1_555 1_555
H77 C108 1_555 1_555
C109 C108 1_555 1_555
C110 N20 1_555 1_555
H78 C110 1_555 1_555
C111 N21 1_555 1_555
H79 C111 1_555 1_555
C112 C111 1_555 1_555
H80 C112 1_555 1_555
C113 C112 1_555 1_555
C114 C113 1_555 1_555
H81 C114 1_555 1_555
C115 N21 1_555 1_555
C116 N22 1_555 1_555
C117 C116 1_555 1_555
H82 C117 1_555 1_555
C118 C117 1_555 1_555
H83 C118 1_555 1_555
C119 C118 1_555 1_555
C120 N22 1_555 1_555
H84 C120 1_555 1_555
C121 N29 1_555 1_555
H85 C121 1_555 1_555
H86 C121 1_555 1_555
C122 N29 1_555 1_555
C123 N30 1_555 1_555
H87 C123 1_555 1_555
H88 C123 1_555 1_555
C124 N36 1_555 1_555
H89 C124 1_555 1_555
H90 C124 1_555 1_555
C125 N35 1_555 1_555
C126 N35 1_555 1_555
H91 C126 1_555 1_555
H92 C126 1_555 1_555
C127 N28 1_555 1_555
H93 C127 1_555 1_555
H94 C127 1_555 1_555
C128 N27 1_555 1_555
C129 N27 1_555 1_555
H95 C129 1_555 1_555
H96 C129 1_555 1_555
C130 N31 1_555 1_555
H97 C130 1_555 1_555
H98 C130 1_555 1_555
C131 N31 1_555 1_555
C132 N32 1_555 1_555
H99 C132 1_555 1_555
H100 C132 1_555 1_555
C133 N34 1_555 1_555
H101 C133 1_555 1_555
H102 C133 1_555 1_555
C134 N33 1_555 1_555
C135 N33 1_555 1_555
H103 C135 1_555 1_555
H104 C135 1_555 1_555
C136 N26 1_555 1_555
H105 C136 1_555 1_555
H106 C136 1_555 1_555
C137 N25 1_555 1_555
C138 N25 1_555 1_555
H107 C138 1_555 1_555
H108 C138 1_555 1_555
C139 C13 1_555 1_555
C140 C139 1_555 1_555
H109 C140 1_555 1_555
H110 C140 1_555 1_555
H111 C140 1_555 1_555
C141 C139 1_555 1_555
H112 C141 1_555 1_555
H113 C141 1_555 1_555
H114 C141 1_555 1_555
C142 C139 1_555 1_555
H115 C142 1_555 1_555
H116 C142 1_555 1_555
H117 C142 1_555 1_555
C143 C23 1_555 1_555
C144 C143 1_555 1_555
H118 C144 1_555 1_555
H119 C144 1_555 1_555
H120 C144 1_555 1_555
C145 C143 1_555 1_555
H121 C145 1_555 1_555
H122 C145 1_555 1_555
H123 C145 1_555 1_555
C146 C143 1_555 1_555
H124 C146 1_555 1_555
H125 C146 1_555 1_555
H126 C146 1_555 1_555
C147 C3 1_555 1_555
C148 C147 1_555 1_555
H127 C148 1_555 1_555
H128 C148 1_555 1_555
H129 C148 1_555 1_555
C149 C147 1_555 1_555
H130 C149 1_555 1_555
H131 C149 1_555 1_555
H132 C149 1_555 1_555
C150 C147 1_555 1_555
H133 C150 1_555 1_555
H134 C150 1_555 1_555
H135 C150 1_555 1_555
C151 C43 1_555 1_555
C152 C151 1_555 1_555
H136 C152 1_555 1_555
H137 C152 1_555 1_555
H138 C152 1_555 1_555
C153 C151 1_555 1_555
H139 C153 1_555 1_555
H140 C153 1_555 1_555
H141 C153 1_555 1_555
C154 C151 1_555 1_555
H142 C154 1_555 1_555
H143 C154 1_555 1_555
H144 C154 1_555 1_555
C155 C33 1_555 1_555
C156 C155 1_555 1_555
H145 C156 1_555 1_555
H146 C156 1_555 1_555
H147 C156 1_555 1_555
C157 C155 1_555 1_555
H148 C157 1_555 1_555
H149 C157 1_555 1_555
H150 C157 1_555 1_555
C158 C155 1_555 1_555
H151 C158 1_555 1_555
H152 C158 1_555 1_555
H153 C158 1_555 1_555
C159 C53 1_555 1_555
C160 C159 1_555 1_555
H154 C160 1_555 1_555
H155 C160 1_555 1_555
H156 C160 1_555 1_555
C161 C159 1_555 1_555
H157 C161 1_555 1_555
H158 C161 1_555 1_555
H159 C161 1_555 1_555
C162 C159 1_555 1_555
H160 C162 1_555 1_555
H161 C162 1_555 1_555
H162 C162 1_555 1_555
C163 C83 1_555 1_555
C164 C163 1_555 1_555
H163 C164 1_555 1_555
H164 C164 1_555 1_555
H165 C164 1_555 1_555
C165 C163 1_555 1_555
H166 C165 1_555 1_555
H167 C165 1_555 1_555
H168 C165 1_555 1_555
C166 C163 1_555 1_555
H169 C166 1_555 1_555
H170 C166 1_555 1_555
H171 C166 1_555 1_555
C167 C63 1_555 1_555
C168 C167 1_555 1_555
H172 C168 1_555 1_555
H173 C168 1_555 1_555
H174 C168 1_555 1_555
C169 C167 1_555 1_555
H175 C169 1_555 1_555
H176 C169 1_555 1_555
H177 C169 1_555 1_555
C170 C167 1_555 1_555
H178 C170 1_555 1_555
H179 C170 1_555 1_555
H180 C170 1_555 1_555
C171 C73 1_555 1_555
C172 C171 1_555 1_555
H181 C172 1_555 1_555
H182 C172 1_555 1_555
H183 C172 1_555 1_555
C173 C171 1_555 1_555
H184 C173 1_555 1_555
H185 C173 1_555 1_555
H186 C173 1_555 1_555
C174 C171 1_555 1_555
H187 C174 1_555 1_555
H188 C174 1_555 1_555
H189 C174 1_555 1_555
C175 C113 1_555 1_555
C176 C175 1_555 1_555
H190 C176 1_555 1_555
H191 C176 1_555 1_555
H192 C176 1_555 1_555
C177 C175 1_555 1_555
H193 C177 1_555 1_555
H194 C177 1_555 1_555
H195 C177 1_555 1_555
C178 C175 1_555 1_555
H196 C178 1_555 1_555
H197 C178 1_555 1_555
H198 C178 1_555 1_555
C179 C103 1_555 1_555
C180 C179 1_555 1_555
H199 C180 1_555 1_555
H200 C180 1_555 1_555
H201 C180 1_555 1_555
C181 C179 1_555 1_555
H202 C181 1_555 1_555
H203 C181 1_555 1_555
H204 C181 1_555 1_555
C182 C179 1_555 1_555
H205 C182 1_555 1_555
H206 C182 1_555 1_555
H207 C182 1_555 1_555
C183 C93 1_555 1_555
C184 C183 1_555 1_555
H208 C184 1_555 1_555
H209 C184 1_555 1_555
H210 C184 1_555 1_555
C185 C183 1_555 1_555
H211 C185 1_555 1_555
H212 C185 1_555 1_555
H213 C185 1_555 1_555
C186 C183 1_555 1_555
H214 C186 1_555 1_555
H215 C186 1_555 1_555
H216 C186 1_555 1_555
O22 C187 1_555 1_555
O23 C188 1_555 1_555
N26 C137 1_555 1_555
N28 C128 1_555 1_555
N30 C122 1_555 1_555
N32 C131 1_555 1_555
N34 C134 1_555 1_555
N36 C125 1_555 1_555
C4 C5 1_555 1_555
C5 C6 1_555 1_555
C9 C10 1_555 1_555
C9 C124 1_555 1_555
C14 C15 1_555 1_555
C15 C16 1_555 1_555
C19 C20 1_555 1_555
C19 C132 1_555 1_555
C24 C25 1_555 1_555
C25 C26 1_555 1_555
C29 C30 1_555 1_555
C29 C129 1_555 1_555
C34 C35 1_555 1_555
C35 C36 1_555 1_555
C39 C40 1_555 1_555
C39 C136 1_555 1_555
C44 C45 1_555 1_555
C45 C46 1_555 1_555
C49 C50 1_555 1_555
C49 C133 1_555 1_555
C54 C55 1_555 1_555
C55 C56 1_555 1_555
C59 C60 1_555 1_555
C59 C126 1_555 1_555
C64 C65 1_555 1_555
C65 C66 1_555 1_555
C69 C70 1_555 1_555
C69 C123 1_555 1_555
C74 C75 1_555 1_555
C75 C76 1_555 1_555
C79 C80 1_555 1_555
C79 C130 1_555 1_555
C84 C85 1_555 1_555
C85 C86 1_555 1_555
C89 C90 1_555 1_555
C89 C135 1_555 1_555
C94 C95 1_555 1_555
C95 C96 1_555 1_555
C99 C100 1_555 1_555
C99 C127 1_555 1_555
C104 C105 1_555 1_555
C105 C106 1_555 1_555
C109 C110 1_555 1_555
C109 C138 1_555 1_555
C114 C115 1_555 1_555
C115 C116 1_555 1_555
C119 C120 1_555 1_555
C119 C121 1_555 1_555

#END
