
#######################################################################
#
#                 Cambridge Crystallographic Data Centre
#                                CCDC 
#
#######################################################################
#
# If this CIF has been generated from an entry in the Cambridge 
# Structural Database, then it will include bibliographic, chemical, 
# crystal, experimental, refinement or atomic coordinate data resulting 
# from the CCDC's data processing and validation procedures.
#
#######################################################################

data_YAHWIQ
_chemical_formula_moiety         'C164 H124 N12 O4 Pd2 4+,4(B1 F4 1-)'
_chemical_name_systematic        
'tetrakis(\m-10-hexyl-2,7-bis(isoquinolin-8-ylethynyl)acridin-9(10H)-one)-di-palladium(ii) tetrakis(tetrafluoroborate) unknown solvate'
_symmetry_cell_setting           monoclinic
_symmetry_space_group_name_H-M   'C 2/m'
_symmetry_Int_Tables_number      12
_space_group_name_Hall           '-C 2y'
loop_
_symmetry_equiv_pos_site_id
_symmetry_equiv_pos_as_xyz
1 x,y,z
2 -x,y,-z
3 1/2+x,1/2+y,z
4 1/2-x,1/2+y,-z
5 -x,-y,-z
6 x,-y,z
7 1/2-x,1/2-y,-z
8 1/2+x,1/2-y,z
_cell_length_a                   23.187(7)
_cell_length_b                   73.53(2)
_cell_length_c                   23.314(7)
_cell_angle_alpha                90
_cell_angle_beta                 117.719(9)
_cell_angle_gamma                90
_cell_volume                     35187.4
_exptl_crystal_colour            yellow
_exptl_crystal_description       plate
_cell_formula_units_Z            4
_chemical_properties_physical    Air-sensitive
_exptl_crystal_recrystallization_method 'diisopropyl ether/acetonitrile/benzene'
loop_
_atom_site_label
_atom_site_type_symbol
_atom_site_fract_x
_atom_site_fract_y
_atom_site_fract_z
Pd1 Pd 0.52388(6) 0.25551(2) 0.18902(6)
N1 N 0.6178(5) 0.34117(16) 0.6026(5)
C1 C 0.5898(5) 0.33689(16) 0.5360(6)
C2 C 0.5729(6) 0.35061(18) 0.4897(6)
H1 H 0.5802 0.3630 0.5028
C3 C 0.5456(6) 0.34622(19) 0.4247(6)
H2 H 0.5346 0.3557 0.3936
C4 C 0.5338(6) 0.32835(19) 0.4042(5)
C5 C 0.5515(6) 0.31450(18) 0.4499(5)
H3 H 0.5453 0.3022 0.4362
C6 C 0.5783(5) 0.31866(16) 0.5156(5)
C7 C 0.5948(5) 0.30358(16) 0.5627(5)
O1 O 0.5838(5) 0.28747(15) 0.5469(5)
C8 C 0.6257(5) 0.30919(16) 0.6318(5)
C9 C 0.6441(6) 0.29563(17) 0.6784(5)
H4 H 0.6356 0.2833 0.6654
C10 C 0.6750(6) 0.30004(16) 0.7444(5)
C11 C 0.6870(6) 0.31839(18) 0.7611(6)
H5 H 0.7081 0.3215 0.8058
C12 C 0.6697(6) 0.33216(18) 0.7161(6)
H6 H 0.6797 0.3445 0.7294
C13 C 0.6369(5) 0.32761(16) 0.6496(6)
C14 C 0.5021(6) 0.3241(2) 0.3360(5)
C15 C 0.4767(7) 0.3233(2) 0.2778(5)
C16 C 0.4427(6) 0.32472(17) 0.2084(5)
C17 C 0.4462(6) 0.31002(15) 0.1699(5)
C18 C 0.4802(6) 0.29353(17) 0.1930(6)
H7 H 0.5034 0.2921 0.2387
N2 N 0.4830(6) 0.28005(17) 0.1578(6)
C19 C 0.4513(7) 0.28223(18) 0.0928(6)
H8 H 0.4541 0.2728 0.0664
C20 C 0.4158(6) 0.29727(18) 0.0631(6)
H9 H 0.3936 0.2980 0.0171
C21 C 0.4118(6) 0.31184(16) 0.1004(5)
C22 C 0.3757(7) 0.32788(19) 0.0744(6)
H10 H 0.3525 0.3292 0.0287
C23 C 0.3727(7) 0.34151(19) 0.1123(6)
H11 H 0.3471 0.3520 0.0929
C24 C 0.4071(7) 0.34017(17) 0.1794(6)
H12 H 0.4061 0.3500 0.2055
C25 C 0.6959(6) 0.28578(17) 0.7917(6)
C26 C 0.7137(6) 0.27369(16) 0.8303(6)
C27 C 0.7313(5) 0.25899(14) 0.8760(5)
C28 C 0.6807(5) 0.24831(15) 0.8788(5)
C29 C 0.6145(5) 0.25270(17) 0.8417(6)
H13 H 0.6029 0.2624 0.8113
N3 N 0.5677(5) 0.24398(16) 0.8474(5)
C30 C 0.5837(6) 0.23003(18) 0.8891(6)
H14 H 0.5497 0.2240 0.8936
C31 C 0.6457(5) 0.22395(17) 0.9254(6)
H15 H 0.6543 0.2136 0.9528
C32 C 0.6973(5) 0.23328(15) 0.9216(5)
C33 C 0.7641(5) 0.22880(18) 0.9608(6)
H16 H 0.7761 0.2186 0.9888
C34 C 0.8105(6) 0.23944(18) 0.9575(6)
H17 H 0.8551 0.2365 0.9843
C35 C 0.7953(5) 0.25437(18) 0.9164(6)
H18 H 0.8294 0.2615 0.9162
C36 C 0.6281(8) 0.36057(19) 0.6218(9)
H19 H 0.6228 0.3624 0.6611
H20 H 0.5954 0.3681 0.5866
C37 C 0.6968(9) 0.3663(3) 0.6353(12)
H21 H 0.7294 0.3585 0.6697
H22 H 0.7017 0.3647 0.5957
C38 C 0.7089(11) 0.3858(3) 0.6564(12)
H23 H 0.7178 0.3867 0.7022
H24 H 0.6693 0.3930 0.6298
C39 C 0.7666(12) 0.3938(3) 0.6497(14)
H25 H 0.7643 0.3901 0.6079
H26 H 0.8082 0.3893 0.6851
C40 C 0.7631(13) 0.4151(3) 0.6530(15)
H27 H 0.7441 0.4202 0.6086
H28 H 0.8077 0.4201 0.6779
C41 C 0.7187(13) 0.4212(4) 0.6875(14)
H29 H 0.7172 0.4345 0.6890
H30 H 0.6744 0.4165 0.6624
H31 H 0.7379 0.4164 0.7316
N4 N 0.7432(5) 0.19625(16) 0.6253(6)
C42 C 0.7465(6) 0.20534(17) 0.5745(6)
C43 C 0.8048(6) 0.2059(2) 0.5705(6)
H32 H 0.8424 0.1999 0.6021
C44 C 0.8074(6) 0.2152(2) 0.5211(6)
H33 H 0.8472 0.2153 0.5186
C45 C 0.7537(6) 0.22457(17) 0.4738(6)
C46 C 0.6956(6) 0.2239(2) 0.4772(6)
H34 H 0.6583 0.2302 0.4459
C47 C 0.6917(5) 0.21412(18) 0.5265(6)
C48 C 0.6288(6) 0.21368(18) 0.5283(6)
O2 O 0.5811(5) 0.22230(19) 0.4889(6)
C49 C 0.6289(6) 0.20343(18) 0.5827(6)
C50 C 0.5715(6) 0.2035(2) 0.5887(7)
H35 H 0.5336 0.2094 0.5572
C51 C 0.5704(6) 0.1948(2) 0.6413(7)
C52 C 0.6244(6) 0.1857(2) 0.6853(7)
H36 H 0.6227 0.1794 0.7201
C53 C 0.6813(6) 0.1855(2) 0.6800(7)
H37 H 0.7182 0.1790 0.7109
C54 C 0.6848(6) 0.19475(18) 0.6292(6)
C55 C 0.7619(7) 0.2350(2) 0.4258(6)
C56 C 0.7704(7) 0.24344(19) 0.3863(6)
C57 C 0.7821(5) 0.25349(16) 0.3399(5)
C58 C 0.7292(5) 0.26159(16) 0.2848(5)
C59 C 0.6635(5) 0.25985(18) 0.2720(6)
H38 H 0.6539 0.2538 0.3026
N5 N 0.6155(5) 0.26636(17) 0.2185(6)
C60 C 0.6272(5) 0.27547(19) 0.1757(6)
H39 H 0.5912 0.2802 0.1382
C61 C 0.6882(5) 0.27840(19) 0.1831(6)
H40 H 0.6947 0.2851 0.1518
C62 C 0.7415(5) 0.27125(16) 0.2386(5)
C63 C 0.8063(5) 0.27254(19) 0.2474(6)
H41 H 0.8158 0.2792 0.2180
C64 C 0.8544(6) 0.26383(19) 0.2995(6)
H42 H 0.8973 0.2641 0.3042
C65 C 0.8440(5) 0.25472(19) 0.3457(6)
H43 H 0.8796 0.2493 0.3817
C66 C 0.5107(6) 0.1955(2) 0.6459(8)
C67 C 0.4615(6) 0.1957(2) 0.6511(8)
C68 C 0.4042(6) 0.19490(19) 0.6600(6)
C69 C 0.3998(6) 0.20574(17) 0.7087(6)
C70 C 0.4404(6) 0.22052(19) 0.7419(7)
H44 H 0.4743 0.2235 0.7316
N6 N 0.4353(6) 0.23050(18) 0.7858(6)
C71 C 0.3897(7) 0.2259(2) 0.8038(7)
H45 H 0.3883 0.2324 0.8382
C72 C 0.3457(7) 0.2124(2) 0.7752(7)
H46 H 0.3137 0.2098 0.7887
C73 C 0.3481(6) 0.20197(18) 0.7248(6)
C74 C 0.3031(7) 0.1883(2) 0.6897(7)
H47 H 0.2697 0.1853 0.7009
C75 C 0.3058(7) 0.1791(2) 0.6395(7)
H48 H 0.2730 0.1705 0.6148
C76 C 0.3563(7) 0.1824(2) 0.6250(7)
H49 H 0.3581 0.1759 0.5905
C77 C 0.8048(7) 0.1904(3) 0.6817(8)
H50 H 0.8018 0.1927 0.7220
H51 H 0.8412 0.1978 0.6833
C78 C 0.8195(10) 0.1707(3) 0.6786(10)
H52 H 0.8309 0.1683 0.6433
H53 H 0.7821 0.1629 0.6723
C79 C 0.8799(11) 0.1673(3) 0.7474(11)
H54 H 0.9156 0.1757 0.7527
H55 H 0.8673 0.1703 0.7814
C80 C 0.9057(13) 0.1474(3) 0.7571(11)
H56 H 0.9286 0.1451 0.7311
H57 H 0.8691 0.1387 0.7436
C81 C 0.9556(14) 0.1453(4) 0.8343(12)
H58 H 0.9935 0.1535 0.8484
H59 H 0.9335 0.1474 0.8612
C82 C 0.9763(14) 0.1242(4) 0.8359(14)
H60 H 1.0071 0.1207 0.8804
H61 H 0.9375 0.1165 0.8205
H62 H 0.9969 0.1225 0.8078
Pd1A Pd 0.47612(6) 0.25551(2) 0.81098(6)
N1A N 0.3822(5) 0.34117(16) 0.3974(5)
C1A C 0.4102(5) 0.33689(16) 0.4640(6)
C2A C 0.4271(6) 0.35061(18) 0.5103(6)
H1A H 0.4198 0.3630 0.4972
C3A C 0.4544(6) 0.34622(19) 0.5753(6)
H2A H 0.4654 0.3557 0.6064
C4A C 0.4662(6) 0.32835(19) 0.5958(5)
C5A C 0.4485(6) 0.31450(18) 0.5501(5)
H3A H 0.4547 0.3022 0.5638
C6A C 0.4217(5) 0.31866(16) 0.4844(5)
C7A C 0.4052(5) 0.30358(16) 0.4373(5)
O1A O 0.4162(5) 0.28747(15) 0.4531(5)
C8A C 0.3743(5) 0.30919(16) 0.3682(5)
C9A C 0.3559(6) 0.29563(17) 0.3216(5)
H4A H 0.3644 0.2833 0.3346
C10A C 0.3250(6) 0.30004(16) 0.2556(5)
C11A C 0.3130(6) 0.31839(18) 0.2389(6)
H5A H 0.2919 0.3215 0.1942
C12A C 0.3303(6) 0.33216(18) 0.2839(6)
H6A H 0.3203 0.3445 0.2706
C13A C 0.3631(5) 0.32761(16) 0.3504(6)
C14A C 0.4979(6) 0.3241(2) 0.6640(5)
C15A C 0.5233(7) 0.3233(2) 0.7222(5)
C16A C 0.5573(6) 0.32472(17) 0.7916(5)
C17A C 0.5538(6) 0.31002(15) 0.8301(5)
C18A C 0.5198(6) 0.29353(17) 0.8070(6)
H7A H 0.4966 0.2921 0.7613
N2A N 0.5170(6) 0.28005(17) 0.8422(6)
C19A C 0.5487(7) 0.28223(18) 0.9072(6)
H8A H 0.5459 0.2728 0.9336
C20A C 0.5842(6) 0.29727(18) 0.9369(6)
H9A H 0.6064 0.2980 0.9829
C21A C 0.5882(6) 0.31184(16) 0.8996(5)
C22A C 0.6243(7) 0.32788(19) 0.9256(6)
H10A H 0.6475 0.3292 0.9713
C23A C 0.6273(7) 0.34151(19) 0.8877(6)
H11A H 0.6529 0.3520 0.9071
C24A C 0.5929(7) 0.34017(17) 0.8206(6)
H12A H 0.5939 0.3500 0.7945
C25A C 0.3041(6) 0.28578(17) 0.2083(6)
C26A C 0.2863(6) 0.27369(16) 0.1697(6)
C27A C 0.2687(5) 0.25899(14) 0.1240(5)
C28A C 0.3193(5) 0.24831(15) 0.1212(5)
C29A C 0.3855(5) 0.25270(17) 0.1583(6)
H13A H 0.3971 0.2624 0.1887
N3A N 0.4323(5) 0.24398(16) 0.1526(5)
C30A C 0.4163(6) 0.23003(18) 0.1109(6)
H14A H 0.4503 0.2240 0.1064
C31A C 0.3543(5) 0.22395(17) 0.0746(6)
H15A H 0.3457 0.2136 0.0472
C32A C 0.3027(5) 0.23328(15) 0.0784(5)
C33A C 0.2359(5) 0.22880(18) 0.0392(6)
H16A H 0.2239 0.2186 0.0112
C34A C 0.1895(6) 0.23944(18) 0.0425(6)
H17A H 0.1449 0.2365 0.0157
C35A C 0.2047(5) 0.25437(18) 0.0836(6)
H18A H 0.1706 0.2615 0.0838
C36A C 0.3719(8) 0.36057(19) 0.3782(9)
H19A H 0.3772 0.3624 0.3389
H20A H 0.4046 0.3681 0.4134
C37A C 0.3032(9) 0.3663(3) 0.3647(12)
H21A H 0.2706 0.3585 0.3303
H22A H 0.2983 0.3647 0.4043
C38A C 0.2911(11) 0.3858(3) 0.3436(12)
H23A H 0.2822 0.3867 0.2978
H24A H 0.3307 0.3930 0.3702
C39A C 0.2334(12) 0.3938(3) 0.3503(14)
H25A H 0.2357 0.3901 0.3921
H26A H 0.1918 0.3893 0.3149
C40A C 0.2369(13) 0.4151(3) 0.3470(15)
H27A H 0.2559 0.4202 0.3914
H28A H 0.1923 0.4201 0.3221
C41A C 0.2813(13) 0.4212(4) 0.3125(14)
H29A H 0.2828 0.4345 0.3110
H30A H 0.3256 0.4165 0.3376
H31A H 0.2621 0.4164 0.2684
N4A N 0.2568(5) 0.19625(16) 0.3747(6)
C42A C 0.2535(6) 0.20534(17) 0.4255(6)
C43A C 0.1952(6) 0.2059(2) 0.4295(6)
H32A H 0.1576 0.1999 0.3979
C44A C 0.1926(6) 0.2152(2) 0.4789(6)
H33A H 0.1528 0.2153 0.4814
C45A C 0.2463(6) 0.22457(17) 0.5262(6)
C46A C 0.3044(6) 0.2239(2) 0.5228(6)
H34A H 0.3417 0.2302 0.5541
C47A C 0.3083(5) 0.21412(18) 0.4735(6)
C48A C 0.3712(6) 0.21368(18) 0.4717(6)
O2A O 0.4189(5) 0.22230(19) 0.5111(6)
C49A C 0.3711(6) 0.20343(18) 0.4173(6)
C50A C 0.4285(6) 0.2035(2) 0.4113(7)
H35A H 0.4664 0.2094 0.4428
C51A C 0.4296(6) 0.1948(2) 0.3587(7)
C52A C 0.3756(6) 0.1857(2) 0.3147(7)
H36A H 0.3773 0.1794 0.2799
C53A C 0.3187(6) 0.1855(2) 0.3200(7)
H37A H 0.2818 0.1790 0.2891
C54A C 0.3152(6) 0.19475(18) 0.3708(6)
C55A C 0.2381(7) 0.2350(2) 0.5742(6)
C56A C 0.2296(7) 0.24344(19) 0.6137(6)
C57A C 0.2179(5) 0.25349(16) 0.6601(5)
C58A C 0.2708(5) 0.26159(16) 0.7152(5)
C59A C 0.3365(5) 0.25985(18) 0.7280(6)
H38A H 0.3461 0.2538 0.6974
N5A N 0.3845(5) 0.26636(17) 0.7815(6)
C60A C 0.3728(5) 0.27547(19) 0.8243(6)
H39A H 0.4088 0.2802 0.8618
C61A C 0.3118(5) 0.27840(19) 0.8169(6)
H40A H 0.3053 0.2851 0.8482
C62A C 0.2585(5) 0.27125(16) 0.7614(5)
C63A C 0.1937(5) 0.27254(19) 0.7526(6)
H41A H 0.1842 0.2792 0.7820
C64A C 0.1456(6) 0.26383(19) 0.7005(6)
H42A H 0.1027 0.2641 0.6958
C65A C 0.1560(5) 0.25472(19) 0.6543(6)
H43A H 0.1204 0.2493 0.6183
C66A C 0.4893(6) 0.1955(2) 0.3541(8)
C67A C 0.5385(6) 0.1957(2) 0.3489(8)
C68A C 0.5958(6) 0.19490(19) 0.3400(6)
C69A C 0.6002(6) 0.20574(17) 0.2913(6)
C70A C 0.5596(6) 0.22052(19) 0.2581(7)
H44A H 0.5257 0.2235 0.2684
N6A N 0.5647(6) 0.23050(18) 0.2142(6)
C71A C 0.6103(7) 0.2259(2) 0.1962(7)
H45A H 0.6117 0.2324 0.1618
C72A C 0.6543(7) 0.2124(2) 0.2248(7)
H46A H 0.6863 0.2098 0.2113
C73A C 0.6519(6) 0.20197(18) 0.2752(6)
C74A C 0.6969(7) 0.1883(2) 0.3103(7)
H47A H 0.7303 0.1853 0.2991
C75A C 0.6942(7) 0.1791(2) 0.3605(7)
H48A H 0.7270 0.1705 0.3852
C76A C 0.6437(7) 0.1824(2) 0.3750(7)
H49A H 0.6419 0.1759 0.4095
C77A C 0.1952(7) 0.1904(3) 0.3183(8)
H50A H 0.1982 0.1927 0.2780
H51A H 0.1588 0.1978 0.3167
C78A C 0.1805(10) 0.1707(3) 0.3214(10)
H52A H 0.1691 0.1683 0.3567
H53A H 0.2179 0.1629 0.3277
C79A C 0.1201(11) 0.1673(3) 0.2526(11)
H54A H 0.0844 0.1757 0.2473
H55A H 0.1327 0.1703 0.2186
C80A C 0.0943(13) 0.1474(3) 0.2429(11)
H56A H 0.0714 0.1451 0.2689
H57A H 0.1309 0.1387 0.2564
C81A C 0.0444(14) 0.1453(4) 0.1657(12)
H58A H 0.0065 0.1535 0.1516
H59A H 0.0665 0.1474 0.1388
C82A C 0.0237(14) 0.1242(4) 0.1641(14)
H60A H -0.0071 0.1207 0.1196
H61A H 0.0625 0.1165 0.1795
H62A H 0.0031 0.1225 0.1922
B1 B 0.5288(18) 0.2621(5) 0.3627(16)
F1 F 0.5544(12) 0.2762(4) 0.3392(12)
F2 F 0.4756(12) 0.2602(4) 0.3043(12)
F3 F 0.5181(11) 0.2638(3) 0.4144(11)
F4 F 0.5723(13) 0.2491(3) 0.3616(13)
B2 B 0.7461(17) 0.3196(4) 0.1214(17)
F5 F 0.7478(11) 0.3358(3) 0.0906(11)
F6 F 0.8015(12) 0.3093(3) 0.1497(11)
F7 F 0.6902(11) 0.3098(3) 0.0842(10)
F8 F 0.7415(12) 0.3278(3) 0.1743(11)
loop_
_geom_bond_atom_site_label_1
_geom_bond_atom_site_label_2
_geom_bond_site_symmetry_1
_geom_bond_site_symmetry_2
Pd1 N2 1_555 1_555
N1 C1 1_555 1_555
C1 C2 1_555 1_555
C2 H1 1_555 1_555
C3 C2 1_555 1_555
H2 C3 1_555 1_555
C4 C3 1_555 1_555
C5 C4 1_555 1_555
H3 C5 1_555 1_555
C6 C1 1_555 1_555
C7 C6 1_555 1_555
O1 C7 1_555 1_555
C8 C7 1_555 1_555
C9 C8 1_555 1_555
H4 C9 1_555 1_555
C10 C9 1_555 1_555
C11 C10 1_555 1_555
H5 C11 1_555 1_555
C12 C11 1_555 1_555
H6 C12 1_555 1_555
C13 N1 1_555 1_555
C14 C4 1_555 1_555
C15 C14 1_555 1_555
C16 C15 1_555 1_555
C17 C16 1_555 1_555
C18 C17 1_555 1_555
H7 C18 1_555 1_555
N2 C18 1_555 1_555
C19 N2 1_555 1_555
H8 C19 1_555 1_555
C20 C19 1_555 1_555
H9 C20 1_555 1_555
C21 C17 1_555 1_555
C22 C21 1_555 1_555
H10 C22 1_555 1_555
C23 C22 1_555 1_555
H11 C23 1_555 1_555
C24 C16 1_555 1_555
H12 C24 1_555 1_555
C25 C10 1_555 1_555
C26 C25 1_555 1_555
C27 C26 1_555 1_555
C28 C27 1_555 1_555
C29 C28 1_555 1_555
H13 C29 1_555 1_555
N3 C29 1_555 1_555
C30 N3 1_555 1_555
H14 C30 1_555 1_555
C31 C30 1_555 1_555
H15 C31 1_555 1_555
C32 C28 1_555 1_555
C33 C32 1_555 1_555
H16 C33 1_555 1_555
C34 C33 1_555 1_555
H17 C34 1_555 1_555
C35 C27 1_555 1_555
H18 C35 1_555 1_555
C36 N1 1_555 1_555
H19 C36 1_555 1_555
H20 C36 1_555 1_555
C37 C36 1_555 1_555
H21 C37 1_555 1_555
H22 C37 1_555 1_555
C38 C37 1_555 1_555
H23 C38 1_555 1_555
H24 C38 1_555 1_555
C39 C38 1_555 1_555
H25 C39 1_555 1_555
H26 C39 1_555 1_555
C40 C39 1_555 1_555
H27 C40 1_555 1_555
H28 C40 1_555 1_555
C41 C40 1_555 1_555
H29 C41 1_555 1_555
H30 C41 1_555 1_555
H31 C41 1_555 1_555
N4 C42 1_555 1_555
C42 C43 1_555 1_555
C43 H32 1_555 1_555
C44 C43 1_555 1_555
H33 C44 1_555 1_555
C45 C44 1_555 1_555
C46 C45 1_555 1_555
H34 C46 1_555 1_555
C47 C42 1_555 1_555
C48 C47 1_555 1_555
O2 C48 1_555 1_555
C49 C48 1_555 1_555
C50 C49 1_555 1_555
H35 C50 1_555 1_555
C51 C50 1_555 1_555
C52 C51 1_555 1_555
H36 C52 1_555 1_555
C53 C52 1_555 1_555
H37 C53 1_555 1_555
C54 N4 1_555 1_555
C55 C45 1_555 1_555
C56 C55 1_555 1_555
C57 C56 1_555 1_555
C58 C57 1_555 1_555
C59 C58 1_555 1_555
H38 C59 1_555 1_555
N5 Pd1 1_555 1_555
C60 N5 1_555 1_555
H39 C60 1_555 1_555
C61 C60 1_555 1_555
H40 C61 1_555 1_555
C62 C58 1_555 1_555
C63 C62 1_555 1_555
H41 C63 1_555 1_555
C64 C63 1_555 1_555
H42 C64 1_555 1_555
C65 C57 1_555 1_555
H43 C65 1_555 1_555
C66 C51 1_555 1_555
C67 C66 1_555 1_555
C68 C67 1_555 1_555
C69 C68 1_555 1_555
C70 C69 1_555 1_555
H44 C70 1_555 1_555
N6 C70 1_555 1_555
C71 N6 1_555 1_555
H45 C71 1_555 1_555
C72 C71 1_555 1_555
H46 C72 1_555 1_555
C73 C69 1_555 1_555
C74 C73 1_555 1_555
H47 C74 1_555 1_555
C75 C74 1_555 1_555
H48 C75 1_555 1_555
C76 C68 1_555 1_555
H49 C76 1_555 1_555
C77 N4 1_555 1_555
H50 C77 1_555 1_555
H51 C77 1_555 1_555
C78 C77 1_555 1_555
H52 C78 1_555 1_555
H53 C78 1_555 1_555
C79 C78 1_555 1_555
H54 C79 1_555 1_555
H55 C79 1_555 1_555
C80 C79 1_555 1_555
H56 C80 1_555 1_555
H57 C80 1_555 1_555
C81 C80 1_555 1_555
H58 C81 1_555 1_555
H59 C81 1_555 1_555
C82 C81 1_555 1_555
H60 C82 1_555 1_555
H61 C82 1_555 1_555
H62 C82 1_555 1_555
B1 F1 1_555 1_555
F2 B1 1_555 1_555
F3 B1 1_555 1_555
F4 B1 1_555 1_555
B2 F5 1_555 1_555
F6 B2 1_555 1_555
F7 B2 1_555 1_555
F8 B2 1_555 1_555
Pd1A N3 1_555 1_555
N1A C1A 1_555 1_555
C1A C2A 1_555 1_555
C2A H1A 1_555 1_555
C3A C2A 1_555 1_555
H2A C3A 1_555 1_555
C4A C3A 1_555 1_555
C5A C4A 1_555 1_555
H3A C5A 1_555 1_555
C6A C1A 1_555 1_555
C7A C6A 1_555 1_555
O1A C7A 1_555 1_555
C8A C7A 1_555 1_555
C9A C8A 1_555 1_555
H4A C9A 1_555 1_555
C10A C9A 1_555 1_555
C11A C10A 1_555 1_555
H5A C11A 1_555 1_555
C12A C11A 1_555 1_555
H6A C12A 1_555 1_555
C13A N1A 1_555 1_555
C14A C4A 1_555 1_555
C15A C14A 1_555 1_555
C16A C15A 1_555 1_555
C17A C16A 1_555 1_555
C18A C17A 1_555 1_555
H7A C18A 1_555 1_555
N2A Pd1A 1_555 1_555
C19A N2A 1_555 1_555
H8A C19A 1_555 1_555
C20A C19A 1_555 1_555
H9A C20A 1_555 1_555
C21A C17A 1_555 1_555
C22A C21A 1_555 1_555
H10A C22A 1_555 1_555
C23A C22A 1_555 1_555
H11A C23A 1_555 1_555
C24A C16A 1_555 1_555
H12A C24A 1_555 1_555
C25A C10A 1_555 1_555
C26A C25A 1_555 1_555
C27A C26A 1_555 1_555
C28A C27A 1_555 1_555
C29A C28A 1_555 1_555
H13A C29A 1_555 1_555
N3A Pd1 1_555 1_555
C30A N3A 1_555 1_555
H14A C30A 1_555 1_555
C31A C30A 1_555 1_555
H15A C31A 1_555 1_555
C32A C28A 1_555 1_555
C33A C32A 1_555 1_555
H16A C33A 1_555 1_555
C34A C33A 1_555 1_555
H17A C34A 1_555 1_555
C35A C27A 1_555 1_555
H18A C35A 1_555 1_555
C36A N1A 1_555 1_555
H19A C36A 1_555 1_555
H20A C36A 1_555 1_555
C37A C36A 1_555 1_555
H21A C37A 1_555 1_555
H22A C37A 1_555 1_555
C38A C37A 1_555 1_555
H23A C38A 1_555 1_555
H24A C38A 1_555 1_555
C39A C38A 1_555 1_555
H25A C39A 1_555 1_555
H26A C39A 1_555 1_555
C40A C39A 1_555 1_555
H27A C40A 1_555 1_555
H28A C40A 1_555 1_555
C41A C40A 1_555 1_555
H29A C41A 1_555 1_555
H30A C41A 1_555 1_555
H31A C41A 1_555 1_555
N4A C42A 1_555 1_555
C42A C43A 1_555 1_555
C43A H32A 1_555 1_555
C44A C43A 1_555 1_555
H33A C44A 1_555 1_555
C45A C44A 1_555 1_555
C46A C45A 1_555 1_555
H34A C46A 1_555 1_555
C47A C42A 1_555 1_555
C48A C47A 1_555 1_555
O2A C48A 1_555 1_555
C49A C48A 1_555 1_555
C50A C49A 1_555 1_555
H35A C50A 1_555 1_555
C51A C50A 1_555 1_555
C52A C51A 1_555 1_555
H36A C52A 1_555 1_555
C53A C52A 1_555 1_555
H37A C53A 1_555 1_555
C54A N4A 1_555 1_555
C55A C45A 1_555 1_555
C56A C55A 1_555 1_555
C57A C56A 1_555 1_555
C58A C57A 1_555 1_555
C59A C58A 1_555 1_555
H38A C59A 1_555 1_555
N5A Pd1A 1_555 1_555
C60A N5A 1_555 1_555
H39A C60A 1_555 1_555
C61A C60A 1_555 1_555
H40A C61A 1_555 1_555
C62A C58A 1_555 1_555
C63A C62A 1_555 1_555
H41A C63A 1_555 1_555
C64A C63A 1_555 1_555
H42A C64A 1_555 1_555
C65A C57A 1_555 1_555
H43A C65A 1_555 1_555
C66A C51A 1_555 1_555
C67A C66A 1_555 1_555
C68A C67A 1_555 1_555
C69A C68A 1_555 1_555
C70A C69A 1_555 1_555
H44A C70A 1_555 1_555
N6A Pd1 1_555 1_555
C71A N6A 1_555 1_555
H45A C71A 1_555 1_555
C72A C71A 1_555 1_555
H46A C72A 1_555 1_555
C73A C69A 1_555 1_555
C74A C73A 1_555 1_555
H47A C74A 1_555 1_555
C75A C74A 1_555 1_555
H48A C75A 1_555 1_555
C76A C68A 1_555 1_555
H49A C76A 1_555 1_555
C77A N4A 1_555 1_555
H50A C77A 1_555 1_555
H51A C77A 1_555 1_555
C78A C77A 1_555 1_555
H52A C78A 1_555 1_555
H53A C78A 1_555 1_555
C79A C78A 1_555 1_555
H54A C79A 1_555 1_555
H55A C79A 1_555 1_555
C80A C79A 1_555 1_555
H56A C80A 1_555 1_555
H57A C80A 1_555 1_555
C81A C80A 1_555 1_555
H58A C81A 1_555 1_555
H59A C81A 1_555 1_555
C82A C81A 1_555 1_555
H60A C82A 1_555 1_555
H61A C82A 1_555 1_555
H62A C82A 1_555 1_555
C5 C6 1_555 1_555
C8 C13 1_555 1_555
C12 C13 1_555 1_555
C20 C21 1_555 1_555
C23 C24 1_555 1_555
C31 C32 1_555 1_555
C34 C35 1_555 1_555
C46 C47 1_555 1_555
C49 C54 1_555 1_555
C53 C54 1_555 1_555
C59 N5 1_555 1_555
C61 C62 1_555 1_555
C64 C65 1_555 1_555
N6 Pd1A 1_555 1_555
C72 C73 1_555 1_555
C75 C76 1_555 1_555
C5A C6A 1_555 1_555
C8A C13A 1_555 1_555
C12A C13A 1_555 1_555
C18A N2A 1_555 1_555
C20A C21A 1_555 1_555
C23A C24A 1_555 1_555
C29A N3A 1_555 1_555
C31A C32A 1_555 1_555
C34A C35A 1_555 1_555
C46A C47A 1_555 1_555
C49A C54A 1_555 1_555
C53A C54A 1_555 1_555
C59A N5A 1_555 1_555
C61A C62A 1_555 1_555
C64A C65A 1_555 1_555
C70A N6A 1_555 1_555
C72A C73A 1_555 1_555
C75A C76A 1_555 1_555

#END
