# generated using pymatgen
data_H83Pd2C109SN8O11
_symmetry_space_group_name_H-M   'P 1'
_cell_length_a   23.48800000
_cell_length_b   29.05100000
_cell_length_c   31.14800000
_cell_angle_alpha   95.14700000
_cell_angle_beta   110.18000000
_cell_angle_gamma   106.78100000
_symmetry_Int_Tables_number   1
_chemical_formula_structural   H83Pd2C109SN8O11
_chemical_formula_sum   'H332 Pd8 C436 S4 N32 O44'
_cell_volume   18670.99552072
_cell_formula_units_Z   4
loop_
 _symmetry_equiv_pos_site_id
 _symmetry_equiv_pos_as_xyz
  1  'x, y, z'
loop_
 _atom_site_type_symbol
 _atom_site_label
 _atom_site_symmetry_multiplicity
 _atom_site_fract_x
 _atom_site_fract_y
 _atom_site_fract_z
 _atom_site_occupancy
  H  H1  1  0.101700  0.061500  0.303000  1
  H  H2  1  0.898300  0.938500  0.697000  1
  H  H3  1  0.110100  0.015700  0.363700  1
  H  H4  1  0.889900  0.984300  0.636300  1
  H  H5  1  0.231400  0.960000  0.324300  1
  H  H6  1  0.768600  0.040000  0.675700  1
  H  H7  1  0.177500  0.077300  0.185100  1
  H  H8  1  0.822500  0.922700  0.814900  1
  H  H9  1  0.262000  0.986500  0.257100  1
  H  H10  1  0.738000  0.013500  0.742900  1
  H  H11  1  0.138400  0.093400  0.244600  1
  H  H12  1  0.861600  0.906600  0.755400  1
  H  H13  1  0.423800  0.832300  0.113300  1.0
  H  H14  1  0.576200  0.167700  0.886700  1.0
  H  H15  1  0.299400  0.697800  0.078900  1.0
  H  H16  1  0.700600  0.302200  0.921100  1.0
  H  H17  1  0.497000  0.804600  0.097400  1.0
  H  H18  1  0.503000  0.195400  0.902600  1.0
  H  H19  1  0.365500  0.666300  0.057200  1.0
  H  H20  1  0.634500  0.333700  0.942800  1.0
  H  H21  1  0.536500  0.773800  0.050400  1.0
  H  H22  1  0.463500  0.226200  0.949600  1.0
  H  H23  1  0.607200  0.744300  0.033700  1.0
  H  H24  1  0.392800  0.255700  0.966300  1.0
  H  H25  1  0.455600  0.646800  0.080000  1.0
  H  H26  1  0.544400  0.353200  0.920000  1.0
  H  H27  1  0.449900  0.573400  0.082100  1.0
  H  H28  1  0.550100  0.426600  0.917900  1.0
  H  H29  1  0.595300  0.515800  0.044600  1.0
  H  H30  1  0.404700  0.484200  0.955400  1.0
  H  H31  1  0.522600  0.466200  0.069500  1.0
  H  H32  1  0.477400  0.533800  0.930500  1.0
  H  H33  1  0.362900  0.514000  0.071100  1.0
  H  H34  1  0.637100  0.486000  0.928900  1.0
  H  H35  1  0.485600  0.442600  0.127200  1.0
  H  H36  1  0.514400  0.557400  0.872800  1.0
  H  H37  1  0.292100  0.467500  0.098800  1.0
  H  H38  1  0.707900  0.532500  0.901200  1.0
  H  H39  1  0.410200  0.397000  0.151400  1.0
  H  H40  1  0.589800  0.603000  0.848600  1.0
  H  H41  1  0.729400  0.585500  0.008000  1.0
  H  H42  1  0.270600  0.414500  0.992000  1.0
  H  H43  1  0.689200  0.617600  0.981200  1.0
  H  H44  1  0.310800  0.382400  0.018800  1.0
  H  H45  1  0.739500  0.639000  0.034300  1.0
  H  H46  1  0.260500  0.361000  0.965700  1.0
  H  H47  1  0.649900  0.697800  0.946600  1.0
  H  H48  1  0.350100  0.302200  0.053400  1.0
  H  H49  1  0.613900  0.640700  0.942600  1.0
  H  H50  1  0.386100  0.359300  0.057400  1.0
  H  H51  1  0.579000  0.679700  0.947000  1.0
  H  H52  1  0.421000  0.320300  0.053000  1.0
  H  H53  1  0.382100  0.848600  0.209400  1.0
  H  H54  1  0.617900  0.151400  0.790600  1.0
  H  H55  1  0.271700  0.710200  0.160400  1.0
  H  H56  1  0.728300  0.289800  0.839600  1.0
  H  H57  1  0.421500  0.835500  0.282900  1.0
  H  H58  1  0.578500  0.164500  0.717100  1.0
  H  H59  1  0.308500  0.692800  0.233200  1.0
  H  H60  1  0.691500  0.307200  0.766800  1.0
  H  H61  1  0.428500  0.820700  0.352900  1.0
  H  H62  1  0.571500  0.179300  0.647100  1.0
  H  H63  1  0.471900  0.803100  0.424500  1.0
  H  H64  1  0.528100  0.196900  0.575500  1.0
  H  H65  1  0.377800  0.679900  0.289600  1.0
  H  H66  1  0.622200  0.320100  0.710400  1.0
  H  H67  1  0.372100  0.608700  0.298100  1.0
  H  H68  1  0.627900  0.391300  0.701900  1.0
  H  H69  1  0.466400  0.579100  0.444800  1.0
  H  H70  1  0.533600  0.420900  0.555200  1.0
  H  H71  1  0.425600  0.517600  0.380200  1.0
  H  H72  1  0.574400  0.482400  0.619800  1.0
  H  H73  1  0.301000  0.544800  0.247900  1.0
  H  H74  1  0.699000  0.455200  0.752100  1.0
  H  H75  1  0.426200  0.478300  0.314200  1.0
  H  H76  1  0.573800  0.521700  0.685800  1.0
  H  H77  1  0.260600  0.482000  0.184800  1.0
  H  H78  1  0.739400  0.518000  0.815200  1.0
  H  H79  1  0.382500  0.418300  0.247800  1.0
  H  H80  1  0.617500  0.581700  0.752200  1.0
  H  H81  1  0.492000  0.657500  0.552100  1.0
  H  H82  1  0.508000  0.342500  0.447900  1.0
  H  H83  1  0.471800  0.700200  0.528600  1.0
  H  H84  1  0.528200  0.299800  0.471400  1.0
  H  H85  1  0.426500  0.644000  0.506900  1.0
  H  H86  1  0.573500  0.356000  0.493100  1.0
  H  H87  1  0.579200  0.798500  0.535800  1.0
  H  H88  1  0.420800  0.201500  0.464200  1.0
  H  H89  1  0.579200  0.744100  0.521600  1.0
  H  H90  1  0.420800  0.255900  0.478400  1.0
  H  H91  1  0.589100  0.782700  0.489000  1.0
  H  H92  1  0.410900  0.217300  0.511000  1.0
  H  H93  1  0.678500  0.134200  0.946100  1.0
  H  H94  1  0.321500  0.865800  0.053900  1.0
  H  H95  1  0.816800  0.260600  0.976600  1.0
  H  H96  1  0.183200  0.739400  0.023400  1.0
  H  H97  1  0.713200  0.125100  0.021900  1.0
  H  H98  1  0.286800  0.874900  0.978100  1.0
  H  H99  1  0.854400  0.257200  0.053800  1.0
  H  H100  1  0.145600  0.742800  0.946200  1.0
  H  H101  1  0.715400  0.153200  0.095500  1.0
  H  H102  1  0.284600  0.846800  0.904500  1.0
  H  H103  1  0.745800  0.157300  0.174100  1.0
  H  H104  1  0.254200  0.842700  0.825900  1.0
  H  H105  1  0.897800  0.232800  0.116400  1.0
  H  H106  1  0.102200  0.767200  0.883600  1.0
  H  H107  1  0.995900  0.265400  0.163500  1.0
  H  H108  1  0.004100  0.734600  0.836500  1.0
  H  H109  1  0.047700  0.269300  0.321700  1.0
  H  H110  1  0.952300  0.730700  0.678300  1.0
  H  H111  1  0.125200  0.307500  0.295900  1.0
  H  H112  1  0.874800  0.692500  0.704100  1.0
  H  H113  1  0.060800  0.325200  0.149300  1.0
  H  H114  1  0.939200  0.674800  0.850700  1.0
  H  H115  1  0.195400  0.302700  0.258800  1.0
  H  H116  1  0.804600  0.697300  0.741200  1.0
  H  H117  1  0.142200  0.365000  0.128000  1.0
  H  H118  1  0.857800  0.635000  0.872000  1.0
  H  H119  1  0.271900  0.336000  0.229500  1.0
  H  H120  1  0.728100  0.664000  0.770500  1.0
  H  H121  1  0.948100  0.184900  0.371700  1.0
  H  H122  1  0.051900  0.815100  0.628300  1.0
  H  H123  1  0.887000  0.157400  0.323900  1.0
  H  H124  1  0.113000  0.842600  0.676100  1.0
  H  H125  1  0.957900  0.161000  0.327600  1.0
  H  H126  1  0.042100  0.839000  0.672400  1.0
  H  H127  1  0.748200  0.184500  0.280800  1.0
  H  H128  1  0.251800  0.815500  0.719200  1.0
  H  H129  1  0.813700  0.230600  0.297800  1.0
  H  H130  1  0.186300  0.769400  0.702200  1.0
  H  H131  1  0.762400  0.218100  0.245000  1.0
  H  H132  1  0.237600  0.781900  0.755000  1.0
  H  H133  1  0.723600  0.111100  0.855400  1.0
  H  H134  1  0.276400  0.888900  0.144600  1.0
  H  H135  1  0.845400  0.247500  0.896900  1.0
  H  H136  1  0.154600  0.752500  0.103100  1.0
  H  H137  1  0.797200  0.083100  0.839700  1.0
  H  H138  1  0.202800  0.916900  0.160300  1.0
  H  H139  1  0.926000  0.222900  0.889000  1.0
  H  H140  1  0.074000  0.777100  0.111000  1.0
  H  H141  1  0.859100  0.074800  0.798200  1.0
  H  H142  1  0.140900  0.925200  0.201800  1.0
  H  H143  1  0.936000  0.045400  0.790800  1.0
  H  H144  1  0.064000  0.954600  0.209200  1.0
  H  H145  1  0.995700  0.179200  0.909800  1.0
  H  H146  1  0.004300  0.820800  0.090200  1.0
  H  H147  1  0.093800  0.213200  0.953200  1.0
  H  H148  1  0.906200  0.786800  0.046800  1.0
  H  H149  1  0.244200  0.151400  0.930700  1.0
  H  H150  1  0.755800  0.848600  0.069300  1.0
  H  H151  1  0.272600  0.206200  0.998500  1.0
  H  H152  1  0.727400  0.793800  0.001500  1.0
  H  H153  1  0.151600  0.296200  0.988000  1.0
  H  H154  1  0.848400  0.703800  0.012000  1.0
  H  H155  1  0.275100  0.235700  0.067300  1.0
  H  H156  1  0.724900  0.764300  0.932700  1.0
  H  H157  1  0.185700  0.358100  0.052000  1.0
  H  H158  1  0.814300  0.641900  0.948000  1.0
  H  H159  1  0.305500  0.300300  0.128200  1.0
  H  H160  1  0.694500  0.699700  0.871800  1.0
  H  H161  1  0.014200  0.964000  0.784400  1.0
  H  H162  1  0.985800  0.036000  0.215600  1.0
  H  H163  1  0.066700  0.987500  0.836600  1.0
  H  H164  1  0.933300  0.012500  0.163400  1.0
  H  H165  1  0.993600  0.984900  0.823900  1.0
  H  H166  1  0.006400  0.015100  0.176100  1.0
  H  H167  1  0.225500  0.035800  0.893500  1.0
  H  H168  1  0.774500  0.964200  0.106500  1.0
  H  H169  1  0.209600  0.066600  0.930400  1.0
  H  H170  1  0.790400  0.933400  0.069600  1.0
  H  H171  1  0.154700  0.018500  0.894200  1.0
  H  H172  1  0.845300  0.981500  0.105800  1.0
  H  H173  1  0.665400  0.682100  0.542900  1.0
  H  H174  1  0.334600  0.317900  0.457100  1.0
  H  H175  1  0.768800  0.794400  0.509200  1.0
  H  H176  1  0.231200  0.205600  0.490800  1.0
  H  H177  1  0.598800  0.648800  0.466600  1.0
  H  H178  1  0.401200  0.351200  0.533400  1.0
  H  H179  1  0.702100  0.767200  0.431400  1.0
  H  H180  1  0.297900  0.232800  0.568600  1.0
  H  H181  1  0.581600  0.611800  0.390600  1.0
  H  H182  1  0.418400  0.388200  0.609400  1.0
  H  H183  1  0.518000  0.582500  0.313800  1.0
  H  H184  1  0.482000  0.417500  0.686200  1.0
  H  H185  1  0.607200  0.751000  0.373600  1.0
  H  H186  1  0.392800  0.249000  0.626400  1.0
  H  H187  1  0.588500  0.799300  0.327300  1.0
  H  H188  1  0.411500  0.200700  0.672700  1.0
  H  H189  1  0.450800  0.729800  0.171000  1.0
  H  H190  1  0.549200  0.270200  0.829000  1.0
  H  H191  1  0.498900  0.812700  0.195700  1.0
  H  H192  1  0.501100  0.187300  0.804300  1.0
  H  H193  1  0.661300  0.873700  0.332200  1.0
  H  H194  1  0.338700  0.126300  0.667800  1.0
  H  H195  1  0.501800  0.885400  0.235700  1.0
  H  H196  1  0.498200  0.114600  0.764300  1.0
  H  H197  1  0.701300  0.958200  0.351100  1.0
  H  H198  1  0.298700  0.041800  0.648900  1.0
  H  H199  1  0.546100  0.968700  0.257700  1.0
  H  H200  1  0.453900  0.031300  0.742300  1.0
  H  H201  1  0.336200  0.604600  0.126300  1.0
  H  H202  1  0.663800  0.395400  0.873700  1.0
  H  H203  1  0.356600  0.587100  0.175000  1.0
  H  H204  1  0.643400  0.412900  0.825000  1.0
  H  H205  1  0.342100  0.637600  0.172700  1.0
  H  H206  1  0.657900  0.362400  0.827300  1.0
  H  H207  1  0.460500  0.520800  0.197100  1.0
  H  H208  1  0.539500  0.479200  0.802900  1.0
  H  H209  1  0.472000  0.569200  0.175800  1.0
  H  H210  1  0.528000  0.430800  0.824200  1.0
  H  H211  1  0.527000  0.566000  0.222000  1.0
  H  H212  1  0.473000  0.434000  0.778000  1.0
  H  H213  1  0.780600  0.667800  0.611900  1.0
  H  H214  1  0.219400  0.332200  0.388100  1.0
  H  H215  1  0.890400  0.770300  0.571500  1.0
  H  H216  1  0.109600  0.229700  0.428500  1.0
  H  H217  1  0.842700  0.619600  0.610300  1.0
  H  H218  1  0.157300  0.380400  0.389700  1.0
  H  H219  1  0.953200  0.723300  0.566700  1.0
  H  H220  1  0.046800  0.276700  0.433300  1.0
  H  H221  1  0.874000  0.567000  0.575400  1.0
  H  H222  1  0.126000  0.433000  0.424600  1.0
  H  H223  1  0.938400  0.520800  0.575000  1.0
  H  H224  1  0.061600  0.479200  0.425000  1.0
  H  H225  1  0.022300  0.690100  0.595000  1.0
  H  H226  1  0.977700  0.309900  0.405000  1.0
  H  H227  1  0.120800  0.723800  0.610100  1.0
  H  H228  1  0.879200  0.276200  0.389900  1.0
  H  H229  1  0.242300  0.624800  0.600300  1.0
  H  H230  1  0.757700  0.375200  0.399700  1.0
  H  H231  1  0.289500  0.708800  0.620500  1.0
  H  H232  1  0.710500  0.291200  0.379500  1.0
  H  H233  1  0.329100  0.782400  0.664100  1.0
  H  H234  1  0.670900  0.217600  0.335900  1.0
  H  H235  1  0.157900  0.796200  0.593100  1.0
  H  H236  1  0.842100  0.203800  0.406900  1.0
  H  H237  1  0.370000  0.865800  0.686800  1.0
  H  H238  1  0.630000  0.134200  0.313200  1.0
  H  H239  1  0.208300  0.879200  0.610300  1.0
  H  H240  1  0.791700  0.120800  0.389700  1.0
  H  H241  1  0.223900  0.514700  0.633100  1.0
  H  H242  1  0.776100  0.485300  0.366900  1.0
  H  H243  1  0.217700  0.563800  0.655700  1.0
  H  H244  1  0.782300  0.436200  0.344300  1.0
  H  H245  1  0.159500  0.512600  0.641000  1.0
  H  H246  1  0.840500  0.487400  0.359000  1.0
  H  H247  1  0.021900  0.435700  0.540000  1.0
  H  H248  1  0.978100  0.564300  0.460000  1.0
  H  H249  1  0.032300  0.482600  0.516500  1.0
  H  H250  1  0.967700  0.517400  0.483500  1.0
  H  H251  1  0.091700  0.477400  0.558100  1.0
  H  H252  1  0.908300  0.522600  0.441900  1.0
  H  H253  1  0.787700  0.765600  0.700400  1.0
  H  H254  1  0.212300  0.234400  0.299600  1.0
  H  H255  1  0.912500  0.840100  0.652000  1.0
  H  H256  1  0.087500  0.159900  0.348000  1.0
  H  H257  1  0.861400  0.799000  0.776400  1.0
  H  H258  1  0.138600  0.201000  0.223600  1.0
  H  H259  1  0.990300  0.875800  0.726400  1.0
  H  H260  1  0.009700  0.124200  0.273600  1.0
  H  H261  1  0.922500  0.841400  0.842600  1.0
  H  H262  1  0.077500  0.158600  0.157400  1.0
  H  H263  1  0.999000  0.870000  0.916700  1.0
  H  H264  1  0.001000  0.130000  0.083300  1.0
  H  H265  1  0.059900  0.881000  0.790900  1.0
  H  H266  1  0.940100  0.119000  0.209100  1.0
  H  H267  1  0.156500  0.918300  0.803600  1.0
  H  H268  1  0.843500  0.081700  0.196400  1.0
  H  H269  1  0.306400  0.974000  0.955900  1.0
  H  H270  1  0.693600  0.026000  0.044100  1.0
  H  H271  1  0.341700  0.977200  0.895200  1.0
  H  H272  1  0.658300  0.022800  0.104800  1.0
  H  H273  1  0.189800  0.956500  0.755200  1.0
  H  H274  1  0.810200  0.043500  0.244800  1.0
  H  H275  1  0.360300  0.947200  0.836500  1.0
  H  H276  1  0.639700  0.052800  0.163500  1.0
  H  H277  1  0.221100  0.952900  0.693600  1.0
  H  H278  1  0.778900  0.047100  0.306400  1.0
  H  H279  1  0.387700  0.946800  0.772200  1.0
  H  H280  1  0.612300  0.053200  0.227800  1.0
  H  H281  1  0.278300  0.004800  0.053800  1.0
  H  H282  1  0.721700  0.995200  0.946200  1.0
  H  H283  1  0.250700  0.019900  0.004600  1.0
  H  H284  1  0.749300  0.980100  0.995400  1.0
  H  H285  1  0.202200  0.992100  0.027000  1.0
  H  H286  1  0.797800  0.007900  0.973000  1.0
  H  H287  1  0.118600  0.883400  0.042400  1.0
  H  H288  1  0.881400  0.116600  0.957600  1.0
  H  H289  1  0.140000  0.855400  0.007400  1.0
  H  H290  1  0.860000  0.144600  0.992600  1.0
  H  H291  1  0.183800  0.910400  0.035700  1.0
  H  H292  1  0.816200  0.089600  0.964300  1.0
  H  H293  1  0.680800  0.774500  0.636300  1.0
  H  H294  1  0.319200  0.225500  0.363700  1.0
  H  H295  1  0.776700  0.866500  0.581100  1.0
  H  H296  1  0.223300  0.133500  0.418900  1.0
  H  H297  1  0.627800  0.825500  0.647200  1.0
  H  H298  1  0.372200  0.174500  0.352800  1.0
  H  H299  1  0.725300  0.920000  0.588200  1.0
  H  H300  1  0.274700  0.080000  0.411800  1.0
  H  H301  1  0.626400  0.895800  0.685500  1.0
  H  H302  1  0.373600  0.104200  0.314500  1.0
  H  H303  1  0.583100  0.953500  0.700400  1.0
  H  H304  1  0.416900  0.046500  0.299600  1.0
  H  H305  1  0.640300  0.944700  0.571600  1.0
  H  H306  1  0.359700  0.055300  0.428400  1.0
  H  H307  1  0.619900  0.993300  0.524300  1.0
  H  H308  1  0.380100  0.006700  0.475700  1.0
  H  H309  1  0.536400  0.110000  0.561900  1.0
  H  H310  1  0.463600  0.890000  0.438100  1.0
  H  H311  1  0.559500  0.107800  0.496300  1.0
  H  H312  1  0.440500  0.892200  0.503700  1.0
  H  H313  1  0.691600  0.032000  0.492400  1.0
  H  H314  1  0.308400  0.968000  0.507600  1.0
  H  H315  1  0.537100  0.069100  0.420100  1.0
  H  H316  1  0.462900  0.930900  0.579900  1.0
  H  H317  1  0.712200  0.023300  0.425100  1.0
  H  H318  1  0.287800  0.976700  0.574900  1.0
  H  H319  1  0.570300  0.069800  0.359700  1.0
  H  H320  1  0.429700  0.930200  0.640300  1.0
  H  H321  1  0.454100  0.108700  0.631500  1.0
  H  H322  1  0.545900  0.891300  0.368500  1.0
  H  H323  1  0.446100  0.069200  0.588600  1.0
  H  H324  1  0.553900  0.930800  0.411400  1.0
  H  H325  1  0.449200  0.053700  0.637200  1.0
  H  H326  1  0.550800  0.946300  0.362800  1.0
  H  H327  1  0.586600  0.055100  0.762500  1.0
  H  H328  1  0.413400  0.944900  0.237500  1.0
  H  H329  1  0.636100  0.043900  0.742000  1.0
  H  H330  1  0.363900  0.956100  0.258000  1.0
  H  H331  1  0.613200  0.090000  0.731700  1.0
  H  H332  1  0.386800  0.910000  0.268300  1.0
  Pd  Pd333  1  0.280610  0.390230  0.152280  1.0
  Pd  Pd334  1  0.719390  0.609770  0.847720  1.0
  Pd  Pd335  1  0.709950  0.206210  0.887670  1.0
  Pd  Pd336  1  0.290050  0.793790  0.112330  1.0
  Pd  Pd337  1  0.333250  0.954350  0.671370  1.0
  Pd  Pd338  1  0.666750  0.045650  0.328630  1.0
  Pd  Pd339  1  0.782620  0.769750  0.601580  1.0
  Pd  Pd340  1  0.217380  0.230250  0.398420  1.0
  C  C341  1  0.164000  0.040200  0.279100  1
  C  C342  1  0.836000  0.959800  0.720900  1
  C  C343  1  0.129300  0.042500  0.308300  1
  C  C344  1  0.870700  0.957500  0.691700  1
  C  C345  1  0.135800  0.016200  0.345800  1
  C  C346  1  0.864200  0.983800  0.654200  1
  C  C347  1  0.181500  0.990900  0.355800  1
  C  C348  1  0.818500  0.009100  0.644200  1
  C  C349  1  0.210200  0.983600  0.322600  1
  C  C350  1  0.789800  0.016400  0.677400  1
  C  C351  1  0.206500  0.012200  0.286800  1
  C  C352  1  0.793500  0.987800  0.713200  1
  C  C353  1  0.188200  0.064000  0.212400  1
  C  C354  1  0.811800  0.936000  0.787600  1
  C  C355  1  0.232600  0.038000  0.220400  1
  C  C356  1  0.767400  0.962000  0.779600  1
  C  C357  1  0.238100  0.008200  0.255200  1
  C  C358  1  0.761900  0.991800  0.744800  1
  C  C359  1  0.159700  0.070000  0.245300  1
  C  C360  1  0.840300  0.930000  0.754700  1
  C  C361  1  0.411900  0.798000  0.102200  1.0
  C  C362  1  0.588100  0.202000  0.897800  1.0
  C  C363  1  0.339600  0.720100  0.081600  1.0
  C  C364  1  0.660400  0.279900  0.918400  1.0
  C  C365  1  0.456000  0.782000  0.092700  1.0
  C  C366  1  0.544000  0.218000  0.907300  1.0
  C  C367  1  0.379200  0.700600  0.069700  1.0
  C  C368  1  0.620800  0.299400  0.930300  1.0
  C  C369  1  0.440200  0.731100  0.075800  1.0
  C  C370  1  0.559800  0.268900  0.924200  1.0
  C  C371  1  0.487500  0.711800  0.065700  1.0
  C  C372  1  0.512500  0.288200  0.934300  1.0
  C  C373  1  0.534300  0.741000  0.052500  1.0
  C  C374  1  0.465700  0.259000  0.947500  1.0
  C  C375  1  0.576200  0.723500  0.043000  1.0
  C  C376  1  0.423800  0.276500  0.957000  1.0
  C  C377  1  0.486800  0.666200  0.070000  1.0
  C  C378  1  0.513200  0.333800  0.930000  1.0
  C  C379  1  0.530000  0.645300  0.060600  1.0
  C  C380  1  0.470000  0.354700  0.939400  1.0
  C  C381  1  0.576200  0.675200  0.046100  1.0
  C  C382  1  0.423800  0.324800  0.953900  1.0
  C  C383  1  0.618900  0.654000  0.033300  1.0
  C  C384  1  0.381100  0.346000  0.966700  1.0
  C  C385  1  0.617300  0.609100  0.036300  1.0
  C  C386  1  0.382700  0.390900  0.963700  1.0
  C  C387  1  0.571300  0.577500  0.051500  1.0
  C  C388  1  0.428700  0.422500  0.948500  1.0
  C  C389  1  0.527400  0.595500  0.062400  1.0
  C  C390  1  0.472600  0.404500  0.937600  1.0
  C  C391  1  0.481400  0.562600  0.076100  1.0
  C  C392  1  0.518600  0.437400  0.923900  1.0
  C  C393  1  0.567100  0.528600  0.053500  1.0
  C  C394  1  0.432900  0.471400  0.946500  1.0
  C  C395  1  0.523800  0.499000  0.068000  1.0
  C  C396  1  0.476200  0.501000  0.932000  1.0
  C  C397  1  0.481300  0.516500  0.080800  1.0
  C  C398  1  0.518700  0.483500  0.919200  1.0
  C  C399  1  0.433500  0.484400  0.095900  1.0
  C  C400  1  0.566500  0.515600  0.904100  1.0
  C  C401  1  0.374100  0.490200  0.088100  1.0
  C  C402  1  0.625900  0.509800  0.911900  1.0
  C  C403  1  0.446000  0.448500  0.120600  1.0
  C  C404  1  0.554000  0.551500  0.879400  1.0
  C  C405  1  0.332000  0.462400  0.104500  1.0
  C  C406  1  0.668000  0.537600  0.895500  1.0
  C  C407  1  0.401100  0.421800  0.135100  1.0
  C  C408  1  0.598900  0.578200  0.864900  1.0
  C  C409  1  0.708000  0.609100  0.011500  1.0
  C  C410  1  0.292000  0.390900  0.988500  1.0
  C  C411  1  0.620500  0.674300  0.956800  1.0
  C  C412  1  0.379500  0.325700  0.043200  1.0
  C  C413  1  0.367200  0.816300  0.214300  1.0
  C  C414  1  0.632800  0.183700  0.785700  1.0
  C  C415  1  0.303100  0.735900  0.185800  1.0
  C  C416  1  0.696900  0.264100  0.814200  1.0
  C  C417  1  0.391100  0.808700  0.258100  1.0
  C  C418  1  0.608900  0.191300  0.741900  1.0
  C  C419  1  0.325100  0.725300  0.229200  1.0
  C  C420  1  0.674900  0.274700  0.770800  1.0
  C  C421  1  0.371600  0.761500  0.267300  1.0
  C  C422  1  0.628400  0.238500  0.732700  1.0
  C  C423  1  0.398800  0.751100  0.314200  1.0
  C  C424  1  0.601200  0.248900  0.685800  1.0
  C  C425  1  0.427200  0.788000  0.355100  1.0
  C  C426  1  0.572800  0.212000  0.644900  1.0
  C  C427  1  0.452900  0.777500  0.397300  1.0
  C  C428  1  0.547100  0.222500  0.602700  1.0
  C  C429  1  0.397100  0.704800  0.317300  1.0
  C  C430  1  0.602900  0.295200  0.682700  1.0
  C  C431  1  0.423900  0.692200  0.361700  1.0
  C  C432  1  0.576100  0.307800  0.638300  1.0
  C  C433  1  0.452200  0.730300  0.402400  1.0
  C  C434  1  0.547800  0.269700  0.597600  1.0
  C  C435  1  0.478800  0.718700  0.448200  1.0
  C  C436  1  0.521200  0.281300  0.551800  1.0
  C  C437  1  0.478400  0.674600  0.452000  1.0
  C  C438  1  0.521600  0.325400  0.548000  1.0
  C  C439  1  0.448800  0.633900  0.411200  1.0
  C  C440  1  0.551200  0.366100  0.588800  1.0
  C  C441  1  0.422900  0.643400  0.366700  1.0
  C  C442  1  0.577100  0.356600  0.633300  1.0
  C  C443  1  0.393400  0.603300  0.328100  1.0
  C  C444  1  0.606600  0.396700  0.671900  1.0
  C  C445  1  0.448400  0.585900  0.414700  1.0
  C  C446  1  0.551600  0.414100  0.585300  1.0
  C  C447  1  0.423400  0.549200  0.376600  1.0
  C  C448  1  0.576600  0.450800  0.623400  1.0
  C  C449  1  0.394200  0.557300  0.331900  1.0
  C  C450  1  0.605800  0.442700  0.668100  1.0
  C  C451  1  0.366500  0.517900  0.289400  1.0
  C  C452  1  0.633500  0.482100  0.710600  1.0
  C  C453  1  0.318000  0.518800  0.249100  1.0
  C  C454  1  0.682000  0.481200  0.750900  1.0
  C  C455  1  0.391500  0.479600  0.287700  1.0
  C  C456  1  0.608500  0.520400  0.712300  1.0
  C  C457  1  0.295500  0.481700  0.211600  1.0
  C  C458  1  0.704500  0.518300  0.788400  1.0
  C  C459  1  0.365800  0.444500  0.248000  1.0
  C  C460  1  0.634200  0.555500  0.752000  1.0
  C  C461  1  0.471300  0.666400  0.522500  1.0
  C  C462  1  0.528700  0.333600  0.477500  1.0
  C  C463  1  0.566900  0.771300  0.509600  1.0
  C  C464  1  0.433100  0.228700  0.490400  1.0
  C  C465  1  0.715200  0.159700  0.968700  1.0
  C  C466  1  0.284800  0.840300  0.031300  1.0
  C  C467  1  0.794800  0.233000  0.986100  1.0
  C  C468  1  0.205200  0.767000  0.013900  1.0
  C  C469  1  0.734200  0.154000  0.013700  1.0
  C  C470  1  0.265800  0.846000  0.986300  1.0
  C  C471  1  0.817300  0.231400  0.032100  1.0
  C  C472  1  0.182700  0.768600  0.967900  1.0
  C  C473  1  0.786200  0.192400  0.047400  1.0
  C  C474  1  0.213800  0.807600  0.952600  1.0
  C  C475  1  0.805200  0.192100  0.097700  1.0
  C  C476  1  0.194800  0.807900  0.902300  1.0
  C  C477  1  0.759200  0.169700  0.115900  1.0
  C  C478  1  0.240800  0.830300  0.884100  1.0
  C  C479  1  0.777700  0.171700  0.162400  1.0
  C  C480  1  0.222300  0.828300  0.837600  1.0
  C  C481  1  0.867500  0.215900  0.128300  1.0
  C  C482  1  0.132500  0.784100  0.871700  1.0
  C  C483  1  0.889800  0.216900  0.177600  1.0
  C  C484  1  0.110200  0.783100  0.822400  1.0
  C  C485  1  0.842200  0.194300  0.194400  1.0
  C  C486  1  0.157800  0.805700  0.805600  1.0
  C  C487  1  0.862400  0.195400  0.243500  1.0
  C  C488  1  0.137600  0.804600  0.756500  1.0
  C  C489  1  0.920100  0.220200  0.272700  1.0
  C  C490  1  0.079900  0.779800  0.727300  1.0
  C  C491  1  0.971100  0.244400  0.257700  1.0
  C  C492  1  0.028900  0.755600  0.742300  1.0
  C  C493  1  0.954900  0.242300  0.209600  1.0
  C  C494  1  0.045100  0.757700  0.790400  1.0
  C  C495  1  0.005900  0.266100  0.195900  1.0
  C  C496  1  0.994100  0.733900  0.804100  1.0
  C  C497  1  0.036300  0.268700  0.289200  1.0
  C  C498  1  0.963700  0.731300  0.710800  1.0
  C  C499  1  0.082300  0.290900  0.273900  1.0
  C  C500  1  0.917700  0.709100  0.726100  1.0
  C  C501  1  0.068100  0.289900  0.226400  1.0
  C  C502  1  0.931900  0.710100  0.773600  1.0
  C  C503  1  0.118700  0.312300  0.208900  1.0
  C  C504  1  0.881300  0.687700  0.791100  1.0
  C  C505  1  0.104100  0.328900  0.168000  1.0
  C  C506  1  0.895900  0.671100  0.832000  1.0
  C  C507  1  0.183200  0.315100  0.231100  1.0
  C  C508  1  0.816800  0.684900  0.768900  1.0
  C  C509  1  0.153300  0.350900  0.154700  1.0
  C  C510  1  0.846700  0.649100  0.845300  1.0
  C  C511  1  0.229100  0.335500  0.213900  1.0
  C  C512  1  0.770900  0.664500  0.786100  1.0
  C  C513  1  0.932700  0.178100  0.337500  1.0
  C  C514  1  0.067300  0.821900  0.662500  1.0
  C  C515  1  0.781900  0.204000  0.271400  1.0
  C  C516  1  0.218100  0.796000  0.728600  1.0
  C  C517  1  0.764200  0.134400  0.859900  1.0
  C  C518  1  0.235800  0.865600  0.140100  1.0
  C  C519  1  0.835300  0.213600  0.884900  1.0
  C  C520  1  0.164700  0.786400  0.115100  1.0
  C  C521  1  0.808000  0.117100  0.851500  1.0
  C  C522  1  0.192000  0.882900  0.148500  1.0
  C  C523  1  0.883900  0.199600  0.879700  1.0
  C  C524  1  0.116100  0.800400  0.120300  1.0
  C  C525  1  0.870700  0.150900  0.860800  1.0
  C  C526  1  0.129300  0.849100  0.139200  1.0
  C  C527  1  0.920600  0.130900  0.855900  1.0
  C  C528  1  0.079400  0.869100  0.144100  1.0
  C  C529  1  0.902800  0.090000  0.819400  1.0
  C  C530  1  0.097200  0.910000  0.180600  1.0
  C  C531  1  0.948500  0.073000  0.815100  1.0
  C  C532  1  0.051500  0.927000  0.184900  1.0
  C  C533  1  0.983800  0.151700  0.885600  1.0
  C  C534  1  0.016200  0.848300  0.114400  1.0
  C  C535  1  0.032900  0.133800  0.881900  1.0
  C  C536  1  0.967100  0.866200  0.118100  1.0
  C  C537  1  0.014500  0.094600  0.845100  1.0
  C  C538  1  0.985500  0.905400  0.154900  1.0
  C  C539  1  0.064800  0.077400  0.839900  1.0
  C  C540  1  0.935200  0.922600  0.160100  1.0
  C  C541  1  0.124700  0.095400  0.869300  1.0
  C  C542  1  0.875300  0.904600  0.130700  1.0
  C  C543  1  0.146700  0.136300  0.907400  1.0
  C  C544  1  0.853300  0.863700  0.092600  1.0
  C  C545  1  0.100200  0.156100  0.911900  1.0
  C  C546  1  0.899800  0.843900  0.088100  1.0
  C  C547  1  0.123400  0.198300  0.949600  1.0
  C  C548  1  0.876600  0.801700  0.050400  1.0
  C  C549  1  0.211900  0.160500  0.937400  1.0
  C  C550  1  0.788100  0.839500  0.062600  1.0
  C  C551  1  0.230000  0.195800  0.975200  1.0
  C  C552  1  0.770000  0.804200  0.024800  1.0
  C  C553  1  0.185800  0.217300  0.979800  1.0
  C  C554  1  0.814200  0.782700  0.020200  1.0
  C  C555  1  0.206300  0.257100  0.020800  1.0
  C  C556  1  0.793700  0.742900  0.979200  1.0
  C  C557  1  0.182400  0.295500  0.017000  1.0
  C  C558  1  0.817600  0.704500  0.983000  1.0
  C  C559  1  0.255000  0.259900  0.063400  1.0
  C  C560  1  0.745000  0.740100  0.936600  1.0
  C  C561  1  0.203500  0.332500  0.055400  1.0
  C  C562  1  0.796500  0.667500  0.944600  1.0
  C  C563  1  0.272600  0.298800  0.099300  1.0
  C  C564  1  0.727400  0.701200  0.900700  1.0
  C  C565  1  0.028300  0.989600  0.812300  1.0
  C  C566  1  0.971700  0.010400  0.187700  1.0
  C  C567  1  0.192300  0.047000  0.898500  1.0
  C  C568  1  0.807700  0.953000  0.101500  1.0
  C  C569  1  0.672500  0.699400  0.519700  1.0
  C  C570  1  0.327500  0.300600  0.480300  1.0
  C  C571  1  0.732400  0.765200  0.500300  1.0
  C  C572  1  0.267600  0.234800  0.499700  1.0
  C  C573  1  0.632700  0.679500  0.474600  1.0
  C  C574  1  0.367300  0.320500  0.525400  1.0
  C  C575  1  0.693800  0.748900  0.453600  1.0
  C  C576  1  0.306200  0.251100  0.546400  1.0
  C  C577  1  0.641600  0.704600  0.439500  1.0
  C  C578  1  0.358400  0.295400  0.560500  1.0
  C  C579  1  0.600000  0.685000  0.389500  1.0
  C  C580  1  0.400000  0.315000  0.610500  1.0
  C  C581  1  0.573100  0.634200  0.370800  1.0
  C  C582  1  0.426900  0.365800  0.629200  1.0
  C  C583  1  0.535800  0.617100  0.325600  1.0
  C  C584  1  0.464200  0.382900  0.674400  1.0
  C  C585  1  0.587900  0.716600  0.361200  1.0
  C  C586  1  0.412100  0.283400  0.638800  1.0
  C  C587  1  0.546600  0.699200  0.312900  1.0
  C  C588  1  0.453400  0.300800  0.687100  1.0
  C  C589  1  0.522000  0.648200  0.295300  1.0
  C  C590  1  0.478000  0.351800  0.704700  1.0
  C  C591  1  0.477500  0.628700  0.246300  1.0
  C  C592  1  0.522500  0.371300  0.753700  1.0
  C  C593  1  0.465500  0.659100  0.218400  1.0
  C  C594  1  0.534500  0.340900  0.781600  1.0
  C  C595  1  0.492400  0.712100  0.234300  1.0
  C  C596  1  0.507600  0.287900  0.765700  1.0
  C  C597  1  0.532800  0.732000  0.281600  1.0
  C  C598  1  0.467200  0.268000  0.718400  1.0
  C  C599  1  0.559900  0.784700  0.295700  1.0
  C  C600  1  0.440100  0.215300  0.704300  1.0
  C  C601  1  0.479100  0.743500  0.202800  1.0
  C  C602  1  0.520900  0.256500  0.797200  1.0
  C  C603  1  0.506200  0.792200  0.217600  1.0
  C  C604  1  0.493800  0.207800  0.782400  1.0
  C  C605  1  0.545700  0.814100  0.265300  1.0
  C  C606  1  0.454300  0.185900  0.734700  1.0
  C  C607  1  0.574900  0.868600  0.280600  1.0
  C  C608  1  0.425100  0.131400  0.719400  1.0
  C  C609  1  0.636200  0.892100  0.316400  1.0
  C  C610  1  0.363800  0.107900  0.683600  1.0
  C  C611  1  0.543300  0.899600  0.260200  1.0
  C  C612  1  0.456700  0.100400  0.739800  1.0
  C  C613  1  0.658900  0.942800  0.327800  1.0
  C  C614  1  0.341100  0.057200  0.672200  1.0
  C  C615  1  0.569400  0.949400  0.273800  1.0
  C  C616  1  0.430600  0.050600  0.726200  1.0
  C  C617  1  0.360200  0.615600  0.160200  1.0
  C  C618  1  0.639800  0.384400  0.839800  1.0
  C  C619  1  0.480300  0.556700  0.204700  1.0
  C  C620  1  0.519700  0.443300  0.795300  1.0
  C  C621  1  0.816700  0.679800  0.603600  1.0
  C  C622  1  0.183300  0.320200  0.396400  1.0
  C  C623  1  0.880800  0.739100  0.579800  1.0
  C  C624  1  0.119200  0.260900  0.420200  1.0
  C  C625  1  0.852500  0.650500  0.601500  1.0
  C  C626  1  0.147500  0.349500  0.398500  1.0
  C  C627  1  0.918200  0.711200  0.576100  1.0
  C  C628  1  0.081800  0.288800  0.423900  1.0
  C  C629  1  0.903200  0.665700  0.586500  1.0
  C  C630  1  0.096800  0.334300  0.413500  1.0
  C  C631  1  0.943400  0.634600  0.586600  1.0
  C  C632  1  0.056600  0.365400  0.413400  1.0
  C  C633  1  0.917700  0.582700  0.579800  1.0
  C  C634  1  0.082300  0.417300  0.420200  1.0
  C  C635  1  0.956300  0.555600  0.579600  1.0
  C  C636  1  0.043700  0.444400  0.420400  1.0
  C  C637  1  0.005700  0.655400  0.591400  1.0
  C  C638  1  0.994300  0.344600  0.408600  1.0
  C  C639  1  0.047600  0.628300  0.591500  1.0
  C  C640  1  0.952400  0.371700  0.408500  1.0
  C  C641  1  0.021600  0.576600  0.585800  1.0
  C  C642  1  0.978400  0.423400  0.414200  1.0
  C  C643  1  0.064400  0.548400  0.586800  1.0
  C  C644  1  0.935600  0.451600  0.413200  1.0
  C  C645  1  0.123700  0.568400  0.590100  1.0
  C  C646  1  0.876300  0.431600  0.409900  1.0
  C  C647  1  0.153500  0.622000  0.599100  1.0
  C  C648  1  0.846500  0.378000  0.400900  1.0
  C  C649  1  0.114100  0.650700  0.597700  1.0
  C  C650  1  0.885900  0.349300  0.402300  1.0
  C  C651  1  0.145100  0.703300  0.607700  1.0
  C  C652  1  0.854900  0.296700  0.392300  1.0
  C  C653  1  0.217700  0.644600  0.603900  1.0
  C  C654  1  0.782300  0.355400  0.396100  1.0
  C  C655  1  0.244700  0.694100  0.613700  1.0
  C  C656  1  0.755300  0.305900  0.386300  1.0
  C  C657  1  0.207300  0.724400  0.613900  1.0
  C  C658  1  0.792700  0.275600  0.386100  1.0
  C  C659  1  0.236900  0.778600  0.625400  1.0
  C  C660  1  0.763100  0.221400  0.374600  1.0
  C  C661  1  0.302000  0.801300  0.653700  1.0
  C  C662  1  0.698000  0.198700  0.346300  1.0
  C  C663  1  0.202900  0.809700  0.611500  1.0
  C  C664  1  0.797100  0.190300  0.388500  1.0
  C  C665  1  0.325900  0.851300  0.666300  1.0
  C  C666  1  0.674100  0.148700  0.333700  1.0
  C  C667  1  0.232600  0.859200  0.623500  1.0
  C  C668  1  0.767400  0.140800  0.376500  1.0
  C  C669  1  0.194000  0.532500  0.632900  1.0
  C  C670  1  0.806000  0.467500  0.367100  1.0
  C  C671  1  0.045100  0.471100  0.545800  1.0
  C  C672  1  0.954900  0.528900  0.454200  1.0
  C  C673  1  0.829500  0.787400  0.705900  1.0
  C  C674  1  0.170500  0.212600  0.294100  1.0
  C  C675  1  0.902800  0.831000  0.677900  1.0
  C  C676  1  0.097200  0.169000  0.322100  1.0
  C  C677  1  0.873400  0.806800  0.751100  1.0
  C  C678  1  0.126600  0.193200  0.248900  1.0
  C  C679  1  0.949900  0.852300  0.722000  1.0
  C  C680  1  0.050100  0.147700  0.278000  1.0
  C  C681  1  0.936000  0.838000  0.759900  1.0
  C  C682  1  0.064000  0.162000  0.240100  1.0
  C  C683  1  0.983900  0.859700  0.808400  1.0
  C  C684  1  0.016100  0.140300  0.191600  1.0
  C  C685  1  0.966600  0.856000  0.847300  1.0
  C  C686  1  0.033400  0.144000  0.152700  1.0
  C  C687  1  0.012200  0.872900  0.891100  1.0
  C  C688  1  0.987800  0.127100  0.108900  1.0
  C  C689  1  0.047500  0.879600  0.816900  1.0
  C  C690  1  0.952500  0.120400  0.183100  1.0
  C  C691  1  0.097300  0.898600  0.863300  1.0
  C  C692  1  0.902700  0.101400  0.136700  1.0
  C  C693  1  0.078000  0.894600  0.900800  1.0
  C  C694  1  0.922000  0.105400  0.099200  1.0
  C  C695  1  0.127700  0.913700  0.947800  1.0
  C  C696  1  0.872300  0.086300  0.052200  1.0
  C  C697  1  0.188500  0.931300  0.955300  1.0
  C  C698  1  0.811500  0.068700  0.044700  1.0
  C  C699  1  0.209800  0.939500  0.917300  1.0
  C  C700  1  0.790200  0.060500  0.082700  1.0
  C  C701  1  0.164400  0.920900  0.871600  1.0
  C  C702  1  0.835600  0.079100  0.128400  1.0
  C  C703  1  0.187300  0.928400  0.835000  1.0
  C  C704  1  0.812700  0.071600  0.165000  1.0
  C  C705  1  0.275600  0.961200  0.924600  1.0
  C  C706  1  0.724400  0.038800  0.075400  1.0
  C  C707  1  0.296900  0.964700  0.889000  1.0
  C  C708  1  0.703100  0.035300  0.111000  1.0
  C  C709  1  0.250300  0.949300  0.842600  1.0
  C  C710  1  0.749700  0.050700  0.157400  1.0
  C  C711  1  0.270600  0.950600  0.803000  1.0
  C  C712  1  0.729400  0.049400  0.197000  1.0
  C  C713  1  0.230800  0.953800  0.759800  1.0
  C  C714  1  0.769200  0.046200  0.240200  1.0
  C  C715  1  0.330600  0.948700  0.807300  1.0
  C  C716  1  0.669400  0.051300  0.192700  1.0
  C  C717  1  0.251000  0.953100  0.723400  1.0
  C  C718  1  0.749000  0.046900  0.276600  1.0
  C  C719  1  0.346800  0.949100  0.768700  1.0
  C  C720  1  0.653200  0.050900  0.231300  1.0
  C  C721  1  0.242600  0.995000  0.023000  1.0
  C  C722  1  0.757400  0.005000  0.977000  1.0
  C  C723  1  0.139400  0.887300  0.020000  1.0
  C  C724  1  0.860600  0.112700  0.980000  1.0
  C  C725  1  0.690400  0.804800  0.626500  1.0
  C  C726  1  0.309600  0.195200  0.373500  1.0
  C  C727  1  0.745400  0.857600  0.594500  1.0
  C  C728  1  0.254600  0.142400  0.405500  1.0
  C  C729  1  0.658100  0.834800  0.633000  1.0
  C  C730  1  0.341900  0.165200  0.367000  1.0
  C  C731  1  0.715300  0.890100  0.598700  1.0
  C  C732  1  0.284700  0.109900  0.401300  1.0
  C  C733  1  0.669900  0.879600  0.618700  1.0
  C  C734  1  0.330100  0.120400  0.381300  1.0
  C  C735  1  0.637200  0.914200  0.626300  1.0
  C  C736  1  0.362800  0.085800  0.373700  1.0
  C  C737  1  0.620200  0.918000  0.665100  1.0
  C  C738  1  0.379800  0.082000  0.334900  1.0
  C  C739  1  0.595200  0.952400  0.674300  1.0
  C  C740  1  0.404800  0.047600  0.325700  1.0
  C  C741  1  0.628500  0.946800  0.597800  1.0
  C  C742  1  0.371500  0.053200  0.402200  1.0
  C  C743  1  0.602500  0.983900  0.605900  1.0
  C  C744  1  0.397500  0.016100  0.394100  1.0
  C  C745  1  0.586900  0.986700  0.645500  1.0
  C  C746  1  0.413100  0.013300  0.354500  1.0
  C  C747  1  0.564100  0.026200  0.655300  1.0
  C  C748  1  0.435900  0.973800  0.344700  1.0
  C  C749  1  0.552800  0.055300  0.627200  1.0
  C  C750  1  0.447200  0.944700  0.372800  1.0
  C  C751  1  0.566500  0.054200  0.585200  1.0
  C  C752  1  0.433500  0.945800  0.414800  1.0
  C  C753  1  0.590500  0.017300  0.574600  1.0
  C  C754  1  0.409500  0.982700  0.425400  1.0
  C  C755  1  0.603300  0.017200  0.532800  1.0
  C  C756  1  0.396700  0.982800  0.467200  1.0
  C  C757  1  0.554400  0.086400  0.554700  1.0
  C  C758  1  0.445600  0.913600  0.445300  1.0
  C  C759  1  0.567400  0.085200  0.515800  1.0
  C  C760  1  0.432600  0.914800  0.484200  1.0
  C  C761  1  0.592800  0.049800  0.504700  1.0
  C  C762  1  0.407200  0.950200  0.495300  1.0
  C  C763  1  0.610100  0.048900  0.463200  1.0
  C  C764  1  0.389900  0.951100  0.536800  1.0
  C  C765  1  0.664000  0.037400  0.464300  1.0
  C  C766  1  0.336000  0.962600  0.535700  1.0
  C  C767  1  0.574000  0.060600  0.422400  1.0
  C  C768  1  0.426000  0.939400  0.577600  1.0
  C  C769  1  0.677300  0.033800  0.424700  1.0
  C  C770  1  0.322700  0.966200  0.575300  1.0
  C  C771  1  0.593100  0.059400  0.386400  1.0
  C  C772  1  0.406900  0.940600  0.613600  1.0
  C  C773  1  0.465500  0.080400  0.622700  1.0
  C  C774  1  0.534500  0.919600  0.377300  1.0
  C  C775  1  0.599900  0.056100  0.736000  1.0
  C  C776  1  0.400100  0.943900  0.264000  1.0
  S  S777  1  0.274400  0.034400  0.183600  1
  S  S778  1  0.725600  0.965600  0.816400  1
  S  S779  1  0.199400  0.965800  0.406000  1
  S  S780  1  0.800600  0.034200  0.594000  1
  N  N781  1  0.352000  0.768800  0.097100  1.0
  N  N782  1  0.648000  0.231200  0.902900  1.0
  N  N783  1  0.344600  0.428500  0.127900  1.0
  N  N784  1  0.655400  0.571500  0.872100  1.0
  N  N785  1  0.323900  0.781200  0.177800  1.0
  N  N786  1  0.676100  0.218800  0.822200  1.0
  N  N787  1  0.317900  0.444700  0.208800  1.0
  N  N788  1  0.682100  0.555300  0.791200  1.0
  N  N789  1  0.743100  0.197800  0.953100  1.0
  N  N790  1  0.256900  0.802200  0.046900  1.0
  N  N791  1  0.214800  0.354900  0.174900  1.0
  N  N792  1  0.785200  0.645100  0.825100  1.0
  N  N793  1  0.774500  0.183600  0.874500  1.0
  N  N794  1  0.225500  0.816400  0.125500  1.0
  N  N795  1  0.247100  0.334900  0.097000  1.0
  N  N796  1  0.752900  0.665100  0.903000  1.0
  N  N797  1  0.722600  0.743100  0.534000  1.0
  N  N798  1  0.277400  0.256900  0.466000  1.0
  N  N799  1  0.627200  0.972700  0.309500  1.0
  N  N800  1  0.372800  0.027300  0.690500  1.0
  N  N801  1  0.831400  0.725600  0.594400  1.0
  N  N802  1  0.168600  0.274400  0.405600  1.0
  N  N803  1  0.294200  0.881700  0.652800  1.0
  N  N804  1  0.705800  0.118300  0.347200  1.0
  N  N805  1  0.844500  0.798700  0.668700  1.0
  N  N806  1  0.155500  0.201300  0.331300  1.0
  N  N807  1  0.308200  0.952500  0.726000  1.0
  N  N808  1  0.691800  0.047500  0.274000  1.0
  N  N809  1  0.735000  0.814000  0.607400  1.0
  N  N810  1  0.265000  0.186000  0.392600  1.0
  N  N811  1  0.642200  0.044700  0.385300  1.0
  N  N812  1  0.357800  0.955300  0.614700  1.0
  O  O813  1  0.322800  0.086000  0.196100  1
  O  O814  1  0.677200  0.914000  0.803900  1
  O  O815  1  0.303700  0.995900  0.199600  1
  O  O816  1  0.696300  0.004100  0.800400  1
  O  O817  1  0.220800  0.019500  0.136100  1
  O  O818  1  0.779200  0.980500  0.863900  1
  O  O819  1  0.133500  0.944300  0.407600  1
  O  O820  1  0.866500  0.055700  0.592400  1
  O  O821  1  0.247100  0.007400  0.444500  1
  O  O822  1  0.752900  0.992600  0.555500  1
  O  O823  1  0.225800  0.927400  0.391500  1
  O  O824  1  0.774200  0.072600  0.608500  1
  O  O825  1  0.658300  0.588000  0.027200  1.0
  O  O826  1  0.341700  0.412000  0.972800  1.0
  O  O827  1  0.648700  0.681500  0.008200  1.0
  O  O828  1  0.351300  0.318500  0.991800  1.0
  O  O829  1  0.504100  0.662800  0.494300  1.0
  O  O830  1  0.495900  0.337200  0.505700  1.0
  O  O831  1  0.503100  0.756000  0.485500  1.0
  O  O832  1  0.496900  0.244000  0.514500  1.0
  O  O833  1  0.940500  0.225200  0.321300  1.0
  O  O834  1  0.059500  0.774800  0.678700  1.0
  O  O835  1  0.813600  0.172600  0.257600  1.0
  O  O836  1  0.186400  0.827400  0.742400  1.0
  O  O837  1  0.172600  0.077800  0.864200  1.0
  O  O838  1  0.827400  0.922200  0.135800  1.0
  O  O839  1  0.044000  0.038900  0.800000  1.0
  O  O840  1  0.956000  0.961100  0.200000  1.0
  O  O841  1  0.426200  0.641300  0.170000  1.0
  O  O842  1  0.573800  0.358700  0.830000  1.0
  O  O843  1  0.454300  0.576700  0.231900  1.0
  O  O844  1  0.545700  0.423300  0.768100  1.0
  O  O845  1  0.167000  0.541900  0.587000  1.0
  O  O846  1  0.833000  0.458100  0.413000  1.0
  O  O847  1  0.029800  0.496500  0.578700  1.0
  O  O848  1  0.970200  0.503500  0.421300  1.0
  O  O849  1  0.237600  0.949200  0.999500  1.0
  O  O850  1  0.762400  0.050800  0.000500  1.0
  O  O851  1  0.104300  0.906000  0.982600  1.0
  O  O852  1  0.895700  0.094000  0.017400  1.0
  O  O853  1  0.532100  0.093900  0.638200  1.0
  O  O854  1  0.467900  0.906100  0.361800  1.0
  O  O855  1  0.547900  0.026400  0.695300  1.0
  O  O856  1  0.452100  0.973600  0.304700  1.0
