
#######################################################################
#
#                 Cambridge Crystallographic Data Centre
#                                CCDC 
#
#######################################################################
#
# If this CIF has been generated from an entry in the Cambridge 
# Structural Database, then it will include bibliographic, chemical, 
# crystal, experimental, refinement or atomic coordinate data resulting 
# from the CCDC's data processing and validation procedures.
#
#######################################################################

data_YAJLIH
_chemical_formula_moiety         'C208 H160 N16 O16 Pd4 2+,C10 H6 O6 S2 2-'
_chemical_name_systematic        
"octakis(\m-4,4'-(9,10-dimethoxyphenanthrene-3,6-diyl)dipyridine)-tetra-palladium(ii) naphthalene-2,7-disulfonate unknown anion"
_symmetry_cell_setting           triclinic
_symmetry_space_group_name_H-M   'P -1'
_symmetry_Int_Tables_number      2
_space_group_name_Hall           '-P 1'
loop_
_symmetry_equiv_pos_site_id
_symmetry_equiv_pos_as_xyz
1 x,y,z
2 -x,-y,-z
_cell_length_a                   23.488(13)
_cell_length_b                   29.051(16)
_cell_length_c                   31.148(11)
_cell_angle_alpha                95.147(9)
_cell_angle_beta                 110.18(3)
_cell_angle_gamma                106.781(9)
_cell_volume                     18671
_exptl_crystal_colour            colorless
_exptl_crystal_description       block
_cell_formula_units_Z            2
loop_
_atom_site_label
_atom_site_type_symbol
_atom_site_fract_x
_atom_site_fract_y
_atom_site_fract_z
Pd1 Pd 0.28061(7) 0.39023(5) 0.15228(5)
Pd2 Pd -0.29005(7) 0.20621(6) -0.11233(5)
N1 N 0.3520(7) 0.7688(6) 0.0971(5)
C1 C 0.4119(9) 0.7980(7) 0.1022(6)
H1 H 0.4238 0.8323 0.1133
C2 C 0.3396(8) 0.7201(7) 0.0816(6)
H2 H 0.2994 0.6978 0.0789
C3 C 0.4560(8) 0.7820(6) 0.0927(6)
H3 H 0.4970 0.8046 0.0974
C4 C 0.3792(8) 0.7006(6) 0.0697(6)
H4 H 0.3655 0.6663 0.0572
C5 C 0.4402(8) 0.7311(6) 0.0758(6)
C6 C 0.4875(8) 0.7118(6) 0.0657(6)
C7 C 0.5343(8) 0.7410(6) 0.0525(5)
H5 H 0.5365 0.7738 0.0504
C8 C 0.5762(9) 0.7235(7) 0.0430(7)
H6 H 0.6072 0.7443 0.0337
C9 C 0.4868(8) 0.6662(6) 0.0700(6)
H7 H 0.4556 0.6468 0.0800
C10 C 0.5300(9) 0.6453(6) 0.0606(7)
C11 C 0.5762(11) 0.6752(7) 0.0461(9)
C12 C 0.6189(12) 0.6540(8) 0.0333(10)
C13 C 0.6173(13) 0.6091(8) 0.0363(11)
C14 C 0.5713(10) 0.5775(7) 0.0515(9)
C15 C 0.5274(9) 0.5955(6) 0.0624(8)
C16 C 0.4814(9) 0.5626(6) 0.0761(7)
H8 H 0.4499 0.5734 0.0821
C17 C 0.5671(10) 0.5286(6) 0.0535(8)
H9 H 0.5953 0.5158 0.0446
C18 C 0.5238(10) 0.4990(7) 0.0680(8)
H10 H 0.5226 0.4662 0.0695
C19 C 0.4813(9) 0.5165(6) 0.0808(8)
C20 C 0.4335(9) 0.4844(7) 0.0959(7)
C21 C 0.3741(8) 0.4902(7) 0.0881(6)
H11 H 0.3629 0.5140 0.0711
C22 C 0.4460(8) 0.4485(6) 0.1206(7)
H12 H 0.4856 0.4426 0.1272
C23 C 0.3320(8) 0.4624(7) 0.1045(7)
H13 H 0.2921 0.4675 0.0988
C24 C 0.4011(9) 0.4218(6) 0.1351(6)
H14 H 0.4102 0.3970 0.1514
N2 N 0.3446(7) 0.4285(6) 0.1279(5)
O1 O 0.6583(12) 0.5880(7) 0.0272(9)
O2 O 0.6487(11) 0.6815(7) 0.0082(9)
C25 C 0.7080(11) 0.6091(11) 0.0115(13)
H15 H 0.7294 0.5855 0.0080
H16 H 0.6892 0.6176 -0.0188
H17 H 0.7395 0.6390 0.0343
C26 C 0.6205(13) 0.6743(13) -0.0432(11)
H18 H 0.6499 0.6978 -0.0534
H19 H 0.6139 0.6407 -0.0574
H20 H 0.5790 0.6797 -0.0530
N3 N 0.3239(6) 0.7812(5) 0.1778(5)
C27 C 0.3672(8) 0.8163(6) 0.2143(5)
H21 H 0.3821 0.8486 0.2094
C28 C 0.3031(8) 0.7359(6) 0.1858(5)
H22 H 0.2717 0.7102 0.1604
C29 C 0.3911(8) 0.8087(6) 0.2581(5)
H23 H 0.4215 0.8355 0.2829
C30 C 0.3251(7) 0.7253(5) 0.2292(5)
H24 H 0.3085 0.6928 0.2332
C31 C 0.3716(8) 0.7615(6) 0.2673(5)
C32 C 0.3988(7) 0.7511(5) 0.3142(5)
C33 C 0.4272(5) 0.7880(5) 0.3551(5)
H25 H 0.4285 0.8207 0.3529
C34 C 0.4529(7) 0.7775(6) 0.3973(5)
H26 H 0.4719 0.8031 0.4245
C35 C 0.3971(7) 0.7048(5) 0.3173(5)
H27 H 0.3778 0.6799 0.2896
C36 C 0.4239(8) 0.6922(5) 0.3617(5)
C37 C 0.4522(8) 0.7303(5) 0.4024(5)
C38 C 0.4788(9) 0.7187(6) 0.4482(5)
C39 C 0.4784(9) 0.6746(6) 0.4520(5)
C40 C 0.4488(9) 0.6339(6) 0.4112(5)
C41 C 0.4229(8) 0.6434(5) 0.3667(5)
C42 C 0.3934(7) 0.6033(5) 0.3281(5)
H28 H 0.3721 0.6087 0.2981
C43 C 0.4484(8) 0.5859(5) 0.4147(5)
H29 H 0.4664 0.5791 0.4448
C44 C 0.4234(8) 0.5492(6) 0.3766(5)
H30 H 0.4256 0.5176 0.3802
C45 C 0.3942(9) 0.5573(5) 0.3319(5)
C46 C 0.3665(9) 0.5179(6) 0.2894(5)
C47 C 0.3180(8) 0.5188(6) 0.2491(5)
H31 H 0.3010 0.5448 0.2479
C48 C 0.3915(8) 0.4796(6) 0.2877(5)
H32 H 0.4262 0.4783 0.3142
C49 C 0.2955(8) 0.4817(6) 0.2116(6)
H33 H 0.2606 0.4820 0.1848
C50 C 0.3658(8) 0.4445(6) 0.2480(6)
H34 H 0.3825 0.4183 0.2478
N4 N 0.3179(7) 0.4447(5) 0.2088(5)
O3 O 0.5041(7) 0.6628(5) 0.4943(5)
C51 C 0.4713(14) 0.6664(12) 0.5225(8)
H35 H 0.4920 0.6575 0.5521
H36 H 0.4718 0.7002 0.5286
H37 H 0.4265 0.6440 0.5069
O4 O 0.5031(7) 0.7560(5) 0.4855(4)
C52 C 0.5669(11) 0.7713(9) 0.5096(9)
H38 H 0.5792 0.7985 0.5358
H39 H 0.5792 0.7441 0.5216
H40 H 0.5891 0.7827 0.4890
N5 N -0.2569(7) 0.1978(6) -0.0469(5)
C53 C -0.2848(9) 0.1597(6) -0.0313(6)
H41 H -0.3215 0.1342 -0.0539
C54 C -0.2052(8) 0.2330(6) -0.0139(5)
H42 H -0.1832 0.2606 -0.0234
C55 C -0.2658(8) 0.1540(6) 0.0137(5)
H43 H -0.2868 0.1251 0.0219
C56 C -0.1827(8) 0.2314(6) 0.0321(5)
H44 H -0.1456 0.2572 0.0538
C57 C -0.2138(8) 0.1924(6) 0.0474(5)
C58 C -0.1948(7) 0.1921(6) 0.0977(5)
C59 C -0.2408(7) 0.1697(5) 0.1159(5)
H45 H -0.2846 0.1532 0.0955
C60 C -0.2223(7) 0.1717(5) 0.1624(5)
H46 H -0.2542 0.1573 0.1741
C61 C -0.1325(7) 0.2159(6) 0.1283(5)
H47 H -0.1022 0.2328 0.1164
C62 C -0.1102(7) 0.2169(6) 0.1776(5)
C63 C -0.1578(8) 0.1943(6) 0.1944(5)
C64 C -0.1376(8) 0.1954(7) 0.2435(6)
C65 C -0.0799(8) 0.2202(7) 0.2727(5)
C66 C -0.0289(7) 0.2444(6) 0.2577(5)
C67 C -0.0451(7) 0.2423(6) 0.2096(5)
C68 C 0.0059(7) 0.2661(5) 0.1959(5)
H48 H -0.0041 0.2654 0.1635
C69 C 0.0363(8) 0.2687(7) 0.2892(5)
H49 H 0.0477 0.2693 0.3217
C70 C 0.0823(8) 0.2909(7) 0.2739(5)
H50 H 0.1252 0.3075 0.2959
C71 C 0.0681(7) 0.2899(6) 0.2264(5)
C72 C 0.1187(8) 0.3123(6) 0.2089(6)
C73 C 0.1041(8) 0.3289(7) 0.1680(5)
H51 H 0.0608 0.3252 0.1493
C74 C 0.1832(8) 0.3151(7) 0.2311(6)
H52 H 0.1954 0.3027 0.2588
C75 C 0.1533(8) 0.3509(6) 0.1547(6)
H53 H 0.1422 0.3650 0.1280
C76 C 0.2291(8) 0.3355(7) 0.2139(6)
H54 H 0.2719 0.3360 0.2295
N6 N 0.2148(7) 0.3549(5) 0.1749(5)
O5 O -0.0595(7) 0.2252(6) 0.3213(5)
O6 O -0.1864(7) 0.1726(5) 0.2576(4)
C77 C -0.0673(11) 0.1781(8) 0.3375(6)
H55 H -0.0519 0.1849 0.3717
H56 H -0.1130 0.1574 0.3239
H57 H -0.0421 0.1610 0.3276
C78 C -0.2181(13) 0.2040(11) 0.2714(10)
H58 H -0.2518 0.1845 0.2808
H59 H -0.1863 0.2306 0.2978
H60 H -0.2376 0.2181 0.2450
N7 N -0.2255(7) 0.1836(6) -0.1255(4)
C79 C -0.2358(8) 0.1344(7) -0.1401(6)
H61 H -0.2764 0.1111 -0.1446
C80 C -0.1647(8) 0.2136(6) -0.1151(6)
H62 H -0.1546 0.2475 -0.1031
C81 C -0.1920(8) 0.1171(6) -0.1485(6)
H63 H -0.2028 0.0831 -0.1603
C82 C -0.1161(8) 0.1996(6) -0.1203(6)
H64 H -0.0740 0.2229 -0.1110
C83 C -0.1293(7) 0.1509(6) -0.1392(6)
C84 C -0.0794(7) 0.1309(6) -0.1441(6)
C85 C -0.0972(8) 0.0900(5) -0.1806(5)
H65 H -0.1409 0.0748 -0.2018
C86 C -0.0515(8) 0.0730(6) -0.1849(6)
H66 H -0.0640 0.0454 -0.2092
C87 C -0.0162(6) 0.1517(6) -0.1144(5)
H67 H -0.0043 0.1792 -0.0902
C88 C 0.0329(7) 0.1338(6) -0.1181(6)
C89 C 0.0145(8) 0.0946(7) -0.1549(6)
C90 C 0.0648(9) 0.0774(7) -0.1601(7)
C91 C 0.1247(9) 0.0954(8) -0.1307(7)
C92 C 0.1467(8) 0.1363(7) -0.0926(7)
C93 C 0.1002(7) 0.1561(7) -0.0881(6)
C94 C 0.1234(7) 0.1983(6) -0.0504(6)
H68 H 0.0938 0.2132 -0.0468
C95 C 0.2119(8) 0.1605(7) -0.0626(7)
H69 H 0.2442 0.1514 -0.0693
C96 C 0.2300(9) 0.1958(8) -0.0248(7)
H70 H 0.2726 0.2062 -0.0015
C97 C 0.1858(8) 0.2173(7) -0.0202(6)
C98 C 0.2063(9) 0.2571(6) 0.0208(6)
C99 C 0.1824(8) 0.2955(6) 0.0170(6)
H71 H 0.1516 0.2962 -0.0120
C100 C 0.2550(8) 0.2599(6) 0.0634(6)
H72 H 0.2751 0.2357 0.0673
C101 C 0.2035(8) 0.3325(6) 0.0554(6)
H73 H 0.1857 0.3581 0.0520
C102 C 0.2726(9) 0.2988(7) 0.0993(6)
H74 H 0.3055 0.3003 0.1282
N8 N 0.2471(7) 0.3349(5) 0.0970(5)
O7 O 0.1726(8) 0.0778(7) -0.1358(7)
O8 O 0.0440(8) 0.0389(7) -0.2000(6)
C103 C 0.0283(13) -0.0104(8) -0.1877(9)
H75 H 0.0142 -0.0360 -0.2156
H76 H 0.0667 -0.0125 -0.1634
H77 H -0.0064 -0.0151 -0.1761
C104 C 0.1923(14) 0.0470(8) -0.1015(11)
H78 H 0.2255 0.0358 -0.1065
H79 H 0.2096 0.0666 -0.0696
H80 H 0.1547 0.0185 -0.1058
Pd1A Pd -0.28061(7) 0.60977(5) -0.15228(5)
Pd2A Pd 0.29005(7) 0.79379(6) 0.11233(5)
N1A N -0.3520(7) 0.2312(6) -0.0971(5)
C1A C -0.4119(9) 0.2020(7) -0.1022(6)
H1A H -0.4238 0.1677 -0.1133
C2A C -0.3396(8) 0.2799(7) -0.0816(6)
H2A H -0.2994 0.3022 -0.0789
C3A C -0.4560(8) 0.2180(6) -0.0927(6)
H3A H -0.4970 0.1954 -0.0974
C4A C -0.3792(8) 0.2994(6) -0.0697(6)
H4A H -0.3655 0.3337 -0.0572
C5A C -0.4402(8) 0.2689(6) -0.0758(6)
C6A C -0.4875(8) 0.2882(6) -0.0657(6)
C7A C -0.5343(8) 0.2590(6) -0.0525(5)
H5A H -0.5365 0.2262 -0.0504
C8A C -0.5762(9) 0.2765(7) -0.0430(7)
H6A H -0.6072 0.2557 -0.0337
C9A C -0.4868(8) 0.3338(6) -0.0700(6)
H7A H -0.4556 0.3532 -0.0800
C10A C -0.5300(9) 0.3547(6) -0.0606(7)
C11A C -0.5762(11) 0.3248(7) -0.0461(9)
C12A C -0.6189(12) 0.3460(8) -0.0333(10)
C13A C -0.6173(13) 0.3909(8) -0.0363(11)
C14A C -0.5713(10) 0.4225(7) -0.0515(9)
C15A C -0.5274(9) 0.4045(6) -0.0624(8)
C16A C -0.4814(9) 0.4374(6) -0.0761(7)
H8A H -0.4499 0.4266 -0.0821
C17A C -0.5671(10) 0.4714(6) -0.0535(8)
H9A H -0.5953 0.4842 -0.0446
C18A C -0.5238(10) 0.5010(7) -0.0680(8)
H10A H -0.5226 0.5338 -0.0695
C19A C -0.4813(9) 0.4835(6) -0.0808(8)
C20A C -0.4335(9) 0.5156(7) -0.0959(7)
C21A C -0.3741(8) 0.5098(7) -0.0881(6)
H11A H -0.3629 0.4860 -0.0711
C22A C -0.4460(8) 0.5515(6) -0.1206(7)
H12A H -0.4856 0.5574 -0.1272
C23A C -0.3320(8) 0.5376(7) -0.1045(7)
H13A H -0.2921 0.5325 -0.0988
C24A C -0.4011(9) 0.5782(6) -0.1351(6)
H14A H -0.4102 0.6030 -0.1514
N2A N -0.3446(7) 0.5715(6) -0.1279(5)
O1A O -0.6583(12) 0.4120(7) -0.0272(9)
O2A O -0.6487(11) 0.3185(7) -0.0082(9)
C25A C -0.7080(11) 0.3909(11) -0.0115(13)
H15A H -0.7294 0.4145 -0.0080
H16A H -0.6892 0.3824 0.0188
H17A H -0.7395 0.3610 -0.0343
C26A C -0.6205(13) 0.3257(13) 0.0432(11)
H18A H -0.6499 0.3022 0.0534
H19A H -0.6139 0.3593 0.0574
H20A H -0.5790 0.3203 0.0530
N3A N -0.3239(6) 0.2188(5) -0.1778(5)
C27A C -0.3672(8) 0.1837(6) -0.2143(5)
H21A H -0.3821 0.1514 -0.2094
C28A C -0.3031(8) 0.2641(6) -0.1858(5)
H22A H -0.2717 0.2898 -0.1604
C29A C -0.3911(8) 0.1913(6) -0.2581(5)
H23A H -0.4215 0.1645 -0.2829
C30A C -0.3251(7) 0.2747(5) -0.2292(5)
H24A H -0.3085 0.3072 -0.2332
C31A C -0.3716(8) 0.2385(6) -0.2673(5)
C32A C -0.3988(7) 0.2489(5) -0.3142(5)
C33A C -0.4272(5) 0.2120(5) -0.3551(5)
H25A H -0.4285 0.1793 -0.3529
C34A C -0.4529(7) 0.2225(6) -0.3973(5)
H26A H -0.4719 0.1969 -0.4245
C35A C -0.3971(7) 0.2952(5) -0.3173(5)
H27A H -0.3778 0.3201 -0.2896
C36A C -0.4239(8) 0.3078(5) -0.3617(5)
C37A C -0.4522(8) 0.2697(5) -0.4024(5)
C38A C -0.4788(9) 0.2813(6) -0.4482(5)
C39A C -0.4784(9) 0.3254(6) -0.4520(5)
C40A C -0.4488(9) 0.3661(6) -0.4112(5)
C41A C -0.4229(8) 0.3566(5) -0.3667(5)
C42A C -0.3934(7) 0.3967(5) -0.3281(5)
H28A H -0.3721 0.3913 -0.2981
C43A C -0.4484(8) 0.4141(5) -0.4147(5)
H29A H -0.4664 0.4209 -0.4448
C44A C -0.4234(8) 0.4508(6) -0.3766(5)
H30A H -0.4256 0.4824 -0.3802
C45A C -0.3942(9) 0.4427(5) -0.3319(5)
C46A C -0.3665(9) 0.4821(6) -0.2894(5)
C47A C -0.3180(8) 0.4812(6) -0.2491(5)
H31A H -0.3010 0.4552 -0.2479
C48A C -0.3915(8) 0.5204(6) -0.2877(5)
H32A H -0.4262 0.5217 -0.3142
C49A C -0.2955(8) 0.5183(6) -0.2116(6)
H33A H -0.2606 0.5180 -0.1848
C50A C -0.3658(8) 0.5555(6) -0.2480(6)
H34A H -0.3825 0.5817 -0.2478
N4A N -0.3179(7) 0.5553(5) -0.2088(5)
O3A O -0.5041(7) 0.3372(5) -0.4943(5)
C51A C -0.4713(14) 0.3336(12) -0.5225(8)
H35A H -0.4920 0.3425 -0.5521
H36A H -0.4718 0.2998 -0.5286
H37A H -0.4265 0.3560 -0.5069
O4A O -0.5031(7) 0.2440(5) -0.4855(4)
C52A C -0.5669(11) 0.2287(9) -0.5096(9)
H38A H -0.5792 0.2015 -0.5358
H39A H -0.5792 0.2559 -0.5216
H40A H -0.5891 0.2173 -0.4890
N5A N 0.2569(7) 0.8022(6) 0.0469(5)
C53A C 0.2848(9) 0.8403(6) 0.0313(6)
H41A H 0.3215 0.8658 0.0539
C54A C 0.2052(8) 0.7670(6) 0.0139(5)
H42A H 0.1832 0.7394 0.0234
C55A C 0.2658(8) 0.8460(6) -0.0137(5)
H43A H 0.2868 0.8749 -0.0219
C56A C 0.1827(8) 0.7686(6) -0.0321(5)
H44A H 0.1456 0.7428 -0.0538
C57A C 0.2138(8) 0.8076(6) -0.0474(5)
C58A C 0.1948(7) 0.8079(6) -0.0977(5)
C59A C 0.2408(7) 0.8303(5) -0.1159(5)
H45A H 0.2846 0.8468 -0.0955
C60A C 0.2223(7) 0.8283(5) -0.1624(5)
H46A H 0.2542 0.8427 -0.1741
C61A C 0.1325(7) 0.7841(6) -0.1283(5)
H47A H 0.1022 0.7672 -0.1164
C62A C 0.1102(7) 0.7831(6) -0.1776(5)
C63A C 0.1578(8) 0.8057(6) -0.1944(5)
C64A C 0.1376(8) 0.8046(7) -0.2435(6)
C65A C 0.0799(8) 0.7798(7) -0.2727(5)
C66A C 0.0289(7) 0.7556(6) -0.2577(5)
C67A C 0.0451(7) 0.7577(6) -0.2096(5)
C68A C -0.0059(7) 0.7339(5) -0.1959(5)
H48A H 0.0041 0.7346 -0.1635
C69A C -0.0363(8) 0.7313(7) -0.2892(5)
H49A H -0.0477 0.7307 -0.3217
C70A C -0.0823(8) 0.7091(7) -0.2739(5)
H50A H -0.1252 0.6925 -0.2959
C71A C -0.0681(7) 0.7101(6) -0.2264(5)
C72A C -0.1187(8) 0.6877(6) -0.2089(6)
C73A C -0.1041(8) 0.6711(7) -0.1680(5)
H51A H -0.0608 0.6748 -0.1493
C74A C -0.1832(8) 0.6849(7) -0.2311(6)
H52A H -0.1954 0.6973 -0.2588
C75A C -0.1533(8) 0.6491(6) -0.1547(6)
H53A H -0.1422 0.6350 -0.1280
C76A C -0.2291(8) 0.6645(7) -0.2139(6)
H54A H -0.2719 0.6640 -0.2295
N6A N -0.2148(7) 0.6451(5) -0.1749(5)
O5A O 0.0595(7) 0.7748(6) -0.3213(5)
O6A O 0.1864(7) 0.8274(5) -0.2576(4)
C77A C 0.0673(11) 0.8219(8) -0.3375(6)
H55A H 0.0519 0.8151 -0.3717
H56A H 0.1130 0.8426 -0.3239
H57A H 0.0421 0.8390 -0.3276
C78A C 0.2181(13) 0.7960(11) -0.2714(10)
H58A H 0.2518 0.8155 -0.2808
H59A H 0.1863 0.7694 -0.2978
H60A H 0.2376 0.7819 -0.2450
N7A N 0.2255(7) 0.8164(6) 0.1255(4)
C79A C 0.2358(8) 0.8656(7) 0.1401(6)
H61A H 0.2764 0.8889 0.1446
C80A C 0.1647(8) 0.7864(6) 0.1151(6)
H62A H 0.1546 0.7525 0.1031
C81A C 0.1920(8) 0.8829(6) 0.1485(6)
H63A H 0.2028 0.9169 0.1603
C82A C 0.1161(8) 0.8004(6) 0.1203(6)
H64A H 0.0740 0.7771 0.1110
C83A C 0.1293(7) 0.8491(6) 0.1392(6)
C84A C 0.0794(7) 0.8691(6) 0.1441(6)
C85A C 0.0972(8) 0.9100(5) 0.1806(5)
H65A H 0.1409 0.9252 0.2018
C86A C 0.0515(8) 0.9270(6) 0.1849(6)
H66A H 0.0640 0.9546 0.2092
C87A C 0.0162(6) 0.8483(6) 0.1144(5)
H67A H 0.0043 0.8208 0.0902
C88A C -0.0329(7) 0.8662(6) 0.1181(6)
C89A C -0.0145(8) 0.9054(7) 0.1549(6)
C90A C -0.0648(9) 0.9226(7) 0.1601(7)
C91A C -0.1247(9) 0.9046(8) 0.1307(7)
C92A C -0.1467(8) 0.8637(7) 0.0926(7)
C93A C -0.1002(7) 0.8439(7) 0.0881(6)
C94A C -0.1234(7) 0.8017(6) 0.0504(6)
H68A H -0.0938 0.7868 0.0468
C95A C -0.2119(8) 0.8395(7) 0.0626(7)
H69A H -0.2442 0.8486 0.0693
C96A C -0.2300(9) 0.8042(8) 0.0248(7)
H70A H -0.2726 0.7938 0.0015
C97A C -0.1858(8) 0.7827(7) 0.0202(6)
C98A C -0.2063(9) 0.7429(6) -0.0208(6)
C99A C -0.1824(8) 0.7045(6) -0.0170(6)
H71A H -0.1516 0.7038 0.0120
C100A C -0.2550(8) 0.7401(6) -0.0634(6)
H72A H -0.2751 0.7643 -0.0673
C101A C -0.2035(8) 0.6675(6) -0.0554(6)
H73A H -0.1857 0.6419 -0.0520
C102A C -0.2726(9) 0.7012(7) -0.0993(6)
H74A H -0.3055 0.6997 -0.1282
N8A N -0.2471(7) 0.6651(5) -0.0970(5)
O7A O -0.1726(8) 0.9222(7) 0.1358(7)
O8A O -0.0440(8) 0.9611(7) 0.2000(6)
C103A C -0.0283(13) 1.0104(8) 0.1877(9)
H75A H -0.0142 1.0360 0.2156
H76A H -0.0667 1.0125 0.1634
H77A H 0.0064 1.0151 0.1761
C104A C -0.1923(14) 0.9530(8) 0.1015(11)
H78A H -0.2255 0.9642 0.1065
H79A H -0.2096 0.9334 0.0696
H80A H -0.1547 0.9815 0.1058
Pd3 Pd 1.33325(8) 0.95435(6) 0.67137(5)
Pd4 Pd 0.78262(8) 0.76975(6) 0.60158(5)
N9 N 0.7226(7) 0.7431(6) 0.5340(5)
C105 C 0.6725(9) 0.6994(7) 0.5197(6)
H81 H 0.6654 0.6821 0.5429
C106 C 0.7324(8) 0.7652(7) 0.5003(6)
H82 H 0.7688 0.7944 0.5092
C107 C 0.6327(8) 0.6795(7) 0.4746(6)
H83 H 0.5988 0.6488 0.4666
C108 C 0.6938(8) 0.7489(6) 0.4536(6)
H84 H 0.7021 0.7672 0.4314
C109 C 0.6416(9) 0.7046(6) 0.4395(5)
C110 C 0.6000(7) 0.6850(6) 0.3895(5)
C111 C 0.5731(6) 0.6342(6) 0.3708(5)
H85 H 0.5816 0.6118 0.3906
C112 C 0.5358(6) 0.6171(6) 0.3256(5)
H86 H 0.5180 0.5825 0.3138
C113 C 0.5879(8) 0.7166(6) 0.3612(5)
H87 H 0.6072 0.7510 0.3736
C114 C 0.5466(8) 0.6992(5) 0.3129(5)
C115 C 0.5220(8) 0.6482(6) 0.2953(5)
C116 C 0.4775(9) 0.6287(6) 0.2463(5)
C117 C 0.4655(8) 0.6591(6) 0.2184(5)
C118 C 0.4924(8) 0.7121(5) 0.2343(5)
C119 C 0.5328(8) 0.7320(5) 0.2816(5)
C120 C 0.5599(8) 0.7847(5) 0.2957(5)
H88 H 0.5885 0.7993 0.3273
C121 C 0.4791(8) 0.7435(6) 0.2028(5)
H89 H 0.4508 0.7298 0.1710
C122 C 0.5062(8) 0.7922(6) 0.2176(5)
H90 H 0.4989 0.8127 0.1957
C123 C 0.5457(8) 0.8141(5) 0.2653(5)
C124 C 0.5749(8) 0.8686(5) 0.2806(6)
C125 C 0.6362(8) 0.8921(6) 0.3164(6)
H91 H 0.6613 0.8737 0.3322
C126 C 0.5433(8) 0.8996(6) 0.2602(6)
H92 H 0.5018 0.8854 0.2357
C127 C 0.6589(9) 0.9428(6) 0.3278(7)
H93 H 0.7013 0.9582 0.3511
C128 C 0.5694(8) 0.9494(6) 0.2738(6)
H94 H 0.5461 0.9687 0.2577
N10 N 0.6272(8) 0.9727(5) 0.3095(6)
O9 O 0.4262(7) 0.6413(5) 0.1700(4)
O10 O 0.4543(7) 0.5767(5) 0.2319(4)
C129 C 0.3602(10) 0.6156(9) 0.1602(7)
H95 H 0.3362 0.6046 0.1263
H96 H 0.3566 0.5871 0.1750
H97 H 0.3421 0.6376 0.1727
C130 C 0.4803(12) 0.5567(8) 0.2047(8)
H98 H 0.4605 0.5208 0.1971
H99 H 0.4720 0.5692 0.1758
H100 H 0.5270 0.5660 0.2220
N11 N 0.8314(8) 0.7256(6) 0.5944(5)
C131 C 0.8167(9) 0.6798(7) 0.6036(7)
H101 H 0.7806 0.6678 0.6119
C132 C 0.8808(9) 0.7391(7) 0.5798(6)
H102 H 0.8904 0.7703 0.5715
C133 C 0.8525(9) 0.6505(6) 0.6015(7)
H103 H 0.8427 0.6196 0.6103
C134 C 0.9182(9) 0.7112(7) 0.5761(7)
H104 H 0.9532 0.7233 0.5667
C135 C 0.9032(8) 0.6657(6) 0.5865(7)
C136 C 0.9434(8) 0.6346(6) 0.5866(7)
C137 C 0.9177(9) 0.5827(6) 0.5798(5)
H105 H 0.8740 0.5670 0.5754
C138 C 0.9563(9) 0.5556(7) 0.5796(6)
H106 H 0.9384 0.5208 0.5750
C139 C 1.0057(7) 0.6554(6) 0.5914(7)
H107 H 1.0223 0.6901 0.5950
C140 C 1.0476(8) 0.6283(6) 0.5915(8)
C141 C 1.0216(9) 0.5766(6) 0.5858(9)
C142 C 1.0644(10) 0.5484(7) 0.5868(12)
C143 C 1.1237(10) 0.5684(7) 0.5901(11)
C144 C 1.1535(10) 0.6220(6) 0.5991(10)
C145 C 1.1141(8) 0.6507(6) 0.5977(8)
C146 C 1.1451(7) 0.7033(6) 0.6077(7)
H108 H 1.1208 0.7238 0.6101
C147 C 1.2177(10) 0.6446(7) 0.6039(10)
H109 H 1.2423 0.6248 0.6003
C148 C 1.2447(10) 0.6941(7) 0.6137(9)
H110 H 1.2895 0.7088 0.6205
C149 C 1.2073(9) 0.7244(6) 0.6139(8)
C150 C 1.2369(9) 0.7786(6) 0.6254(7)
C151 C 1.3020(9) 0.8013(7) 0.6537(7)
H111 H 1.3291 0.7824 0.6641
C152 C 1.2029(9) 0.8097(6) 0.6115(7)
H112 H 1.1579 0.7962 0.5931
C153 C 1.3259(9) 0.8513(7) 0.6663(7)
H113 H 1.3700 0.8658 0.6868
C154 C 1.2326(9) 0.8592(7) 0.6235(6)
H114 H 1.2083 0.8792 0.6103
N12 N 1.2942(9) 0.8817(5) 0.6528(6)
O11 O 1.1670(11) 0.5419(7) 0.5870(9)
O12 O 1.0298(11) 0.4965(6) 0.5787(9)
C155 C 1.194(2) 0.5325(16) 0.6329(15)
H115 H 1.2239 0.5147 0.6331
H116 H 1.2177 0.5638 0.6557
H117 H 1.1595 0.5126 0.6410
C156 C 1.0451(11) 0.4711(9) 0.5458(11)
H118 H 1.0219 0.4357 0.5400
H119 H 1.0323 0.4826 0.5165
H120 H 1.0917 0.4774 0.5581
N13 N 0.8445(8) 0.7987(6) 0.6687(5)
C157 C 0.8295(9) 0.7874(7) 0.7059(6)
H121 H 0.7877 0.7656 0.7004
C158 C 0.9028(9) 0.8310(7) 0.6779(5)
H122 H 0.9125 0.8401 0.6520
C159 C 0.8734(8) 0.8068(7) 0.7511(5)
H123 H 0.8614 0.7990 0.7764
C160 C 0.9499(7) 0.8523(7) 0.7220(5)
H124 H 0.9903 0.8758 0.7264
C161 C 0.9360(8) 0.8380(6) 0.7599(5)
C162 C 0.9839(7) 0.8597(6) 0.8084(5)
C163 C 0.9666(8) 0.8560(5) 0.8473(5)
H125 H 0.9225 0.8414 0.8426
C164 C 1.0122(8) 0.8729(6) 0.8911(5)
H126 H 0.9990 0.8700 0.9167
C165 C 1.0475(6) 0.8796(6) 0.8169(4)
H127 H 1.0599 0.8810 0.7909
C166 C 1.0973(7) 0.8986(6) 0.8633(5)
C167 C 1.0780(8) 0.8946(8) 0.9008(5)
C168 C 1.1277(8) 0.9137(8) 0.9478(5)
C169 C 1.1885(8) 0.9313(8) 0.9553(5)
C170 C 1.2098(8) 0.9395(7) 0.9173(5)
C171 C 1.1644(7) 0.9209(7) 0.8716(5)
C172 C 1.1873(7) 0.9284(6) 0.8350(5)
H128 H 1.1565 0.9183 0.8036
C173 C 1.2756(8) 0.9612(8) 0.9246(6)
H129 H 1.3064 0.9740 0.9559
C174 C 1.2969(8) 0.9647(7) 0.8890(5)
H130 H 1.3417 0.9772 0.8952
C175 C 1.2503(8) 0.9493(7) 0.8426(5)
C176 C 1.2706(9) 0.9506(7) 0.8030(6)
C177 C 1.2308(8) 0.9538(7) 0.7598(6)
H131 H 1.1898 0.9565 0.7552
C178 C 1.3306(9) 0.9487(8) 0.8073(6)
H132 H 1.3603 0.9472 0.8365
C179 C 1.2510(9) 0.9531(7) 0.7234(6)
H133 H 1.2211 0.9529 0.6936
C180 C 1.3468(9) 0.9491(8) 0.7687(6)
H134 H 1.3877 0.9468 0.7722
N14 N 1.3082(8) 0.9525(6) 0.7260(5)
O13 O 1.2376(7) 0.9492(6) 0.9995(4)
O14 O 1.1043(8) 0.9060(7) 0.9826(5)
C181 C 1.2426(15) 0.9950(10) 1.0230(9)
H135 H 1.2783 1.0048 1.0538
H136 H 1.2507 1.0199 1.0046
H137 H 1.2022 0.9921 1.0270
C182 C 1.1394(11) 0.8873(10) 1.0200(8)
H138 H 1.1186 0.8834 1.0424
H139 H 1.1400 0.8554 1.0074
H140 H 1.1838 0.9104 1.0357
N15 N 0.7350(7) 0.8140(6) 0.6074(5)
C183 C 0.6904(9) 0.8048(7) 0.6265(6)
H141 H 0.6808 0.7745 0.6363
C184 C 0.7454(8) 0.8576(7) 0.5945(6)
H142 H 0.7767 0.8665 0.5811
C185 C 0.6581(9) 0.8348(6) 0.6330(6)
H143 H 0.6278 0.8255 0.6472
C186 C 0.7153(8) 0.8901(6) 0.5987(6)
H144 H 0.7253 0.9200 0.5882
C187 C 0.6699(8) 0.8796(6) 0.6187(6)
C188 C 0.6372(7) 0.9142(6) 0.6263(6)
C189 C 0.6202(5) 0.9180(5) 0.6651(5)
H145 H 0.6264 0.8958 0.6855
C190 C 0.5952(7) 0.9524(6) 0.6743(5)
H146 H 0.5831 0.9535 0.7004
C191 C 0.6285(7) 0.9468(6) 0.5978(5)
H147 H 0.6403 0.9447 0.5716
C192 C 0.6025(8) 0.9839(5) 0.6059(5)
C193 C 0.5869(8) 0.9867(6) 0.6455(5)
C194 C 0.5641(9) 1.0262(6) 0.6553(5)
C195 C 0.5528(8) 1.0553(6) 0.6272(6)
C196 C 0.5665(8) 1.0542(6) 0.5852(6)
C197 C 0.5905(8) 1.0173(6) 0.5746(5)
C198 C 0.6033(7) 1.0172(6) 0.5328(5)
H148 H 0.6199 0.9933 0.5243
C199 C 0.5544(8) 1.0864(6) 0.5547(6)
H149 H 0.5364 1.1100 0.5619
C200 C 0.5674(8) 1.0852(6) 0.5158(6)
H150 H 0.5595 1.1078 0.4963
C201 C 0.5928(8) 1.0498(6) 0.5047(5)
C202 C 0.6101(9) 1.0489(6) 0.4632(6)
C203 C 0.6640(8) 1.0374(7) 0.4643(6)
H151 H 0.6916 1.0320 0.4924
C204 C 0.5740(8) 1.0606(7) 0.4224(6)
H152 H 0.5371 1.0691 0.4201
C205 C 0.6773(9) 1.0338(7) 0.4247(6)
H153 H 0.7122 1.0233 0.4251
C206 C 0.5931(9) 1.0594(7) 0.3864(6)
H154 H 0.5703 1.0698 0.3597
N16 N 0.6422(8) 1.0447(6) 0.3853(5)
O15 O 0.5321(7) 1.0939(4) 0.6382(4)
O16 O 0.5479(6) 1.0264(5) 0.6953(5)
C207 C 0.4655(8) 1.0804(6) 0.6227(6)
H155 H 0.4541 1.1087 0.6315
H156 H 0.4461 1.0692 0.5886
H157 H 0.4492 1.0537 0.6372
C208 C 0.5999(10) 1.0561(7) 0.7360(6)
H158 H 0.5866 1.0551 0.7625
H159 H 0.6361 1.0439 0.7420
H160 H 0.6132 1.0900 0.7317
Pd3A Pd 0.66675(8) 1.04565(6) 0.32863(5)
Pd4A Pd 1.21738(8) 1.23025(6) 0.39842(5)
N9A N 1.2774(7) 1.2569(6) 0.4660(5)
C105A C 1.3275(9) 1.3006(7) 0.4803(6)
H81A H 1.3346 1.3179 0.4571
C106A C 1.2676(8) 1.2348(7) 0.4997(6)
H82A H 1.2312 1.2056 0.4908
C107A C 1.3673(8) 1.3205(7) 0.5254(6)
H83A H 1.4012 1.3512 0.5334
C108A C 1.3062(8) 1.2511(6) 0.5464(6)
H84A H 1.2979 1.2328 0.5686
C109A C 1.3584(9) 1.2954(6) 0.5605(5)
C110A C 1.4000(7) 1.3150(6) 0.6105(5)
C111A C 1.4269(6) 1.3658(6) 0.6292(5)
H85A H 1.4184 1.3882 0.6094
C112A C 1.4642(6) 1.3829(6) 0.6744(5)
H86A H 1.4820 1.4175 0.6862
C113A C 1.4121(8) 1.2834(6) 0.6388(5)
H87A H 1.3928 1.2490 0.6264
C114A C 1.4534(8) 1.3008(5) 0.6871(5)
C115A C 1.4780(8) 1.3518(6) 0.7047(5)
C116A C 1.5225(9) 1.3713(6) 0.7537(5)
C117A C 1.5345(8) 1.3409(6) 0.7816(5)
C118A C 1.5076(8) 1.2879(5) 0.7657(5)
C119A C 1.4672(8) 1.2680(5) 0.7184(5)
C120A C 1.4401(8) 1.2153(5) 0.7043(5)
H88A H 1.4115 1.2007 0.6727
C121A C 1.5209(8) 1.2565(6) 0.7972(5)
H89A H 1.5492 1.2702 0.8290
C122A C 1.4938(8) 1.2078(6) 0.7824(5)
H90A H 1.5011 1.1873 0.8043
C123A C 1.4543(8) 1.1859(5) 0.7347(5)
C124A C 1.4251(8) 1.1314(5) 0.7194(6)
C125A C 1.3638(8) 1.1079(6) 0.6836(6)
H91A H 1.3387 1.1263 0.6678
C126A C 1.4567(8) 1.1004(6) 0.7398(6)
H92A H 1.4982 1.1146 0.7643
C127A C 1.3411(9) 1.0572(6) 0.6722(7)
H93A H 1.2987 1.0418 0.6489
C128A C 1.4306(8) 1.0506(6) 0.7262(6)
H94A H 1.4539 1.0313 0.7423
N10A N 1.3728(8) 1.0273(5) 0.6905(6)
O9A O 1.5738(7) 1.3587(5) 0.8300(4)
O10A O 1.5457(7) 1.4233(5) 0.7681(4)
C129A C 1.6398(10) 1.3844(9) 0.8398(7)
H95A H 1.6638 1.3954 0.8737
H96A H 1.6434 1.4129 0.8250
H97A H 1.6579 1.3624 0.8273
C130A C 1.5197(12) 1.4433(8) 0.7953(8)
H98A H 1.5395 1.4792 0.8029
H99A H 1.5280 1.4308 0.8242
H100A H 1.4730 1.4340 0.7780
N11A N 1.1686(8) 1.2744(6) 0.4056(5)
C131A C 1.1833(9) 1.3202(7) 0.3964(7)
H101A H 1.2194 1.3322 0.3881
C132A C 1.1192(9) 1.2609(7) 0.4202(6)
H102A H 1.1096 1.2297 0.4285
C133A C 1.1475(9) 1.3495(6) 0.3985(7)
H103A H 1.1573 1.3804 0.3897
C134A C 1.0818(9) 1.2888(7) 0.4239(7)
H104A H 1.0468 1.2767 0.4333
C135A C 1.0968(8) 1.3343(6) 0.4135(7)
C136A C 1.0566(8) 1.3654(6) 0.4134(7)
C137A C 1.0823(9) 1.4173(6) 0.4202(5)
H105A H 1.1260 1.4330 0.4246
C138A C 1.0437(9) 1.4444(7) 0.4204(6)
H106A H 1.0616 1.4792 0.4250
C139A C 0.9943(7) 1.3446(6) 0.4086(7)
H107A H 0.9777 1.3099 0.4050
C140A C 0.9524(8) 1.3717(6) 0.4085(8)
C141A C 0.9784(9) 1.4234(6) 0.4142(9)
C142A C 0.9356(10) 1.4516(7) 0.4132(12)
C143A C 0.8763(10) 1.4316(7) 0.4099(11)
C144A C 0.8465(10) 1.3780(6) 0.4009(10)
C145A C 0.8859(8) 1.3493(6) 0.4023(8)
C146A C 0.8549(7) 1.2967(6) 0.3923(7)
H108A H 0.8792 1.2762 0.3899
C147A C 0.7823(10) 1.3554(7) 0.3961(10)
H109A H 0.7577 1.3752 0.3997
C148A C 0.7553(10) 1.3059(7) 0.3863(9)
H110A H 0.7105 1.2912 0.3795
C149A C 0.7927(9) 1.2756(6) 0.3861(8)
C150A C 0.7631(9) 1.2214(6) 0.3746(7)
C151A C 0.6980(9) 1.1987(7) 0.3463(7)
H111A H 0.6709 1.2176 0.3359
C152A C 0.7971(9) 1.1903(6) 0.3885(7)
H112A H 0.8421 1.2038 0.4069
C153A C 0.6741(9) 1.1487(7) 0.3337(7)
H113A H 0.6300 1.1342 0.3132
C154A C 0.7674(9) 1.1408(7) 0.3765(6)
H114A H 0.7917 1.1208 0.3897
N12A N 0.7058(9) 1.1183(5) 0.3472(6)
O11A O 0.8330(11) 1.4581(7) 0.4130(9)
O12A O 0.9702(11) 1.5035(6) 0.4213(9)
C155A C 0.806(2) 1.4675(16) 0.3671(15)
H115A H 0.7761 1.4853 0.3669
H116A H 0.7823 1.4362 0.3443
H117A H 0.8405 1.4874 0.3590
C156A C 0.9549(11) 1.5289(9) 0.4542(11)
H118A H 0.9781 1.5643 0.4600
H119A H 0.9677 1.5174 0.4835
H120A H 0.9083 1.5226 0.4419
N13A N 1.1555(8) 1.2013(6) 0.3313(5)
C157A C 1.1705(9) 1.2126(7) 0.2941(6)
H121A H 1.2123 1.2344 0.2996
C158A C 1.0972(9) 1.1690(7) 0.3221(5)
H122A H 1.0875 1.1599 0.3480
C159A C 1.1266(8) 1.1932(7) 0.2489(5)
H123A H 1.1386 1.2010 0.2236
C160A C 1.0501(7) 1.1477(7) 0.2780(5)
H124A H 1.0097 1.1242 0.2736
C161A C 1.0640(8) 1.1620(6) 0.2401(5)
C162A C 1.0161(7) 1.1403(6) 0.1916(5)
C163A C 1.0334(8) 1.1440(5) 0.1527(5)
H125A H 1.0775 1.1586 0.1574
C164A C 0.9878(8) 1.1271(6) 0.1089(5)
H126A H 1.0010 1.1300 0.0833
C165A C 0.9525(6) 1.1204(6) 0.1831(4)
H127A H 0.9401 1.1190 0.2091
C166A C 0.9027(7) 1.1014(6) 0.1367(5)
C167A C 0.9220(8) 1.1054(8) 0.0992(5)
C168A C 0.8723(8) 1.0863(8) 0.0522(5)
C169A C 0.8115(8) 1.0687(8) 0.0447(5)
C170A C 0.7902(8) 1.0605(7) 0.0827(5)
C171A C 0.8356(7) 1.0791(7) 0.1284(5)
C172A C 0.8127(7) 1.0716(6) 0.1650(5)
H128A H 0.8435 1.0817 0.1964
C173A C 0.7244(8) 1.0388(8) 0.0754(6)
H129A H 0.6936 1.0260 0.0441
C174A C 0.7031(8) 1.0353(7) 0.1110(5)
H130A H 0.6583 1.0228 0.1048
C175A C 0.7497(8) 1.0507(7) 0.1574(5)
C176A C 0.7294(9) 1.0494(7) 0.1970(6)
C177A C 0.7692(8) 1.0462(7) 0.2402(6)
H131A H 0.8102 1.0435 0.2448
C178A C 0.6694(9) 1.0513(8) 0.1927(6)
H132A H 0.6397 1.0528 0.1635
C179A C 0.7490(9) 1.0469(7) 0.2766(6)
H133A H 0.7789 1.0471 0.3064
C180A C 0.6532(9) 1.0509(8) 0.2313(6)
H134A H 0.6123 1.0532 0.2278
N14A N 0.6918(8) 1.0475(6) 0.2740(5)
O13A O 0.7624(7) 1.0508(6) 0.0005(4)
O14A O 0.8957(8) 1.0940(7) 0.0174(5)
C181A C 0.7574(15) 1.0050(10) -0.0230(9)
H135A H 0.7217 0.9952 -0.0538
H136A H 0.7493 0.9801 -0.0046
H137A H 0.7978 1.0079 -0.0270
C182A C 0.8606(11) 1.1127(10) -0.0200(8)
H138A H 0.8814 1.1166 -0.0424
H139A H 0.8600 1.1446 -0.0074
H140A H 0.8162 1.0896 -0.0357
N15A N 1.2650(7) 1.1860(6) 0.3926(5)
C183A C 1.3096(9) 1.1952(7) 0.3735(6)
H141A H 1.3192 1.2255 0.3637
C184A C 1.2546(8) 1.1424(7) 0.4055(6)
H142A H 1.2233 1.1335 0.4189
C185A C 1.3419(9) 1.1652(6) 0.3670(6)
H143A H 1.3722 1.1745 0.3528
C186A C 1.2847(8) 1.1099(6) 0.4013(6)
H144A H 1.2747 1.0800 0.4118
C187A C 1.3301(8) 1.1204(6) 0.3813(6)
C188A C 1.3628(7) 1.0858(6) 0.3737(6)
C189A C 1.3798(5) 1.0820(5) 0.3349(5)
H145A H 1.3736 1.1042 0.3145
C190A C 1.4048(7) 1.0476(6) 0.3257(5)
H146A H 1.4169 1.0465 0.2996
C191A C 1.3715(7) 1.0532(6) 0.4022(5)
H147A H 1.3597 1.0553 0.4284
C192A C 1.3975(8) 1.0161(5) 0.3941(5)
C193A C 1.4131(8) 1.0133(6) 0.3545(5)
C194A C 1.4359(9) 0.9738(6) 0.3447(5)
C195A C 1.4472(8) 0.9447(6) 0.3728(6)
C196A C 1.4335(8) 0.9458(6) 0.4148(6)
C197A C 1.4095(8) 0.9827(6) 0.4254(5)
C198A C 1.3967(7) 0.9828(6) 0.4672(5)
H148A H 1.3801 1.0067 0.4757
C199A C 1.4456(8) 0.9136(6) 0.4453(6)
H149A H 1.4636 0.8900 0.4381
C200A C 1.4326(8) 0.9148(6) 0.4842(6)
H150A H 1.4405 0.8922 0.5037
C201A C 1.4072(8) 0.9502(6) 0.4953(5)
C202A C 1.3899(9) 0.9511(6) 0.5368(6)
C203A C 1.3360(8) 0.9626(7) 0.5357(6)
H151A H 1.3084 0.9680 0.5076
C204A C 1.4260(8) 0.9394(7) 0.5776(6)
H152A H 1.4629 0.9309 0.5799
C205A C 1.3227(9) 0.9662(7) 0.5753(6)
H153A H 1.2878 0.9767 0.5749
C206A C 1.4069(9) 0.9406(7) 0.6136(6)
H154A H 1.4297 0.9302 0.6403
N16A N 1.3578(8) 0.9553(6) 0.6147(5)
O15A O 1.4679(7) 0.9061(4) 0.3618(4)
O16A O 1.4521(6) 0.9736(5) 0.3047(5)
C207A C 1.5345(8) 0.9196(6) 0.3773(6)
H155A H 1.5459 0.8913 0.3685
H156A H 1.5539 0.9308 0.4114
H157A H 1.5508 0.9463 0.3628
C208A C 1.4001(10) 0.9439(7) 0.2640(6)
H158A H 1.4134 0.9449 0.2375
H159A H 1.3639 0.9561 0.2580
H160A H 1.3868 0.9100 0.2683
C209 C 1.1640(11) 1.0402(8) 0.2791(7)
C210 C 1.1293(11) 1.0425(9) 0.3083(10)
H161 H 1.1017 1.0615 0.3030
C211 C 1.1358(13) 1.0162(10) 0.3458(10)
H162 H 1.1101 1.0157 0.3637
C212 C 1.1815(14) 0.9909(10) 0.3558(9)
C213 C 1.2102(14) 0.9836(11) 0.3226(10)
H163 H 1.2314 0.9600 0.3243
C214 C 1.2065(15) 1.0122(11) 0.2868(9)
C215 C 1.1882(17) 1.0640(13) 0.2124(11)
H164 H 1.1775 1.0773 0.1851
C216 C 1.2326(13) 1.0380(10) 0.2204(9)
C217 C 1.2381(14) 1.0082(11) 0.2552(10)
H165 H 1.2620 0.9865 0.2571
C218 C 1.1597(16) 1.0700(11) 0.2453(11)
H166 H 1.1384 1.0934 0.2446
S1 S 1.2744(7) 1.0344(5) 0.1836(5)
O17 O 1.3228(12) 1.0860(8) 0.1961(10)
O18 O 1.3037(12) 0.9959(9) 0.1996(10)
O19 O 1.2208(13) 1.0195(9) 0.1361(7)
S2 S 1.1994(7) 0.9658(5) 0.4060(6)
O20 O 1.1335(11) 0.9443(11) 0.4076(11)
O21 O 1.2471(11) 1.0074(8) 0.4445(7)
O22 O 1.2258(12) 0.9274(8) 0.3915(11)
loop_
_geom_bond_atom_site_label_1
_geom_bond_atom_site_label_2
_geom_bond_site_symmetry_1
_geom_bond_site_symmetry_2
Pd1 N2 1_555 1_555
Pd2 N5 1_555 1_555
N1 C1 1_555 1_555
C1 H1 1_555 1_555
C2 N1 1_555 1_555
H2 C2 1_555 1_555
C3 C1 1_555 1_555
H3 C3 1_555 1_555
C4 C2 1_555 1_555
H4 C4 1_555 1_555
C5 C3 1_555 1_555
C6 C5 1_555 1_555
C7 C6 1_555 1_555
H5 C7 1_555 1_555
C8 C7 1_555 1_555
H6 C8 1_555 1_555
C9 C6 1_555 1_555
H7 C9 1_555 1_555
C10 C9 1_555 1_555
C11 C8 1_555 1_555
C12 C11 1_555 1_555
C13 C12 1_555 1_555
C14 C13 1_555 1_555
C15 C10 1_555 1_555
C16 C15 1_555 1_555
H8 C16 1_555 1_555
C17 C14 1_555 1_555
H9 C17 1_555 1_555
C18 C17 1_555 1_555
H10 C18 1_555 1_555
C19 C16 1_555 1_555
C20 C19 1_555 1_555
C21 C20 1_555 1_555
H11 C21 1_555 1_555
C22 C20 1_555 1_555
H12 C22 1_555 1_555
C23 C21 1_555 1_555
H13 C23 1_555 1_555
C24 C22 1_555 1_555
H14 C24 1_555 1_555
N2 C23 1_555 1_555
O1 C13 1_555 1_555
O2 C12 1_555 1_555
C25 O1 1_555 1_555
H15 C25 1_555 1_555
H16 C25 1_555 1_555
H17 C25 1_555 1_555
C26 O2 1_555 1_555
H18 C26 1_555 1_555
H19 C26 1_555 1_555
H20 C26 1_555 1_555
N3 C27 1_555 1_555
C27 H21 1_555 1_555
C28 N3 1_555 1_555
H22 C28 1_555 1_555
C29 C27 1_555 1_555
H23 C29 1_555 1_555
C30 C28 1_555 1_555
H24 C30 1_555 1_555
C31 C29 1_555 1_555
C32 C31 1_555 1_555
C33 C32 1_555 1_555
H25 C33 1_555 1_555
C34 C33 1_555 1_555
H26 C34 1_555 1_555
C35 C32 1_555 1_555
H27 C35 1_555 1_555
C36 C35 1_555 1_555
C37 C34 1_555 1_555
C38 C37 1_555 1_555
C39 C38 1_555 1_555
C40 C39 1_555 1_555
C41 C36 1_555 1_555
C42 C41 1_555 1_555
H28 C42 1_555 1_555
C43 C40 1_555 1_555
H29 C43 1_555 1_555
C44 C43 1_555 1_555
H30 C44 1_555 1_555
C45 C42 1_555 1_555
C46 C45 1_555 1_555
C47 C46 1_555 1_555
H31 C47 1_555 1_555
C48 C46 1_555 1_555
H32 C48 1_555 1_555
C49 C47 1_555 1_555
H33 C49 1_555 1_555
C50 C48 1_555 1_555
H34 C50 1_555 1_555
N4 Pd1 1_555 1_555
O3 C39 1_555 1_555
C51 O3 1_555 1_555
H35 C51 1_555 1_555
H36 C51 1_555 1_555
H37 C51 1_555 1_555
O4 C38 1_555 1_555
C52 O4 1_555 1_555
H38 C52 1_555 1_555
H39 C52 1_555 1_555
H40 C52 1_555 1_555
N5 C53 1_555 1_555
C53 H41 1_555 1_555
C54 N5 1_555 1_555
H42 C54 1_555 1_555
C55 C53 1_555 1_555
H43 C55 1_555 1_555
C56 C54 1_555 1_555
H44 C56 1_555 1_555
C57 C55 1_555 1_555
C58 C57 1_555 1_555
C59 C58 1_555 1_555
H45 C59 1_555 1_555
C60 C59 1_555 1_555
H46 C60 1_555 1_555
C61 C58 1_555 1_555
H47 C61 1_555 1_555
C62 C61 1_555 1_555
C63 C60 1_555 1_555
C64 C63 1_555 1_555
C65 C64 1_555 1_555
C66 C65 1_555 1_555
C67 C62 1_555 1_555
C68 C67 1_555 1_555
H48 C68 1_555 1_555
C69 C66 1_555 1_555
H49 C69 1_555 1_555
C70 C69 1_555 1_555
H50 C70 1_555 1_555
C71 C68 1_555 1_555
C72 C71 1_555 1_555
C73 C72 1_555 1_555
H51 C73 1_555 1_555
C74 C72 1_555 1_555
H52 C74 1_555 1_555
C75 C73 1_555 1_555
H53 C75 1_555 1_555
C76 C74 1_555 1_555
H54 C76 1_555 1_555
N6 Pd1 1_555 1_555
O5 C65 1_555 1_555
O6 C64 1_555 1_555
C77 O5 1_555 1_555
H55 C77 1_555 1_555
H56 C77 1_555 1_555
H57 C77 1_555 1_555
C78 O6 1_555 1_555
H58 C78 1_555 1_555
H59 C78 1_555 1_555
H60 C78 1_555 1_555
N7 Pd2 1_555 1_555
C79 N7 1_555 1_555
H61 C79 1_555 1_555
C80 N7 1_555 1_555
H62 C80 1_555 1_555
C81 C79 1_555 1_555
H63 C81 1_555 1_555
C82 C80 1_555 1_555
H64 C82 1_555 1_555
C83 C81 1_555 1_555
C84 C83 1_555 1_555
C85 C84 1_555 1_555
H65 C85 1_555 1_555
C86 C85 1_555 1_555
H66 C86 1_555 1_555
C87 C84 1_555 1_555
H67 C87 1_555 1_555
C88 C87 1_555 1_555
C89 C86 1_555 1_555
C90 C89 1_555 1_555
C91 C90 1_555 1_555
C92 C91 1_555 1_555
C93 C88 1_555 1_555
C94 C93 1_555 1_555
H68 C94 1_555 1_555
C95 C92 1_555 1_555
H69 C95 1_555 1_555
C96 C95 1_555 1_555
H70 C96 1_555 1_555
C97 C94 1_555 1_555
C98 C97 1_555 1_555
C99 C98 1_555 1_555
H71 C99 1_555 1_555
C100 C98 1_555 1_555
H72 C100 1_555 1_555
C101 C99 1_555 1_555
H73 C101 1_555 1_555
C102 C100 1_555 1_555
H74 C102 1_555 1_555
N8 Pd1 1_555 1_555
O7 C91 1_555 1_555
O8 C90 1_555 1_555
C103 O8 1_555 1_555
H75 C103 1_555 1_555
H76 C103 1_555 1_555
H77 C103 1_555 1_555
C104 O7 1_555 1_555
H78 C104 1_555 1_555
H79 C104 1_555 1_555
H80 C104 1_555 1_555
Pd3 N12 1_555 1_555
Pd4 N9 1_555 1_555
N9 C105 1_555 1_555
C105 H81 1_555 1_555
C106 N9 1_555 1_555
H82 C106 1_555 1_555
C107 C105 1_555 1_555
H83 C107 1_555 1_555
C108 C106 1_555 1_555
H84 C108 1_555 1_555
C109 C107 1_555 1_555
C110 C109 1_555 1_555
C111 C110 1_555 1_555
H85 C111 1_555 1_555
C112 C111 1_555 1_555
H86 C112 1_555 1_555
C113 C110 1_555 1_555
H87 C113 1_555 1_555
C114 C113 1_555 1_555
C115 C112 1_555 1_555
C116 C115 1_555 1_555
C117 C116 1_555 1_555
C118 C117 1_555 1_555
C119 C114 1_555 1_555
C120 C119 1_555 1_555
H88 C120 1_555 1_555
C121 C118 1_555 1_555
H89 C121 1_555 1_555
C122 C121 1_555 1_555
H90 C122 1_555 1_555
C123 C120 1_555 1_555
C124 C123 1_555 1_555
C125 C124 1_555 1_555
H91 C125 1_555 1_555
C126 C124 1_555 1_555
H92 C126 1_555 1_555
C127 C125 1_555 1_555
H93 C127 1_555 1_555
C128 C126 1_555 1_555
H94 C128 1_555 1_555
N10 C127 1_555 1_555
O9 C117 1_555 1_555
O10 C116 1_555 1_555
C129 O9 1_555 1_555
H95 C129 1_555 1_555
H96 C129 1_555 1_555
H97 C129 1_555 1_555
C130 O10 1_555 1_555
H98 C130 1_555 1_555
H99 C130 1_555 1_555
H100 C130 1_555 1_555
N11 Pd4 1_555 1_555
C131 N11 1_555 1_555
H101 C131 1_555 1_555
C132 N11 1_555 1_555
H102 C132 1_555 1_555
C133 C131 1_555 1_555
H103 C133 1_555 1_555
C134 C132 1_555 1_555
H104 C134 1_555 1_555
C135 C133 1_555 1_555
C136 C135 1_555 1_555
C137 C136 1_555 1_555
H105 C137 1_555 1_555
C138 C137 1_555 1_555
H106 C138 1_555 1_555
C139 C136 1_555 1_555
H107 C139 1_555 1_555
C140 C139 1_555 1_555
C141 C138 1_555 1_555
C142 C141 1_555 1_555
C143 C142 1_555 1_555
C144 C143 1_555 1_555
C145 C140 1_555 1_555
C146 C145 1_555 1_555
H108 C146 1_555 1_555
C147 C144 1_555 1_555
H109 C147 1_555 1_555
C148 C147 1_555 1_555
H110 C148 1_555 1_555
C149 C146 1_555 1_555
C150 C149 1_555 1_555
C151 C150 1_555 1_555
H111 C151 1_555 1_555
C152 C150 1_555 1_555
H112 C152 1_555 1_555
C153 C151 1_555 1_555
H113 C153 1_555 1_555
C154 C152 1_555 1_555
H114 C154 1_555 1_555
N12 C153 1_555 1_555
O11 C143 1_555 1_555
O12 C142 1_555 1_555
C155 O11 1_555 1_555
H115 C155 1_555 1_555
H116 C155 1_555 1_555
H117 C155 1_555 1_555
C156 O12 1_555 1_555
H118 C156 1_555 1_555
H119 C156 1_555 1_555
H120 C156 1_555 1_555
N13 Pd4 1_555 1_555
C157 N13 1_555 1_555
H121 C157 1_555 1_555
C158 N13 1_555 1_555
H122 C158 1_555 1_555
C159 C157 1_555 1_555
H123 C159 1_555 1_555
C160 C158 1_555 1_555
H124 C160 1_555 1_555
C161 C159 1_555 1_555
C162 C161 1_555 1_555
C163 C162 1_555 1_555
H125 C163 1_555 1_555
C164 C163 1_555 1_555
H126 C164 1_555 1_555
C165 C162 1_555 1_555
H127 C165 1_555 1_555
C166 C165 1_555 1_555
C167 C164 1_555 1_555
C168 C167 1_555 1_555
C169 C168 1_555 1_555
C170 C169 1_555 1_555
C171 C166 1_555 1_555
C172 C171 1_555 1_555
H128 C172 1_555 1_555
C173 C170 1_555 1_555
H129 C173 1_555 1_555
C174 C173 1_555 1_555
H130 C174 1_555 1_555
C175 C172 1_555 1_555
C176 C175 1_555 1_555
C177 C176 1_555 1_555
H131 C177 1_555 1_555
C178 C176 1_555 1_555
H132 C178 1_555 1_555
C179 C177 1_555 1_555
H133 C179 1_555 1_555
C180 C178 1_555 1_555
H134 C180 1_555 1_555
N14 Pd3 1_555 1_555
O13 C169 1_555 1_555
O14 C168 1_555 1_555
C181 O13 1_555 1_555
H135 C181 1_555 1_555
H136 C181 1_555 1_555
H137 C181 1_555 1_555
C182 O14 1_555 1_555
H138 C182 1_555 1_555
H139 C182 1_555 1_555
H140 C182 1_555 1_555
N15 Pd4 1_555 1_555
C183 N15 1_555 1_555
H141 C183 1_555 1_555
C184 N15 1_555 1_555
H142 C184 1_555 1_555
C185 C183 1_555 1_555
H143 C185 1_555 1_555
C186 C184 1_555 1_555
H144 C186 1_555 1_555
C187 C185 1_555 1_555
C188 C187 1_555 1_555
C189 C188 1_555 1_555
H145 C189 1_555 1_555
C190 C189 1_555 1_555
H146 C190 1_555 1_555
C191 C188 1_555 1_555
H147 C191 1_555 1_555
C192 C191 1_555 1_555
C193 C190 1_555 1_555
C194 C193 1_555 1_555
C195 C194 1_555 1_555
C196 C195 1_555 1_555
C197 C192 1_555 1_555
C198 C197 1_555 1_555
H148 C198 1_555 1_555
C199 C196 1_555 1_555
H149 C199 1_555 1_555
C200 C199 1_555 1_555
H150 C200 1_555 1_555
C201 C198 1_555 1_555
C202 C201 1_555 1_555
C203 C202 1_555 1_555
H151 C203 1_555 1_555
C204 C202 1_555 1_555
H152 C204 1_555 1_555
C205 C203 1_555 1_555
H153 C205 1_555 1_555
C206 C204 1_555 1_555
H154 C206 1_555 1_555
N16 C205 1_555 1_555
O15 C195 1_555 1_555
O16 C194 1_555 1_555
C207 O15 1_555 1_555
H155 C207 1_555 1_555
H156 C207 1_555 1_555
H157 C207 1_555 1_555
C208 O16 1_555 1_555
H158 C208 1_555 1_555
H159 C208 1_555 1_555
H160 C208 1_555 1_555
C209 C210 1_555 1_555
C210 H161 1_555 1_555
C211 C210 1_555 1_555
H162 C211 1_555 1_555
C212 C211 1_555 1_555
C213 C212 1_555 1_555
H163 C213 1_555 1_555
C214 C209 1_555 1_555
C215 H164 1_555 1_555
C216 C215 1_555 1_555
C217 C214 1_555 1_555
H165 C217 1_555 1_555
C218 C209 1_555 1_555
H166 C218 1_555 1_555
S1 C216 1_555 1_555
O17 S1 1_555 1_555
O18 S1 1_555 1_555
O19 S1 1_555 1_555
S2 C212 1_555 1_555
O20 S2 1_555 1_555
O21 S2 1_555 1_555
O22 S2 1_555 1_555
Pd1A N2A 1_555 1_555
Pd2A N1 1_555 1_555
N1A Pd2 1_555 1_555
C1A N1A 1_555 1_555
H1A C1A 1_555 1_555
C2A N1A 1_555 1_555
H2A C2A 1_555 1_555
C3A C1A 1_555 1_555
H3A C3A 1_555 1_555
C4A C2A 1_555 1_555
H4A C4A 1_555 1_555
C5A C3A 1_555 1_555
C6A C5A 1_555 1_555
C7A C6A 1_555 1_555
H5A C7A 1_555 1_555
C8A C7A 1_555 1_555
H6A C8A 1_555 1_555
C9A C6A 1_555 1_555
H7A C9A 1_555 1_555
C10A C9A 1_555 1_555
C11A C8A 1_555 1_555
C12A C11A 1_555 1_555
C13A C12A 1_555 1_555
C14A C13A 1_555 1_555
C15A C10A 1_555 1_555
C16A C15A 1_555 1_555
H8A C16A 1_555 1_555
C17A C14A 1_555 1_555
H9A C17A 1_555 1_555
C18A C17A 1_555 1_555
H10A C18A 1_555 1_555
C19A C16A 1_555 1_555
C20A C19A 1_555 1_555
C21A C20A 1_555 1_555
H11A C21A 1_555 1_555
C22A C20A 1_555 1_555
H12A C22A 1_555 1_555
C23A C21A 1_555 1_555
H13A C23A 1_555 1_555
C24A C22A 1_555 1_555
H14A C24A 1_555 1_555
N2A C23A 1_555 1_555
O1A C13A 1_555 1_555
O2A C12A 1_555 1_555
C25A O1A 1_555 1_555
H15A C25A 1_555 1_555
H16A C25A 1_555 1_555
H17A C25A 1_555 1_555
C26A O2A 1_555 1_555
H18A C26A 1_555 1_555
H19A C26A 1_555 1_555
H20A C26A 1_555 1_555
N3A Pd2 1_555 1_555
C27A N3A 1_555 1_555
H21A C27A 1_555 1_555
C28A N3A 1_555 1_555
H22A C28A 1_555 1_555
C29A C27A 1_555 1_555
H23A C29A 1_555 1_555
C30A C28A 1_555 1_555
H24A C30A 1_555 1_555
C31A C29A 1_555 1_555
C32A C31A 1_555 1_555
C33A C32A 1_555 1_555
H25A C33A 1_555 1_555
C34A C33A 1_555 1_555
H26A C34A 1_555 1_555
C35A C32A 1_555 1_555
H27A C35A 1_555 1_555
C36A C35A 1_555 1_555
C37A C34A 1_555 1_555
C38A C37A 1_555 1_555
C39A C38A 1_555 1_555
C40A C39A 1_555 1_555
C41A C36A 1_555 1_555
C42A C41A 1_555 1_555
H28A C42A 1_555 1_555
C43A C40A 1_555 1_555
H29A C43A 1_555 1_555
C44A C43A 1_555 1_555
H30A C44A 1_555 1_555
C45A C42A 1_555 1_555
C46A C45A 1_555 1_555
C47A C46A 1_555 1_555
H31A C47A 1_555 1_555
C48A C46A 1_555 1_555
H32A C48A 1_555 1_555
C49A C47A 1_555 1_555
H33A C49A 1_555 1_555
C50A C48A 1_555 1_555
H34A C50A 1_555 1_555
N4A Pd1A 1_555 1_555
O3A C39A 1_555 1_555
C51A O3A 1_555 1_555
H35A C51A 1_555 1_555
H36A C51A 1_555 1_555
H37A C51A 1_555 1_555
O4A C38A 1_555 1_555
C52A O4A 1_555 1_555
H38A C52A 1_555 1_555
H39A C52A 1_555 1_555
H40A C52A 1_555 1_555
N5A Pd2A 1_555 1_555
C53A N5A 1_555 1_555
H41A C53A 1_555 1_555
C54A N5A 1_555 1_555
H42A C54A 1_555 1_555
C55A C53A 1_555 1_555
H43A C55A 1_555 1_555
C56A C54A 1_555 1_555
H44A C56A 1_555 1_555
C57A C55A 1_555 1_555
C58A C57A 1_555 1_555
C59A C58A 1_555 1_555
H45A C59A 1_555 1_555
C60A C59A 1_555 1_555
H46A C60A 1_555 1_555
C61A C58A 1_555 1_555
H47A C61A 1_555 1_555
C62A C61A 1_555 1_555
C63A C60A 1_555 1_555
C64A C63A 1_555 1_555
C65A C64A 1_555 1_555
C66A C65A 1_555 1_555
C67A C62A 1_555 1_555
C68A C67A 1_555 1_555
H48A C68A 1_555 1_555
C69A C66A 1_555 1_555
H49A C69A 1_555 1_555
C70A C69A 1_555 1_555
H50A C70A 1_555 1_555
C71A C68A 1_555 1_555
C72A C71A 1_555 1_555
C73A C72A 1_555 1_555
H51A C73A 1_555 1_555
C74A C72A 1_555 1_555
H52A C74A 1_555 1_555
C75A C73A 1_555 1_555
H53A C75A 1_555 1_555
C76A C74A 1_555 1_555
H54A C76A 1_555 1_555
N6A Pd1A 1_555 1_555
O5A C65A 1_555 1_555
O6A C64A 1_555 1_555
C77A O5A 1_555 1_555
H55A C77A 1_555 1_555
H56A C77A 1_555 1_555
H57A C77A 1_555 1_555
C78A O6A 1_555 1_555
H58A C78A 1_555 1_555
H59A C78A 1_555 1_555
H60A C78A 1_555 1_555
N7A Pd2A 1_555 1_555
C79A N7A 1_555 1_555
H61A C79A 1_555 1_555
C80A N7A 1_555 1_555
H62A C80A 1_555 1_555
C81A C79A 1_555 1_555
H63A C81A 1_555 1_555
C82A C80A 1_555 1_555
H64A C82A 1_555 1_555
C83A C81A 1_555 1_555
C84A C83A 1_555 1_555
C85A C84A 1_555 1_555
H65A C85A 1_555 1_555
C86A C85A 1_555 1_555
H66A C86A 1_555 1_555
C87A C84A 1_555 1_555
H67A C87A 1_555 1_555
C88A C87A 1_555 1_555
C89A C86A 1_555 1_555
C90A C89A 1_555 1_555
C91A C90A 1_555 1_555
C92A C91A 1_555 1_555
C93A C88A 1_555 1_555
C94A C93A 1_555 1_555
H68A C94A 1_555 1_555
C95A C92A 1_555 1_555
H69A C95A 1_555 1_555
C96A C95A 1_555 1_555
H70A C96A 1_555 1_555
C97A C94A 1_555 1_555
C98A C97A 1_555 1_555
C99A C98A 1_555 1_555
H71A C99A 1_555 1_555
C100A C98A 1_555 1_555
H72A C100A 1_555 1_555
C101A C99A 1_555 1_555
H73A C101A 1_555 1_555
C102A C100A 1_555 1_555
H74A C102A 1_555 1_555
N8A Pd1A 1_555 1_555
O7A C91A 1_555 1_555
O8A C90A 1_555 1_555
C103A O8A 1_555 1_555
H75A C103A 1_555 1_555
H76A C103A 1_555 1_555
H77A C103A 1_555 1_555
C104A O7A 1_555 1_555
H78A C104A 1_555 1_555
H79A C104A 1_555 1_555
H80A C104A 1_555 1_555
Pd3A N10 1_555 1_555
Pd4A N9A 1_555 1_555
N9A C105A 1_555 1_555
C105A H81A 1_555 1_555
C106A N9A 1_555 1_555
H82A C106A 1_555 1_555
C107A C105A 1_555 1_555
H83A C107A 1_555 1_555
C108A C106A 1_555 1_555
H84A C108A 1_555 1_555
C109A C107A 1_555 1_555
C110A C109A 1_555 1_555
C111A C110A 1_555 1_555
H85A C111A 1_555 1_555
C112A C111A 1_555 1_555
H86A C112A 1_555 1_555
C113A C110A 1_555 1_555
H87A C113A 1_555 1_555
C114A C113A 1_555 1_555
C115A C112A 1_555 1_555
C116A C115A 1_555 1_555
C117A C116A 1_555 1_555
C118A C117A 1_555 1_555
C119A C114A 1_555 1_555
C120A C119A 1_555 1_555
H88A C120A 1_555 1_555
C121A C118A 1_555 1_555
H89A C121A 1_555 1_555
C122A C121A 1_555 1_555
H90A C122A 1_555 1_555
C123A C120A 1_555 1_555
C124A C123A 1_555 1_555
C125A C124A 1_555 1_555
H91A C125A 1_555 1_555
C126A C124A 1_555 1_555
H92A C126A 1_555 1_555
C127A C125A 1_555 1_555
H93A C127A 1_555 1_555
C128A C126A 1_555 1_555
H94A C128A 1_555 1_555
N10A Pd3 1_555 1_555
O9A C117A 1_555 1_555
O10A C116A 1_555 1_555
C129A O9A 1_555 1_555
H95A C129A 1_555 1_555
H96A C129A 1_555 1_555
H97A C129A 1_555 1_555
C130A O10A 1_555 1_555
H98A C130A 1_555 1_555
H99A C130A 1_555 1_555
H100A C130A 1_555 1_555
N11A Pd4A 1_555 1_555
C131A N11A 1_555 1_555
H101A C131A 1_555 1_555
C132A N11A 1_555 1_555
H102A C132A 1_555 1_555
C133A C131A 1_555 1_555
H103A C133A 1_555 1_555
C134A C132A 1_555 1_555
H104A C134A 1_555 1_555
C135A C133A 1_555 1_555
C136A C135A 1_555 1_555
C137A C136A 1_555 1_555
H105A C137A 1_555 1_555
C138A C137A 1_555 1_555
H106A C138A 1_555 1_555
C139A C136A 1_555 1_555
H107A C139A 1_555 1_555
C140A C139A 1_555 1_555
C141A C138A 1_555 1_555
C142A C141A 1_555 1_555
C143A C142A 1_555 1_555
C144A C143A 1_555 1_555
C145A C140A 1_555 1_555
C146A C145A 1_555 1_555
H108A C146A 1_555 1_555
C147A C144A 1_555 1_555
H109A C147A 1_555 1_555
C148A C147A 1_555 1_555
H110A C148A 1_555 1_555
C149A C146A 1_555 1_555
C150A C149A 1_555 1_555
C151A C150A 1_555 1_555
H111A C151A 1_555 1_555
C152A C150A 1_555 1_555
H112A C152A 1_555 1_555
C153A C151A 1_555 1_555
H113A C153A 1_555 1_555
C154A C152A 1_555 1_555
H114A C154A 1_555 1_555
N12A Pd3A 1_555 1_555
O11A C143A 1_555 1_555
O12A C142A 1_555 1_555
C155A O11A 1_555 1_555
H115A C155A 1_555 1_555
H116A C155A 1_555 1_555
H117A C155A 1_555 1_555
C156A O12A 1_555 1_555
H118A C156A 1_555 1_555
H119A C156A 1_555 1_555
H120A C156A 1_555 1_555
N13A Pd4A 1_555 1_555
C157A N13A 1_555 1_555
H121A C157A 1_555 1_555
C158A N13A 1_555 1_555
H122A C158A 1_555 1_555
C159A C157A 1_555 1_555
H123A C159A 1_555 1_555
C160A C158A 1_555 1_555
H124A C160A 1_555 1_555
C161A C159A 1_555 1_555
C162A C161A 1_555 1_555
C163A C162A 1_555 1_555
H125A C163A 1_555 1_555
C164A C163A 1_555 1_555
H126A C164A 1_555 1_555
C165A C162A 1_555 1_555
H127A C165A 1_555 1_555
C166A C165A 1_555 1_555
C167A C164A 1_555 1_555
C168A C167A 1_555 1_555
C169A C168A 1_555 1_555
C170A C169A 1_555 1_555
C171A C166A 1_555 1_555
C172A C171A 1_555 1_555
H128A C172A 1_555 1_555
C173A C170A 1_555 1_555
H129A C173A 1_555 1_555
C174A C173A 1_555 1_555
H130A C174A 1_555 1_555
C175A C172A 1_555 1_555
C176A C175A 1_555 1_555
C177A C176A 1_555 1_555
H131A C177A 1_555 1_555
C178A C176A 1_555 1_555
H132A C178A 1_555 1_555
C179A C177A 1_555 1_555
H133A C179A 1_555 1_555
C180A C178A 1_555 1_555
H134A C180A 1_555 1_555
N14A Pd3A 1_555 1_555
O13A C169A 1_555 1_555
O14A C168A 1_555 1_555
C181A O13A 1_555 1_555
H135A C181A 1_555 1_555
H136A C181A 1_555 1_555
H137A C181A 1_555 1_555
C182A O14A 1_555 1_555
H138A C182A 1_555 1_555
H139A C182A 1_555 1_555
H140A C182A 1_555 1_555
N15A Pd4A 1_555 1_555
C183A N15A 1_555 1_555
H141A C183A 1_555 1_555
C184A N15A 1_555 1_555
H142A C184A 1_555 1_555
C185A C183A 1_555 1_555
H143A C185A 1_555 1_555
C186A C184A 1_555 1_555
H144A C186A 1_555 1_555
C187A C185A 1_555 1_555
C188A C187A 1_555 1_555
C189A C188A 1_555 1_555
H145A C189A 1_555 1_555
C190A C189A 1_555 1_555
H146A C190A 1_555 1_555
C191A C188A 1_555 1_555
H147A C191A 1_555 1_555
C192A C191A 1_555 1_555
C193A C190A 1_555 1_555
C194A C193A 1_555 1_555
C195A C194A 1_555 1_555
C196A C195A 1_555 1_555
C197A C192A 1_555 1_555
C198A C197A 1_555 1_555
H148A C198A 1_555 1_555
C199A C196A 1_555 1_555
H149A C199A 1_555 1_555
C200A C199A 1_555 1_555
H150A C200A 1_555 1_555
C201A C198A 1_555 1_555
C202A C201A 1_555 1_555
C203A C202A 1_555 1_555
H151A C203A 1_555 1_555
C204A C202A 1_555 1_555
H152A C204A 1_555 1_555
C205A C203A 1_555 1_555
H153A C205A 1_555 1_555
C206A C204A 1_555 1_555
H154A C206A 1_555 1_555
N16A Pd3 1_555 1_555
O15A C195A 1_555 1_555
O16A C194A 1_555 1_555
C207A O15A 1_555 1_555
H155A C207A 1_555 1_555
H156A C207A 1_555 1_555
H157A C207A 1_555 1_555
C208A O16A 1_555 1_555
H158A C208A 1_555 1_555
H159A C208A 1_555 1_555
H160A C208A 1_555 1_555
C4 C5 1_555 1_555
C10 C11 1_555 1_555
C14 C15 1_555 1_555
C18 C19 1_555 1_555
C24 N2 1_555 1_555
N3 Pd2A 1_555 1_555
C30 C31 1_555 1_555
C36 C37 1_555 1_555
C40 C41 1_555 1_555
C44 C45 1_555 1_555
C49 N4 1_555 1_555
C50 N4 1_555 1_555
C56 C57 1_555 1_555
C62 C63 1_555 1_555
C66 C67 1_555 1_555
C70 C71 1_555 1_555
C75 N6 1_555 1_555
C76 N6 1_555 1_555
C82 C83 1_555 1_555
C88 C89 1_555 1_555
C92 C93 1_555 1_555
C96 C97 1_555 1_555
C101 N8 1_555 1_555
C102 N8 1_555 1_555
C108 C109 1_555 1_555
C114 C115 1_555 1_555
C118 C119 1_555 1_555
C122 C123 1_555 1_555
C128 N10 1_555 1_555
C134 C135 1_555 1_555
C140 C141 1_555 1_555
C144 C145 1_555 1_555
C148 C149 1_555 1_555
C154 N12 1_555 1_555
C160 C161 1_555 1_555
C166 C167 1_555 1_555
C170 C171 1_555 1_555
C174 C175 1_555 1_555
C179 N14 1_555 1_555
C180 N14 1_555 1_555
C186 C187 1_555 1_555
C192 C193 1_555 1_555
C196 C197 1_555 1_555
C200 C201 1_555 1_555
C206 N16 1_555 1_555
N16 Pd3A 1_555 1_555
C213 C214 1_555 1_555
C215 C218 1_555 1_555
C216 C217 1_555 1_555
C4A C5A 1_555 1_555
C10A C11A 1_555 1_555
C14A C15A 1_555 1_555
C18A C19A 1_555 1_555
C24A N2A 1_555 1_555
C30A C31A 1_555 1_555
C36A C37A 1_555 1_555
C40A C41A 1_555 1_555
C44A C45A 1_555 1_555
C49A N4A 1_555 1_555
C50A N4A 1_555 1_555
C56A C57A 1_555 1_555
C62A C63A 1_555 1_555
C66A C67A 1_555 1_555
C70A C71A 1_555 1_555
C75A N6A 1_555 1_555
C76A N6A 1_555 1_555
C82A C83A 1_555 1_555
C88A C89A 1_555 1_555
C92A C93A 1_555 1_555
C96A C97A 1_555 1_555
C101A N8A 1_555 1_555
C102A N8A 1_555 1_555
C108A C109A 1_555 1_555
C114A C115A 1_555 1_555
C118A C119A 1_555 1_555
C122A C123A 1_555 1_555
C127A N10A 1_555 1_555
C128A N10A 1_555 1_555
C134A C135A 1_555 1_555
C140A C141A 1_555 1_555
C144A C145A 1_555 1_555
C148A C149A 1_555 1_555
C153A N12A 1_555 1_555
C154A N12A 1_555 1_555
C160A C161A 1_555 1_555
C166A C167A 1_555 1_555
C170A C171A 1_555 1_555
C174A C175A 1_555 1_555
C179A N14A 1_555 1_555
C180A N14A 1_555 1_555
C186A C187A 1_555 1_555
C192A C193A 1_555 1_555
C196A C197A 1_555 1_555
C200A C201A 1_555 1_555
C205A N16A 1_555 1_555
C206A N16A 1_555 1_555

#END
