
#######################################################################
#
#                 Cambridge Crystallographic Data Centre
#                                CCDC 
#
#######################################################################
#
# If this CIF has been generated from an entry in the Cambridge 
# Structural Database, then it will include bibliographic, chemical, 
# crystal, experimental, refinement or atomic coordinate data resulting 
# from the CCDC's data processing and validation procedures.
#
#######################################################################

data_YALVUE
_chemical_formula_moiety         
'C108 H144 N36 Pd6 12+,C22 H14 O4 Ru2,12(N1 O3 1-),20.16(H2 O1)'
_chemical_name_systematic        
'tetrakis(\m~3~-2,4,5-tris(4-Pyridyl)-1,3,5-triazine)-tetrakis(1,2-bis(dimethylamino)ethane)-hexa-palladium(ii) cis-bis(\m~2~-carbonyl)-bis(\h^5^-indenyl)-dicarbonyl-di-ruthenium clathrate dodecanitrate hydrate'
_symmetry_cell_setting           triclinic
_symmetry_space_group_name_H-M   'P -1'
_symmetry_Int_Tables_number      2
_space_group_name_Hall           '-P 1'
loop_
_symmetry_equiv_pos_site_id
_symmetry_equiv_pos_as_xyz
1 x,y,z
2 -x,-y,-z
_cell_length_a                   27.580(9)
_cell_length_b                   27.638(9)
_cell_length_c                   32.095(11)
_cell_angle_alpha                100.987(4)
_cell_angle_beta                 92.098(4)
_cell_angle_gamma                107.123(4)
_cell_volume                     22839.3
_exptl_crystal_colour            purple
_exptl_crystal_description       needle
_cell_formula_units_Z            4
loop_
_atom_site_label
_atom_site_type_symbol
_atom_site_fract_x
_atom_site_fract_y
_atom_site_fract_z
C11 C 0.5394(3) 0.9462(3) 0.3979(3)
C12 C 0.3163(12) 0.2133(10) 0.1818(9)
C26 C 0.5670(4) 0.7425(4) 0.4984(3)
C27 C 0.3427(13) 0.2600(14) 0.2494(12)
C41 C 0.5791(4) 0.7729(4) 0.4664(3)
C42 C 0.2626(8) 0.2565(10) 0.2168(9)
C56 C 0.6055(3) 0.7556(3) 0.4338(3)
C57 C 0.4835(4) 0.6160(4) 0.6007(3)
C65 C 0.6214(4) 0.7129(4) 0.4348(3)
C66 C 0.5071(4) 0.5486(4) 0.5561(4)
C69 C 0.6093(4) 0.6861(4) 0.4677(3)
C70 C 0.5702(4) 0.6112(4) 0.6091(3)
C73 C 0.6481(3) 0.7921(3) 0.3360(2)
C74 C 0.5987(4) 0.6674(4) 0.6242(4)
C77 C 0.6085(3) 0.8477(3) 0.3676(2)
C78 C 0.6596(4) 0.6828(4) 0.5702(3)
C81 C 0.6172(3) 0.7843(3) 0.3995(3)
C82 C 0.6232(5) 0.7470(5) 0.5976(4)
C85 C 0.6529(4) 0.6873(4) 0.1284(3)
C86 C 0.2788(10) 0.6082(9) -0.0766(7)
C90 C 0.7171(3) 0.7171(3) 0.2632(3)
C91 C 0.8278(6) 0.8143(6) 0.2054(5)
C94 C 0.6036(3) 0.6582(4) 0.1125(3)
C95 C 0.3638(9) 0.6680(11) -0.0774(8)
C99 C 0.5836(3) 0.6093(3) 0.1198(3)
C100 C 0.2966(9) 0.7042(9) -0.0829(6)
C104 C 0.6138(3) 0.5908(3) 0.1430(3)
C105 C 0.2493(8) 0.7068(9) -0.0620(6)
C109 C 0.6631(3) 0.6219(3) 0.1589(3)
C110 C 0.2845(9) 0.7816(9) 0.0085(9)
C114 C 0.4393(3) 0.3979(3) 0.1594(3)
C115 C 0.2162(9) 0.7179(11) 0.0069(9)
C119 C 0.4645(3) 0.4419(3) 0.1438(3)
C120 C 0.5601(6) 1.0863(5) 0.4394(4)
C124 C 0.4366(3) 0.4636(3) 0.1208(3)
C125 C 0.6158(5) 1.0891(6) 0.3848(5)
C129 C 0.3841(3) 0.4409(4) 0.1135(3)
C130 C 0.5508(7) 1.1323(6) 0.3849(6)
C134 C 0.3611(3) 0.3964(3) 0.1287(3)
C135 C 0.4925(6) 1.1203(6) 0.3832(6)
C139 C 0.3406(4) 0.5989(4) 0.0240(3)
C140 C 0.4694(7) 1.0816(7) 0.3071(5)
C144 C 0.6930(3) 0.7335(3) 0.2990(3)
C145 C 0.8391(6) 0.7505(6) 0.2434(5)
C148 C 0.3695(3) 0.5738(4) 0.0415(3)
C149 C 0.4159(7) 1.0581(7) 0.3658(6)
C153 C 0.4209(3) 0.5973(3) 0.0509(3)
C155 C 0.0749(9) 0.7209(9) 0.3748(9)
C158 C 0.4418(4) 0.6455(4) 0.0412(3)
C160 C 0.0392(10) 0.6607(10) 0.3267(9)
C163 C 0.4086(4) 0.6678(4) 0.0237(3)
C165 C 0.0338(10) 0.6567(10) 0.4073(9)
C168 C 0.5295(3) 0.5800(3) 0.1051(3)
C170 C 0.0139(8) 0.6058(8) 0.3993(8)
C173 C 0.4602(3) 0.5115(3) 0.1059(3)
C175 C 0.0301(10) 0.5304(9) 0.3711(8)
C178 C 0.4529(3) 0.5748(3) 0.0736(3)
C180 C 0.0802(14) 0.5934(14) 0.4412(13)
C183 C 0.3071(3) 0.3889(4) 0.2327(3)
C187 C 0.3019(3) 0.4266(4) 0.2651(3)
C191 C 0.3417(3) 0.4497(4) 0.2979(3)
C195 C 0.6732(3) 0.7741(3) 0.2988(3)
C196 C 0.8620(7) 0.7427(7) 0.1764(6)
C199 C 0.3860(3) 0.4354(3) 0.2945(3)
C203 C 0.3872(3) 0.3971(3) 0.2604(2)
C207 C 0.4994(4) 0.5837(3) 0.4580(3)
C211 C 0.4606(4) 0.5600(4) 0.4263(3)
C215 C 0.4134(4) 0.5706(4) 0.4285(3)
C219 C 0.4109(4) 0.6082(4) 0.4657(3)
C221 C 0.4499(4) 0.6290(4) 0.4955(3)
C223 C 0.2020(5) 0.6115(4) 0.4014(3)
C225 C 0.2469(5) 0.5968(4) 0.4027(3)
C227 C 0.2459(4) 0.5539(4) 0.3707(3)
C229 C 0.6764(4) 0.7962(3) 0.2639(3)
C230 C 0.8413(5) 0.7206(5) 0.1341(4)
C233 C 0.2051(4) 0.5321(4) 0.3393(3)
C235 C 0.1655(4) 0.5521(3) 0.3399(3)
C237 C 0.3376(4) 0.4886(4) 0.3337(3)
C239 C 0.3731(4) 0.5458(4) 0.3960(3)
C241 C 0.2921(4) 0.5356(4) 0.3680(3)
C243 C 0.3467(3) 0.7503(3) 0.0882(3)
C245 C 0.3494(4) 0.7657(4) 0.1309(3)
C247 C 0.3121(3) 0.7383(3) 0.1529(3)
C249 C 0.2759(4) 0.6952(4) 0.1306(3)
C251 C 0.2765(4) 0.6822(4) 0.0871(3)
C253 C 0.7003(3) 0.7782(3) 0.2301(3)
C254 C 0.7662(6) 0.6953(6) 0.0866(5)
C257 C 0.4181(3) 0.9295(3) 0.3448(3)
C259 C 0.3835(3) 0.8828(3) 0.3257(3)
C261 C 0.3846(3) 0.8640(3) 0.2830(3)
C263 C 0.4216(4) 0.8919(4) 0.2623(3)
C265 C 0.4552(3) 0.9385(3) 0.2829(3)
C267 C 0.1591(4) 0.6529(4) 0.2884(3)
C269 C 0.1971(4) 0.6759(4) 0.2642(3)
C271 C 0.2347(3) 0.7207(4) 0.2848(3)
C273 C 0.2342(4) 0.7394(4) 0.3280(3)
C275 C 0.1967(4) 0.7131(4) 0.3495(3)
C277 C 0.5767(3) 0.9601(3) 0.3359(3)
C278 C 0.7825(6) 0.6384(6) 0.1166(5)
C281 C 0.3125(3) 0.7561(3) 0.2005(3)
C283 C 0.3456(3) 0.8149(4) 0.2602(3)
C285 C 0.2768(3) 0.7481(4) 0.2602(3)
C294 C 0.5985(3) 0.9206(3) 0.3363(2)
C296 C 0.3243(12) 0.2662(11) 0.0900(9)
C309 C 0.5883(3) 0.8926(3) 0.3682(2)
C311 C 0.3996(15) 0.2643(14) 0.1140(13)
C324 C 0.5586(3) 0.9057(3) 0.3991(2)
C326 C 0.3175(12) 0.2154(11) 0.1396(9)
N1 N 0.5108(3) 0.5355(3) 0.1181(2)
N2 N 0.4667(3) 1.0716(3) 0.3494(3)
N4 N 0.4308(2) 0.5294(3) 0.0841(2)
N5 N 0.0597(3) 0.6684(4) 0.3654(5)
N7 N 0.5032(3) 0.6016(3) 0.0830(2)
N8 N 0.0654(4) 0.5898(4) 0.4063(4)
N14 N 0.1640(3) 0.5919(3) 0.3712(3)
N22 N 0.3110(3) 0.7092(3) 0.0660(2)
N24 N 0.7195(2) 0.7394(3) 0.2294(2)
N25 N 0.8248(3) 0.7610(3) 0.2039(3)
N27 N 0.4530(3) 0.9570(3) 0.3250(2)
N29 N 0.1595(3) 0.6707(3) 0.3302(3)
N31 N 0.3498(3) 0.7995(3) 0.2188(2)
N33 N 0.3108(3) 0.7910(3) 0.2830(2)
N35 N 0.2749(3) 0.7296(3) 0.2194(2)
N42 N 0.5482(2) 0.9732(2) 0.36634(19)
N43 N 0.7877(3) 0.6910(3) 0.1251(3)
N52 N 0.3483(2) 0.3736(2) 0.2299(2)
N53 N 0.4947(3) 0.6185(3) 0.4935(2)
N55 N 0.5816(3) 0.7010(3) 0.4981(2)
N56 N 0.3172(3) 0.2583(3) 0.2105(3)
N58 N 0.3784(3) 0.5111(3) 0.3636(3)
N59 N 0.3301(4) 0.5602(3) 0.3998(3)
N60 N 0.2932(3) 0.5000(3) 0.3354(2)
N67 N 0.6317(3) 0.8341(3) 0.3348(2)
N68 N 0.3564(3) 0.2608(3) 0.1304(3)
N70 N 0.5988(3) 0.8246(3) 0.4004(2)
N71 N 0.6132(3) 0.6907(3) 0.5854(2)
N73 N 0.6420(3) 0.7668(3) 0.3673(2)
N74 N 0.5263(3) 0.6047(3) 0.5782(2)
N77 N 0.6824(3) 0.6684(3) 0.1511(2)
N78 N 0.3148(3) 0.6630(3) -0.0637(2)
N80 N 0.3889(3) 0.3764(3) 0.1516(2)
N81 N 0.2645(3) 0.7272(3) -0.0137(2)
N84 N 0.3591(2) 0.6454(3) 0.0160(2)
N85 N 0.5611(3) 1.0858(3) 0.3934(3)
Pd1 Pd 0.75312(2) 0.71459(2) 0.17773(2)
Pd5 Pd 0.35310(2) 0.31781(2) 0.18068(2)
Pd6 Pd 0.55363(3) 0.65407(3) 0.53902(2)
Pd7 Pd 0.31219(2) 0.68600(3) 0.001565(19)
Pd8 Pd 0.50707(2) 1.02166(2) 0.35784(2)
Pd9 Pd 0.11094(3) 0.62926(3) 0.36604(3)
C15 C 0.3288(11) 0.6617(13) 0.3496(9)
C30 C 0.2893(9) 0.6355(14) 0.3163(11)
C45 C 0.2957(8) 0.5987(10) 0.2820(8)
C59 C 0.3449(10) 0.5914(11) 0.2787(8)
C68 C 0.4867(14) 0.6261(9) 0.2036(10)
C72 C 0.5331(10) 0.6656(14) 0.2039(9)
C76 C 0.5225(10) 0.6994(13) 0.1789(8)
C80 C 0.4696(10) 0.6806(10) 0.1640(6)
C84 C 0.4475(10) 0.6349(8) 0.1796(7)
C89 C 0.3944(11) 0.6079(11) 0.1686(12)
C93 C 0.4135(6) 0.7033(10) 0.2607(5)
C98 C 0.3654(9) 0.6241(13) 0.1415(10)
C103 C 0.3870(14) 0.6706(16) 0.1266(14)
C108 C 0.4391(14) 0.7004(13) 0.1401(13)
C147 C 0.5128(6) 0.7199(12) 0.2976(6)
C198 C 0.4606(14) 0.7667(7) 0.3439(11)
C232 C 0.5033(17) 0.7756(6) 0.2579(13)
C256 C 0.4214(9) 0.6704(9) 0.3775(5)
C280 C 0.4576(8) 0.6473(8) 0.3589(8)
C298 C 0.4347(8) 0.6140(6) 0.3191(8)
C313 C 0.3840(6) 0.6158(6) 0.3131(6)
C328 C 0.3750(6) 0.6492(8) 0.3491(6)
O35 O 0.3745(5) 0.7046(6) 0.2491(4)
O61 O 0.5535(6) 0.7163(12) 0.3099(7)
O73 O 0.4633(10) 0.8102(6) 0.3483(8)
O80 O 0.5111(8) 0.8197(6) 0.2576(7)
Ru2 Ru 0.44170(8) 0.69685(8) 0.31702(6)
Ru4 Ru 0.47994(9) 0.70502(8) 0.23727(8)
C112 C 0.1599(7) 0.8380(9) 0.7308(7)
C117 C 0.0562(8) 0.8470(11) 0.7149(10)
C122 C 0.1139(11) 0.8168(12) 0.6541(10)
C127 C 0.1455(15) 0.9238(16) 0.7199(14)
C132 C 0.0683(12) 0.7096(12) 0.6538(7)
C137 C 0.1102(9) 0.7091(9) 0.6800(9)
C142 C 0.0980(9) 0.7164(10) 0.7232(8)
C151 C 0.0479(8) 0.7217(10) 0.7230(6)
C156 C 0.0306(9) 0.7192(13) 0.6801(7)
C161 C -0.0191(11) 0.7207(16) 0.6702(9)
C166 C -0.0482(11) 0.7331(19) 0.7044(13)
C171 C -0.0332(10) 0.7300(14) 0.7460(10)
C176 C 0.0158(11) 0.7248(14) 0.7552(7)
C181 C 0.1415(8) 0.9414(7) 0.8142(7)
C185 C 0.1583(6) 0.9003(9) 0.8239(6)
C189 C 0.1137(7) 0.8585(7) 0.8244(6)
C193 C 0.0702(6) 0.8732(7) 0.8152(8)
C201 C 0.0878(6) 0.9251(7) 0.8091(8)
C205 C 0.0530(8) 0.9509(7) 0.8030(9)
C209 C -0.0003(8) 0.9231(9) 0.7943(10)
C213 C -0.0183(6) 0.8737(10) 0.8023(10)
C217 C 0.0158(8) 0.8472(8) 0.8113(9)
O42 O 0.1978(7) 0.8302(10) 0.7385(9)
O46 O 0.0158(8) 0.8528(11) 0.7092(10)
O50 O 0.1329(11) 0.8363(12) 0.6245(10)
O52 O 0.158(2) 0.9559(19) 0.7034(15)
Ru5 Ru 0.0910(3) 0.7938(2) 0.6984(2)
Ru7 Ru 0.11836(10) 0.88226(8) 0.75640(7)
N6 N 0.2948(14) 0.605(2) 0.5577(18)
O65 O 0.2506(10) 0.6076(12) 0.5709(10)
O67 O 0.3383(9) 0.5956(10) 0.5499(8)
O68 O 0.3012(15) 0.6248(17) 0.5248(15)
N26 N 0.4737(6) 0.3073(7) 0.2513(6)
O36 O 0.4698(4) 0.3270(4) 0.2245(4)
O62 O 0.4738(4) 0.3270(4) 0.2918(4)
O74 O 0.4885(8) 0.2688(9) 0.2397(7)
N44 N 0.5489(6) -0.0006(6) 0.5316(5)
O81 O 0.5357(8) -0.0440(8) 0.4962(7)
O102 O 0.5645(5) -0.0032(5) 0.5575(5)
O127 O 0.5339(7) 0.0372(8) 0.5228(6)
N69 N 0.4732(14) 0.7426(13) 0.6128(12)
O4 O 0.4302(17) 0.7446(16) 0.6092(13)
O11 O 0.5006(10) 0.7411(9) 0.5803(8)
O16 O 0.4799(19) 0.7738(19) 0.6533(17)
N72 N 0.9595(12) 0.4847(12) 0.4675(11)
O19 O 0.9910(9) 0.4586(8) 0.4789(7)
O20 O 0.9667(10) 0.5286(11) 0.4874(9)
O21 O 0.9356(10) 0.4692(9) 0.4407(7)
N75 N 0.6135(9) 0.5224(10) 0.4761(9)
O22 O 0.6324(9) 0.5150(10) 0.4436(9)
O24 O 0.6138(19) 0.4969(19) 0.5044(15)
O26 O 0.6013(8) 0.5614(9) 0.4875(7)
N79 N 0.7031(10) 0.5904(9) 0.6052(8)
O29 O 0.7093(11) 0.6264(12) 0.6380(9)
O37 O 0.6765(10) 0.5597(10) 0.5765(9)
O39 O 0.7429(10) 0.5999(10) 0.6016(7)
N83 N 0.4365(12) 0.0289(15) 0.7780(12)
O41 O 0.4310(8) -0.0149(11) 0.7473(8)
O45 O 0.4338(14) 0.0662(17) 0.7775(13)
O49 O 0.4422(12) 0.0180(13) 0.8216(11)
O1 O 0.1141(16) 1.0596(18) 0.7209(14)
O2 O 0.0542(14) 1.0974(14) 0.6891(12)
O5 O 0.4576(19) 0.4258(19) 1.0160(16)
O6 O 0.350(2) 0.422(2) 0.9719(19)
O7 O 0.4104(10) 0.5536(11) 0.9347(9)
O9 O 0.4822(9) 0.6502(10) 0.9179(8)
O10 O 0.0520(8) 0.5344(8) 0.2868(8)
O15 O 0.3331(13) 0.6909(13) 0.4739(11)
O28 O -0.2261(12) 0.9279(13) 0.8118(10)
O30 O 0.6651(10) 0.5839(11) 0.2610(9)
O31 O 0.5898(14) 0.4992(15) 0.2136(12)
O32 O 0.5235(12) 0.4427(13) 0.2674(11)
O38 O 0.0445(8) 0.4717(8) 0.7225(7)
O59 O 0.5330(13) 0.5262(15) 0.3564(11)
O77 O 0.3678(12) 0.7427(12) 0.5918(10)
O78 O 0.1299(12) 0.0903(13) 0.8555(11)
O82 O 0.5231(9) 0.2021(10) 0.4776(9)
O83 O 0.5225(12) 0.1641(13) 0.5269(10)
O85 O 0.4481(11) 0.2459(11) 0.9071(9)
O86 O 0.4078(16) 0.2391(16) 0.9965(14)
O88 O 0.2014(11) 0.0808(11) 0.3663(9)
O89 O 0.1048(13) 0.0498(13) 0.3874(10)
O91 O 0.1492(11) 0.6491(11) 0.8542(9)
O92 O 0.7581(6) 0.6768(5) 0.8633(5)
O93 O 0.8189(6) 0.6559(6) 0.8970(5)
O94 O 0.0201(7) 0.6665(7) 0.5249(6)
O95 O 0.0570(10) 0.7695(10) 0.5101(9)
O97 O 0.8902(14) 0.8708(15) 0.5585(11)
O98 O 0.9699(16) 0.9345(16) 0.5375(14)
O99 O 0.5665(18) 0.4962(19) 1.0257(16)
O103 O 0.9153(9) 0.3752(10) 0.4352(8)
O105 O 0.8320(8) 0.6350(8) 0.7503(7)
O107 O 0.6907(13) 0.8829(15) 0.6298(11)
O109 O 0.6948(16) 0.8627(17) 0.6887(14)
O110 O 0.5760(16) 0.1293(16) 0.5637(13)
O113 O 0.1648(10) 0.8371(11) 1.0053(10)
O115 O 0.883(2) 0.4844(19) 0.7921(17)
O117 O -0.0428(14) 0.0705(14) 0.9780(11)
O118 O 0.861(2) 0.778(2) 0.4795(18)
O120 O 0.0138(15) 0.1602(15) 0.9579(13)
O123 O 0.1985(10) 0.6158(11) 0.8377(8)
O125 O 0.8278(12) 0.4081(12) 0.8451(10)
O129 O 0.073(2) 0.330(3) 0.848(2)
O132 O 0.097(3) 0.461(3) 0.754(2)
O133 O 0.6139(8) 0.5258(8) 0.4008(7)
O137 O 0.666(2) 0.047(2) 0.763(2)
O140 O 0.110(3) 0.408(3) 0.894(2)
O141 O 0.7631(7) 0.1964(8) 0.8953(6)
O143 O 0.2912(6) 0.6079(8) 0.8040(5)
O146 O 0.7507(17) 0.1811(19) 0.8018(15)
O147 O 0.2168(15) 0.4887(15) 0.9568(13)
O148 O 0.2611(14) 0.4306(15) 1.0230(13)
O149 O 0.7204(9) 0.5138(9) 0.9069(8)
O151 O 0.7116(10) 0.1057(11) 0.7453(9)
O152 O 0.7039(10) 0.6409(11) 0.3904(9)
O153 O 0.997(2) 1.010(2) 0.5639(17)
O154 O 0.4298(6) 0.1005(7) 0.4799(5)
O160 O 0.7350(14) 0.8328(14) 0.4424(12)
C1 C -0.0475(6) 1.0252(5) 0.7495(5)
C2 C 0.1403(4) 0.9983(4) 0.5935(5)
C3 C 0.0985(4) 0.9805(4) 0.6140(4)
C4 C 0.0684(4) 0.9313(4) 0.6001(4)
C5 C 0.0824(5) 0.9009(5) 0.5649(4)
C6 C 0.1262(4) 0.9223(4) 0.5461(4)
C7 C -0.0486(4) 0.8381(4) 0.6191(4)
C8 C -0.0367(4) 0.9138(4) 0.6649(4)
C9 C 0.0222(5) 0.9079(5) 0.6192(4)
C10 C 0.2965(4) 0.7095(4) 0.7325(3)
C16 C 0.2975(4) 0.7593(4) 0.7390(3)
C17 C 0.2927(3) 0.7819(4) 0.7044(3)
C18 C 0.2845(4) 0.7501(4) 0.6631(3)
C19 C 0.2828(4) 0.6994(4) 0.6592(3)
C20 C 0.3139(4) 1.0226(4) 0.8455(3)
C21 C 0.3049(4) 0.9932(3) 0.8054(3)
C22 C 0.3095(4) 0.9440(4) 0.7980(3)
C23 C 0.3227(4) 0.9260(4) 0.8335(3)
C24 C 0.3302(4) 0.9566(3) 0.8733(3)
C25 C 0.2471(4) 0.9165(4) 0.5736(3)
C31 C 0.2601(4) 0.8957(4) 0.6081(3)
C32 C 0.2748(3) 0.9252(4) 0.6468(3)
C33 C 0.2777(4) 0.9781(4) 0.6534(3)
C34 C 0.2657(4) 0.9968(4) 0.6180(3)
C35 C 0.2940(4) 0.8358(4) 0.7104(3)
C36 C 0.3015(4) 0.9122(4) 0.7549(3)
C37 C 0.2853(4) 0.9027(4) 0.6843(3)
C38 C -0.0664(4) 0.7482(5) 0.9231(4)
C39 C -0.0480(4) 0.7992(4) 0.9168(4)
C40 C 0.0042(4) 0.8231(4) 0.9258(3)
C46 C 0.0341(4) 0.7954(5) 0.9387(4)
C47 C 0.0123(4) 0.7458(4) 0.9435(4)
C48 C -0.0293(5) 1.0466(5) 0.8631(4)
C49 C 0.0031(5) 1.0259(5) 0.8809(3)
C50 C -0.0183(4) 0.9770(5) 0.8906(3)
C51 C -0.0706(4) 0.9523(5) 0.8813(3)
C52 C -0.0979(4) 0.9773(5) 0.8604(4)
C53 C 0.2352(5) 0.9692(4) 0.9464(4)
C54 C 0.1823(4) 0.9443(4) 0.9399(4)
C55 C 0.1498(4) 0.9690(4) 0.9273(3)
C60 C 0.1703(4) 1.0184(4) 0.9192(4)
C61 C 0.2236(4) 1.0400(4) 0.9242(3)
C62 C 0.0254(5) 0.8769(4) 0.9214(3)
C63 C 0.0147(4) 0.9496(4) 0.9052(3)
C64 C 0.0939(4) 0.9466(4) 0.9220(4)
C184 C -0.2460(5) 0.6546(5) 0.5087(4)
C188 C -0.1863(4) 0.6423(5) 0.4590(4)
C192 C -0.2523(6) 0.5685(6) 0.4714(5)
C200 C -0.2362(5) 0.5299(5) 0.4733(4)
C204 C -0.1702(5) 0.5007(5) 0.5044(5)
C208 C -0.2414(6) 0.5081(6) 0.5426(5)
C212 C 0.2459(4) 0.5011(4) 0.7136(3)
C216 C 0.2545(4) 0.4972(4) 0.6387(3)
C220 C 0.3297(4) 0.5234(4) 0.6891(4)
C222 C 0.3655(4) 0.5628(4) 0.6705(3)
C224 C 0.3844(5) 0.6500(5) 0.6598(4)
C226 C 0.3842(4) 0.6356(5) 0.7317(4)
C228 C -0.0451(7) 0.6818(8) 1.0314(6)
C234 C -0.1122(7) 0.7084(7) 1.0086(6)
C236 C -0.1242(7) 0.6180(7) 1.0077(6)
C238 C -0.1108(7) 0.5742(7) 0.9883(5)
C240 C -0.1495(7) 0.5496(7) 0.9158(6)
C242 C -0.0700(6) 0.5363(6) 0.9300(5)
C244 C 0.3012(8) 1.1161(8) 1.0083(7)
C246 C 0.3360(6) 1.0589(6) 1.0314(5)
C248 C 0.3890(6) 1.1280(7) 1.0043(6)
C250 C 0.4254(6) 1.1077(6) 0.9868(5)
C252 C 0.4353(6) 1.0403(6) 0.9264(5)
C258 C 0.4200(6) 1.1212(6) 0.9142(5)
C260 C -0.1162(12) 1.1027(14) 0.7430(13)
C262 C -0.1972(10) 1.0330(11) 0.7365(10)
C264 C -0.1891(16) 1.095(2) 0.7865(11)
C266 C -0.1796(11) 1.1132(13) 0.8337(10)
C268 C -0.1038(8) 1.1293(9) 0.8848(7)
C270 C -0.1751(8) 1.0587(8) 0.8794(7)
C272 C 0.3271(7) 1.0586(7) 0.5334(6)
C274 C 0.3116(9) 0.9677(10) 0.4957(8)
C276 C 0.2747(9) 1.0295(9) 0.4646(7)
C282 C 0.2367(7) 1.0463(7) 0.4648(6)
C284 C 0.1637(8) 0.9803(8) 0.4546(7)
C286 C 0.1671(8) 1.0572(8) 0.5029(7)
C287 C -0.1404(3) 0.5935(3) 0.6229(3)
C288 C -0.1082(3) 0.5917(3) 0.6563(3)
C289 C -0.0594(3) 0.5897(3) 0.6480(3)
C290 C -0.0450(3) 0.5896(3) 0.6068(3)
C291 C -0.0789(3) 0.5925(3) 0.5759(3)
C292 C 0.1733(3) 0.5845(4) 0.6573(3)
C293 C 0.1227(3) 0.5835(4) 0.6615(3)
C299 C 0.1068(3) 0.5882(4) 0.7018(3)
C300 C 0.1405(3) 0.5924(4) 0.7362(3)
C301 C 0.1890(3) 0.5930(4) 0.7295(3)
C302 C -0.0036(3) 0.6207(4) 0.8729(3)
C303 C 0.0115(3) 0.6100(4) 0.8326(3)
C304 C -0.0195(3) 0.6097(3) 0.7981(3)
C305 C -0.0649(3) 0.6182(4) 0.8039(3)
C306 C -0.0791(3) 0.6277(5) 0.8459(3)
C307 C -0.0227(3) 0.5908(3) 0.6834(3)
C308 C 0.0539(3) 0.5894(3) 0.7095(3)
C314 C -0.0046(3) 0.5997(3) 0.7540(3)
C315 C -0.0920(3) 0.7067(4) 0.5479(3)
C316 C -0.0626(4) 0.7575(4) 0.5655(3)
C317 C -0.0789(3) 0.7837(4) 0.5999(3)
C318 C -0.1243(4) 0.7608(4) 0.6148(3)
C319 C -0.1519(3) 0.7101(4) 0.5963(3)
C320 C -0.1192(5) 0.9548(5) 0.7459(4)
C321 C -0.1005(5) 0.9258(5) 0.7148(4)
C322 C -0.0552(4) 0.9444(4) 0.6996(4)
C323 C -0.0269(5) 0.9949(4) 0.7165(4)
N10 N -0.1260(2) 0.5941(3) 0.5833(2)
N11 N -0.2159(3) 0.6223(3) 0.4924(2)
N12 N 0.2059(2) 0.5901(3) 0.6916(2)
N13 N -0.2063(3) 0.5307(3) 0.5125(2)
N15 N 0.2764(3) 0.5255(3) 0.6828(2)
N16 N 0.0223(2) 0.5862(3) 0.6745(2)
N17 N 0.3593(3) 0.6149(3) 0.6867(2)
N18 N 0.0422(2) 0.5958(3) 0.7491(2)
N19 N 0.4092(4) 1.0783(4) 0.9409(3)
N20 N -0.0386(3) 0.5980(3) 0.7226(2)
N21 N 0.3383(4) 1.0888(4) 1.0011(4)
N23 N -0.1561(9) 1.0726(8) 0.7661(8)
N28 N -0.1455(6) 1.0928(6) 0.8549(5)
N30 N -0.0890(4) 0.6651(5) 0.9992(3)
N32 N -0.1020(4) 0.5698(4) 0.9415(3)
N34 N 0.2876(5) 1.0159(5) 0.5067(3)
N36 N 0.1917(5) 1.0231(5) 0.4871(4)
N37 N 0.2880(3) 0.6786(3) 0.6941(2)
N38 N 0.3253(3) 1.0049(3) 0.8795(3)
N39 N 0.2505(3) 0.9669(3) 0.5805(2)
N40 N 0.3024(3) 0.8633(3) 0.7510(3)
N41 N 0.2935(3) 0.9340(3) 0.7228(2)
N45 N 0.2848(3) 0.8540(3) 0.6763(2)
N46 N -0.0377(3) 0.7212(3) 0.9356(2)
N47 N 0.2547(3) 1.0151(3) 0.9366(3)
N48 N -0.0791(4) 1.0225(5) 0.8517(3)
N49 N 0.0775(3) 0.8965(4) 0.9279(3)
N50 N 0.0655(3) 0.9741(3) 0.9126(3)
N51 N -0.0065(3) 0.9021(4) 0.9106(3)
N54 N -0.0481(3) 0.6278(3) 0.8794(2)
N61 N -0.1355(3) 0.6840(3) 0.5637(2)
N62 N -0.0918(4) 1.0056(4) 0.7625(3)
N63 N 0.1548(3) 0.9702(3) 0.5597(3)
N64 N -0.0666(3) 0.8644(3) 0.6500(3)
N65 N 0.0069(3) 0.9376(3) 0.6505(3)
N66 N -0.0054(3) 0.8573(3) 0.6023(3)
Pd2 Pd 0.33158(3) 1.04681(3) 0.93946(3)
Pd3 Pd -0.11731(4) 1.04812(4) 0.80840(4)
Pd4 Pd 0.22143(3) 0.99441(3) 0.53425(3)
Pd10 Pd -0.17116(2) 0.60782(3) 0.53830(2)
Pd11 Pd 0.28202(2) 0.60203(3) 0.68765(2)
Pd12 Pd -0.06809(3) 0.64633(3) 0.93925(2)
loop_
_geom_bond_atom_site_label_1
_geom_bond_atom_site_label_2
_geom_bond_site_symmetry_1
_geom_bond_site_symmetry_2
C1 C323 1_555 1_555
C2 C3 1_555 1_555
C3 C4 1_555 1_555
C4 C5 1_555 1_555
C5 C6 1_555 1_555
C6 N63 1_555 1_555
C7 C317 1_555 1_555
C8 C322 1_555 1_555
C9 C4 1_555 1_555
C10 C16 1_555 1_555
C11 C324 1_555 1_555
C12 C326 1_555 1_555
C15 C30 1_555 1_555
C16 C17 1_555 1_555
C17 C18 1_555 1_555
C18 C19 1_555 1_555
C19 N37 1_555 1_555
C20 C21 1_555 1_555
C21 C22 1_555 1_555
C22 C23 1_555 1_555
C23 C24 1_555 1_555
C24 N38 1_555 1_555
C25 C31 1_555 1_555
C26 C41 1_555 1_555
C27 N56 1_555 1_555
C30 C45 1_555 1_555
C31 C32 1_555 1_555
C32 C33 1_555 1_555
C33 C34 1_555 1_555
C34 N39 1_555 1_555
C35 C17 1_555 1_555
C36 C22 1_555 1_555
C37 C32 1_555 1_555
C38 C39 1_555 1_555
C39 C40 1_555 1_555
C40 C46 1_555 1_555
C41 C56 1_555 1_555
C42 N56 1_555 1_555
C45 C59 1_555 1_555
C46 C47 1_555 1_555
C47 N46 1_555 1_555
C48 C49 1_555 1_555
C49 C50 1_555 1_555
C50 C51 1_555 1_555
C51 C52 1_555 1_555
C52 N48 1_555 1_555
C53 C54 1_555 1_555
C54 C55 1_555 1_555
C55 C60 1_555 1_555
C56 C65 1_555 1_555
C57 N74 1_555 1_555
C59 C313 1_555 1_555
C60 C61 1_555 1_555
C61 N47 1_555 1_555
C62 C40 1_555 1_555
C63 C50 1_555 1_555
C64 C55 1_555 1_555
C65 C69 1_555 1_555
C66 N74 1_555 1_555
C68 C72 1_555 1_555
C69 N55 1_555 1_555
C70 C74 1_555 1_555
C72 C76 1_555 1_555
C73 C195 1_555 1_555
C74 N71 1_555 1_555
C76 C80 1_555 1_555
C77 C309 1_555 1_555
C78 N71 1_555 1_555
C80 C84 1_555 1_555
C81 C56 1_555 1_555
C82 N71 1_555 1_555
C84 C68 1_555 1_555
C85 C94 1_555 1_555
C86 N78 1_555 1_555
C89 C84 1_555 1_555
C90 C144 1_555 1_555
C91 N25 1_555 1_555
C93 O35 1_555 1_555
C94 C99 1_555 1_555
C95 N78 1_555 1_555
C98 C89 1_555 1_555
C99 C104 1_555 1_555
C100 C105 1_555 1_555
C103 C98 1_555 1_555
C104 C109 1_555 1_555
C105 N81 1_555 1_555
C108 C80 1_555 1_555
C109 N77 1_555 1_555
C110 N81 1_555 1_555
C112 O42 1_555 1_555
C114 C119 1_555 1_555
C115 N81 1_555 1_555
C117 O46 1_555 1_555
C119 C124 1_555 1_555
C120 N85 1_555 1_555
C122 O50 1_555 1_555
C124 C129 1_555 1_555
C125 N85 1_555 1_555
C127 O52 1_555 1_555
C129 C134 1_555 1_555
C130 C135 1_555 1_555
C132 C137 1_555 1_555
C134 N80 1_555 1_555
C135 N2 1_555 1_555
C137 C142 1_555 1_555
C139 C148 1_555 1_555
C140 N2 1_555 1_555
C142 C151 1_555 1_555
C144 C195 1_555 1_555
C145 N25 1_555 1_555
C147 O61 1_555 1_555
C148 C153 1_555 1_555
C149 N2 1_555 1_555
C151 C156 1_555 1_555
C153 C158 1_555 1_555
C155 N5 1_555 1_555
C156 C132 1_555 1_555
C158 C163 1_555 1_555
C160 N5 1_555 1_555
C161 C156 1_555 1_555
C163 N84 1_555 1_555
C165 C170 1_555 1_555
C166 C161 1_555 1_555
C168 C99 1_555 1_555
C170 N8 1_555 1_555
C171 C166 1_555 1_555
C173 C124 1_555 1_555
C175 N8 1_555 1_555
C176 C151 1_555 1_555
C178 C153 1_555 1_555
C180 N8 1_555 1_555
C181 C185 1_555 1_555
C183 C187 1_555 1_555
C184 N11 1_555 1_555
C185 C189 1_555 1_555
C187 C191 1_555 1_555
C188 N11 1_555 1_555
C189 C193 1_555 1_555
C191 C199 1_555 1_555
C192 C200 1_555 1_555
C193 C201 1_555 1_555
C195 C229 1_555 1_555
C196 C230 1_555 1_555
C198 O73 1_555 1_555
C199 C203 1_555 1_555
C200 N13 1_555 1_555
C201 C181 1_555 1_555
C203 N52 1_555 1_555
C204 N13 1_555 1_555
C205 C201 1_555 1_555
C207 C211 1_555 1_555
C208 N13 1_555 1_555
C209 C205 1_555 1_555
C211 C215 1_555 1_555
C212 N15 1_555 1_555
C213 C209 1_555 1_555
C215 C219 1_555 1_555
C216 N15 1_555 1_555
C217 C193 1_555 1_555
C219 C221 1_555 1_555
C220 C222 1_555 1_555
C221 N53 1_555 1_555
C222 N17 1_555 1_555
C223 C225 1_555 1_555
C224 N17 1_555 1_555
C225 C227 1_555 1_555
C226 N17 1_555 1_555
C227 C233 1_555 1_555
C228 N30 1_555 1_555
C229 C253 1_555 1_555
C230 N43 1_555 1_555
C232 O80 1_555 1_555
C233 C235 1_555 1_555
C234 N30 1_555 1_555
C235 N14 1_555 1_555
C236 C238 1_555 1_555
C237 C191 1_555 1_555
C238 N32 1_555 1_555
C239 C215 1_555 1_555
C240 N32 1_555 1_555
C241 C227 1_555 1_555
C242 N32 1_555 1_555
C243 C245 1_555 1_555
C244 N21 1_555 1_555
C245 C247 1_555 1_555
C246 N21 1_555 1_555
C247 C249 1_555 1_555
C248 C250 1_555 1_555
C249 C251 1_555 1_555
C250 N19 1_555 1_555
C251 N22 1_555 1_555
C252 N19 1_555 1_555
C253 N24 1_555 1_555
C254 N43 1_555 1_555
C256 C280 1_555 1_555
C257 C259 1_555 1_555
C258 N19 1_555 1_555
C259 C261 1_555 1_555
C260 N23 1_555 1_555
C261 C263 1_555 1_555
C262 N23 1_555 1_555
C263 C265 1_555 1_555
C264 C266 1_555 1_555
C265 N27 1_555 1_555
C266 N28 1_555 1_555
C267 C269 1_555 1_555
C268 N28 1_555 1_555
C269 C271 1_555 1_555
C270 N28 1_555 1_555
C271 C273 1_555 1_555
C272 N34 1_555 1_555
C273 C275 1_555 1_555
C274 N34 1_555 1_555
C275 N29 1_555 1_555
C276 C282 1_555 1_555
C277 C294 1_555 1_555
C278 N43 1_555 1_555
C280 C298 1_555 1_555
C281 C247 1_555 1_555
C282 N36 1_555 1_555
C283 C261 1_555 1_555
C284 N36 1_555 1_555
C285 C271 1_555 1_555
C286 N36 1_555 1_555
C287 C288 1_555 1_555
C288 C289 1_555 1_555
C289 C290 1_555 1_555
C290 C291 1_555 1_555
C291 N10 1_555 1_555
C292 C293 1_555 1_555
C293 C299 1_555 1_555
C294 C309 1_555 1_555
C296 N68 1_555 1_555
C298 C313 1_555 1_555
C299 C300 1_555 1_555
C300 C301 1_555 1_555
C301 N12 1_555 1_555
C302 C303 1_555 1_555
C303 C304 1_555 1_555
C304 C305 1_555 1_555
C305 C306 1_555 1_555
C306 N54 1_555 1_555
C307 C289 1_555 1_555
C308 C299 1_555 1_555
C309 C324 1_555 1_555
C311 N68 1_555 1_555
C313 C328 1_555 1_555
C314 C304 1_555 1_555
C315 C316 1_555 1_555
C316 C317 1_555 1_555
C317 C318 1_555 1_555
C318 C319 1_555 1_555
C319 N61 1_555 1_555
C320 C321 1_555 1_555
C321 C322 1_555 1_555
C322 C323 1_555 1_555
C326 N68 1_555 1_555
C328 C15 1_555 1_555
N1 C168 1_555 1_555
N2 Pd8 1_555 1_555
N4 C173 1_555 1_555
N5 C165 1_555 1_555
N6 O65 1_555 1_555
N7 C168 1_555 1_555
N8 Pd9 1_555 1_555
N10 C287 1_555 1_555
N11 C192 1_555 1_555
N12 C292 1_555 1_555
N13 Pd10 1_555 1_555
N14 C223 1_555 1_555
N15 C220 1_555 1_555
N16 C307 1_555 1_555
N17 Pd11 1_555 1_555
N18 C308 1_555 1_555
N19 Pd2 1_555 1_555
N20 C307 1_555 1_555
N21 C248 1_555 1_555
N22 C243 1_555 1_555
N23 C264 1_555 1_555
N24 C90 1_555 1_555
N25 C196 1_555 1_555
N26 O36 1_555 1_555
N27 C257 1_555 1_555
N28 Pd3 1_555 1_555
N29 C267 1_555 1_555
N30 C236 1_555 1_555
N31 C281 1_555 1_555
N32 Pd12 1_555 1_555
N33 C283 1_555 1_555
N34 C276 1_555 1_555
N35 C281 1_555 1_555
N36 Pd4 1_555 1_555
N37 C10 1_555 1_555
N38 C20 1_555 1_555
N39 C25 1_555 1_555
N40 C35 1_555 1_555
N41 C36 1_555 1_555
N42 C11 1_555 1_555
N43 Pd1 1_555 1_555
N44 O81 1_555 1_555
N45 C35 1_555 1_555
N46 C38 1_555 1_555
N47 C53 1_555 1_555
N48 C48 1_555 1_555
N49 C62 1_555 1_555
N50 C63 1_555 1_555
N51 C62 1_555 1_555
N52 C183 1_555 1_555
N53 C207 1_555 1_555
N54 C302 1_555 1_555
N55 C26 1_555 1_555
N56 C12 1_555 1_555
N58 C237 1_555 1_555
N59 C239 1_555 1_555
N60 C237 1_555 1_555
N61 C315 1_555 1_555
N62 C1 1_555 1_555
N63 C2 1_555 1_555
N64 C7 1_555 1_555
N65 C8 1_555 1_555
N66 C7 1_555 1_555
N67 C73 1_555 1_555
N68 Pd5 1_555 1_555
N69 O4 1_555 1_555
N70 C77 1_555 1_555
N71 Pd6 1_555 1_555
N72 O19 1_555 1_555
N73 C73 1_555 1_555
N74 C70 1_555 1_555
N75 O22 1_555 1_555
N77 C85 1_555 1_555
N78 C100 1_555 1_555
N79 O29 1_555 1_555
N80 C114 1_555 1_555
N81 Pd7 1_555 1_555
N83 O41 1_555 1_555
N84 C139 1_555 1_555
N85 C130 1_555 1_555
O11 N69 1_555 1_555
O16 N69 1_555 1_555
O20 N72 1_555 1_555
O21 N72 1_555 1_555
O24 N75 1_555 1_555
O26 N75 1_555 1_555
O37 N79 1_555 1_555
O39 N79 1_555 1_555
O45 N83 1_555 1_555
O49 N83 1_555 1_555
O62 N26 1_555 1_555
O67 N6 1_555 1_555
O68 N6 1_555 1_555
O74 N26 1_555 1_555
O102 N44 1_555 1_555
O127 N44 1_555 1_555
Pd1 N24 1_555 1_555
Pd2 N21 1_555 1_555
Pd3 N23 1_555 1_555
Pd4 N34 1_555 1_555
Pd5 N52 1_555 1_555
Pd6 N53 1_555 1_555
Pd7 N22 1_555 1_555
Pd8 N27 1_555 1_555
Pd9 N5 1_555 1_555
Pd10 N10 1_555 1_555
Pd11 N12 1_555 1_555
Pd12 N30 1_555 1_555
Ru2 C93 1_555 1_555
Ru4 C68 1_555 1_555
Ru5 C112 1_555 1_555
Ru7 C112 1_555 1_555
C8 N64 1_555 1_555
C9 N65 1_555 1_555
C9 N66 1_555 1_555
C36 N40 1_555 1_555
C37 N41 1_555 1_555
C37 N45 1_555 1_555
C63 N51 1_555 1_555
C64 N49 1_555 1_555
C64 N50 1_555 1_555
C72 Ru4 1_555 1_555
C76 Ru4 1_555 1_555
C77 N67 1_555 1_555
C80 Ru4 1_555 1_555
C81 N70 1_555 1_555
C81 N73 1_555 1_555
C84 Ru4 1_555 1_555
C93 Ru4 1_555 1_555
C103 C108 1_555 1_555
C117 Ru5 1_555 1_555
C117 Ru7 1_555 1_555
C122 Ru5 1_555 1_555
C127 Ru7 1_555 1_555
C132 Ru5 1_555 1_555
C137 Ru5 1_555 1_555
C142 Ru5 1_555 1_555
C147 Ru2 1_555 1_555
C147 Ru4 1_555 1_555
C151 Ru5 1_555 1_555
C156 Ru5 1_555 1_555
C171 C176 1_555 1_555
C173 N1 1_555 1_555
C178 N4 1_555 1_555
C178 N7 1_555 1_555
C181 Ru7 1_555 1_555
C185 Ru7 1_555 1_555
C189 Ru7 1_555 1_555
C193 Ru7 1_555 1_555
C198 Ru2 1_555 1_555
C201 Ru7 1_555 1_555
C213 C217 1_555 1_555
C232 Ru4 1_555 1_555
C239 N58 1_555 1_555
C241 N59 1_555 1_555
C241 N60 1_555 1_555
C256 C328 1_555 1_555
C256 Ru2 1_555 1_555
C277 N42 1_555 1_555
C280 Ru2 1_555 1_555
C283 N31 1_555 1_555
C285 N33 1_555 1_555
C285 N35 1_555 1_555
C298 Ru2 1_555 1_555
C308 N16 1_555 1_555
C313 Ru2 1_555 1_555
C314 N18 1_555 1_555
C314 N20 1_555 1_555
C320 N62 1_555 1_555
C328 Ru2 1_555 1_555
N11 Pd10 1_555 1_555
N14 Pd9 1_555 1_555
N15 Pd11 1_555 1_555
N25 Pd1 1_555 1_555
N29 Pd9 1_555 1_555
N37 Pd11 1_555 1_555
N38 Pd2 1_555 1_555
N39 Pd4 1_555 1_555
N42 Pd8 1_555 1_555
N46 Pd12 1_555 1_555
N47 Pd2 1_555 1_555
N48 Pd3 1_555 1_555
N54 Pd12 1_555 1_555
N55 Pd6 1_555 1_555
N56 Pd5 1_555 1_555
N61 Pd10 1_555 1_555
N62 Pd3 1_555 1_555
N63 Pd4 1_555 1_555
N74 Pd6 1_555 1_555
N77 Pd1 1_555 1_555
N78 Pd7 1_555 1_555
N80 Pd5 1_555 1_555
N84 Pd7 1_555 1_555
N85 Pd8 1_555 1_555
Ru2 Ru4 1_555 1_555
Ru5 Ru7 1_555 1_555

#END
