# generated using pymatgen
data_Pd12Ru8C328N85O161
_symmetry_space_group_name_H-M   'P 1'
_cell_length_a   27.58000000
_cell_length_b   27.63800000
_cell_length_c   32.09500000
_cell_angle_alpha   100.98700000
_cell_angle_beta   92.09800000
_cell_angle_gamma   107.12300000
_symmetry_Int_Tables_number   1
_chemical_formula_structural   Pd12Ru8C328N85O161
_chemical_formula_sum   'Pd24 Ru16 C656 N170 O322'
_cell_volume   22839.28966544
_cell_formula_units_Z   2
loop_
 _symmetry_equiv_pos_site_id
 _symmetry_equiv_pos_as_xyz
  1  'x, y, z'
loop_
 _atom_site_type_symbol
 _atom_site_label
 _atom_site_symmetry_multiplicity
 _atom_site_fract_x
 _atom_site_fract_y
 _atom_site_fract_z
 _atom_site_occupancy
  Pd  Pd1  1  0.753120  0.714590  0.177730  1
  Pd  Pd2  1  0.246880  0.285410  0.822270  1
  Pd  Pd3  1  0.353100  0.317810  0.180680  1
  Pd  Pd4  1  0.646900  0.682190  0.819320  1
  Pd  Pd5  1  0.553630  0.654070  0.539020  1
  Pd  Pd6  1  0.446370  0.345930  0.460980  1
  Pd  Pd7  1  0.312190  0.686000  0.001565  1
  Pd  Pd8  1  0.687810  0.314000  0.998435  1
  Pd  Pd9  1  0.507070  0.021660  0.357840  1
  Pd  Pd10  1  0.492930  0.978340  0.642160  1
  Pd  Pd11  1  0.110940  0.629260  0.366040  1
  Pd  Pd12  1  0.889060  0.370740  0.633960  1
  Pd  Pd13  1  0.331580  0.046810  0.939460  1
  Pd  Pd14  1  0.668420  0.953190  0.060540  1
  Pd  Pd15  1  0.882690  0.048120  0.808400  1
  Pd  Pd16  1  0.117310  0.951880  0.191600  1
  Pd  Pd17  1  0.221430  0.994410  0.534250  1
  Pd  Pd18  1  0.778570  0.005590  0.465750  1
  Pd  Pd19  1  0.828840  0.607820  0.538300  1
  Pd  Pd20  1  0.171160  0.392180  0.461700  1
  Pd  Pd21  1  0.282020  0.602030  0.687650  1
  Pd  Pd22  1  0.717980  0.397970  0.312350  1
  Pd  Pd23  1  0.931910  0.646330  0.939250  1
  Pd  Pd24  1  0.068090  0.353670  0.060750  1
  Ru  Ru25  1  0.441700  0.696850  0.317020  1
  Ru  Ru26  1  0.558300  0.303150  0.682980  1
  Ru  Ru27  1  0.479940  0.705020  0.237270  1
  Ru  Ru28  1  0.520060  0.294980  0.762730  1
  Ru  Ru29  1  0.091000  0.793800  0.698400  1
  Ru  Ru30  1  0.909000  0.206200  0.301600  1
  Ru  Ru31  1  0.118360  0.882260  0.756400  1
  Ru  Ru32  1  0.881640  0.117740  0.243600  1
  Ru  Ru33  1  0.398240  0.617240  0.223040  1
  Ru  Ru34  1  0.601760  0.382760  0.776960  1
  Ru  Ru35  1  0.488600  0.626600  0.261600  1
  Ru  Ru36  1  0.511400  0.373400  0.738400  1
  Ru  Ru37  1  0.093800  0.785270  0.694290  1
  Ru  Ru38  1  0.906200  0.214730  0.305710  1
  Ru  Ru39  1  0.022460  0.780530  0.755740  1
  Ru  Ru40  1  0.977540  0.219470  0.244260  1
  C  C41  1  0.539400  0.946200  0.397900  1
  C  C42  1  0.460600  0.053800  0.602100  1
  C  C43  1  0.316300  0.213300  0.181800  1
  C  C44  1  0.683700  0.786700  0.818200  1
  C  C45  1  0.567000  0.742500  0.498400  1
  C  C46  1  0.433000  0.257500  0.501600  1
  C  C47  1  0.342700  0.260000  0.249400  1
  C  C48  1  0.657300  0.740000  0.750600  1
  C  C49  1  0.579100  0.772900  0.466400  1
  C  C50  1  0.420900  0.227100  0.533600  1
  C  C51  1  0.262600  0.256500  0.216800  1
  C  C52  1  0.737400  0.743500  0.783200  1
  C  C53  1  0.605500  0.755600  0.433800  1
  C  C54  1  0.394500  0.244400  0.566200  1
  C  C55  1  0.483500  0.616000  0.600700  1
  C  C56  1  0.516500  0.384000  0.399300  1
  C  C57  1  0.621400  0.712900  0.434800  1
  C  C58  1  0.378600  0.287100  0.565200  1
  C  C59  1  0.507100  0.548600  0.556100  1
  C  C60  1  0.492900  0.451400  0.443900  1
  C  C61  1  0.609300  0.686100  0.467700  1
  C  C62  1  0.390700  0.313900  0.532300  1
  C  C63  1  0.570200  0.611200  0.609100  1
  C  C64  1  0.429800  0.388800  0.390900  1
  C  C65  1  0.648100  0.792100  0.336000  1
  C  C66  1  0.351900  0.207900  0.664000  1
  C  C67  1  0.598700  0.667400  0.624200  1
  C  C68  1  0.401300  0.332600  0.375800  1
  C  C69  1  0.608500  0.847700  0.367600  1
  C  C70  1  0.391500  0.152300  0.632400  1
  C  C71  1  0.659600  0.682800  0.570200  1
  C  C72  1  0.340400  0.317200  0.429800  1
  C  C73  1  0.617200  0.784300  0.399500  1
  C  C74  1  0.382800  0.215700  0.600500  1
  C  C75  1  0.623200  0.747000  0.597600  1
  C  C76  1  0.376800  0.253000  0.402400  1
  C  C77  1  0.652900  0.687300  0.128400  1
  C  C78  1  0.347100  0.312700  0.871600  1
  C  C79  1  0.278800  0.608200  0.923400  1
  C  C80  1  0.721200  0.391800  0.076600  1
  C  C81  1  0.717100  0.717100  0.263200  1
  C  C82  1  0.282900  0.282900  0.736800  1
  C  C83  1  0.827800  0.814300  0.205400  1
  C  C84  1  0.172200  0.185700  0.794600  1
  C  C85  1  0.603600  0.658200  0.112500  1
  C  C86  1  0.396400  0.341800  0.887500  1
  C  C87  1  0.363800  0.668000  0.922600  1
  C  C88  1  0.636200  0.332000  0.077400  1
  C  C89  1  0.583600  0.609300  0.119800  1
  C  C90  1  0.416400  0.390700  0.880200  1
  C  C91  1  0.296600  0.704200  0.917100  1
  C  C92  1  0.703400  0.295800  0.082900  1
  C  C93  1  0.613800  0.590800  0.143000  1
  C  C94  1  0.386200  0.409200  0.857000  1
  C  C95  1  0.249300  0.706800  0.938000  1
  C  C96  1  0.750700  0.293200  0.062000  1
  C  C97  1  0.663100  0.621900  0.158900  1
  C  C98  1  0.336900  0.378100  0.841100  1
  C  C99  1  0.284500  0.781600  0.008500  1
  C  C100  1  0.715500  0.218400  0.991500  1
  C  C101  1  0.439300  0.397900  0.159400  1
  C  C102  1  0.560700  0.602100  0.840600  1
  C  C103  1  0.216200  0.717900  0.006900  1
  C  C104  1  0.783800  0.282100  0.993100  1
  C  C105  1  0.464500  0.441900  0.143800  1
  C  C106  1  0.535500  0.558100  0.856200  1
  C  C107  1  0.560100  0.086300  0.439400  1
  C  C108  1  0.439900  0.913700  0.560600  1
  C  C109  1  0.436600  0.463600  0.120800  1
  C  C110  1  0.563400  0.536400  0.879200  1
  C  C111  1  0.615800  0.089100  0.384800  1
  C  C112  1  0.384200  0.910900  0.615200  1
  C  C113  1  0.384100  0.440900  0.113500  1
  C  C114  1  0.615900  0.559100  0.886500  1
  C  C115  1  0.550800  0.132300  0.384900  1
  C  C116  1  0.449200  0.867700  0.615100  1
  C  C117  1  0.361100  0.396400  0.128700  1
  C  C118  1  0.638900  0.603600  0.871300  1
  C  C119  1  0.492500  0.120300  0.383200  1
  C  C120  1  0.507500  0.879700  0.616800  1
  C  C121  1  0.340600  0.598900  0.024000  1
  C  C122  1  0.659400  0.401100  0.976000  1
  C  C123  1  0.469400  0.081600  0.307100  1
  C  C124  1  0.530600  0.918400  0.692900  1
  C  C125  1  0.693000  0.733500  0.299000  1
  C  C126  1  0.307000  0.266500  0.701000  1
  C  C127  1  0.839100  0.750500  0.243400  1
  C  C128  1  0.160900  0.249500  0.756600  1
  C  C129  1  0.369500  0.573800  0.041500  1
  C  C130  1  0.630500  0.426200  0.958500  1
  C  C131  1  0.415900  0.058100  0.365800  1
  C  C132  1  0.584100  0.941900  0.634200  1
  C  C133  1  0.420900  0.597300  0.050900  1
  C  C134  1  0.579100  0.402700  0.949100  1
  C  C135  1  0.074900  0.720900  0.374800  1
  C  C136  1  0.925100  0.279100  0.625200  1
  C  C137  1  0.441800  0.645500  0.041200  1
  C  C138  1  0.558200  0.354500  0.958800  1
  C  C139  1  0.039200  0.660700  0.326700  1
  C  C140  1  0.960800  0.339300  0.673300  1
  C  C141  1  0.408600  0.667800  0.023700  1
  C  C142  1  0.591400  0.332200  0.976300  1
  C  C143  1  0.033800  0.656700  0.407300  1
  C  C144  1  0.966200  0.343300  0.592700  1
  C  C145  1  0.529500  0.580000  0.105100  1
  C  C146  1  0.470500  0.420000  0.894900  1
  C  C147  1  0.013900  0.605800  0.399300  1
  C  C148  1  0.986100  0.394200  0.600700  1
  C  C149  1  0.460200  0.511500  0.105900  1
  C  C150  1  0.539800  0.488500  0.894100  1
  C  C151  1  0.030100  0.530400  0.371100  1
  C  C152  1  0.969900  0.469600  0.628900  1
  C  C153  1  0.452900  0.574800  0.073600  1
  C  C154  1  0.547100  0.425200  0.926400  1
  C  C155  1  0.080200  0.593400  0.441200  1
  C  C156  1  0.919800  0.406600  0.558800  1
  C  C157  1  0.307100  0.388900  0.232700  1
  C  C158  1  0.692900  0.611100  0.767300  1
  C  C159  1  0.301900  0.426600  0.265100  1
  C  C160  1  0.698100  0.573400  0.734900  1
  C  C161  1  0.341700  0.449700  0.297900  1
  C  C162  1  0.658300  0.550300  0.702100  1
  C  C163  1  0.673200  0.774100  0.298800  1
  C  C164  1  0.326800  0.225900  0.701200  1
  C  C165  1  0.862000  0.742700  0.176400  1
  C  C166  1  0.138000  0.257300  0.823600  1
  C  C167  1  0.386000  0.435400  0.294500  1
  C  C168  1  0.614000  0.564600  0.705500  1
  C  C169  1  0.387200  0.397100  0.260400  1
  C  C170  1  0.612800  0.602900  0.739600  1
  C  C171  1  0.499400  0.583700  0.458000  1
  C  C172  1  0.500600  0.416300  0.542000  1
  C  C173  1  0.460600  0.560000  0.426300  1
  C  C174  1  0.539400  0.440000  0.573700  1
  C  C175  1  0.413400  0.570600  0.428500  1
  C  C176  1  0.586600  0.429400  0.571500  1
  C  C177  1  0.410900  0.608200  0.465700  1
  C  C178  1  0.589100  0.391800  0.534300  1
  C  C179  1  0.449900  0.629000  0.495500  1
  C  C180  1  0.550100  0.371000  0.504500  1
  C  C181  1  0.202000  0.611500  0.401400  1
  C  C182  1  0.798000  0.388500  0.598600  1
  C  C183  1  0.246900  0.596800  0.402700  1
  C  C184  1  0.753100  0.403200  0.597300  1
  C  C185  1  0.245900  0.553900  0.370700  1
  C  C186  1  0.754100  0.446100  0.629300  1
  C  C187  1  0.676400  0.796200  0.263900  1
  C  C188  1  0.323600  0.203800  0.736100  1
  C  C189  1  0.841300  0.720600  0.134100  1
  C  C190  1  0.158700  0.279400  0.865900  1
  C  C191  1  0.205100  0.532100  0.339300  1
  C  C192  1  0.794900  0.467900  0.660700  1
  C  C193  1  0.165500  0.552100  0.339900  1
  C  C194  1  0.834500  0.447900  0.660100  1
  C  C195  1  0.337600  0.488600  0.333700  1
  C  C196  1  0.662400  0.511400  0.666300  1
  C  C197  1  0.373100  0.545800  0.396000  1
  C  C198  1  0.626900  0.454200  0.604000  1
  C  C199  1  0.292100  0.535600  0.368000  1
  C  C200  1  0.707900  0.464400  0.632000  1
  C  C201  1  0.346700  0.750300  0.088200  1
  C  C202  1  0.653300  0.249700  0.911800  1
  C  C203  1  0.349400  0.765700  0.130900  1
  C  C204  1  0.650600  0.234300  0.869100  1
  C  C205  1  0.312100  0.738300  0.152900  1
  C  C206  1  0.687900  0.261700  0.847100  1
  C  C207  1  0.275900  0.695200  0.130600  1
  C  C208  1  0.724100  0.304800  0.869400  1
  C  C209  1  0.276500  0.682200  0.087100  1
  C  C210  1  0.723500  0.317800  0.912900  1
  C  C211  1  0.700300  0.778200  0.230100  1
  C  C212  1  0.299700  0.221800  0.769900  1
  C  C213  1  0.766200  0.695300  0.086600  1
  C  C214  1  0.233800  0.304700  0.913400  1
  C  C215  1  0.418100  0.929500  0.344800  1
  C  C216  1  0.581900  0.070500  0.655200  1
  C  C217  1  0.383500  0.882800  0.325700  1
  C  C218  1  0.616500  0.117200  0.674300  1
  C  C219  1  0.384600  0.864000  0.283000  1
  C  C220  1  0.615400  0.136000  0.717000  1
  C  C221  1  0.421600  0.891900  0.262300  1
  C  C222  1  0.578400  0.108100  0.737700  1
  C  C223  1  0.455200  0.938500  0.282900  1
  C  C224  1  0.544800  0.061500  0.717100  1
  C  C225  1  0.159100  0.652900  0.288400  1
  C  C226  1  0.840900  0.347100  0.711600  1
  C  C227  1  0.197100  0.675900  0.264200  1
  C  C228  1  0.802900  0.324100  0.735800  1
  C  C229  1  0.234700  0.720700  0.284800  1
  C  C230  1  0.765300  0.279300  0.715200  1
  C  C231  1  0.234200  0.739400  0.328000  1
  C  C232  1  0.765800  0.260600  0.672000  1
  C  C233  1  0.196700  0.713100  0.349500  1
  C  C234  1  0.803300  0.286900  0.650500  1
  C  C235  1  0.576700  0.960100  0.335900  1
  C  C236  1  0.423300  0.039900  0.664100  1
  C  C237  1  0.782500  0.638400  0.116600  1
  C  C238  1  0.217500  0.361600  0.883400  1
  C  C239  1  0.312500  0.756100  0.200500  1
  C  C240  1  0.687500  0.243900  0.799500  1
  C  C241  1  0.345600  0.814900  0.260200  1
  C  C242  1  0.654400  0.185100  0.739800  1
  C  C243  1  0.276800  0.748100  0.260200  1
  C  C244  1  0.723200  0.251900  0.739800  1
  C  C245  1  0.598500  0.920600  0.336300  1
  C  C246  1  0.401500  0.079400  0.663700  1
  C  C247  1  0.324300  0.266200  0.090000  1
  C  C248  1  0.675700  0.733800  0.910000  1
  C  C249  1  0.588300  0.892600  0.368200  1
  C  C250  1  0.411700  0.107400  0.631800  1
  C  C251  1  0.399600  0.264300  0.114000  1
  C  C252  1  0.600400  0.735700  0.886000  1
  C  C253  1  0.558600  0.905700  0.399100  1
  C  C254  1  0.441400  0.094300  0.600900  1
  C  C255  1  0.317500  0.215400  0.139600  1
  C  C256  1  0.682500  0.784600  0.860400  1
  C  C257  1  0.328800  0.661700  0.349600  1
  C  C258  1  0.671200  0.338300  0.650400  1
  C  C259  1  0.289300  0.635500  0.316300  1
  C  C260  1  0.710700  0.364500  0.683700  1
  C  C261  1  0.295700  0.598700  0.282000  1
  C  C262  1  0.704300  0.401300  0.718000  1
  C  C263  1  0.344900  0.591400  0.278700  1
  C  C264  1  0.655100  0.408600  0.721300  1
  C  C265  1  0.486700  0.626100  0.203600  1
  C  C266  1  0.513300  0.373900  0.796400  1
  C  C267  1  0.533100  0.665600  0.203900  1
  C  C268  1  0.466900  0.334400  0.796100  1
  C  C269  1  0.522500  0.699400  0.178900  1
  C  C270  1  0.477500  0.300600  0.821100  1
  C  C271  1  0.469600  0.680600  0.164000  1
  C  C272  1  0.530400  0.319400  0.836000  1
  C  C273  1  0.447500  0.634900  0.179600  1
  C  C274  1  0.552500  0.365100  0.820400  1
  C  C275  1  0.394400  0.607900  0.168600  1
  C  C276  1  0.605600  0.392100  0.831400  1
  C  C277  1  0.413500  0.703300  0.260700  1
  C  C278  1  0.586500  0.296700  0.739300  1
  C  C279  1  0.365400  0.624100  0.141500  1
  C  C280  1  0.634600  0.375900  0.858500  1
  C  C281  1  0.387000  0.670600  0.126600  1
  C  C282  1  0.613000  0.329400  0.873400  1
  C  C283  1  0.439100  0.700400  0.140100  1
  C  C284  1  0.560900  0.299600  0.859900  1
  C  C285  1  0.512800  0.719900  0.297600  1
  C  C286  1  0.487200  0.280100  0.702400  1
  C  C287  1  0.460600  0.766700  0.343900  1
  C  C288  1  0.539400  0.233300  0.656100  1
  C  C289  1  0.503300  0.775600  0.257900  1
  C  C290  1  0.496700  0.224400  0.742100  1
  C  C291  1  0.421400  0.670400  0.377500  1
  C  C292  1  0.578600  0.329600  0.622500  1
  C  C293  1  0.457600  0.647300  0.358900  1
  C  C294  1  0.542400  0.352700  0.641100  1
  C  C295  1  0.434700  0.614000  0.319100  1
  C  C296  1  0.565300  0.386000  0.680900  1
  C  C297  1  0.384000  0.615800  0.313100  1
  C  C298  1  0.616000  0.384200  0.686900  1
  C  C299  1  0.375000  0.649200  0.349100  1
  C  C300  1  0.625000  0.350800  0.650900  1
  C  C301  1  0.159900  0.838000  0.730800  1
  C  C302  1  0.840100  0.162000  0.269200  1
  C  C303  1  0.056200  0.847000  0.714900  1
  C  C304  1  0.943800  0.153000  0.285100  1
  C  C305  1  0.113900  0.816800  0.654100  1
  C  C306  1  0.886100  0.183200  0.345900  1
  C  C307  1  0.145500  0.923800  0.719900  1
  C  C308  1  0.854500  0.076200  0.280100  1
  C  C309  1  0.068300  0.709600  0.653800  1
  C  C310  1  0.931700  0.290400  0.346200  1
  C  C311  1  0.110200  0.709100  0.680000  1
  C  C312  1  0.889800  0.290900  0.320000  1
  C  C313  1  0.098000  0.716400  0.723200  1
  C  C314  1  0.902000  0.283600  0.276800  1
  C  C315  1  0.047900  0.721700  0.723000  1
  C  C316  1  0.952100  0.278300  0.277000  1
  C  C317  1  0.030600  0.719200  0.680100  1
  C  C318  1  0.969400  0.280800  0.319900  1
  C  C319  1  0.980900  0.720700  0.670200  1
  C  C320  1  0.019100  0.279300  0.329800  1
  C  C321  1  0.951800  0.733100  0.704400  1
  C  C322  1  0.048200  0.266900  0.295600  1
  C  C323  1  0.966800  0.730000  0.746000  1
  C  C324  1  0.033200  0.270000  0.254000  1
  C  C325  1  0.015800  0.724800  0.755200  1
  C  C326  1  0.984200  0.275200  0.244800  1
  C  C327  1  0.141500  0.941400  0.814200  1
  C  C328  1  0.858500  0.058600  0.185800  1
  C  C329  1  0.158300  0.900300  0.823900  1
  C  C330  1  0.841700  0.099700  0.176100  1
  C  C331  1  0.113700  0.858500  0.824400  1
  C  C332  1  0.886300  0.141500  0.175600  1
  C  C333  1  0.070200  0.873200  0.815200  1
  C  C334  1  0.929800  0.126800  0.184800  1
  C  C335  1  0.087800  0.925100  0.809100  1
  C  C336  1  0.912200  0.074900  0.190900  1
  C  C337  1  0.053000  0.950900  0.803000  1
  C  C338  1  0.947000  0.049100  0.197000  1
  C  C339  1  0.999700  0.923100  0.794300  1
  C  C340  1  0.000300  0.076900  0.205700  1
  C  C341  1  0.981700  0.873700  0.802300  1
  C  C342  1  0.018300  0.126300  0.197700  1
  C  C343  1  0.015800  0.847200  0.811300  1
  C  C344  1  0.984200  0.152800  0.188700  1
  C  C345  1  0.952500  0.025200  0.749500  1
  C  C346  1  0.047500  0.974800  0.250500  1
  C  C347  1  0.140300  0.998300  0.593500  1
  C  C348  1  0.859700  0.001700  0.406500  1
  C  C349  1  0.098500  0.980500  0.614000  1
  C  C350  1  0.901500  0.019500  0.386000  1
  C  C351  1  0.068400  0.931300  0.600100  1
  C  C352  1  0.931600  0.068700  0.399900  1
  C  C353  1  0.082400  0.900900  0.564900  1
  C  C354  1  0.917600  0.099100  0.435100  1
  C  C355  1  0.126200  0.922300  0.546100  1
  C  C356  1  0.873800  0.077700  0.453900  1
  C  C357  1  0.951400  0.838100  0.619100  1
  C  C358  1  0.048600  0.161900  0.380900  1
  C  C359  1  0.963300  0.913800  0.664900  1
  C  C360  1  0.036700  0.086200  0.335100  1
  C  C361  1  0.022200  0.907900  0.619200  1
  C  C362  1  0.977800  0.092100  0.380800  1
  C  C363  1  0.296500  0.709500  0.732500  1
  C  C364  1  0.703500  0.290500  0.267500  1
  C  C365  1  0.297500  0.759300  0.739000  1
  C  C366  1  0.702500  0.240700  0.261000  1
  C  C367  1  0.292700  0.781900  0.704400  1
  C  C368  1  0.707300  0.218100  0.295600  1
  C  C369  1  0.284500  0.750100  0.663100  1
  C  C370  1  0.715500  0.249900  0.336900  1
  C  C371  1  0.282800  0.699400  0.659200  1
  C  C372  1  0.717200  0.300600  0.340800  1
  C  C373  1  0.313900  0.022600  0.845500  1
  C  C374  1  0.686100  0.977400  0.154500  1
  C  C375  1  0.304900  0.993200  0.805400  1
  C  C376  1  0.695100  0.006800  0.194600  1
  C  C377  1  0.309500  0.944000  0.798000  1
  C  C378  1  0.690500  0.056000  0.202000  1
  C  C379  1  0.322700  0.926000  0.833500  1
  C  C380  1  0.677300  0.074000  0.166500  1
  C  C381  1  0.330200  0.956600  0.873300  1
  C  C382  1  0.669800  0.043400  0.126700  1
  C  C383  1  0.247100  0.916500  0.573600  1
  C  C384  1  0.752900  0.083500  0.426400  1
  C  C385  1  0.260100  0.895700  0.608100  1
  C  C386  1  0.739900  0.104300  0.391900  1
  C  C387  1  0.274800  0.925200  0.646800  1
  C  C388  1  0.725200  0.074800  0.353200  1
  C  C389  1  0.277700  0.978100  0.653400  1
  C  C390  1  0.722300  0.021900  0.346600  1
  C  C391  1  0.265700  0.996800  0.618000  1
  C  C392  1  0.734300  0.003200  0.382000  1
  C  C393  1  0.294000  0.835800  0.710400  1
  C  C394  1  0.706000  0.164200  0.289600  1
  C  C395  1  0.301500  0.912200  0.754900  1
  C  C396  1  0.698500  0.087800  0.245100  1
  C  C397  1  0.285300  0.902700  0.684300  1
  C  C398  1  0.714700  0.097300  0.315700  1
  C  C399  1  0.933600  0.748200  0.923100  1
  C  C400  1  0.066400  0.251800  0.076900  1
  C  C401  1  0.952000  0.799200  0.916800  1
  C  C402  1  0.048000  0.200800  0.083200  1
  C  C403  1  0.004200  0.823100  0.925800  1
  C  C404  1  0.995800  0.176900  0.074200  1
  C  C405  1  0.034100  0.795400  0.938700  1
  C  C406  1  0.965900  0.204600  0.061300  1
  C  C407  1  0.012300  0.745800  0.943500  1
  C  C408  1  0.987700  0.254200  0.056500  1
  C  C409  1  0.970700  0.046600  0.863100  1
  C  C410  1  0.029300  0.953400  0.136900  1
  C  C411  1  0.003100  0.025900  0.880900  1
  C  C412  1  0.996900  0.974100  0.119100  1
  C  C413  1  0.981700  0.977000  0.890600  1
  C  C414  1  0.018300  0.023000  0.109400  1
  C  C415  1  0.929400  0.952300  0.881300  1
  C  C416  1  0.070600  0.047700  0.118700  1
  C  C417  1  0.902100  0.977300  0.860400  1
  C  C418  1  0.097900  0.022700  0.139600  1
  C  C419  1  0.235200  0.969200  0.946400  1
  C  C420  1  0.764800  0.030800  0.053600  1
  C  C421  1  0.182300  0.944300  0.939900  1
  C  C422  1  0.817700  0.055700  0.060100  1
  C  C423  1  0.149800  0.969000  0.927300  1
  C  C424  1  0.850200  0.031000  0.072700  1
  C  C425  1  0.170300  0.018400  0.919200  1
  C  C426  1  0.829700  0.981600  0.080800  1
  C  C427  1  0.223600  0.040000  0.924200  1
  C  C428  1  0.776400  0.960000  0.075800  1
  C  C429  1  0.025400  0.876900  0.921400  1
  C  C430  1  0.974600  0.123100  0.078600  1
  C  C431  1  0.014700  0.949600  0.905200  1
  C  C432  1  0.985300  0.050400  0.094800  1
  C  C433  1  0.093900  0.946600  0.922000  1
  C  C434  1  0.906100  0.053400  0.078000  1
  C  C435  1  0.754000  0.654600  0.508700  1
  C  C436  1  0.246000  0.345400  0.491300  1
  C  C437  1  0.813700  0.642300  0.459000  1
  C  C438  1  0.186300  0.357700  0.541000  1
  C  C439  1  0.747700  0.568500  0.471400  1
  C  C440  1  0.252300  0.431500  0.528600  1
  C  C441  1  0.763800  0.529900  0.473300  1
  C  C442  1  0.236200  0.470100  0.526700  1
  C  C443  1  0.829800  0.500700  0.504400  1
  C  C444  1  0.170200  0.499300  0.495600  1
  C  C445  1  0.758600  0.508100  0.542600  1
  C  C446  1  0.241400  0.491900  0.457400  1
  C  C447  1  0.245900  0.501100  0.713600  1
  C  C448  1  0.754100  0.498900  0.286400  1
  C  C449  1  0.254500  0.497200  0.638700  1
  C  C450  1  0.745500  0.502800  0.361300  1
  C  C451  1  0.329700  0.523400  0.689100  1
  C  C452  1  0.670300  0.476600  0.310900  1
  C  C453  1  0.365500  0.562800  0.670500  1
  C  C454  1  0.634500  0.437200  0.329500  1
  C  C455  1  0.384400  0.650000  0.659800  1
  C  C456  1  0.615600  0.350000  0.340200  1
  C  C457  1  0.384200  0.635600  0.731700  1
  C  C458  1  0.615800  0.364400  0.268300  1
  C  C459  1  0.954900  0.681800  0.031400  1
  C  C460  1  0.045100  0.318200  0.968600  1
  C  C461  1  0.887800  0.708400  0.008600  1
  C  C462  1  0.112200  0.291600  0.991400  1
  C  C463  1  0.875800  0.618000  0.007700  1
  C  C464  1  0.124200  0.382000  0.992300  1
  C  C465  1  0.889200  0.574200  0.988300  1
  C  C466  1  0.110800  0.425800  0.011700  1
  C  C467  1  0.850500  0.549600  0.915800  1
  C  C468  1  0.149500  0.450400  0.084200  1
  C  C469  1  0.930000  0.536300  0.930000  1
  C  C470  1  0.070000  0.463700  0.070000  1
  C  C471  1  0.301200  0.116100  0.008300  1
  C  C472  1  0.698800  0.883900  0.991700  1
  C  C473  1  0.336000  0.058900  0.031400  1
  C  C474  1  0.664000  0.941100  0.968600  1
  C  C475  1  0.389000  0.128000  0.004300  1
  C  C476  1  0.611000  0.872000  0.995700  1
  C  C477  1  0.425400  0.107700  0.986800  1
  C  C478  1  0.574600  0.892300  0.013200  1
  C  C479  1  0.435300  0.040300  0.926400  1
  C  C480  1  0.564700  0.959700  0.073600  1
  C  C481  1  0.420000  0.121200  0.914200  1
  C  C482  1  0.580000  0.878800  0.085800  1
  C  C483  1  0.883800  0.102700  0.743000  1
  C  C484  1  0.116200  0.897300  0.257000  1
  C  C485  1  0.802800  0.033000  0.736500  1
  C  C486  1  0.197200  0.967000  0.263500  1
  C  C487  1  0.810900  0.095000  0.786500  1
  C  C488  1  0.189100  0.905000  0.213500  1
  C  C489  1  0.820400  0.113200  0.833700  1
  C  C490  1  0.179600  0.886800  0.166300  1
  C  C491  1  0.896200  0.129300  0.884800  1
  C  C492  1  0.103800  0.870700  0.115200  1
  C  C493  1  0.824900  0.058700  0.879400  1
  C  C494  1  0.175100  0.941300  0.120600  1
  C  C495  1  0.327100  0.058600  0.533400  1
  C  C496  1  0.672900  0.941400  0.466600  1
  C  C497  1  0.311600  0.967700  0.495700  1
  C  C498  1  0.688400  0.032300  0.504300  1
  C  C499  1  0.274700  0.029500  0.464600  1
  C  C500  1  0.725300  0.970500  0.535400  1
  C  C501  1  0.236700  0.046300  0.464800  1
  C  C502  1  0.763300  0.953700  0.535200  1
  C  C503  1  0.163700  0.980300  0.454600  1
  C  C504  1  0.836300  0.019700  0.545400  1
  C  C505  1  0.167100  0.057200  0.502900  1
  C  C506  1  0.832900  0.942800  0.497100  1
  C  C507  1  0.859600  0.593500  0.622900  1
  C  C508  1  0.140400  0.406500  0.377100  1
  C  C509  1  0.891800  0.591700  0.656300  1
  C  C510  1  0.108200  0.408300  0.343700  1
  C  C511  1  0.940600  0.589700  0.648000  1
  C  C512  1  0.059400  0.410300  0.352000  1
  C  C513  1  0.955000  0.589600  0.606800  1
  C  C514  1  0.045000  0.410400  0.393200  1
  C  C515  1  0.921100  0.592500  0.575900  1
  C  C516  1  0.078900  0.407500  0.424100  1
  C  C517  1  0.173300  0.584500  0.657300  1
  C  C518  1  0.826700  0.415500  0.342700  1
  C  C519  1  0.122700  0.583500  0.661500  1
  C  C520  1  0.877300  0.416500  0.338500  1
  C  C521  1  0.106800  0.588200  0.701800  1
  C  C522  1  0.893200  0.411800  0.298200  1
  C  C523  1  0.140500  0.592400  0.736200  1
  C  C524  1  0.859500  0.407600  0.263800  1
  C  C525  1  0.189000  0.593000  0.729500  1
  C  C526  1  0.811000  0.407000  0.270500  1
  C  C527  1  0.996400  0.620700  0.872900  1
  C  C528  1  0.003600  0.379300  0.127100  1
  C  C529  1  0.011500  0.610000  0.832600  1
  C  C530  1  0.988500  0.390000  0.167400  1
  C  C531  1  0.980500  0.609700  0.798100  1
  C  C532  1  0.019500  0.390300  0.201900  1
  C  C533  1  0.935100  0.618200  0.803900  1
  C  C534  1  0.064900  0.381800  0.196100  1
  C  C535  1  0.920900  0.627700  0.845900  1
  C  C536  1  0.079100  0.372300  0.154100  1
  C  C537  1  0.977300  0.590800  0.683400  1
  C  C538  1  0.022700  0.409200  0.316600  1
  C  C539  1  0.053900  0.589400  0.709500  1
  C  C540  1  0.946100  0.410600  0.290500  1
  C  C541  1  0.995400  0.599700  0.754000  1
  C  C542  1  0.004600  0.400300  0.246000  1
  C  C543  1  0.908000  0.706700  0.547900  1
  C  C544  1  0.092000  0.293300  0.452100  1
  C  C545  1  0.937400  0.757500  0.565500  1
  C  C546  1  0.062600  0.242500  0.434500  1
  C  C547  1  0.921100  0.783700  0.599900  1
  C  C548  1  0.078900  0.216300  0.400100  1
  C  C549  1  0.875700  0.760800  0.614800  1
  C  C550  1  0.124300  0.239200  0.385200  1
  C  C551  1  0.848100  0.710100  0.596300  1
  C  C552  1  0.151900  0.289900  0.403700  1
  C  C553  1  0.880800  0.954800  0.745900  1
  C  C554  1  0.119200  0.045200  0.254100  1
  C  C555  1  0.899500  0.925800  0.714800  1
  C  C556  1  0.100500  0.074200  0.285200  1
  C  C557  1  0.944800  0.944400  0.699600  1
  C  C558  1  0.055200  0.055600  0.300400  1
  C  C559  1  0.973100  0.994900  0.716500  1
  C  C560  1  0.026900  0.005100  0.283500  1
  C  C561  1  0.338700  0.212000  0.187300  1
  C  C562  1  0.661300  0.788000  0.812700  1
  C  C563  1  0.373000  0.706000  0.300300  1
  C  C564  1  0.627000  0.294000  0.699700  1
  C  C565  1  0.335700  0.269600  0.255900  1
  C  C566  1  0.664300  0.730400  0.744100  1
  C  C567  1  0.332000  0.681000  0.322000  1
  C  C568  1  0.668000  0.319000  0.678000  1
  C  C569  1  0.263100  0.241500  0.197800  1
  C  C570  1  0.736900  0.758500  0.802200  1
  C  C571  1  0.291000  0.639000  0.299000  1
  C  C572  1  0.709000  0.361000  0.701000  1
  C  C573  1  0.286400  0.628000  0.254000  1
  C  C574  1  0.713600  0.372000  0.746000  1
  C  C575  1  0.554600  0.701100  0.270700  1
  C  C576  1  0.445400  0.298900  0.729300  1
  C  C577  1  0.572800  0.658400  0.272600  1
  C  C578  1  0.427200  0.341600  0.727400  1
  C  C579  1  0.556200  0.640300  0.310100  1
  C  C580  1  0.443800  0.359700  0.689900  1
  C  C581  1  0.526600  0.670900  0.330300  1
  C  C582  1  0.473400  0.329100  0.669700  1
  C  C583  1  0.526400  0.708900  0.306000  1
  C  C584  1  0.473600  0.291100  0.694000  1
  C  C585  1  0.302700  0.609800  0.922300  1
  C  C586  1  0.697300  0.390200  0.077700  1
  C  C587  1  0.502800  0.747400  0.320700  1
  C  C588  1  0.497200  0.252600  0.679300  1
  C  C589  1  0.417600  0.593200  0.274400  1
  C  C590  1  0.582400  0.406800  0.725600  1
  C  C591  1  0.367600  0.688900  0.927700  1
  C  C592  1  0.632400  0.311100  0.072300  1
  C  C593  1  0.478500  0.747100  0.358900  1
  C  C594  1  0.521500  0.252900  0.641100  1
  C  C595  1  0.274500  0.680700  0.915600  1
  C  C596  1  0.725500  0.319300  0.084400  1
  C  C597  1  0.475400  0.707000  0.380800  1
  C  C598  1  0.524600  0.293000  0.619200  1
  C  C599  1  0.270400  0.730500  0.939200  1
  C  C600  1  0.729600  0.269500  0.060800  1
  C  C601  1  0.506200  0.673900  0.370200  1
  C  C602  1  0.493800  0.326100  0.629800  1
  C  C603  1  0.293400  0.782900  0.993000  1
  C  C604  1  0.706600  0.217100  0.007000  1
  C  C605  1  0.059300  0.732100  0.729400  1
  C  C606  1  0.940700  0.267900  0.270600  1
  C  C607  1  0.214700  0.701200  0.995800  1
  C  C608  1  0.785300  0.298800  0.004200  1
  C  C609  1  0.048200  0.826700  0.714800  1
  C  C610  1  0.951800  0.173300  0.285200  1
  C  C611  1  0.580600  0.077900  0.433700  1
  C  C612  1  0.419400  0.922100  0.566300  1
  C  C613  1  0.041900  0.750700  0.651400  1
  C  C614  1  0.958100  0.249300  0.348600  1
  C  C615  1  0.605000  0.102200  0.367500  1
  C  C616  1  0.395000  0.897800  0.632500  1
  C  C617  1  0.972200  0.741500  0.721400  1
  C  C618  1  0.027800  0.258500  0.278600  1
  C  C619  1  0.530800  0.128600  0.398400  1
  C  C620  1  0.469200  0.871400  0.601600  1
  C  C621  1  0.153000  0.800300  0.658800  1
  C  C622  1  0.847000  0.199700  0.341200  1
  C  C623  1  0.496100  0.124700  0.355600  1
  C  C624  1  0.503900  0.875300  0.644400  1
  C  C625  1  0.162300  0.769100  0.687300  1
  C  C626  1  0.837700  0.230900  0.312700  1
  C  C627  1  0.450500  0.057200  0.293200  1
  C  C628  1  0.549500  0.942800  0.706800  1
  C  C629  1  0.174600  0.800400  0.728700  1
  C  C630  1  0.825400  0.199600  0.271300  1
  C  C631  1  0.462400  0.621700  0.198400  1
  C  C632  1  0.537600  0.378300  0.801600  1
  C  C633  1  0.407600  0.052900  0.351100  1
  C  C634  1  0.592400  0.947100  0.648900  1
  C  C635  1  0.171500  0.850700  0.726400  1
  C  C636  1  0.828500  0.149300  0.273600  1
  C  C637  1  0.079700  0.720600  0.391100  1
  C  C638  1  0.920300  0.279400  0.608900  1
  C  C639  1  0.159200  0.850100  0.683000  1
  C  C640  1  0.840800  0.149900  0.317000  1
  C  C641  1  0.045800  0.667400  0.306600  1
  C  C642  1  0.954200  0.332600  0.693400  1
  C  C643  1  0.156800  0.895200  0.670200  1
  C  C644  1  0.843200  0.104800  0.329800  1
  C  C645  1  0.014600  0.636500  0.383400  1
  C  C646  1  0.985400  0.363500  0.616600  1
  C  C647  1  0.166900  0.942700  0.700400  1
  C  C648  1  0.833100  0.057300  0.299600  1
  C  C649  1  0.027600  0.613000  0.419900  1
  C  C650  1  0.972400  0.387000  0.580100  1
  C  C651  1  0.174900  0.941900  0.744700  1
  C  C652  1  0.825100  0.058100  0.255300  1
  C  C653  1  0.056700  0.535300  0.398300  1
  C  C654  1  0.943300  0.464700  0.601700  1
  C  C655  1  0.180500  0.897300  0.757100  1
  C  C656  1  0.819500  0.102700  0.242900  1
  C  C657  1  0.095700  0.606500  0.455900  1
  C  C658  1  0.904300  0.393500  0.544100  1
  C  C659  1  0.986700  0.773800  0.818800  1
  C  C660  1  0.013300  0.226200  0.181200  1
  C  C661  1  0.036500  0.769700  0.824800  1
  C  C662  1  0.963500  0.230300  0.175200  1
  C  C663  1  0.071800  0.817700  0.821800  1
  C  C664  1  0.928200  0.182300  0.178200  1
  C  C665  1  0.044200  0.852100  0.814700  1
  C  C666  1  0.955800  0.147900  0.185300  1
  C  C667  1  0.380200  0.544700  0.203300  1
  C  C668  1  0.619800  0.455300  0.796700  1
  C  C669  1  0.991600  0.824300  0.811800  1
  C  C670  1  0.008400  0.175700  0.188200  1
  C  C671  1  0.952800  0.844800  0.803400  1
  C  C672  1  0.047200  0.155200  0.196600  1
  C  C673  1  0.969900  0.899600  0.798600  1
  C  C674  1  0.030100  0.100400  0.201400  1
  C  C675  1  0.023400  0.928900  0.800700  1
  C  C676  1  0.976600  0.071100  0.199300  1
  C  C677  1  0.059100  0.904300  0.809300  1
  C  C678  1  0.940900  0.095700  0.190700  1
  C  C679  1  0.489300  0.559700  0.238900  1
  C  C680  1  0.510700  0.440300  0.761100  1
  C  C681  1  0.408100  0.704400  0.228000  1
  C  C682  1  0.591900  0.295600  0.772000  1
  C  C683  1  0.388000  0.676300  0.186000  1
  C  C684  1  0.612000  0.323700  0.814000  1
  C  C685  1  0.346400  0.268300  0.089200  1
  C  C686  1  0.653600  0.731700  0.910800  1
  C  C687  1  0.339500  0.641800  0.188500  1
  C  C688  1  0.660500  0.358200  0.811500  1
  C  C689  1  0.412900  0.261000  0.129700  1
  C  C690  1  0.587100  0.739000  0.870300  1
  C  C691  1  0.328800  0.649900  0.232200  1
  C  C692  1  0.671200  0.350100  0.767800  1
  C  C693  1  0.336100  0.210400  0.139800  1
  C  C694  1  0.663900  0.789600  0.860200  1
  C  C695  1  0.372300  0.688400  0.256100  1
  C  C696  1  0.627700  0.311600  0.743900  1
  N  N697  1  0.510800  0.535500  0.118100  1
  N  N698  1  0.489200  0.464500  0.881900  1
  N  N699  1  0.466700  0.071600  0.349400  1
  N  N700  1  0.533300  0.928400  0.650600  1
  N  N701  1  0.430800  0.529400  0.084100  1
  N  N702  1  0.569200  0.470600  0.915900  1
  N  N703  1  0.059700  0.668400  0.365400  1
  N  N704  1  0.940300  0.331600  0.634600  1
  N  N705  1  0.503200  0.601600  0.083000  1
  N  N706  1  0.496800  0.398400  0.917000  1
  N  N707  1  0.065400  0.589800  0.406300  1
  N  N708  1  0.934600  0.410200  0.593700  1
  N  N709  1  0.164000  0.591900  0.371200  1
  N  N710  1  0.836000  0.408100  0.628800  1
  N  N711  1  0.311000  0.709200  0.066000  1
  N  N712  1  0.689000  0.290800  0.934000  1
  N  N713  1  0.719500  0.739400  0.229400  1
  N  N714  1  0.280500  0.260600  0.770600  1
  N  N715  1  0.824800  0.761000  0.203900  1
  N  N716  1  0.175200  0.239000  0.796100  1
  N  N717  1  0.453000  0.957000  0.325000  1
  N  N718  1  0.547000  0.043000  0.675000  1
  N  N719  1  0.159500  0.670700  0.330200  1
  N  N720  1  0.840500  0.329300  0.669800  1
  N  N721  1  0.349800  0.799500  0.218800  1
  N  N722  1  0.650200  0.200500  0.781200  1
  N  N723  1  0.310800  0.791000  0.283000  1
  N  N724  1  0.689200  0.209000  0.717000  1
  N  N725  1  0.274900  0.729600  0.219400  1
  N  N726  1  0.725100  0.270400  0.780600  1
  N  N727  1  0.548200  0.973200  0.366340  1
  N  N728  1  0.451800  0.026800  0.633660  1
  N  N729  1  0.787700  0.691000  0.125100  1
  N  N730  1  0.212300  0.309000  0.874900  1
  N  N731  1  0.348300  0.373600  0.229900  1
  N  N732  1  0.651700  0.626400  0.770100  1
  N  N733  1  0.494700  0.618500  0.493500  1
  N  N734  1  0.505300  0.381500  0.506500  1
  N  N735  1  0.581600  0.701000  0.498100  1
  N  N736  1  0.418400  0.299000  0.501900  1
  N  N737  1  0.317200  0.258300  0.210500  1
  N  N738  1  0.682800  0.741700  0.789500  1
  N  N739  1  0.378400  0.511100  0.363600  1
  N  N740  1  0.621600  0.488900  0.636400  1
  N  N741  1  0.330100  0.560200  0.399800  1
  N  N742  1  0.669900  0.439800  0.600200  1
  N  N743  1  0.293200  0.500000  0.335400  1
  N  N744  1  0.706800  0.500000  0.664600  1
  N  N745  1  0.631700  0.834100  0.334800  1
  N  N746  1  0.368300  0.165900  0.665200  1
  N  N747  1  0.356400  0.260800  0.130400  1
  N  N748  1  0.643600  0.739200  0.869600  1
  N  N749  1  0.598800  0.824600  0.400400  1
  N  N750  1  0.401200  0.175400  0.599600  1
  N  N751  1  0.613200  0.690700  0.585400  1
  N  N752  1  0.386800  0.309300  0.414600  1
  N  N753  1  0.642000  0.766800  0.367300  1
  N  N754  1  0.358000  0.233200  0.632700  1
  N  N755  1  0.526300  0.604700  0.578200  1
  N  N756  1  0.473700  0.395300  0.421800  1
  N  N757  1  0.682400  0.668400  0.151100  1
  N  N758  1  0.317600  0.331600  0.848900  1
  N  N759  1  0.314800  0.663000  0.936300  1
  N  N760  1  0.685200  0.337000  0.063700  1
  N  N761  1  0.388900  0.376400  0.151600  1
  N  N762  1  0.611100  0.623600  0.848400  1
  N  N763  1  0.264500  0.727200  0.986300  1
  N  N764  1  0.735500  0.272800  0.013700  1
  N  N765  1  0.359100  0.645400  0.016000  1
  N  N766  1  0.640900  0.354600  0.984000  1
  N  N767  1  0.561100  0.085800  0.393400  1
  N  N768  1  0.438900  0.914200  0.606600  1
  N  N769  1  0.294800  0.605000  0.557700  1
  N  N770  1  0.705200  0.395000  0.442300  1
  N  N771  1  0.473700  0.307300  0.251300  1
  N  N772  1  0.526300  0.692700  0.748700  1
  N  N773  1  0.548900  0.999400  0.531600  1
  N  N774  1  0.451100  0.000600  0.468400  1
  N  N775  1  0.473200  0.742600  0.612800  1
  N  N776  1  0.526800  0.257400  0.387200  1
  N  N777  1  0.959500  0.484700  0.467500  1
  N  N778  1  0.040500  0.515300  0.532500  1
  N  N779  1  0.613500  0.522400  0.476100  1
  N  N780  1  0.386500  0.477600  0.523900  1
  N  N781  1  0.703100  0.590400  0.605200  1
  N  N782  1  0.296900  0.409600  0.394800  1
  N  N783  1  0.436500  0.028900  0.778000  1
  N  N784  1  0.563500  0.971100  0.222000  1
  N  N785  1  0.874000  0.594100  0.583300  1
  N  N786  1  0.126000  0.405900  0.416700  1
  N  N787  1  0.784100  0.622300  0.492400  1
  N  N788  1  0.215900  0.377700  0.507600  1
  N  N789  1  0.205900  0.590100  0.691600  1
  N  N790  1  0.794100  0.409900  0.308400  1
  N  N791  1  0.793700  0.530700  0.512500  1
  N  N792  1  0.206300  0.469300  0.487500  1
  N  N793  1  0.276400  0.525500  0.682800  1
  N  N794  1  0.723600  0.474500  0.317200  1
  N  N795  1  0.022300  0.586200  0.674500  1
  N  N796  1  0.977700  0.413800  0.325500  1
  N  N797  1  0.359300  0.614900  0.686700  1
  N  N798  1  0.640700  0.385100  0.313300  1
  N  N799  1  0.042200  0.595800  0.749100  1
  N  N800  1  0.957800  0.404200  0.250900  1
  N  N801  1  0.409200  0.078300  0.940900  1
  N  N802  1  0.590800  0.921700  0.059100  1
  N  N803  1  0.961400  0.598000  0.722600  1
  N  N804  1  0.038600  0.402000  0.277400  1
  N  N805  1  0.338300  0.088800  0.001100  1
  N  N806  1  0.661700  0.911200  0.998900  1
  N  N807  1  0.843900  0.072600  0.766100  1
  N  N808  1  0.156100  0.927400  0.233900  1
  N  N809  1  0.854500  0.092800  0.854900  1
  N  N810  1  0.145500  0.907200  0.145100  1
  N  N811  1  0.911000  0.665100  0.999200  1
  N  N812  1  0.089000  0.334900  0.000800  1
  N  N813  1  0.898000  0.569800  0.941500  1
  N  N814  1  0.102000  0.430200  0.058500  1
  N  N815  1  0.287600  0.015900  0.506700  1
  N  N816  1  0.712400  0.984100  0.493300  1
  N  N817  1  0.191700  0.023100  0.487100  1
  N  N818  1  0.808300  0.976900  0.512900  1
  N  N819  1  0.288000  0.678600  0.694100  1
  N  N820  1  0.712000  0.321400  0.305900  1
  N  N821  1  0.325300  0.004900  0.879500  1
  N  N822  1  0.674700  0.995100  0.120500  1
  N  N823  1  0.250500  0.966900  0.580500  1
  N  N824  1  0.749500  0.033100  0.419500  1
  N  N825  1  0.302400  0.863300  0.751000  1
  N  N826  1  0.697600  0.136700  0.249000  1
  N  N827  1  0.293500  0.934000  0.722800  1
  N  N828  1  0.706500  0.066000  0.277200  1
  N  N829  1  0.284800  0.854000  0.676300  1
  N  N830  1  0.715200  0.146000  0.323700  1
  N  N831  1  0.962300  0.721200  0.935600  1
  N  N832  1  0.037700  0.278800  0.064400  1
  N  N833  1  0.254700  0.015100  0.936600  1
  N  N834  1  0.745300  0.984900  0.063400  1
  N  N835  1  0.920900  0.022500  0.851700  1
  N  N836  1  0.079100  0.977500  0.148300  1
  N  N837  1  0.077500  0.896500  0.927900  1
  N  N838  1  0.922500  0.103500  0.072100  1
  N  N839  1  0.065500  0.974100  0.912600  1
  N  N840  1  0.934500  0.025900  0.087400  1
  N  N841  1  0.993500  0.902100  0.910600  1
  N  N842  1  0.006500  0.097900  0.089400  1
  N  N843  1  0.951900  0.627800  0.879400  1
  N  N844  1  0.048100  0.372200  0.120600  1
  N  N845  1  0.864500  0.684000  0.563700  1
  N  N846  1  0.135500  0.316000  0.436300  1
  N  N847  1  0.908200  0.005600  0.762500  1
  N  N848  1  0.091800  0.994400  0.237500  1
  N  N849  1  0.154800  0.970200  0.559700  1
  N  N850  1  0.845200  0.029800  0.440300  1
  N  N851  1  0.933400  0.864400  0.650000  1
  N  N852  1  0.066600  0.135600  0.350000  1
  N  N853  1  0.006900  0.937600  0.650500  1
  N  N854  1  0.993100  0.062400  0.349500  1
  N  N855  1  0.994600  0.857300  0.602300  1
  N  N856  1  0.005400  0.142700  0.397700  1
  N  N857  1  0.780700  0.795800  0.684600  1
  N  N858  1  0.219300  0.204200  0.315400  1
  N  N859  1  0.707000  0.621000  0.360000  1
  N  N860  1  0.293000  0.379000  0.640000  1
  N  N861  1  0.426300  0.857200  0.754700  1
  N  N862  1  0.573700  0.142800  0.245300  1
  N  N863  1  0.620300  0.541500  0.509500  1
  N  N864  1  0.379700  0.458500  0.490500  1
  N  N865  1  0.755000  0.886400  0.382300  1
  N  N866  1  0.245000  0.113600  0.617700  1
  O  O867  1  0.374500  0.704600  0.249100  1
  O  O868  1  0.625500  0.295400  0.750900  1
  O  O869  1  0.553500  0.716300  0.309900  1
  O  O870  1  0.446500  0.283700  0.690100  1
  O  O871  1  0.463300  0.810200  0.348300  1
  O  O872  1  0.536700  0.189800  0.651700  1
  O  O873  1  0.511100  0.819700  0.257600  1
  O  O874  1  0.488900  0.180300  0.742400  1
  O  O875  1  0.197800  0.830200  0.738500  1
  O  O876  1  0.802200  0.169800  0.261500  1
  O  O877  1  0.015800  0.852800  0.709200  1
  O  O878  1  0.984200  0.147200  0.290800  1
  O  O879  1  0.132900  0.836300  0.624500  1
  O  O880  1  0.867100  0.163700  0.375500  1
  O  O881  1  0.158000  0.955900  0.703400  1
  O  O882  1  0.842000  0.044100  0.296600  1
  O  O883  1  0.250600  0.607600  0.570900  1
  O  O884  1  0.749400  0.392400  0.429100  1
  O  O885  1  0.338300  0.595600  0.549900  1
  O  O886  1  0.661700  0.404400  0.450100  1
  O  O887  1  0.301200  0.624800  0.524800  1
  O  O888  1  0.698800  0.375200  0.475200  1
  O  O889  1  0.469800  0.327000  0.224500  1
  O  O890  1  0.530200  0.673000  0.775500  1
  O  O891  1  0.473800  0.327000  0.291800  1
  O  O892  1  0.526200  0.673000  0.708200  1
  O  O893  1  0.488500  0.268800  0.239700  1
  O  O894  1  0.511500  0.731200  0.760300  1
  O  O895  1  0.535700  0.956000  0.496200  1
  O  O896  1  0.464300  0.044000  0.503800  1
  O  O897  1  0.564500  0.996800  0.557500  1
  O  O898  1  0.435500  0.003200  0.442500  1
  O  O899  1  0.533900  0.037200  0.522800  1
  O  O900  1  0.466100  0.962800  0.477200  1
  O  O901  1  0.430200  0.744600  0.609200  1
  O  O902  1  0.569800  0.255400  0.390800  1
  O  O903  1  0.500600  0.741100  0.580300  1
  O  O904  1  0.499400  0.258900  0.419700  1
  O  O905  1  0.479900  0.773800  0.653300  1
  O  O906  1  0.520100  0.226200  0.346700  1
  O  O907  1  0.991000  0.458600  0.478900  1
  O  O908  1  0.009000  0.541400  0.521100  1
  O  O909  1  0.966700  0.528600  0.487400  1
  O  O910  1  0.033300  0.471400  0.512600  1
  O  O911  1  0.935600  0.469200  0.440700  1
  O  O912  1  0.064400  0.530800  0.559300  1
  O  O913  1  0.632400  0.515000  0.443600  1
  O  O914  1  0.367600  0.485000  0.556400  1
  O  O915  1  0.613800  0.496900  0.504400  1
  O  O916  1  0.386200  0.503100  0.495600  1
  O  O917  1  0.601300  0.561400  0.487500  1
  O  O918  1  0.398700  0.438600  0.512500  1
  O  O919  1  0.709300  0.626400  0.638000  1
  O  O920  1  0.290700  0.373600  0.362000  1
  O  O921  1  0.676500  0.559700  0.576500  1
  O  O922  1  0.323500  0.440300  0.423500  1
  O  O923  1  0.742900  0.599900  0.601600  1
  O  O924  1  0.257100  0.400100  0.398400  1
  O  O925  1  0.431000  0.985100  0.747300  1
  O  O926  1  0.569000  0.014900  0.252700  1
  O  O927  1  0.433800  0.066200  0.777500  1
  O  O928  1  0.566200  0.933800  0.222500  1
  O  O929  1  0.442200  0.018000  0.821600  1
  O  O930  1  0.557800  0.982000  0.178400  1
  O  O931  1  0.114100  0.059600  0.720900  1
  O  O932  1  0.885900  0.940400  0.279100  1
  O  O933  1  0.054200  0.097400  0.689100  1
  O  O934  1  0.945800  0.902600  0.310900  1
  O  O935  1  0.457600  0.425800  0.016000  1
  O  O936  1  0.542400  0.574200  0.984000  1
  O  O937  1  0.350000  0.422000  0.971900  1
  O  O938  1  0.650000  0.578000  0.028100  1
  O  O939  1  0.410400  0.553600  0.934700  1
  O  O940  1  0.589600  0.446400  0.065300  1
  O  O941  1  0.482200  0.650200  0.917900  1
  O  O942  1  0.517800  0.349800  0.082100  1
  O  O943  1  0.052000  0.534400  0.286800  1
  O  O944  1  0.948000  0.465600  0.713200  1
  O  O945  1  0.333100  0.690900  0.473900  1
  O  O946  1  0.666900  0.309100  0.526100  1
  O  O947  1  0.773900  0.927900  0.811800  1
  O  O948  1  0.226100  0.072100  0.188200  1
  O  O949  1  0.665100  0.583900  0.261000  1
  O  O950  1  0.334900  0.416100  0.739000  1
  O  O951  1  0.589800  0.499200  0.213600  1
  O  O952  1  0.410200  0.500800  0.786400  1
  O  O953  1  0.523500  0.442700  0.267400  1
  O  O954  1  0.476500  0.557300  0.732600  1
  O  O955  1  0.044500  0.471700  0.722500  1
  O  O956  1  0.955500  0.528300  0.277500  1
  O  O957  1  0.533000  0.526200  0.356400  1
  O  O958  1  0.467000  0.473800  0.643600  1
  O  O959  1  0.367800  0.742700  0.591800  1
  O  O960  1  0.632200  0.257300  0.408200  1
  O  O961  1  0.129900  0.090300  0.855500  1
  O  O962  1  0.870100  0.909700  0.144500  1
  O  O963  1  0.523100  0.202100  0.477600  1
  O  O964  1  0.476900  0.797900  0.522400  1
  O  O965  1  0.522500  0.164100  0.526900  1
  O  O966  1  0.477500  0.835900  0.473100  1
  O  O967  1  0.448100  0.245900  0.907100  1
  O  O968  1  0.551900  0.754100  0.092900  1
  O  O969  1  0.407800  0.239100  0.996500  1
  O  O970  1  0.592200  0.760900  0.003500  1
  O  O971  1  0.201400  0.080800  0.366300  1
  O  O972  1  0.798600  0.919200  0.633700  1
  O  O973  1  0.104800  0.049800  0.387400  1
  O  O974  1  0.895200  0.950200  0.612600  1
  O  O975  1  0.149200  0.649100  0.854200  1
  O  O976  1  0.850800  0.350900  0.145800  1
  O  O977  1  0.758100  0.676800  0.863300  1
  O  O978  1  0.241900  0.323200  0.136700  1
  O  O979  1  0.818900  0.655900  0.897000  1
  O  O980  1  0.181100  0.344100  0.103000  1
  O  O981  1  0.020100  0.666500  0.524900  1
  O  O982  1  0.979900  0.333500  0.475100  1
  O  O983  1  0.057000  0.769500  0.510100  1
  O  O984  1  0.943000  0.230500  0.489900  1
  O  O985  1  0.890200  0.870800  0.558500  1
  O  O986  1  0.109800  0.129200  0.441500  1
  O  O987  1  0.969900  0.934500  0.537500  1
  O  O988  1  0.030100  0.065500  0.462500  1
  O  O989  1  0.566500  0.496200  0.025700  1
  O  O990  1  0.433500  0.503800  0.974300  1
  O  O991  1  0.915300  0.375200  0.435200  1
  O  O992  1  0.084700  0.624800  0.564800  1
  O  O993  1  0.832000  0.635000  0.750300  1
  O  O994  1  0.168000  0.365000  0.249700  1
  O  O995  1  0.690700  0.882900  0.629800  1
  O  O996  1  0.309300  0.117100  0.370200  1
  O  O997  1  0.694800  0.862700  0.688700  1
  O  O998  1  0.305200  0.137300  0.311300  1
  O  O999  1  0.576000  0.129300  0.563700  1
  O  O1000  1  0.424000  0.870700  0.436300  1
  O  O1001  1  0.164800  0.837100  0.005300  1
  O  O1002  1  0.835200  0.162900  0.994700  1
  O  O1003  1  0.883000  0.484400  0.792100  1
  O  O1004  1  0.117000  0.515600  0.207900  1
  O  O1005  1  0.957200  0.070500  0.978000  1
  O  O1006  1  0.042800  0.929500  0.022000  1
  O  O1007  1  0.861000  0.778000  0.479500  1
  O  O1008  1  0.139000  0.222000  0.520500  1
  O  O1009  1  0.013800  0.160200  0.957900  1
  O  O1010  1  0.986200  0.839800  0.042100  1
  O  O1011  1  0.198500  0.615800  0.837700  1
  O  O1012  1  0.801500  0.384200  0.162300  1
  O  O1013  1  0.827800  0.408100  0.845100  1
  O  O1014  1  0.172200  0.591900  0.154900  1
  O  O1015  1  0.073000  0.330000  0.848000  1
  O  O1016  1  0.927000  0.670000  0.152000  1
  O  O1017  1  0.097000  0.461000  0.754000  1
  O  O1018  1  0.903000  0.539000  0.246000  1
  O  O1019  1  0.613900  0.525800  0.400800  1
  O  O1020  1  0.386100  0.474200  0.599200  1
  O  O1021  1  0.666000  0.047000  0.763000  1
  O  O1022  1  0.334000  0.953000  0.237000  1
  O  O1023  1  0.110000  0.408000  0.894000  1
  O  O1024  1  0.890000  0.592000  0.106000  1
  O  O1025  1  0.763100  0.196400  0.895300  1
  O  O1026  1  0.236900  0.803600  0.104700  1
  O  O1027  1  0.291200  0.607900  0.804000  1
  O  O1028  1  0.708800  0.392100  0.196000  1
  O  O1029  1  0.750700  0.181100  0.801800  1
  O  O1030  1  0.249300  0.818900  0.198200  1
  O  O1031  1  0.216800  0.488700  0.956800  1
  O  O1032  1  0.783200  0.511300  0.043200  1
  O  O1033  1  0.261100  0.430600  0.023000  1
  O  O1034  1  0.738900  0.569400  0.977000  1
  O  O1035  1  0.720400  0.513800  0.906900  1
  O  O1036  1  0.279600  0.486200  0.093100  1
  O  O1037  1  0.711600  0.105700  0.745300  1
  O  O1038  1  0.288400  0.894300  0.254700  1
  O  O1039  1  0.703900  0.640900  0.390400  1
  O  O1040  1  0.296100  0.359100  0.609600  1
  O  O1041  1  0.997000  0.010000  0.563900  1
  O  O1042  1  0.003000  0.990000  0.436100  1
  O  O1043  1  0.429800  0.100500  0.479900  1
  O  O1044  1  0.570200  0.899500  0.520100  1
  O  O1045  1  0.735000  0.832800  0.442400  1
  O  O1046  1  0.265000  0.167200  0.557600  1
  O  O1047  1  0.748000  0.869300  0.744600  1
  O  O1048  1  0.252000  0.130700  0.255400  1
  O  O1049  1  0.250600  0.217600  0.337800  1
  O  O1050  1  0.749400  0.782400  0.662200  1
  O  O1051  1  0.488700  0.562200  0.966800  1
  O  O1052  1  0.511300  0.437800  0.033200  1
  O  O1053  1  0.058200  0.530000  0.264100  1
  O  O1054  1  0.941800  0.470000  0.735900  1
  O  O1055  1  0.571100  0.550300  0.009700  1
  O  O1056  1  0.428900  0.449700  0.990300  1
  O  O1057  1  0.349500  0.570800  0.560700  1
  O  O1058  1  0.650500  0.429200  0.439300  1
  O  O1059  1  0.320800  0.647000  0.505400  1
  O  O1060  1  0.679200  0.353000  0.494600  1
  O  O1061  1  0.621600  0.496900  0.486400  1
  O  O1062  1  0.378400  0.503100  0.513600  1
  O  O1063  1  0.641200  0.540700  0.544600  1
  O  O1064  1  0.358800  0.459300  0.455400  1
  O  O1065  1  0.614800  0.578900  0.497400  1
  O  O1066  1  0.385200  0.421100  0.502600  1
  O  O1067  1  0.511700  0.487000  0.342100  1
  O  O1068  1  0.488300  0.513000  0.657900  1
  O  O1069  1  0.398600  0.590000  0.307000  1
  O  O1070  1  0.601400  0.410000  0.693000  1
  O  O1071  1  0.738000  0.897000  0.404800  1
  O  O1072  1  0.262000  0.103000  0.595200  1
  O  O1073  1  0.067500  0.695900  0.739900  1
  O  O1074  1  0.932500  0.304100  0.260100  1
  O  O1075  1  0.769300  0.894100  0.344400  1
  O  O1076  1  0.230700  0.105900  0.655600  1
  O  O1077  1  0.030800  0.856300  0.703100  1
  O  O1078  1  0.969200  0.143700  0.296900  1
  O  O1079  1  0.748500  0.859700  0.395900  1
  O  O1080  1  0.251500  0.140300  0.604100  1
  O  O1081  1  0.020400  0.719300  0.624500  1
  O  O1082  1  0.979600  0.280700  0.375500  1
  O  O1083  1  0.935700  0.714900  0.695800  1
  O  O1084  1  0.064300  0.285100  0.304200  1
  O  O1085  1  0.758300  0.760100  0.653900  1
  O  O1086  1  0.241700  0.239900  0.346100  1
  O  O1087  1  0.774800  0.848700  0.719300  1
  O  O1088  1  0.225200  0.151300  0.280700  1
  O  O1089  1  0.650000  0.546900  0.230400  1
  O  O1090  1  0.350000  0.453100  0.769600  1
  O  O1091  1  0.555700  0.458200  0.225800  1
  O  O1092  1  0.444300  0.541800  0.774200  1
  O  O1093  1  0.506600  0.431900  0.301600  1
  O  O1094  1  0.493400  0.568100  0.698400  1
  O  O1095  1  0.483400  0.615000  0.168000  1
  O  O1096  1  0.516600  0.385000  0.832000  1
  O  O1097  1  0.096600  0.086800  0.705500  1
  O  O1098  1  0.903400  0.913200  0.294500  1
  O  O1099  1  0.816600  0.793400  0.711400  1
  O  O1100  1  0.183400  0.206600  0.288600  1
  O  O1101  1  0.262500  0.591000  0.587600  1
  O  O1102  1  0.737500  0.409000  0.412400  1
  O  O1103  1  0.677000  0.623000  0.408500  1
  O  O1104  1  0.323000  0.377000  0.591500  1
  O  O1105  1  0.724500  0.678500  0.384200  1
  O  O1106  1  0.275500  0.321500  0.615800  1
  O  O1107  1  0.657000  0.617000  0.345600  1
  O  O1108  1  0.343000  0.383000  0.654400  1
  O  O1109  1  0.362000  0.502200  0.208000  1
  O  O1110  1  0.638000  0.497800  0.792000  1
  O  O1111  1  0.480400  0.730900  0.575000  1
  O  O1112  1  0.519600  0.269100  0.425000  1
  O  O1113  1  0.510300  0.754600  0.664600  1
  O  O1114  1  0.489700  0.245400  0.335400  1
  O  O1115  1  0.473000  0.515600  0.224000  1
  O  O1116  1  0.527000  0.484400  0.776000  1
  O  O1117  1  0.534800  0.202500  0.512200  1
  O  O1118  1  0.465200  0.797500  0.487800  1
  O  O1119  1  0.434400  0.259700  0.961400  1
  O  O1120  1  0.565600  0.740300  0.038600  1
  O  O1121  1  0.152600  0.083300  0.392800  1
  O  O1122  1  0.847400  0.916700  0.607200  1
  O  O1123  1  0.796200  0.673700  0.875300  1
  O  O1124  1  0.203800  0.326300  0.124700  1
  O  O1125  1  0.931900  0.916200  0.564400  1
  O  O1126  1  0.068100  0.083800  0.435600  1
  O  O1127  1  0.909400  0.444100  0.444300  1
  O  O1128  1  0.090600  0.555900  0.555700  1
  O  O1129  1  0.764800  0.679100  0.687100  1
  O  O1130  1  0.235200  0.320900  0.312900  1
  O  O1131  1  0.822400  0.666000  0.728200  1
  O  O1132  1  0.177600  0.334000  0.271800  1
  O  O1133  1  0.708300  0.928900  0.636100  1
  O  O1134  1  0.291700  0.071100  0.363900  1
  O  O1135  1  0.617500  0.099500  0.556000  1
  O  O1136  1  0.382500  0.900500  0.444000  1
  O  O1137  1  0.172800  0.804400  0.935200  1
  O  O1138  1  0.827200  0.195600  0.064800  1
  O  O1139  1  0.165100  0.818300  0.970600  1
  O  O1140  1  0.834900  0.181700  0.029400  1
  O  O1141  1  0.855500  0.483400  0.768200  1
  O  O1142  1  0.144500  0.516600  0.231800  1
  O  O1143  1  0.831700  0.780800  0.507700  1
  O  O1144  1  0.168300  0.219200  0.492300  1
  O  O1145  1  0.985200  0.192400  0.960800  1
  O  O1146  1  0.014800  0.807600  0.039200  1
  O  O1147  1  0.913000  0.016700  0.979400  1
  O  O1148  1  0.087000  0.983300  0.020600  1
  O  O1149  1  0.196300  0.562400  0.830400  1
  O  O1150  1  0.803700  0.437600  0.169600  1
  O  O1151  1  0.795100  0.423300  0.828500  1
  O  O1152  1  0.204900  0.576700  0.171500  1
  O  O1153  1  0.082400  0.357100  0.872300  1
  O  O1154  1  0.917600  0.642900  0.127700  1
  O  O1155  1  0.446600  0.132100  0.475900  1
  O  O1156  1  0.553400  0.867900  0.524100  1
  O  O1157  1  0.125500  0.121600  0.886900  1
  O  O1158  1  0.874500  0.878400  0.113100  1
  O  O1159  1  0.751300  0.623200  0.608100  1
  O  O1160  1  0.248700  0.376800  0.391900  1
  O  O1161  1  0.719600  0.666400  0.666800  1
  O  O1162  1  0.280400  0.333600  0.333200  1
  O  O1163  1  0.684100  0.603500  0.629100  1
  O  O1164  1  0.315900  0.396500  0.370900  1
  O  O1165  1  0.724700  0.536500  0.947600  1
  O  O1166  1  0.275300  0.463500  0.052400  1
  O  O1167  1  0.242500  0.471400  0.971900  1
  O  O1168  1  0.757500  0.528600  0.028100  1
  O  O1169  1  0.726300  0.141000  0.778200  1
  O  O1170  1  0.273700  0.859000  0.221800  1
  O  O1171  1  0.412700  0.860900  0.722100  1
  O  O1172  1  0.587300  0.139100  0.277900  1
  O  O1173  1  0.295200  0.638200  0.806700  1
  O  O1174  1  0.704800  0.361800  0.193300  1
  O  O1175  1  0.666100  0.030900  0.723800  1
  O  O1176  1  0.333900  0.969100  0.276200  1
  O  O1177  1  0.424200  0.951600  0.724000  1
  O  O1178  1  0.575800  0.048400  0.276000  1
  O  O1179  1  0.429600  0.054500  0.813100  1
  O  O1180  1  0.570400  0.945500  0.186900  1
  O  O1181  1  0.437500  0.904600  0.785400  1
  O  O1182  1  0.562500  0.095400  0.214600  1
  O  O1183  1  0.456700  0.818200  0.776900  1
  O  O1184  1  0.543300  0.181800  0.223100  1
  O  O1185  1  0.792200  0.891100  0.307000  1
  O  O1186  1  0.207800  0.108900  0.693000  1
  O  O1187  1  0.764000  0.832100  0.379200  1
  O  O1188  1  0.236000  0.167900  0.620800  1
