
#######################################################################
#
#                 Cambridge Crystallographic Data Centre
#                                CCDC 
#
#######################################################################
#
# If this CIF has been generated from an entry in the Cambridge 
# Structural Database, then it will include bibliographic, chemical, 
# crystal, experimental, refinement or atomic coordinate data resulting 
# from the CCDC's data processing and validation procedures.
#
#######################################################################

data_YANNUX
_chemical_formula_moiety         
'C132 H96 N36 Pd6 12+,12(N1 O3 1-),10(D2 O1),69(H2 O1)'
_chemical_name_systematic        
"tetrakis(\m~3~-2,4,6-tris(4-Pyridyl)-1,3,5-triazine)-hexakis(2,2'-bipyridyl)-hexa-palladium(ii) decakis(deuterium oxide) clathrate dodecanitrate hydrate"
_symmetry_cell_setting           tetragonal
_symmetry_space_group_name_H-M   'P 41 21 2'
_symmetry_Int_Tables_number      92
_space_group_name_Hall           'P 4abw 2nw'
loop_
_symmetry_equiv_pos_site_id
_symmetry_equiv_pos_as_xyz
1 x,y,z
2 -x,-y,1/2+z
3 1/2-y,1/2+x,1/4+z
4 1/2+y,1/2-x,3/4+z
5 1/2-x,1/2+y,1/4-z
6 1/2+x,1/2-y,3/4-z
7 y,x,-z
8 -y,-x,1/2-z
_cell_length_a                   30.626(2)
_cell_length_b                   30.626(2)
_cell_length_c                   28.408(4)
_cell_angle_alpha                90
_cell_angle_beta                 90
_cell_angle_gamma                90
_cell_volume                     26645.3
_exptl_crystal_colour            'pale yellow'
_exptl_crystal_description       block
_cell_formula_units_Z            4
loop_
_atom_site_label
_atom_site_type_symbol
_atom_site_fract_x
_atom_site_fract_y
_atom_site_fract_z
Pd1 Pd 0.54222(2) 0.94334(3) -0.11697(3)
Pd2 Pd 0.53352(2) 0.53352(2) 0.0000
Pd3 Pd 0.83466(2) 0.68013(2) -0.29656(3)
Pd4 Pd 0.96514(2) 0.96514(2) 0.0000
C1 C 0.7656(4) 0.7828(4) -0.2273(4)
H1 H 0.7360 0.7918 -0.2249
C2 C 0.8382(4) 0.9458(4) -0.0610(4)
H2 H 0.8096 0.9573 -0.0576
C3 C 0.6177(4) 0.8992(5) -0.1580(4)
H3 H 0.5957 0.8880 -0.1783
C4 C 0.6379(3) 0.9458(3) -0.0981(4)
H4 H 0.6301 0.9671 -0.0754
C5 C 0.7382(3) 0.8874(3) -0.1387(4)
C6 C 0.9187(4) 0.9169(3) -0.0705(4)
H5 H 0.9477 0.9068 -0.0745
C7 C 0.7770(4) 0.7476(4) -0.2555(4)
H6 H 0.7547 0.7320 -0.2716
C8 C 0.7981(3) 0.8046(3) -0.2026(3)
C9 C 0.8723(4) 0.9635(3) -0.0348(4)
H7 H 0.8667 0.9865 -0.0131
C10 C 0.8405(3) 0.7910(3) -0.2077(4)
H8 H 0.8631 0.8049 -0.1905
C11 C 0.8874(4) 0.8971(3) -0.0969(3)
H9 H 0.8941 0.8742 -0.1181
C12 C 0.6922(4) 0.9020(3) -0.1349(4)
C13 C 0.6594(5) 0.8846(4) -0.1627(4)
H10 H 0.6660 0.8624 -0.1850
C14 C 0.8090(3) 0.8922(3) -0.1181(3)
C15 C 0.7874(3) 0.8404(3) -0.1704(3)
C16 C 0.8503(3) 0.7571(3) -0.2379(4)
H11 H 0.8800 0.7493 -0.2425
C17 C 0.8451(3) 0.9122(3) -0.0912(3)
C18 C 0.6806(3) 0.9337(3) -0.1014(4)
H12 H 0.7020 0.9464 -0.0815
N1 N 0.8193(2) 0.7350(3) -0.2607(3)
N2 N 0.9129(3) 0.9483(2) -0.0403(3)
N3 N 0.8204(3) 0.8592(2) -0.1466(3)
N4 N 0.6067(3) 0.9291(3) -0.1253(3)
N5 N 0.7450(3) 0.8543(2) -0.1684(3)
N6 N 0.7691(3) 0.9078(3) -0.1126(3)
C19 C 0.6286(4) 0.7762(4) 0.2341(4)
H13 H 0.6290 0.7569 0.2603
C20 C 0.6100(3) 0.7627(3) 0.1926(4)
H14 H 0.5991 0.7338 0.1896
C21 C 0.5525(3) 0.8344(3) 0.0025(4)
C22 C 0.5334(4) 0.8559(3) -0.0746(4)
H15 H 0.5231 0.8486 -0.1051
C23 C 0.5619(4) 0.6485(4) 0.0776(4)
H16 H 0.5734 0.6548 0.1080
C24 C 0.5284(4) 0.6286(4) -0.0064(5)
H17 H 0.5160 0.6217 -0.0361
C25 C 0.5604(3) 0.8777(3) 0.0136(4)
H18 H 0.5694 0.8861 0.0443
C26 C 0.6072(3) 0.7916(3) 0.1549(4)
C27 C 0.5621(3) 0.7285(3) 0.0587(3)
C28 C 0.6243(3) 0.8334(3) 0.1602(4)
H19 H 0.6227 0.8538 0.1351
C29 C 0.5858(3) 0.7803(3) 0.1100(4)
C30 C 0.5390(4) 0.8229(3) -0.0427(4)
H20 H 0.5338 0.7933 -0.0510
C31 C 0.5351(4) 0.6719(3) 0.0052(4)
H21 H 0.5274 0.6943 -0.0164
C32 C 0.6435(3) 0.8449(3) 0.2022(3)
H22 H 0.6549 0.8735 0.2060
C33 C 0.5527(3) 0.6823(3) 0.0477(4)
C34 C 0.5545(3) 0.9085(3) -0.0218(3)
H23 H 0.5599 0.9383 -0.0146
C35 C 0.5550(4) 0.6057(4) 0.0651(4)
H24 H 0.5618 0.5830 0.0866
C36 C 0.5601(3) 0.7998(3) 0.0390(4)
N7 N 0.5419(2) 0.8984(2) -0.0653(3)
N8 N 0.5389(2) 0.5961(3) 0.0228(3)
N9 N 0.5785(3) 0.7372(3) 0.1014(3)
N10 N 0.5783(3) 0.8118(2) 0.0796(3)
N11 N 0.8161(3) 0.6463(2) -0.2382(3)
N12 N 0.5517(3) 0.7585(3) 0.0263(3)
C37 C 0.8741(5) 0.6843(4) -0.3866(4)
C38 C 0.8741(5) 0.6376(4) -0.3753(4)
C39 C 0.8900(7) 0.7027(6) -0.4306(5)
H25 H 0.9050 0.6859 -0.4535
C40 C 0.8941(6) 0.6061(4) -0.4041(5)
H26 H 0.9090 0.6129 -0.4325
C41 C 0.8811(8) 0.7486(9) -0.4366(6)
H27 H 0.8871 0.7614 -0.4663
C42 C 0.8504(4) 0.7539(5) -0.3629(4)
H28 H 0.8372 0.7722 -0.3399
C43 C 0.8558(4) 0.5872(4) -0.3212(5)
H29 H 0.8439 0.5809 -0.2911
C44 C 0.8893(6) 0.5618(6) -0.3855(8)
H30 H 0.8999 0.5382 -0.4040
C45 C 0.8661(6) 0.7722(6) -0.4048(5)
H31 H 0.8652 0.8029 -0.4091
C46 C 0.8714(5) 0.5526(5) -0.3454(6)
H32 H 0.8695 0.5236 -0.3338
N13 N 0.8549(3) 0.6277(3) -0.3338(3)
N14 N 0.8540(3) 0.7112(3) -0.3549(3)
C47 C 0.4910(4) 1.0348(5) -0.2121(4)
H33 H 0.4626 1.0456 -0.2187
C48 C 0.5265(4) 1.0485(6) -0.2372(5)
H34 H 0.5226 1.0700 -0.2609
C49 C 0.4981(3) 1.0038(3) -0.1757(3)
C50 C 0.4208(3) 1.0006(3) -0.1458(4)
H35 H 0.4110 1.0197 -0.1699
C51 C 0.4510(3) 0.9429(3) -0.0794(3)
H36 H 0.4613 0.9223 -0.0571
C52 C 0.4647(3) 0.9875(3) -0.1438(3)
C53 C 0.3929(3) 0.9854(3) -0.1127(4)
H37 H 0.3633 0.9947 -0.1127
C54 C 0.4078(3) 0.9557(3) -0.0782(4)
H38 H 0.3886 0.9448 -0.0548
C55 C 0.5675(4) 1.0320(7) -0.2291(5)
H39 H 0.5918 1.0414 -0.2473
C56 C 0.5725(4) 1.0027(5) -0.1952(4)
H40 H 0.6009 0.9914 -0.1897
N15 N 0.5394(3) 0.9882(3) -0.1682(3)
N16 N 0.4787(2) 0.9591(2) -0.1117(3)
C57 C 1.0154(4) 1.0420(4) -0.0170(4)
C58 C 0.9537(5) 1.0447(5) -0.0637(5)
H41 H 0.9279 1.0313 -0.0752
C59 C 0.9642(5) 1.0831(5) -0.0791(5)
H42 H 0.9455 1.0970 -0.1012
C60 C 1.0266(5) 1.0830(4) -0.0320(5)
H43 H 1.0521 1.0965 -0.0196
C61 C 0.4476(3) 0.5544(4) 0.0471(4)
H44 H 0.4591 0.5825 0.0538
C62 C 0.4057(3) 0.5429(4) 0.0615(4)
H45 H 0.3886 0.5634 0.0784
C63 C 0.4132(3) 0.4735(4) 0.0280(4)
H46 H 0.4014 0.4455 0.0213
C64 C 0.3891(4) 0.5035(4) 0.0519(4)
H47 H 0.3604 0.4964 0.0619
C65 C 0.4552(3) 0.4841(3) 0.0134(4)
C66 C 1.0019(6) 1.1050(5) -0.0645(7)
H48 H 1.0098 1.1329 -0.0762
N17 N 0.9791(3) 1.0221(3) -0.0307(3)
N18 N 0.4721(2) 0.5237(2) 0.0227(3)
Pd1F Pd 0.94334(3) 0.54222(2) 0.11697(3)
Pd3F Pd 0.68013(2) 0.83466(2) 0.29656(3)
C1F C 0.7828(4) 0.7656(4) 0.2273(4)
H1F H 0.7918 0.7360 0.2249
C2F C 0.9458(4) 0.8382(4) 0.0610(4)
H2F H 0.9573 0.8096 0.0576
C3F C 0.8992(5) 0.6177(4) 0.1580(4)
H3F H 0.8880 0.5957 0.1783
C4F C 0.9458(3) 0.6379(3) 0.0981(4)
H4F H 0.9671 0.6301 0.0754
C5F C 0.8874(3) 0.7382(3) 0.1387(4)
C6F C 0.9169(3) 0.9187(4) 0.0705(4)
H5F H 0.9068 0.9477 0.0745
C7F C 0.7476(4) 0.7770(4) 0.2555(4)
H6F H 0.7320 0.7547 0.2716
C8F C 0.8046(3) 0.7981(3) 0.2026(3)
C9F C 0.9635(3) 0.8723(4) 0.0348(4)
H7F H 0.9865 0.8667 0.0131
C10F C 0.7910(3) 0.8405(3) 0.2077(4)
H8F H 0.8049 0.8631 0.1905
C11F C 0.8971(3) 0.8874(4) 0.0969(3)
H9F H 0.8742 0.8941 0.1181
C12F C 0.9020(3) 0.6922(4) 0.1349(4)
C13F C 0.8846(4) 0.6594(5) 0.1627(4)
H10F H 0.8624 0.6660 0.1850
C14F C 0.8922(3) 0.8090(3) 0.1181(3)
C15F C 0.8404(3) 0.7874(3) 0.1704(3)
C16F C 0.7571(3) 0.8503(3) 0.2379(4)
H11F H 0.7493 0.8800 0.2425
C17F C 0.9122(3) 0.8451(3) 0.0912(3)
C18F C 0.9337(3) 0.6806(3) 0.1014(4)
H12F H 0.9464 0.7020 0.0815
N1F N 0.7350(3) 0.8193(2) 0.2607(3)
N2F N 0.9483(2) 0.9129(3) 0.0403(3)
N3F N 0.8592(2) 0.8204(3) 0.1466(3)
N4F N 0.9291(3) 0.6067(3) 0.1253(3)
N5F N 0.8543(2) 0.7450(3) 0.1684(3)
N6F N 0.9078(3) 0.7691(3) 0.1126(3)
C19F C 0.7762(4) 0.6286(4) -0.2341(4)
H13F H 0.7569 0.6290 -0.2603
C20F C 0.7627(3) 0.6100(3) -0.1926(4)
H14F H 0.7338 0.5991 -0.1896
C21F C 0.8344(3) 0.5525(3) -0.0025(4)
C22F C 0.8559(3) 0.5334(4) 0.0746(4)
H15F H 0.8486 0.5231 0.1051
C23F C 0.6485(4) 0.5619(4) -0.0776(4)
H16F H 0.6548 0.5734 -0.1080
C24F C 0.6286(4) 0.5284(4) 0.0064(5)
H17F H 0.6217 0.5160 0.0361
C25F C 0.8777(3) 0.5604(3) -0.0136(4)
H18F H 0.8861 0.5694 -0.0443
C26F C 0.7916(3) 0.6072(3) -0.1549(4)
C27F C 0.7285(3) 0.5621(3) -0.0587(3)
C28F C 0.8334(3) 0.6243(3) -0.1602(4)
H19F H 0.8538 0.6227 -0.1351
C29F C 0.7803(3) 0.5858(3) -0.1100(4)
C30F C 0.8229(3) 0.5390(4) 0.0427(4)
H20F H 0.7933 0.5338 0.0510
C31F C 0.6719(3) 0.5351(4) -0.0052(4)
H21F H 0.6943 0.5274 0.0164
C32F C 0.8449(3) 0.6435(3) -0.2022(3)
H22F H 0.8735 0.6549 -0.2060
C33F C 0.6823(3) 0.5527(3) -0.0477(4)
C34F C 0.9085(3) 0.5545(3) 0.0218(3)
H23F H 0.9383 0.5599 0.0146
C35F C 0.6057(4) 0.5550(4) -0.0651(4)
H24F H 0.5830 0.5618 -0.0866
C36F C 0.7998(3) 0.5601(3) -0.0390(4)
N7F N 0.8984(2) 0.5419(2) 0.0653(3)
N8F N 0.5961(3) 0.5389(2) -0.0228(3)
N9F N 0.7372(3) 0.5785(3) -0.1014(3)
N10F N 0.8118(2) 0.5783(3) -0.0796(3)
N11F N 0.6463(2) 0.8161(3) 0.2382(3)
N12F N 0.7585(3) 0.5517(3) -0.0263(3)
C37F C 0.6843(4) 0.8741(5) 0.3866(4)
C38F C 0.6376(4) 0.8741(5) 0.3753(4)
C39F C 0.7027(6) 0.8900(7) 0.4306(5)
H25F H 0.6859 0.9050 0.4535
C40F C 0.6061(4) 0.8941(6) 0.4041(5)
H26F H 0.6129 0.9090 0.4325
C41F C 0.7486(9) 0.8811(8) 0.4366(6)
H27F H 0.7614 0.8871 0.4663
C42F C 0.7539(5) 0.8504(4) 0.3629(4)
H28F H 0.7722 0.8372 0.3399
C43F C 0.5872(4) 0.8558(4) 0.3212(5)
H29F H 0.5809 0.8439 0.2911
C44F C 0.5618(6) 0.8893(6) 0.3855(8)
H30F H 0.5382 0.8999 0.4040
C45F C 0.7722(6) 0.8661(6) 0.4048(5)
H31F H 0.8029 0.8652 0.4091
C46F C 0.5526(5) 0.8714(5) 0.3454(6)
H32F H 0.5236 0.8695 0.3338
N13F N 0.6277(3) 0.8549(3) 0.3338(3)
N14F N 0.7112(3) 0.8540(3) 0.3549(3)
C47F C 1.0348(5) 0.4910(4) 0.2121(4)
H33F H 1.0456 0.4626 0.2187
C48F C 1.0485(6) 0.5265(4) 0.2372(5)
H34F H 1.0700 0.5226 0.2609
C49F C 1.0038(3) 0.4981(3) 0.1757(3)
C50F C 1.0006(3) 0.4208(3) 0.1458(4)
H35F H 1.0197 0.4110 0.1699
C51F C 0.9429(3) 0.4510(3) 0.0794(3)
H36F H 0.9223 0.4613 0.0571
C52F C 0.9875(3) 0.4647(3) 0.1438(3)
C53F C 0.9854(3) 0.3929(3) 0.1127(4)
H37F H 0.9947 0.3633 0.1127
C54F C 0.9557(3) 0.4078(3) 0.0782(4)
H38F H 0.9448 0.3886 0.0548
C55F C 1.0320(7) 0.5675(4) 0.2291(5)
H39F H 1.0414 0.5918 0.2473
C56F C 1.0027(5) 0.5725(4) 0.1952(4)
H40F H 0.9914 0.6009 0.1897
N15F N 0.9882(3) 0.5394(3) 0.1682(3)
N16F N 0.9591(2) 0.4787(2) 0.1117(3)
C57F C 1.0420(4) 1.0154(4) 0.0170(4)
C58F C 1.0447(5) 0.9537(5) 0.0637(5)
H41F H 1.0313 0.9279 0.0752
C59F C 1.0831(5) 0.9642(5) 0.0791(5)
H42F H 1.0970 0.9455 0.1012
C60F C 1.0830(4) 1.0266(5) 0.0320(5)
H43F H 1.0965 1.0521 0.0196
C61F C 0.5544(4) 0.4476(3) -0.0471(4)
H44F H 0.5825 0.4591 -0.0538
C62F C 0.5429(4) 0.4057(3) -0.0615(4)
H45F H 0.5634 0.3886 -0.0784
C63F C 0.4735(4) 0.4132(3) -0.0280(4)
H46F H 0.4455 0.4014 -0.0213
C64F C 0.5035(4) 0.3891(4) -0.0519(4)
H47F H 0.4964 0.3604 -0.0619
C65F C 0.4841(3) 0.4552(3) -0.0134(4)
C66F C 1.1050(5) 1.0019(6) 0.0645(7)
H48F H 1.1329 1.0098 0.0762
N17F N 1.0221(3) 0.9791(3) 0.0307(3)
N18F N 0.5237(2) 0.4721(2) -0.0227(3)
N19 N 0.4449(2) 0.8410(2) 0.0241(3)
O1 O 0.4419(2) 0.8788(2) 0.0071(2)
O2 O 0.4336(2) 0.8080(2) 0.0000(2)
O3 O 0.4585(3) 0.8353(2) 0.0651(2)
N20 N 0.9487(5) 0.5452(5) 0.3060(8)
O4 O 0.9291(9) 0.5797(5) 0.2846(10)
O5 O 0.9416(5) 0.5112(3) 0.2888(6)
O6 O 0.9746(4) 0.5555(4) 0.3362(4)
N21 N 0.9522(5) 0.9613(5) 0.1653(5)
O7 O 0.9919(5) 0.9645(5) 0.1478(5)
O8 O 0.9269(5) 0.9920(4) 0.1571(5)
O9 O 0.9434(5) 0.9266(5) 0.1855(5)
N22 N 0.4909(9) 0.8257(9) 0.2381(12)
O10 O 0.4728(9) 0.8637(8) 0.2459(11)
O11 O 0.4731(9) 0.7936(9) 0.2612(11)
O12 O 0.5308(8) 0.8182(10) 0.2349(11)
N23 N 0.9770(7) 0.6323(7) -0.0703(7)
O13 O 1.0132(7) 0.6160(7) -0.0479(7)
O14 O 0.9375(7) 0.6259(7) -0.0846(7)
O15 O 0.9842(7) 0.6718(7) -0.0880(7)
N24 N 0.691(2) 0.9004(13) -0.293(2)
O16 O 0.6894(12) 0.8571(11) -0.2919(13)
O17 O 0.7144(14) 0.9242(11) -0.2658(14)
O18 O 0.667 0.9202 -0.324
O19 O 0.6678(5) 0.6678(5) 0.0000
O20 O 0.8271(5) 0.8271(5) 0.0000
O21 O 0.6654(5) 0.7550(6) 0.0365(5)
O22 O 0.6707(6) 0.8190(6) -0.0401(6)
O23 O 0.7605(4) 0.8084(4) -0.0635(4)
O24 O 0.7229(5) 0.7725(4) 0.1070(5)
O25 O 0.6177(9) 0.6775(8) -0.0852(9)
O26 O 0.7980(5) 0.8986(6) 0.0554(6)
O27 O 0.7264(5) 0.8622(4) 0.1059(4)
O28 O 0.6366(12) 0.7792(9) -0.1285(17)
O29 O 0.6770(6) 0.8894(6) 0.0178(6)
O30 O 0.7164(16) 0.6921(12) 0.1694(14)
O31 O 0.6892(10) 0.9350(5) 0.1502(5)
O33 O 0.7368(5) 0.9567(7) 0.0123(5)
O34 O 0.6484(10) 0.6559(11) 0.161(2)
O35 O 0.9922(5) 1.0496(6) 0.1028(5)
O36 O 0.4267(5) 0.6457(6) -0.0368(6)
O37 O 0.8375(4) 0.9234(5) 0.3113(5)
O39 O 0.4500(11) 0.7398(11) 0.0720(12)
O40 O 0.5010(7) 0.7616(10) -0.1417(8)
O41 O 0.4968(6) 0.7683(9) 0.1618(7)
O42 O 1.0155(8) 0.7439(6) 0.1504(6)
O43 O 1.0312(10) 0.8792(8) 0.1535(6)
O44 O 1.0221(5) 0.7445(7) 0.0512(6)
O45 O 0.9144(8) 0.8030(12) 0.2502(8)
O46 O 0.8967(10) 1.0351(8) 0.0611(7)
O47 O 0.8190(7) 0.7548(5) 0.3531(7)
O48 O 0.8528(5) 0.8318(5) 0.3171(5)
O49 O 1.1238(4) 1.0475(4) -0.1014(4)
O50 O 0.3384(9) 0.4170(10) 0.0908(9)
O51 O 1.1748(9) 0.9852(13) -0.0523(10)
O52 O 0.6672(12) 0.7420(9) 0.3419(12)
O53 O 1.0656(12) 0.8151(13) 0.032(2)
O54 O 0.6034(17) 1.1653(11) -0.1958(11)
O55 O 0.4600(9) 0.6924(9) -0.1043(9)
O56 O 0.549(2) 0.8231(14) 0.4763(13)
O57 O 1.1518(12) 0.9177(11) -0.0300(14)
O58 O 0.6570(17) 0.7738(8) 0.4058(16)
O59 O 0.3015(10) 0.5347(11) 0.1155(11)
O61 O 1.0490(14) 0.6475(18) 0.001(2)
O62 O 0.9668(14) 0.8285(14) 0.1986(9)
O63 O 1.0824(14) 1.1909(11) -0.0452(11)
O65 O 0.2905(9) 0.4472(11) 0.0238(10)
O66 O 0.6755(5) 0.9863(9) -0.2088(6)
O67 O 0.3070(15) 0.4040(11) 0.1771(12)
O69 O 0.6461(12) 1.2456(9) -0.1908(9)
O71 O 1.0235(16) 0.8267(15) -0.1279(15)
O32? O 0.7198(15) 0.9350(9) 0.1600(9)
O38? O 0.4641(12) 0.7428(12) 0.0904(13)
O60? O 1.1338(14) 1.1131(16) -0.0375(17)
O64? O 1.1120(12) 1.133(2) -0.0986(12)
O68? O 0.723(5) 1.258(3) -0.253(5)
O70? O 1.0711(18) 0.8904(17) -0.0884(18)
O72? O 0.6557(15) 0.9430(14) -0.3487(16)
O73? O 0.630(2) 0.935(2) -0.385(2)
loop_
_geom_bond_atom_site_label_1
_geom_bond_atom_site_label_2
_geom_bond_site_symmetry_1
_geom_bond_site_symmetry_2
Pd1 N4 1_555 1_555
Pd2 N8 1_555 1_555
Pd3 N1 1_555 1_555
Pd4 N2 1_555 1_555
C1 H1 1_555 1_555
C2 H2 1_555 1_555
C3 H3 1_555 1_555
C4 H4 1_555 1_555
C5 C12 1_555 1_555
C6 H5 1_555 1_555
C7 C1 1_555 1_555
H6 C7 1_555 1_555
C8 C1 1_555 1_555
C9 C2 1_555 1_555
H7 C9 1_555 1_555
C10 C8 1_555 1_555
H8 C10 1_555 1_555
C11 C6 1_555 1_555
H9 C11 1_555 1_555
C12 C13 1_555 1_555
C13 C3 1_555 1_555
H10 C13 1_555 1_555
C14 C17 1_555 1_555
C15 C8 1_555 1_555
C16 C10 1_555 1_555
H11 C16 1_555 1_555
C17 C2 1_555 1_555
C18 C4 1_555 1_555
H12 C18 1_555 1_555
N1 C7 1_555 1_555
N2 C6 1_555 1_555
N3 C14 1_555 1_555
N4 C3 1_555 1_555
N5 C5 1_555 1_555
N6 C5 1_555 1_555
C19 H13 1_555 1_555
C20 C19 1_555 1_555
H14 C20 1_555 1_555
C21 C25 1_555 1_555
C22 H15 1_555 1_555
C23 H16 1_555 1_555
C24 H17 1_555 1_555
C25 H18 1_555 1_555
C26 C20 1_555 1_555
C27 C33 1_555 1_555
C28 C26 1_555 1_555
H19 C28 1_555 1_555
C29 C26 1_555 1_555
C30 C21 1_555 1_555
H20 C30 1_555 1_555
C31 C24 1_555 1_555
H21 C31 1_555 1_555
C32 C28 1_555 1_555
H22 C32 1_555 1_555
C33 C23 1_555 1_555
C34 C25 1_555 1_555
H23 C34 1_555 1_555
C35 C23 1_555 1_555
H24 C35 1_555 1_555
C36 C21 1_555 1_555
N7 Pd1 1_555 1_555
N8 C24 1_555 1_555
N9 C27 1_555 1_555
N10 C29 1_555 1_555
N11 Pd3 1_555 1_555
N12 C27 1_555 1_555
C37 C38 1_555 1_555
C38 C40 1_555 1_555
C39 C37 1_555 1_555
H25 C39 1_555 1_555
C40 H26 1_555 1_555
C41 C39 1_555 1_555
H27 C41 1_555 1_555
C42 H28 1_555 1_555
C43 H29 1_555 1_555
C44 C40 1_555 1_555
H30 C44 1_555 1_555
C45 C41 1_555 1_555
H31 C45 1_555 1_555
C46 C43 1_555 1_555
H32 C46 1_555 1_555
N13 Pd3 1_555 1_555
N14 Pd3 1_555 1_555
C47 H33 1_555 1_555
C48 C47 1_555 1_555
H34 C48 1_555 1_555
C49 C47 1_555 1_555
C50 H35 1_555 1_555
C51 H36 1_555 1_555
C52 C49 1_555 1_555
C53 C50 1_555 1_555
H37 C53 1_555 1_555
C54 C51 1_555 1_555
H38 C54 1_555 1_555
C55 C48 1_555 1_555
H39 C55 1_555 1_555
C56 C55 1_555 1_555
H40 C56 1_555 1_555
N15 Pd1 1_555 1_555
N16 Pd1 1_555 1_555
C57 C60 1_555 1_555
C58 H41 1_555 1_555
C59 C58 1_555 1_555
H42 C59 1_555 1_555
C60 H43 1_555 1_555
C61 H44 1_555 1_555
C62 C61 1_555 1_555
H45 C62 1_555 1_555
C63 H46 1_555 1_555
C64 C62 1_555 1_555
H47 C64 1_555 1_555
C65 C63 1_555 1_555
C66 C59 1_555 1_555
H48 C66 1_555 1_555
N17 Pd4 1_555 1_555
N18 Pd2 1_555 1_555
N19 O1 1_555 1_555
O2 N19 1_555 1_555
O3 N19 1_555 1_555
N20 O4 1_555 1_555
O5 N20 1_555 1_555
O6 N20 1_555 1_555
N21 O7 1_555 1_555
O8 N21 1_555 1_555
O9 N21 1_555 1_555
N22 O10 1_555 1_555
O11 N22 1_555 1_555
O12 N22 1_555 1_555
N23 O13 1_555 1_555
O14 N23 1_555 1_555
O15 N23 1_555 1_555
N24 O16 1_555 1_555
O17 N24 1_555 1_555
O18 N24 1_555 1_555
Pd1F N4F 1_555 1_555
Pd3F N1F 1_555 1_555
C1F H1F 1_555 1_555
C2F H2F 1_555 1_555
C3F H3F 1_555 1_555
C4F H4F 1_555 1_555
C5F C12F 1_555 1_555
C6F H5F 1_555 1_555
C7F C1F 1_555 1_555
H6F C7F 1_555 1_555
C8F C1F 1_555 1_555
C9F C2F 1_555 1_555
H7F C9F 1_555 1_555
C10F C8F 1_555 1_555
H8F C10F 1_555 1_555
C11F C6F 1_555 1_555
H9F C11F 1_555 1_555
C12F C13F 1_555 1_555
C13F C3F 1_555 1_555
H10F C13F 1_555 1_555
C14F C17F 1_555 1_555
C15F C8F 1_555 1_555
C16F C10F 1_555 1_555
H11F C16F 1_555 1_555
C17F C2F 1_555 1_555
C18F C4F 1_555 1_555
H12F C18F 1_555 1_555
N1F C7F 1_555 1_555
N2F Pd4 1_555 1_555
N3F C14F 1_555 1_555
N4F C3F 1_555 1_555
N5F C5F 1_555 1_555
N6F C5F 1_555 1_555
C19F N11 1_555 1_555
H13F C19F 1_555 1_555
C20F C19F 1_555 1_555
H14F C20F 1_555 1_555
C21F C25F 1_555 1_555
C22F H15F 1_555 1_555
C23F H16F 1_555 1_555
C24F H17F 1_555 1_555
C25F H18F 1_555 1_555
C26F C20F 1_555 1_555
C27F C33F 1_555 1_555
C28F C26F 1_555 1_555
H19F C28F 1_555 1_555
C29F C26F 1_555 1_555
C30F C21F 1_555 1_555
H20F C30F 1_555 1_555
C31F C24F 1_555 1_555
H21F C31F 1_555 1_555
C32F N11 1_555 1_555
H22F C32F 1_555 1_555
C33F C23F 1_555 1_555
C34F C25F 1_555 1_555
H23F C34F 1_555 1_555
C35F C23F 1_555 1_555
H24F C35F 1_555 1_555
C36F C21F 1_555 1_555
N7F Pd1F 1_555 1_555
N8F Pd2 1_555 1_555
N9F C27F 1_555 1_555
N10F C29F 1_555 1_555
N11F C19 1_555 1_555
N12F C27F 1_555 1_555
C37F C38F 1_555 1_555
C38F C40F 1_555 1_555
C39F C37F 1_555 1_555
H25F C39F 1_555 1_555
C40F H26F 1_555 1_555
C41F C39F 1_555 1_555
H27F C41F 1_555 1_555
C42F H28F 1_555 1_555
C43F H29F 1_555 1_555
C44F C40F 1_555 1_555
H30F C44F 1_555 1_555
C45F C41F 1_555 1_555
H31F C45F 1_555 1_555
C46F C43F 1_555 1_555
H32F C46F 1_555 1_555
N13F Pd3F 1_555 1_555
N14F Pd3F 1_555 1_555
C47F H33F 1_555 1_555
C48F C47F 1_555 1_555
H34F C48F 1_555 1_555
C49F C47F 1_555 1_555
C50F H35F 1_555 1_555
C51F H36F 1_555 1_555
C52F C49F 1_555 1_555
C53F C50F 1_555 1_555
H37F C53F 1_555 1_555
C54F C51F 1_555 1_555
H38F C54F 1_555 1_555
C55F C48F 1_555 1_555
H39F C55F 1_555 1_555
C56F C55F 1_555 1_555
H40F C56F 1_555 1_555
N15F Pd1F 1_555 1_555
N16F Pd1F 1_555 1_555
C57F C57 1_555 1_555
C58F H41F 1_555 1_555
C59F C58F 1_555 1_555
H42F C59F 1_555 1_555
C60F C57F 1_555 1_555
H43F C60F 1_555 1_555
C61F H44F 1_555 1_555
C62F C61F 1_555 1_555
H45F C62F 1_555 1_555
C63F H46F 1_555 1_555
C64F C62F 1_555 1_555
H47F C64F 1_555 1_555
C65F C65 1_555 1_555
C66F C59F 1_555 1_555
H48F C66F 1_555 1_555
N17F Pd4 1_555 1_555
N18F Pd2 1_555 1_555
C4 N4 1_555 1_555
C9 N2 1_555 1_555
C11 C17 1_555 1_555
C12 C18 1_555 1_555
C14 N6 1_555 1_555
C15 N3 1_555 1_555
C15 N5 1_555 1_555
C16 N1 1_555 1_555
C22 C30 1_555 1_555
C22 N7 1_555 1_555
C29 N9 1_555 1_555
C31 C33 1_555 1_555
C32 N11F 1_555 1_555
C34 N7 1_555 1_555
C35 N8 1_555 1_555
C36 N10 1_555 1_555
C36 N12 1_555 1_555
C37 N14 1_555 1_555
C38 N13 1_555 1_555
C42 C45 1_555 1_555
C42 N14 1_555 1_555
C43 N13 1_555 1_555
C44 C46 1_555 1_555
C49 N15 1_555 1_555
C50 C52 1_555 1_555
C51 N16 1_555 1_555
C52 N16 1_555 1_555
C53 C54 1_555 1_555
C56 N15 1_555 1_555
C57 N17 1_555 1_555
C58 N17 1_555 1_555
C60 C66 1_555 1_555
C61 N18 1_555 1_555
C63 C64 1_555 1_555
C65 N18 1_555 1_555
Pd3F N11F 1_555 1_555
C4F N4F 1_555 1_555
C6F N2F 1_555 1_555
C9F N2F 1_555 1_555
C11F C17F 1_555 1_555
C12F C18F 1_555 1_555
C14F N6F 1_555 1_555
C15F N3F 1_555 1_555
C15F N5F 1_555 1_555
C16F N1F 1_555 1_555
C22F C30F 1_555 1_555
C22F N7F 1_555 1_555
C24F N8F 1_555 1_555
C28F C32F 1_555 1_555
C29F N9F 1_555 1_555
C31F C33F 1_555 1_555
C34F N7F 1_555 1_555
C35F N8F 1_555 1_555
C36F N10F 1_555 1_555
C36F N12F 1_555 1_555
C37F N14F 1_555 1_555
C38F N13F 1_555 1_555
C42F C45F 1_555 1_555
C42F N14F 1_555 1_555
C43F N13F 1_555 1_555
C44F C46F 1_555 1_555
C49F N15F 1_555 1_555
C50F C52F 1_555 1_555
C51F N16F 1_555 1_555
C52F N16F 1_555 1_555
C53F C54F 1_555 1_555
C56F N15F 1_555 1_555
C57F N17F 1_555 1_555
C58F N17F 1_555 1_555
C60F C66F 1_555 1_555
C61F N18F 1_555 1_555
C63F C64F 1_555 1_555
C63F C65F 1_555 1_555
C65F N18F 1_555 1_555

#END
