# generated using pymatgen
data_H16PdC22(NO3)8
_symmetry_space_group_name_H-M   'P 1'
_cell_length_a   28.40800000
_cell_length_b   30.62600000
_cell_length_c   30.62600000
_cell_angle_alpha   90.00000000
_cell_angle_beta   90.00000000
_cell_angle_gamma   90.00000000
_symmetry_Int_Tables_number   1
_chemical_formula_structural   H16PdC22(NO3)8
_chemical_formula_sum   'H384 Pd24 C528 N192 O576'
_cell_volume   26645.33689341
_cell_formula_units_Z   24
loop_
 _symmetry_equiv_pos_site_id
 _symmetry_equiv_pos_as_xyz
  1  'x, y, z'
loop_
 _atom_site_type_symbol
 _atom_site_label
 _atom_site_symmetry_multiplicity
 _atom_site_fract_x
 _atom_site_fract_y
 _atom_site_fract_z
 _atom_site_occupancy
  H  H1  1  0.775100  0.736000  0.791800  1.0
  H  H2  1  0.275100  0.264000  0.208200  1.0
  H  H3  1  0.025100  0.708200  0.236000  1.0
  H  H4  1  0.525100  0.291800  0.764000  1.0
  H  H5  1  0.474900  0.764000  0.291800  1.0
  H  H6  1  0.974900  0.236000  0.708200  1.0
  H  H7  1  0.224900  0.791800  0.736000  1.0
  H  H8  1  0.724900  0.208200  0.264000  1.0
  H  H9  1  0.942400  0.809600  0.957300  1.0
  H  H10  1  0.442400  0.190400  0.042700  1.0
  H  H11  1  0.192400  0.542700  0.309600  1.0
  H  H12  1  0.692400  0.457300  0.690400  1.0
  H  H13  1  0.307600  0.690400  0.457300  1.0
  H  H14  1  0.807600  0.309600  0.542700  1.0
  H  H15  1  0.057600  0.957300  0.809600  1.0
  H  H16  1  0.557600  0.042700  0.190400  1.0
  H  H17  1  0.821700  0.595700  0.888000  1.0
  H  H18  1  0.321700  0.404300  0.112000  1.0
  H  H19  1  0.071700  0.612000  0.095700  1.0
  H  H20  1  0.571700  0.388000  0.904300  1.0
  H  H21  1  0.428300  0.904300  0.388000  1.0
  H  H22  1  0.928300  0.095700  0.612000  1.0
  H  H23  1  0.178300  0.888000  0.595700  1.0
  H  H24  1  0.678300  0.112000  0.404300  1.0
  H  H25  1  0.924600  0.630100  0.967100  1.0
  H  H26  1  0.424600  0.369900  0.032900  1.0
  H  H27  1  0.174600  0.532900  0.130100  1.0
  H  H28  1  0.674600  0.467100  0.869900  1.0
  H  H29  1  0.325400  0.869900  0.467100  1.0
  H  H30  1  0.825400  0.130100  0.532900  1.0
  H  H31  1  0.075400  0.967100  0.630100  1.0
  H  H32  1  0.575400  0.032900  0.369900  1.0
  H  H33  1  0.925500  0.947700  0.906800  1.0
  H  H34  1  0.425500  0.052300  0.093200  1.0
  H  H35  1  0.175500  0.593200  0.447700  1.0
  H  H36  1  0.675500  0.406800  0.552300  1.0
  H  H37  1  0.324500  0.552300  0.406800  1.0
  H  H38  1  0.824500  0.447700  0.593200  1.0
  H  H39  1  0.074500  0.906800  0.947700  1.0
  H  H40  1  0.574500  0.093200  0.052300  1.0
  H  H41  1  0.728400  0.754700  0.732000  1.0
  H  H42  1  0.228400  0.245300  0.268000  1.0
  H  H43  1  0.978400  0.768000  0.254700  1.0
  H  H44  1  0.478400  0.232000  0.745300  1.0
  H  H45  1  0.521600  0.745300  0.232000  1.0
  H  H46  1  0.021600  0.254700  0.768000  1.0
  H  H47  1  0.271600  0.732000  0.754700  1.0
  H  H48  1  0.771600  0.268000  0.245300  1.0
  H  H49  1  0.986900  0.866700  0.986500  1.0
  H  H50  1  0.486900  0.133300  0.013500  1.0
  H  H51  1  0.236900  0.513500  0.366700  1.0
  H  H52  1  0.736900  0.486500  0.633300  1.0
  H  H53  1  0.263100  0.633300  0.486500  1.0
  H  H54  1  0.763100  0.366700  0.513500  1.0
  H  H55  1  0.013100  0.986500  0.866700  1.0
  H  H56  1  0.513100  0.013500  0.133300  1.0
  H  H57  1  0.809500  0.863100  0.804900  1.0
  H  H58  1  0.309500  0.136900  0.195100  1.0
  H  H59  1  0.059500  0.695100  0.363100  1.0
  H  H60  1  0.559500  0.304900  0.636900  1.0
  H  H61  1  0.440500  0.636900  0.304900  1.0
  H  H62  1  0.940500  0.363100  0.695100  1.0
  H  H63  1  0.190500  0.804900  0.863100  1.0
  H  H64  1  0.690500  0.195100  0.136900  1.0
  H  H65  1  0.881900  0.894100  0.874200  1.0
  H  H66  1  0.381900  0.105900  0.125800  1.0
  H  H67  1  0.131900  0.625800  0.394100  1.0
  H  H68  1  0.631900  0.374200  0.605900  1.0
  H  H69  1  0.368100  0.605900  0.374200  1.0
  H  H70  1  0.868100  0.394100  0.625800  1.0
  H  H71  1  0.118100  0.874200  0.894100  1.0
  H  H72  1  0.618100  0.125800  0.105900  1.0
  H  H73  1  0.815000  0.666000  0.862400  1.0
  H  H74  1  0.315000  0.334000  0.137600  1.0
  H  H75  1  0.065000  0.637600  0.166000  1.0
  H  H76  1  0.565000  0.362400  0.834000  1.0
  H  H77  1  0.435000  0.834000  0.362400  1.0
  H  H78  1  0.935000  0.166000  0.637600  1.0
  H  H79  1  0.185000  0.862400  0.666000  1.0
  H  H80  1  0.685000  0.137600  0.334000  1.0
  H  H81  1  0.757500  0.880000  0.749300  1.0
  H  H82  1  0.257500  0.120000  0.250700  1.0
  H  H83  1  0.007500  0.750700  0.380000  1.0
  H  H84  1  0.507500  0.249300  0.620000  1.0
  H  H85  1  0.492500  0.620000  0.249300  1.0
  H  H86  1  0.992500  0.380000  0.750700  1.0
  H  H87  1  0.242500  0.749300  0.880000  1.0
  H  H88  1  0.742500  0.250700  0.120000  1.0
  H  H89  1  0.918500  0.702000  0.946400  1.0
  H  H90  1  0.418500  0.298000  0.053600  1.0
  H  H91  1  0.168500  0.553600  0.202000  1.0
  H  H92  1  0.668500  0.446400  0.798000  1.0
  H  H93  1  0.331500  0.798000  0.446400  1.0
  H  H94  1  0.831500  0.202000  0.553600  1.0
  H  H95  1  0.081500  0.946400  0.702000  1.0
  H  H96  1  0.581500  0.053600  0.298000  1.0
  H  H97  1  0.260300  0.629000  0.756900  1.0
  H  H98  1  0.760300  0.371000  0.243100  1.0
  H  H99  1  0.510300  0.743100  0.129000  1.0
  H  H100  1  0.010300  0.256900  0.871000  1.0
  H  H101  1  0.989700  0.871000  0.256900  1.0
  H  H102  1  0.489700  0.129000  0.743100  1.0
  H  H103  1  0.739700  0.756900  0.629000  1.0
  H  H104  1  0.239700  0.243100  0.371000  1.0
  H  H105  1  0.189600  0.599100  0.733800  1.0
  H  H106  1  0.689600  0.400900  0.266200  1.0
  H  H107  1  0.439600  0.766200  0.099100  1.0
  H  H108  1  0.939600  0.233800  0.900900  1.0
  H  H109  1  0.060400  0.900900  0.233800  1.0
  H  H110  1  0.560400  0.099100  0.766200  1.0
  H  H111  1  0.810400  0.733800  0.599100  1.0
  H  H112  1  0.310400  0.266200  0.400900  1.0
  H  H113  1  0.894900  0.523100  0.848600  1.0
  H  H114  1  0.394900  0.476900  0.151400  1.0
  H  H115  1  0.144900  0.651400  0.023100  1.0
  H  H116  1  0.644900  0.348600  0.976900  1.0
  H  H117  1  0.355100  0.976900  0.348600  1.0
  H  H118  1  0.855100  0.023100  0.651400  1.0
  H  H119  1  0.105100  0.848600  0.523100  1.0
  H  H120  1  0.605100  0.151400  0.476900  1.0
  H  H121  1  0.108000  0.573400  0.654800  1.0
  H  H122  1  0.608000  0.426600  0.345200  1.0
  H  H123  1  0.358000  0.845200  0.073400  1.0
  H  H124  1  0.858000  0.154800  0.926600  1.0
  H  H125  1  0.142000  0.926600  0.154800  1.0
  H  H126  1  0.642000  0.073400  0.845200  1.0
  H  H127  1  0.892000  0.654800  0.573400  1.0
  H  H128  1  0.392000  0.345200  0.426600  1.0
  H  H129  1  0.963900  0.516000  0.621700  1.0
  H  H130  1  0.463900  0.484000  0.378300  1.0
  H  H131  1  0.213900  0.878300  0.016000  1.0
  H  H132  1  0.713900  0.121700  0.984000  1.0
  H  H133  1  0.286100  0.984000  0.121700  1.0
  H  H134  1  0.786100  0.016000  0.878300  1.0
  H  H135  1  0.036100  0.621700  0.516000  1.0
  H  H136  1  0.536100  0.378300  0.484000  1.0
  H  H137  1  0.044300  0.569400  0.886100  1.0
  H  H138  1  0.544300  0.430600  0.113900  1.0
  H  H139  1  0.294300  0.613900  0.069400  1.0
  H  H140  1  0.794300  0.386100  0.930600  1.0
  H  H141  1  0.205700  0.930600  0.386100  1.0
  H  H142  1  0.705700  0.069400  0.613900  1.0
  H  H143  1  0.955700  0.886100  0.569400  1.0
  H  H144  1  0.455700  0.113900  0.430600  1.0
  H  H145  1  0.135100  0.622700  0.853800  1.0
  H  H146  1  0.635100  0.377300  0.146200  1.0
  H  H147  1  0.385100  0.646200  0.122700  1.0
  H  H148  1  0.885100  0.353800  0.877300  1.0
  H  H149  1  0.114900  0.877300  0.353800  1.0
  H  H150  1  0.614900  0.122700  0.646200  1.0
  H  H151  1  0.864900  0.853800  0.622700  1.0
  H  H152  1  0.364900  0.146200  0.377300  1.0
  H  H153  1  0.949000  0.533800  0.793300  1.0
  H  H154  1  0.449000  0.466200  0.206700  1.0
  H  H155  1  0.199000  0.706700  0.033800  1.0
  H  H156  1  0.699000  0.293300  0.966200  1.0
  H  H157  1  0.301000  0.966200  0.293300  1.0
  H  H158  1  0.801000  0.033800  0.706700  1.0
  H  H159  1  0.051000  0.793300  0.533800  1.0
  H  H160  1  0.551000  0.206700  0.466200  1.0
  H  H161  1  0.983600  0.527400  0.694300  1.0
  H  H162  1  0.483600  0.472600  0.305700  1.0
  H  H163  1  0.233600  0.805700  0.027400  1.0
  H  H164  1  0.733600  0.194300  0.972600  1.0
  H  H165  1  0.266400  0.972600  0.194300  1.0
  H  H166  1  0.766400  0.027400  0.805700  1.0
  H  H167  1  0.016400  0.694300  0.527400  1.0
  H  H168  1  0.516400  0.305700  0.472600  1.0
  H  H169  1  0.206000  0.654900  0.873500  1.0
  H  H170  1  0.706000  0.345100  0.126500  1.0
  H  H171  1  0.456000  0.626500  0.154900  1.0
  H  H172  1  0.956000  0.373500  0.845100  1.0
  H  H173  1  0.044000  0.845100  0.373500  1.0
  H  H174  1  0.544000  0.154900  0.626500  1.0
  H  H175  1  0.794000  0.873500  0.654900  1.0
  H  H176  1  0.294000  0.126500  0.345100  1.0
  H  H177  1  0.985400  0.559900  0.938300  1.0
  H  H178  1  0.485400  0.440100  0.061700  1.0
  H  H179  1  0.235400  0.561700  0.059900  1.0
  H  H180  1  0.735400  0.438300  0.940100  1.0
  H  H181  1  0.264600  0.940100  0.438300  1.0
  H  H182  1  0.764600  0.059900  0.561700  1.0
  H  H183  1  0.014600  0.938300  0.559900  1.0
  H  H184  1  0.514600  0.061700  0.440100  1.0
  H  H185  1  0.086600  0.561800  0.583000  1.0
  H  H186  1  0.586600  0.438200  0.417000  1.0
  H  H187  1  0.336600  0.917000  0.061800  1.0
  H  H188  1  0.836600  0.083000  0.938200  1.0
  H  H189  1  0.163400  0.938200  0.083000  1.0
  H  H190  1  0.663400  0.061800  0.917000  1.0
  H  H191  1  0.913400  0.583000  0.561800  1.0
  H  H192  1  0.413400  0.417000  0.438200  1.0
  H  H193  1  0.546500  0.905000  0.685900  1.0
  H  H194  1  0.046500  0.095000  0.314100  1.0
  H  H195  1  0.796500  0.814100  0.405000  1.0
  H  H196  1  0.296500  0.185900  0.595000  1.0
  H  H197  1  0.703500  0.595000  0.185900  1.0
  H  H198  1  0.203500  0.405000  0.814100  1.0
  H  H199  1  0.453500  0.685900  0.905000  1.0
  H  H200  1  0.953500  0.314100  0.095000  1.0
  H  H201  1  0.567500  0.909000  0.612900  1.0
  H  H202  1  0.067500  0.091000  0.387100  1.0
  H  H203  1  0.817500  0.887100  0.409000  1.0
  H  H204  1  0.317500  0.112900  0.591000  1.0
  H  H205  1  0.682500  0.591000  0.112900  1.0
  H  H206  1  0.182500  0.409000  0.887100  1.0
  H  H207  1  0.432500  0.612900  0.909000  1.0
  H  H208  1  0.932500  0.387100  0.091000  1.0
  H  H209  1  0.533700  0.887100  0.761400  1.0
  H  H210  1  0.033700  0.112900  0.238600  1.0
  H  H211  1  0.783700  0.738600  0.387100  1.0
  H  H212  1  0.283700  0.261400  0.612900  1.0
  H  H213  1  0.716300  0.612900  0.261400  1.0
  H  H214  1  0.216300  0.387100  0.738600  1.0
  H  H215  1  0.466300  0.761400  0.887100  1.0
  H  H216  1  0.966300  0.238600  0.112900  1.0
  H  H217  1  0.660100  0.837200  0.772200  1.0
  H  H218  1  0.160100  0.162800  0.227800  1.0
  H  H219  1  0.910100  0.727800  0.337200  1.0
  H  H220  1  0.410100  0.272200  0.662800  1.0
  H  H221  1  0.589900  0.662800  0.272200  1.0
  H  H222  1  0.089900  0.337200  0.727800  1.0
  H  H223  1  0.339900  0.772200  0.837200  1.0
  H  H224  1  0.839900  0.227800  0.162800  1.0
  H  H225  1  0.708900  0.843900  0.580900  1.0
  H  H226  1  0.208900  0.156100  0.419100  1.0
  H  H227  1  0.958900  0.919100  0.343900  1.0
  H  H228  1  0.458900  0.080900  0.656100  1.0
  H  H229  1  0.541100  0.656100  0.080900  1.0
  H  H230  1  0.041100  0.343900  0.919100  1.0
  H  H231  1  0.291100  0.580900  0.843900  1.0
  H  H232  1  0.791100  0.419100  0.156100  1.0
  H  H233  1  0.596000  0.899900  0.538200  1.0
  H  H234  1  0.096000  0.100100  0.461800  1.0
  H  H235  1  0.846000  0.961800  0.399900  1.0
  H  H236  1  0.346000  0.038200  0.600100  1.0
  H  H237  1  0.654000  0.600100  0.038200  1.0
  H  H238  1  0.154000  0.399900  0.961800  1.0
  H  H239  1  0.404000  0.538200  0.899900  1.0
  H  H240  1  0.904000  0.461800  0.100100  1.0
  H  H241  1  0.590900  0.865200  0.802900  1.0
  H  H242  1  0.090900  0.134800  0.197100  1.0
  H  H243  1  0.840900  0.697100  0.365200  1.0
  H  H244  1  0.340900  0.302900  0.634800  1.0
  H  H245  1  0.659100  0.634800  0.302900  1.0
  H  H246  1  0.159100  0.365200  0.697100  1.0
  H  H247  1  0.409100  0.802900  0.865200  1.0
  H  H248  1  0.909100  0.197100  0.134800  1.0
  H  H249  1  0.666200  0.869500  0.523600  1.0
  H  H250  1  0.166200  0.130500  0.476400  1.0
  H  H251  1  0.916200  0.976400  0.369500  1.0
  H  H252  1  0.416200  0.023600  0.630500  1.0
  H  H253  1  0.583800  0.630500  0.023600  1.0
  H  H254  1  0.083800  0.369500  0.976400  1.0
  H  H255  1  0.333800  0.523600  0.869500  1.0
  H  H256  1  0.833800  0.476400  0.130500  1.0
  H  H257  1  0.781300  0.462600  0.045600  1.0
  H  H258  1  0.281300  0.537400  0.954400  1.0
  H  H259  1  0.031300  0.454400  0.962600  1.0
  H  H260  1  0.531300  0.545600  0.037400  1.0
  H  H261  1  0.468700  0.037400  0.545600  1.0
  H  H262  1  0.968700  0.962600  0.454400  1.0
  H  H263  1  0.218700  0.045600  0.462600  1.0
  H  H264  1  0.718700  0.954400  0.537400  1.0
  H  H265  1  0.739100  0.522600  0.070000  1.0
  H  H266  1  0.239100  0.477400  0.930000  1.0
  H  H267  1  0.989100  0.430000  0.022600  1.0
  H  H268  1  0.489100  0.570000  0.977400  1.0
  H  H269  1  0.510900  0.977400  0.570000  1.0
  H  H270  1  0.010900  0.022600  0.430000  1.0
  H  H271  1  0.260900  0.070000  0.522600  1.0
  H  H272  1  0.760900  0.930000  0.477400  1.0
  H  H273  1  0.830100  0.411000  0.019700  1.0
  H  H274  1  0.330100  0.589000  0.980300  1.0
  H  H275  1  0.080100  0.480300  0.911000  1.0
  H  H276  1  0.580100  0.519700  0.089000  1.0
  H  H277  1  0.419900  0.089000  0.519700  1.0
  H  H278  1  0.919900  0.911000  0.480300  1.0
  H  H279  1  0.169900  0.019700  0.411000  1.0
  H  H280  1  0.669900  0.980300  0.589000  1.0
  H  H281  1  0.942900  0.461300  0.922300  1.0
  H  H282  1  0.442900  0.538700  0.077700  1.0
  H  H283  1  0.192900  0.577700  0.961300  1.0
  H  H284  1  0.692900  0.422300  0.038700  1.0
  H  H285  1  0.307100  0.038700  0.422300  1.0
  H  H286  1  0.807100  0.961300  0.577700  1.0
  H  H287  1  0.057100  0.922300  0.461300  1.0
  H  H288  1  0.557100  0.077700  0.538700  1.0
  H  H289  1  0.887300  0.363300  0.994700  1.0
  H  H290  1  0.387300  0.636700  0.005300  1.0
  H  H291  1  0.137300  0.505300  0.863300  1.0
  H  H292  1  0.637300  0.494700  0.136700  1.0
  H  H293  1  0.362700  0.136700  0.494700  1.0
  H  H294  1  0.862700  0.863300  0.505300  1.0
  H  H295  1  0.112700  0.994700  0.363300  1.0
  H  H296  1  0.612700  0.005300  0.636700  1.0
  H  H297  1  0.945200  0.388600  0.944800  1.0
  H  H298  1  0.445200  0.611400  0.055200  1.0
  H  H299  1  0.195200  0.555200  0.888600  1.0
  H  H300  1  0.695200  0.444800  0.111400  1.0
  H  H301  1  0.304800  0.111400  0.444800  1.0
  H  H302  1  0.804800  0.888600  0.555200  1.0
  H  H303  1  0.054800  0.944800  0.388600  1.0
  H  H304  1  0.554800  0.055200  0.611400  1.0
  H  H305  1  0.752700  0.591800  0.041400  1.0
  H  H306  1  0.252700  0.408200  0.958600  1.0
  H  H307  1  0.002700  0.458600  0.091800  1.0
  H  H308  1  0.502700  0.541400  0.908200  1.0
  H  H309  1  0.497300  0.908200  0.541400  1.0
  H  H310  1  0.997300  0.091800  0.458600  1.0
  H  H311  1  0.247300  0.041400  0.591800  1.0
  H  H312  1  0.747300  0.958600  0.408200  1.0
  H  H313  1  0.810300  0.600900  0.991400  1.0
  H  H314  1  0.310300  0.399100  0.008600  1.0
  H  H315  1  0.060300  0.508600  0.100900  1.0
  H  H316  1  0.560300  0.491400  0.899100  1.0
  H  H317  1  0.439700  0.899100  0.491400  1.0
  H  H318  1  0.939700  0.100900  0.508600  1.0
  H  H319  1  0.189700  0.991400  0.600900  1.0
  H  H320  1  0.689700  0.008600  0.399100  1.0
  H  H321  1  0.924800  0.927900  0.031300  1.0
  H  H322  1  0.424800  0.072100  0.968700  1.0
  H  H323  1  0.174800  0.468700  0.427900  1.0
  H  H324  1  0.674800  0.531300  0.572100  1.0
  H  H325  1  0.325200  0.572100  0.531300  1.0
  H  H326  1  0.825200  0.427900  0.468700  1.0
  H  H327  1  0.075200  0.031300  0.927900  1.0
  H  H328  1  0.575200  0.968700  0.072100  1.0
  H  H329  1  0.898800  0.945500  0.097000  1.0
  H  H330  1  0.398800  0.054500  0.903000  1.0
  H  H331  1  0.148800  0.403000  0.445500  1.0
  H  H332  1  0.648800  0.597000  0.554500  1.0
  H  H333  1  0.351200  0.554500  0.597000  1.0
  H  H334  1  0.851200  0.445500  0.403000  1.0
  H  H335  1  0.101200  0.097000  0.945500  1.0
  H  H336  1  0.601200  0.903000  0.054500  1.0
  H  H337  1  0.980400  0.052100  0.096500  1.0
  H  H338  1  0.480400  0.947900  0.903500  1.0
  H  H339  1  0.230400  0.403500  0.552100  1.0
  H  H340  1  0.730400  0.596500  0.447900  1.0
  H  H341  1  0.269600  0.447900  0.596500  1.0
  H  H342  1  0.769600  0.552100  0.403500  1.0
  H  H343  1  0.019600  0.096500  0.052100  1.0
  H  H344  1  0.519600  0.903500  0.947900  1.0
  H  H345  1  0.053800  0.459100  0.582500  1.0
  H  H346  1  0.553800  0.540900  0.417500  1.0
  H  H347  1  0.303800  0.917500  0.959100  1.0
  H  H348  1  0.803800  0.082500  0.040900  1.0
  H  H349  1  0.196200  0.040900  0.082500  1.0
  H  H350  1  0.696200  0.959100  0.917500  1.0
  H  H351  1  0.946200  0.582500  0.459100  1.0
  H  H352  1  0.446200  0.417500  0.540900  1.0
  H  H353  1  0.078400  0.388600  0.563400  1.0
  H  H354  1  0.578400  0.611400  0.436600  1.0
  H  H355  1  0.328400  0.936600  0.888600  1.0
  H  H356  1  0.828400  0.063400  0.111400  1.0
  H  H357  1  0.171600  0.111400  0.063400  1.0
  H  H358  1  0.671600  0.888600  0.936600  1.0
  H  H359  1  0.921600  0.563400  0.388600  1.0
  H  H360  1  0.421600  0.436600  0.611400  1.0
  H  H361  1  0.021300  0.401400  0.445500  1.0
  H  H362  1  0.521300  0.598600  0.554500  1.0
  H  H363  1  0.271300  0.054500  0.901400  1.0
  H  H364  1  0.771300  0.945500  0.098600  1.0
  H  H365  1  0.228700  0.098600  0.945500  1.0
  H  H366  1  0.728700  0.901400  0.054500  1.0
  H  H367  1  0.978700  0.445500  0.401400  1.0
  H  H368  1  0.478700  0.554500  0.598600  1.0
  H  H369  1  0.061900  0.360400  0.496400  1.0
  H  H370  1  0.561900  0.639600  0.503600  1.0
  H  H371  1  0.311900  0.003600  0.860400  1.0
  H  H372  1  0.811900  0.996400  0.139600  1.0
  H  H373  1  0.188100  0.139600  0.996400  1.0
  H  H374  1  0.688100  0.860400  0.003600  1.0
  H  H375  1  0.938100  0.496400  0.360400  1.0
  H  H376  1  0.438100  0.503600  0.639600  1.0
  H  H377  1  0.923800  0.009800  0.132900  1.0
  H  H378  1  0.423800  0.990200  0.867100  1.0
  H  H379  1  0.173800  0.367100  0.509800  1.0
  H  H380  1  0.673800  0.632900  0.490200  1.0
  H  H381  1  0.326200  0.490200  0.632900  1.0
  H  H382  1  0.826200  0.509800  0.367100  1.0
  H  H383  1  0.076200  0.132900  0.009800  1.0
  H  H384  1  0.576200  0.867100  0.990200  1.0
  Pd  Pd385  1  0.000000  0.533520  0.533520  1
  Pd  Pd386  1  0.500000  0.466480  0.466480  1
  Pd  Pd387  1  0.250000  0.966480  0.033520  1
  Pd  Pd388  1  0.750000  0.033520  0.966480  1
  Pd  Pd389  1  0.000000  0.965140  0.965140  1
  Pd  Pd390  1  0.500000  0.034860  0.034860  1
  Pd  Pd391  1  0.250000  0.534860  0.465140  1
  Pd  Pd392  1  0.750000  0.465140  0.534860  1
  Pd  Pd393  1  0.883030  0.542220  0.943340  1.0
  Pd  Pd394  1  0.383030  0.457780  0.056660  1.0
  Pd  Pd395  1  0.133030  0.556660  0.042220  1.0
  Pd  Pd396  1  0.633030  0.443340  0.957780  1.0
  Pd  Pd397  1  0.366970  0.957780  0.443340  1.0
  Pd  Pd398  1  0.866970  0.042220  0.556660  1.0
  Pd  Pd399  1  0.116970  0.943340  0.542220  1.0
  Pd  Pd400  1  0.616970  0.056660  0.457780  1.0
  Pd  Pd401  1  0.703440  0.834660  0.680130  1.0
  Pd  Pd402  1  0.203440  0.165340  0.319870  1.0
  Pd  Pd403  1  0.953440  0.819870  0.334660  1.0
  Pd  Pd404  1  0.453440  0.180130  0.665340  1.0
  Pd  Pd405  1  0.546560  0.665340  0.180130  1.0
  Pd  Pd406  1  0.046560  0.334660  0.819870  1.0
  Pd  Pd407  1  0.296560  0.680130  0.834660  1.0
  Pd  Pd408  1  0.796560  0.319870  0.165340  1.0
  C  C409  1  0.772700  0.765600  0.782800  1.0
  C  C410  1  0.272700  0.234400  0.217200  1.0
  C  C411  1  0.022700  0.717200  0.265600  1.0
  C  C412  1  0.522700  0.282800  0.734400  1.0
  C  C413  1  0.477300  0.734400  0.282800  1.0
  C  C414  1  0.977300  0.265600  0.717200  1.0
  C  C415  1  0.227300  0.782800  0.765600  1.0
  C  C416  1  0.727300  0.217200  0.234400  1.0
  C  C417  1  0.939000  0.838200  0.945800  1.0
  C  C418  1  0.439000  0.161800  0.054200  1.0
  C  C419  1  0.189000  0.554200  0.338200  1.0
  C  C420  1  0.689000  0.445800  0.661800  1.0
  C  C421  1  0.311000  0.661800  0.445800  1.0
  C  C422  1  0.811000  0.338200  0.554200  1.0
  C  C423  1  0.061000  0.945800  0.838200  1.0
  C  C424  1  0.561000  0.054200  0.161800  1.0
  C  C425  1  0.842000  0.617700  0.899200  1.0
  C  C426  1  0.342000  0.382300  0.100800  1.0
  C  C427  1  0.092000  0.600800  0.117700  1.0
  C  C428  1  0.592000  0.399200  0.882300  1.0
  C  C429  1  0.408000  0.882300  0.399200  1.0
  C  C430  1  0.908000  0.117700  0.600800  1.0
  C  C431  1  0.158000  0.899200  0.617700  1.0
  C  C432  1  0.658000  0.100800  0.382300  1.0
  C  C433  1  0.901900  0.637900  0.945800  1.0
  C  C434  1  0.401900  0.362100  0.054200  1.0
  C  C435  1  0.151900  0.554200  0.137900  1.0
  C  C436  1  0.651900  0.445800  0.862100  1.0
  C  C437  1  0.348100  0.862100  0.445800  1.0
  C  C438  1  0.848100  0.137900  0.554200  1.0
  C  C439  1  0.098100  0.945800  0.637900  1.0
  C  C440  1  0.598100  0.054200  0.362100  1.0
  C  C441  1  0.861300  0.738200  0.887400  1.0
  C  C442  1  0.361300  0.261800  0.112600  1.0
  C  C443  1  0.111300  0.612600  0.238200  1.0
  C  C444  1  0.611300  0.387400  0.761800  1.0
  C  C445  1  0.388700  0.761800  0.387400  1.0
  C  C446  1  0.888700  0.238200  0.612600  1.0
  C  C447  1  0.138700  0.887400  0.738200  1.0
  C  C448  1  0.638700  0.112600  0.261800  1.0
  C  C449  1  0.929500  0.918700  0.916900  1.0
  C  C450  1  0.429500  0.081300  0.083100  1.0
  C  C451  1  0.179500  0.583100  0.418700  1.0
  C  C452  1  0.679500  0.416900  0.581300  1.0
  C  C453  1  0.320500  0.581300  0.416900  1.0
  C  C454  1  0.820500  0.418700  0.583100  1.0
  C  C455  1  0.070500  0.916900  0.918700  1.0
  C  C456  1  0.570500  0.083100  0.081300  1.0
  C  C457  1  0.744500  0.777000  0.747600  1.0
  C  C458  1  0.244500  0.223000  0.252400  1.0
  C  C459  1  0.994500  0.752400  0.277000  1.0
  C  C460  1  0.494500  0.247600  0.723000  1.0
  C  C461  1  0.505500  0.723000  0.247600  1.0
  C  C462  1  0.005500  0.277000  0.752400  1.0
  C  C463  1  0.255500  0.747600  0.777000  1.0
  C  C464  1  0.755500  0.252400  0.223000  1.0
  C  C465  1  0.797400  0.798100  0.804600  1.0
  C  C466  1  0.297400  0.201900  0.195400  1.0
  C  C467  1  0.047400  0.695400  0.298100  1.0
  C  C468  1  0.547400  0.304600  0.701900  1.0
  C  C469  1  0.452600  0.701900  0.304600  1.0
  C  C470  1  0.952600  0.298100  0.695400  1.0
  C  C471  1  0.202600  0.804600  0.798100  1.0
  C  C472  1  0.702600  0.195400  0.201900  1.0
  C  C473  1  0.965200  0.872300  0.963500  1.0
  C  C474  1  0.465200  0.127700  0.036500  1.0
  C  C475  1  0.215200  0.536500  0.372300  1.0
  C  C476  1  0.715200  0.463500  0.627700  1.0
  C  C477  1  0.284800  0.627700  0.463500  1.0
  C  C478  1  0.784800  0.372300  0.536500  1.0
  C  C479  1  0.034800  0.963500  0.872300  1.0
  C  C480  1  0.534800  0.036500  0.127700  1.0
  C  C481  1  0.792300  0.840500  0.791000  1.0
  C  C482  1  0.292300  0.159500  0.209000  1.0
  C  C483  1  0.042300  0.709000  0.340500  1.0
  C  C484  1  0.542300  0.291000  0.659500  1.0
  C  C485  1  0.457700  0.659500  0.291000  1.0
  C  C486  1  0.957700  0.340500  0.709000  1.0
  C  C487  1  0.207700  0.791000  0.840500  1.0
  C  C488  1  0.707700  0.209000  0.159500  1.0
  C  C489  1  0.903100  0.887400  0.897100  1.0
  C  C490  1  0.403100  0.112600  0.102900  1.0
  C  C491  1  0.153100  0.602900  0.387400  1.0
  C  C492  1  0.653100  0.397100  0.612600  1.0
  C  C493  1  0.346900  0.612600  0.397100  1.0
  C  C494  1  0.846900  0.387400  0.602900  1.0
  C  C495  1  0.096900  0.897100  0.887400  1.0
  C  C496  1  0.596900  0.102900  0.112600  1.0
  C  C497  1  0.865100  0.692200  0.902000  1.0
  C  C498  1  0.365100  0.307800  0.098000  1.0
  C  C499  1  0.115100  0.598000  0.192200  1.0
  C  C500  1  0.615100  0.402000  0.807800  1.0
  C  C501  1  0.384900  0.807800  0.402000  1.0
  C  C502  1  0.884900  0.192200  0.598000  1.0
  C  C503  1  0.134900  0.902000  0.692200  1.0
  C  C504  1  0.634900  0.098000  0.307800  1.0
  C  C505  1  0.837300  0.659400  0.884600  1.0
  C  C506  1  0.337300  0.340600  0.115400  1.0
  C  C507  1  0.087300  0.615400  0.159400  1.0
  C  C508  1  0.587300  0.384600  0.840600  1.0
  C  C509  1  0.412700  0.840600  0.384600  1.0
  C  C510  1  0.912700  0.159400  0.615400  1.0
  C  C511  1  0.162700  0.884600  0.659400  1.0
  C  C512  1  0.662700  0.115400  0.340600  1.0
  C  C513  1  0.881900  0.809000  0.892200  1.0
  C  C514  1  0.381900  0.191000  0.107800  1.0
  C  C515  1  0.131900  0.607800  0.309000  1.0
  C  C516  1  0.631900  0.392200  0.691000  1.0
  C  C517  1  0.368100  0.691000  0.392200  1.0
  C  C518  1  0.868100  0.309000  0.607800  1.0
  C  C519  1  0.118100  0.892200  0.809000  1.0
  C  C520  1  0.618100  0.107800  0.191000  1.0
  C  C521  1  0.829600  0.787400  0.840400  1.0
  C  C522  1  0.329600  0.212600  0.159600  1.0
  C  C523  1  0.079600  0.659600  0.287400  1.0
  C  C524  1  0.579600  0.340400  0.712600  1.0
  C  C525  1  0.420400  0.712600  0.340400  1.0
  C  C526  1  0.920400  0.287400  0.659600  1.0
  C  C527  1  0.170400  0.840400  0.787400  1.0
  C  C528  1  0.670400  0.159600  0.212600  1.0
  C  C529  1  0.762100  0.850300  0.757100  1.0
  C  C530  1  0.262100  0.149700  0.242900  1.0
  C  C531  1  0.012100  0.742900  0.350300  1.0
  C  C532  1  0.512100  0.257100  0.649700  1.0
  C  C533  1  0.487900  0.649700  0.257100  1.0
  C  C534  1  0.987900  0.350300  0.742900  1.0
  C  C535  1  0.237900  0.757100  0.850300  1.0
  C  C536  1  0.737900  0.242900  0.149700  1.0
  C  C537  1  0.908800  0.845100  0.912200  1.0
  C  C538  1  0.408800  0.154900  0.087800  1.0
  C  C539  1  0.158800  0.587800  0.345100  1.0
  C  C540  1  0.658800  0.412200  0.654900  1.0
  C  C541  1  0.341200  0.654900  0.412200  1.0
  C  C542  1  0.841200  0.345100  0.587800  1.0
  C  C543  1  0.091200  0.912200  0.845100  1.0
  C  C544  1  0.591200  0.087800  0.154900  1.0
  C  C545  1  0.898600  0.680600  0.933700  1.0
  C  C546  1  0.398600  0.319400  0.066300  1.0
  C  C547  1  0.148600  0.566300  0.180600  1.0
  C  C548  1  0.648600  0.433700  0.819400  1.0
  C  C549  1  0.351400  0.819400  0.433700  1.0
  C  C550  1  0.851400  0.180600  0.566300  1.0
  C  C551  1  0.101400  0.933700  0.680600  1.0
  C  C552  1  0.601400  0.066300  0.319400  1.0
  C  C553  1  0.234100  0.628600  0.776200  1.0
  C  C554  1  0.734100  0.371400  0.223800  1.0
  C  C555  1  0.484100  0.723800  0.128600  1.0
  C  C556  1  0.984100  0.276200  0.871400  1.0
  C  C557  1  0.015900  0.871400  0.276200  1.0
  C  C558  1  0.515900  0.128600  0.723800  1.0
  C  C559  1  0.765900  0.776200  0.628600  1.0
  C  C560  1  0.265900  0.223800  0.371400  1.0
  C  C561  1  0.192600  0.610000  0.762700  1.0
  C  C562  1  0.692600  0.390000  0.237300  1.0
  C  C563  1  0.442600  0.737300  0.110000  1.0
  C  C564  1  0.942600  0.262700  0.890000  1.0
  C  C565  1  0.057400  0.890000  0.262700  1.0
  C  C566  1  0.557400  0.110000  0.737300  1.0
  C  C567  1  0.807400  0.762700  0.610000  1.0
  C  C568  1  0.307400  0.237300  0.390000  1.0
  C  C569  1  0.002500  0.552500  0.834400  1.0
  C  C570  1  0.502500  0.447500  0.165600  1.0
  C  C571  1  0.252500  0.665600  0.052500  1.0
  C  C572  1  0.752500  0.334400  0.947500  1.0
  C  C573  1  0.247500  0.947500  0.334400  1.0
  C  C574  1  0.747500  0.052500  0.665600  1.0
  C  C575  1  0.997500  0.834400  0.552500  1.0
  C  C576  1  0.497500  0.165600  0.447500  1.0
  C  C577  1  0.925400  0.533400  0.855900  1.0
  C  C578  1  0.425400  0.466600  0.144100  1.0
  C  C579  1  0.175400  0.644100  0.033400  1.0
  C  C580  1  0.675400  0.355900  0.966600  1.0
  C  C581  1  0.324600  0.966600  0.355900  1.0
  C  C582  1  0.824600  0.033400  0.644100  1.0
  C  C583  1  0.074600  0.855900  0.533400  1.0
  C  C584  1  0.574600  0.144100  0.466600  1.0
  C  C585  1  0.077600  0.561900  0.648500  1.0
  C  C586  1  0.577600  0.438100  0.351500  1.0
  C  C587  1  0.327600  0.851500  0.061900  1.0
  C  C588  1  0.827600  0.148500  0.938100  1.0
  C  C589  1  0.172400  0.938100  0.148500  1.0
  C  C590  1  0.672400  0.061900  0.851500  1.0
  C  C591  1  0.922400  0.648500  0.561900  1.0
  C  C592  1  0.422400  0.351500  0.438100  1.0
  C  C593  1  0.993600  0.528400  0.628600  1.0
  C  C594  1  0.493600  0.471600  0.371400  1.0
  C  C595  1  0.243600  0.871400  0.028400  1.0
  C  C596  1  0.743600  0.128600  0.971600  1.0
  C  C597  1  0.256400  0.971600  0.128600  1.0
  C  C598  1  0.756400  0.028400  0.871400  1.0
  C  C599  1  0.006400  0.628600  0.528400  1.0
  C  C600  1  0.506400  0.371400  0.471600  1.0
  C  C601  1  0.013600  0.560400  0.877700  1.0
  C  C602  1  0.513600  0.439600  0.122300  1.0
  C  C603  1  0.263600  0.622300  0.060400  1.0
  C  C604  1  0.763600  0.377700  0.939600  1.0
  C  C605  1  0.236400  0.939600  0.377700  1.0
  C  C606  1  0.736400  0.060400  0.622300  1.0
  C  C607  1  0.986400  0.877700  0.560400  1.0
  C  C608  1  0.486400  0.122300  0.439600  1.0
  C  C609  1  0.154900  0.607200  0.791600  1.0
  C  C610  1  0.654900  0.392800  0.208400  1.0
  C  C611  1  0.404900  0.708400  0.107200  1.0
  C  C612  1  0.904900  0.291600  0.892800  1.0
  C  C613  1  0.095100  0.892800  0.291600  1.0
  C  C614  1  0.595100  0.107200  0.708400  1.0
  C  C615  1  0.845100  0.791600  0.607200  1.0
  C  C616  1  0.345100  0.208400  0.392800  1.0
  C  C617  1  0.058700  0.562100  0.728500  1.0
  C  C618  1  0.558700  0.437900  0.271500  1.0
  C  C619  1  0.308700  0.771500  0.062100  1.0
  C  C620  1  0.808700  0.228500  0.937900  1.0
  C  C621  1  0.191300  0.937900  0.228500  1.0
  C  C622  1  0.691300  0.062100  0.771500  1.0
  C  C623  1  0.941300  0.728500  0.562100  1.0
  C  C624  1  0.441300  0.271500  0.437900  1.0
  C  C625  1  0.160200  0.624300  0.833400  1.0
  C  C626  1  0.660200  0.375700  0.166600  1.0
  C  C627  1  0.410200  0.666600  0.124300  1.0
  C  C628  1  0.910200  0.333400  0.875700  1.0
  C  C629  1  0.089800  0.875700  0.333400  1.0
  C  C630  1  0.589800  0.124300  0.666600  1.0
  C  C631  1  0.839800  0.833400  0.624300  1.0
  C  C632  1  0.339800  0.166600  0.375700  1.0
  C  C633  1  0.110000  0.585800  0.780300  1.0
  C  C634  1  0.610000  0.414200  0.219700  1.0
  C  C635  1  0.360000  0.719700  0.085800  1.0
  C  C636  1  0.860000  0.280300  0.914200  1.0
  C  C637  1  0.140000  0.914200  0.280300  1.0
  C  C638  1  0.640000  0.085800  0.719700  1.0
  C  C639  1  0.890000  0.780300  0.585800  1.0
  C  C640  1  0.390000  0.219700  0.414200  1.0
  C  C641  1  0.957300  0.539000  0.822900  1.0
  C  C642  1  0.457300  0.461000  0.177100  1.0
  C  C643  1  0.207300  0.677100  0.039000  1.0
  C  C644  1  0.707300  0.322900  0.961000  1.0
  C  C645  1  0.292700  0.961000  0.322900  1.0
  C  C646  1  0.792700  0.039000  0.677100  1.0
  C  C647  1  0.042700  0.822900  0.539000  1.0
  C  C648  1  0.542700  0.177100  0.461000  1.0
  C  C649  1  0.005200  0.535100  0.671900  1.0
  C  C650  1  0.505200  0.464900  0.328100  1.0
  C  C651  1  0.255200  0.828100  0.035100  1.0
  C  C652  1  0.755200  0.171900  0.964900  1.0
  C  C653  1  0.244800  0.964900  0.171900  1.0
  C  C654  1  0.744800  0.035100  0.828100  1.0
  C  C655  1  0.994800  0.671900  0.535100  1.0
  C  C656  1  0.494800  0.328100  0.464900  1.0
  C  C657  1  0.202200  0.643500  0.844900  1.0
  C  C658  1  0.702200  0.356500  0.155100  1.0
  C  C659  1  0.452200  0.655100  0.143500  1.0
  C  C660  1  0.952200  0.344900  0.856500  1.0
  C  C661  1  0.047800  0.856500  0.344900  1.0
  C  C662  1  0.547800  0.143500  0.655100  1.0
  C  C663  1  0.797800  0.844900  0.643500  1.0
  C  C664  1  0.297800  0.155100  0.356500  1.0
  C  C665  1  0.047700  0.552700  0.682300  1.0
  C  C666  1  0.547700  0.447300  0.317700  1.0
  C  C667  1  0.297700  0.817700  0.052700  1.0
  C  C668  1  0.797700  0.182300  0.947300  1.0
  C  C669  1  0.202300  0.947300  0.182300  1.0
  C  C670  1  0.702300  0.052700  0.817700  1.0
  C  C671  1  0.952300  0.682300  0.552700  1.0
  C  C672  1  0.452300  0.317700  0.447300  1.0
  C  C673  1  0.978200  0.554500  0.908500  1.0
  C  C674  1  0.478200  0.445500  0.091500  1.0
  C  C675  1  0.228200  0.591500  0.054500  1.0
  C  C676  1  0.728200  0.408500  0.945500  1.0
  C  C677  1  0.271800  0.945500  0.408500  1.0
  C  C678  1  0.771800  0.054500  0.591500  1.0
  C  C679  1  0.021800  0.908500  0.554500  1.0
  C  C680  1  0.521800  0.091500  0.445500  1.0
  C  C681  1  0.065100  0.555000  0.605700  1.0
  C  C682  1  0.565100  0.445000  0.394300  1.0
  C  C683  1  0.315100  0.894300  0.055000  1.0
  C  C684  1  0.815100  0.105700  0.945000  1.0
  C  C685  1  0.184900  0.945000  0.105700  1.0
  C  C686  1  0.684900  0.055000  0.894300  1.0
  C  C687  1  0.934900  0.605700  0.555000  1.0
  C  C688  1  0.434900  0.394300  0.445000  1.0
  C  C689  1  0.039000  0.560100  0.799800  1.0
  C  C690  1  0.539000  0.439900  0.200200  1.0
  C  C691  1  0.289000  0.700200  0.060100  1.0
  C  C692  1  0.789000  0.299800  0.939900  1.0
  C  C693  1  0.211000  0.939900  0.299800  1.0
  C  C694  1  0.711000  0.060100  0.700200  1.0
  C  C695  1  0.961000  0.799800  0.560100  1.0
  C  C696  1  0.461000  0.200200  0.439900  1.0
  C  C697  1  0.613400  0.874100  0.684300  1.0
  C  C698  1  0.113400  0.125900  0.315700  1.0
  C  C699  1  0.863400  0.815700  0.374100  1.0
  C  C700  1  0.363400  0.184300  0.625900  1.0
  C  C701  1  0.636600  0.625900  0.184300  1.0
  C  C702  1  0.136600  0.374100  0.815700  1.0
  C  C703  1  0.386600  0.684300  0.874100  1.0
  C  C704  1  0.886600  0.315700  0.125900  1.0
  C  C705  1  0.624700  0.874100  0.637600  1.0
  C  C706  1  0.124700  0.125900  0.362400  1.0
  C  C707  1  0.874700  0.862400  0.374100  1.0
  C  C708  1  0.374700  0.137600  0.625900  1.0
  C  C709  1  0.625300  0.625900  0.137600  1.0
  C  C710  1  0.125300  0.374100  0.862400  1.0
  C  C711  1  0.375300  0.637600  0.874100  1.0
  C  C712  1  0.875300  0.362400  0.125900  1.0
  C  C713  1  0.569400  0.890000  0.702700  1.0
  C  C714  1  0.069400  0.110000  0.297300  1.0
  C  C715  1  0.819400  0.797300  0.390000  1.0
  C  C716  1  0.319400  0.202700  0.610000  1.0
  C  C717  1  0.680600  0.610000  0.202700  1.0
  C  C718  1  0.180600  0.390000  0.797300  1.0
  C  C719  1  0.430600  0.702700  0.890000  1.0
  C  C720  1  0.930600  0.297300  0.110000  1.0
  C  C721  1  0.595900  0.894100  0.606100  1.0
  C  C722  1  0.095900  0.105900  0.393900  1.0
  C  C723  1  0.845900  0.893900  0.394100  1.0
  C  C724  1  0.345900  0.106100  0.605900  1.0
  C  C725  1  0.654100  0.605900  0.106100  1.0
  C  C726  1  0.154100  0.394100  0.893900  1.0
  C  C727  1  0.404100  0.606100  0.894100  1.0
  C  C728  1  0.904100  0.393900  0.105900  1.0
  C  C729  1  0.563400  0.881100  0.748600  1.0
  C  C730  1  0.063400  0.118900  0.251400  1.0
  C  C731  1  0.813400  0.751400  0.381100  1.0
  C  C732  1  0.313400  0.248600  0.618900  1.0
  C  C733  1  0.686600  0.618900  0.248600  1.0
  C  C734  1  0.186600  0.381100  0.751400  1.0
  C  C735  1  0.436600  0.748600  0.881100  1.0
  C  C736  1  0.936600  0.251400  0.118900  1.0
  C  C737  1  0.637100  0.850400  0.753900  1.0
  C  C738  1  0.137100  0.149600  0.246100  1.0
  C  C739  1  0.887100  0.746100  0.350400  1.0
  C  C740  1  0.387100  0.253900  0.649600  1.0
  C  C741  1  0.612900  0.649600  0.253900  1.0
  C  C742  1  0.112900  0.350400  0.746100  1.0
  C  C743  1  0.362900  0.753900  0.850400  1.0
  C  C744  1  0.862900  0.246100  0.149600  1.0
  C  C745  1  0.678800  0.855800  0.587200  1.0
  C  C746  1  0.178800  0.144200  0.412800  1.0
  C  C747  1  0.928800  0.912800  0.355800  1.0
  C  C748  1  0.428800  0.087200  0.644200  1.0
  C  C749  1  0.571200  0.644200  0.087200  1.0
  C  C750  1  0.071200  0.355800  0.912800  1.0
  C  C751  1  0.321200  0.587200  0.855800  1.0
  C  C752  1  0.821200  0.412800  0.144200  1.0
  C  C753  1  0.614500  0.889300  0.561800  1.0
  C  C754  1  0.114500  0.110700  0.438200  1.0
  C  C755  1  0.864500  0.938200  0.389300  1.0
  C  C756  1  0.364500  0.061800  0.610700  1.0
  C  C757  1  0.635500  0.610700  0.061800  1.0
  C  C758  1  0.135500  0.389300  0.938200  1.0
  C  C759  1  0.385500  0.561800  0.889300  1.0
  C  C760  1  0.885500  0.438200  0.110700  1.0
  C  C761  1  0.595200  0.866100  0.772200  1.0
  C  C762  1  0.095200  0.133900  0.227800  1.0
  C  C763  1  0.845200  0.727800  0.366100  1.0
  C  C764  1  0.345200  0.272200  0.633900  1.0
  C  C765  1  0.654800  0.633900  0.272200  1.0
  C  C766  1  0.154800  0.366100  0.727800  1.0
  C  C767  1  0.404800  0.772200  0.866100  1.0
  C  C768  1  0.904800  0.227800  0.133900  1.0
  C  C769  1  0.654600  0.871400  0.552600  1.0
  C  C770  1  0.154600  0.128600  0.447400  1.0
  C  C771  1  0.904600  0.947400  0.371400  1.0
  C  C772  1  0.404600  0.052600  0.628600  1.0
  C  C773  1  0.595400  0.628600  0.052600  1.0
  C  C774  1  0.095400  0.371400  0.947400  1.0
  C  C775  1  0.345400  0.552600  0.871400  1.0
  C  C776  1  0.845400  0.447400  0.128600  1.0
  C  C777  1  0.787900  0.491000  0.034800  1.0
  C  C778  1  0.287900  0.509000  0.965200  1.0
  C  C779  1  0.037900  0.465200  0.991000  1.0
  C  C780  1  0.537900  0.534800  0.009000  1.0
  C  C781  1  0.462100  0.009000  0.534800  1.0
  C  C782  1  0.962100  0.991000  0.465200  1.0
  C  C783  1  0.212100  0.034800  0.491000  1.0
  C  C784  1  0.712100  0.965200  0.509000  1.0
  C  C785  1  0.762800  0.526500  0.048500  1.0
  C  C786  1  0.262800  0.473500  0.951500  1.0
  C  C787  1  0.012800  0.451500  0.026500  1.0
  C  C788  1  0.512800  0.548500  0.973500  1.0
  C  C789  1  0.487200  0.973500  0.548500  1.0
  C  C790  1  0.987200  0.026500  0.451500  1.0
  C  C791  1  0.237200  0.048500  0.526500  1.0
  C  C792  1  0.737200  0.951500  0.473500  1.0
  C  C793  1  0.824300  0.498100  0.003800  1.0
  C  C794  1  0.324300  0.501900  0.996200  1.0
  C  C795  1  0.074300  0.496200  0.998100  1.0
  C  C796  1  0.574300  0.503800  0.001900  1.0
  C  C797  1  0.425700  0.001900  0.503800  1.0
  C  C798  1  0.925700  0.998100  0.496200  1.0
  C  C799  1  0.175700  0.003800  0.498100  1.0
  C  C800  1  0.675700  0.996200  0.501900  1.0
  C  C801  1  0.854200  0.420800  0.000600  1.0
  C  C802  1  0.354200  0.579200  0.999400  1.0
  C  C803  1  0.104200  0.499400  0.920800  1.0
  C  C804  1  0.604200  0.500600  0.079200  1.0
  C  C805  1  0.395800  0.079200  0.500600  1.0
  C  C806  1  0.895800  0.920800  0.499400  1.0
  C  C807  1  0.145800  0.000600  0.420800  1.0
  C  C808  1  0.645800  0.999400  0.579200  1.0
  C  C809  1  0.920600  0.451000  0.942900  1.0
  C  C810  1  0.420600  0.549000  0.057100  1.0
  C  C811  1  0.170600  0.557100  0.951000  1.0
  C  C812  1  0.670600  0.442900  0.049000  1.0
  C  C813  1  0.329400  0.049000  0.442900  1.0
  C  C814  1  0.829400  0.951000  0.557100  1.0
  C  C815  1  0.079400  0.942900  0.451000  1.0
  C  C816  1  0.579400  0.057100  0.549000  1.0
  C  C817  1  0.856200  0.464700  0.987500  1.0
  C  C818  1  0.356200  0.535300  0.012500  1.0
  C  C819  1  0.106200  0.512500  0.964700  1.0
  C  C820  1  0.606200  0.487500  0.035300  1.0
  C  C821  1  0.393800  0.035300  0.487500  1.0
  C  C822  1  0.893800  0.964700  0.512500  1.0
  C  C823  1  0.143800  0.987500  0.464700  1.0
  C  C824  1  0.643800  0.012500  0.535300  1.0
  C  C825  1  0.887300  0.392900  0.985400  1.0
  C  C826  1  0.387300  0.607100  0.014600  1.0
  C  C827  1  0.137300  0.514600  0.892900  1.0
  C  C828  1  0.637300  0.485400  0.107100  1.0
  C  C829  1  0.362700  0.107100  0.485400  1.0
  C  C830  1  0.862700  0.892900  0.514600  1.0
  C  C831  1  0.112700  0.985400  0.392900  1.0
  C  C832  1  0.612700  0.014600  0.607100  1.0
  C  C833  1  0.921800  0.407800  0.955700  1.0
  C  C834  1  0.421800  0.592200  0.044300  1.0
  C  C835  1  0.171800  0.544300  0.907800  1.0
  C  C836  1  0.671800  0.455700  0.092200  1.0
  C  C837  1  0.328200  0.092200  0.455700  1.0
  C  C838  1  0.828200  0.907800  0.544300  1.0
  C  C839  1  0.078200  0.955700  0.407800  1.0
  C  C840  1  0.578200  0.044300  0.592200  1.0
  C  C841  1  0.770900  0.567500  0.032000  1.0
  C  C842  1  0.270900  0.432500  0.968000  1.0
  C  C843  1  0.020900  0.468000  0.067500  1.0
  C  C844  1  0.520900  0.532000  0.932500  1.0
  C  C845  1  0.479100  0.932500  0.532000  1.0
  C  C846  1  0.979100  0.067500  0.468000  1.0
  C  C847  1  0.229100  0.032000  0.567500  1.0
  C  C848  1  0.729100  0.968000  0.432500  1.0
  C  C849  1  0.804800  0.572500  0.002700  1.0
  C  C850  1  0.304800  0.427500  0.997300  1.0
  C  C851  1  0.054800  0.497300  0.072500  1.0
  C  C852  1  0.554800  0.502700  0.927500  1.0
  C  C853  1  0.445200  0.927500  0.502700  1.0
  C  C854  1  0.945200  0.072500  0.497300  1.0
  C  C855  1  0.195200  0.002700  0.572500  1.0
  C  C856  1  0.695200  0.997300  0.427500  1.0
  C  C857  1  0.983000  0.015400  0.042000  1.0
  C  C858  1  0.483000  0.984600  0.958000  1.0
  C  C859  1  0.233000  0.458000  0.515400  1.0
  C  C860  1  0.733000  0.542000  0.484600  1.0
  C  C861  1  0.267000  0.484600  0.542000  1.0
  C  C862  1  0.767000  0.515400  0.458000  1.0
  C  C863  1  0.017000  0.042000  0.015400  1.0
  C  C864  1  0.517000  0.958000  0.984600  1.0
  C  C865  1  0.936300  0.953700  0.044700  1.0
  C  C866  1  0.436300  0.046300  0.955300  1.0
  C  C867  1  0.186300  0.455300  0.453700  1.0
  C  C868  1  0.686300  0.544700  0.546300  1.0
  C  C869  1  0.313700  0.546300  0.544700  1.0
  C  C870  1  0.813700  0.453700  0.455300  1.0
  C  C871  1  0.063700  0.044700  0.953700  1.0
  C  C872  1  0.563700  0.955300  0.046300  1.0
  C  C873  1  0.920900  0.964200  0.083100  1.0
  C  C874  1  0.420900  0.035800  0.916900  1.0
  C  C875  1  0.170900  0.416900  0.464200  1.0
  C  C876  1  0.670900  0.583100  0.535800  1.0
  C  C877  1  0.329100  0.535800  0.583100  1.0
  C  C878  1  0.829100  0.464200  0.416900  1.0
  C  C879  1  0.079100  0.083100  0.964200  1.0
  C  C880  1  0.579100  0.916900  0.035800  1.0
  C  C881  1  0.968000  0.026600  0.083000  1.0
  C  C882  1  0.468000  0.973400  0.917000  1.0
  C  C883  1  0.218000  0.417000  0.526600  1.0
  C  C884  1  0.718000  0.583000  0.473400  1.0
  C  C885  1  0.282000  0.473400  0.583000  1.0
  C  C886  1  0.782000  0.526600  0.417000  1.0
  C  C887  1  0.032000  0.083000  0.026600  1.0
  C  C888  1  0.532000  0.917000  0.973400  1.0
  C  C889  1  0.047100  0.447600  0.554400  1.0
  C  C890  1  0.547100  0.552400  0.445600  1.0
  C  C891  1  0.297100  0.945600  0.947600  1.0
  C  C892  1  0.797100  0.054400  0.052400  1.0
  C  C893  1  0.202900  0.052400  0.054400  1.0
  C  C894  1  0.702900  0.947600  0.945600  1.0
  C  C895  1  0.952900  0.554400  0.447600  1.0
  C  C896  1  0.452900  0.445600  0.552400  1.0
  C  C897  1  0.061500  0.405700  0.542900  1.0
  C  C898  1  0.561500  0.594300  0.457100  1.0
  C  C899  1  0.311500  0.957100  0.905700  1.0
  C  C900  1  0.811500  0.042900  0.094300  1.0
  C  C901  1  0.188500  0.094300  0.042900  1.0
  C  C902  1  0.688500  0.905700  0.957100  1.0
  C  C903  1  0.938500  0.542900  0.405700  1.0
  C  C904  1  0.438500  0.457100  0.594300  1.0
  C  C905  1  0.028000  0.413200  0.473500  1.0
  C  C906  1  0.528000  0.586800  0.526500  1.0
  C  C907  1  0.278000  0.026500  0.913200  1.0
  C  C908  1  0.778000  0.973500  0.086800  1.0
  C  C909  1  0.222000  0.086800  0.973500  1.0
  C  C910  1  0.722000  0.913200  0.026500  1.0
  C  C911  1  0.972000  0.473500  0.413200  1.0
  C  C912  1  0.472000  0.526500  0.586800  1.0
  C  C913  1  0.051900  0.389100  0.503500  1.0
  C  C914  1  0.551900  0.610900  0.496500  1.0
  C  C915  1  0.301900  0.996500  0.889100  1.0
  C  C916  1  0.801900  0.003500  0.110900  1.0
  C  C917  1  0.198100  0.110900  0.003500  1.0
  C  C918  1  0.698100  0.889100  0.996500  1.0
  C  C919  1  0.948100  0.503500  0.389100  1.0
  C  C920  1  0.448100  0.496500  0.610900  1.0
  C  C921  1  0.013400  0.455200  0.484100  1.0
  C  C922  1  0.513400  0.544800  0.515900  1.0
  C  C923  1  0.263400  0.015900  0.955200  1.0
  C  C924  1  0.763400  0.984100  0.044800  1.0
  C  C925  1  0.236600  0.044800  0.984100  1.0
  C  C926  1  0.736600  0.955200  0.015900  1.0
  C  C927  1  0.986600  0.484100  0.455200  1.0
  C  C928  1  0.486600  0.515900  0.544800  1.0
  C  C929  1  0.935500  0.001900  0.105000  1.0
  C  C930  1  0.435500  0.998100  0.895000  1.0
  C  C931  1  0.185500  0.395000  0.501900  1.0
  C  C932  1  0.685500  0.605000  0.498100  1.0
  C  C933  1  0.314500  0.498100  0.605000  1.0
  C  C934  1  0.814500  0.501900  0.395000  1.0
  C  C935  1  0.064500  0.105000  0.001900  1.0
  C  C936  1  0.564500  0.895000  0.998100  1.0
  N  N937  1  0.024100  0.444900  0.841000  1
  N  N938  1  0.524100  0.555100  0.159000  1
  N  N939  1  0.274100  0.659000  0.944900  1
  N  N940  1  0.774100  0.341000  0.055100  1
  N  N941  1  0.225900  0.055100  0.341000  1
  N  N942  1  0.725900  0.944900  0.659000  1
  N  N943  1  0.975900  0.841000  0.444900  1
  N  N944  1  0.475900  0.159000  0.555100  1
  N  N945  1  0.306000  0.948700  0.545200  1
  N  N946  1  0.806000  0.051300  0.454800  1
  N  N947  1  0.556000  0.954800  0.448700  1
  N  N948  1  0.056000  0.045200  0.551300  1
  N  N949  1  0.944000  0.551300  0.045200  1
  N  N950  1  0.444000  0.448700  0.954800  1
  N  N951  1  0.694000  0.545200  0.948700  1
  N  N952  1  0.194000  0.454800  0.051300  1
  N  N953  1  0.165300  0.952200  0.961300  1
  N  N954  1  0.665300  0.047800  0.038700  1
  N  N955  1  0.415300  0.538700  0.452200  1
  N  N956  1  0.915300  0.461300  0.547800  1
  N  N957  1  0.084700  0.547800  0.461300  1
  N  N958  1  0.584700  0.452200  0.538700  1
  N  N959  1  0.834700  0.961300  0.952200  1
  N  N960  1  0.334700  0.038700  0.047800  1
  N  N961  1  0.238100  0.490900  0.825700  1
  N  N962  1  0.738100  0.509100  0.174300  1
  N  N963  1  0.488100  0.674300  0.990900  1
  N  N964  1  0.988100  0.325700  0.009100  1
  N  N965  1  0.011900  0.009100  0.325700  1
  N  N966  1  0.511900  0.990900  0.674300  1
  N  N967  1  0.761900  0.825700  0.490900  1
  N  N968  1  0.261900  0.174300  0.509100  1
  N  N969  1  0.929700  0.977000  0.632300  1
  N  N970  1  0.429700  0.023000  0.367700  1
  N  N971  1  0.179700  0.867700  0.477000  1
  N  N972  1  0.679700  0.132300  0.523000  1
  N  N973  1  0.320300  0.523000  0.132300  1
  N  N974  1  0.820300  0.477000  0.867700  1
  N  N975  1  0.070300  0.632300  0.977000  1
  N  N976  1  0.570300  0.367700  0.023000  1
  N  N977  1  0.707000  0.691000  0.900400  1
  N  N978  1  0.207000  0.309000  0.099600  1
  N  N979  1  0.957000  0.599600  0.191000  1
  N  N980  1  0.457000  0.400400  0.809000  1
  N  N981  1  0.543000  0.809000  0.400400  1
  N  N982  1  0.043000  0.191000  0.599600  1
  N  N983  1  0.293000  0.900400  0.691000  1
  N  N984  1  0.793000  0.099600  0.309000  1
  N  N985  1  0.739300  0.819300  0.735000  1.0
  N  N986  1  0.239300  0.180700  0.265000  1.0
  N  N987  1  0.989300  0.765000  0.319300  1.0
  N  N988  1  0.489300  0.235000  0.680700  1.0
  N  N989  1  0.510700  0.680700  0.235000  1.0
  N  N990  1  0.010700  0.319300  0.765000  1.0
  N  N991  1  0.260700  0.735000  0.819300  1.0
  N  N992  1  0.760700  0.265000  0.180700  1.0
  N  N993  1  0.959700  0.912900  0.948300  1.0
  N  N994  1  0.459700  0.087100  0.051700  1.0
  N  N995  1  0.209700  0.551700  0.412900  1.0
  N  N996  1  0.709700  0.448300  0.587100  1.0
  N  N997  1  0.290300  0.587100  0.448300  1.0
  N  N998  1  0.790300  0.412900  0.551700  1.0
  N  N999  1  0.040300  0.948300  0.912900  1.0
  N  N1000  1  0.540300  0.051700  0.087100  1.0
  N  N1001  1  0.853400  0.820400  0.859200  1.0
  N  N1002  1  0.353400  0.179600  0.140800  1.0
  N  N1003  1  0.103400  0.640800  0.320400  1.0
  N  N1004  1  0.603400  0.359200  0.679600  1.0
  N  N1005  1  0.396600  0.679600  0.359200  1.0
  N  N1006  1  0.896600  0.320400  0.640800  1.0
  N  N1007  1  0.146600  0.859200  0.820400  1.0
  N  N1008  1  0.646600  0.140800  0.179600  1.0
  N  N1009  1  0.874700  0.606700  0.929100  1.0
  N  N1010  1  0.374700  0.393300  0.070900  1.0
  N  N1011  1  0.124700  0.570900  0.106700  1.0
  N  N1012  1  0.624700  0.429100  0.893300  1.0
  N  N1013  1  0.375300  0.893300  0.429100  1.0
  N  N1014  1  0.875300  0.106700  0.570900  1.0
  N  N1015  1  0.125300  0.929100  0.606700  1.0
  N  N1016  1  0.625300  0.070900  0.393300  1.0
  N  N1017  1  0.831600  0.745000  0.854300  1.0
  N  N1018  1  0.331600  0.255000  0.145700  1.0
  N  N1019  1  0.081600  0.645700  0.245000  1.0
  N  N1020  1  0.581600  0.354300  0.755000  1.0
  N  N1021  1  0.418400  0.755000  0.354300  1.0
  N  N1022  1  0.918400  0.245000  0.645700  1.0
  N  N1023  1  0.168400  0.854300  0.745000  1.0
  N  N1024  1  0.668400  0.145700  0.255000  1.0
  N  N1025  1  0.887400  0.769100  0.907800  1.0
  N  N1026  1  0.387400  0.230900  0.092200  1.0
  N  N1027  1  0.137400  0.592200  0.269100  1.0
  N  N1028  1  0.637400  0.407800  0.730900  1.0
  N  N1029  1  0.362600  0.730900  0.407800  1.0
  N  N1030  1  0.862600  0.269100  0.592200  1.0
  N  N1031  1  0.112600  0.907800  0.769100  1.0
  N  N1032  1  0.612600  0.092200  0.230900  1.0
  N  N1033  1  0.934700  0.541900  0.898400  1.0
  N  N1034  1  0.434700  0.458100  0.101600  1.0
  N  N1035  1  0.184700  0.601600  0.041900  1.0
  N  N1036  1  0.684700  0.398400  0.958100  1.0
  N  N1037  1  0.315300  0.958100  0.398400  1.0
  N  N1038  1  0.815300  0.041900  0.601600  1.0
  N  N1039  1  0.065300  0.898400  0.541900  1.0
  N  N1040  1  0.565300  0.101600  0.458100  1.0
  N  N1041  1  0.022800  0.538900  0.596100  1.0
  N  N1042  1  0.522800  0.461100  0.403900  1.0
  N  N1043  1  0.272800  0.903900  0.038900  1.0
  N  N1044  1  0.772800  0.096100  0.961100  1.0
  N  N1045  1  0.227200  0.961100  0.096100  1.0
  N  N1046  1  0.727200  0.038900  0.903900  1.0
  N  N1047  1  0.977200  0.596100  0.538900  1.0
  N  N1048  1  0.477200  0.403900  0.461100  1.0
  N  N1049  1  0.101400  0.578500  0.737200  1.0
  N  N1050  1  0.601400  0.421500  0.262800  1.0
  N  N1051  1  0.351400  0.762800  0.078500  1.0
  N  N1052  1  0.851400  0.237200  0.921500  1.0
  N  N1053  1  0.148600  0.921500  0.237200  1.0
  N  N1054  1  0.648600  0.078500  0.762800  1.0
  N  N1055  1  0.898600  0.737200  0.578500  1.0
  N  N1056  1  0.398600  0.262800  0.421500  1.0
  N  N1057  1  0.079600  0.578300  0.811800  1.0
  N  N1058  1  0.579600  0.421700  0.188200  1.0
  N  N1059  1  0.329600  0.688200  0.078300  1.0
  N  N1060  1  0.829600  0.311800  0.921700  1.0
  N  N1061  1  0.170400  0.921700  0.311800  1.0
  N  N1062  1  0.670400  0.078300  0.688200  1.0
  N  N1063  1  0.920400  0.811800  0.578300  1.0
  N  N1064  1  0.420400  0.188200  0.421700  1.0
  N  N1065  1  0.761800  0.816100  0.646300  1.0
  N  N1066  1  0.261800  0.183900  0.353700  1.0
  N  N1067  1  0.011800  0.853700  0.316100  1.0
  N  N1068  1  0.511800  0.146300  0.683900  1.0
  N  N1069  1  0.488200  0.683900  0.146300  1.0
  N  N1070  1  0.988200  0.316100  0.853700  1.0
  N  N1071  1  0.238200  0.646300  0.816100  1.0
  N  N1072  1  0.738200  0.353700  0.183900  1.0
  N  N1073  1  0.026300  0.551700  0.758500  1.0
  N  N1074  1  0.526300  0.448300  0.241500  1.0
  N  N1075  1  0.276300  0.741500  0.051700  1.0
  N  N1076  1  0.776300  0.258500  0.948300  1.0
  N  N1077  1  0.223700  0.948300  0.258500  1.0
  N  N1078  1  0.723700  0.051700  0.741500  1.0
  N  N1079  1  0.973700  0.758500  0.551700  1.0
  N  N1080  1  0.473700  0.241500  0.448300  1.0
  N  N1081  1  0.666200  0.854900  0.627700  1.0
  N  N1082  1  0.166200  0.145100  0.372300  1.0
  N  N1083  1  0.916200  0.872300  0.354900  1.0
  N  N1084  1  0.416200  0.127700  0.645100  1.0
  N  N1085  1  0.583800  0.645100  0.127700  1.0
  N  N1086  1  0.083800  0.354900  0.872300  1.0
  N  N1087  1  0.333800  0.627700  0.854900  1.0
  N  N1088  1  0.833800  0.372300  0.145100  1.0
  N  N1089  1  0.645100  0.854000  0.711200  1.0
  N  N1090  1  0.145100  0.146000  0.288800  1.0
  N  N1091  1  0.895100  0.788800  0.354000  1.0
  N  N1092  1  0.395100  0.211200  0.646000  1.0
  N  N1093  1  0.604900  0.646000  0.211200  1.0
  N  N1094  1  0.104900  0.354000  0.788800  1.0
  N  N1095  1  0.354900  0.711200  0.854000  1.0
  N  N1096  1  0.854900  0.288800  0.146000  1.0
  N  N1097  1  0.831800  0.539400  0.988200  1.0
  N  N1098  1  0.331800  0.460600  0.011800  1.0
  N  N1099  1  0.081800  0.511800  0.039400  1.0
  N  N1100  1  0.581800  0.488200  0.960600  1.0
  N  N1101  1  0.418200  0.960600  0.488200  1.0
  N  N1102  1  0.918200  0.039400  0.511800  1.0
  N  N1103  1  0.168200  0.988200  0.539400  1.0
  N  N1104  1  0.668200  0.011800  0.460600  1.0
  N  N1105  1  0.888300  0.478700  0.959100  1.0
  N  N1106  1  0.388300  0.521300  0.040900  1.0
  N  N1107  1  0.138300  0.540900  0.978700  1.0
  N  N1108  1  0.638300  0.459100  0.021300  1.0
  N  N1109  1  0.361700  0.021300  0.459100  1.0
  N  N1110  1  0.861700  0.978700  0.540900  1.0
  N  N1111  1  0.111700  0.959100  0.478700  1.0
  N  N1112  1  0.611700  0.040900  0.521300  1.0
  N  N1113  1  0.969300  0.979100  0.022100  1.0
  N  N1114  1  0.469300  0.020900  0.977900  1.0
  N  N1115  1  0.219300  0.477900  0.479100  1.0
  N  N1116  1  0.719300  0.522100  0.520900  1.0
  N  N1117  1  0.280700  0.520900  0.522100  1.0
  N  N1118  1  0.780700  0.479100  0.477900  1.0
  N  N1119  1  0.030700  0.022100  0.979100  1.0
  N  N1120  1  0.530700  0.977900  0.020900  1.0
  N  N1121  1  0.022700  0.472100  0.523700  1.0
  N  N1122  1  0.522700  0.527900  0.476300  1.0
  N  N1123  1  0.272700  0.976300  0.972100  1.0
  N  N1124  1  0.772700  0.023700  0.027900  1.0
  N  N1125  1  0.227300  0.027900  0.023700  1.0
  N  N1126  1  0.727300  0.972100  0.976300  1.0
  N  N1127  1  0.977300  0.523700  0.472100  1.0
  N  N1128  1  0.477300  0.476300  0.527900  1.0
  O  O1129  1  0.007100  0.441900  0.878800  1
  O  O1130  1  0.507100  0.558100  0.121200  1
  O  O1131  1  0.257100  0.621200  0.941900  1
  O  O1132  1  0.757100  0.378800  0.058100  1
  O  O1133  1  0.242900  0.058100  0.378800  1
  O  O1134  1  0.742900  0.941900  0.621200  1
  O  O1135  1  0.992900  0.878800  0.441900  1
  O  O1136  1  0.492900  0.121200  0.558100  1
  O  O1137  1  0.000000  0.433600  0.808000  1
  O  O1138  1  0.500000  0.566400  0.192000  1
  O  O1139  1  0.250000  0.692000  0.933600  1
  O  O1140  1  0.750000  0.308000  0.066400  1
  O  O1141  1  0.250000  0.066400  0.308000  1
  O  O1142  1  0.750000  0.933600  0.692000  1
  O  O1143  1  0.000000  0.808000  0.433600  1
  O  O1144  1  0.500000  0.192000  0.566400  1
  O  O1145  1  0.065100  0.458500  0.835300  1
  O  O1146  1  0.565100  0.541500  0.164700  1
  O  O1147  1  0.315100  0.664700  0.958500  1
  O  O1148  1  0.815100  0.335300  0.041500  1
  O  O1149  1  0.184900  0.041500  0.335300  1
  O  O1150  1  0.684900  0.958500  0.664700  1
  O  O1151  1  0.934900  0.835300  0.458500  1
  O  O1152  1  0.434900  0.164700  0.541500  1
  O  O1153  1  0.284600  0.929100  0.579700  1
  O  O1154  1  0.784600  0.070900  0.420300  1
  O  O1155  1  0.534600  0.920300  0.429100  1
  O  O1156  1  0.034600  0.079700  0.570900  1
  O  O1157  1  0.965400  0.570900  0.079700  1
  O  O1158  1  0.465400  0.429100  0.920300  1
  O  O1159  1  0.715400  0.579700  0.929100  1
  O  O1160  1  0.215400  0.420300  0.070900  1
  O  O1161  1  0.288800  0.941600  0.511200  1
  O  O1162  1  0.788800  0.058400  0.488800  1
  O  O1163  1  0.538800  0.988800  0.441600  1
  O  O1164  1  0.038800  0.011200  0.558400  1
  O  O1165  1  0.961200  0.558400  0.011200  1
  O  O1166  1  0.461200  0.441600  0.988800  1
  O  O1167  1  0.711200  0.511200  0.941600  1
  O  O1168  1  0.211200  0.488800  0.058400  1
  O  O1169  1  0.336200  0.974600  0.555500  1
  O  O1170  1  0.836200  0.025400  0.444500  1
  O  O1171  1  0.586200  0.944500  0.474600  1
  O  O1172  1  0.086200  0.055500  0.525400  1
  O  O1173  1  0.913800  0.525400  0.055500  1
  O  O1174  1  0.413800  0.474600  0.944500  1
  O  O1175  1  0.663800  0.555500  0.974600  1
  O  O1176  1  0.163800  0.444500  0.025400  1
  O  O1177  1  0.147800  0.991900  0.964500  1
  O  O1178  1  0.647800  0.008100  0.035500  1
  O  O1179  1  0.397800  0.535500  0.491900  1
  O  O1180  1  0.897800  0.464500  0.508100  1
  O  O1181  1  0.102200  0.508100  0.464500  1
  O  O1182  1  0.602200  0.491900  0.535500  1
  O  O1183  1  0.852200  0.964500  0.991900  1
  O  O1184  1  0.352200  0.035500  0.008100  1
  O  O1185  1  0.157100  0.926900  0.992000  1
  O  O1186  1  0.657100  0.073100  0.008000  1
  O  O1187  1  0.407100  0.508000  0.426900  1
  O  O1188  1  0.907100  0.492000  0.573100  1
  O  O1189  1  0.092900  0.573100  0.492000  1
  O  O1190  1  0.592900  0.426900  0.508000  1
  O  O1191  1  0.842900  0.992000  0.926900  1
  O  O1192  1  0.342900  0.008000  0.073100  1
  O  O1193  1  0.185500  0.943400  0.926600  1
  O  O1194  1  0.685500  0.056600  0.073400  1
  O  O1195  1  0.435500  0.573400  0.443400  1
  O  O1196  1  0.935500  0.426600  0.556600  1
  O  O1197  1  0.064500  0.556600  0.426600  1
  O  O1198  1  0.564500  0.443400  0.573400  1
  O  O1199  1  0.814500  0.926600  0.943400  1
  O  O1200  1  0.314500  0.073400  0.056600  1
  O  O1201  1  0.245900  0.472800  0.863700  1
  O  O1202  1  0.745900  0.527200  0.136300  1
  O  O1203  1  0.495900  0.636300  0.972800  1
  O  O1204  1  0.995900  0.363700  0.027200  1
  O  O1205  1  0.004100  0.027200  0.363700  1
  O  O1206  1  0.504100  0.972800  0.636300  1
  O  O1207  1  0.754100  0.863700  0.472800  1
  O  O1208  1  0.254100  0.136300  0.527200  1
  O  O1209  1  0.261200  0.473100  0.793600  1
  O  O1210  1  0.761200  0.526900  0.206400  1
  O  O1211  1  0.511200  0.706400  0.973100  1
  O  O1212  1  0.011200  0.293600  0.026900  1
  O  O1213  1  0.988800  0.026900  0.293600  1
  O  O1214  1  0.488800  0.973100  0.706400  1
  O  O1215  1  0.738800  0.793600  0.473100  1
  O  O1216  1  0.238800  0.206400  0.526900  1
  O  O1217  1  0.234900  0.530800  0.818200  1
  O  O1218  1  0.734900  0.469200  0.181800  1
  O  O1219  1  0.484900  0.681800  0.030800  1
  O  O1220  1  0.984900  0.318200  0.969200  1
  O  O1221  1  0.015100  0.969200  0.318200  1
  O  O1222  1  0.515100  0.030800  0.681800  1
  O  O1223  1  0.765100  0.818200  0.530800  1
  O  O1224  1  0.265100  0.181800  0.469200  1
  O  O1225  1  0.952100  0.013200  0.616000  1
  O  O1226  1  0.452100  0.986800  0.384000  1
  O  O1227  1  0.202100  0.884000  0.513200  1
  O  O1228  1  0.702100  0.116000  0.486800  1
  O  O1229  1  0.297900  0.486800  0.116000  1
  O  O1230  1  0.797900  0.513200  0.884000  1
  O  O1231  1  0.047900  0.616000  0.013200  1
  O  O1232  1  0.547900  0.384000  0.986800  1
  O  O1233  1  0.915400  0.937500  0.625900  1
  O  O1234  1  0.415400  0.062500  0.374100  1
  O  O1235  1  0.165400  0.874100  0.437500  1
  O  O1236  1  0.665400  0.125900  0.562500  1
  O  O1237  1  0.334600  0.562500  0.125900  1
  O  O1238  1  0.834600  0.437500  0.874100  1
  O  O1239  1  0.084600  0.625900  0.937500  1
  O  O1240  1  0.584600  0.374100  0.062500  1
  O  O1241  1  0.912000  0.984200  0.671800  1
  O  O1242  1  0.412000  0.015800  0.328200  1
  O  O1243  1  0.162000  0.828200  0.484200  1
  O  O1244  1  0.662000  0.171800  0.515800  1
  O  O1245  1  0.338000  0.515800  0.171800  1
  O  O1246  1  0.838000  0.484200  0.828200  1
  O  O1247  1  0.088000  0.671800  0.984200  1
  O  O1248  1  0.588000  0.328200  0.015800  1
  O  O1249  1  0.708100  0.689400  0.857100  1
  O  O1250  1  0.208100  0.310600  0.142900  1
  O  O1251  1  0.958100  0.642900  0.189400  1
  O  O1252  1  0.458100  0.357100  0.810600  1
  O  O1253  1  0.541900  0.810600  0.357100  1
  O  O1254  1  0.041900  0.189400  0.642900  1
  O  O1255  1  0.291900  0.857100  0.689400  1
  O  O1256  1  0.791900  0.142900  0.310600  1
  O  O1257  1  0.734200  0.714400  0.924200  1
  O  O1258  1  0.234200  0.285600  0.075800  1
  O  O1259  1  0.984200  0.575800  0.214400  1
  O  O1260  1  0.484200  0.424200  0.785600  1
  O  O1261  1  0.515800  0.785600  0.424200  1
  O  O1262  1  0.015800  0.214400  0.575800  1
  O  O1263  1  0.265800  0.924200  0.714400  1
  O  O1264  1  0.765800  0.075800  0.285600  1
  O  O1265  1  0.676000  0.667000  0.920200  1
  O  O1266  1  0.176000  0.333000  0.079800  1
  O  O1267  1  0.926000  0.579800  0.167000  1
  O  O1268  1  0.426000  0.420200  0.833000  1
  O  O1269  1  0.574000  0.833000  0.420200  1
  O  O1270  1  0.074000  0.167000  0.579800  1
  O  O1271  1  0.324000  0.920200  0.667000  1
  O  O1272  1  0.824000  0.079800  0.333000  1
  O  O1273  1  0.000000  0.667800  0.667800  1
  O  O1274  1  0.500000  0.332200  0.332200  1
  O  O1275  1  0.250000  0.832200  0.167800  1
  O  O1276  1  0.750000  0.167800  0.832200  1
  O  O1277  1  0.000000  0.827100  0.827100  1
  O  O1278  1  0.500000  0.172900  0.172900  1
  O  O1279  1  0.250000  0.672900  0.327100  1
  O  O1280  1  0.750000  0.327100  0.672900  1
  O  O1281  1  0.036500  0.665400  0.755000  1
  O  O1282  1  0.536500  0.334600  0.245000  1
  O  O1283  1  0.286500  0.745000  0.165400  1
  O  O1284  1  0.786500  0.255000  0.834600  1
  O  O1285  1  0.213500  0.834600  0.255000  1
  O  O1286  1  0.713500  0.165400  0.745000  1
  O  O1287  1  0.963500  0.755000  0.665400  1
  O  O1288  1  0.463500  0.245000  0.334600  1
  O  O1289  1  0.959900  0.670700  0.819000  1
  O  O1290  1  0.459900  0.329300  0.181000  1
  O  O1291  1  0.209900  0.681000  0.170700  1
  O  O1292  1  0.709900  0.319000  0.829300  1
  O  O1293  1  0.290100  0.829300  0.319000  1
  O  O1294  1  0.790100  0.170700  0.681000  1
  O  O1295  1  0.040100  0.819000  0.670700  1
  O  O1296  1  0.540100  0.181000  0.329300  1
  O  O1297  1  0.936500  0.760500  0.808400  1
  O  O1298  1  0.436500  0.239500  0.191600  1
  O  O1299  1  0.186500  0.691600  0.260500  1
  O  O1300  1  0.686500  0.308400  0.739500  1
  O  O1301  1  0.313500  0.739500  0.308400  1
  O  O1302  1  0.813500  0.260500  0.691600  1
  O  O1303  1  0.063500  0.808400  0.760500  1
  O  O1304  1  0.563500  0.191600  0.239500  1
  O  O1305  1  0.107000  0.722900  0.772500  1
  O  O1306  1  0.607000  0.277100  0.227500  1
  O  O1307  1  0.357000  0.727500  0.222900  1
  O  O1308  1  0.857000  0.272500  0.777100  1
  O  O1309  1  0.143000  0.777100  0.272500  1
  O  O1310  1  0.643000  0.222900  0.727500  1
  O  O1311  1  0.893000  0.772500  0.722900  1
  O  O1312  1  0.393000  0.227500  0.277100  1
  O  O1313  1  0.914800  0.617700  0.677500  1
  O  O1314  1  0.414800  0.382300  0.322500  1
  O  O1315  1  0.164800  0.822500  0.117700  1
  O  O1316  1  0.664800  0.177500  0.882300  1
  O  O1317  1  0.335200  0.882300  0.177500  1
  O  O1318  1  0.835200  0.117700  0.822500  1
  O  O1319  1  0.085200  0.677500  0.617700  1
  O  O1320  1  0.585200  0.322500  0.382300  1
  O  O1321  1  0.055400  0.798000  0.898600  1
  O  O1322  1  0.555400  0.202000  0.101400  1
  O  O1323  1  0.305400  0.601400  0.298000  1
  O  O1324  1  0.805400  0.398600  0.702000  1
  O  O1325  1  0.194600  0.702000  0.398600  1
  O  O1326  1  0.694600  0.298000  0.601400  1
  O  O1327  1  0.944600  0.898600  0.798000  1
  O  O1328  1  0.444600  0.101400  0.202000  1
  O  O1329  1  0.105900  0.726400  0.862200  1
  O  O1330  1  0.605900  0.273600  0.137800  1
  O  O1331  1  0.355900  0.637800  0.226400  1
  O  O1332  1  0.855900  0.362200  0.773600  1
  O  O1333  1  0.144100  0.773600  0.362200  1
  O  O1334  1  0.644100  0.226400  0.637800  1
  O  O1335  1  0.894100  0.862200  0.726400  1
  O  O1336  1  0.394100  0.137800  0.273600  1
  O  O1337  1  0.871500  0.636600  0.779200  1
  O  O1338  1  0.371500  0.363400  0.220800  1
  O  O1339  1  0.121500  0.720800  0.136600  1
  O  O1340  1  0.621500  0.279200  0.863400  1
  O  O1341  1  0.378500  0.863400  0.279200  1
  O  O1342  1  0.878500  0.136600  0.720800  1
  O  O1343  1  0.128500  0.779200  0.636600  1
  O  O1344  1  0.628500  0.220800  0.363400  1
  O  O1345  1  0.017800  0.677000  0.889400  1
  O  O1346  1  0.517800  0.323000  0.110600  1
  O  O1347  1  0.267800  0.610600  0.177000  1
  O  O1348  1  0.767800  0.389400  0.823000  1
  O  O1349  1  0.232200  0.823000  0.389400  1
  O  O1350  1  0.732200  0.177000  0.610600  1
  O  O1351  1  0.982200  0.889400  0.677000  1
  O  O1352  1  0.482200  0.110600  0.323000  1
  O  O1353  1  0.169400  0.716400  0.692100  1
  O  O1354  1  0.669400  0.283600  0.307900  1
  O  O1355  1  0.419400  0.807900  0.216400  1
  O  O1356  1  0.919400  0.192100  0.783600  1
  O  O1357  1  0.080600  0.783600  0.192100  1
  O  O1358  1  0.580600  0.216400  0.807900  1
  O  O1359  1  0.830600  0.692100  0.716400  1
  O  O1360  1  0.330600  0.307900  0.283600  1
  O  O1361  1  0.150200  0.689200  0.935000  1
  O  O1362  1  0.650200  0.310800  0.065000  1
  O  O1363  1  0.400200  0.565000  0.189200  1
  O  O1364  1  0.900200  0.435000  0.810800  1
  O  O1365  1  0.099800  0.810800  0.435000  1
  O  O1366  1  0.599800  0.189200  0.565000  1
  O  O1367  1  0.849800  0.935000  0.689200  1
  O  O1368  1  0.349800  0.065000  0.310800  1
  O  O1369  1  0.012300  0.736800  0.956700  1
  O  O1370  1  0.512300  0.263200  0.043300  1
  O  O1371  1  0.262300  0.543300  0.236800  1
  O  O1372  1  0.762300  0.456700  0.763200  1
  O  O1373  1  0.237700  0.763200  0.456700  1
  O  O1374  1  0.737700  0.236800  0.543300  1
  O  O1375  1  0.987700  0.956700  0.736800  1
  O  O1376  1  0.487700  0.043300  0.263200  1
  O  O1377  1  0.161000  0.648400  0.655900  1
  O  O1378  1  0.661000  0.351600  0.344100  1
  O  O1379  1  0.411000  0.844100  0.148400  1
  O  O1380  1  0.911000  0.155900  0.851600  1
  O  O1381  1  0.089000  0.851600  0.155900  1
  O  O1382  1  0.589000  0.148400  0.844100  1
  O  O1383  1  0.839000  0.655900  0.648400  1
  O  O1384  1  0.339000  0.344100  0.351600  1
  O  O1385  1  0.102800  0.992200  0.049600  1
  O  O1386  1  0.602800  0.007800  0.950400  1
  O  O1387  1  0.352800  0.450400  0.492200  1
  O  O1388  1  0.852800  0.549600  0.507800  1
  O  O1389  1  0.147200  0.507800  0.549600  1
  O  O1390  1  0.647200  0.492200  0.450400  1
  O  O1391  1  0.897200  0.049600  0.992200  1
  O  O1392  1  0.397200  0.950400  0.007800  1
  O  O1393  1  0.963200  0.426700  0.645700  1
  O  O1394  1  0.463200  0.573300  0.354300  1
  O  O1395  1  0.213200  0.854300  0.926700  1
  O  O1396  1  0.713200  0.145700  0.073300  1
  O  O1397  1  0.286800  0.073300  0.145700  1
  O  O1398  1  0.786800  0.926700  0.854300  1
  O  O1399  1  0.036800  0.645700  0.426700  1
  O  O1400  1  0.536800  0.354300  0.573300  1
  O  O1401  1  0.311300  0.837500  0.923400  1
  O  O1402  1  0.811300  0.162500  0.076600  1
  O  O1403  1  0.561300  0.576600  0.337500  1
  O  O1404  1  0.061300  0.423400  0.662500  1
  O  O1405  1  0.938700  0.662500  0.423400  1
  O  O1406  1  0.438700  0.337500  0.576600  1
  O  O1407  1  0.688700  0.923400  0.837500  1
  O  O1408  1  0.188700  0.076600  0.162500  1
  O  O1409  1  0.072000  0.450000  0.739800  1
  O  O1410  1  0.572000  0.550000  0.260200  1
  O  O1411  1  0.322000  0.760200  0.950000  1
  O  O1412  1  0.822000  0.239800  0.050000  1
  O  O1413  1  0.178000  0.050000  0.239800  1
  O  O1414  1  0.678000  0.950000  0.760200  1
  O  O1415  1  0.928000  0.739800  0.450000  1
  O  O1416  1  0.428000  0.260200  0.550000  1
  O  O1417  1  0.858300  0.501000  0.761600  1
  O  O1418  1  0.358300  0.499000  0.238400  1
  O  O1419  1  0.108300  0.738400  0.001000  1
  O  O1420  1  0.608300  0.261600  0.999000  1
  O  O1421  1  0.391700  0.999000  0.261600  1
  O  O1422  1  0.891700  0.001000  0.738400  1
  O  O1423  1  0.141700  0.761600  0.501000  1
  O  O1424  1  0.641700  0.238400  0.499000  1
  O  O1425  1  0.161800  0.496800  0.768300  1
  O  O1426  1  0.661800  0.503200  0.231700  1
  O  O1427  1  0.411800  0.731700  0.996800  1
  O  O1428  1  0.911800  0.268300  0.003200  1
  O  O1429  1  0.088200  0.003200  0.268300  1
  O  O1430  1  0.588200  0.996800  0.731700  1
  O  O1431  1  0.838200  0.768300  0.496800  1
  O  O1432  1  0.338200  0.231700  0.503200  1
  O  O1433  1  0.150400  0.015500  0.743900  1
  O  O1434  1  0.650400  0.984500  0.256100  1
  O  O1435  1  0.400400  0.756100  0.515500  1
  O  O1436  1  0.900400  0.243900  0.484500  1
  O  O1437  1  0.099600  0.484500  0.243900  1
  O  O1438  1  0.599600  0.515500  0.756100  1
  O  O1439  1  0.849600  0.743900  0.015500  1
  O  O1440  1  0.349600  0.256100  0.984500  1
  O  O1441  1  0.153500  0.031200  0.879200  1
  O  O1442  1  0.653500  0.968800  0.120800  1
  O  O1443  1  0.403500  0.620800  0.531200  1
  O  O1444  1  0.903500  0.379200  0.468800  1
  O  O1445  1  0.096500  0.468800  0.379200  1
  O  O1446  1  0.596500  0.531200  0.620800  1
  O  O1447  1  0.846500  0.879200  0.031200  1
  O  O1448  1  0.346500  0.120800  0.968800  1
  O  O1449  1  0.051200  0.022100  0.744500  1
  O  O1450  1  0.551200  0.977900  0.255500  1
  O  O1451  1  0.301200  0.755500  0.522100  1
  O  O1452  1  0.801200  0.244500  0.477900  1
  O  O1453  1  0.198800  0.477900  0.244500  1
  O  O1454  1  0.698800  0.522100  0.755500  1
  O  O1455  1  0.948800  0.744500  0.022100  1
  O  O1456  1  0.448800  0.255500  0.977900  1
  O  O1457  1  0.250200  0.914400  0.803000  1
  O  O1458  1  0.750200  0.085600  0.197000  1
  O  O1459  1  0.500200  0.697000  0.414400  1
  O  O1460  1  0.000200  0.303000  0.585600  1
  O  O1461  1  0.999800  0.585600  0.303000  1
  O  O1462  1  0.499800  0.414400  0.697000  1
  O  O1463  1  0.749800  0.803000  0.914400  1
  O  O1464  1  0.249800  0.197000  0.085600  1
  O  O1465  1  0.061100  0.896700  0.035100  1
  O  O1466  1  0.561100  0.103300  0.964900  1
  O  O1467  1  0.311100  0.464900  0.396700  1
  O  O1468  1  0.811100  0.535100  0.603300  1
  O  O1469  1  0.188900  0.603300  0.535100  1
  O  O1470  1  0.688900  0.396700  0.464900  1
  O  O1471  1  0.938900  0.035100  0.896700  1
  O  O1472  1  0.438900  0.964900  0.103300  1
  O  O1473  1  0.353100  0.819000  0.754800  1
  O  O1474  1  0.853100  0.181000  0.245200  1
  O  O1475  1  0.603100  0.745200  0.319000  1
  O  O1476  1  0.103100  0.254800  0.681000  1
  O  O1477  1  0.896900  0.681000  0.254800  1
  O  O1478  1  0.396900  0.319000  0.745200  1
  O  O1479  1  0.646900  0.754800  0.819000  1
  O  O1480  1  0.146900  0.245200  0.181000  1
  O  O1481  1  0.317100  0.852800  0.831800  1
  O  O1482  1  0.817100  0.147200  0.168200  1
  O  O1483  1  0.567100  0.668200  0.352800  1
  O  O1484  1  0.067100  0.331800  0.647200  1
  O  O1485  1  0.932900  0.647200  0.331800  1
  O  O1486  1  0.432900  0.352800  0.668200  1
  O  O1487  1  0.682900  0.831800  0.852800  1
  O  O1488  1  0.182900  0.168200  0.147200  1
  O  O1489  1  0.898600  0.123800  0.047500  1
  O  O1490  1  0.398600  0.876200  0.952500  1
  O  O1491  1  0.148600  0.452500  0.623800  1
  O  O1492  1  0.648600  0.547500  0.376200  1
  O  O1493  1  0.351400  0.376200  0.547500  1
  O  O1494  1  0.851400  0.623800  0.452500  1
  O  O1495  1  0.101400  0.047500  0.123800  1
  O  O1496  1  0.601400  0.952500  0.876200  1
  O  O1497  1  0.090800  0.338400  0.417000  1
  O  O1498  1  0.590800  0.661600  0.583000  1
  O  O1499  1  0.340800  0.083000  0.838400  1
  O  O1500  1  0.840800  0.917000  0.161600  1
  O  O1501  1  0.159200  0.161600  0.917000  1
  O  O1502  1  0.659200  0.838400  0.083000  1
  O  O1503  1  0.909200  0.417000  0.338400  1
  O  O1504  1  0.409200  0.583000  0.661600  1
  O  O1505  1  0.947700  0.174800  0.985200  1
  O  O1506  1  0.447700  0.825200  0.014800  1
  O  O1507  1  0.197700  0.514800  0.674800  1
  O  O1508  1  0.697700  0.485200  0.325200  1
  O  O1509  1  0.302300  0.325200  0.485200  1
  O  O1510  1  0.802300  0.674800  0.514800  1
  O  O1511  1  0.052300  0.985200  0.174800  1
  O  O1512  1  0.552300  0.014800  0.825200  1
  O  O1513  1  0.341900  0.667200  0.742000  1
  O  O1514  1  0.841900  0.332800  0.258000  1
  O  O1515  1  0.591900  0.758000  0.167200  1
  O  O1516  1  0.091900  0.242000  0.832800  1
  O  O1517  1  0.908100  0.832800  0.242000  1
  O  O1518  1  0.408100  0.167200  0.758000  1
  O  O1519  1  0.658100  0.742000  0.667200  1
  O  O1520  1  0.158100  0.258000  0.332800  1
  O  O1521  1  0.032000  0.065600  0.815100  1
  O  O1522  1  0.532000  0.934400  0.184900  1
  O  O1523  1  0.282000  0.684900  0.565600  1
  O  O1524  1  0.782000  0.315100  0.434400  1
  O  O1525  1  0.218000  0.434400  0.315100  1
  O  O1526  1  0.718000  0.565600  0.684900  1
  O  O1527  1  0.968000  0.815100  0.065600  1
  O  O1528  1  0.468000  0.184900  0.934400  1
  O  O1529  1  0.804200  0.603400  0.165300  1
  O  O1530  1  0.304200  0.396600  0.834700  1
  O  O1531  1  0.054200  0.334700  0.103400  1
  O  O1532  1  0.554200  0.665300  0.896600  1
  O  O1533  1  0.445800  0.896600  0.665300  1
  O  O1534  1  0.945800  0.103400  0.334700  1
  O  O1535  1  0.195800  0.165300  0.603400  1
  O  O1536  1  0.695800  0.834700  0.396600  1
  O  O1537  1  0.895700  0.460000  0.692400  1
  O  O1538  1  0.395700  0.540000  0.307600  1
  O  O1539  1  0.145700  0.807600  0.960000  1
  O  O1540  1  0.645700  0.192400  0.040000  1
  O  O1541  1  0.354300  0.040000  0.192400  1
  O  O1542  1  0.854300  0.960000  0.807600  1
  O  O1543  1  0.104300  0.692400  0.460000  1
  O  O1544  1  0.604300  0.307600  0.540000  1
  O  O1545  1  0.476300  0.549000  0.823100  1
  O  O1546  1  0.976300  0.451000  0.176900  1
  O  O1547  1  0.726300  0.676900  0.049000  1
  O  O1548  1  0.226300  0.323100  0.951000  1
  O  O1549  1  0.773700  0.951000  0.323100  1
  O  O1550  1  0.273700  0.049000  0.676900  1
  O  O1551  1  0.523700  0.823100  0.549000  1
  O  O1552  1  0.023700  0.176900  0.451000  1
  O  O1553  1  0.970000  0.151800  0.917700  1
  O  O1554  1  0.470000  0.848200  0.082300  1
  O  O1555  1  0.220000  0.582300  0.651800  1
  O  O1556  1  0.720000  0.417700  0.348200  1
  O  O1557  1  0.280000  0.348200  0.417700  1
  O  O1558  1  0.780000  0.651800  0.582300  1
  O  O1559  1  0.030000  0.917700  0.151800  1
  O  O1560  1  0.530000  0.082300  0.848200  1
  O  O1561  1  0.405800  0.657000  0.773800  1
  O  O1562  1  0.905800  0.343000  0.226200  1
  O  O1563  1  0.655800  0.726200  0.157000  1
  O  O1564  1  0.155800  0.273800  0.843000  1
  O  O1565  1  0.844200  0.843000  0.273800  1
  O  O1566  1  0.344200  0.157000  0.726200  1
  O  O1567  1  0.594200  0.773800  0.657000  1
  O  O1568  1  0.094200  0.226200  0.343000  1
  O  O1569  1  0.115500  0.301500  0.534700  1
  O  O1570  1  0.615500  0.698500  0.465300  1
  O  O1571  1  0.365500  0.965300  0.801500  1
  O  O1572  1  0.865500  0.034700  0.198500  1
  O  O1573  1  0.134500  0.198500  0.034700  1
  O  O1574  1  0.634500  0.801500  0.965300  1
  O  O1575  1  0.884500  0.534700  0.301500  1
  O  O1576  1  0.384500  0.465300  0.698500  1
  O  O1577  1  0.001000  0.049000  0.647500  1
  O  O1578  1  0.501000  0.951000  0.352500  1
  O  O1579  1  0.251000  0.852500  0.549000  1
  O  O1580  1  0.751000  0.147500  0.451000  1
  O  O1581  1  0.249000  0.451000  0.147500  1
  O  O1582  1  0.749000  0.549000  0.852500  1
  O  O1583  1  0.999000  0.647500  0.049000  1
  O  O1584  1  0.499000  0.352500  0.951000  1
  O  O1585  1  0.198600  0.966800  0.828500  1
  O  O1586  1  0.698600  0.033200  0.171500  1
  O  O1587  1  0.448600  0.671500  0.466800  1
  O  O1588  1  0.948600  0.328500  0.533200  1
  O  O1589  1  0.051400  0.533200  0.328500  1
  O  O1590  1  0.551400  0.466800  0.671500  1
  O  O1591  1  0.801400  0.828500  0.966800  1
  O  O1592  1  0.301400  0.171500  0.033200  1
  O  O1593  1  0.954800  0.082400  0.190900  1
  O  O1594  1  0.454800  0.917600  0.809100  1
  O  O1595  1  0.204800  0.309100  0.582400  1
  O  O1596  1  0.704800  0.690900  0.417600  1
  O  O1597  1  0.295200  0.417600  0.690900  1
  O  O1598  1  0.795200  0.582400  0.309100  1
  O  O1599  1  0.045200  0.190900  0.082400  1
  O  O1600  1  0.545200  0.809100  0.917600  1
  O  O1601  1  0.023800  0.290500  0.447200  1
  O  O1602  1  0.523800  0.709500  0.552800  1
  O  O1603  1  0.273800  0.052800  0.790500  1
  O  O1604  1  0.773800  0.947200  0.209500  1
  O  O1605  1  0.226200  0.209500  0.947200  1
  O  O1606  1  0.726200  0.790500  0.052800  1
  O  O1607  1  0.976200  0.447200  0.290500  1
  O  O1608  1  0.476200  0.552800  0.709500  1
  O  O1609  1  0.791200  0.675500  0.986300  1
  O  O1610  1  0.291200  0.324500  0.013700  1
  O  O1611  1  0.041200  0.513700  0.175500  1
  O  O1612  1  0.541200  0.486300  0.824500  1
  O  O1613  1  0.458800  0.824500  0.486300  1
  O  O1614  1  0.958800  0.175500  0.513700  1
  O  O1615  1  0.208800  0.986300  0.675500  1
  O  O1616  1  0.708800  0.013700  0.324500  1
  O  O1617  1  0.177100  0.307000  0.404000  1
  O  O1618  1  0.677100  0.693000  0.596000  1
  O  O1619  1  0.427100  0.096000  0.807000  1
  O  O1620  1  0.927100  0.904000  0.193000  1
  O  O1621  1  0.072900  0.193000  0.904000  1
  O  O1622  1  0.572900  0.807000  0.096000  1
  O  O1623  1  0.822900  0.404000  0.307000  1
  O  O1624  1  0.322900  0.596000  0.693000  1
  O  O1625  1  0.809200  0.646100  0.245600  1
  O  O1626  1  0.309200  0.353900  0.754400  1
  O  O1627  1  0.059200  0.254400  0.146100  1
  O  O1628  1  0.559200  0.745600  0.853900  1
  O  O1629  1  0.440800  0.853900  0.745600  1
  O  O1630  1  0.940800  0.146100  0.254400  1
  O  O1631  1  0.190800  0.245600  0.646100  1
  O  O1632  1  0.690800  0.754400  0.353900  1
  O  O1633  1  0.872100  0.023500  0.826700  1
  O  O1634  1  0.372100  0.976500  0.173300  1
  O  O1635  1  0.122100  0.673300  0.523500  1
  O  O1636  1  0.622100  0.326700  0.476500  1
  O  O1637  1  0.377900  0.476500  0.326700  1
  O  O1638  1  0.877900  0.523500  0.673300  1
  O  O1639  1  0.127900  0.826700  0.023500  1
  O  O1640  1  0.627900  0.173300  0.976500  1
  O  O1641  1  0.160000  0.719800  0.935000  1
  O  O1642  1  0.660000  0.280200  0.065000  1
  O  O1643  1  0.410000  0.565000  0.219800  1
  O  O1644  1  0.910000  0.435000  0.780200  1
  O  O1645  1  0.090000  0.780200  0.435000  1
  O  O1646  1  0.590000  0.219800  0.565000  1
  O  O1647  1  0.840000  0.935000  0.719800  1
  O  O1648  1  0.340000  0.065000  0.280200  1
  O  O1649  1  0.090400  0.464100  0.742800  1
  O  O1650  1  0.590400  0.535900  0.257200  1
  O  O1651  1  0.340400  0.757200  0.964100  1
  O  O1652  1  0.840400  0.242800  0.035900  1
  O  O1653  1  0.159600  0.035900  0.242800  1
  O  O1654  1  0.659600  0.964100  0.757200  1
  O  O1655  1  0.909600  0.742800  0.464100  1
  O  O1656  1  0.409600  0.257200  0.535900  1
  O  O1657  1  0.962500  0.133800  0.113100  1
  O  O1658  1  0.462500  0.866200  0.886900  1
  O  O1659  1  0.212500  0.386900  0.633800  1
  O  O1660  1  0.712500  0.613100  0.366200  1
  O  O1661  1  0.287500  0.366200  0.613100  1
  O  O1662  1  0.787500  0.633800  0.386900  1
  O  O1663  1  0.037500  0.113100  0.133800  1
  O  O1664  1  0.537500  0.886900  0.866200  1
  O  O1665  1  0.901400  0.112000  0.133000  1
  O  O1666  1  0.401400  0.888000  0.867000  1
  O  O1667  1  0.151400  0.367000  0.612000  1
  O  O1668  1  0.651400  0.633000  0.388000  1
  O  O1669  1  0.348600  0.388000  0.633000  1
  O  O1670  1  0.848600  0.612000  0.367000  1
  O  O1671  1  0.098600  0.133000  0.112000  1
  O  O1672  1  0.598600  0.867000  0.888000  1
  O  O1673  1  0.747000  0.723000  0.258000  1
  O  O1674  1  0.247000  0.277000  0.742000  1
  O  O1675  1  0.997000  0.242000  0.223000  1
  O  O1676  1  0.497000  0.758000  0.777000  1
  O  O1677  1  0.503000  0.777000  0.758000  1
  O  O1678  1  0.003000  0.223000  0.242000  1
  O  O1679  1  0.253000  0.258000  0.723000  1
  O  O1680  1  0.753000  0.742000  0.277000  1
  O  O1681  1  0.911600  0.071100  0.890400  1
  O  O1682  1  0.411600  0.928900  0.109600  1
  O  O1683  1  0.161600  0.609600  0.571100  1
  O  O1684  1  0.661600  0.390400  0.428900  1
  O  O1685  1  0.338400  0.428900  0.390400  1
  O  O1686  1  0.838400  0.571100  0.609600  1
  O  O1687  1  0.088400  0.890400  0.071100  1
  O  O1688  1  0.588400  0.109600  0.928900  1
  O  O1689  1  0.651300  0.655700  0.943000  1
  O  O1690  1  0.151300  0.344300  0.057000  1
  O  O1691  1  0.901300  0.557000  0.155700  1
  O  O1692  1  0.401300  0.443000  0.844300  1
  O  O1693  1  0.598700  0.844300  0.443000  1
  O  O1694  1  0.098700  0.155700  0.557000  1
  O  O1695  1  0.348700  0.943000  0.655700  1
  O  O1696  1  0.848700  0.057000  0.344300  1
  O  O1697  1  0.615000  0.630000  0.935000  1
  O  O1698  1  0.115000  0.370000  0.065000  1
  O  O1699  1  0.865000  0.565000  0.130000  1
  O  O1700  1  0.365000  0.435000  0.870000  1
  O  O1701  1  0.635000  0.870000  0.435000  1
  O  O1702  1  0.135000  0.130000  0.565000  1
  O  O1703  1  0.385000  0.935000  0.630000  1
  O  O1704  1  0.885000  0.065000  0.370000  1
