# generated using pymatgen
data_Co24B11H711C1162N197F44
_symmetry_space_group_name_H-M   'P 1'
_cell_length_a   40.20420000
_cell_length_b   40.29350000
_cell_length_c   54.24650000
_cell_angle_alpha   90.00000000
_cell_angle_beta   90.00000000
_cell_angle_gamma   90.40800000
_symmetry_Int_Tables_number   1
_chemical_formula_structural   Co24B11H711C1162N197F44
_chemical_formula_sum   'Co48 B22 H1422 C2324 N394 F88'
_cell_volume   87875.36242948
_cell_formula_units_Z   2
loop_
 _symmetry_equiv_pos_site_id
 _symmetry_equiv_pos_as_xyz
  1  'x, y, z'
loop_
 _atom_site_type_symbol
 _atom_site_label
 _atom_site_symmetry_multiplicity
 _atom_site_fract_x
 _atom_site_fract_y
 _atom_site_fract_z
 _atom_site_occupancy
  Co  Co1  1  0.273190  0.199750  0.778140  1.0
  Co  Co2  1  0.226810  0.300250  0.278140  1.0
  Co  Co3  1  0.726810  0.800250  0.221860  1.0
  Co  Co4  1  0.773190  0.699750  0.721860  1.0
  Co  Co5  1  0.448910  0.152710  0.962440  1.0
  Co  Co6  1  0.051090  0.347290  0.462440  1.0
  Co  Co7  1  0.551090  0.847290  0.037560  1.0
  Co  Co8  1  0.948910  0.652710  0.537560  1.0
  Co  Co9  1  0.437310  0.501910  0.928230  1.0
  Co  Co10  1  0.062690  0.998090  0.428230  1.0
  Co  Co11  1  0.562690  0.498090  0.071770  1.0
  Co  Co12  1  0.937310  0.001910  0.571770  1.0
  Co  Co13  1  0.369140  0.328000  0.565810  1.0
  Co  Co14  1  0.130860  0.172000  0.065810  1.0
  Co  Co15  1  0.630860  0.672000  0.434190  1.0
  Co  Co16  1  0.869140  0.828000  0.934190  1.0
  Co  Co17  1  0.515160  0.651450  0.722450  1.0
  Co  Co18  1  0.984840  0.848550  0.222450  1.0
  Co  Co19  1  0.484840  0.348550  0.277550  1.0
  Co  Co20  1  0.015160  0.151450  0.777550  1.0
  Co  Co21  1  0.665980  0.522940  0.540050  1.0
  Co  Co22  1  0.834020  0.977060  0.040050  1.0
  Co  Co23  1  0.334020  0.477060  0.459950  1.0
  Co  Co24  1  0.165980  0.022940  0.959950  1.0
  Co  Co25  1  0.860290  0.218670  0.560580  1.0
  Co  Co26  1  0.639710  0.281330  0.060580  1.0
  Co  Co27  1  0.139710  0.781330  0.439420  1.0
  Co  Co28  1  0.360290  0.718670  0.939420  1.0
  Co  Co29  1  0.969820  0.414150  0.727320  1.0
  Co  Co30  1  0.530180  0.085850  0.227320  1.0
  Co  Co31  1  0.030180  0.585850  0.272680  1.0
  Co  Co32  1  0.469820  0.914150  0.772680  1.0
  Co  Co33  1  0.817660  0.509650  0.908770  1.0
  Co  Co34  1  0.682340  0.990350  0.408770  1.0
  Co  Co35  1  0.182340  0.490350  0.091230  1.0
  Co  Co36  1  0.317660  0.009650  0.591230  1.0
  Co  Co37  1  0.551190  0.029180  0.594220  1.0
  Co  Co38  1  0.948810  0.470820  0.094220  1.0
  Co  Co39  1  0.448810  0.970820  0.405780  1.0
  Co  Co40  1  0.051190  0.529180  0.905780  1.0
  Co  Co41  1  0.729820  0.963480  0.783170  1.0
  Co  Co42  1  0.770180  0.536520  0.283170  1.0
  Co  Co43  1  0.270180  0.036520  0.216830  1.0
  Co  Co44  1  0.229820  0.463480  0.716830  1.0
  Co  Co45  1  0.827830  0.180350  0.942080  1.0
  Co  Co46  1  0.672170  0.319650  0.442080  1.0
  Co  Co47  1  0.172170  0.819650  0.057920  1.0
  Co  Co48  1  0.327830  0.680350  0.557920  1.0
  B  B49  1  0.002000  0.463300  0.819000  0.25
  B  B50  1  0.498000  0.036700  0.319000  0.25
  B  B51  1  0.998000  0.536700  0.181000  0.25
  B  B52  1  0.502000  0.963300  0.681000  0.25
  B  B53  1  0.513600  0.558100  0.828500  0.25
  B  B54  1  0.986400  0.941900  0.328500  0.25
  B  B55  1  0.486400  0.441900  0.171500  0.25
  B  B56  1  0.013600  0.058100  0.671500  0.25
  B  B57  1  0.652100  0.037100  0.680000  0.25
  B  B58  1  0.847900  0.462900  0.180000  0.25
  B  B59  1  0.347900  0.962900  0.320000  0.25
  B  B60  1  0.152100  0.537100  0.820000  0.25
  B  B61  1  0.746300  0.257500  0.000500  0.25
  B  B62  1  0.753700  0.242500  0.500500  0.25
  B  B63  1  0.253700  0.742500  0.999500  0.25
  B  B64  1  0.246300  0.757500  0.499500  0.25
  B  B65  1  0.876700  0.349000  0.544300  0.25
  B  B66  1  0.623300  0.151000  0.044300  0.25
  B  B67  1  0.123300  0.651000  0.455700  0.25
  B  B68  1  0.376700  0.849000  0.955700  0.25
  B  B69  1  0.746600  0.091100  0.858600  0.25
  B  B70  1  0.753400  0.408900  0.358600  0.25
  B  B71  1  0.253400  0.908900  0.141400  0.25
  B  B72  1  0.246600  0.591100  0.641400  0.25
  B  B73  1  0.357200  0.247500  0.676100  0.5
  B  B74  1  0.142800  0.252500  0.176100  0.5
  B  B75  1  0.642800  0.752500  0.323900  0.5
  B  B76  1  0.857200  0.747500  0.823900  0.5
  B  B77  1  0.847200  0.416300  0.818600  0.5
  B  B78  1  0.652800  0.083700  0.318600  0.5
  B  B79  1  0.152800  0.583700  0.181400  0.5
  B  B80  1  0.347200  0.916300  0.681400  0.5
  B  B81  1  0.880400  0.328100  0.649600  0.5
  B  B82  1  0.619600  0.171900  0.149600  0.5
  B  B83  1  0.119600  0.671900  0.350400  0.5
  B  B84  1  0.380400  0.828100  0.850400  0.5
  B  B85  1  0.577800  0.542600  0.631600  0.5
  B  B86  1  0.922200  0.957400  0.131600  0.5
  B  B87  1  0.422200  0.457400  0.368400  0.5
  B  B88  1  0.077800  0.042600  0.868400  0.5
  B  B89  1  0.387000  0.210700  0.859500  0.5
  B  B90  1  0.113000  0.289300  0.359500  0.5
  B  B91  1  0.613000  0.789300  0.140500  0.5
  B  B92  1  0.887000  0.710700  0.640500  0.5
  B  B93  1  0.743700  0.111000  0.597400  0.5
  B  B94  1  0.756300  0.389000  0.097400  0.5
  B  B95  1  0.256300  0.889000  0.402600  0.5
  B  B96  1  0.243700  0.611000  0.902600  0.5
  B  B97  1  0.752100  0.598700  0.592000  0.5
  B  B98  1  0.747900  0.901300  0.092000  0.5
  B  B99  1  0.247900  0.401300  0.408000  0.5
  B  B100  1  0.252100  0.098700  0.908000  0.5
  B  B101  1  0.549600  0.607200  0.934100  0.5
  B  B102  1  0.950400  0.892800  0.434100  0.5
  B  B103  1  0.450400  0.392800  0.065900  0.5
  B  B104  1  0.049600  0.107200  0.565900  0.5
  H  H105  1  0.015900  0.428100  0.676800  1.0
  H  H106  1  0.484100  0.071900  0.176800  1.0
  H  H107  1  0.984100  0.571900  0.323200  1.0
  H  H108  1  0.515900  0.928100  0.823200  1.0
  H  H109  1  0.046800  0.474800  0.660900  1.0
  H  H110  1  0.453200  0.025200  0.160900  1.0
  H  H111  1  0.953200  0.525200  0.339100  1.0
  H  H112  1  0.546800  0.974800  0.839100  1.0
  H  H113  1  0.041000  0.525200  0.681500  1.0
  H  H114  1  0.459000  0.974800  0.181500  1.0
  H  H115  1  0.959000  0.474800  0.318500  1.0
  H  H116  1  0.541000  0.025200  0.818500  1.0
  H  H117  1  0.018300  0.559300  0.717400  1.0
  H  H118  1  0.481700  0.940700  0.217400  1.0
  H  H119  1  0.981700  0.440700  0.282600  1.0
  H  H120  1  0.518300  0.059300  0.782600  1.0
  H  H121  1  0.986400  0.565000  0.750300  1.0
  H  H122  1  0.513600  0.935000  0.250300  1.0
  H  H123  1  0.013600  0.435000  0.249700  1.0
  H  H124  1  0.486400  0.065000  0.749700  1.0
  H  H125  1  0.951400  0.532200  0.782300  1.0
  H  H126  1  0.548600  0.967800  0.282300  1.0
  H  H127  1  0.048600  0.467800  0.217700  1.0
  H  H128  1  0.451400  0.032200  0.717700  1.0
  H  H129  1  0.921600  0.483200  0.794900  1.0
  H  H130  1  0.578400  0.016800  0.294900  1.0
  H  H131  1  0.078400  0.516800  0.205100  1.0
  H  H132  1  0.421600  0.983200  0.705100  1.0
  H  H133  1  0.910800  0.418400  0.783700  1.0
  H  H134  1  0.589200  0.081600  0.283700  1.0
  H  H135  1  0.089200  0.581600  0.216300  1.0
  H  H136  1  0.410800  0.918400  0.716300  1.0
  H  H137  1  0.950400  0.341100  0.738900  1.0
  H  H138  1  0.549600  0.158900  0.238900  1.0
  H  H139  1  0.049600  0.658900  0.261100  1.0
  H  H140  1  0.450400  0.841100  0.761100  1.0
  H  H141  1  0.918700  0.291900  0.737400  1.0
  H  H142  1  0.581300  0.208100  0.237400  1.0
  H  H143  1  0.081300  0.708100  0.262600  1.0
  H  H144  1  0.418700  0.791900  0.762600  1.0
  H  H145  1  0.838500  0.342200  0.762000  1.0
  H  H146  1  0.661500  0.157800  0.262000  1.0
  H  H147  1  0.161500  0.657800  0.238000  1.0
  H  H148  1  0.338500  0.842200  0.738000  1.0
  H  H149  1  0.871800  0.389800  0.767300  1.0
  H  H150  1  0.628200  0.110200  0.267300  1.0
  H  H151  1  0.128200  0.610200  0.232700  1.0
  H  H152  1  0.371800  0.889800  0.732700  1.0
  H  H153  1  0.905200  0.276000  0.531500  1.0
  H  H154  1  0.594800  0.224000  0.031500  1.0
  H  H155  1  0.094800  0.724000  0.468500  1.0
  H  H156  1  0.405200  0.776000  0.968500  1.0
  H  H157  1  0.920500  0.287400  0.488300  1.0
  H  H158  1  0.579500  0.212600  0.988300  1.0
  H  H159  1  0.079500  0.712600  0.511700  1.0
  H  H160  1  0.420500  0.787400  0.011700  1.0
  H  H161  1  0.895500  0.254700  0.458900  1.0
  H  H162  1  0.604500  0.245300  0.958900  1.0
  H  H163  1  0.104500  0.745300  0.541100  1.0
  H  H164  1  0.395500  0.754700  0.041100  1.0
  H  H165  1  0.856600  0.205900  0.446600  1.0
  H  H166  1  0.643400  0.294100  0.946600  1.0
  H  H167  1  0.143400  0.794100  0.553400  1.0
  H  H168  1  0.356600  0.705900  0.053400  1.0
  H  H169  1  0.816500  0.166500  0.457500  1.0
  H  H170  1  0.683500  0.333500  0.957500  1.0
  H  H171  1  0.183500  0.833500  0.542500  1.0
  H  H172  1  0.316500  0.666500  0.042500  1.0
  H  H173  1  0.789300  0.135300  0.491100  1.0
  H  H174  1  0.710700  0.364700  0.991100  1.0
  H  H175  1  0.210700  0.864700  0.508900  1.0
  H  H176  1  0.289300  0.635300  0.008900  1.0
  H  H177  1  0.778700  0.131400  0.533600  1.0
  H  H178  1  0.721300  0.368600  0.033600  1.0
  H  H179  1  0.221300  0.868600  0.466400  1.0
  H  H180  1  0.278700  0.631400  0.966400  1.0
  H  H181  1  0.790400  0.157800  0.579100  1.0
  H  H182  1  0.709600  0.342200  0.079100  1.0
  H  H183  1  0.209600  0.842200  0.420900  1.0
  H  H184  1  0.290400  0.657800  0.920900  1.0
  H  H185  1  0.772700  0.190800  0.611200  1.0
  H  H186  1  0.727300  0.309200  0.111200  1.0
  H  H187  1  0.227300  0.809200  0.388800  1.0
  H  H188  1  0.272700  0.690800  0.888800  1.0
  H  H189  1  0.768800  0.196500  0.653600  1.0
  H  H190  1  0.731200  0.303500  0.153600  1.0
  H  H191  1  0.231200  0.803500  0.346400  1.0
  H  H192  1  0.268800  0.696500  0.846400  1.0
  H  H193  1  0.870200  0.201500  0.657500  1.0
  H  H194  1  0.629800  0.298500  0.157500  1.0
  H  H195  1  0.129800  0.798500  0.342500  1.0
  H  H196  1  0.370200  0.701500  0.842500  1.0
  H  H197  1  0.872600  0.198500  0.615700  1.0
  H  H198  1  0.627400  0.301500  0.115700  1.0
  H  H199  1  0.127400  0.801500  0.384300  1.0
  H  H200  1  0.372600  0.698500  0.884300  1.0
  H  H201  1  0.737500  0.925400  0.835200  1.0
  H  H202  1  0.762500  0.574600  0.335200  1.0
  H  H203  1  0.262500  0.074600  0.164800  1.0
  H  H204  1  0.237500  0.425400  0.664800  1.0
  H  H205  1  0.723700  0.869000  0.851900  1.0
  H  H206  1  0.776300  0.631000  0.351900  1.0
  H  H207  1  0.276300  0.131000  0.148100  1.0
  H  H208  1  0.223700  0.369000  0.648100  1.0
  H  H209  1  0.692200  0.835500  0.825900  1.0
  H  H210  1  0.807800  0.664500  0.325900  1.0
  H  H211  1  0.307800  0.164500  0.174100  1.0
  H  H212  1  0.192200  0.335500  0.674100  1.0
  H  H213  1  0.662600  0.823200  0.787800  1.0
  H  H214  1  0.837400  0.676800  0.287800  1.0
  H  H215  1  0.337400  0.176800  0.212200  1.0
  H  H216  1  0.162600  0.323200  0.712200  1.0
  H  H217  1  0.648400  0.840000  0.748800  1.0
  H  H218  1  0.851600  0.660000  0.248800  1.0
  H  H219  1  0.351600  0.160000  0.251200  1.0
  H  H220  1  0.148400  0.340000  0.751200  1.0
  H  H221  1  0.647500  0.889300  0.717000  1.0
  H  H222  1  0.852500  0.610700  0.217000  1.0
  H  H223  1  0.352500  0.110700  0.283000  1.0
  H  H224  1  0.147500  0.389300  0.783000  1.0
  H  H225  1  0.665600  0.943300  0.705300  1.0
  H  H226  1  0.834400  0.556700  0.205300  1.0
  H  H227  1  0.334400  0.056700  0.294700  1.0
  H  H228  1  0.165600  0.443300  0.794700  1.0
  H  H229  1  0.697200  0.998400  0.720800  1.0
  H  H230  1  0.802800  0.501600  0.220800  1.0
  H  H231  1  0.302800  0.001600  0.279200  1.0
  H  H232  1  0.197200  0.498400  0.779200  1.0
  H  H233  1  0.774300  0.021000  0.772400  1.0
  H  H234  1  0.725700  0.479000  0.272400  1.0
  H  H235  1  0.225700  0.979000  0.227600  1.0
  H  H236  1  0.274300  0.521000  0.727600  1.0
  H  H237  1  0.793900  0.075200  0.770600  1.0
  H  H238  1  0.706100  0.424800  0.270600  1.0
  H  H239  1  0.206100  0.924800  0.229400  1.0
  H  H240  1  0.293900  0.575200  0.729400  1.0
  H  H241  1  0.712200  0.105200  0.735600  1.0
  H  H242  1  0.787800  0.394800  0.235600  1.0
  H  H243  1  0.287800  0.894800  0.264400  1.0
  H  H244  1  0.212200  0.605200  0.764400  1.0
  H  H245  1  0.694700  0.050700  0.731600  1.0
  H  H246  1  0.805300  0.449300  0.231600  1.0
  H  H247  1  0.305300  0.949300  0.268400  1.0
  H  H248  1  0.194700  0.550700  0.768400  1.0
  H  H249  1  0.804100  0.117500  0.974400  1.0
  H  H250  1  0.695900  0.382500  0.474400  1.0
  H  H251  1  0.195900  0.882500  0.025600  1.0
  H  H252  1  0.304100  0.617500  0.525600  1.0
  H  H253  1  0.803200  0.100700  0.017200  1.0
  H  H254  1  0.696800  0.399300  0.517200  1.0
  H  H255  1  0.196800  0.899300  0.982800  1.0
  H  H256  1  0.303200  0.600700  0.482800  1.0
  H  H257  1  0.814300  0.142300  0.044800  1.0
  H  H258  1  0.685700  0.357700  0.544800  1.0
  H  H259  1  0.185700  0.857700  0.955200  1.0
  H  H260  1  0.314300  0.642300  0.455200  1.0
  H  H261  1  0.829700  0.208700  0.054100  1.0
  H  H262  1  0.670300  0.291300  0.554100  1.0
  H  H263  1  0.170300  0.791300  0.945900  1.0
  H  H264  1  0.329700  0.708700  0.445900  1.0
  H  H265  1  0.843100  0.259900  0.040600  1.0
  H  H266  1  0.656900  0.240100  0.540600  1.0
  H  H267  1  0.156900  0.740100  0.959400  1.0
  H  H268  1  0.343100  0.759900  0.459400  1.0
  H  H269  1  0.847500  0.296700  0.002500  1.0
  H  H270  1  0.652500  0.203300  0.502500  1.0
  H  H271  1  0.152500  0.703300  0.997500  1.0
  H  H272  1  0.347500  0.796700  0.497500  1.0
  H  H273  1  0.849000  0.302800  0.958500  1.0
  H  H274  1  0.651000  0.197200  0.458500  1.0
  H  H275  1  0.151000  0.697200  0.041500  1.0
  H  H276  1  0.349000  0.802800  0.541500  1.0
  H  H277  1  0.838100  0.270700  0.915100  1.0
  H  H278  1  0.661900  0.229300  0.415100  1.0
  H  H279  1  0.161900  0.729300  0.084900  1.0
  H  H280  1  0.338100  0.770700  0.584900  1.0
  H  H281  1  0.845800  0.173900  0.887300  1.0
  H  H282  1  0.654200  0.326100  0.387300  1.0
  H  H283  1  0.154200  0.826100  0.112700  1.0
  H  H284  1  0.345800  0.673900  0.612700  1.0
  H  H285  1  0.840200  0.172500  0.844300  1.0
  H  H286  1  0.659800  0.327500  0.344300  1.0
  H  H287  1  0.159800  0.827500  0.155700  1.0
  H  H288  1  0.340200  0.672500  0.655700  1.0
  H  H289  1  0.783300  0.255300  0.846200  1.0
  H  H290  1  0.716700  0.244700  0.346200  1.0
  H  H291  1  0.216700  0.744700  0.153800  1.0
  H  H292  1  0.283300  0.755300  0.653800  1.0
  H  H293  1  0.789100  0.257500  0.888300  1.0
  H  H294  1  0.710900  0.242500  0.388300  1.0
  H  H295  1  0.210900  0.742500  0.111700  1.0
  H  H296  1  0.289100  0.757500  0.611700  1.0
  H  H297  1  0.864300  0.301300  0.700000  1.0
  H  H298  1  0.635700  0.198700  0.200000  1.0
  H  H299  1  0.135700  0.698700  0.300000  1.0
  H  H300  1  0.364300  0.801300  0.800000  1.0
  H  H301  1  0.846900  0.260500  0.667600  1.0
  H  H302  1  0.653100  0.239500  0.167600  1.0
  H  H303  1  0.153100  0.739500  0.332400  1.0
  H  H304  1  0.346900  0.760500  0.832400  1.0
  H  H305  1  0.794900  0.138700  0.672300  1.0
  H  H306  1  0.705100  0.361300  0.172300  1.0
  H  H307  1  0.205100  0.861300  0.327700  1.0
  H  H308  1  0.294900  0.638700  0.827700  1.0
  H  H309  1  0.769800  0.103500  0.705100  1.0
  H  H310  1  0.730200  0.396500  0.205100  1.0
  H  H311  1  0.230200  0.896500  0.294900  1.0
  H  H312  1  0.269800  0.603500  0.794900  1.0
  H  H313  1  0.750500  0.115900  0.800600  1.0
  H  H314  1  0.749500  0.384100  0.300600  1.0
  H  H315  1  0.249500  0.884100  0.199400  1.0
  H  H316  1  0.250500  0.615900  0.699400  1.0
  H  H317  1  0.771500  0.154600  0.832100  1.0
  H  H318  1  0.728500  0.345400  0.332100  1.0
  H  H319  1  0.228500  0.845400  0.167900  1.0
  H  H320  1  0.271500  0.654600  0.667900  1.0
  H  H321  1  0.846400  0.265800  0.831200  1.0
  H  H322  1  0.653600  0.234200  0.331200  1.0
  H  H323  1  0.153600  0.734200  0.168800  1.0
  H  H324  1  0.346400  0.765800  0.668800  1.0
  H  H325  1  0.870300  0.300000  0.797800  1.0
  H  H326  1  0.629700  0.200000  0.297800  1.0
  H  H327  1  0.129700  0.700000  0.202200  1.0
  H  H328  1  0.370300  0.800000  0.702200  1.0
  H  H329  1  0.811700  0.591000  0.922800  1.0
  H  H330  1  0.688300  0.909000  0.422800  1.0
  H  H331  1  0.188300  0.409000  0.077200  1.0
  H  H332  1  0.311700  0.091000  0.577200  1.0
  H  H333  1  0.848300  0.638400  0.921500  1.0
  H  H334  1  0.651700  0.861600  0.421500  1.0
  H  H335  1  0.151700  0.361600  0.078500  1.0
  H  H336  1  0.348300  0.138400  0.578500  1.0
  H  H337  1  0.897700  0.633100  0.899100  1.0
  H  H338  1  0.602300  0.866900  0.399100  1.0
  H  H339  1  0.102300  0.366900  0.100900  1.0
  H  H340  1  0.397700  0.133100  0.600900  1.0
  H  H341  1  0.936600  0.597600  0.871100  1.0
  H  H342  1  0.563400  0.902400  0.371100  1.0
  H  H343  1  0.063400  0.402400  0.128900  1.0
  H  H344  1  0.436600  0.097600  0.628900  1.0
  H  H345  1  0.956900  0.547900  0.862900  1.0
  H  H346  1  0.543100  0.952100  0.362900  1.0
  H  H347  1  0.043100  0.452100  0.137100  1.0
  H  H348  1  0.456900  0.047900  0.637100  1.0
  H  H349  1  0.937400  0.485800  0.855500  1.0
  H  H350  1  0.562600  0.014200  0.355500  1.0
  H  H351  1  0.062600  0.514200  0.144500  1.0
  H  H352  1  0.437400  0.985800  0.644500  1.0
  H  H353  1  0.897000  0.441500  0.858100  1.0
  H  H354  1  0.603000  0.058500  0.358100  1.0
  H  H355  1  0.103000  0.558500  0.141900  1.0
  H  H356  1  0.397000  0.941500  0.641900  1.0
  H  H357  1  0.837900  0.425800  0.878700  1.0
  H  H358  1  0.662100  0.074200  0.378700  1.0
  H  H359  1  0.162100  0.574200  0.121300  1.0
  H  H360  1  0.337900  0.925800  0.621300  1.0
  H  H361  1  0.784800  0.419500  0.861500  1.0
  H  H362  1  0.715200  0.080500  0.361500  1.0
  H  H363  1  0.215200  0.580500  0.138500  1.0
  H  H364  1  0.284800  0.919500  0.638500  1.0
  H  H365  1  0.733200  0.391600  0.862000  1.0
  H  H366  1  0.766800  0.108400  0.362000  1.0
  H  H367  1  0.266800  0.608400  0.138000  1.0
  H  H368  1  0.233200  0.891600  0.638000  1.0
  H  H369  1  0.717000  0.425200  0.931200  1.0
  H  H370  1  0.783000  0.074800  0.431200  1.0
  H  H371  1  0.283000  0.574800  0.068800  1.0
  H  H372  1  0.217000  0.925200  0.568800  1.0
  H  H373  1  0.765300  0.457200  0.928500  1.0
  H  H374  1  0.734700  0.042800  0.428500  1.0
  H  H375  1  0.234700  0.542800  0.071500  1.0
  H  H376  1  0.265300  0.957200  0.571500  1.0
  H  H377  1  0.897800  0.215300  0.962000  1.0
  H  H378  1  0.602200  0.284700  0.462000  1.0
  H  H379  1  0.102200  0.784700  0.038000  1.0
  H  H380  1  0.397800  0.715300  0.538000  1.0
  H  H381  1  0.956200  0.197100  0.967900  1.0
  H  H382  1  0.543800  0.302900  0.467900  1.0
  H  H383  1  0.043800  0.802900  0.032100  1.0
  H  H384  1  0.456200  0.697100  0.532100  1.0
  H  H385  1  0.968000  0.144800  0.954700  1.0
  H  H386  1  0.532000  0.355200  0.454700  1.0
  H  H387  1  0.032000  0.855200  0.045300  1.0
  H  H388  1  0.468000  0.644800  0.545300  1.0
  H  H389  1  0.951200  0.087200  0.937000  1.0
  H  H390  1  0.548800  0.412800  0.437000  1.0
  H  H391  1  0.048800  0.912800  0.063000  1.0
  H  H392  1  0.451200  0.587200  0.563000  1.0
  H  H393  1  0.912400  0.054300  0.916200  1.0
  H  H394  1  0.587600  0.445700  0.416200  1.0
  H  H395  1  0.087600  0.945700  0.083800  1.0
  H  H396  1  0.412400  0.554300  0.583800  1.0
  H  H397  1  0.852400  0.049500  0.903000  1.0
  H  H398  1  0.647600  0.450500  0.403000  1.0
  H  H399  1  0.147600  0.950500  0.097000  1.0
  H  H400  1  0.352400  0.549500  0.597000  1.0
  H  H401  1  0.800500  0.072600  0.898100  1.0
  H  H402  1  0.699500  0.427400  0.398100  1.0
  H  H403  1  0.199500  0.927400  0.101900  1.0
  H  H404  1  0.300500  0.572600  0.601900  1.0
  H  H405  1  0.761700  0.125700  0.908300  1.0
  H  H406  1  0.738300  0.374300  0.408300  1.0
  H  H407  1  0.238300  0.874300  0.091700  1.0
  H  H408  1  0.261700  0.625700  0.591700  1.0
  H  H409  1  0.738800  0.168400  0.887300  1.0
  H  H410  1  0.761200  0.331600  0.387300  1.0
  H  H411  1  0.261200  0.831600  0.112700  1.0
  H  H412  1  0.238800  0.668400  0.612700  1.0
  H  H413  1  0.703600  0.212000  0.877700  1.0
  H  H414  1  0.796400  0.288000  0.377700  1.0
  H  H415  1  0.296400  0.788000  0.122300  1.0
  H  H416  1  0.203600  0.712000  0.622300  1.0
  H  H417  1  0.715700  0.248000  0.947400  1.0
  H  H418  1  0.784300  0.252000  0.447400  1.0
  H  H419  1  0.284300  0.752000  0.052600  1.0
  H  H420  1  0.215700  0.748000  0.552600  1.0
  H  H421  1  0.754000  0.207500  0.954900  1.0
  H  H422  1  0.746000  0.292500  0.454900  1.0
  H  H423  1  0.246000  0.792500  0.045100  1.0
  H  H424  1  0.254000  0.707500  0.545100  1.0
  H  H425  1  0.468500  0.085800  0.992200  1.0
  H  H426  1  0.031500  0.414200  0.492200  1.0
  H  H427  1  0.531500  0.914200  0.007800  1.0
  H  H428  1  0.968500  0.585800  0.507800  1.0
  H  H429  1  0.434100  0.045900  0.016900  1.0
  H  H430  1  0.065900  0.454100  0.516900  1.0
  H  H431  1  0.565900  0.954100  0.983100  1.0
  H  H432  1  0.934100  0.545900  0.483100  1.0
  H  H433  1  0.385000  0.028800  0.995700  1.0
  H  H434  1  0.115000  0.471200  0.495700  1.0
  H  H435  1  0.615000  0.971200  0.004300  1.0
  H  H436  1  0.885000  0.528800  0.504300  1.0
  H  H437  1  0.335600  0.046400  0.973300  1.0
  H  H438  1  0.164400  0.453600  0.473300  1.0
  H  H439  1  0.664400  0.953600  0.026700  1.0
  H  H440  1  0.835600  0.546400  0.526700  1.0
  H  H441  1  0.310700  0.084600  0.948300  1.0
  H  H442  1  0.189300  0.415400  0.448300  1.0
  H  H443  1  0.689300  0.915400  0.051700  1.0
  H  H444  1  0.810700  0.584600  0.551700  1.0
  H  H445  1  0.317300  0.140300  0.923200  1.0
  H  H446  1  0.182700  0.359700  0.423200  1.0
  H  H447  1  0.682700  0.859700  0.076800  1.0
  H  H448  1  0.817300  0.640300  0.576800  1.0
  H  H449  1  0.351100  0.185200  0.910300  1.0
  H  H450  1  0.148900  0.314800  0.410300  1.0
  H  H451  1  0.648900  0.814800  0.089700  1.0
  H  H452  1  0.851100  0.685200  0.589700  1.0
  H  H453  1  0.413900  0.210100  0.909900  1.0
  H  H454  1  0.086100  0.289900  0.409900  1.0
  H  H455  1  0.586100  0.789900  0.090100  1.0
  H  H456  1  0.913900  0.710100  0.590100  1.0
  H  H457  1  0.465500  0.212000  0.891000  1.0
  H  H458  1  0.034500  0.288000  0.391000  1.0
  H  H459  1  0.534500  0.788000  0.109000  1.0
  H  H460  1  0.965500  0.712000  0.609000  1.0
  H  H461  1  0.511300  0.245000  0.880700  1.0
  H  H462  1  0.988700  0.255000  0.380700  1.0
  H  H463  1  0.488700  0.755000  0.119300  1.0
  H  H464  1  0.011300  0.745000  0.619300  1.0
  H  H465  1  0.538400  0.248700  0.951600  1.0
  H  H466  1  0.961600  0.251300  0.451600  1.0
  H  H467  1  0.461600  0.751300  0.048400  1.0
  H  H468  1  0.038400  0.748700  0.548400  1.0
  H  H469  1  0.493300  0.216000  0.963000  1.0
  H  H470  1  0.006700  0.284000  0.463000  1.0
  H  H471  1  0.506700  0.784000  0.037000  1.0
  H  H472  1  0.993300  0.716000  0.537000  1.0
  H  H473  1  0.366600  0.481100  0.953200  1.0
  H  H474  1  0.133400  0.018900  0.453200  1.0
  H  H475  1  0.633400  0.518900  0.046800  1.0
  H  H476  1  0.866600  0.981100  0.546800  1.0
  H  H477  1  0.309800  0.501100  0.952800  1.0
  H  H478  1  0.190200  0.998900  0.452800  1.0
  H  H479  1  0.690200  0.498900  0.047200  1.0
  H  H480  1  0.809800  0.001100  0.547200  1.0
  H  H481  1  0.305500  0.556200  0.942400  1.0
  H  H482  1  0.194500  0.943800  0.442400  1.0
  H  H483  1  0.694500  0.443800  0.057600  1.0
  H  H484  1  0.805500  0.056200  0.557600  1.0
  H  H485  1  0.324900  0.604200  0.907100  1.0
  H  H486  1  0.175100  0.895800  0.407100  1.0
  H  H487  1  0.675100  0.395800  0.092900  1.0
  H  H488  1  0.824900  0.104200  0.592900  1.0
  H  H489  1  0.369700  0.632400  0.891500  1.0
  H  H490  1  0.130300  0.867600  0.391500  1.0
  H  H491  1  0.630300  0.367600  0.108500  1.0
  H  H492  1  0.869700  0.132400  0.608500  1.0
  H  H493  1  0.429900  0.626800  0.879500  1.0
  H  H494  1  0.070100  0.873200  0.379500  1.0
  H  H495  1  0.570100  0.373200  0.120500  1.0
  H  H496  1  0.929900  0.126800  0.620500  1.0
  H  H497  1  0.478000  0.593300  0.872800  1.0
  H  H498  1  0.022000  0.906700  0.372800  1.0
  H  H499  1  0.522000  0.406700  0.127200  1.0
  H  H500  1  0.978000  0.093300  0.627200  1.0
  H  H501  1  0.508300  0.535000  0.884100  1.0
  H  H502  1  0.991700  0.965000  0.384100  1.0
  H  H503  1  0.491700  0.465000  0.115900  1.0
  H  H504  1  0.008300  0.035000  0.615900  1.0
  H  H505  1  0.493700  0.456900  0.937000  1.0
  H  H506  1  0.006300  0.043100  0.437000  1.0
  H  H507  1  0.506300  0.543100  0.063000  1.0
  H  H508  1  0.993700  0.956900  0.563000  1.0
  H  H509  1  0.531500  0.413300  0.934600  1.0
  H  H510  1  0.968500  0.086700  0.434600  1.0
  H  H511  1  0.468500  0.586700  0.065400  1.0
  H  H512  1  0.031500  0.913300  0.565400  1.0
  H  H513  1  0.558900  0.443100  0.866500  1.0
  H  H514  1  0.941100  0.056900  0.366500  1.0
  H  H515  1  0.441100  0.556900  0.133500  1.0
  H  H516  1  0.058900  0.943100  0.633500  1.0
  H  H517  1  0.521400  0.486100  0.868400  1.0
  H  H518  1  0.978600  0.013900  0.368400  1.0
  H  H519  1  0.478600  0.513900  0.131600  1.0
  H  H520  1  0.021400  0.986100  0.631600  1.0
  H  H521  1  0.752100  0.343500  0.903300  1.0
  H  H522  1  0.747900  0.156500  0.403300  1.0
  H  H523  1  0.247900  0.656500  0.096700  1.0
  H  H524  1  0.252100  0.843500  0.596700  1.0
  H  H525  1  0.746100  0.282900  0.908000  1.0
  H  H526  1  0.753900  0.217100  0.408000  1.0
  H  H527  1  0.253900  0.717100  0.092000  1.0
  H  H528  1  0.246100  0.782900  0.592000  1.0
  H  H529  1  0.641700  0.200500  0.911000  1.0
  H  H530  1  0.858300  0.299500  0.411000  1.0
  H  H531  1  0.358300  0.799500  0.089000  1.0
  H  H532  1  0.141700  0.700500  0.589000  1.0
  H  H533  1  0.580900  0.206400  0.911700  1.0
  H  H534  1  0.919100  0.293600  0.411700  1.0
  H  H535  1  0.419100  0.793600  0.088300  1.0
  H  H536  1  0.080900  0.706400  0.588300  1.0
  H  H537  1  0.497900  0.310600  0.904500  1.0
  H  H538  1  0.002100  0.189400  0.404500  1.0
  H  H539  1  0.502100  0.689400  0.095500  1.0
  H  H540  1  0.997900  0.810600  0.595500  1.0
  H  H541  1  0.505700  0.371000  0.901900  1.0
  H  H542  1  0.994300  0.129000  0.401900  1.0
  H  H543  1  0.494300  0.629000  0.098100  1.0
  H  H544  1  0.005700  0.871000  0.598100  1.0
  H  H545  1  0.609000  0.454400  0.895500  1.0
  H  H546  1  0.891000  0.045600  0.395500  1.0
  H  H547  1  0.391000  0.545600  0.104500  1.0
  H  H548  1  0.109000  0.954400  0.604500  1.0
  H  H549  1  0.671000  0.446600  0.896200  1.0
  H  H550  1  0.829000  0.053400  0.396200  1.0
  H  H551  1  0.329000  0.553400  0.103800  1.0
  H  H552  1  0.171000  0.946600  0.603800  1.0
  H  H553  1  0.513900  0.714000  0.762400  1.0
  H  H554  1  0.986100  0.786000  0.262400  1.0
  H  H555  1  0.486100  0.286000  0.237600  1.0
  H  H556  1  0.013900  0.214000  0.737600  1.0
  H  H557  1  0.525300  0.773500  0.760800  1.0
  H  H558  1  0.974700  0.726500  0.260800  1.0
  H  H559  1  0.474700  0.226500  0.239200  1.0
  H  H560  1  0.025300  0.273500  0.739200  1.0
  H  H561  1  0.569800  0.786000  0.732600  1.0
  H  H562  1  0.930200  0.714000  0.232600  1.0
  H  H563  1  0.430200  0.214000  0.267400  1.0
  H  H564  1  0.069800  0.286000  0.767400  1.0
  H  H565  1  0.585600  0.781500  0.686200  1.0
  H  H566  1  0.914400  0.718500  0.186200  1.0
  H  H567  1  0.414400  0.218500  0.313800  1.0
  H  H568  1  0.085600  0.281500  0.813800  1.0
  H  H569  1  0.596200  0.749600  0.654100  1.0
  H  H570  1  0.903800  0.750400  0.154100  1.0
  H  H571  1  0.403800  0.250400  0.345900  1.0
  H  H572  1  0.096200  0.249600  0.845900  1.0
  H  H573  1  0.587200  0.691400  0.635400  1.0
  H  H574  1  0.912800  0.808600  0.135400  1.0
  H  H575  1  0.412800  0.308600  0.364600  1.0
  H  H576  1  0.087200  0.191400  0.864600  1.0
  H  H577  1  0.570900  0.633900  0.639700  1.0
  H  H578  1  0.929100  0.866100  0.139700  1.0
  H  H579  1  0.429100  0.366100  0.360300  1.0
  H  H580  1  0.070900  0.133900  0.860300  1.0
  H  H581  1  0.537400  0.591200  0.668300  1.0
  H  H582  1  0.962600  0.908800  0.168300  1.0
  H  H583  1  0.462600  0.408800  0.331700  1.0
  H  H584  1  0.037400  0.091200  0.831700  1.0
  H  H585  1  0.543000  0.548200  0.691000  1.0
  H  H586  1  0.957000  0.951800  0.191000  1.0
  H  H587  1  0.457000  0.451800  0.309000  1.0
  H  H588  1  0.043000  0.048200  0.809000  1.0
  H  H589  1  0.523600  0.496100  0.705300  1.0
  H  H590  1  0.976400  0.003900  0.205300  1.0
  H  H591  1  0.476400  0.503900  0.294700  1.0
  H  H592  1  0.023600  0.996100  0.794700  1.0
  H  H593  1  0.448400  0.541800  0.741300  1.0
  H  H594  1  0.051600  0.958200  0.241300  1.0
  H  H595  1  0.551600  0.458200  0.258700  1.0
  H  H596  1  0.948400  0.041800  0.758700  1.0
  H  H597  1  0.468100  0.593000  0.727700  1.0
  H  H598  1  0.031900  0.907000  0.227700  1.0
  H  H599  1  0.531900  0.407000  0.272300  1.0
  H  H600  1  0.968100  0.093000  0.772300  1.0
  H  H601  1  0.485000  0.564500  0.947600  1.0
  H  H602  1  0.015000  0.935500  0.447600  1.0
  H  H603  1  0.515000  0.435500  0.052400  1.0
  H  H604  1  0.985000  0.064500  0.552400  1.0
  H  H605  1  0.497100  0.590400  0.988400  1.0
  H  H606  1  0.002900  0.909600  0.488400  1.0
  H  H607  1  0.502900  0.409600  0.011600  1.0
  H  H608  1  0.997100  0.090400  0.511600  1.0
  H  H609  1  0.482900  0.559300  0.022900  1.0
  H  H610  1  0.017100  0.940700  0.522900  1.0
  H  H611  1  0.517100  0.440700  0.977100  1.0
  H  H612  1  0.982900  0.059300  0.477100  1.0
  H  H613  1  0.457600  0.506700  0.043200  1.0
  H  H614  1  0.042400  0.993300  0.543200  1.0
  H  H615  1  0.542400  0.493300  0.956800  1.0
  H  H616  1  0.957600  0.006700  0.456800  1.0
  H  H617  1  0.428500  0.456000  0.038100  1.0
  H  H618  1  0.071500  0.044000  0.538100  1.0
  H  H619  1  0.571500  0.544000  0.961900  1.0
  H  H620  1  0.928500  0.956000  0.461900  1.0
  H  H621  1  0.409100  0.412200  0.008700  1.0
  H  H622  1  0.090900  0.087800  0.508700  1.0
  H  H623  1  0.590900  0.587800  0.991300  1.0
  H  H624  1  0.909100  0.912200  0.491300  1.0
  H  H625  1  0.401800  0.395000  0.968300  1.0
  H  H626  1  0.098200  0.105000  0.468300  1.0
  H  H627  1  0.598200  0.605000  0.031700  1.0
  H  H628  1  0.901800  0.895000  0.531700  1.0
  H  H629  1  0.413300  0.410600  0.918900  1.0
  H  H630  1  0.086700  0.089400  0.418900  1.0
  H  H631  1  0.586700  0.589400  0.081100  1.0
  H  H632  1  0.913300  0.910600  0.581100  1.0
  H  H633  1  0.452100  0.405700  0.887800  1.0
  H  H634  1  0.047900  0.094300  0.387800  1.0
  H  H635  1  0.547900  0.594300  0.112200  1.0
  H  H636  1  0.952100  0.905700  0.612200  1.0
  H  H637  1  0.454100  0.394600  0.845700  1.0
  H  H638  1  0.045900  0.105400  0.345700  1.0
  H  H639  1  0.545900  0.605400  0.154300  1.0
  H  H640  1  0.954100  0.894600  0.654300  1.0
  H  H641  1  0.411900  0.485100  0.832300  1.0
  H  H642  1  0.088100  0.014900  0.332300  1.0
  H  H643  1  0.588100  0.514900  0.167700  1.0
  H  H644  1  0.911900  0.985100  0.667700  1.0
  H  H645  1  0.410100  0.494400  0.874200  1.0
  H  H646  1  0.089900  0.005600  0.374200  1.0
  H  H647  1  0.589900  0.505600  0.125800  1.0
  H  H648  1  0.910100  0.994400  0.625800  1.0
  H  H649  1  0.239400  0.154300  0.736900  1.0
  H  H650  1  0.260600  0.345700  0.236900  1.0
  H  H651  1  0.760600  0.845700  0.263100  1.0
  H  H652  1  0.739400  0.654300  0.763100  1.0
  H  H653  1  0.210000  0.099500  0.736200  1.0
  H  H654  1  0.290000  0.400500  0.236200  1.0
  H  H655  1  0.790000  0.900500  0.263800  1.0
  H  H656  1  0.710000  0.599500  0.763800  1.0
  H  H657  1  0.215900  0.067400  0.772200  1.0
  H  H658  1  0.284100  0.432600  0.272200  1.0
  H  H659  1  0.784100  0.932600  0.227800  1.0
  H  H660  1  0.715900  0.567400  0.727800  1.0
  H  H661  1  0.224300  0.063800  0.816700  1.0
  H  H662  1  0.275700  0.436200  0.316700  1.0
  H  H663  1  0.775700  0.936200  0.183300  1.0
  H  H664  1  0.724300  0.563800  0.683300  1.0
  H  H665  1  0.249000  0.084200  0.851400  1.0
  H  H666  1  0.251000  0.415800  0.351400  1.0
  H  H667  1  0.751000  0.915800  0.148600  1.0
  H  H668  1  0.749000  0.584200  0.648600  1.0
  H  H669  1  0.291000  0.130100  0.868100  1.0
  H  H670  1  0.209000  0.369900  0.368100  1.0
  H  H671  1  0.709000  0.869900  0.131900  1.0
  H  H672  1  0.791000  0.630100  0.631900  1.0
  H  H673  1  0.308100  0.187300  0.866200  1.0
  H  H674  1  0.191900  0.312700  0.366200  1.0
  H  H675  1  0.691900  0.812700  0.133800  1.0
  H  H676  1  0.808100  0.687300  0.633800  1.0
  H  H677  1  0.326700  0.233400  0.832900  1.0
  H  H678  1  0.173300  0.266600  0.332900  1.0
  H  H679  1  0.673300  0.766600  0.167100  1.0
  H  H680  1  0.826700  0.733400  0.667100  1.0
  H  H681  1  0.289900  0.275200  0.767200  1.0
  H  H682  1  0.210100  0.224800  0.267200  1.0
  H  H683  1  0.710100  0.724800  0.232800  1.0
  H  H684  1  0.789900  0.775200  0.732800  1.0
  H  H685  1  0.323100  0.319800  0.752900  1.0
  H  H686  1  0.176900  0.180200  0.252900  1.0
  H  H687  1  0.676900  0.680200  0.247100  1.0
  H  H688  1  0.823100  0.819800  0.747100  1.0
  H  H689  1  0.402700  0.286400  0.790700  1.0
  H  H690  1  0.097300  0.213600  0.290700  1.0
  H  H691  1  0.597300  0.713600  0.209300  1.0
  H  H692  1  0.902700  0.786400  0.709300  1.0
  H  H693  1  0.371600  0.240300  0.803000  1.0
  H  H694  1  0.128400  0.259700  0.303000  1.0
  H  H695  1  0.628400  0.759700  0.197000  1.0
  H  H696  1  0.871600  0.740300  0.697000  1.0
  H  H697  1  0.319700  0.268700  0.550700  1.0
  H  H698  1  0.180300  0.231300  0.050700  1.0
  H  H699  1  0.680300  0.731300  0.449300  1.0
  H  H700  1  0.819700  0.768700  0.949300  1.0
  H  H701  1  0.308700  0.231000  0.516400  1.0
  H  H702  1  0.191300  0.269000  0.016400  1.0
  H  H703  1  0.691300  0.769000  0.483600  1.0
  H  H704  1  0.808700  0.731000  0.983600  1.0
  H  H705  1  0.330400  0.249900  0.480000  1.0
  H  H706  1  0.169600  0.250100  0.980000  1.0
  H  H707  1  0.669600  0.750100  0.520000  1.0
  H  H708  1  0.830400  0.749900  0.020000  1.0
  H  H709  1  0.386500  0.281300  0.456700  1.0
  H  H710  1  0.113500  0.218700  0.956700  1.0
  H  H711  1  0.613500  0.718700  0.543300  1.0
  H  H712  1  0.886500  0.781300  0.043300  1.0
  H  H713  1  0.418600  0.327600  0.456900  1.0
  H  H714  1  0.081400  0.172400  0.956900  1.0
  H  H715  1  0.581400  0.672400  0.543100  1.0
  H  H716  1  0.918600  0.827600  0.043100  1.0
  H  H717  1  0.451800  0.365900  0.484900  1.0
  H  H718  1  0.048200  0.134100  0.984900  1.0
  H  H719  1  0.548200  0.634100  0.515100  1.0
  H  H720  1  0.951800  0.865900  0.015100  1.0
  H  H721  1  0.461600  0.393400  0.522900  1.0
  H  H722  1  0.038400  0.106600  0.022900  1.0
  H  H723  1  0.538400  0.606600  0.477100  1.0
  H  H724  1  0.961600  0.893400  0.977100  1.0
  H  H725  1  0.442800  0.393700  0.571300  1.0
  H  H726  1  0.057200  0.106300  0.071300  1.0
  H  H727  1  0.557200  0.606300  0.428700  1.0
  H  H728  1  0.942800  0.893700  0.928700  1.0
  H  H729  1  0.361400  0.363400  0.616600  1.0
  H  H730  1  0.138600  0.136600  0.116600  1.0
  H  H731  1  0.638600  0.636600  0.383400  1.0
  H  H732  1  0.861400  0.863400  0.883400  1.0
  H  H733  1  0.369300  0.373800  0.658400  1.0
  H  H734  1  0.130700  0.126200  0.158400  1.0
  H  H735  1  0.630700  0.626200  0.341600  1.0
  H  H736  1  0.869300  0.873800  0.841600  1.0
  H  H737  1  0.469000  0.380600  0.647500  1.0
  H  H738  1  0.031000  0.119400  0.147500  1.0
  H  H739  1  0.531000  0.619400  0.352500  1.0
  H  H740  1  0.969000  0.880600  0.852500  1.0
  H  H741  1  0.461400  0.373400  0.606200  1.0
  H  H742  1  0.038600  0.126600  0.106200  1.0
  H  H743  1  0.538600  0.626600  0.393800  1.0
  H  H744  1  0.961400  0.873400  0.893800  1.0
  H  H745  1  0.491600  0.513800  0.773600  1.0
  H  H746  1  0.008400  0.986200  0.273600  1.0
  H  H747  1  0.508400  0.486200  0.226400  1.0
  H  H748  1  0.991600  0.013800  0.726400  1.0
  H  H749  1  0.475500  0.487900  0.814000  1.0
  H  H750  1  0.024500  0.012100  0.314000  1.0
  H  H751  1  0.524500  0.512100  0.186000  1.0
  H  H752  1  0.975500  0.987900  0.686000  1.0
  H  H753  1  0.387200  0.389300  0.833600  1.0
  H  H754  1  0.112800  0.110700  0.333600  1.0
  H  H755  1  0.612800  0.610700  0.166400  1.0
  H  H756  1  0.887200  0.889300  0.666400  1.0
  H  H757  1  0.365200  0.340100  0.811000  1.0
  H  H758  1  0.134800  0.159900  0.311000  1.0
  H  H759  1  0.634800  0.659900  0.189000  1.0
  H  H760  1  0.865200  0.840100  0.689000  1.0
  H  H761  1  0.377800  0.295800  0.718900  1.0
  H  H762  1  0.122200  0.204200  0.218900  1.0
  H  H763  1  0.622200  0.704200  0.281100  1.0
  H  H764  1  0.877800  0.795800  0.781100  1.0
  H  H765  1  0.395600  0.321100  0.680000  1.0
  H  H766  1  0.104400  0.178900  0.180000  1.0
  H  H767  1  0.604400  0.678900  0.320000  1.0
  H  H768  1  0.895600  0.821100  0.820000  1.0
  H  H769  1  0.445100  0.441100  0.655400  1.0
  H  H770  1  0.054900  0.058900  0.155400  1.0
  H  H771  1  0.554900  0.558900  0.344600  1.0
  H  H772  1  0.945100  0.941100  0.844600  1.0
  H  H773  1  0.464500  0.490100  0.679300  1.0
  H  H774  1  0.035500  0.009900  0.179300  1.0
  H  H775  1  0.535500  0.509900  0.320700  1.0
  H  H776  1  0.964500  0.990100  0.820700  1.0
  H  H777  1  0.015200  0.421500  0.778000  1.0
  H  H778  1  0.484800  0.078500  0.278000  1.0
  H  H779  1  0.984800  0.578500  0.222000  1.0
  H  H780  1  0.515200  0.921500  0.722000  1.0
  H  H781  1  0.061900  0.392700  0.794500  1.0
  H  H782  1  0.438100  0.107300  0.294500  1.0
  H  H783  1  0.938100  0.607300  0.205500  1.0
  H  H784  1  0.561900  0.892700  0.705500  1.0
  H  H785  1  0.089600  0.356700  0.766900  1.0
  H  H786  1  0.410400  0.143300  0.266900  1.0
  H  H787  1  0.910400  0.643300  0.233100  1.0
  H  H788  1  0.589600  0.856700  0.733100  1.0
  H  H789  1  0.085500  0.317500  0.729100  1.0
  H  H790  1  0.414500  0.182500  0.229100  1.0
  H  H791  1  0.914500  0.682500  0.270900  1.0
  H  H792  1  0.585500  0.817500  0.770900  1.0
  H  H793  1  0.073000  0.315900  0.688600  1.0
  H  H794  1  0.427000  0.184100  0.188600  1.0
  H  H795  1  0.927000  0.684100  0.311400  1.0
  H  H796  1  0.573000  0.815900  0.811400  1.0
  H  H797  1  0.020700  0.321000  0.660000  1.0
  H  H798  1  0.479300  0.179000  0.160000  1.0
  H  H799  1  0.979300  0.679000  0.340000  1.0
  H  H800  1  0.520700  0.821000  0.840000  1.0
  H  H801  1  0.967900  0.345800  0.650600  1.0
  H  H802  1  0.532100  0.154200  0.150600  1.0
  H  H803  1  0.032100  0.654200  0.349400  1.0
  H  H804  1  0.467900  0.845800  0.849400  1.0
  H  H805  1  0.917800  0.383000  0.671000  1.0
  H  H806  1  0.582200  0.117000  0.171000  1.0
  H  H807  1  0.082200  0.617000  0.329000  1.0
  H  H808  1  0.417800  0.883000  0.829000  1.0
  H  H809  1  0.914900  0.467900  0.718100  1.0
  H  H810  1  0.585100  0.032100  0.218100  1.0
  H  H811  1  0.085100  0.532100  0.281900  1.0
  H  H812  1  0.414900  0.967900  0.781900  1.0
  H  H813  1  0.861800  0.493000  0.720400  1.0
  H  H814  1  0.638200  0.007000  0.220400  1.0
  H  H815  1  0.138200  0.507000  0.279600  1.0
  H  H816  1  0.361800  0.993000  0.779600  1.0
  H  H817  1  0.819400  0.405400  0.701200  1.0
  H  H818  1  0.680600  0.094600  0.201200  1.0
  H  H819  1  0.180600  0.594600  0.298800  1.0
  H  H820  1  0.319400  0.905400  0.798800  1.0
  H  H821  1  0.872300  0.383400  0.692600  1.0
  H  H822  1  0.627700  0.116600  0.192600  1.0
  H  H823  1  0.127700  0.616600  0.307400  1.0
  H  H824  1  0.372300  0.883400  0.807400  1.0
  H  H825  1  0.869600  0.451100  0.930700  1.0
  H  H826  1  0.630400  0.048900  0.430700  1.0
  H  H827  1  0.130400  0.548900  0.069300  1.0
  H  H828  1  0.369600  0.951100  0.569300  1.0
  H  H829  1  0.898600  0.444000  0.971100  1.0
  H  H830  1  0.601400  0.056000  0.471100  1.0
  H  H831  1  0.101400  0.556000  0.028900  1.0
  H  H832  1  0.398600  0.944000  0.528900  1.0
  H  H833  1  0.872100  0.467800  0.003900  1.0
  H  H834  1  0.627900  0.032200  0.503900  1.0
  H  H835  1  0.127900  0.532200  0.996100  1.0
  H  H836  1  0.372100  0.967800  0.496100  1.0
  H  H837  1  0.827800  0.506300  0.023700  1.0
  H  H838  1  0.672200  0.993700  0.523700  1.0
  H  H839  1  0.172200  0.493700  0.976300  1.0
  H  H840  1  0.327800  0.006300  0.476300  1.0
  H  H841  1  0.783800  0.543600  0.016800  1.0
  H  H842  1  0.716200  0.956400  0.516800  1.0
  H  H843  1  0.216200  0.456400  0.983200  1.0
  H  H844  1  0.283800  0.043600  0.483200  1.0
  H  H845  1  0.740100  0.560700  0.987200  1.0
  H  H846  1  0.759900  0.939300  0.487200  1.0
  H  H847  1  0.259900  0.439300  0.012800  1.0
  H  H848  1  0.240100  0.060700  0.512800  1.0
  H  H849  1  0.722300  0.565800  0.946400  1.0
  H  H850  1  0.777700  0.934200  0.446400  1.0
  H  H851  1  0.277700  0.434200  0.053600  1.0
  H  H852  1  0.222300  0.065800  0.553600  1.0
  H  H853  1  0.732400  0.550600  0.898700  1.0
  H  H854  1  0.767600  0.949400  0.398700  1.0
  H  H855  1  0.267600  0.449400  0.101300  1.0
  H  H856  1  0.232400  0.050600  0.601300  1.0
  H  H857  1  0.718400  0.499000  0.873000  1.0
  H  H858  1  0.781600  0.001000  0.373000  1.0
  H  H859  1  0.281600  0.501000  0.127000  1.0
  H  H860  1  0.218400  0.999000  0.627000  1.0
  H  H861  1  0.705100  0.488800  0.831700  1.0
  H  H862  1  0.794900  0.011200  0.331700  1.0
  H  H863  1  0.294900  0.511200  0.168300  1.0
  H  H864  1  0.205100  0.988800  0.668300  1.0
  H  H865  1  0.795000  0.529600  0.811900  1.0
  H  H866  1  0.705000  0.970400  0.311900  1.0
  H  H867  1  0.205000  0.470400  0.188100  1.0
  H  H868  1  0.295000  0.029600  0.688100  1.0
  H  H869  1  0.809400  0.533300  0.852800  1.0
  H  H870  1  0.690600  0.966700  0.352800  1.0
  H  H871  1  0.190600  0.466700  0.147200  1.0
  H  H872  1  0.309400  0.033300  0.647200  1.0
  H  H873  1  0.475400  0.666900  0.671500  1.0
  H  H874  1  0.024600  0.833100  0.171500  1.0
  H  H875  1  0.524600  0.333100  0.328500  1.0
  H  H876  1  0.975400  0.166900  0.828500  1.0
  H  H877  1  0.419800  0.689000  0.660600  1.0
  H  H878  1  0.080200  0.811000  0.160600  1.0
  H  H879  1  0.580200  0.311000  0.339400  1.0
  H  H880  1  0.919800  0.189000  0.839400  1.0
  H  H881  1  0.384000  0.702900  0.693300  1.0
  H  H882  1  0.116000  0.797100  0.193300  1.0
  H  H883  1  0.616000  0.297100  0.306700  1.0
  H  H884  1  0.884000  0.202900  0.806700  1.0
  H  H885  1  0.376600  0.712900  0.737300  1.0
  H  H886  1  0.123400  0.787100  0.237300  1.0
  H  H887  1  0.623400  0.287100  0.262700  1.0
  H  H888  1  0.876600  0.212900  0.762700  1.0
  H  H889  1  0.387400  0.696900  0.777200  1.0
  H  H890  1  0.112600  0.803100  0.277200  1.0
  H  H891  1  0.612600  0.303100  0.222800  1.0
  H  H892  1  0.887400  0.196900  0.722800  1.0
  H  H893  1  0.430300  0.666800  0.806600  1.0
  H  H894  1  0.069700  0.833200  0.306600  1.0
  H  H895  1  0.569700  0.333200  0.193400  1.0
  H  H896  1  0.930300  0.166800  0.693400  1.0
  H  H897  1  0.482100  0.639400  0.810900  1.0
  H  H898  1  0.017900  0.860600  0.310900  1.0
  H  H899  1  0.517900  0.360600  0.189100  1.0
  H  H900  1  0.982100  0.139400  0.689100  1.0
  H  H901  1  0.535600  0.615000  0.787200  1.0
  H  H902  1  0.964400  0.885000  0.287200  1.0
  H  H903  1  0.464400  0.385000  0.212800  1.0
  H  H904  1  0.035600  0.115000  0.712800  1.0
  H  H905  1  0.550900  0.565500  0.770800  1.0
  H  H906  1  0.949100  0.934500  0.270800  1.0
  H  H907  1  0.449100  0.434500  0.229200  1.0
  H  H908  1  0.050900  0.065500  0.729200  1.0
  H  H909  1  0.596900  0.531200  0.765000  1.0
  H  H910  1  0.903100  0.968800  0.265000  1.0
  H  H911  1  0.403100  0.468800  0.235000  1.0
  H  H912  1  0.096900  0.031200  0.735000  1.0
  H  H913  1  0.636700  0.596200  0.717600  1.0
  H  H914  1  0.863300  0.903800  0.217600  1.0
  H  H915  1  0.363300  0.403800  0.282400  1.0
  H  H916  1  0.136700  0.096200  0.782400  1.0
  H  H917  1  0.589100  0.627800  0.719200  1.0
  H  H918  1  0.910900  0.872200  0.219200  1.0
  H  H919  1  0.410900  0.372200  0.280800  1.0
  H  H920  1  0.089100  0.127800  0.780800  1.0
  H  H921  1  0.596900  0.553200  0.518200  1.0
  H  H922  1  0.903100  0.946800  0.018200  1.0
  H  H923  1  0.403100  0.446800  0.481800  1.0
  H  H924  1  0.096900  0.053200  0.981800  1.0
  H  H925  1  0.566500  0.552100  0.479900  1.0
  H  H926  1  0.933500  0.947900  0.979900  1.0
  H  H927  1  0.433500  0.447900  0.520100  1.0
  H  H928  1  0.066500  0.052100  0.020100  1.0
  H  H929  1  0.598400  0.539400  0.446200  1.0
  H  H930  1  0.901600  0.960600  0.946200  1.0
  H  H931  1  0.401600  0.460600  0.553800  1.0
  H  H932  1  0.098400  0.039400  0.053800  1.0
  H  H933  1  0.649700  0.499800  0.427600  1.0
  H  H934  1  0.850300  0.000200  0.927600  1.0
  H  H935  1  0.350300  0.500200  0.572400  1.0
  H  H936  1  0.149700  0.999800  0.072400  1.0
  H  H937  1  0.700300  0.476200  0.433600  1.0
  H  H938  1  0.799700  0.023800  0.933600  1.0
  H  H939  1  0.299700  0.523800  0.566400  1.0
  H  H940  1  0.200300  0.976200  0.066400  1.0
  H  H941  1  0.735400  0.449000  0.466100  1.0
  H  H942  1  0.764600  0.051000  0.966100  1.0
  H  H943  1  0.264600  0.551000  0.533900  1.0
  H  H944  1  0.235400  0.949000  0.033900  1.0
  H  H945  1  0.750500  0.441400  0.508400  1.0
  H  H946  1  0.749500  0.058600  0.008400  1.0
  H  H947  1  0.249500  0.558600  0.491600  1.0
  H  H948  1  0.250500  0.941400  0.991600  1.0
  H  H949  1  0.734500  0.459400  0.556000  1.0
  H  H950  1  0.765500  0.040600  0.056000  1.0
  H  H951  1  0.265500  0.540600  0.444000  1.0
  H  H952  1  0.234500  0.959400  0.944000  1.0
  H  H953  1  0.710900  0.443000  0.590400  1.0
  H  H954  1  0.789100  0.057000  0.090400  1.0
  H  H955  1  0.289100  0.557000  0.409600  1.0
  H  H956  1  0.210900  0.943000  0.909600  1.0
  H  H957  1  0.713400  0.443600  0.633700  1.0
  H  H958  1  0.786600  0.056400  0.133700  1.0
  H  H959  1  0.286600  0.556400  0.366300  1.0
  H  H960  1  0.213400  0.943600  0.866300  1.0
  H  H961  1  0.694500  0.541900  0.633500  1.0
  H  H962  1  0.805500  0.958100  0.133500  1.0
  H  H963  1  0.305500  0.458100  0.366500  1.0
  H  H964  1  0.194500  0.041900  0.866500  1.0
  H  H965  1  0.694700  0.542800  0.591200  1.0
  H  H966  1  0.805300  0.957200  0.091200  1.0
  H  H967  1  0.305300  0.457200  0.408800  1.0
  H  H968  1  0.194700  0.042800  0.908800  1.0
  H  H969  1  0.832000  0.450600  0.765100  1.0
  H  H970  1  0.668000  0.049400  0.265100  1.0
  H  H971  1  0.168000  0.549400  0.234900  1.0
  H  H972  1  0.332000  0.950600  0.734900  1.0
  H  H973  1  0.802600  0.472300  0.802000  1.0
  H  H974  1  0.697400  0.027700  0.302000  1.0
  H  H975  1  0.197400  0.527700  0.198000  1.0
  H  H976  1  0.302600  0.972300  0.698000  1.0
  H  H977  1  0.691900  0.543800  0.813000  1.0
  H  H978  1  0.808100  0.956200  0.313000  1.0
  H  H979  1  0.308100  0.456200  0.187000  1.0
  H  H980  1  0.191900  0.043800  0.687000  1.0
  H  H981  1  0.647900  0.564500  0.785000  1.0
  H  H982  1  0.852100  0.935500  0.285000  1.0
  H  H983  1  0.352100  0.435500  0.215000  1.0
  H  H984  1  0.147900  0.064500  0.715000  1.0
  H  H985  1  0.614200  0.538300  0.691600  1.0
  H  H986  1  0.885800  0.961700  0.191600  1.0
  H  H987  1  0.385800  0.461700  0.308400  1.0
  H  H988  1  0.114200  0.038300  0.808400  1.0
  H  H989  1  0.643700  0.516100  0.655300  1.0
  H  H990  1  0.856300  0.983900  0.155300  1.0
  H  H991  1  0.356300  0.483900  0.344700  1.0
  H  H992  1  0.143700  0.016100  0.844700  1.0
  H  H993  1  0.769100  0.474200  0.640100  1.0
  H  H994  1  0.730900  0.025800  0.140100  1.0
  H  H995  1  0.230900  0.525800  0.359900  1.0
  H  H996  1  0.269100  0.974200  0.859900  1.0
  H  H997  1  0.814400  0.458400  0.668100  1.0
  H  H998  1  0.685600  0.041600  0.168100  1.0
  H  H999  1  0.185600  0.541600  0.331900  1.0
  H  H1000  1  0.314400  0.958400  0.831900  1.0
  H  H1001  1  0.876400  0.140900  0.541900  1.0
  H  H1002  1  0.623600  0.359100  0.041900  1.0
  H  H1003  1  0.123600  0.859100  0.458100  1.0
  H  H1004  1  0.376400  0.640900  0.958100  1.0
  H  H1005  1  0.924800  0.108000  0.535500  1.0
  H  H1006  1  0.575200  0.392000  0.035500  1.0
  H  H1007  1  0.075200  0.892000  0.464500  1.0
  H  H1008  1  0.424800  0.608000  0.964500  1.0
  H  H1009  1  0.975000  0.128600  0.552100  1.0
  H  H1010  1  0.525000  0.371400  0.052100  1.0
  H  H1011  1  0.025000  0.871400  0.447900  1.0
  H  H1012  1  0.475000  0.628600  0.947900  1.0
  H  H1013  1  0.007700  0.177400  0.569700  1.0
  H  H1014  1  0.492300  0.322600  0.069700  1.0
  H  H1015  1  0.992300  0.822600  0.430300  1.0
  H  H1016  1  0.507700  0.677400  0.930300  1.0
  H  H1017  1  0.010000  0.225100  0.590100  1.0
  H  H1018  1  0.490000  0.274900  0.090100  1.0
  H  H1019  1  0.990000  0.774900  0.409900  1.0
  H  H1020  1  0.510000  0.725100  0.909900  1.0
  H  H1021  1  0.977200  0.277000  0.602700  1.0
  H  H1022  1  0.522800  0.223000  0.102700  1.0
  H  H1023  1  0.022800  0.723000  0.397300  1.0
  H  H1024  1  0.477200  0.777000  0.897300  1.0
  H  H1025  1  0.926300  0.308200  0.602000  1.0
  H  H1026  1  0.573700  0.191800  0.102000  1.0
  H  H1027  1  0.073700  0.691800  0.398000  1.0
  H  H1028  1  0.426300  0.808200  0.898000  1.0
  H  H1029  1  0.859600  0.303300  0.596000  1.0
  H  H1030  1  0.640400  0.196700  0.096000  1.0
  H  H1031  1  0.140400  0.696700  0.404000  1.0
  H  H1032  1  0.359600  0.803300  0.904000  1.0
  H  H1033  1  0.791800  0.249100  0.552300  1.0
  H  H1034  1  0.708200  0.250900  0.052300  1.0
  H  H1035  1  0.208200  0.750900  0.447700  1.0
  H  H1036  1  0.291800  0.749100  0.947700  1.0
  H  H1037  1  0.734800  0.259000  0.559100  1.0
  H  H1038  1  0.765200  0.241000  0.059100  1.0
  H  H1039  1  0.265200  0.741000  0.440900  1.0
  H  H1040  1  0.234800  0.759000  0.940900  1.0
  H  H1041  1  0.754900  0.296800  0.626400  1.0
  H  H1042  1  0.745100  0.203200  0.126400  1.0
  H  H1043  1  0.245100  0.703200  0.373600  1.0
  H  H1044  1  0.254900  0.796800  0.873600  1.0
  H  H1045  1  0.811700  0.288100  0.618800  1.0
  H  H1046  1  0.688300  0.211900  0.118800  1.0
  H  H1047  1  0.188300  0.711900  0.381200  1.0
  H  H1048  1  0.311700  0.788100  0.881200  1.0
  H  H1049  1  0.738300  0.540000  0.511700  1.0
  H  H1050  1  0.761700  0.960000  0.011700  1.0
  H  H1051  1  0.261700  0.460000  0.488300  1.0
  H  H1052  1  0.238300  0.040000  0.988300  1.0
  H  H1053  1  0.772600  0.590200  0.503900  1.0
  H  H1054  1  0.727400  0.909800  0.003900  1.0
  H  H1055  1  0.227400  0.409800  0.496100  1.0
  H  H1056  1  0.272600  0.090200  0.996100  1.0
  H  H1057  1  0.751300  0.639900  0.518100  1.0
  H  H1058  1  0.748700  0.860100  0.018100  1.0
  H  H1059  1  0.248700  0.360100  0.481900  1.0
  H  H1060  1  0.251300  0.139900  0.981900  1.0
  H  H1061  1  0.705500  0.674000  0.540500  1.0
  H  H1062  1  0.794500  0.826000  0.040500  1.0
  H  H1063  1  0.294500  0.326000  0.459500  1.0
  H  H1064  1  0.205500  0.174000  0.959500  1.0
  H  H1065  1  0.658000  0.673100  0.565500  1.0
  H  H1066  1  0.842000  0.826900  0.065500  1.0
  H  H1067  1  0.342000  0.326900  0.434500  1.0
  H  H1068  1  0.158000  0.173100  0.934500  1.0
  H  H1069  1  0.608300  0.641600  0.579300  1.0
  H  H1070  1  0.891700  0.858400  0.079300  1.0
  H  H1071  1  0.391700  0.358400  0.420700  1.0
  H  H1072  1  0.108300  0.141600  0.920700  1.0
  H  H1073  1  0.584200  0.590100  0.587000  1.0
  H  H1074  1  0.915800  0.909900  0.087000  1.0
  H  H1075  1  0.415800  0.409900  0.413000  1.0
  H  H1076  1  0.084200  0.090100  0.913000  1.0
  H  H1077  1  0.593300  0.522100  0.584600  1.0
  H  H1078  1  0.906700  0.977900  0.084600  1.0
  H  H1079  1  0.406700  0.477900  0.415400  1.0
  H  H1080  1  0.093300  0.022100  0.915400  1.0
  H  H1081  1  0.612700  0.476900  0.606700  1.0
  H  H1082  1  0.887300  0.023100  0.106700  1.0
  H  H1083  1  0.387300  0.523100  0.393300  1.0
  H  H1084  1  0.112700  0.976900  0.893300  1.0
  H  H1085  1  0.602900  0.422300  0.616600  1.0
  H  H1086  1  0.897100  0.077700  0.116600  1.0
  H  H1087  1  0.397100  0.577700  0.383400  1.0
  H  H1088  1  0.102900  0.922300  0.883400  1.0
  H  H1089  1  0.632200  0.396300  0.547700  1.0
  H  H1090  1  0.867800  0.103700  0.047700  1.0
  H  H1091  1  0.367800  0.603700  0.452300  1.0
  H  H1092  1  0.132200  0.896300  0.952300  1.0
  H  H1093  1  0.637500  0.450600  0.537500  1.0
  H  H1094  1  0.862500  0.049400  0.037500  1.0
  H  H1095  1  0.362500  0.549400  0.462500  1.0
  H  H1096  1  0.137500  0.950600  0.962500  1.0
  H  H1097  1  0.352900  0.395300  0.534700  1.0
  H  H1098  1  0.147100  0.104700  0.034700  1.0
  H  H1099  1  0.647100  0.604700  0.465300  1.0
  H  H1100  1  0.852900  0.895300  0.965300  1.0
  H  H1101  1  0.302800  0.428800  0.526400  1.0
  H  H1102  1  0.197200  0.071200  0.026400  1.0
  H  H1103  1  0.697200  0.571200  0.473600  1.0
  H  H1104  1  0.802800  0.928800  0.973600  1.0
  H  H1105  1  0.254600  0.415700  0.548800  1.0
  H  H1106  1  0.245400  0.084300  0.048800  1.0
  H  H1107  1  0.745400  0.584300  0.451200  1.0
  H  H1108  1  0.754600  0.915700  0.951200  1.0
  H  H1109  1  0.223700  0.379500  0.577100  1.0
  H  H1110  1  0.276300  0.120500  0.077100  1.0
  H  H1111  1  0.776300  0.620500  0.422900  1.0
  H  H1112  1  0.723700  0.879500  0.922900  1.0
  H  H1113  1  0.223600  0.335600  0.603700  1.0
  H  H1114  1  0.276400  0.164400  0.103700  1.0
  H  H1115  1  0.776400  0.664400  0.396300  1.0
  H  H1116  1  0.723600  0.835600  0.896300  1.0
  H  H1117  1  0.259200  0.289400  0.625000  1.0
  H  H1118  1  0.240800  0.210600  0.125000  1.0
  H  H1119  1  0.740800  0.710600  0.375000  1.0
  H  H1120  1  0.759200  0.789400  0.875000  1.0
  H  H1121  1  0.309000  0.258700  0.627500  1.0
  H  H1122  1  0.191000  0.241300  0.127500  1.0
  H  H1123  1  0.691000  0.741300  0.372500  1.0
  H  H1124  1  0.809000  0.758700  0.872500  1.0
  H  H1125  1  0.375800  0.262600  0.618600  1.0
  H  H1126  1  0.124200  0.237400  0.118600  1.0
  H  H1127  1  0.624200  0.737400  0.381400  1.0
  H  H1128  1  0.875800  0.762600  0.881400  1.0
  H  H1129  1  0.425900  0.282000  0.629900  1.0
  H  H1130  1  0.074100  0.218000  0.129900  1.0
  H  H1131  1  0.574100  0.718000  0.370100  1.0
  H  H1132  1  0.925900  0.782000  0.870100  1.0
  H  H1133  1  0.483600  0.279300  0.632400  1.0
  H  H1134  1  0.016400  0.220700  0.132400  1.0
  H  H1135  1  0.516400  0.720700  0.367600  1.0
  H  H1136  1  0.983600  0.779300  0.867600  1.0
  H  H1137  1  0.491000  0.283700  0.558300  1.0
  H  H1138  1  0.009000  0.216300  0.058300  1.0
  H  H1139  1  0.509000  0.716300  0.441700  1.0
  H  H1140  1  0.991000  0.783700  0.941700  1.0
  H  H1141  1  0.433500  0.283100  0.555400  1.0
  H  H1142  1  0.066500  0.216900  0.055400  1.0
  H  H1143  1  0.566500  0.716900  0.444600  1.0
  H  H1144  1  0.933500  0.783100  0.944600  1.0
  H  H1145  1  0.482200  0.005800  0.580200  1.0
  H  H1146  1  0.017800  0.494200  0.080200  1.0
  H  H1147  1  0.517800  0.994200  0.419800  1.0
  H  H1148  1  0.982200  0.505800  0.919800  1.0
  H  H1149  1  0.446600  0.955900  0.578600  1.0
  H  H1150  1  0.053400  0.544100  0.078600  1.0
  H  H1151  1  0.553400  0.044100  0.421400  1.0
  H  H1152  1  0.946600  0.455900  0.921400  1.0
  H  H1153  1  0.464500  0.913600  0.603400  1.0
  H  H1154  1  0.035500  0.586400  0.103400  1.0
  H  H1155  1  0.535500  0.086400  0.396600  1.0
  H  H1156  1  0.964500  0.413600  0.896600  1.0
  H  H1157  1  0.518300  0.881200  0.627400  1.0
  H  H1158  1  0.981700  0.618800  0.127400  1.0
  H  H1159  1  0.481700  0.118800  0.372600  1.0
  H  H1160  1  0.018300  0.381200  0.872600  1.0
  H  H1161  1  0.570000  0.884600  0.644000  1.0
  H  H1162  1  0.930000  0.615400  0.144000  1.0
  H  H1163  1  0.430000  0.115400  0.356000  1.0
  H  H1164  1  0.070000  0.384600  0.856000  1.0
  H  H1165  1  0.614800  0.929400  0.657600  1.0
  H  H1166  1  0.885200  0.570600  0.157600  1.0
  H  H1167  1  0.385200  0.070600  0.342400  1.0
  H  H1168  1  0.114800  0.429400  0.842400  1.0
  H  H1169  1  0.647500  0.975400  0.642900  1.0
  H  H1170  1  0.852500  0.524600  0.142900  1.0
  H  H1171  1  0.352500  0.024600  0.357100  1.0
  H  H1172  1  0.147500  0.475400  0.857100  1.0
  H  H1173  1  0.637500  0.040900  0.627400  1.0
  H  H1174  1  0.862500  0.459100  0.127400  1.0
  H  H1175  1  0.362500  0.959100  0.372600  1.0
  H  H1176  1  0.137500  0.540900  0.872600  1.0
  H  H1177  1  0.591000  0.090800  0.570600  1.0
  H  H1178  1  0.909000  0.409200  0.070600  1.0
  H  H1179  1  0.409000  0.909200  0.429400  1.0
  H  H1180  1  0.091000  0.590800  0.929400  1.0
  H  H1181  1  0.595400  0.148600  0.568900  1.0
  H  H1182  1  0.904600  0.351400  0.068900  1.0
  H  H1183  1  0.404600  0.851400  0.431100  1.0
  H  H1184  1  0.095400  0.648600  0.931100  1.0
  H  H1185  1  0.629700  0.149700  0.639100  1.0
  H  H1186  1  0.870300  0.350300  0.139100  1.0
  H  H1187  1  0.370300  0.850300  0.360900  1.0
  H  H1188  1  0.129700  0.649700  0.860900  1.0
  H  H1189  1  0.620100  0.093500  0.642000  1.0
  H  H1190  1  0.879900  0.406500  0.142000  1.0
  H  H1191  1  0.379900  0.906500  0.358000  1.0
  H  H1192  1  0.120100  0.593500  0.858000  1.0
  H  H1193  1  0.727700  0.344000  0.597900  1.0
  H  H1194  1  0.772300  0.156000  0.097900  1.0
  H  H1195  1  0.272300  0.656000  0.402100  1.0
  H  H1196  1  0.227700  0.844000  0.902100  1.0
  H  H1197  1  0.685500  0.389100  0.594200  1.0
  H  H1198  1  0.814500  0.110900  0.094200  1.0
  H  H1199  1  0.314500  0.610900  0.405800  1.0
  H  H1200  1  0.185500  0.889100  0.905800  1.0
  H  H1201  1  0.552900  0.389300  0.584700  1.0
  H  H1202  1  0.947100  0.110700  0.084700  1.0
  H  H1203  1  0.447100  0.610700  0.415300  1.0
  H  H1204  1  0.052900  0.889300  0.915300  1.0
  H  H1205  1  0.508700  0.345700  0.587500  1.0
  H  H1206  1  0.991300  0.154300  0.087500  1.0
  H  H1207  1  0.491300  0.654300  0.412500  1.0
  H  H1208  1  0.008700  0.845700  0.912500  1.0
  H  H1209  1  0.505200  0.216000  0.604100  1.0
  H  H1210  1  0.994800  0.284000  0.104100  1.0
  H  H1211  1  0.494800  0.784000  0.395900  1.0
  H  H1212  1  0.005200  0.716000  0.895900  1.0
  H  H1213  1  0.547100  0.172400  0.605500  1.0
  H  H1214  1  0.952900  0.327600  0.105500  1.0
  H  H1215  1  0.452900  0.827600  0.394500  1.0
  H  H1216  1  0.047100  0.672400  0.894500  1.0
  H  H1217  1  0.680200  0.168900  0.603900  1.0
  H  H1218  1  0.819800  0.331100  0.103900  1.0
  H  H1219  1  0.319800  0.831100  0.396100  1.0
  H  H1220  1  0.180200  0.668900  0.896100  1.0
  H  H1221  1  0.723900  0.212100  0.600200  1.0
  H  H1222  1  0.776100  0.287900  0.100200  1.0
  H  H1223  1  0.276100  0.787900  0.399800  1.0
  H  H1224  1  0.223900  0.712100  0.899800  1.0
  H  H1225  1  0.757200  0.920600  0.734200  1.0
  H  H1226  1  0.742800  0.579400  0.234200  1.0
  H  H1227  1  0.242800  0.079400  0.265800  1.0
  H  H1228  1  0.257200  0.420600  0.765800  1.0
  H  H1229  1  0.808400  0.894200  0.722300  1.0
  H  H1230  1  0.691600  0.605800  0.222300  1.0
  H  H1231  1  0.191600  0.105800  0.277700  1.0
  H  H1232  1  0.308400  0.394200  0.777700  1.0
  H  H1233  1  0.852700  0.900800  0.750200  1.0
  H  H1234  1  0.647300  0.599200  0.250200  1.0
  H  H1235  1  0.147300  0.099200  0.249800  1.0
  H  H1236  1  0.352700  0.400800  0.749800  1.0
  H  H1237  1  0.878300  0.925100  0.789200  1.0
  H  H1238  1  0.621700  0.574900  0.289200  1.0
  H  H1239  1  0.121700  0.074900  0.210800  1.0
  H  H1240  1  0.378300  0.425100  0.710800  1.0
  H  H1241  1  0.874800  0.951500  0.824400  1.0
  H  H1242  1  0.625200  0.548500  0.324400  1.0
  H  H1243  1  0.125200  0.048500  0.175600  1.0
  H  H1244  1  0.374800  0.451500  0.675600  1.0
  H  H1245  1  0.834600  0.988500  0.851800  1.0
  H  H1246  1  0.665400  0.511500  0.351800  1.0
  H  H1247  1  0.165400  0.011500  0.148200  1.0
  H  H1248  1  0.334600  0.488500  0.648200  1.0
  H  H1249  1  0.781100  0.012600  0.859000  1.0
  H  H1250  1  0.718900  0.487400  0.359000  1.0
  H  H1251  1  0.218900  0.987400  0.141000  1.0
  H  H1252  1  0.281100  0.512600  0.641000  1.0
  H  H1253  1  0.720000  0.022500  0.839200  1.0
  H  H1254  1  0.780000  0.477500  0.339200  1.0
  H  H1255  1  0.280000  0.977500  0.160800  1.0
  H  H1256  1  0.220000  0.522500  0.660800  1.0
  H  H1257  1  0.653300  0.982300  0.789700  1.0
  H  H1258  1  0.846700  0.517700  0.289700  1.0
  H  H1259  1  0.346700  0.017700  0.210300  1.0
  H  H1260  1  0.153300  0.482300  0.710300  1.0
  H  H1261  1  0.608500  0.015000  0.774800  1.0
  H  H1262  1  0.891500  0.485000  0.274800  1.0
  H  H1263  1  0.391500  0.985000  0.225200  1.0
  H  H1264  1  0.108500  0.515000  0.725200  1.0
  H  H1265  1  0.652400  0.097300  0.803800  1.0
  H  H1266  1  0.847600  0.402700  0.303800  1.0
  H  H1267  1  0.347600  0.902700  0.196200  1.0
  H  H1268  1  0.152400  0.597300  0.696200  1.0
  H  H1269  1  0.698400  0.065900  0.814000  1.0
  H  H1270  1  0.801600  0.434100  0.314000  1.0
  H  H1271  1  0.301600  0.934100  0.186000  1.0
  H  H1272  1  0.198400  0.565900  0.686000  1.0
  H  H1273  1  0.603400  0.967200  0.578800  1.0
  H  H1274  1  0.896600  0.532800  0.078800  1.0
  H  H1275  1  0.396600  0.032800  0.421200  1.0
  H  H1276  1  0.103400  0.467200  0.921200  1.0
  H  H1277  1  0.615400  0.937300  0.540000  1.0
  H  H1278  1  0.884600  0.562700  0.040000  1.0
  H  H1279  1  0.384600  0.062700  0.460000  1.0
  H  H1280  1  0.115400  0.437300  0.960000  1.0
  H  H1281  1  0.589700  0.957200  0.504700  1.0
  H  H1282  1  0.910300  0.542800  0.004700  1.0
  H  H1283  1  0.410300  0.042800  0.495300  1.0
  H  H1284  1  0.089700  0.457200  0.995300  1.0
  H  H1285  1  0.551300  0.998700  0.482700  1.0
  H  H1286  1  0.948700  0.501300  0.982700  1.0
  H  H1287  1  0.448700  0.001300  0.517300  1.0
  H  H1288  1  0.051300  0.498700  0.017300  1.0
  H  H1289  1  0.517500  0.046400  0.485400  1.0
  H  H1290  1  0.982500  0.453600  0.985400  1.0
  H  H1291  1  0.482500  0.953600  0.514600  1.0
  H  H1292  1  0.017500  0.546400  0.014600  1.0
  H  H1293  1  0.490400  0.086100  0.512200  1.0
  H  H1294  1  0.009600  0.413900  0.012200  1.0
  H  H1295  1  0.509600  0.913900  0.487800  1.0
  H  H1296  1  0.990400  0.586100  0.987800  1.0
  H  H1297  1  0.483700  0.110900  0.550300  1.0
  H  H1298  1  0.016300  0.389100  0.050300  1.0
  H  H1299  1  0.516300  0.889100  0.449700  1.0
  H  H1300  1  0.983700  0.610900  0.949700  1.0
  H  H1301  1  0.497000  0.109800  0.598800  1.0
  H  H1302  1  0.003000  0.390200  0.098800  1.0
  H  H1303  1  0.503000  0.890200  0.401200  1.0
  H  H1304  1  0.997000  0.609800  0.901200  1.0
  H  H1305  1  0.519400  0.131500  0.632300  1.0
  H  H1306  1  0.980600  0.368500  0.132300  1.0
  H  H1307  1  0.480600  0.868500  0.367700  1.0
  H  H1308  1  0.019400  0.631500  0.867700  1.0
  H  H1309  1  0.529200  0.143600  0.673400  1.0
  H  H1310  1  0.970800  0.356400  0.173400  1.0
  H  H1311  1  0.470800  0.856400  0.326600  1.0
  H  H1312  1  0.029200  0.643600  0.826600  1.0
  H  H1313  1  0.528200  0.044400  0.689200  1.0
  H  H1314  1  0.971800  0.455600  0.189200  1.0
  H  H1315  1  0.471800  0.955600  0.310800  1.0
  H  H1316  1  0.028200  0.544400  0.810800  1.0
  H  H1317  1  0.531000  0.034300  0.647900  1.0
  H  H1318  1  0.969000  0.465700  0.147900  1.0
  H  H1319  1  0.469000  0.965700  0.352100  1.0
  H  H1320  1  0.031000  0.534300  0.852100  1.0
  H  H1321  1  0.235900  0.219300  0.829500  1.0
  H  H1322  1  0.264100  0.280700  0.329500  1.0
  H  H1323  1  0.764100  0.780700  0.170500  1.0
  H  H1324  1  0.735900  0.719300  0.670500  1.0
  H  H1325  1  0.179600  0.241700  0.840300  1.0
  H  H1326  1  0.320400  0.258300  0.340300  1.0
  H  H1327  1  0.820400  0.758300  0.159700  1.0
  H  H1328  1  0.679600  0.741700  0.659700  1.0
  H  H1329  1  0.148200  0.262200  0.807300  1.0
  H  H1330  1  0.351800  0.237800  0.307300  1.0
  H  H1331  1  0.851800  0.737800  0.192700  1.0
  H  H1332  1  0.648200  0.762200  0.692700  1.0
  H  H1333  1  0.140100  0.275200  0.763800  1.0
  H  H1334  1  0.359900  0.224800  0.263800  1.0
  H  H1335  1  0.859900  0.724800  0.236200  1.0
  H  H1336  1  0.640100  0.775200  0.736200  1.0
  H  H1337  1  0.158000  0.270300  0.723800  1.0
  H  H1338  1  0.342000  0.229700  0.223800  1.0
  H  H1339  1  0.842000  0.729700  0.276200  1.0
  H  H1340  1  0.658000  0.770300  0.776200  1.0
  H  H1341  1  0.208300  0.254000  0.694400  1.0
  H  H1342  1  0.291700  0.246000  0.194400  1.0
  H  H1343  1  0.791700  0.746000  0.305600  1.0
  H  H1344  1  0.708300  0.754000  0.805600  1.0
  H  H1345  1  0.261800  0.229900  0.690300  1.0
  H  H1346  1  0.238200  0.270100  0.190300  1.0
  H  H1347  1  0.738200  0.770100  0.309700  1.0
  H  H1348  1  0.761800  0.729900  0.809700  1.0
  H  H1349  1  0.317000  0.212600  0.715400  1.0
  H  H1350  1  0.183000  0.287400  0.215400  1.0
  H  H1351  1  0.683000  0.787400  0.284600  1.0
  H  H1352  1  0.817000  0.712600  0.784600  1.0
  H  H1353  1  0.331100  0.151300  0.779000  1.0
  H  H1354  1  0.168900  0.348700  0.279000  1.0
  H  H1355  1  0.668900  0.848700  0.221000  1.0
  H  H1356  1  0.831100  0.651300  0.721000  1.0
  H  H1357  1  0.384700  0.133600  0.786200  1.0
  H  H1358  1  0.115300  0.366400  0.286200  1.0
  H  H1359  1  0.615300  0.866400  0.213800  1.0
  H  H1360  1  0.884700  0.633600  0.713800  1.0
  H  H1361  1  0.420400  0.200800  0.738700  1.0
  H  H1362  1  0.079600  0.299200  0.238700  1.0
  H  H1363  1  0.579600  0.799200  0.261300  1.0
  H  H1364  1  0.920400  0.700800  0.761300  1.0
  H  H1365  1  0.367200  0.219100  0.730400  1.0
  H  H1366  1  0.132800  0.280900  0.230400  1.0
  H  H1367  1  0.632800  0.780900  0.269600  1.0
  H  H1368  1  0.867200  0.719100  0.769600  1.0
  H  H1369  1  0.383400  0.196400  0.976600  1.0
  H  H1370  1  0.116600  0.303600  0.476600  1.0
  H  H1371  1  0.616600  0.803600  0.023400  1.0
  H  H1372  1  0.883400  0.696400  0.523400  1.0
  H  H1373  1  0.356000  0.219400  0.011900  1.0
  H  H1374  1  0.144000  0.280600  0.511900  1.0
  H  H1375  1  0.644000  0.780600  0.988100  1.0
  H  H1376  1  0.856000  0.719400  0.488100  1.0
  H  H1377  1  0.388800  0.220800  0.046800  1.0
  H  H1378  1  0.111200  0.279200  0.546800  1.0
  H  H1379  1  0.611200  0.779200  0.953200  1.0
  H  H1380  1  0.888800  0.720800  0.453200  1.0
  H  H1381  1  0.449100  0.205200  0.071100  1.0
  H  H1382  1  0.050900  0.294800  0.571100  1.0
  H  H1383  1  0.550900  0.794800  0.928900  1.0
  H  H1384  1  0.949100  0.705200  0.428900  1.0
  H  H1385  1  0.500500  0.181600  0.068100  1.0
  H  H1386  1  0.999500  0.318400  0.568100  1.0
  H  H1387  1  0.499500  0.818400  0.931900  1.0
  H  H1388  1  0.000500  0.681600  0.431900  1.0
  H  H1389  1  0.542900  0.155600  0.040100  1.0
  H  H1390  1  0.957100  0.344400  0.540100  1.0
  H  H1391  1  0.457100  0.844400  0.959900  1.0
  H  H1392  1  0.042900  0.655600  0.459900  1.0
  H  H1393  1  0.557600  0.131300  0.002300  1.0
  H  H1394  1  0.942400  0.368700  0.502300  1.0
  H  H1395  1  0.442400  0.868700  0.997700  1.0
  H  H1396  1  0.057600  0.631300  0.497700  1.0
  H  H1397  1  0.539200  0.126100  0.953300  1.0
  H  H1398  1  0.960800  0.373900  0.453300  1.0
  H  H1399  1  0.460800  0.873900  0.046700  1.0
  H  H1400  1  0.039200  0.626100  0.546700  1.0
  H  H1401  1  0.547200  0.150300  0.916900  1.0
  H  H1402  1  0.952800  0.349700  0.416900  1.0
  H  H1403  1  0.452800  0.849700  0.083100  1.0
  H  H1404  1  0.047200  0.650300  0.583100  1.0
  H  H1405  1  0.548600  0.154700  0.874200  1.0
  H  H1406  1  0.951400  0.345300  0.374200  1.0
  H  H1407  1  0.451400  0.845300  0.125800  1.0
  H  H1408  1  0.048600  0.654700  0.625800  1.0
  H  H1409  1  0.458700  0.109800  0.869400  1.0
  H  H1410  1  0.041300  0.390200  0.369400  1.0
  H  H1411  1  0.541300  0.890200  0.130600  1.0
  H  H1412  1  0.958700  0.609800  0.630600  1.0
  H  H1413  1  0.454500  0.111000  0.911300  1.0
  H  H1414  1  0.045500  0.389000  0.411300  1.0
  H  H1415  1  0.545500  0.889000  0.088700  1.0
  H  H1416  1  0.954500  0.611000  0.588700  1.0
  H  H1417  1  0.623900  0.063500  0.740000  1.0
  H  H1418  1  0.876100  0.436500  0.240000  1.0
  H  H1419  1  0.376100  0.936500  0.260000  1.0
  H  H1420  1  0.123900  0.563500  0.760000  1.0
  H  H1421  1  0.588000  0.070800  0.702600  1.0
  H  H1422  1  0.912000  0.429200  0.202600  1.0
  H  H1423  1  0.412000  0.929200  0.297400  1.0
  H  H1424  1  0.088000  0.570800  0.797400  1.0
  H  H1425  1  0.463400  0.118200  0.690500  1.0
  H  H1426  1  0.036600  0.381800  0.190500  1.0
  H  H1427  1  0.536600  0.881800  0.309500  1.0
  H  H1428  1  0.963400  0.618200  0.809500  1.0
  H  H1429  1  0.421700  0.144200  0.718500  1.0
  H  H1430  1  0.078300  0.355800  0.218500  1.0
  H  H1431  1  0.578300  0.855800  0.281500  1.0
  H  H1432  1  0.921700  0.644200  0.781500  1.0
  H  H1433  1  0.418700  0.179900  0.812100  1.0
  H  H1434  1  0.081300  0.320100  0.312100  1.0
  H  H1435  1  0.581300  0.820100  0.187900  1.0
  H  H1436  1  0.918700  0.679900  0.687900  1.0
  H  H1437  1  0.452400  0.167200  0.848900  1.0
  H  H1438  1  0.047600  0.332800  0.348900  1.0
  H  H1439  1  0.547600  0.832800  0.151100  1.0
  H  H1440  1  0.952400  0.667200  0.651100  1.0
  H  H1441  1  0.563300  0.092400  0.864100  1.0
  H  H1442  1  0.936700  0.407600  0.364100  1.0
  H  H1443  1  0.436700  0.907600  0.135900  1.0
  H  H1444  1  0.063300  0.592400  0.635900  1.0
  H  H1445  1  0.602700  0.065400  0.836200  1.0
  H  H1446  1  0.897300  0.434600  0.336200  1.0
  H  H1447  1  0.397300  0.934600  0.163800  1.0
  H  H1448  1  0.102700  0.565400  0.663800  1.0
  H  H1449  1  0.311200  0.426300  0.593200  1.0
  H  H1450  1  0.188800  0.073700  0.093200  1.0
  H  H1451  1  0.688800  0.573700  0.406800  1.0
  H  H1452  1  0.811200  0.926300  0.906800  1.0
  H  H1453  1  0.345800  0.426000  0.607800  1.0
  H  H1454  1  0.154200  0.074000  0.107800  1.0
  H  H1455  1  0.654200  0.574000  0.392200  1.0
  H  H1456  1  0.845800  0.926000  0.892200  1.0
  H  H1457  1  0.318200  0.453000  0.614400  1.0
  H  H1458  1  0.181800  0.047000  0.114400  1.0
  H  H1459  1  0.681800  0.547000  0.385600  1.0
  H  H1460  1  0.818200  0.953000  0.885600  1.0
  H  H1461  1  0.823500  0.223000  0.734800  0.5
  H  H1462  1  0.676500  0.277000  0.234800  0.5
  H  H1463  1  0.176500  0.777000  0.265200  0.5
  H  H1464  1  0.323500  0.723000  0.765200  0.5
  H  H1465  1  0.800700  0.189100  0.735900  0.5
  H  H1466  1  0.699300  0.310900  0.235900  0.5
  H  H1467  1  0.199300  0.810900  0.264100  0.5
  H  H1468  1  0.300700  0.689100  0.764100  0.5
  H  H1469  1  0.799700  0.189600  0.765900  0.5
  H  H1470  1  0.700300  0.310400  0.265900  0.5
  H  H1471  1  0.200300  0.810400  0.234100  0.5
  H  H1472  1  0.299700  0.689600  0.734100  0.5
  H  H1473  1  0.815400  0.228000  0.764900  0.5
  H  H1474  1  0.684600  0.272000  0.264900  0.5
  H  H1475  1  0.184600  0.772000  0.235100  0.5
  H  H1476  1  0.315400  0.728000  0.735100  0.5
  H  H1477  1  0.654900  0.323000  0.901300  0.5
  H  H1478  1  0.845100  0.177000  0.401300  0.5
  H  H1479  1  0.345100  0.677000  0.098700  0.5
  H  H1480  1  0.154900  0.823000  0.598700  0.5
  H  H1481  1  0.622200  0.297100  0.903100  0.5
  H  H1482  1  0.877800  0.202900  0.403100  0.5
  H  H1483  1  0.377800  0.702900  0.096900  0.5
  H  H1484  1  0.122200  0.797100  0.596900  0.5
  H  H1485  1  0.596300  0.330200  0.901600  0.5
  H  H1486  1  0.903700  0.169800  0.401600  0.5
  H  H1487  1  0.403700  0.669800  0.098400  0.5
  H  H1488  1  0.096300  0.830200  0.598400  0.5
  H  H1489  1  0.628700  0.355700  0.900400  0.5
  H  H1490  1  0.871300  0.144300  0.400400  0.5
  H  H1491  1  0.371300  0.644300  0.099600  0.5
  H  H1492  1  0.128700  0.855700  0.599600  0.5
  H  H1493  1  0.440500  0.430400  0.757600  0.5
  H  H1494  1  0.059500  0.069600  0.257600  0.5
  H  H1495  1  0.559500  0.569600  0.242400  0.5
  H  H1496  1  0.940500  0.930400  0.742400  0.5
  H  H1497  1  0.423400  0.393600  0.765400  0.5
  H  H1498  1  0.076600  0.106400  0.265400  0.5
  H  H1499  1  0.576600  0.606400  0.234600  0.5
  H  H1500  1  0.923400  0.893600  0.734600  0.5
  H  H1501  1  0.419800  0.384300  0.734900  0.5
  H  H1502  1  0.080200  0.115700  0.234900  0.5
  H  H1503  1  0.580200  0.615700  0.265100  0.5
  H  H1504  1  0.919800  0.884300  0.765100  0.5
  H  H1505  1  0.443300  0.416200  0.727700  0.5
  H  H1506  1  0.056700  0.083800  0.227700  0.5
  H  H1507  1  0.556700  0.583800  0.272300  0.5
  H  H1508  1  0.943300  0.916200  0.772300  0.5
  H  H1509  1  0.747300  0.490000  0.740700  0.5
  H  H1510  1  0.752700  0.010000  0.240700  0.5
  H  H1511  1  0.252700  0.510000  0.259300  0.5
  H  H1512  1  0.247300  0.990000  0.759300  0.5
  H  H1513  1  0.709300  0.506000  0.746200  0.5
  H  H1514  1  0.790700  0.994000  0.246200  0.5
  H  H1515  1  0.290700  0.494000  0.253800  0.5
  H  H1516  1  0.209300  0.006000  0.753800  0.5
  H  H1517  1  0.702900  0.504100  0.714700  0.5
  H  H1518  1  0.797100  0.995900  0.214700  0.5
  H  H1519  1  0.297100  0.495900  0.285300  0.5
  H  H1520  1  0.202900  0.004100  0.785300  0.5
  H  H1521  1  0.737600  0.485900  0.711100  0.5
  H  H1522  1  0.762400  0.014100  0.211100  0.5
  H  H1523  1  0.262400  0.514100  0.288900  0.5
  H  H1524  1  0.237600  0.985900  0.788900  0.5
  H  H1525  1  0.637200  0.300700  0.599300  0.5
  H  H1526  1  0.862800  0.199300  0.099300  0.5
  H  H1527  1  0.362800  0.699300  0.400700  0.5
  H  H1528  1  0.137200  0.800700  0.900700  0.5
  H  H1529  1  0.596300  0.301600  0.598200  0.5
  H  H1530  1  0.903700  0.198400  0.098200  0.5
  H  H1531  1  0.403700  0.698400  0.401800  0.5
  H  H1532  1  0.096300  0.801600  0.901800  0.5
  H  H1533  1  0.595900  0.259500  0.599500  0.5
  H  H1534  1  0.904100  0.240500  0.099500  0.5
  H  H1535  1  0.404100  0.740500  0.400500  0.5
  H  H1536  1  0.095900  0.759500  0.900500  0.5
  H  H1537  1  0.636000  0.259200  0.601800  0.5
  H  H1538  1  0.864000  0.240800  0.101800  0.5
  H  H1539  1  0.364000  0.740800  0.398200  0.5
  H  H1540  1  0.136000  0.759200  0.898200  0.5
  H  H1541  1  0.541300  0.108000  0.762500  0.5
  H  H1542  1  0.958700  0.392000  0.262500  0.5
  H  H1543  1  0.458700  0.892000  0.237500  0.5
  H  H1544  1  0.041300  0.608000  0.737500  0.5
  H  H1545  1  0.504000  0.124200  0.757800  0.5
  H  H1546  1  0.996000  0.375800  0.257800  0.5
  H  H1547  1  0.496000  0.875800  0.242200  0.5
  H  H1548  1  0.004000  0.624200  0.742200  0.5
  H  H1549  1  0.497900  0.124800  0.790600  0.5
  H  H1550  1  0.002100  0.375200  0.290600  0.5
  H  H1551  1  0.502100  0.875200  0.209400  0.5
  H  H1552  1  0.997900  0.624800  0.709400  0.5
  H  H1553  1  0.536900  0.113500  0.793900  0.5
  H  H1554  1  0.963100  0.386500  0.293900  0.5
  H  H1555  1  0.463100  0.886500  0.206100  0.5
  H  H1556  1  0.036900  0.613500  0.706100  0.5
  H  H1557  1  0.670000  0.147500  0.961500  0.5
  H  H1558  1  0.830000  0.352500  0.461500  0.5
  H  H1559  1  0.330000  0.852500  0.038500  0.5
  H  H1560  1  0.170000  0.647500  0.538500  0.5
  H  H1561  1  0.659800  0.185800  0.960500  0.5
  H  H1562  1  0.840200  0.314200  0.460500  0.5
  H  H1563  1  0.340200  0.814200  0.039500  0.5
  H  H1564  1  0.159800  0.685800  0.539500  0.5
  H  H1565  1  0.651000  0.164000  0.984300  0.5
  H  H1566  1  0.849000  0.336000  0.484300  0.5
  H  H1567  1  0.349000  0.836000  0.015700  0.5
  H  H1568  1  0.151000  0.664000  0.515700  0.5
  H  H1569  1  0.517400  0.681800  0.850300  0.5
  H  H1570  1  0.982600  0.818200  0.350300  0.5
  H  H1571  1  0.482600  0.318200  0.149700  0.5
  H  H1572  1  0.017400  0.181800  0.649700  0.5
  H  H1573  1  0.511800  0.646900  0.863800  0.5
  H  H1574  1  0.988200  0.853100  0.363800  0.5
  H  H1575  1  0.488200  0.353100  0.136200  0.5
  H  H1576  1  0.011800  0.146900  0.636200  0.5
  H  H1577  1  0.512600  0.680400  0.879600  0.5
  H  H1578  1  0.987400  0.819600  0.379600  0.5
  H  H1579  1  0.487400  0.319600  0.120400  0.5
  H  H1580  1  0.012600  0.180400  0.620400  0.5
  H  H1581  1  0.873300  0.597400  0.964300  0.5
  H  H1582  1  0.626700  0.902600  0.464300  0.5
  H  H1583  1  0.126700  0.402600  0.035700  0.5
  H  H1584  1  0.373300  0.097400  0.535700  0.5
  H  H1585  1  0.867700  0.564800  0.980800  0.5
  H  H1586  1  0.632300  0.935200  0.480800  0.5
  H  H1587  1  0.132300  0.435200  0.019200  0.5
  H  H1588  1  0.367700  0.064800  0.519200  0.5
  H  H1589  1  0.899300  0.588400  0.985600  0.5
  H  H1590  1  0.600700  0.911600  0.485600  0.5
  H  H1591  1  0.100700  0.411600  0.014400  0.5
  H  H1592  1  0.399300  0.088400  0.514400  0.5
  C  C1593  1  0.016500  0.448500  0.685500  1.0
  C  C1594  1  0.483500  0.051500  0.185500  1.0
  C  C1595  1  0.983500  0.551500  0.314500  1.0
  C  C1596  1  0.516500  0.948500  0.814500  1.0
  C  C1597  1  0.033700  0.476400  0.675400  1.0
  C  C1598  1  0.466300  0.023600  0.175400  1.0
  C  C1599  1  0.966300  0.523600  0.324600  1.0
  C  C1600  1  0.533700  0.976400  0.824600  1.0
  C  C1601  1  0.029900  0.506500  0.688400  1.0
  C  C1602  1  0.470100  0.993500  0.188400  1.0
  C  C1603  1  0.970100  0.493500  0.311600  1.0
  C  C1604  1  0.529900  0.006500  0.811600  1.0
  C  C1605  1  0.012400  0.512300  0.709300  1.0
  C  C1606  1  0.487600  0.987700  0.209300  1.0
  C  C1607  1  0.987600  0.487700  0.290700  1.0
  C  C1608  1  0.512400  0.012300  0.790700  1.0
  C  C1609  1  0.007000  0.540000  0.722900  1.0
  C  C1610  1  0.493000  0.960000  0.222900  1.0
  C  C1611  1  0.993000  0.460000  0.277100  1.0
  C  C1612  1  0.507000  0.040000  0.777100  1.0
  C  C1613  1  0.988700  0.544000  0.742500  1.0
  C  C1614  1  0.511300  0.956000  0.242500  1.0
  C  C1615  1  0.011300  0.456000  0.257500  1.0
  C  C1616  1  0.488700  0.044000  0.757500  1.0
  C  C1617  1  0.972100  0.514100  0.751600  1.0
  C  C1618  1  0.527900  0.985900  0.251600  1.0
  C  C1619  1  0.027900  0.485900  0.248400  1.0
  C  C1620  1  0.472100  0.014100  0.748400  1.0
  C  C1621  1  0.953200  0.512700  0.772700  1.0
  C  C1622  1  0.546800  0.987300  0.272700  1.0
  C  C1623  1  0.046800  0.487300  0.227300  1.0
  C  C1624  1  0.453200  0.012700  0.727300  1.0
  C  C1625  1  0.935900  0.483500  0.781000  1.0
  C  C1626  1  0.564100  0.016500  0.281000  1.0
  C  C1627  1  0.064100  0.516500  0.219000  1.0
  C  C1628  1  0.435900  0.983500  0.719000  1.0
  C  C1629  1  0.942700  0.455100  0.766100  1.0
  C  C1630  1  0.557300  0.044900  0.266100  1.0
  C  C1631  1  0.057300  0.544900  0.233900  1.0
  C  C1632  1  0.442700  0.955100  0.733900  1.0
  C  C1633  1  0.977400  0.484500  0.739500  1.0
  C  C1634  1  0.522600  0.015500  0.239500  1.0
  C  C1635  1  0.022600  0.515500  0.260500  1.0
  C  C1636  1  0.477400  0.984500  0.760500  1.0
  C  C1637  1  0.997400  0.480900  0.717700  1.0
  C  C1638  1  0.502600  0.019100  0.217700  1.0
  C  C1639  1  0.002600  0.519100  0.282300  1.0
  C  C1640  1  0.497400  0.980900  0.782300  1.0
  C  C1641  1  0.925800  0.422400  0.770500  1.0
  C  C1642  1  0.574200  0.077600  0.270500  1.0
  C  C1643  1  0.074200  0.577600  0.229500  1.0
  C  C1644  1  0.425800  0.922400  0.729500  1.0
  C  C1645  1  0.914300  0.369500  0.752900  1.0
  C  C1646  1  0.585700  0.130500  0.252900  1.0
  C  C1647  1  0.085700  0.630500  0.247100  1.0
  C  C1648  1  0.414300  0.869500  0.747100  1.0
  C  C1649  1  0.927900  0.341200  0.744200  1.0
  C  C1650  1  0.572100  0.158800  0.244200  1.0
  C  C1651  1  0.072100  0.658800  0.255800  1.0
  C  C1652  1  0.427900  0.841200  0.755800  1.0
  C  C1653  1  0.908800  0.312000  0.742800  1.0
  C  C1654  1  0.591200  0.188000  0.242800  1.0
  C  C1655  1  0.091200  0.688000  0.257200  1.0
  C  C1656  1  0.408800  0.812000  0.757200  1.0
  C  C1657  1  0.874900  0.312400  0.749400  1.0
  C  C1658  1  0.625100  0.187600  0.249400  1.0
  C  C1659  1  0.125100  0.687600  0.250600  1.0
  C  C1660  1  0.374900  0.812400  0.750600  1.0
  C  C1661  1  0.861500  0.341500  0.757900  1.0
  C  C1662  1  0.638500  0.158500  0.257900  1.0
  C  C1663  1  0.138500  0.658500  0.242100  1.0
  C  C1664  1  0.361500  0.841500  0.742100  1.0
  C  C1665  1  0.881000  0.370200  0.760500  1.0
  C  C1666  1  0.619000  0.129800  0.260500  1.0
  C  C1667  1  0.119000  0.629800  0.239500  1.0
  C  C1668  1  0.381000  0.870200  0.739500  1.0
  C  C1669  1  0.895500  0.263300  0.518600  1.0
  C  C1670  1  0.604500  0.236700  0.018600  1.0
  C  C1671  1  0.104500  0.736700  0.481400  1.0
  C  C1672  1  0.395500  0.763300  0.981400  1.0
  C  C1673  1  0.905000  0.270500  0.492600  1.0
  C  C1674  1  0.595000  0.229500  0.992600  1.0
  C  C1675  1  0.095000  0.729500  0.507400  1.0
  C  C1676  1  0.405000  0.770500  0.007400  1.0
  C  C1677  1  0.889600  0.250700  0.475600  1.0
  C  C1678  1  0.610400  0.249300  0.975600  1.0
  C  C1679  1  0.110400  0.749300  0.524400  1.0
  C  C1680  1  0.389600  0.750700  0.024400  1.0
  C  C1681  1  0.866400  0.225400  0.479800  1.0
  C  C1682  1  0.633600  0.274600  0.979800  1.0
  C  C1683  1  0.133600  0.774600  0.520200  1.0
  C  C1684  1  0.366400  0.725400  0.020200  1.0
  C  C1685  1  0.850800  0.203900  0.463500  1.0
  C  C1686  1  0.649200  0.296100  0.963500  1.0
  C  C1687  1  0.149200  0.796100  0.536500  1.0
  C  C1688  1  0.350800  0.703900  0.036500  1.0
  C  C1689  1  0.827400  0.179600  0.469600  1.0
  C  C1690  1  0.672600  0.320400  0.969600  1.0
  C  C1691  1  0.172600  0.820400  0.530400  1.0
  C  C1692  1  0.327400  0.679600  0.030400  1.0
  C  C1693  1  0.821100  0.175900  0.494300  1.0
  C  C1694  1  0.678900  0.324100  0.994300  1.0
  C  C1695  1  0.178900  0.824100  0.505700  1.0
  C  C1696  1  0.321100  0.675900  0.005700  1.0
  C  C1697  1  0.799400  0.150300  0.502400  1.0
  C  C1698  1  0.700600  0.349700  0.002400  1.0
  C  C1699  1  0.200600  0.849700  0.497600  1.0
  C  C1700  1  0.299400  0.650300  0.997600  1.0
  C  C1701  1  0.793500  0.148100  0.527800  1.0
  C  C1702  1  0.706500  0.351900  0.027800  1.0
  C  C1703  1  0.206500  0.851900  0.472200  1.0
  C  C1704  1  0.293500  0.648100  0.972200  1.0
  C  C1705  1  0.808100  0.169100  0.544500  1.0
  C  C1706  1  0.691900  0.330900  0.044500  1.0
  C  C1707  1  0.191900  0.830900  0.455500  1.0
  C  C1708  1  0.308100  0.669100  0.955500  1.0
  C  C1709  1  0.836000  0.197500  0.511700  1.0
  C  C1710  1  0.664000  0.302500  0.011700  1.0
  C  C1711  1  0.164000  0.802500  0.488300  1.0
  C  C1712  1  0.336000  0.697500  0.988300  1.0
  C  C1713  1  0.859600  0.222200  0.504900  1.0
  C  C1714  1  0.640400  0.277800  0.004900  1.0
  C  C1715  1  0.140400  0.777800  0.495100  1.0
  C  C1716  1  0.359600  0.722200  0.995100  1.0
  C  C1717  1  0.806600  0.170900  0.570700  1.0
  C  C1718  1  0.693400  0.329100  0.070700  1.0
  C  C1719  1  0.193400  0.829100  0.429300  1.0
  C  C1720  1  0.306600  0.670900  0.929300  1.0
  C  C1721  1  0.823100  0.191300  0.609200  1.0
  C  C1722  1  0.676900  0.308700  0.109200  1.0
  C  C1723  1  0.176900  0.808700  0.390800  1.0
  C  C1724  1  0.323100  0.691300  0.890800  1.0
  C  C1725  1  0.792500  0.192400  0.620800  1.0
  C  C1726  1  0.707500  0.307600  0.120800  1.0
  C  C1727  1  0.207500  0.807600  0.379200  1.0
  C  C1728  1  0.292500  0.692400  0.879200  1.0
  C  C1729  1  0.790100  0.195700  0.646000  1.0
  C  C1730  1  0.709900  0.304300  0.146000  1.0
  C  C1731  1  0.209900  0.804300  0.354000  1.0
  C  C1732  1  0.290100  0.695700  0.854000  1.0
  C  C1733  1  0.819600  0.198000  0.660700  1.0
  C  C1734  1  0.680400  0.302000  0.160700  1.0
  C  C1735  1  0.180400  0.802000  0.339300  1.0
  C  C1736  1  0.319600  0.698000  0.839300  1.0
  C  C1737  1  0.850200  0.199000  0.648300  1.0
  C  C1738  1  0.649800  0.301000  0.148300  1.0
  C  C1739  1  0.149800  0.801000  0.351700  1.0
  C  C1740  1  0.350200  0.699000  0.851700  1.0
  C  C1741  1  0.851700  0.196600  0.623700  1.0
  C  C1742  1  0.648300  0.303400  0.123700  1.0
  C  C1743  1  0.148300  0.803400  0.376300  1.0
  C  C1744  1  0.351700  0.696600  0.876300  1.0
  C  C1745  1  0.725100  0.909800  0.825700  1.0
  C  C1746  1  0.774900  0.590200  0.325700  1.0
  C  C1747  1  0.274900  0.090200  0.174300  1.0
  C  C1748  1  0.225100  0.409800  0.674300  1.0
  C  C1749  1  0.716900  0.876200  0.836000  1.0
  C  C1750  1  0.783100  0.623800  0.336000  1.0
  C  C1751  1  0.283100  0.123800  0.164000  1.0
  C  C1752  1  0.216900  0.376200  0.664000  1.0
  C  C1753  1  0.698400  0.856800  0.820000  1.0
  C  C1754  1  0.801600  0.643200  0.320000  1.0
  C  C1755  1  0.301600  0.143200  0.180000  1.0
  C  C1756  1  0.198400  0.356800  0.680000  1.0
  C  C1757  1  0.687900  0.864500  0.796500  1.0
  C  C1758  1  0.812100  0.635500  0.296500  1.0
  C  C1759  1  0.312100  0.135500  0.203500  1.0
  C  C1760  1  0.187900  0.364500  0.703500  1.0
  C  C1761  1  0.669200  0.844500  0.782000  1.0
  C  C1762  1  0.830800  0.655500  0.282000  1.0
  C  C1763  1  0.330800  0.155500  0.218000  1.0
  C  C1764  1  0.169200  0.344500  0.718000  1.0
  C  C1765  1  0.660100  0.854800  0.759400  1.0
  C  C1766  1  0.839900  0.645200  0.259400  1.0
  C  C1767  1  0.339900  0.145200  0.240600  1.0
  C  C1768  1  0.160100  0.354800  0.740600  1.0
  C  C1769  1  0.668000  0.889100  0.750400  1.0
  C  C1770  1  0.832000  0.610900  0.250400  1.0
  C  C1771  1  0.332000  0.110900  0.249600  1.0
  C  C1772  1  0.168000  0.389100  0.749600  1.0
  C  C1773  1  0.660400  0.902300  0.728200  1.0
  C  C1774  1  0.839600  0.597700  0.228200  1.0
  C  C1775  1  0.339600  0.097700  0.271800  1.0
  C  C1776  1  0.160400  0.402300  0.771800  1.0
  C  C1777  1  0.670500  0.933900  0.720900  1.0
  C  C1778  1  0.829500  0.566100  0.220900  1.0
  C  C1779  1  0.329500  0.066100  0.279100  1.0
  C  C1780  1  0.170500  0.433900  0.779100  1.0
  C  C1781  1  0.689300  0.950900  0.739700  1.0
  C  C1782  1  0.810700  0.549100  0.239700  1.0
  C  C1783  1  0.310700  0.049100  0.260300  1.0
  C  C1784  1  0.189300  0.450900  0.760300  1.0
  C  C1785  1  0.687700  0.906500  0.766900  1.0
  C  C1786  1  0.812300  0.593500  0.266900  1.0
  C  C1787  1  0.312300  0.093500  0.233100  1.0
  C  C1788  1  0.187700  0.406500  0.733100  1.0
  C  C1789  1  0.697200  0.896900  0.789500  1.0
  C  C1790  1  0.802800  0.603100  0.289500  1.0
  C  C1791  1  0.302800  0.103100  0.210500  1.0
  C  C1792  1  0.197200  0.396900  0.710500  1.0
  C  C1793  1  0.702100  0.985800  0.735200  1.0
  C  C1794  1  0.797900  0.514200  0.235200  1.0
  C  C1795  1  0.297900  0.014200  0.264800  1.0
  C  C1796  1  0.202100  0.485800  0.764800  1.0
  C  C1797  1  0.731900  0.030600  0.752500  1.0
  C  C1798  1  0.768100  0.469400  0.252500  1.0
  C  C1799  1  0.268100  0.969400  0.247500  1.0
  C  C1800  1  0.231900  0.530600  0.747500  1.0
  C  C1801  1  0.761900  0.037800  0.764200  1.0
  C  C1802  1  0.738100  0.462200  0.264200  1.0
  C  C1803  1  0.238100  0.962200  0.235800  1.0
  C  C1804  1  0.261900  0.537800  0.735800  1.0
  C  C1805  1  0.772900  0.070400  0.763400  1.0
  C  C1806  1  0.727100  0.429600  0.263400  1.0
  C  C1807  1  0.227100  0.929600  0.236600  1.0
  C  C1808  1  0.272900  0.570400  0.736600  1.0
  C  C1809  1  0.755800  0.096600  0.752900  1.0
  C  C1810  1  0.744200  0.403400  0.252900  1.0
  C  C1811  1  0.244200  0.903400  0.247100  1.0
  C  C1812  1  0.255800  0.596600  0.747100  1.0
  C  C1813  1  0.725700  0.088100  0.742200  1.0
  C  C1814  1  0.774300  0.411900  0.242200  1.0
  C  C1815  1  0.274300  0.911900  0.257800  1.0
  C  C1816  1  0.225700  0.588100  0.757800  1.0
  C  C1817  1  0.714300  0.055800  0.740600  1.0
  C  C1818  1  0.785700  0.444200  0.240600  1.0
  C  C1819  1  0.285700  0.944200  0.259400  1.0
  C  C1820  1  0.214300  0.555800  0.759400  1.0
  C  C1821  1  0.809800  0.133200  0.986800  1.0
  C  C1822  1  0.690200  0.366800  0.486800  1.0
  C  C1823  1  0.190200  0.866800  0.013200  1.0
  C  C1824  1  0.309800  0.633200  0.513200  1.0
  C  C1825  1  0.808200  0.122700  0.012100  1.0
  C  C1826  1  0.691800  0.377300  0.512100  1.0
  C  C1827  1  0.191800  0.877300  0.987900  1.0
  C  C1828  1  0.308200  0.622700  0.487900  1.0
  C  C1829  1  0.814900  0.148300  0.027900  1.0
  C  C1830  1  0.685100  0.351700  0.527900  1.0
  C  C1831  1  0.185100  0.851700  0.972100  1.0
  C  C1832  1  0.314900  0.648300  0.472100  1.0
  C  C1833  1  0.822400  0.181800  0.023800  1.0
  C  C1834  1  0.677600  0.318200  0.523800  1.0
  C  C1835  1  0.177600  0.818200  0.976200  1.0
  C  C1836  1  0.322400  0.681800  0.476200  1.0
  C  C1837  1  0.830100  0.211300  0.036700  1.0
  C  C1838  1  0.669900  0.288700  0.536700  1.0
  C  C1839  1  0.169900  0.788700  0.963300  1.0
  C  C1840  1  0.330100  0.711300  0.463300  1.0
  C  C1841  1  0.837900  0.242500  0.029300  1.0
  C  C1842  1  0.662100  0.257500  0.529300  1.0
  C  C1843  1  0.162100  0.757500  0.970700  1.0
  C  C1844  1  0.337900  0.742500  0.470700  1.0
  C  C1845  1  0.837500  0.247200  0.002400  1.0
  C  C1846  1  0.662500  0.252800  0.502400  1.0
  C  C1847  1  0.162500  0.752800  0.997600  1.0
  C  C1848  1  0.337500  0.747200  0.497600  1.0
  C  C1849  1  0.843700  0.278100  0.992100  1.0
  C  C1850  1  0.656300  0.221900  0.492100  1.0
  C  C1851  1  0.156300  0.721900  0.007900  1.0
  C  C1852  1  0.343700  0.778100  0.507900  1.0
  C  C1853  1  0.844300  0.282200  0.966200  1.0
  C  C1854  1  0.655700  0.217800  0.466200  1.0
  C  C1855  1  0.155700  0.717800  0.033800  1.0
  C  C1856  1  0.344300  0.782200  0.533800  1.0
  C  C1857  1  0.837200  0.252400  0.952500  1.0
  C  C1858  1  0.662800  0.247600  0.452500  1.0
  C  C1859  1  0.162800  0.747600  0.047500  1.0
  C  C1860  1  0.337200  0.752400  0.547500  1.0
  C  C1861  1  0.829700  0.218700  0.988000  1.0
  C  C1862  1  0.670300  0.281300  0.488000  1.0
  C  C1863  1  0.170300  0.781300  0.012000  1.0
  C  C1864  1  0.329700  0.718700  0.512000  1.0
  C  C1865  1  0.822700  0.186900  0.997300  1.0
  C  C1866  1  0.677300  0.313100  0.497300  1.0
  C  C1867  1  0.177300  0.813100  0.002700  1.0
  C  C1868  1  0.322700  0.686900  0.502700  1.0
  C  C1869  1  0.835500  0.251700  0.925300  1.0
  C  C1870  1  0.664500  0.248300  0.425300  1.0
  C  C1871  1  0.164500  0.748300  0.074700  1.0
  C  C1872  1  0.335500  0.751700  0.574700  1.0
  C  C1873  1  0.821600  0.219000  0.891200  1.0
  C  C1874  1  0.678400  0.281000  0.391200  1.0
  C  C1875  1  0.178400  0.781000  0.108800  1.0
  C  C1876  1  0.321600  0.719000  0.608800  1.0
  C  C1877  1  0.834300  0.190900  0.878700  1.0
  C  C1878  1  0.665700  0.309100  0.378700  1.0
  C  C1879  1  0.165700  0.809100  0.121300  1.0
  C  C1880  1  0.334300  0.690900  0.621300  1.0
  C  C1881  1  0.829400  0.189300  0.853500  1.0
  C  C1882  1  0.670600  0.310700  0.353500  1.0
  C  C1883  1  0.170600  0.810700  0.146500  1.0
  C  C1884  1  0.329400  0.689300  0.646500  1.0
  C  C1885  1  0.808800  0.211900  0.841000  1.0
  C  C1886  1  0.691200  0.288100  0.341000  1.0
  C  C1887  1  0.191200  0.788100  0.159000  1.0
  C  C1888  1  0.308800  0.711900  0.659000  1.0
  C  C1889  1  0.795600  0.238700  0.854500  1.0
  C  C1890  1  0.704400  0.261300  0.354500  1.0
  C  C1891  1  0.204400  0.761300  0.145500  1.0
  C  C1892  1  0.295600  0.738700  0.645500  1.0
  C  C1893  1  0.800300  0.241000  0.879200  1.0
  C  C1894  1  0.699700  0.259000  0.379200  1.0
  C  C1895  1  0.199700  0.759000  0.120800  1.0
  C  C1896  1  0.300300  0.741000  0.620800  1.0
  C  C1897  1  0.854400  0.280700  0.749300  1.0
  C  C1898  1  0.645600  0.219300  0.249300  1.0
  C  C1899  1  0.145600  0.719300  0.250700  1.0
  C  C1900  1  0.354400  0.780700  0.750700  1.0
  C  C1901  1  0.847400  0.266100  0.726700  1.0
  C  C1902  1  0.652600  0.233900  0.226700  1.0
  C  C1903  1  0.152600  0.733900  0.273300  1.0
  C  C1904  1  0.347400  0.766100  0.773300  1.0
  C  C1905  1  0.854400  0.280200  0.702900  1.0
  C  C1906  1  0.645600  0.219800  0.202900  1.0
  C  C1907  1  0.145600  0.719800  0.297100  1.0
  C  C1908  1  0.354400  0.780200  0.797100  1.0
  C  C1909  1  0.844500  0.258100  0.684900  1.0
  C  C1910  1  0.655500  0.241900  0.184900  1.0
  C  C1911  1  0.155500  0.741900  0.315100  1.0
  C  C1912  1  0.344500  0.758100  0.815100  1.0
  C  C1913  1  0.829500  0.230300  0.698200  1.0
  C  C1914  1  0.670500  0.269700  0.198200  1.0
  C  C1915  1  0.170500  0.769700  0.301800  1.0
  C  C1916  1  0.329500  0.730300  0.801800  1.0
  C  C1917  1  0.816600  0.201800  0.687800  1.0
  C  C1918  1  0.683400  0.298200  0.187800  1.0
  C  C1919  1  0.183400  0.798200  0.312200  1.0
  C  C1920  1  0.316600  0.701800  0.812200  1.0
  C  C1921  1  0.800500  0.175300  0.700500  1.0
  C  C1922  1  0.699500  0.324700  0.200500  1.0
  C  C1923  1  0.199500  0.824700  0.299500  1.0
  C  C1924  1  0.300500  0.675300  0.799500  1.0
  C  C1925  1  0.791900  0.144500  0.689200  1.0
  C  C1926  1  0.708100  0.355500  0.189200  1.0
  C  C1927  1  0.208100  0.855500  0.310800  1.0
  C  C1928  1  0.291900  0.644500  0.810800  1.0
  C  C1929  1  0.778700  0.125200  0.707000  1.0
  C  C1930  1  0.721300  0.374800  0.207000  1.0
  C  C1931  1  0.221300  0.874800  0.293000  1.0
  C  C1932  1  0.278700  0.625200  0.793000  1.0
  C  C1933  1  0.780600  0.143400  0.729000  1.0
  C  C1934  1  0.719400  0.356600  0.229000  1.0
  C  C1935  1  0.219400  0.856600  0.271000  1.0
  C  C1936  1  0.280600  0.643400  0.771000  1.0
  C  C1937  1  0.770800  0.130600  0.752000  1.0
  C  C1938  1  0.729200  0.369400  0.252000  1.0
  C  C1939  1  0.229200  0.869400  0.248000  1.0
  C  C1940  1  0.270800  0.630600  0.748000  1.0
  C  C1941  1  0.775100  0.147000  0.774200  1.0
  C  C1942  1  0.724900  0.353000  0.274200  1.0
  C  C1943  1  0.224900  0.853000  0.225800  1.0
  C  C1944  1  0.275100  0.647000  0.725800  1.0
  C  C1945  1  0.763400  0.135300  0.797700  1.0
  C  C1946  1  0.736600  0.364700  0.297700  1.0
  C  C1947  1  0.236600  0.864700  0.202300  1.0
  C  C1948  1  0.263400  0.635300  0.702300  1.0
  C  C1949  1  0.774200  0.156800  0.814800  1.0
  C  C1950  1  0.725800  0.343200  0.314800  1.0
  C  C1951  1  0.225800  0.843200  0.185200  1.0
  C  C1952  1  0.274200  0.656800  0.685200  1.0
  C  C1953  1  0.790800  0.183800  0.802200  1.0
  C  C1954  1  0.709200  0.316200  0.302200  1.0
  C  C1955  1  0.209200  0.816200  0.197800  1.0
  C  C1956  1  0.290800  0.683800  0.697800  1.0
  C  C1957  1  0.806300  0.210900  0.813300  1.0
  C  C1958  1  0.693700  0.289100  0.313300  1.0
  C  C1959  1  0.193700  0.789100  0.186700  1.0
  C  C1960  1  0.306300  0.710900  0.686700  1.0
  C  C1961  1  0.822800  0.238400  0.801500  1.0
  C  C1962  1  0.677200  0.261600  0.301500  1.0
  C  C1963  1  0.177200  0.761600  0.198500  1.0
  C  C1964  1  0.322800  0.738400  0.698500  1.0
  C  C1965  1  0.843000  0.263200  0.814000  1.0
  C  C1966  1  0.657000  0.236800  0.314000  1.0
  C  C1967  1  0.157000  0.736800  0.186000  1.0
  C  C1968  1  0.343000  0.763200  0.686000  1.0
  C  C1969  1  0.855800  0.281500  0.795700  1.0
  C  C1970  1  0.644200  0.218500  0.295700  1.0
  C  C1971  1  0.144200  0.718500  0.204300  1.0
  C  C1972  1  0.355800  0.781500  0.704300  1.0
  C  C1973  1  0.844400  0.269400  0.772500  1.0
  C  C1974  1  0.655600  0.230600  0.272500  1.0
  C  C1975  1  0.155600  0.730600  0.227500  1.0
  C  C1976  1  0.344400  0.769400  0.727500  1.0
  C  C1977  1  0.833100  0.589300  0.915500  1.0
  C  C1978  1  0.666900  0.910700  0.415500  1.0
  C  C1979  1  0.166900  0.410700  0.084500  1.0
  C  C1980  1  0.333100  0.089300  0.584500  1.0
  C  C1981  1  0.854100  0.617900  0.914000  1.0
  C  C1982  1  0.645900  0.882100  0.414000  1.0
  C  C1983  1  0.145900  0.382100  0.086000  1.0
  C  C1984  1  0.354100  0.117900  0.586000  1.0
  C  C1985  1  0.884300  0.613800  0.900800  1.0
  C  C1986  1  0.615700  0.886200  0.400800  1.0
  C  C1987  1  0.115700  0.386200  0.099200  1.0
  C  C1988  1  0.384300  0.113800  0.599200  1.0
  C  C1989  1  0.896500  0.585600  0.890300  1.0
  C  C1990  1  0.603500  0.914400  0.390300  1.0
  C  C1991  1  0.103500  0.414400  0.109700  1.0
  C  C1992  1  0.396500  0.085600  0.609700  1.0
  C  C1993  1  0.924000  0.578900  0.876300  1.0
  C  C1994  1  0.576000  0.921100  0.376300  1.0
  C  C1995  1  0.076000  0.421100  0.123700  1.0
  C  C1996  1  0.424000  0.078900  0.623700  1.0
  C  C1997  1  0.935100  0.550400  0.869200  1.0
  C  C1998  1  0.564900  0.949600  0.369200  1.0
  C  C1999  1  0.064900  0.449600  0.130800  1.0
  C  C2000  1  0.435100  0.050400  0.630800  1.0
  C  C2001  1  0.911800  0.522100  0.871600  1.0
  C  C2002  1  0.588200  0.977900  0.371600  1.0
  C  C2003  1  0.088200  0.477900  0.128400  1.0
  C  C2004  1  0.411800  0.022100  0.628400  1.0
  C  C2005  1  0.916500  0.490300  0.863000  1.0
  C  C2006  1  0.583500  0.009700  0.363000  1.0
  C  C2007  1  0.083500  0.509700  0.137000  1.0
  C  C2008  1  0.416500  0.990300  0.637000  1.0
  C  C2009  1  0.893000  0.463100  0.864300  1.0
  C  C2010  1  0.607000  0.036900  0.364300  1.0
  C  C2011  1  0.107000  0.536900  0.135700  1.0
  C  C2012  1  0.393000  0.963100  0.635700  1.0
  C  C2013  1  0.862700  0.473100  0.876300  1.0
  C  C2014  1  0.637300  0.026900  0.376300  1.0
  C  C2015  1  0.137300  0.526900  0.123700  1.0
  C  C2016  1  0.362700  0.973100  0.623700  1.0
  C  C2017  1  0.882600  0.527300  0.883800  1.0
  C  C2018  1  0.617400  0.972700  0.383800  1.0
  C  C2019  1  0.117400  0.472700  0.116200  1.0
  C  C2020  1  0.382600  0.027300  0.616200  1.0
  C  C2021  1  0.872500  0.558400  0.894300  1.0
  C  C2022  1  0.627500  0.941600  0.394300  1.0
  C  C2023  1  0.127500  0.441600  0.105700  1.0
  C  C2024  1  0.372500  0.058400  0.605700  1.0
  C  C2025  1  0.836100  0.448800  0.882400  1.0
  C  C2026  1  0.663900  0.051200  0.382400  1.0
  C  C2027  1  0.163900  0.551200  0.117600  1.0
  C  C2028  1  0.336100  0.948800  0.617600  1.0
  C  C2029  1  0.780000  0.441100  0.894400  1.0
  C  C2030  1  0.720000  0.058900  0.394400  1.0
  C  C2031  1  0.220000  0.558900  0.105600  1.0
  C  C2032  1  0.280000  0.941100  0.605600  1.0
  C  C2033  1  0.770800  0.421300  0.875500  1.0
  C  C2034  1  0.729200  0.078700  0.375500  1.0
  C  C2035  1  0.229200  0.578700  0.124500  1.0
  C  C2036  1  0.270800  0.921300  0.624500  1.0
  C  C2037  1  0.740700  0.403400  0.876100  1.0
  C  C2038  1  0.759300  0.096600  0.376100  1.0
  C  C2039  1  0.259300  0.596600  0.123900  1.0
  C  C2040  1  0.240700  0.903400  0.623900  1.0
  C  C2041  1  0.721900  0.403100  0.898100  1.0
  C  C2042  1  0.778100  0.096900  0.398100  1.0
  C  C2043  1  0.278100  0.596900  0.101900  1.0
  C  C2044  1  0.221900  0.903100  0.601900  1.0
  C  C2045  1  0.730600  0.423800  0.917000  1.0
  C  C2046  1  0.769400  0.076200  0.417000  1.0
  C  C2047  1  0.269400  0.576200  0.083000  1.0
  C  C2048  1  0.230600  0.923800  0.583000  1.0
  C  C2049  1  0.759400  0.442800  0.915300  1.0
  C  C2050  1  0.740600  0.057200  0.415300  1.0
  C  C2051  1  0.240600  0.557200  0.084700  1.0
  C  C2052  1  0.259400  0.942800  0.584700  1.0
  C  C2053  1  0.904600  0.193900  0.956900  1.0
  C  C2054  1  0.595400  0.306100  0.456900  1.0
  C  C2055  1  0.095400  0.806100  0.043100  1.0
  C  C2056  1  0.404600  0.693900  0.543100  1.0
  C  C2057  1  0.939700  0.183300  0.960600  1.0
  C  C2058  1  0.560300  0.316700  0.460600  1.0
  C  C2059  1  0.060300  0.816700  0.039400  1.0
  C  C2060  1  0.439700  0.683300  0.539400  1.0
  C  C2061  1  0.945800  0.151900  0.952400  1.0
  C  C2062  1  0.554200  0.348100  0.452400  1.0
  C  C2063  1  0.054200  0.848100  0.047600  1.0
  C  C2064  1  0.445800  0.651900  0.547600  1.0
  C  C2065  1  0.924600  0.128400  0.941200  1.0
  C  C2066  1  0.575400  0.371600  0.441200  1.0
  C  C2067  1  0.075400  0.871600  0.058800  1.0
  C  C2068  1  0.424600  0.628400  0.558800  1.0
  C  C2069  1  0.929800  0.096200  0.933800  1.0
  C  C2070  1  0.570200  0.403800  0.433800  1.0
  C  C2071  1  0.070200  0.903800  0.066200  1.0
  C  C2072  1  0.429800  0.596200  0.566200  1.0
  C  C2073  1  0.907000  0.075700  0.922300  1.0
  C  C2074  1  0.593000  0.424300  0.422300  1.0
  C  C2075  1  0.093000  0.924300  0.077700  1.0
  C  C2076  1  0.407000  0.575700  0.577700  1.0
  C  C2077  1  0.875300  0.089300  0.920300  1.0
  C  C2078  1  0.624700  0.410700  0.420300  1.0
  C  C2079  1  0.124700  0.910700  0.079700  1.0
  C  C2080  1  0.375300  0.589300  0.579700  1.0
  C  C2081  1  0.848500  0.071300  0.909000  1.0
  C  C2082  1  0.651500  0.428700  0.409000  1.0
  C  C2083  1  0.151500  0.928700  0.091000  1.0
  C  C2084  1  0.348500  0.571300  0.591000  1.0
  C  C2085  1  0.817400  0.084700  0.906500  1.0
  C  C2086  1  0.682600  0.415300  0.406500  1.0
  C  C2087  1  0.182600  0.915300  0.093500  1.0
  C  C2088  1  0.317400  0.584700  0.593500  1.0
  C  C2089  1  0.810600  0.115600  0.916200  1.0
  C  C2090  1  0.689400  0.384400  0.416200  1.0
  C  C2091  1  0.189400  0.884400  0.083800  1.0
  C  C2092  1  0.310600  0.615600  0.583800  1.0
  C  C2093  1  0.868200  0.121700  0.928700  1.0
  C  C2094  1  0.631800  0.378300  0.428700  1.0
  C  C2095  1  0.131800  0.878300  0.071300  1.0
  C  C2096  1  0.368200  0.621700  0.571300  1.0
  C  C2097  1  0.892800  0.142100  0.939200  1.0
  C  C2098  1  0.607200  0.357900  0.439200  1.0
  C  C2099  1  0.107200  0.857900  0.060800  1.0
  C  C2100  1  0.392800  0.642100  0.560800  1.0
  C  C2101  1  0.781300  0.134900  0.915500  1.0
  C  C2102  1  0.718700  0.365100  0.415500  1.0
  C  C2103  1  0.218700  0.865100  0.084500  1.0
  C  C2104  1  0.281300  0.634900  0.584500  1.0
  C  C2105  1  0.751900  0.184300  0.921400  1.0
  C  C2106  1  0.748100  0.315700  0.421400  1.0
  C  C2107  1  0.248100  0.815700  0.078600  1.0
  C  C2108  1  0.251900  0.684300  0.578600  1.0
  C  C2109  1  0.734900  0.185300  0.899100  1.0
  C  C2110  1  0.765100  0.314700  0.399100  1.0
  C  C2111  1  0.265100  0.814700  0.100900  1.0
  C  C2112  1  0.234900  0.685300  0.600900  1.0
  C  C2113  1  0.712400  0.210200  0.893900  1.0
  C  C2114  1  0.787600  0.289800  0.393900  1.0
  C  C2115  1  0.287600  0.789800  0.106100  1.0
  C  C2116  1  0.212400  0.710200  0.606100  1.0
  C  C2117  1  0.702300  0.233100  0.912300  1.0
  C  C2118  1  0.797700  0.266900  0.412300  1.0
  C  C2119  1  0.297700  0.766900  0.087700  1.0
  C  C2120  1  0.202300  0.733100  0.587700  1.0
  C  C2121  1  0.720100  0.231900  0.935000  1.0
  C  C2122  1  0.779900  0.268100  0.435000  1.0
  C  C2123  1  0.279900  0.768100  0.065000  1.0
  C  C2124  1  0.220100  0.731900  0.565000  1.0
  C  C2125  1  0.743300  0.208100  0.939300  1.0
  C  C2126  1  0.756700  0.291900  0.439300  1.0
  C  C2127  1  0.256700  0.791900  0.060700  1.0
  C  C2128  1  0.243300  0.708100  0.560700  1.0
  C  C2129  1  0.445100  0.083900  0.989900  1.0
  C  C2130  1  0.054900  0.416100  0.489900  1.0
  C  C2131  1  0.554900  0.916100  0.010100  1.0
  C  C2132  1  0.945100  0.583900  0.510100  1.0
  C  C2133  1  0.426000  0.057000  0.002600  1.0
  C  C2134  1  0.074000  0.443000  0.502600  1.0
  C  C2135  1  0.574000  0.943000  0.997400  1.0
  C  C2136  1  0.926000  0.557000  0.497400  1.0
  C  C2137  1  0.395300  0.049400  0.991900  1.0
  C  C2138  1  0.104700  0.450600  0.491900  1.0
  C  C2139  1  0.604700  0.950600  0.008100  1.0
  C  C2140  1  0.895300  0.549400  0.508100  1.0
  C  C2141  1  0.378900  0.070900  0.975700  1.0
  C  C2142  1  0.121100  0.429100  0.475700  1.0
  C  C2143  1  0.621100  0.929100  0.024300  1.0
  C  C2144  1  0.878900  0.570900  0.524300  1.0
  C  C2145  1  0.347600  0.065500  0.968100  1.0
  C  C2146  1  0.152400  0.434500  0.468100  1.0
  C  C2147  1  0.652400  0.934500  0.031900  1.0
  C  C2148  1  0.847600  0.565500  0.531900  1.0
  C  C2149  1  0.333333  0.087700  0.952800  1.0
  C  C2150  1  0.166667  0.412300  0.452800  1.0
  C  C2151  1  0.666667  0.912300  0.047200  1.0
  C  C2152  1  0.833333  0.587700  0.547200  1.0
  C  C2153  1  0.351800  0.117100  0.942800  1.0
  C  C2154  1  0.148200  0.382900  0.442800  1.0
  C  C2155  1  0.648200  0.882900  0.057200  1.0
  C  C2156  1  0.851800  0.617100  0.557200  1.0
  C  C2157  1  0.339800  0.141500  0.928400  1.0
  C  C2158  1  0.160200  0.358500  0.428400  1.0
  C  C2159  1  0.660200  0.858500  0.071600  1.0
  C  C2160  1  0.839800  0.641500  0.571600  1.0
  C  C2161  1  0.359200  0.168300  0.920900  1.0
  C  C2162  1  0.140800  0.331700  0.420900  1.0
  C  C2163  1  0.640800  0.831700  0.079100  1.0
  C  C2164  1  0.859200  0.668300  0.579100  1.0
  C  C2165  1  0.392600  0.168400  0.930400  1.0
  C  C2166  1  0.107400  0.331600  0.430400  1.0
  C  C2167  1  0.607400  0.831600  0.069600  1.0
  C  C2168  1  0.892600  0.668400  0.569600  1.0
  C  C2169  1  0.384000  0.119400  0.952200  1.0
  C  C2170  1  0.116000  0.380600  0.452200  1.0
  C  C2171  1  0.616000  0.880600  0.047800  1.0
  C  C2172  1  0.884000  0.619400  0.547800  1.0
  C  C2173  1  0.399500  0.096700  0.967100  1.0
  C  C2174  1  0.100500  0.403300  0.467100  1.0
  C  C2175  1  0.600500  0.903300  0.032900  1.0
  C  C2176  1  0.899500  0.596700  0.532900  1.0
  C  C2177  1  0.417900  0.194100  0.922400  1.0
  C  C2178  1  0.082100  0.305900  0.422400  1.0
  C  C2179  1  0.582100  0.805900  0.077600  1.0
  C  C2180  1  0.917900  0.694100  0.577600  1.0
  C  C2181  1  0.473100  0.213200  0.928200  1.0
  C  C2182  1  0.026900  0.286800  0.428200  1.0
  C  C2183  1  0.526900  0.786800  0.071800  1.0
  C  C2184  1  0.973100  0.713200  0.571800  1.0
  C  C2185  1  0.479700  0.220300  0.903600  1.0
  C  C2186  1  0.020300  0.279700  0.403600  1.0
  C  C2187  1  0.520300  0.779700  0.096400  1.0
  C  C2188  1  0.979700  0.720300  0.596400  1.0
  C  C2189  1  0.507300  0.239800  0.897500  1.0
  C  C2190  1  0.992700  0.260200  0.397500  1.0
  C  C2191  1  0.492700  0.760200  0.102500  1.0
  C  C2192  1  0.007300  0.739800  0.602500  1.0
  C  C2193  1  0.529300  0.251800  0.915300  1.0
  C  C2194  1  0.970700  0.248200  0.415300  1.0
  C  C2195  1  0.470700  0.748200  0.084700  1.0
  C  C2196  1  0.029300  0.751800  0.584700  1.0
  C  C2197  1  0.523100  0.241900  0.939200  1.0
  C  C2198  1  0.976900  0.258100  0.439200  1.0
  C  C2199  1  0.476900  0.758100  0.060800  1.0
  C  C2200  1  0.023100  0.741900  0.560800  1.0
  C  C2201  1  0.496200  0.222600  0.946300  1.0
  C  C2202  1  0.003800  0.277400  0.446300  1.0
  C  C2203  1  0.503800  0.777400  0.053700  1.0
  C  C2204  1  0.996200  0.722600  0.553700  1.0
  C  C2205  1  0.361500  0.501400  0.945200  1.0
  C  C2206  1  0.138500  0.998600  0.445200  1.0
  C  C2207  1  0.638500  0.498600  0.054800  1.0
  C  C2208  1  0.861500  0.001400  0.554800  1.0
  C  C2209  1  0.328000  0.513600  0.946500  1.0
  C  C2210  1  0.172000  0.986400  0.446500  1.0
  C  C2211  1  0.672000  0.486400  0.053500  1.0
  C  C2212  1  0.828000  0.013600  0.553500  1.0
  C  C2213  1  0.325400  0.545300  0.937800  1.0
  C  C2214  1  0.174600  0.954700  0.437800  1.0
  C  C2215  1  0.674600  0.454700  0.062200  1.0
  C  C2216  1  0.825400  0.045300  0.562200  1.0
  C  C2217  1  0.346800  0.564500  0.923100  1.0
  C  C2218  1  0.153200  0.935500  0.423100  1.0
  C  C2219  1  0.653200  0.435500  0.076900  1.0
  C  C2220  1  0.846800  0.064500  0.576900  1.0
  C  C2221  1  0.346200  0.594300  0.908900  1.0
  C  C2222  1  0.153800  0.905700  0.408900  1.0
  C  C2223  1  0.653800  0.405700  0.091100  1.0
  C  C2224  1  0.846200  0.094300  0.591100  1.0
  C  C2225  1  0.371600  0.610500  0.897800  1.0
  C  C2226  1  0.128400  0.889500  0.397800  1.0
  C  C2227  1  0.628400  0.389500  0.102200  1.0
  C  C2228  1  0.871600  0.110500  0.602200  1.0
  C  C2229  1  0.403000  0.590900  0.896500  1.0
  C  C2230  1  0.097000  0.909100  0.396500  1.0
  C  C2231  1  0.597000  0.409100  0.103500  1.0
  C  C2232  1  0.903000  0.090900  0.603500  1.0
  C  C2233  1  0.430600  0.604600  0.885400  1.0
  C  C2234  1  0.069400  0.895400  0.385400  1.0
  C  C2235  1  0.569400  0.395400  0.114600  1.0
  C  C2236  1  0.930600  0.104600  0.614600  1.0
  C  C2237  1  0.459900  0.585900  0.882700  1.0
  C  C2238  1  0.040100  0.914100  0.382700  1.0
  C  C2239  1  0.540100  0.414100  0.117300  1.0
  C  C2240  1  0.959900  0.085900  0.617300  1.0
  C  C2241  1  0.460700  0.555400  0.895700  1.0
  C  C2242  1  0.039300  0.944600  0.395700  1.0
  C  C2243  1  0.539300  0.444600  0.104300  1.0
  C  C2244  1  0.960700  0.055400  0.604300  1.0
  C  C2245  1  0.406200  0.561500  0.910900  1.0
  C  C2246  1  0.093800  0.938500  0.410900  1.0
  C  C2247  1  0.593800  0.438500  0.089100  1.0
  C  C2248  1  0.906200  0.061500  0.589100  1.0
  C  C2249  1  0.378700  0.547600  0.923300  1.0
  C  C2250  1  0.121300  0.952400  0.423300  1.0
  C  C2251  1  0.621300  0.452400  0.076700  1.0
  C  C2252  1  0.878700  0.047600  0.576700  1.0
  C  C2253  1  0.488800  0.531200  0.893600  1.0
  C  C2254  1  0.011200  0.968800  0.393600  1.0
  C  C2255  1  0.511200  0.468800  0.106400  1.0
  C  C2256  1  0.988800  0.031200  0.606400  1.0
  C  C2257  1  0.506700  0.477500  0.903500  1.0
  C  C2258  1  0.993300  0.022500  0.403500  1.0
  C  C2259  1  0.493300  0.522500  0.096500  1.0
  C  C2260  1  0.006700  0.977500  0.596500  1.0
  C  C2261  1  0.507600  0.454400  0.923000  1.0
  C  C2262  1  0.992400  0.045600  0.423000  1.0
  C  C2263  1  0.492400  0.545600  0.077000  1.0
  C  C2264  1  0.007600  0.954400  0.577000  1.0
  C  C2265  1  0.529400  0.428100  0.921100  1.0
  C  C2266  1  0.970600  0.071900  0.421100  1.0
  C  C2267  1  0.470600  0.571900  0.078900  1.0
  C  C2268  1  0.029400  0.928100  0.578900  1.0
  C  C2269  1  0.548600  0.422300  0.899600  1.0
  C  C2270  1  0.951400  0.077700  0.399600  1.0
  C  C2271  1  0.451400  0.577700  0.100400  1.0
  C  C2272  1  0.048600  0.922300  0.600400  1.0
  C  C2273  1  0.545600  0.445500  0.880900  1.0
  C  C2274  1  0.954400  0.054500  0.380900  1.0
  C  C2275  1  0.454400  0.554500  0.119100  1.0
  C  C2276  1  0.045600  0.945500  0.619100  1.0
  C  C2277  1  0.524100  0.471900  0.882200  1.0
  C  C2278  1  0.975900  0.028100  0.382200  1.0
  C  C2279  1  0.475900  0.528100  0.117800  1.0
  C  C2280  1  0.024100  0.971900  0.617800  1.0
  C  C2281  1  0.692300  0.379900  0.899600  1.0
  C  C2282  1  0.807700  0.120100  0.399600  1.0
  C  C2283  1  0.307700  0.620100  0.100400  1.0
  C  C2284  1  0.192300  0.879900  0.600400  1.0
  C  C2285  1  0.699600  0.346400  0.901500  1.0
  C  C2286  1  0.800400  0.153600  0.401500  1.0
  C  C2287  1  0.300400  0.653600  0.098500  1.0
  C  C2288  1  0.199600  0.846400  0.598500  1.0
  C  C2289  1  0.731600  0.331600  0.903500  1.0
  C  C2290  1  0.768400  0.168400  0.403500  1.0
  C  C2291  1  0.268400  0.668400  0.096500  1.0
  C  C2292  1  0.231600  0.831600  0.596500  1.0
  C  C2293  1  0.728600  0.298400  0.905900  1.0
  C  C2294  1  0.771400  0.201600  0.405900  1.0
  C  C2295  1  0.271400  0.701600  0.094100  1.0
  C  C2296  1  0.228600  0.798400  0.594100  1.0
  C  C2297  1  0.693000  0.291200  0.904500  1.0
  C  C2298  1  0.807000  0.208800  0.404500  1.0
  C  C2299  1  0.307000  0.708800  0.095500  1.0
  C  C2300  1  0.193000  0.791200  0.595500  1.0
  C  C2301  1  0.678800  0.260200  0.906900  1.0
  C  C2302  1  0.821200  0.239800  0.406900  1.0
  C  C2303  1  0.321200  0.739800  0.093100  1.0
  C  C2304  1  0.178800  0.760200  0.593100  1.0
  C  C2305  1  0.644200  0.252400  0.905800  1.0
  C  C2306  1  0.855800  0.247600  0.405800  1.0
  C  C2307  1  0.355800  0.747600  0.094200  1.0
  C  C2308  1  0.144200  0.752400  0.594200  1.0
  C  C2309  1  0.629800  0.220700  0.909300  1.0
  C  C2310  1  0.870200  0.279300  0.409300  1.0
  C  C2311  1  0.370200  0.779300  0.090700  1.0
  C  C2312  1  0.129800  0.720700  0.590700  1.0
  C  C2313  1  0.596800  0.223800  0.909800  1.0
  C  C2314  1  0.903200  0.276200  0.409800  1.0
  C  C2315  1  0.403200  0.776200  0.090200  1.0
  C  C2316  1  0.096800  0.723800  0.590200  1.0
  C  C2317  1  0.589900  0.258100  0.907000  1.0
  C  C2318  1  0.910100  0.241900  0.407000  1.0
  C  C2319  1  0.410100  0.741900  0.093000  1.0
  C  C2320  1  0.089900  0.758100  0.593000  1.0
  C  C2321  1  0.558700  0.273800  0.908100  1.0
  C  C2322  1  0.941300  0.226200  0.408100  1.0
  C  C2323  1  0.441300  0.726200  0.091900  1.0
  C  C2324  1  0.058700  0.773800  0.591900  1.0
  C  C2325  1  0.551400  0.307100  0.904400  1.0
  C  C2326  1  0.948600  0.192900  0.404400  1.0
  C  C2327  1  0.448600  0.692900  0.095600  1.0
  C  C2328  1  0.051400  0.807100  0.595600  1.0
  C  C2329  1  0.518600  0.322100  0.903700  1.0
  C  C2330  1  0.981400  0.177900  0.403700  1.0
  C  C2331  1  0.481400  0.677900  0.096300  1.0
  C  C2332  1  0.018600  0.822100  0.596300  1.0
  C  C2333  1  0.522800  0.354800  0.901800  1.0
  C  C2334  1  0.977200  0.145200  0.401800  1.0
  C  C2335  1  0.477200  0.645200  0.098200  1.0
  C  C2336  1  0.022800  0.854800  0.598200  1.0
  C  C2337  1  0.557900  0.361400  0.899700  1.0
  C  C2338  1  0.942100  0.138600  0.399700  1.0
  C  C2339  1  0.442100  0.638600  0.100300  1.0
  C  C2340  1  0.057900  0.861400  0.600300  1.0
  C  C2341  1  0.572400  0.393300  0.899300  1.0
  C  C2342  1  0.927600  0.106700  0.399300  1.0
  C  C2343  1  0.427600  0.606700  0.100700  1.0
  C  C2344  1  0.072400  0.893300  0.600700  1.0
  C  C2345  1  0.607100  0.400800  0.897500  1.0
  C  C2346  1  0.892900  0.099200  0.397500  1.0
  C  C2347  1  0.392900  0.599200  0.102500  1.0
  C  C2348  1  0.107100  0.900800  0.602500  1.0
  C  C2349  1  0.620700  0.434100  0.896300  1.0
  C  C2350  1  0.879300  0.065900  0.396300  1.0
  C  C2351  1  0.379300  0.565900  0.103700  1.0
  C  C2352  1  0.120700  0.934100  0.603700  1.0
  C  C2353  1  0.654700  0.429500  0.896700  1.0
  C  C2354  1  0.845300  0.070500  0.396700  1.0
  C  C2355  1  0.345300  0.570500  0.103300  1.0
  C  C2356  1  0.154700  0.929500  0.603300  1.0
  C  C2357  1  0.661300  0.394700  0.897900  1.0
  C  C2358  1  0.838700  0.105300  0.397900  1.0
  C  C2359  1  0.338700  0.605300  0.102100  1.0
  C  C2360  1  0.161300  0.894700  0.602100  1.0
  C  C2361  1  0.525400  0.723300  0.748800  1.0
  C  C2362  1  0.974600  0.776700  0.248800  1.0
  C  C2363  1  0.474600  0.276700  0.251200  1.0
  C  C2364  1  0.025400  0.223300  0.751200  1.0
  C  C2365  1  0.533800  0.758100  0.749100  1.0
  C  C2366  1  0.966200  0.741900  0.249100  1.0
  C  C2367  1  0.466200  0.241900  0.250900  1.0
  C  C2368  1  0.033800  0.258100  0.750900  1.0
  C  C2369  1  0.556500  0.766700  0.729900  1.0
  C  C2370  1  0.943500  0.733300  0.229900  1.0
  C  C2371  1  0.443500  0.233300  0.270100  1.0
  C  C2372  1  0.056500  0.266700  0.770100  1.0
  C  C2373  1  0.561300  0.750600  0.708000  1.0
  C  C2374  1  0.938700  0.749400  0.208000  1.0
  C  C2375  1  0.438700  0.249400  0.292000  1.0
  C  C2376  1  0.061300  0.250600  0.792000  1.0
  C  C2377  1  0.577900  0.759100  0.687000  1.0
  C  C2378  1  0.922100  0.740900  0.187000  1.0
  C  C2379  1  0.422100  0.240900  0.313000  1.0
  C  C2380  1  0.077900  0.259100  0.813000  1.0
  C  C2381  1  0.584600  0.741000  0.668000  1.0
  C  C2382  1  0.915400  0.759000  0.168000  1.0
  C  C2383  1  0.415400  0.259000  0.332000  1.0
  C  C2384  1  0.084600  0.241000  0.832000  1.0
  C  C2385  1  0.573400  0.706100  0.669100  1.0
  C  C2386  1  0.926600  0.793900  0.169100  1.0
  C  C2387  1  0.426600  0.293900  0.330900  1.0
  C  C2388  1  0.073400  0.206100  0.830900  1.0
  C  C2389  1  0.577100  0.684000  0.650300  1.0
  C  C2390  1  0.922900  0.816000  0.150300  1.0
  C  C2391  1  0.422900  0.316000  0.349700  1.0
  C  C2392  1  0.077100  0.184000  0.849700  1.0
  C  C2393  1  0.566600  0.650100  0.652000  1.0
  C  C2394  1  0.933400  0.849900  0.152000  1.0
  C  C2395  1  0.433400  0.349900  0.348000  1.0
  C  C2396  1  0.066600  0.150100  0.848000  1.0
  C  C2397  1  0.548800  0.642900  0.674200  1.0
  C  C2398  1  0.951200  0.857100  0.174200  1.0
  C  C2399  1  0.451200  0.357100  0.325800  1.0
  C  C2400  1  0.048800  0.142900  0.825800  1.0
  C  C2401  1  0.555400  0.695900  0.689500  1.0
  C  C2402  1  0.944600  0.804100  0.189500  1.0
  C  C2403  1  0.444600  0.304100  0.310500  1.0
  C  C2404  1  0.055400  0.195900  0.810500  1.0
  C  C2405  1  0.547400  0.717100  0.709900  1.0
  C  C2406  1  0.952600  0.782900  0.209900  1.0
  C  C2407  1  0.452600  0.282900  0.290100  1.0
  C  C2408  1  0.047400  0.217100  0.790100  1.0
  C  C2409  1  0.534900  0.609400  0.679300  1.0
  C  C2410  1  0.965100  0.890600  0.179300  1.0
  C  C2411  1  0.465100  0.390600  0.320700  1.0
  C  C2412  1  0.034900  0.109400  0.820700  1.0
  C  C2413  1  0.507800  0.574800  0.708200  1.0
  C  C2414  1  0.992200  0.925200  0.208200  1.0
  C  C2415  1  0.492200  0.425200  0.291800  1.0
  C  C2416  1  0.007800  0.074800  0.791800  1.0
  C  C2417  1  0.524000  0.546900  0.701300  1.0
  C  C2418  1  0.976000  0.953100  0.201300  1.0
  C  C2419  1  0.476000  0.453100  0.298700  1.0
  C  C2420  1  0.024000  0.046900  0.798700  1.0
  C  C2421  1  0.512100  0.515700  0.709600  1.0
  C  C2422  1  0.987900  0.984300  0.209600  1.0
  C  C2423  1  0.487900  0.484300  0.290400  1.0
  C  C2424  1  0.012100  0.015700  0.790400  1.0
  C  C2425  1  0.483000  0.513900  0.724400  1.0
  C  C2426  1  0.017000  0.986100  0.224400  1.0
  C  C2427  1  0.517000  0.486100  0.275600  1.0
  C  C2428  1  0.983000  0.013900  0.775600  1.0
  C  C2429  1  0.467500  0.542700  0.731000  1.0
  C  C2430  1  0.032500  0.957300  0.231000  1.0
  C  C2431  1  0.532500  0.457300  0.269000  1.0
  C  C2432  1  0.967500  0.042700  0.769000  1.0
  C  C2433  1  0.479300  0.573200  0.723100  1.0
  C  C2434  1  0.020700  0.926800  0.223100  1.0
  C  C2435  1  0.520700  0.426800  0.276900  1.0
  C  C2436  1  0.979300  0.073200  0.776900  1.0
  C  C2437  1  0.477700  0.554200  0.962400  1.0
  C  C2438  1  0.022300  0.945800  0.462400  1.0
  C  C2439  1  0.522300  0.445800  0.037600  1.0
  C  C2440  1  0.977700  0.054200  0.537600  1.0
  C  C2441  1  0.486200  0.569500  0.986900  1.0
  C  C2442  1  0.013800  0.930500  0.486900  1.0
  C  C2443  1  0.513800  0.430500  0.013100  1.0
  C  C2444  1  0.986200  0.069500  0.513100  1.0
  C  C2445  1  0.476900  0.550500  0.007300  1.0
  C  C2446  1  0.023100  0.949500  0.507300  1.0
  C  C2447  1  0.523100  0.449500  0.992700  1.0
  C  C2448  1  0.976900  0.050500  0.492700  1.0
  C  C2449  1  0.459800  0.519900  0.007600  1.0
  C  C2450  1  0.040200  0.980100  0.507600  1.0
  C  C2451  1  0.540200  0.480100  0.992400  1.0
  C  C2452  1  0.959800  0.019900  0.492400  1.0
  C  C2453  1  0.451900  0.499600  0.027100  1.0
  C  C2454  1  0.048100  0.000400  0.527100  1.0
  C  C2455  1  0.548100  0.500400  0.972900  1.0
  C  C2456  1  0.951900  0.999600  0.472900  1.0
  C  C2457  1  0.435700  0.468700  0.024300  1.0
  C  C2458  1  0.064300  0.031300  0.524300  1.0
  C  C2459  1  0.564300  0.531300  0.975700  1.0
  C  C2460  1  0.935700  0.968700  0.475700  1.0
  C  C2461  1  0.431000  0.457900  0.000400  1.0
  C  C2462  1  0.069000  0.042100  0.500400  1.0
  C  C2463  1  0.569000  0.542100  0.999600  1.0
  C  C2464  1  0.931000  0.957900  0.499600  1.0
  C  C2465  1  0.415800  0.426200  0.995500  1.0
  C  C2466  1  0.084200  0.073800  0.495500  1.0
  C  C2467  1  0.584200  0.573800  0.004500  1.0
  C  C2468  1  0.915800  0.926200  0.504500  1.0
  C  C2469  1  0.411000  0.416400  0.971400  1.0
  C  C2470  1  0.089000  0.083600  0.471400  1.0
  C  C2471  1  0.589000  0.583600  0.028600  1.0
  C  C2472  1  0.911000  0.916400  0.528600  1.0
  C  C2473  1  0.419100  0.436400  0.951500  1.0
  C  C2474  1  0.080900  0.063600  0.451500  1.0
  C  C2475  1  0.580900  0.563600  0.048500  1.0
  C  C2476  1  0.919100  0.936400  0.548500  1.0
  C  C2477  1  0.438100  0.478200  0.979900  1.0
  C  C2478  1  0.061900  0.021800  0.479900  1.0
  C  C2479  1  0.561900  0.521800  0.020100  1.0
  C  C2480  1  0.938100  0.978200  0.520100  1.0
  C  C2481  1  0.453700  0.509100  0.983400  1.0
  C  C2482  1  0.046300  0.990900  0.483400  1.0
  C  C2483  1  0.546300  0.490900  0.016600  1.0
  C  C2484  1  0.953700  0.009100  0.516600  1.0
  C  C2485  1  0.418900  0.431800  0.925500  1.0
  C  C2486  1  0.081100  0.068200  0.425500  1.0
  C  C2487  1  0.581100  0.568200  0.074500  1.0
  C  C2488  1  0.918900  0.931800  0.574500  1.0
  C  C2489  1  0.429100  0.450100  0.885500  1.0
  C  C2490  1  0.070900  0.049900  0.385500  1.0
  C  C2491  1  0.570900  0.549900  0.114500  1.0
  C  C2492  1  0.929100  0.950100  0.614500  1.0
  C  C2493  1  0.443300  0.421400  0.876500  1.0
  C  C2494  1  0.056700  0.078600  0.376500  1.0
  C  C2495  1  0.556700  0.578600  0.123500  1.0
  C  C2496  1  0.943300  0.921400  0.623500  1.0
  C  C2497  1  0.445200  0.415000  0.851400  1.0
  C  C2498  1  0.054800  0.085000  0.351400  1.0
  C  C2499  1  0.554800  0.585000  0.148600  1.0
  C  C2500  1  0.945200  0.915000  0.648600  1.0
  C  C2501  1  0.433500  0.439000  0.833900  1.0
  C  C2502  1  0.066500  0.061000  0.333900  1.0
  C  C2503  1  0.566500  0.561000  0.166100  1.0
  C  C2504  1  0.933500  0.939000  0.666100  1.0
  C  C2505  1  0.420000  0.468700  0.843300  1.0
  C  C2506  1  0.080000  0.031300  0.343300  1.0
  C  C2507  1  0.580000  0.531300  0.156700  1.0
  C  C2508  1  0.920000  0.968700  0.656700  1.0
  C  C2509  1  0.418500  0.473900  0.868300  1.0
  C  C2510  1  0.081500  0.026100  0.368300  1.0
  C  C2511  1  0.581500  0.526100  0.131700  1.0
  C  C2512  1  0.918500  0.973900  0.631700  1.0
  C  C2513  1  0.238000  0.141000  0.751300  1.0
  C  C2514  1  0.262000  0.359000  0.251300  1.0
  C  C2515  1  0.762000  0.859000  0.248700  1.0
  C  C2516  1  0.738000  0.641000  0.748700  1.0
  C  C2517  1  0.221000  0.107700  0.750500  1.0
  C  C2518  1  0.279000  0.392300  0.250500  1.0
  C  C2519  1  0.779000  0.892300  0.249500  1.0
  C  C2520  1  0.721000  0.607700  0.749500  1.0
  C  C2521  1  0.223000  0.089900  0.772600  1.0
  C  C2522  1  0.277000  0.410100  0.272600  1.0
  C  C2523  1  0.777000  0.910100  0.227400  1.0
  C  C2524  1  0.723000  0.589900  0.727400  1.0
  C  C2525  1  0.234500  0.102300  0.795200  1.0
  C  C2526  1  0.265500  0.397700  0.295200  1.0
  C  C2527  1  0.765500  0.897700  0.204800  1.0
  C  C2528  1  0.734500  0.602300  0.704800  1.0
  C  C2529  1  0.234700  0.085100  0.816200  1.0
  C  C2530  1  0.265300  0.414900  0.316200  1.0
  C  C2531  1  0.765300  0.914900  0.183800  1.0
  C  C2532  1  0.734700  0.585100  0.683800  1.0
  C  C2533  1  0.249300  0.097000  0.836700  1.0
  C  C2534  1  0.250700  0.403000  0.336700  1.0
  C  C2535  1  0.750700  0.903000  0.163300  1.0
  C  C2536  1  0.749300  0.597000  0.663300  1.0
  C  C2537  1  0.266100  0.130400  0.836500  1.0
  C  C2538  1  0.233900  0.369600  0.336500  1.0
  C  C2539  1  0.733900  0.869600  0.163500  1.0
  C  C2540  1  0.766100  0.630400  0.663500  1.0
  C  C2541  1  0.285700  0.143300  0.854100  1.0
  C  C2542  1  0.214300  0.356700  0.354100  1.0
  C  C2543  1  0.714300  0.856700  0.145900  1.0
  C  C2544  1  0.785700  0.643300  0.645900  1.0
  C  C2545  1  0.298600  0.175700  0.852600  1.0
  C  C2546  1  0.201400  0.324300  0.352600  1.0
  C  C2547  1  0.701400  0.824300  0.147400  1.0
  C  C2548  1  0.798600  0.675700  0.647400  1.0
  C  C2549  1  0.295700  0.189100  0.828400  1.0
  C  C2550  1  0.204300  0.310900  0.328400  1.0
  C  C2551  1  0.704300  0.810900  0.171600  1.0
  C  C2552  1  0.795700  0.689100  0.671600  1.0
  C  C2553  1  0.265000  0.145100  0.813300  1.0
  C  C2554  1  0.235000  0.354900  0.313300  1.0
  C  C2555  1  0.735000  0.854900  0.186700  1.0
  C  C2556  1  0.765000  0.645100  0.686700  1.0
  C  C2557  1  0.250200  0.133200  0.792500  1.0
  C  C2558  1  0.249800  0.366800  0.292500  1.0
  C  C2559  1  0.749800  0.866800  0.207500  1.0
  C  C2560  1  0.750200  0.633200  0.707500  1.0
  C  C2561  1  0.313100  0.221100  0.821700  1.0
  C  C2562  1  0.186900  0.278900  0.321700  1.0
  C  C2563  1  0.686900  0.778900  0.178300  1.0
  C  C2564  1  0.813100  0.721100  0.678300  1.0
  C  C2565  1  0.327400  0.256300  0.788900  1.0
  C  C2566  1  0.172600  0.243700  0.288900  1.0
  C  C2567  1  0.672600  0.743700  0.211100  1.0
  C  C2568  1  0.827400  0.756300  0.711100  1.0
  C  C2569  1  0.312400  0.277900  0.772300  1.0
  C  C2570  1  0.187600  0.222100  0.272300  1.0
  C  C2571  1  0.687600  0.722100  0.227700  1.0
  C  C2572  1  0.812400  0.777900  0.727700  1.0
  C  C2573  1  0.332700  0.303800  0.763500  1.0
  C  C2574  1  0.167300  0.196200  0.263500  1.0
  C  C2575  1  0.667300  0.696200  0.236500  1.0
  C  C2576  1  0.832700  0.803800  0.736500  1.0
  C  C2577  1  0.366100  0.307100  0.769600  1.0
  C  C2578  1  0.133900  0.192900  0.269600  1.0
  C  C2579  1  0.633900  0.692900  0.230400  1.0
  C  C2580  1  0.866100  0.807100  0.730400  1.0
  C  C2581  1  0.380200  0.284000  0.785600  1.0
  C  C2582  1  0.119800  0.216000  0.285600  1.0
  C  C2583  1  0.619800  0.716000  0.214400  1.0
  C  C2584  1  0.880200  0.784000  0.714400  1.0
  C  C2585  1  0.361400  0.257600  0.793900  1.0
  C  C2586  1  0.138600  0.242400  0.293900  1.0
  C  C2587  1  0.638600  0.742400  0.206100  1.0
  C  C2588  1  0.861400  0.757600  0.706100  1.0
  C  C2589  1  0.331400  0.271600  0.535700  1.0
  C  C2590  1  0.168600  0.228400  0.035700  1.0
  C  C2591  1  0.668600  0.728400  0.464300  1.0
  C  C2592  1  0.831400  0.771600  0.964300  1.0
  C  C2593  1  0.323000  0.249800  0.515300  1.0
  C  C2594  1  0.177000  0.250200  0.015300  1.0
  C  C2595  1  0.677000  0.750200  0.484700  1.0
  C  C2596  1  0.823000  0.749800  0.984700  1.0
  C  C2597  1  0.338600  0.260200  0.494500  1.0
  C  C2598  1  0.161400  0.239800  0.994500  1.0
  C  C2599  1  0.661400  0.739800  0.505500  1.0
  C  C2600  1  0.838600  0.760200  0.005500  1.0
  C  C2601  1  0.364500  0.283100  0.490200  1.0
  C  C2602  1  0.135500  0.216900  0.990200  1.0
  C  C2603  1  0.635500  0.716900  0.509800  1.0
  C  C2604  1  0.864500  0.783100  0.009800  1.0
  C  C2605  1  0.386800  0.294100  0.471400  1.0
  C  C2606  1  0.113200  0.205900  0.971400  1.0
  C  C2607  1  0.613200  0.705900  0.528600  1.0
  C  C2608  1  0.886800  0.794100  0.028600  1.0
  C  C2609  1  0.408200  0.320100  0.471600  1.0
  C  C2610  1  0.091800  0.179900  0.971600  1.0
  C  C2611  1  0.591800  0.679900  0.528400  1.0
  C  C2612  1  0.908200  0.820100  0.028400  1.0
  C  C2613  1  0.414800  0.336400  0.495600  1.0
  C  C2614  1  0.085200  0.163600  0.995600  1.0
  C  C2615  1  0.585200  0.663600  0.504400  1.0
  C  C2616  1  0.914800  0.836400  0.004400  1.0
  C  C2617  1  0.438600  0.360100  0.498800  1.0
  C  C2618  1  0.061400  0.139900  0.998800  1.0
  C  C2619  1  0.561400  0.639900  0.501200  1.0
  C  C2620  1  0.938600  0.860100  0.001200  1.0
  C  C2621  1  0.445200  0.376600  0.521000  1.0
  C  C2622  1  0.054800  0.123400  0.021000  1.0
  C  C2623  1  0.554800  0.623400  0.479000  1.0
  C  C2624  1  0.945200  0.876600  0.979000  1.0
  C  C2625  1  0.423700  0.364900  0.540700  1.0
  C  C2626  1  0.076300  0.135100  0.040700  1.0
  C  C2627  1  0.576300  0.635100  0.459300  1.0
  C  C2628  1  0.923700  0.864900  0.959300  1.0
  C  C2629  1  0.394400  0.326000  0.515500  1.0
  C  C2630  1  0.105600  0.174000  0.015500  1.0
  C  C2631  1  0.605600  0.674000  0.484500  1.0
  C  C2632  1  0.894400  0.826000  0.984500  1.0
  C  C2633  1  0.371700  0.299600  0.513700  1.0
  C  C2634  1  0.128300  0.200400  0.013700  1.0
  C  C2635  1  0.628300  0.700400  0.486300  1.0
  C  C2636  1  0.871700  0.799600  0.986300  1.0
  C  C2637  1  0.427200  0.377300  0.566200  1.0
  C  C2638  1  0.072800  0.122700  0.066200  1.0
  C  C2639  1  0.572800  0.622700  0.433800  1.0
  C  C2640  1  0.927200  0.877300  0.933800  1.0
  C  C2641  1  0.411100  0.368200  0.607100  1.0
  C  C2642  1  0.088900  0.131800  0.107100  1.0
  C  C2643  1  0.588900  0.631800  0.392900  1.0
  C  C2644  1  0.911100  0.868200  0.892900  1.0
  C  C2645  1  0.383100  0.367600  0.622900  1.0
  C  C2646  1  0.116900  0.132400  0.122900  1.0
  C  C2647  1  0.616900  0.632400  0.377100  1.0
  C  C2648  1  0.883100  0.867600  0.877100  1.0
  C  C2649  1  0.388100  0.373200  0.647800  1.0
  C  C2650  1  0.111900  0.126800  0.147800  1.0
  C  C2651  1  0.611900  0.626800  0.352200  1.0
  C  C2652  1  0.888100  0.873200  0.852200  1.0
  C  C2653  1  0.420000  0.378200  0.657900  1.0
  C  C2654  1  0.080000  0.121800  0.157900  1.0
  C  C2655  1  0.580000  0.621800  0.342100  1.0
  C  C2656  1  0.920000  0.878200  0.842100  1.0
  C  C2657  1  0.447100  0.377700  0.641300  1.0
  C  C2658  1  0.052900  0.122300  0.141300  1.0
  C  C2659  1  0.552900  0.622300  0.358700  1.0
  C  C2660  1  0.947100  0.877700  0.858700  1.0
  C  C2661  1  0.442700  0.373200  0.616900  1.0
  C  C2662  1  0.057300  0.126800  0.116900  1.0
  C  C2663  1  0.557300  0.626800  0.383100  1.0
  C  C2664  1  0.942700  0.873200  0.883100  1.0
  C  C2665  1  0.469000  0.480500  0.730900  1.0
  C  C2666  1  0.031000  0.019500  0.230900  1.0
  C  C2667  1  0.531000  0.519500  0.269100  1.0
  C  C2668  1  0.969000  0.980500  0.769100  1.0
  C  C2669  1  0.466000  0.474200  0.755700  1.0
  C  C2670  1  0.034000  0.025800  0.255700  1.0
  C  C2671  1  0.534000  0.525800  0.244300  1.0
  C  C2672  1  0.966000  0.974200  0.744300  1.0
  C  C2673  1  0.478900  0.494100  0.775500  1.0
  C  C2674  1  0.021100  0.005900  0.275500  1.0
  C  C2675  1  0.521100  0.505900  0.224500  1.0
  C  C2676  1  0.978900  0.994100  0.724500  1.0
  C  C2677  1  0.470100  0.480100  0.798000  1.0
  C  C2678  1  0.029900  0.019900  0.298000  1.0
  C  C2679  1  0.529900  0.519900  0.202000  1.0
  C  C2680  1  0.970100  0.980100  0.702000  1.0
  C  C2681  1  0.450300  0.450400  0.791300  1.0
  C  C2682  1  0.049700  0.049600  0.291300  1.0
  C  C2683  1  0.549700  0.549600  0.208700  1.0
  C  C2684  1  0.950300  0.950400  0.708700  1.0
  C  C2685  1  0.433100  0.430100  0.807400  1.0
  C  C2686  1  0.066900  0.069900  0.307400  1.0
  C  C2687  1  0.566900  0.569900  0.192600  1.0
  C  C2688  1  0.933100  0.930100  0.692600  1.0
  C  C2689  1  0.414100  0.401000  0.801400  1.0
  C  C2690  1  0.085900  0.099000  0.301400  1.0
  C  C2691  1  0.585900  0.599000  0.198600  1.0
  C  C2692  1  0.914100  0.901000  0.698600  1.0
  C  C2693  1  0.392200  0.383500  0.817100  1.0
  C  C2694  1  0.107800  0.116500  0.317100  1.0
  C  C2695  1  0.607800  0.616500  0.182900  1.0
  C  C2696  1  0.892200  0.883500  0.682900  1.0
  C  C2697  1  0.379600  0.356900  0.804800  1.0
  C  C2698  1  0.120400  0.143100  0.304800  1.0
  C  C2699  1  0.620400  0.643100  0.195200  1.0
  C  C2700  1  0.879600  0.856900  0.695200  1.0
  C  C2701  1  0.392400  0.359600  0.780800  1.0
  C  C2702  1  0.107600  0.140400  0.280800  1.0
  C  C2703  1  0.607600  0.640400  0.219200  1.0
  C  C2704  1  0.892400  0.859600  0.719200  1.0
  C  C2705  1  0.386400  0.336900  0.761500  1.0
  C  C2706  1  0.113600  0.163100  0.261500  1.0
  C  C2707  1  0.613600  0.663100  0.238500  1.0
  C  C2708  1  0.886400  0.836900  0.738500  1.0
  C  C2709  1  0.395100  0.339900  0.737000  1.0
  C  C2710  1  0.104900  0.160100  0.237000  1.0
  C  C2711  1  0.604900  0.660100  0.263000  1.0
  C  C2712  1  0.895100  0.839900  0.763000  1.0
  C  C2713  1  0.387900  0.317000  0.717200  1.0
  C  C2714  1  0.112100  0.183000  0.217200  1.0
  C  C2715  1  0.612100  0.683000  0.282800  1.0
  C  C2716  1  0.887900  0.817000  0.782800  1.0
  C  C2717  1  0.397900  0.330500  0.696000  1.0
  C  C2718  1  0.102100  0.169500  0.196000  1.0
  C  C2719  1  0.602100  0.669500  0.304000  1.0
  C  C2720  1  0.897900  0.830500  0.804000  1.0
  C  C2721  1  0.413000  0.362100  0.701900  1.0
  C  C2722  1  0.087000  0.137900  0.201900  1.0
  C  C2723  1  0.587000  0.637900  0.298100  1.0
  C  C2724  1  0.913000  0.862100  0.798100  1.0
  C  C2725  1  0.424300  0.385400  0.685000  1.0
  C  C2726  1  0.075700  0.114600  0.185000  1.0
  C  C2727  1  0.575700  0.614600  0.315000  1.0
  C  C2728  1  0.924300  0.885400  0.815000  1.0
  C  C2729  1  0.438100  0.417600  0.690700  1.0
  C  C2730  1  0.061900  0.082400  0.190700  1.0
  C  C2731  1  0.561900  0.582400  0.309300  1.0
  C  C2732  1  0.938100  0.917600  0.809300  1.0
  C  C2733  1  0.446900  0.442700  0.672800  1.0
  C  C2734  1  0.053100  0.057300  0.172800  1.0
  C  C2735  1  0.553100  0.557300  0.327200  1.0
  C  C2736  1  0.946900  0.942700  0.827200  1.0
  C  C2737  1  0.458300  0.469100  0.685800  1.0
  C  C2738  1  0.041700  0.030900  0.185800  1.0
  C  C2739  1  0.541700  0.530900  0.314200  1.0
  C  C2740  1  0.958300  0.969100  0.814200  1.0
  C  C2741  1  0.459400  0.459600  0.711400  1.0
  C  C2742  1  0.040600  0.040400  0.211400  1.0
  C  C2743  1  0.540600  0.540400  0.288600  1.0
  C  C2744  1  0.959400  0.959600  0.788600  1.0
  C  C2745  1  0.025100  0.404300  0.768700  1.0
  C  C2746  1  0.474900  0.095700  0.268700  1.0
  C  C2747  1  0.974900  0.595700  0.231300  1.0
  C  C2748  1  0.525100  0.904300  0.731300  1.0
  C  C2749  1  0.053700  0.388600  0.778400  1.0
  C  C2750  1  0.446300  0.111400  0.278400  1.0
  C  C2751  1  0.946300  0.611400  0.221600  1.0
  C  C2752  1  0.553700  0.888600  0.721600  1.0
  C  C2753  1  0.069200  0.366000  0.761500  1.0
  C  C2754  1  0.430800  0.134000  0.261500  1.0
  C  C2755  1  0.930800  0.634000  0.238500  1.0
  C  C2756  1  0.569200  0.866000  0.738500  1.0
  C  C2757  1  0.058200  0.356000  0.738800  1.0
  C  C2758  1  0.441800  0.144000  0.238800  1.0
  C  C2759  1  0.941800  0.644000  0.261200  1.0
  C  C2760  1  0.558200  0.856000  0.761200  1.0
  C  C2761  1  0.069000  0.332000  0.722900  1.0
  C  C2762  1  0.431000  0.168000  0.222900  1.0
  C  C2763  1  0.931000  0.668000  0.277100  1.0
  C  C2764  1  0.569000  0.832000  0.777100  1.0
  C  C2765  1  0.059400  0.326800  0.700300  1.0
  C  C2766  1  0.440600  0.173200  0.200300  1.0
  C  C2767  1  0.940600  0.673200  0.299700  1.0
  C  C2768  1  0.559400  0.826800  0.799700  1.0
  C  C2769  1  0.025800  0.339000  0.694400  1.0
  C  C2770  1  0.474200  0.161000  0.194400  1.0
  C  C2771  1  0.974200  0.661000  0.305600  1.0
  C  C2772  1  0.525800  0.839000  0.805600  1.0
  C  C2773  1  0.010300  0.334700  0.672000  1.0
  C  C2774  1  0.489700  0.165300  0.172000  1.0
  C  C2775  1  0.989700  0.665300  0.328000  1.0
  C  C2776  1  0.510300  0.834700  0.828000  1.0
  C  C2777  1  0.979200  0.349800  0.665700  1.0
  C  C2778  1  0.520800  0.150200  0.165700  1.0
  C  C2779  1  0.020800  0.650200  0.334300  1.0
  C  C2780  1  0.479200  0.849800  0.834300  1.0
  C  C2781  1  0.967100  0.371300  0.684400  1.0
  C  C2782  1  0.532900  0.128700  0.184400  1.0
  C  C2783  1  0.032900  0.628700  0.315600  1.0
  C  C2784  1  0.467100  0.871300  0.815600  1.0
  C  C2785  1  0.013500  0.363400  0.709400  1.0
  C  C2786  1  0.486500  0.136600  0.209400  1.0
  C  C2787  1  0.986500  0.636600  0.290600  1.0
  C  C2788  1  0.513500  0.863400  0.790600  1.0
  C  C2789  1  0.026900  0.373100  0.733000  1.0
  C  C2790  1  0.473100  0.126900  0.233000  1.0
  C  C2791  1  0.973100  0.626900  0.267000  1.0
  C  C2792  1  0.526900  0.873100  0.767000  1.0
  C  C2793  1  0.934400  0.388400  0.682800  1.0
  C  C2794  1  0.565600  0.111600  0.182800  1.0
  C  C2795  1  0.065600  0.611600  0.317200  1.0
  C  C2796  1  0.434400  0.888400  0.817200  1.0
  C  C2797  1  0.898200  0.424400  0.704600  1.0
  C  C2798  1  0.601800  0.075600  0.204600  1.0
  C  C2799  1  0.101800  0.575600  0.295400  1.0
  C  C2800  1  0.398200  0.924400  0.795400  1.0
  C  C2801  1  0.895500  0.455700  0.713800  1.0
  C  C2802  1  0.604500  0.044300  0.213800  1.0
  C  C2803  1  0.104500  0.544300  0.286200  1.0
  C  C2804  1  0.395500  0.955700  0.786200  1.0
  C  C2805  1  0.864000  0.470000  0.717000  1.0
  C  C2806  1  0.636000  0.030000  0.217000  1.0
  C  C2807  1  0.136000  0.530000  0.283000  1.0
  C  C2808  1  0.364000  0.970000  0.783000  1.0
  C  C2809  1  0.835600  0.449100  0.714900  1.0
  C  C2810  1  0.664400  0.050900  0.214900  1.0
  C  C2811  1  0.164400  0.550900  0.285100  1.0
  C  C2812  1  0.335600  0.949100  0.785100  1.0
  C  C2813  1  0.838800  0.418100  0.704700  1.0
  C  C2814  1  0.661200  0.081900  0.204700  1.0
  C  C2815  1  0.161200  0.581900  0.295300  1.0
  C  C2816  1  0.338800  0.918100  0.795300  1.0
  C  C2817  1  0.870200  0.405000  0.699500  1.0
  C  C2818  1  0.629800  0.095000  0.199500  1.0
  C  C2819  1  0.129800  0.595000  0.300500  1.0
  C  C2820  1  0.370200  0.905000  0.800500  1.0
  C  C2821  1  0.864200  0.464300  0.944600  1.0
  C  C2822  1  0.635800  0.035700  0.444600  1.0
  C  C2823  1  0.135800  0.535700  0.055400  1.0
  C  C2824  1  0.364200  0.964300  0.555400  1.0
  C  C2825  1  0.879700  0.457700  0.968900  1.0
  C  C2826  1  0.620300  0.042300  0.468900  1.0
  C  C2827  1  0.120300  0.542300  0.031100  1.0
  C  C2828  1  0.379700  0.957700  0.531100  1.0
  C  C2829  1  0.864000  0.473500  0.988000  1.0
  C  C2830  1  0.636000  0.026500  0.488000  1.0
  C  C2831  1  0.136000  0.526500  0.012000  1.0
  C  C2832  1  0.364000  0.973500  0.512000  1.0
  C  C2833  1  0.838300  0.496500  0.988100  1.0
  C  C2834  1  0.661700  0.003500  0.488100  1.0
  C  C2835  1  0.161700  0.503500  0.011900  1.0
  C  C2836  1  0.338300  0.996500  0.511900  1.0
  C  C2837  1  0.820900  0.510800  0.007300  1.0
  C  C2838  1  0.679100  0.989200  0.507300  1.0
  C  C2839  1  0.179100  0.489200  0.992700  1.0
  C  C2840  1  0.320900  0.010800  0.492700  1.0
  C  C2841  1  0.793700  0.531400  0.003800  1.0
  C  C2842  1  0.706300  0.968600  0.503800  1.0
  C  C2843  1  0.206300  0.468600  0.996200  1.0
  C  C2844  1  0.293700  0.031400  0.496200  1.0
  C  C2845  1  0.781900  0.532700  0.979500  1.0
  C  C2846  1  0.718100  0.967300  0.479500  1.0
  C  C2847  1  0.218100  0.467300  0.020500  1.0
  C  C2848  1  0.281900  0.032700  0.520500  1.0
  C  C2849  1  0.752600  0.550900  0.974200  1.0
  C  C2850  1  0.747400  0.949100  0.474200  1.0
  C  C2851  1  0.247400  0.449100  0.025800  1.0
  C  C2852  1  0.252600  0.050900  0.525800  1.0
  C  C2853  1  0.742300  0.554300  0.949800  1.0
  C  C2854  1  0.757700  0.945700  0.449800  1.0
  C  C2855  1  0.257700  0.445700  0.050200  1.0
  C  C2856  1  0.242300  0.054300  0.550200  1.0
  C  C2857  1  0.760100  0.541400  0.930600  1.0
  C  C2858  1  0.739900  0.958600  0.430600  1.0
  C  C2859  1  0.239900  0.458600  0.069400  1.0
  C  C2860  1  0.260100  0.041400  0.569400  1.0
  C  C2861  1  0.799600  0.519600  0.959100  1.0
  C  C2862  1  0.700400  0.980400  0.459100  1.0
  C  C2863  1  0.200400  0.480400  0.040900  1.0
  C  C2864  1  0.299600  0.019600  0.540900  1.0
  C  C2865  1  0.828900  0.502900  0.963600  1.0
  C  C2866  1  0.671100  0.997100  0.463600  1.0
  C  C2867  1  0.171100  0.497100  0.036400  1.0
  C  C2868  1  0.328900  0.002900  0.536400  1.0
  C  C2869  1  0.752000  0.540700  0.905000  1.0
  C  C2870  1  0.748000  0.959300  0.405000  1.0
  C  C2871  1  0.248000  0.459300  0.095000  1.0
  C  C2872  1  0.252000  0.040700  0.595000  1.0
  C  C2873  1  0.763400  0.521000  0.866400  1.0
  C  C2874  1  0.736600  0.979000  0.366400  1.0
  C  C2875  1  0.236600  0.479000  0.133600  1.0
  C  C2876  1  0.263400  0.021000  0.633600  1.0
  C  C2877  1  0.733600  0.505400  0.860300  1.0
  C  C2878  1  0.766400  0.994600  0.360300  1.0
  C  C2879  1  0.266400  0.494600  0.139700  1.0
  C  C2880  1  0.233600  0.005400  0.639700  1.0
  C  C2881  1  0.725800  0.498900  0.835900  1.0
  C  C2882  1  0.774200  0.001100  0.335900  1.0
  C  C2883  1  0.274200  0.501100  0.164100  1.0
  C  C2884  1  0.225800  0.998900  0.664100  1.0
  C  C2885  1  0.749100  0.507500  0.816700  1.0
  C  C2886  1  0.750900  0.992500  0.316700  1.0
  C  C2887  1  0.250900  0.492500  0.183300  1.0
  C  C2888  1  0.249100  0.007500  0.683300  1.0
  C  C2889  1  0.779700  0.522400  0.824200  1.0
  C  C2890  1  0.720300  0.977600  0.324200  1.0
  C  C2891  1  0.220300  0.477600  0.175800  1.0
  C  C2892  1  0.279700  0.022400  0.675800  1.0
  C  C2893  1  0.787500  0.526600  0.848200  1.0
  C  C2894  1  0.712500  0.973400  0.348200  1.0
  C  C2895  1  0.212500  0.473400  0.151800  1.0
  C  C2896  1  0.287500  0.026600  0.651800  1.0
  C  C2897  1  0.459700  0.672200  0.683900  1.0
  C  C2898  1  0.040300  0.827800  0.183900  1.0
  C  C2899  1  0.540300  0.327800  0.316100  1.0
  C  C2900  1  0.959700  0.172200  0.816100  1.0
  C  C2901  1  0.426200  0.685600  0.677200  1.0
  C  C2902  1  0.073800  0.814400  0.177200  1.0
  C  C2903  1  0.573800  0.314400  0.322800  1.0
  C  C2904  1  0.926200  0.185600  0.822800  1.0
  C  C2905  1  0.404700  0.692800  0.696900  1.0
  C  C2906  1  0.095300  0.807200  0.196900  1.0
  C  C2907  1  0.595300  0.307200  0.303100  1.0
  C  C2908  1  0.904700  0.192800  0.803100  1.0
  C  C2909  1  0.412100  0.686000  0.721800  1.0
  C  C2910  1  0.087900  0.814000  0.221800  1.0
  C  C2911  1  0.587900  0.314000  0.278200  1.0
  C  C2912  1  0.912100  0.186000  0.778200  1.0
  C  C2913  1  0.394700  0.698600  0.740700  1.0
  C  C2914  1  0.105300  0.801400  0.240700  1.0
  C  C2915  1  0.605300  0.301400  0.259300  1.0
  C  C2916  1  0.894700  0.198600  0.759300  1.0
  C  C2917  1  0.402300  0.691200  0.764300  1.0
  C  C2918  1  0.097700  0.808800  0.264300  1.0
  C  C2919  1  0.597700  0.308800  0.235700  1.0
  C  C2920  1  0.902300  0.191200  0.735700  1.0
  C  C2921  1  0.434500  0.674200  0.770200  1.0
  C  C2922  1  0.065500  0.825800  0.270200  1.0
  C  C2923  1  0.565500  0.325800  0.229800  1.0
  C  C2924  1  0.934500  0.174200  0.729800  1.0
  C  C2925  1  0.444100  0.663300  0.792600  1.0
  C  C2926  1  0.055900  0.836700  0.292600  1.0
  C  C2927  1  0.555900  0.336700  0.207400  1.0
  C  C2928  1  0.944100  0.163300  0.707400  1.0
  C  C2929  1  0.474300  0.647000  0.795400  1.0
  C  C2930  1  0.025700  0.853000  0.295400  1.0
  C  C2931  1  0.525700  0.353000  0.204600  1.0
  C  C2932  1  0.974300  0.147000  0.704600  1.0
  C  C2933  1  0.492800  0.642500  0.773100  1.0
  C  C2934  1  0.007200  0.857500  0.273100  1.0
  C  C2935  1  0.507200  0.357500  0.226900  1.0
  C  C2936  1  0.992800  0.142500  0.726900  1.0
  C  C2937  1  0.452800  0.667700  0.749200  1.0
  C  C2938  1  0.047200  0.832300  0.249200  1.0
  C  C2939  1  0.547200  0.332300  0.250800  1.0
  C  C2940  1  0.952800  0.167700  0.750800  1.0
  C  C2941  1  0.444600  0.674200  0.725300  1.0
  C  C2942  1  0.055400  0.825800  0.225300  1.0
  C  C2943  1  0.555400  0.325800  0.274700  1.0
  C  C2944  1  0.944600  0.174200  0.774700  1.0
  C  C2945  1  0.525800  0.624600  0.772900  1.0
  C  C2946  1  0.974200  0.875400  0.272900  1.0
  C  C2947  1  0.474200  0.375400  0.227100  1.0
  C  C2948  1  0.025800  0.124600  0.727100  1.0
  C  C2949  1  0.567200  0.602100  0.747700  1.0
  C  C2950  1  0.932800  0.897900  0.247700  1.0
  C  C2951  1  0.432800  0.397900  0.252300  1.0
  C  C2952  1  0.067200  0.102100  0.752300  1.0
  C  C2953  1  0.568300  0.572000  0.759900  1.0
  C  C2954  1  0.931700  0.928000  0.259900  1.0
  C  C2955  1  0.431700  0.428000  0.240100  1.0
  C  C2956  1  0.068300  0.072000  0.740100  1.0
  C  C2957  1  0.595600  0.551300  0.755900  1.0
  C  C2958  1  0.904400  0.948700  0.255900  1.0
  C  C2959  1  0.404400  0.448700  0.244100  1.0
  C  C2960  1  0.095600  0.051300  0.744100  1.0
  C  C2961  1  0.620800  0.558600  0.739400  1.0
  C  C2962  1  0.879200  0.941400  0.239400  1.0
  C  C2963  1  0.379200  0.441400  0.260600  1.0
  C  C2964  1  0.120800  0.058600  0.760600  1.0
  C  C2965  1  0.618600  0.589000  0.727600  1.0
  C  C2966  1  0.881400  0.911000  0.227600  1.0
  C  C2967  1  0.381400  0.411000  0.272400  1.0
  C  C2968  1  0.118600  0.089000  0.772400  1.0
  C  C2969  1  0.591500  0.609100  0.729800  1.0
  C  C2970  1  0.908500  0.890900  0.229800  1.0
  C  C2971  1  0.408500  0.390900  0.270200  1.0
  C  C2972  1  0.091500  0.109100  0.770200  1.0
  C  C2973  1  0.606400  0.543000  0.504100  1.0
  C  C2974  1  0.893600  0.957000  0.004100  1.0
  C  C2975  1  0.393600  0.457000  0.495900  1.0
  C  C2976  1  0.106400  0.043000  0.995900  1.0
  C  C2977  1  0.588800  0.544700  0.481300  1.0
  C  C2978  1  0.911200  0.955300  0.981300  1.0
  C  C2979  1  0.411200  0.455300  0.518700  1.0
  C  C2980  1  0.088800  0.044700  0.018700  1.0
  C  C2981  1  0.607600  0.534600  0.461800  1.0
  C  C2982  1  0.892400  0.965400  0.961800  1.0
  C  C2983  1  0.392400  0.465400  0.538200  1.0
  C  C2984  1  0.107600  0.034600  0.038200  1.0
  C  C2985  1  0.638300  0.518100  0.460900  1.0
  C  C2986  1  0.861700  0.981900  0.960900  1.0
  C  C2987  1  0.361700  0.481900  0.539100  1.0
  C  C2988  1  0.138300  0.018100  0.039100  1.0
  C  C2989  1  0.658300  0.500600  0.443900  1.0
  C  C2990  1  0.841700  0.999400  0.943900  1.0
  C  C2991  1  0.341700  0.499400  0.556100  1.0
  C  C2992  1  0.158300  0.000600  0.056100  1.0
  C  C2993  1  0.687700  0.484600  0.447000  1.0
  C  C2994  1  0.812300  0.015400  0.947000  1.0
  C  C2995  1  0.312300  0.515400  0.553000  1.0
  C  C2996  1  0.187700  0.984600  0.053000  1.0
  C  C2997  1  0.698200  0.481600  0.472900  1.0
  C  C2998  1  0.801800  0.018400  0.972900  1.0
  C  C2999  1  0.301800  0.518400  0.527100  1.0
  C  C3000  1  0.198200  0.981600  0.027100  1.0
  C  C3001  1  0.724000  0.460500  0.478700  1.0
  C  C3002  1  0.776000  0.039500  0.978700  1.0
  C  C3003  1  0.276000  0.539500  0.521300  1.0
  C  C3004  1  0.224000  0.960500  0.021300  1.0
  C  C3005  1  0.733300  0.456200  0.503700  1.0
  C  C3006  1  0.766700  0.043800  0.003700  1.0
  C  C3007  1  0.266700  0.543800  0.496300  1.0
  C  C3008  1  0.233300  0.956200  0.996300  1.0
  C  C3009  1  0.715100  0.475600  0.521200  1.0
  C  C3010  1  0.784900  0.024400  0.021200  1.0
  C  C3011  1  0.284900  0.524400  0.478800  1.0
  C  C3012  1  0.215100  0.975600  0.978800  1.0
  C  C3013  1  0.678700  0.497500  0.491100  1.0
  C  C3014  1  0.821300  0.002500  0.991100  1.0
  C  C3015  1  0.321300  0.502500  0.508900  1.0
  C  C3016  1  0.178700  0.997500  0.008900  1.0
  C  C3017  1  0.649100  0.514600  0.486300  1.0
  C  C3018  1  0.850900  0.985400  0.986300  1.0
  C  C3019  1  0.350900  0.485400  0.513700  1.0
  C  C3020  1  0.149100  0.014600  0.013700  1.0
  C  C3021  1  0.719300  0.474000  0.548200  1.0
  C  C3022  1  0.780700  0.026000  0.048200  1.0
  C  C3023  1  0.280700  0.526000  0.451800  1.0
  C  C3024  1  0.219300  0.974000  0.951800  1.0
  C  C3025  1  0.702800  0.493400  0.586900  1.0
  C  C3026  1  0.797200  0.006600  0.086900  1.0
  C  C3027  1  0.297200  0.506600  0.413100  1.0
  C  C3028  1  0.202800  0.993400  0.913100  1.0
  C  C3029  1  0.708300  0.463100  0.599300  1.0
  C  C3030  1  0.791700  0.036900  0.099300  1.0
  C  C3031  1  0.291700  0.536900  0.400700  1.0
  C  C3032  1  0.208300  0.963100  0.900700  1.0
  C  C3033  1  0.709700  0.463700  0.625000  1.0
  C  C3034  1  0.790300  0.036300  0.125000  1.0
  C  C3035  1  0.290300  0.536300  0.375000  1.0
  C  C3036  1  0.209700  0.963700  0.875000  1.0
  C  C3037  1  0.705700  0.493400  0.638400  1.0
  C  C3038  1  0.794300  0.006600  0.138400  1.0
  C  C3039  1  0.294300  0.506600  0.361600  1.0
  C  C3040  1  0.205700  0.993400  0.861600  1.0
  C  C3041  1  0.698900  0.522000  0.624800  1.0
  C  C3042  1  0.801100  0.978000  0.124800  1.0
  C  C3043  1  0.301100  0.478000  0.375200  1.0
  C  C3044  1  0.198900  0.022000  0.875200  1.0
  C  C3045  1  0.698300  0.522500  0.599800  1.0
  C  C3046  1  0.801700  0.977500  0.099800  1.0
  C  C3047  1  0.301700  0.477500  0.400200  1.0
  C  C3048  1  0.198300  0.022500  0.900200  1.0
  C  C3049  1  0.801900  0.463700  0.718900  1.0
  C  C3050  1  0.698100  0.036300  0.218900  1.0
  C  C3051  1  0.198100  0.536300  0.281100  1.0
  C  C3052  1  0.301900  0.963700  0.781100  1.0
  C  C3053  1  0.792800  0.469500  0.743000  1.0
  C  C3054  1  0.707200  0.030500  0.243000  1.0
  C  C3055  1  0.207200  0.530500  0.257000  1.0
  C  C3056  1  0.292800  0.969500  0.757000  1.0
  C  C3057  1  0.811400  0.462100  0.764900  1.0
  C  C3058  1  0.688600  0.037900  0.264900  1.0
  C  C3059  1  0.188600  0.537900  0.235100  1.0
  C  C3060  1  0.311400  0.962100  0.735100  1.0
  C  C3061  1  0.795600  0.473700  0.785400  1.0
  C  C3062  1  0.704400  0.026300  0.285400  1.0
  C  C3063  1  0.204400  0.526300  0.214600  1.0
  C  C3064  1  0.295600  0.973700  0.714600  1.0
  C  C3065  1  0.765100  0.489200  0.775700  1.0
  C  C3066  1  0.734900  0.010800  0.275700  1.0
  C  C3067  1  0.234900  0.510800  0.224300  1.0
  C  C3068  1  0.265100  0.989200  0.724300  1.0
  C  C3069  1  0.741100  0.503900  0.790200  1.0
  C  C3070  1  0.758900  0.996100  0.290200  1.0
  C  C3071  1  0.258900  0.496100  0.209800  1.0
  C  C3072  1  0.241100  0.003900  0.709800  1.0
  C  C3073  1  0.711100  0.518300  0.782200  1.0
  C  C3074  1  0.788900  0.981700  0.282200  1.0
  C  C3075  1  0.288900  0.481700  0.217800  1.0
  C  C3076  1  0.211100  0.018300  0.717800  1.0
  C  C3077  1  0.689500  0.538500  0.796000  1.0
  C  C3078  1  0.810500  0.961500  0.296000  1.0
  C  C3079  1  0.310500  0.461500  0.204000  1.0
  C  C3080  1  0.189500  0.038500  0.704000  1.0
  C  C3081  1  0.664900  0.549200  0.781100  1.0
  C  C3082  1  0.835100  0.950800  0.281100  1.0
  C  C3083  1  0.335100  0.450800  0.218900  1.0
  C  C3084  1  0.164900  0.049200  0.718900  1.0
  C  C3085  1  0.669900  0.532600  0.758000  1.0
  C  C3086  1  0.830100  0.967400  0.258000  1.0
  C  C3087  1  0.330100  0.467400  0.242000  1.0
  C  C3088  1  0.169900  0.032600  0.742000  1.0
  C  C3089  1  0.650400  0.536000  0.736800  1.0
  C  C3090  1  0.849600  0.964000  0.236800  1.0
  C  C3091  1  0.349600  0.464000  0.263200  1.0
  C  C3092  1  0.150400  0.036000  0.763200  1.0
  C  C3093  1  0.657300  0.526000  0.713000  1.0
  C  C3094  1  0.842700  0.974000  0.213000  1.0
  C  C3095  1  0.342700  0.474000  0.287000  1.0
  C  C3096  1  0.157300  0.026000  0.787000  1.0
  C  C3097  1  0.635900  0.529200  0.691600  1.0
  C  C3098  1  0.864100  0.970800  0.191600  1.0
  C  C3099  1  0.364100  0.470800  0.308400  1.0
  C  C3100  1  0.135900  0.029200  0.808400  1.0
  C  C3101  1  0.651900  0.517200  0.671700  1.0
  C  C3102  1  0.848100  0.982800  0.171700  1.0
  C  C3103  1  0.348100  0.482800  0.328300  1.0
  C  C3104  1  0.151900  0.017200  0.828300  1.0
  C  C3105  1  0.683900  0.506400  0.680300  1.0
  C  C3106  1  0.816100  0.993600  0.180300  1.0
  C  C3107  1  0.316100  0.493600  0.319700  1.0
  C  C3108  1  0.183900  0.006400  0.819700  1.0
  C  C3109  1  0.709100  0.493100  0.666100  1.0
  C  C3110  1  0.790900  0.006900  0.166100  1.0
  C  C3111  1  0.290900  0.506900  0.333900  1.0
  C  C3112  1  0.209100  0.993100  0.833900  1.0
  C  C3113  1  0.741400  0.482800  0.674000  1.0
  C  C3114  1  0.758600  0.017200  0.174000  1.0
  C  C3115  1  0.258600  0.517200  0.326000  1.0
  C  C3116  1  0.241400  0.982800  0.826000  1.0
  C  C3117  1  0.768800  0.474200  0.657600  1.0
  C  C3118  1  0.731200  0.025800  0.157600  1.0
  C  C3119  1  0.231200  0.525800  0.342400  1.0
  C  C3120  1  0.268800  0.974200  0.842400  1.0
  C  C3121  1  0.793200  0.466400  0.673100  1.0
  C  C3122  1  0.706800  0.033600  0.173100  1.0
  C  C3123  1  0.206800  0.533600  0.326900  1.0
  C  C3124  1  0.293200  0.966400  0.826900  1.0
  C  C3125  1  0.783600  0.471600  0.697900  1.0
  C  C3126  1  0.716400  0.028400  0.197900  1.0
  C  C3127  1  0.216400  0.528400  0.302100  1.0
  C  C3128  1  0.283600  0.971600  0.802100  1.0
  C  C3129  1  0.897400  0.149400  0.547000  1.0
  C  C3130  1  0.602600  0.350600  0.047000  1.0
  C  C3131  1  0.102600  0.850600  0.453000  1.0
  C  C3132  1  0.397400  0.649400  0.953000  1.0
  C  C3133  1  0.925900  0.128800  0.543600  1.0
  C  C3134  1  0.574100  0.371200  0.043600  1.0
  C  C3135  1  0.074100  0.871200  0.456400  1.0
  C  C3136  1  0.425900  0.628800  0.956400  1.0
  C  C3137  1  0.955700  0.142000  0.553400  1.0
  C  C3138  1  0.544300  0.358000  0.053400  1.0
  C  C3139  1  0.044300  0.858000  0.446600  1.0
  C  C3140  1  0.455700  0.642000  0.946600  1.0
  C  C3141  1  0.959500  0.171800  0.564500  1.0
  C  C3142  1  0.540500  0.328200  0.064500  1.0
  C  C3143  1  0.040500  0.828200  0.435500  1.0
  C  C3144  1  0.459500  0.671800  0.935500  1.0
  C  C3145  1  0.987300  0.188500  0.572400  1.0
  C  C3146  1  0.512700  0.311500  0.072400  1.0
  C  C3147  1  0.012700  0.811500  0.427600  1.0
  C  C3148  1  0.487300  0.688500  0.927600  1.0
  C  C3149  1  0.989700  0.217500  0.583100  1.0
  C  C3150  1  0.510300  0.282500  0.083100  1.0
  C  C3151  1  0.010300  0.782500  0.416900  1.0
  C  C3152  1  0.489700  0.717500  0.916900  1.0
  C  C3153  1  0.959400  0.237500  0.583900  1.0
  C  C3154  1  0.540600  0.262500  0.083900  1.0
  C  C3155  1  0.040600  0.762500  0.416100  1.0
  C  C3156  1  0.459400  0.737500  0.916100  1.0
  C  C3157  1  0.957900  0.267900  0.595300  1.0
  C  C3158  1  0.542100  0.232100  0.095300  1.0
  C  C3159  1  0.042100  0.732100  0.404700  1.0
  C  C3160  1  0.457900  0.767900  0.904700  1.0
  C  C3161  1  0.927400  0.286200  0.596000  1.0
  C  C3162  1  0.572600  0.213800  0.096000  1.0
  C  C3163  1  0.072600  0.713800  0.404000  1.0
  C  C3164  1  0.427400  0.786200  0.904000  1.0
  C  C3165  1  0.899200  0.269000  0.587000  1.0
  C  C3166  1  0.600800  0.231000  0.087000  1.0
  C  C3167  1  0.100800  0.731000  0.413000  1.0
  C  C3168  1  0.399200  0.769000  0.913000  1.0
  C  C3169  1  0.930400  0.223100  0.576000  1.0
  C  C3170  1  0.569600  0.276900  0.076000  1.0
  C  C3171  1  0.069600  0.776900  0.424000  1.0
  C  C3172  1  0.430400  0.723100  0.924000  1.0
  C  C3173  1  0.928400  0.190700  0.564800  1.0
  C  C3174  1  0.571600  0.309300  0.064800  1.0
  C  C3175  1  0.071600  0.809300  0.435200  1.0
  C  C3176  1  0.428400  0.690700  0.935200  1.0
  C  C3177  1  0.864500  0.282600  0.588600  1.0
  C  C3178  1  0.635500  0.217400  0.088600  1.0
  C  C3179  1  0.135500  0.717400  0.411400  1.0
  C  C3180  1  0.364500  0.782600  0.911400  1.0
  C  C3181  1  0.807200  0.271500  0.583400  1.0
  C  C3182  1  0.692800  0.228500  0.083400  1.0
  C  C3183  1  0.192800  0.728500  0.416600  1.0
  C  C3184  1  0.307200  0.771500  0.916600  1.0
  C  C3185  1  0.784800  0.260100  0.566800  1.0
  C  C3186  1  0.715200  0.239900  0.066800  1.0
  C  C3187  1  0.215200  0.739900  0.433200  1.0
  C  C3188  1  0.284800  0.760100  0.933200  1.0
  C  C3189  1  0.750500  0.264800  0.571500  1.0
  C  C3190  1  0.749500  0.235200  0.071500  1.0
  C  C3191  1  0.249500  0.735200  0.428500  1.0
  C  C3192  1  0.250500  0.764800  0.928500  1.0
  C  C3193  1  0.738900  0.277700  0.593800  1.0
  C  C3194  1  0.761100  0.222300  0.093800  1.0
  C  C3195  1  0.261100  0.722300  0.406200  1.0
  C  C3196  1  0.238900  0.777700  0.906200  1.0
  C  C3197  1  0.761900  0.287300  0.611200  1.0
  C  C3198  1  0.738100  0.212700  0.111200  1.0
  C  C3199  1  0.238100  0.712700  0.388800  1.0
  C  C3200  1  0.261900  0.787300  0.888800  1.0
  C  C3201  1  0.795900  0.283000  0.606300  1.0
  C  C3202  1  0.704100  0.217000  0.106300  1.0
  C  C3203  1  0.204100  0.717000  0.393700  1.0
  C  C3204  1  0.295900  0.783000  0.893700  1.0
  C  C3205  1  0.731200  0.561100  0.517300  1.0
  C  C3206  1  0.768800  0.938900  0.017300  1.0
  C  C3207  1  0.268800  0.438900  0.482700  1.0
  C  C3208  1  0.231200  0.061100  0.982700  1.0
  C  C3209  1  0.751900  0.591100  0.512300  1.0
  C  C3210  1  0.748100  0.908900  0.012300  1.0
  C  C3211  1  0.248100  0.408900  0.487700  1.0
  C  C3212  1  0.251900  0.091100  0.987700  1.0
  C  C3213  1  0.738400  0.620400  0.521000  1.0
  C  C3214  1  0.761600  0.879600  0.021000  1.0
  C  C3215  1  0.261600  0.379600  0.479000  1.0
  C  C3216  1  0.238400  0.120400  0.979000  1.0
  C  C3217  1  0.708100  0.625000  0.533500  1.0
  C  C3218  1  0.791900  0.875000  0.033500  1.0
  C  C3219  1  0.291900  0.375000  0.466500  1.0
  C  C3220  1  0.208100  0.125000  0.966500  1.0
  C  C3221  1  0.694700  0.653400  0.543600  1.0
  C  C3222  1  0.805300  0.846600  0.043600  1.0
  C  C3223  1  0.305300  0.346600  0.456400  1.0
  C  C3224  1  0.194700  0.153400  0.956400  1.0
  C  C3225  1  0.666000  0.653400  0.558100  1.0
  C  C3226  1  0.834000  0.846600  0.058100  1.0
  C  C3227  1  0.334000  0.346600  0.441900  1.0
  C  C3228  1  0.166000  0.153400  0.941900  1.0
  C  C3229  1  0.649900  0.623400  0.561000  1.0
  C  C3230  1  0.850100  0.876600  0.061000  1.0
  C  C3231  1  0.350100  0.376600  0.439000  1.0
  C  C3232  1  0.149900  0.123400  0.939000  1.0
  C  C3233  1  0.618800  0.621900  0.573800  1.0
  C  C3234  1  0.881200  0.878100  0.073800  1.0
  C  C3235  1  0.381200  0.378100  0.426200  1.0
  C  C3236  1  0.118800  0.121900  0.926200  1.0
  C  C3237  1  0.604500  0.591200  0.578000  1.0
  C  C3238  1  0.895500  0.908800  0.078000  1.0
  C  C3239  1  0.395500  0.408800  0.422000  1.0
  C  C3240  1  0.104500  0.091200  0.922000  1.0
  C  C3241  1  0.618500  0.562100  0.569700  1.0
  C  C3242  1  0.881500  0.937900  0.069700  1.0
  C  C3243  1  0.381500  0.437900  0.430300  1.0
  C  C3244  1  0.118500  0.062100  0.930300  1.0
  C  C3245  1  0.662400  0.593700  0.550600  1.0
  C  C3246  1  0.837600  0.906300  0.050600  1.0
  C  C3247  1  0.337600  0.406300  0.449400  1.0
  C  C3248  1  0.162400  0.093700  0.949400  1.0
  C  C3249  1  0.693400  0.594000  0.538500  1.0
  C  C3250  1  0.806600  0.906000  0.038500  1.0
  C  C3251  1  0.306600  0.406000  0.461500  1.0
  C  C3252  1  0.193400  0.094000  0.961500  1.0
  C  C3253  1  0.611100  0.527700  0.573800  1.0
  C  C3254  1  0.888900  0.972300  0.073800  1.0
  C  C3255  1  0.388900  0.472300  0.426200  1.0
  C  C3256  1  0.111100  0.027700  0.926200  1.0
  C  C3257  1  0.622500  0.470800  0.570400  1.0
  C  C3258  1  0.877500  0.029200  0.070400  1.0
  C  C3259  1  0.377500  0.529200  0.429600  1.0
  C  C3260  1  0.122500  0.970800  0.929600  1.0
  C  C3261  1  0.615200  0.460500  0.594200  1.0
  C  C3262  1  0.884800  0.039500  0.094200  1.0
  C  C3263  1  0.384800  0.539500  0.405800  1.0
  C  C3264  1  0.115200  0.960500  0.905800  1.0
  C  C3265  1  0.611200  0.427600  0.600700  1.0
  C  C3266  1  0.888800  0.072400  0.100700  1.0
  C  C3267  1  0.388800  0.572400  0.399300  1.0
  C  C3268  1  0.111200  0.927600  0.899300  1.0
  C  C3269  1  0.619300  0.401300  0.584100  1.0
  C  C3270  1  0.880700  0.098700  0.084100  1.0
  C  C3271  1  0.380700  0.598700  0.415900  1.0
  C  C3272  1  0.119300  0.901300  0.915900  1.0
  C  C3273  1  0.627900  0.412500  0.560000  1.0
  C  C3274  1  0.872100  0.087500  0.060000  1.0
  C  C3275  1  0.372100  0.587500  0.440000  1.0
  C  C3276  1  0.127900  0.912500  0.940000  1.0
  C  C3277  1  0.630400  0.445000  0.553700  1.0
  C  C3278  1  0.869600  0.055000  0.053700  1.0
  C  C3279  1  0.369600  0.555000  0.446300  1.0
  C  C3280  1  0.130400  0.945000  0.946300  1.0
  C  C3281  1  0.332500  0.390200  0.542700  1.0
  C  C3282  1  0.167500  0.109800  0.042700  1.0
  C  C3283  1  0.667500  0.609800  0.457300  1.0
  C  C3284  1  0.832500  0.890200  0.957300  1.0
  C  C3285  1  0.302500  0.411100  0.537900  1.0
  C  C3286  1  0.197500  0.088900  0.037900  1.0
  C  C3287  1  0.697500  0.588900  0.462100  1.0
  C  C3288  1  0.802500  0.911100  0.962100  1.0
  C  C3289  1  0.274000  0.402900  0.551400  1.0
  C  C3290  1  0.226000  0.097100  0.051400  1.0
  C  C3291  1  0.726000  0.597100  0.448600  1.0
  C  C3292  1  0.774000  0.902900  0.948600  1.0
  C  C3293  1  0.272300  0.376700  0.568600  1.0
  C  C3294  1  0.227700  0.123300  0.068600  1.0
  C  C3295  1  0.727700  0.623300  0.431400  1.0
  C  C3296  1  0.772300  0.876700  0.931400  1.0
  C  C3297  1  0.243600  0.367500  0.579900  1.0
  C  C3298  1  0.256400  0.132500  0.079900  1.0
  C  C3299  1  0.756400  0.632500  0.420100  1.0
  C  C3300  1  0.743600  0.867500  0.920100  1.0
  C  C3301  1  0.243400  0.341200  0.595100  1.0
  C  C3302  1  0.256600  0.158800  0.095100  1.0
  C  C3303  1  0.756600  0.658800  0.404900  1.0
  C  C3304  1  0.743400  0.841200  0.904900  1.0
  C  C3305  1  0.273800  0.320500  0.598700  1.0
  C  C3306  1  0.226200  0.179500  0.098700  1.0
  C  C3307  1  0.726200  0.679500  0.401300  1.0
  C  C3308  1  0.773800  0.820500  0.901300  1.0
  C  C3309  1  0.277600  0.295400  0.614800  1.0
  C  C3310  1  0.222400  0.204600  0.114800  1.0
  C  C3311  1  0.722400  0.704600  0.385200  1.0
  C  C3312  1  0.777600  0.795400  0.885200  1.0
  C  C3313  1  0.307100  0.277800  0.617400  1.0
  C  C3314  1  0.192900  0.222200  0.117400  1.0
  C  C3315  1  0.692900  0.722200  0.382600  1.0
  C  C3316  1  0.807100  0.777800  0.882600  1.0
  C  C3317  1  0.334100  0.290800  0.603600  1.0
  C  C3318  1  0.165900  0.209200  0.103600  1.0
  C  C3319  1  0.665900  0.709200  0.396400  1.0
  C  C3320  1  0.834100  0.790800  0.896400  1.0
  C  C3321  1  0.300900  0.331600  0.585400  1.0
  C  C3322  1  0.199100  0.168400  0.085400  1.0
  C  C3323  1  0.699100  0.668400  0.414600  1.0
  C  C3324  1  0.800900  0.831600  0.914600  1.0
  C  C3325  1  0.301600  0.357900  0.569300  1.0
  C  C3326  1  0.198400  0.142100  0.069300  1.0
  C  C3327  1  0.698400  0.642100  0.430700  1.0
  C  C3328  1  0.801600  0.857900  0.930700  1.0
  C  C3329  1  0.369200  0.278100  0.606400  1.0
  C  C3330  1  0.130800  0.221900  0.106400  1.0
  C  C3331  1  0.630800  0.721900  0.393600  1.0
  C  C3332  1  0.869200  0.778100  0.893600  1.0
  C  C3333  1  0.424300  0.285400  0.592500  1.0
  C  C3334  1  0.075700  0.214600  0.092500  1.0
  C  C3335  1  0.575700  0.714600  0.407500  1.0
  C  C3336  1  0.924300  0.785400  0.907500  1.0
  C  C3337  1  0.439000  0.282700  0.615400  1.0
  C  C3338  1  0.061000  0.217300  0.115400  1.0
  C  C3339  1  0.561000  0.717300  0.384600  1.0
  C  C3340  1  0.939000  0.782700  0.884600  1.0
  C  C3341  1  0.473400  0.280900  0.616700  1.0
  C  C3342  1  0.026600  0.219100  0.116700  1.0
  C  C3343  1  0.526600  0.719100  0.383300  1.0
  C  C3344  1  0.973400  0.780900  0.883300  1.0
  C  C3345  1  0.493700  0.281500  0.595600  1.0
  C  C3346  1  0.006300  0.218500  0.095600  1.0
  C  C3347  1  0.506300  0.718500  0.404400  1.0
  C  C3348  1  0.993700  0.781500  0.904400  1.0
  C  C3349  1  0.478000  0.283100  0.572900  1.0
  C  C3350  1  0.022000  0.216900  0.072900  1.0
  C  C3351  1  0.522000  0.716900  0.427100  1.0
  C  C3352  1  0.978000  0.783100  0.927100  1.0
  C  C3353  1  0.443800  0.283800  0.571200  1.0
  C  C3354  1  0.056200  0.216200  0.071200  1.0
  C  C3355  1  0.556200  0.716200  0.428800  1.0
  C  C3356  1  0.943800  0.783800  0.928800  1.0
  C  C3357  1  0.488900  0.986100  0.588300  1.0
  C  C3358  1  0.011100  0.513900  0.088300  1.0
  C  C3359  1  0.511100  0.013900  0.411700  1.0
  C  C3360  1  0.988900  0.486100  0.911700  1.0
  C  C3361  1  0.467000  0.957000  0.587500  1.0
  C  C3362  1  0.033000  0.543000  0.087500  1.0
  C  C3363  1  0.533000  0.043000  0.412500  1.0
  C  C3364  1  0.967000  0.457000  0.912500  1.0
  C  C3365  1  0.479700  0.931600  0.601300  1.0
  C  C3366  1  0.020300  0.568400  0.101300  1.0
  C  C3367  1  0.520300  0.068400  0.398700  1.0
  C  C3368  1  0.979700  0.431600  0.898700  1.0
  C  C3369  1  0.510400  0.926400  0.613100  1.0
  C  C3370  1  0.989600  0.573600  0.113100  1.0
  C  C3371  1  0.489600  0.073600  0.386900  1.0
  C  C3372  1  0.010400  0.426400  0.886900  1.0
  C  C3373  1  0.529300  0.902000  0.625600  1.0
  C  C3374  1  0.970700  0.598000  0.125600  1.0
  C  C3375  1  0.470700  0.098000  0.374400  1.0
  C  C3376  1  0.029300  0.402000  0.874400  1.0
  C  C3377  1  0.560500  0.902900  0.635600  1.0
  C  C3378  1  0.939500  0.597100  0.135600  1.0
  C  C3379  1  0.439500  0.097100  0.364400  1.0
  C  C3380  1  0.060500  0.402900  0.864400  1.0
  C  C3381  1  0.578300  0.935500  0.632200  1.0
  C  C3382  1  0.921700  0.564500  0.132200  1.0
  C  C3383  1  0.421700  0.064500  0.367800  1.0
  C  C3384  1  0.078300  0.435500  0.867800  1.0
  C  C3385  1  0.607000  0.943600  0.644900  1.0
  C  C3386  1  0.893000  0.556400  0.144900  1.0
  C  C3387  1  0.393000  0.056400  0.355100  1.0
  C  C3388  1  0.107000  0.443600  0.855100  1.0
  C  C3389  1  0.624600  0.972700  0.639000  1.0
  C  C3390  1  0.875400  0.527300  0.139000  1.0
  C  C3391  1  0.375400  0.027300  0.361000  1.0
  C  C3392  1  0.124600  0.472700  0.861000  1.0
  C  C3393  1  0.606000  0.998100  0.626900  1.0
  C  C3394  1  0.894000  0.501900  0.126900  1.0
  C  C3395  1  0.394000  0.001900  0.373100  1.0
  C  C3396  1  0.106000  0.498100  0.873100  1.0
  C  C3397  1  0.559600  0.961500  0.621500  1.0
  C  C3398  1  0.940400  0.538500  0.121500  1.0
  C  C3399  1  0.440400  0.038500  0.378500  1.0
  C  C3400  1  0.059600  0.461500  0.878500  1.0
  C  C3401  1  0.528800  0.957400  0.610300  1.0
  C  C3402  1  0.971200  0.542600  0.110300  1.0
  C  C3403  1  0.471200  0.042600  0.389700  1.0
  C  C3404  1  0.028800  0.457400  0.889700  1.0
  C  C3405  1  0.616800  0.032500  0.621600  1.0
  C  C3406  1  0.883200  0.467500  0.121600  1.0
  C  C3407  1  0.383200  0.967500  0.378400  1.0
  C  C3408  1  0.116800  0.532500  0.878400  1.0
  C  C3409  1  0.605500  0.086100  0.606900  1.0
  C  C3410  1  0.894500  0.413900  0.106900  1.0
  C  C3411  1  0.394500  0.913900  0.393100  1.0
  C  C3412  1  0.105500  0.586100  0.893100  1.0
  C  C3413  1  0.598100  0.102900  0.584700  1.0
  C  C3414  1  0.901900  0.397100  0.084700  1.0
  C  C3415  1  0.401900  0.897100  0.415300  1.0
  C  C3416  1  0.098100  0.602900  0.915300  1.0
  C  C3417  1  0.601100  0.137500  0.583700  1.0
  C  C3418  1  0.898900  0.362500  0.083700  1.0
  C  C3419  1  0.398900  0.862500  0.416300  1.0
  C  C3420  1  0.101100  0.637500  0.916300  1.0
  C  C3421  1  0.612400  0.156500  0.604000  1.0
  C  C3422  1  0.887600  0.343500  0.104000  1.0
  C  C3423  1  0.387600  0.843500  0.396000  1.0
  C  C3424  1  0.112400  0.656500  0.896000  1.0
  C  C3425  1  0.620700  0.138300  0.625300  1.0
  C  C3426  1  0.879300  0.361700  0.125300  1.0
  C  C3427  1  0.379300  0.861700  0.374700  1.0
  C  C3428  1  0.120700  0.638300  0.874700  1.0
  C  C3429  1  0.616000  0.104500  0.626800  1.0
  C  C3430  1  0.884000  0.395500  0.126800  1.0
  C  C3431  1  0.384000  0.895500  0.373200  1.0
  C  C3432  1  0.116000  0.604500  0.873200  1.0
  C  C3433  1  0.701900  0.278600  0.598000  1.0
  C  C3434  1  0.798100  0.221400  0.098000  1.0
  C  C3435  1  0.298100  0.721400  0.402000  1.0
  C  C3436  1  0.201900  0.778600  0.902000  1.0
  C  C3437  1  0.687200  0.309300  0.598900  1.0
  C  C3438  1  0.812800  0.190700  0.098900  1.0
  C  C3439  1  0.312800  0.690700  0.401100  1.0
  C  C3440  1  0.187200  0.809300  0.901100  1.0
  C  C3441  1  0.704300  0.340900  0.597400  1.0
  C  C3442  1  0.795700  0.159100  0.097400  1.0
  C  C3443  1  0.295700  0.659100  0.402600  1.0
  C  C3444  1  0.204300  0.840900  0.902600  1.0
  C  C3445  1  0.681200  0.365900  0.595200  1.0
  C  C3446  1  0.818800  0.134100  0.095200  1.0
  C  C3447  1  0.318800  0.634100  0.404800  1.0
  C  C3448  1  0.181200  0.865900  0.904800  1.0
  C  C3449  1  0.648400  0.349000  0.594500  1.0
  C  C3450  1  0.851600  0.151000  0.094500  1.0
  C  C3451  1  0.351600  0.651000  0.405500  1.0
  C  C3452  1  0.148400  0.849000  0.905500  1.0
  C  C3453  1  0.618600  0.365900  0.590800  1.0
  C  C3454  1  0.881400  0.134100  0.090800  1.0
  C  C3455  1  0.381400  0.634100  0.409200  1.0
  C  C3456  1  0.118600  0.865900  0.909200  1.0
  C  C3457  1  0.586600  0.350000  0.591200  1.0
  C  C3458  1  0.913400  0.150000  0.091200  1.0
  C  C3459  1  0.413400  0.650000  0.408800  1.0
  C  C3460  1  0.086600  0.850000  0.908800  1.0
  C  C3461  1  0.556100  0.366300  0.587700  1.0
  C  C3462  1  0.943900  0.133700  0.087700  1.0
  C  C3463  1  0.443900  0.633700  0.412300  1.0
  C  C3464  1  0.056100  0.866300  0.912300  1.0
  C  C3465  1  0.531900  0.342400  0.589300  1.0
  C  C3466  1  0.968100  0.157600  0.089300  1.0
  C  C3467  1  0.468100  0.657600  0.410700  1.0
  C  C3468  1  0.031900  0.842400  0.910700  1.0
  C  C3469  1  0.547500  0.312200  0.594100  1.0
  C  C3470  1  0.952500  0.187800  0.094100  1.0
  C  C3471  1  0.452500  0.687800  0.405900  1.0
  C  C3472  1  0.047500  0.812200  0.905900  1.0
  C  C3473  1  0.530800  0.281300  0.597400  1.0
  C  C3474  1  0.969200  0.218700  0.097400  1.0
  C  C3475  1  0.469200  0.718700  0.402600  1.0
  C  C3476  1  0.030800  0.781300  0.902600  1.0
  C  C3477  1  0.546100  0.250700  0.601200  1.0
  C  C3478  1  0.953900  0.249300  0.101200  1.0
  C  C3479  1  0.453900  0.749300  0.398800  1.0
  C  C3480  1  0.046100  0.750700  0.898800  1.0
  C  C3481  1  0.528600  0.219100  0.603300  1.0
  C  C3482  1  0.971400  0.280900  0.103300  1.0
  C  C3483  1  0.471400  0.780900  0.396700  1.0
  C  C3484  1  0.028600  0.719100  0.896700  1.0
  C  C3485  1  0.551300  0.195600  0.603900  1.0
  C  C3486  1  0.948700  0.304400  0.103900  1.0
  C  C3487  1  0.448700  0.804400  0.396100  1.0
  C  C3488  1  0.051300  0.695600  0.896100  1.0
  C  C3489  1  0.583700  0.211400  0.601600  1.0
  C  C3490  1  0.916300  0.288600  0.101600  1.0
  C  C3491  1  0.416300  0.788600  0.398400  1.0
  C  C3492  1  0.083700  0.711400  0.898400  1.0
  C  C3493  1  0.613500  0.193900  0.602400  1.0
  C  C3494  1  0.886500  0.306100  0.102400  1.0
  C  C3495  1  0.386500  0.806100  0.397600  1.0
  C  C3496  1  0.113500  0.693900  0.897600  1.0
  C  C3497  1  0.645800  0.209900  0.601700  1.0
  C  C3498  1  0.854200  0.290100  0.101700  1.0
  C  C3499  1  0.354200  0.790100  0.398300  1.0
  C  C3500  1  0.145800  0.709900  0.898300  1.0
  C  C3501  1  0.677000  0.192100  0.602500  1.0
  C  C3502  1  0.823000  0.307900  0.102500  1.0
  C  C3503  1  0.323000  0.807900  0.397500  1.0
  C  C3504  1  0.177000  0.692100  0.897500  1.0
  C  C3505  1  0.700700  0.215900  0.600600  1.0
  C  C3506  1  0.799300  0.284100  0.100600  1.0
  C  C3507  1  0.299300  0.784100  0.399400  1.0
  C  C3508  1  0.200700  0.715900  0.899400  1.0
  C  C3509  1  0.685400  0.247800  0.599500  1.0
  C  C3510  1  0.814600  0.252200  0.099500  1.0
  C  C3511  1  0.314600  0.752200  0.400500  1.0
  C  C3512  1  0.185400  0.747800  0.900500  1.0
  C  C3513  1  0.776200  0.922400  0.744700  1.0
  C  C3514  1  0.723800  0.577600  0.244700  1.0
  C  C3515  1  0.223800  0.077600  0.255300  1.0
  C  C3516  1  0.276200  0.422400  0.755300  1.0
  C  C3517  1  0.806200  0.906600  0.737100  1.0
  C  C3518  1  0.693800  0.593400  0.237100  1.0
  C  C3519  1  0.193800  0.093400  0.262900  1.0
  C  C3520  1  0.306200  0.406600  0.762900  1.0
  C  C3521  1  0.832500  0.911700  0.754300  1.0
  C  C3522  1  0.667500  0.588300  0.254300  1.0
  C  C3523  1  0.167500  0.088300  0.245700  1.0
  C  C3524  1  0.332500  0.411700  0.745700  1.0
  C  C3525  1  0.833600  0.929400  0.775400  1.0
  C  C3526  1  0.666400  0.570600  0.275400  1.0
  C  C3527  1  0.166400  0.070600  0.224600  1.0
  C  C3528  1  0.333600  0.429400  0.724600  1.0
  C  C3529  1  0.857300  0.934500  0.792900  1.0
  C  C3530  1  0.642700  0.565500  0.292900  1.0
  C  C3531  1  0.142700  0.065500  0.207100  1.0
  C  C3532  1  0.357300  0.434500  0.707100  1.0
  C  C3533  1  0.856100  0.950100  0.813700  1.0
  C  C3534  1  0.643900  0.549900  0.313700  1.0
  C  C3535  1  0.143900  0.049900  0.186300  1.0
  C  C3536  1  0.356100  0.450100  0.686300  1.0
  C  C3537  1  0.824000  0.965500  0.819800  1.0
  C  C3538  1  0.676000  0.534500  0.319800  1.0
  C  C3539  1  0.176000  0.034500  0.180200  1.0
  C  C3540  1  0.324000  0.465500  0.680200  1.0
  C  C3541  1  0.817300  0.984800  0.840200  1.0
  C  C3542  1  0.682700  0.515200  0.340200  1.0
  C  C3543  1  0.182700  0.015200  0.159800  1.0
  C  C3544  1  0.317300  0.484800  0.659800  1.0
  C  C3545  1  0.785500  0.999500  0.844800  1.0
  C  C3546  1  0.714500  0.500500  0.344800  1.0
  C  C3547  1  0.214500  0.000500  0.155200  1.0
  C  C3548  1  0.285500  0.499500  0.655200  1.0
  C  C3549  1  0.761300  0.992900  0.826600  1.0
  C  C3550  1  0.738700  0.507100  0.326600  1.0
  C  C3551  1  0.238700  0.007100  0.173400  1.0
  C  C3552  1  0.261300  0.492900  0.673400  1.0
  C  C3553  1  0.798300  0.961100  0.803100  1.0
  C  C3554  1  0.701700  0.538900  0.303100  1.0
  C  C3555  1  0.201700  0.038900  0.196900  1.0
  C  C3556  1  0.298300  0.461100  0.696900  1.0
  C  C3557  1  0.800200  0.942800  0.780400  1.0
  C  C3558  1  0.699800  0.557200  0.280400  1.0
  C  C3559  1  0.199800  0.057200  0.219600  1.0
  C  C3560  1  0.300200  0.442800  0.719600  1.0
  C  C3561  1  0.727700  0.008700  0.826200  1.0
  C  C3562  1  0.772300  0.491300  0.326200  1.0
  C  C3563  1  0.272300  0.991300  0.173800  1.0
  C  C3564  1  0.227700  0.508700  0.673800  1.0
  C  C3565  1  0.680300  0.020900  0.802200  1.0
  C  C3566  1  0.819700  0.479100  0.302200  1.0
  C  C3567  1  0.319700  0.979100  0.197800  1.0
  C  C3568  1  0.180300  0.520900  0.697800  1.0
  C  C3569  1  0.653600  0.005700  0.791800  1.0
  C  C3570  1  0.846400  0.494300  0.291800  1.0
  C  C3571  1  0.346400  0.994300  0.208200  1.0
  C  C3572  1  0.153600  0.505700  0.708200  1.0
  C  C3573  1  0.626100  0.024900  0.784000  1.0
  C  C3574  1  0.873900  0.475100  0.284000  1.0
  C  C3575  1  0.373900  0.975100  0.216000  1.0
  C  C3576  1  0.126100  0.524900  0.716000  1.0
  C  C3577  1  0.625200  0.058600  0.790200  1.0
  C  C3578  1  0.874800  0.441400  0.290200  1.0
  C  C3579  1  0.374800  0.941400  0.209800  1.0
  C  C3580  1  0.125200  0.558600  0.709800  1.0
  C  C3581  1  0.652500  0.074100  0.800700  1.0
  C  C3582  1  0.847500  0.425900  0.300700  1.0
  C  C3583  1  0.347500  0.925900  0.199300  1.0
  C  C3584  1  0.152500  0.574100  0.699300  1.0
  C  C3585  1  0.679600  0.055400  0.806700  1.0
  C  C3586  1  0.820400  0.444600  0.306700  1.0
  C  C3587  1  0.320400  0.944600  0.193300  1.0
  C  C3588  1  0.179600  0.555400  0.693300  1.0
  C  C3589  1  0.593600  0.974400  0.563800  1.0
  C  C3590  1  0.906400  0.525600  0.063800  1.0
  C  C3591  1  0.406400  0.025600  0.436200  1.0
  C  C3592  1  0.093600  0.474400  0.936200  1.0
  C  C3593  1  0.601100  0.955900  0.540500  1.0
  C  C3594  1  0.898900  0.544100  0.040500  1.0
  C  C3595  1  0.398900  0.044100  0.459500  1.0
  C  C3596  1  0.101100  0.455900  0.959500  1.0
  C  C3597  1  0.585500  0.968400  0.519800  1.0
  C  C3598  1  0.914500  0.531600  0.019800  1.0
  C  C3599  1  0.414500  0.031600  0.480200  1.0
  C  C3600  1  0.085500  0.468400  0.980200  1.0
  C  C3601  1  0.564100  0.995800  0.518700  1.0
  C  C3602  1  0.935900  0.504200  0.018700  1.0
  C  C3603  1  0.435900  0.004200  0.481300  1.0
  C  C3604  1  0.064100  0.495800  0.981300  1.0
  C  C3605  1  0.548200  0.009000  0.498300  1.0
  C  C3606  1  0.951800  0.491000  0.998300  1.0
  C  C3607  1  0.451800  0.991000  0.501700  1.0
  C  C3608  1  0.048200  0.509000  0.001700  1.0
  C  C3609  1  0.527700  0.037000  0.499600  1.0
  C  C3610  1  0.972300  0.463000  0.999600  1.0
  C  C3611  1  0.472300  0.963000  0.500400  1.0
  C  C3612  1  0.027700  0.537000  0.000400  1.0
  C  C3613  1  0.523500  0.050000  0.523000  1.0
  C  C3614  1  0.976500  0.450000  0.023000  1.0
  C  C3615  1  0.476500  0.950000  0.477000  1.0
  C  C3616  1  0.023500  0.550000  0.977000  1.0
  C  C3617  1  0.502000  0.077600  0.526100  1.0
  C  C3618  1  0.998000  0.422400  0.026100  1.0
  C  C3619  1  0.498000  0.922400  0.473900  1.0
  C  C3620  1  0.002000  0.577600  0.973900  1.0
  C  C3621  1  0.497800  0.092200  0.548900  1.0
  C  C3622  1  0.002200  0.407800  0.048900  1.0
  C  C3623  1  0.502200  0.907800  0.451100  1.0
  C  C3624  1  0.997800  0.592200  0.951100  1.0
  C  C3625  1  0.513300  0.080600  0.569400  1.0
  C  C3626  1  0.986700  0.419400  0.069400  1.0
  C  C3627  1  0.486700  0.919400  0.430600  1.0
  C  C3628  1  0.013300  0.580600  0.930600  1.0
  C  C3629  1  0.539300  0.038000  0.544500  1.0
  C  C3630  1  0.960700  0.462000  0.044500  1.0
  C  C3631  1  0.460700  0.962000  0.455500  1.0
  C  C3632  1  0.039300  0.538000  0.955500  1.0
  C  C3633  1  0.558400  0.009200  0.542200  1.0
  C  C3634  1  0.941600  0.490800  0.042200  1.0
  C  C3635  1  0.441600  0.990800  0.457800  1.0
  C  C3636  1  0.058400  0.509200  0.957800  1.0
  C  C3637  1  0.509300  0.090600  0.594500  1.0
  C  C3638  1  0.990700  0.409400  0.094500  1.0
  C  C3639  1  0.490700  0.909400  0.405500  1.0
  C  C3640  1  0.009300  0.590600  0.905500  1.0
  C  C3641  1  0.524500  0.081700  0.635400  1.0
  C  C3642  1  0.975500  0.418300  0.135400  1.0
  C  C3643  1  0.475500  0.918300  0.364600  1.0
  C  C3644  1  0.024500  0.581700  0.864600  1.0
  C  C3645  1  0.523000  0.114000  0.643700  1.0
  C  C3646  1  0.977000  0.386000  0.143700  1.0
  C  C3647  1  0.477000  0.886000  0.356300  1.0
  C  C3648  1  0.023000  0.614000  0.856300  1.0
  C  C3649  1  0.526700  0.121100  0.668400  1.0
  C  C3650  1  0.973300  0.378900  0.168400  1.0
  C  C3651  1  0.473300  0.878900  0.331600  1.0
  C  C3652  1  0.026700  0.621100  0.831600  1.0
  C  C3653  1  0.527100  0.095800  0.686400  1.0
  C  C3654  1  0.972900  0.404200  0.186400  1.0
  C  C3655  1  0.472900  0.904200  0.313600  1.0
  C  C3656  1  0.027100  0.595800  0.813600  1.0
  C  C3657  1  0.527900  0.062300  0.677800  1.0
  C  C3658  1  0.972100  0.437700  0.177800  1.0
  C  C3659  1  0.472100  0.937700  0.322200  1.0
  C  C3660  1  0.027900  0.562300  0.822200  1.0
  C  C3661  1  0.528200  0.056500  0.653400  1.0
  C  C3662  1  0.971800  0.443500  0.153400  1.0
  C  C3663  1  0.471800  0.943500  0.346600  1.0
  C  C3664  1  0.028200  0.556500  0.846600  1.0
  C  C3665  1  0.220600  0.226200  0.817200  1.0
  C  C3666  1  0.279400  0.273800  0.317200  1.0
  C  C3667  1  0.779400  0.773800  0.182800  1.0
  C  C3668  1  0.720600  0.726200  0.682800  1.0
  C  C3669  1  0.187600  0.240900  0.823900  1.0
  C  C3670  1  0.312400  0.259100  0.323900  1.0
  C  C3671  1  0.812400  0.759100  0.176100  1.0
  C  C3672  1  0.687600  0.740900  0.676100  1.0
  C  C3673  1  0.169500  0.253200  0.803800  1.0
  C  C3674  1  0.330500  0.246800  0.303800  1.0
  C  C3675  1  0.830500  0.746800  0.196200  1.0
  C  C3676  1  0.669500  0.753200  0.696200  1.0
  C  C3677  1  0.179300  0.253800  0.779400  1.0
  C  C3678  1  0.320700  0.246200  0.279400  1.0
  C  C3679  1  0.820700  0.746200  0.220600  1.0
  C  C3680  1  0.679300  0.753800  0.720600  1.0
  C  C3681  1  0.161000  0.265300  0.760500  1.0
  C  C3682  1  0.339000  0.234700  0.260500  1.0
  C  C3683  1  0.839000  0.734700  0.239500  1.0
  C  C3684  1  0.661000  0.765300  0.739500  1.0
  C  C3685  1  0.171900  0.263000  0.736800  1.0
  C  C3686  1  0.328100  0.237000  0.236800  1.0
  C  C3687  1  0.828100  0.737000  0.263200  1.0
  C  C3688  1  0.671900  0.763000  0.763200  1.0
  C  C3689  1  0.205600  0.248900  0.730900  1.0
  C  C3690  1  0.294400  0.251100  0.230900  1.0
  C  C3691  1  0.794400  0.751100  0.269100  1.0
  C  C3692  1  0.705600  0.748900  0.769100  1.0
  C  C3693  1  0.219800  0.246200  0.708600  1.0
  C  C3694  1  0.280200  0.253800  0.208600  1.0
  C  C3695  1  0.780200  0.753800  0.291400  1.0
  C  C3696  1  0.719800  0.746200  0.791400  1.0
  C  C3697  1  0.251200  0.232100  0.705900  1.0
  C  C3698  1  0.248800  0.267900  0.205900  1.0
  C  C3699  1  0.748800  0.767900  0.294100  1.0
  C  C3700  1  0.751200  0.732100  0.794100  1.0
  C  C3701  1  0.266300  0.221200  0.728200  1.0
  C  C3702  1  0.233700  0.278800  0.228200  1.0
  C  C3703  1  0.733700  0.778800  0.271800  1.0
  C  C3704  1  0.766300  0.721200  0.771800  1.0
  C  C3705  1  0.220800  0.236900  0.752100  1.0
  C  C3706  1  0.279200  0.263100  0.252100  1.0
  C  C3707  1  0.779200  0.763100  0.247900  1.0
  C  C3708  1  0.720800  0.736900  0.747900  1.0
  C  C3709  1  0.209300  0.236400  0.775500  1.0
  C  C3710  1  0.290700  0.263600  0.275500  1.0
  C  C3711  1  0.790700  0.763600  0.224500  1.0
  C  C3712  1  0.709300  0.736400  0.724500  1.0
  C  C3713  1  0.302000  0.210200  0.728800  1.0
  C  C3714  1  0.198000  0.289800  0.228800  1.0
  C  C3715  1  0.698000  0.789800  0.271200  1.0
  C  C3716  1  0.802000  0.710200  0.771200  1.0
  C  C3717  1  0.343500  0.186000  0.752900  1.0
  C  C3718  1  0.156500  0.314000  0.252900  1.0
  C  C3719  1  0.656500  0.814000  0.247100  1.0
  C  C3720  1  0.843500  0.686000  0.747100  1.0
  C  C3721  1  0.349200  0.161200  0.770300  1.0
  C  C3722  1  0.150800  0.338800  0.270300  1.0
  C  C3723  1  0.650800  0.838800  0.229700  1.0
  C  C3724  1  0.849200  0.661200  0.729700  1.0
  C  C3725  1  0.381200  0.151300  0.774900  1.0
  C  C3726  1  0.118800  0.348700  0.274900  1.0
  C  C3727  1  0.618800  0.848700  0.225100  1.0
  C  C3728  1  0.881200  0.651300  0.725100  1.0
  C  C3729  1  0.409000  0.166100  0.763700  1.0
  C  C3730  1  0.091000  0.333900  0.263700  1.0
  C  C3731  1  0.591000  0.833900  0.236300  1.0
  C  C3732  1  0.909000  0.666100  0.736300  1.0
  C  C3733  1  0.402300  0.190600  0.747000  1.0
  C  C3734  1  0.097700  0.309400  0.247000  1.0
  C  C3735  1  0.597700  0.809400  0.253000  1.0
  C  C3736  1  0.902300  0.690600  0.753000  1.0
  C  C3737  1  0.370500  0.201400  0.741700  1.0
  C  C3738  1  0.129500  0.298600  0.241700  1.0
  C  C3739  1  0.629500  0.798600  0.258300  1.0
  C  C3740  1  0.870500  0.701400  0.758300  1.0
  C  C3741  1  0.394200  0.195500  0.992200  1.0
  C  C3742  1  0.105800  0.304500  0.492200  1.0
  C  C3743  1  0.605800  0.804500  0.007800  1.0
  C  C3744  1  0.894200  0.695500  0.507800  1.0
  C  C3745  1  0.377900  0.210500  0.012300  1.0
  C  C3746  1  0.122100  0.289500  0.512300  1.0
  C  C3747  1  0.622100  0.789500  0.987700  1.0
  C  C3748  1  0.877900  0.710500  0.487700  1.0
  C  C3749  1  0.398200  0.210500  0.032700  1.0
  C  C3750  1  0.101800  0.289500  0.532700  1.0
  C  C3751  1  0.601800  0.789500  0.967300  1.0
  C  C3752  1  0.898200  0.710500  0.467300  1.0
  C  C3753  1  0.430600  0.198100  0.036600  1.0
  C  C3754  1  0.069400  0.301900  0.536600  1.0
  C  C3755  1  0.569400  0.801900  0.963400  1.0
  C  C3756  1  0.930600  0.698100  0.463400  1.0
  C  C3757  1  0.455100  0.196100  0.055600  1.0
  C  C3758  1  0.044900  0.303900  0.555600  1.0
  C  C3759  1  0.544900  0.803900  0.944400  1.0
  C  C3760  1  0.955100  0.696100  0.444400  1.0
  C  C3761  1  0.486200  0.182700  0.054200  1.0
  C  C3762  1  0.013800  0.317300  0.554200  1.0
  C  C3763  1  0.513800  0.817300  0.945800  1.0
  C  C3764  1  0.986200  0.682700  0.445800  1.0
  C  C3765  1  0.496200  0.170100  0.030100  1.0
  C  C3766  1  0.003800  0.329900  0.530100  1.0
  C  C3767  1  0.503800  0.829900  0.969900  1.0
  C  C3768  1  0.996200  0.670100  0.469900  1.0
  C  C3769  1  0.527600  0.155700  0.026800  1.0
  C  C3770  1  0.972400  0.344300  0.526800  1.0
  C  C3771  1  0.472400  0.844300  0.973200  1.0
  C  C3772  1  0.027600  0.655700  0.473200  1.0
  C  C3773  1  0.536600  0.141500  0.004500  1.0
  C  C3774  1  0.963400  0.358500  0.504500  1.0
  C  C3775  1  0.463400  0.858500  0.995500  1.0
  C  C3776  1  0.036600  0.641500  0.495500  1.0
  C  C3777  1  0.512400  0.143200  0.985100  1.0
  C  C3778  1  0.987600  0.356800  0.485100  1.0
  C  C3779  1  0.487600  0.856800  0.014900  1.0
  C  C3780  1  0.012400  0.643200  0.514900  1.0
  C  C3781  1  0.473300  0.169800  0.010600  1.0
  C  C3782  1  0.026700  0.330200  0.510600  1.0
  C  C3783  1  0.526700  0.830200  0.989400  1.0
  C  C3784  1  0.973300  0.669800  0.489400  1.0
  C  C3785  1  0.442300  0.185900  0.013600  1.0
  C  C3786  1  0.057700  0.314100  0.513600  1.0
  C  C3787  1  0.557700  0.814100  0.986400  1.0
  C  C3788  1  0.942300  0.685900  0.486400  1.0
  C  C3789  1  0.518400  0.133800  0.959200  1.0
  C  C3790  1  0.981600  0.366200  0.459200  1.0
  C  C3791  1  0.481600  0.866200  0.040800  1.0
  C  C3792  1  0.018400  0.633800  0.540800  1.0
  C  C3793  1  0.498200  0.134100  0.918700  1.0
  C  C3794  1  0.001800  0.365900  0.418700  1.0
  C  C3795  1  0.501800  0.865900  0.081300  1.0
  C  C3796  1  0.998200  0.634100  0.581300  1.0
  C  C3797  1  0.528400  0.144000  0.907300  1.0
  C  C3798  1  0.971600  0.356000  0.407300  1.0
  C  C3799  1  0.471600  0.856000  0.092700  1.0
  C  C3800  1  0.028400  0.644000  0.592700  1.0
  C  C3801  1  0.529900  0.144500  0.881900  1.0
  C  C3802  1  0.970100  0.355500  0.381900  1.0
  C  C3803  1  0.470100  0.855500  0.118100  1.0
  C  C3804  1  0.029900  0.644500  0.618100  1.0
  C  C3805  1  0.505100  0.130600  0.866700  1.0
  C  C3806  1  0.994900  0.369400  0.366700  1.0
  C  C3807  1  0.494900  0.869400  0.133300  1.0
  C  C3808  1  0.005100  0.630600  0.633300  1.0
  C  C3809  1  0.476500  0.118800  0.878800  1.0
  C  C3810  1  0.023500  0.381200  0.378800  1.0
  C  C3811  1  0.523500  0.881200  0.121200  1.0
  C  C3812  1  0.976500  0.618800  0.621200  1.0
  C  C3813  1  0.473800  0.120100  0.903800  1.0
  C  C3814  1  0.026200  0.379900  0.403800  1.0
  C  C3815  1  0.526200  0.879900  0.096200  1.0
  C  C3816  1  0.973800  0.620100  0.596200  1.0
  C  C3817  1  0.593900  0.078300  0.785500  1.0
  C  C3818  1  0.906100  0.421700  0.285500  1.0
  C  C3819  1  0.406100  0.921700  0.214500  1.0
  C  C3820  1  0.093900  0.578300  0.714500  1.0
  C  C3821  1  0.583900  0.082500  0.761500  1.0
  C  C3822  1  0.916100  0.417500  0.261500  1.0
  C  C3823  1  0.416100  0.917500  0.238500  1.0
  C  C3824  1  0.083900  0.582500  0.738500  1.0
  C  C3825  1  0.602000  0.072200  0.739900  1.0
  C  C3826  1  0.898000  0.427800  0.239900  1.0
  C  C3827  1  0.398000  0.927800  0.260100  1.0
  C  C3828  1  0.102000  0.572200  0.760100  1.0
  C  C3829  1  0.582800  0.077000  0.719100  1.0
  C  C3830  1  0.917200  0.423000  0.219100  1.0
  C  C3831  1  0.417200  0.923000  0.280900  1.0
  C  C3832  1  0.082800  0.577000  0.780900  1.0
  C  C3833  1  0.552500  0.093800  0.727800  1.0
  C  C3834  1  0.947500  0.406200  0.227800  1.0
  C  C3835  1  0.447500  0.906200  0.272200  1.0
  C  C3836  1  0.052500  0.593800  0.772200  1.0
  C  C3837  1  0.525500  0.102800  0.713200  1.0
  C  C3838  1  0.974500  0.397200  0.213200  1.0
  C  C3839  1  0.474500  0.897200  0.286800  1.0
  C  C3840  1  0.025500  0.602800  0.786800  1.0
  C  C3841  1  0.496200  0.119000  0.721200  1.0
  C  C3842  1  0.003800  0.381000  0.221200  1.0
  C  C3843  1  0.503800  0.881000  0.278800  1.0
  C  C3844  1  0.996200  0.619000  0.778800  1.0
  C  C3845  1  0.466600  0.123700  0.707300  1.0
  C  C3846  1  0.033400  0.376300  0.207300  1.0
  C  C3847  1  0.533400  0.876300  0.292700  1.0
  C  C3848  1  0.966600  0.623700  0.792700  1.0
  C  C3849  1  0.443600  0.137600  0.722700  1.0
  C  C3850  1  0.056400  0.362400  0.222700  1.0
  C  C3851  1  0.556400  0.862400  0.277300  1.0
  C  C3852  1  0.943600  0.637600  0.777300  1.0
  C  C3853  1  0.459100  0.140200  0.746000  1.0
  C  C3854  1  0.040900  0.359800  0.246000  1.0
  C  C3855  1  0.540900  0.859800  0.254000  1.0
  C  C3856  1  0.959100  0.640200  0.754000  1.0
  C  C3857  1  0.442900  0.151400  0.767500  1.0
  C  C3858  1  0.057100  0.348600  0.267500  1.0
  C  C3859  1  0.557100  0.848600  0.232500  1.0
  C  C3860  1  0.942900  0.651400  0.732500  1.0
  C  C3861  1  0.454800  0.152500  0.791400  1.0
  C  C3862  1  0.045200  0.347500  0.291400  1.0
  C  C3863  1  0.545200  0.847500  0.208600  1.0
  C  C3864  1  0.954800  0.652500  0.708600  1.0
  C  C3865  1  0.438700  0.167500  0.812400  1.0
  C  C3866  1  0.061300  0.332500  0.312400  1.0
  C  C3867  1  0.561300  0.832500  0.187600  1.0
  C  C3868  1  0.938700  0.667500  0.687600  1.0
  C  C3869  1  0.457100  0.160700  0.832400  1.0
  C  C3870  1  0.042900  0.339300  0.332400  1.0
  C  C3871  1  0.542900  0.839300  0.167600  1.0
  C  C3872  1  0.957100  0.660700  0.667600  1.0
  C  C3873  1  0.485600  0.141500  0.824200  1.0
  C  C3874  1  0.014400  0.358500  0.324200  1.0
  C  C3875  1  0.514400  0.858500  0.175800  1.0
  C  C3876  1  0.985600  0.641500  0.675800  1.0
  C  C3877  1  0.510100  0.128000  0.839000  1.0
  C  C3878  1  0.989900  0.372000  0.339000  1.0
  C  C3879  1  0.489900  0.872000  0.161000  1.0
  C  C3880  1  0.010100  0.628000  0.661000  1.0
  C  C3881  1  0.539300  0.110500  0.831300  1.0
  C  C3882  1  0.960700  0.389500  0.331300  1.0
  C  C3883  1  0.460700  0.889500  0.168700  1.0
  C  C3884  1  0.039300  0.610500  0.668700  1.0
  C  C3885  1  0.563200  0.093400  0.846600  1.0
  C  C3886  1  0.936800  0.406600  0.346600  1.0
  C  C3887  1  0.436800  0.906600  0.153400  1.0
  C  C3888  1  0.063200  0.593400  0.653400  1.0
  C  C3889  1  0.584800  0.079300  0.831400  1.0
  C  C3890  1  0.915200  0.420700  0.331400  1.0
  C  C3891  1  0.415200  0.920700  0.168600  1.0
  C  C3892  1  0.084800  0.579300  0.668600  1.0
  C  C3893  1  0.577000  0.088300  0.806900  1.0
  C  C3894  1  0.923000  0.411700  0.306900  1.0
  C  C3895  1  0.423000  0.911700  0.193100  1.0
  C  C3896  1  0.077000  0.588300  0.693100  1.0
  C  C3897  1  0.321800  0.430000  0.609200  1.0
  C  C3898  1  0.178200  0.070000  0.109200  1.0
  C  C3899  1  0.678200  0.570000  0.390800  1.0
  C  C3900  1  0.821800  0.930000  0.890800  1.0
  C  C3901  1  0.307500  0.407600  0.627400  1.0
  C  C3902  1  0.192500  0.092400  0.127400  1.0
  C  C3903  1  0.692500  0.592400  0.372600  1.0
  C  C3904  1  0.807500  0.907600  0.872600  1.0
  C  C3905  1  0.653100  0.163700  0.966300  0.5
  C  C3906  1  0.846900  0.336300  0.466300  0.5
  C  C3907  1  0.346900  0.836300  0.033700  0.5
  C  C3908  1  0.153100  0.663700  0.533700  0.5
  C  C3909  1  0.620400  0.154200  0.955000  0.5
  C  C3910  1  0.879600  0.345800  0.455000  0.5
  C  C3911  1  0.379600  0.845800  0.045000  0.5
  C  C3912  1  0.120400  0.654200  0.545000  0.5
  C  C3913  1  0.505900  0.670500  0.863900  0.5
  C  C3914  1  0.994100  0.829500  0.363900  0.5
  C  C3915  1  0.494100  0.329500  0.136100  0.5
  C  C3916  1  0.005900  0.170500  0.636100  0.5
  C  C3917  1  0.469200  0.673800  0.860700  0.5
  C  C3918  1  0.030800  0.826200  0.360700  0.5
  C  C3919  1  0.530800  0.326200  0.139300  0.5
  C  C3920  1  0.969200  0.173800  0.639300  0.5
  C  C3921  1  0.884400  0.579200  0.973000  0.5
  C  C3922  1  0.615600  0.920800  0.473000  0.5
  C  C3923  1  0.115600  0.420800  0.027000  0.5
  C  C3924  1  0.384400  0.079200  0.527000  0.5
  C  C3925  1  0.903900  0.559800  0.955200  0.5
  C  C3926  1  0.596100  0.940200  0.455200  0.5
  C  C3927  1  0.096100  0.440200  0.044800  0.5
  C  C3928  1  0.403900  0.059800  0.544800  0.5
  N  N3929  1  0.000800  0.451200  0.707800  1.0
  N  N3930  1  0.499200  0.048800  0.207800  1.0
  N  N3931  1  0.999200  0.548800  0.292200  1.0
  N  N3932  1  0.500800  0.951200  0.792200  1.0
  N  N3933  1  0.963300  0.454800  0.747200  1.0
  N  N3934  1  0.536700  0.045200  0.247200  1.0
  N  N3935  1  0.036700  0.545200  0.252800  1.0
  N  N3936  1  0.463300  0.954800  0.752800  1.0
  N  N3937  1  0.933600  0.399800  0.754400  1.0
  N  N3938  1  0.566400  0.100200  0.254400  1.0
  N  N3939  1  0.066400  0.600200  0.245600  1.0
  N  N3940  1  0.433600  0.899800  0.745600  1.0
  N  N3941  1  0.873100  0.238800  0.524100  1.0
  N  N3942  1  0.626900  0.261200  0.024100  1.0
  N  N3943  1  0.126900  0.761200  0.475900  1.0
  N  N3944  1  0.373100  0.738800  0.975900  1.0
  N  N3945  1  0.830200  0.193300  0.538000  1.0
  N  N3946  1  0.669800  0.306700  0.038000  1.0
  N  N3947  1  0.169800  0.806700  0.462000  1.0
  N  N3948  1  0.330200  0.693300  0.962000  1.0
  N  N3949  1  0.825900  0.189500  0.583600  1.0
  N  N3950  1  0.674100  0.310500  0.083600  1.0
  N  N3951  1  0.174100  0.810500  0.416400  1.0
  N  N3952  1  0.325900  0.689500  0.916400  1.0
  N  N3953  1  0.714900  0.917500  0.803400  1.0
  N  N3954  1  0.785100  0.582500  0.303400  1.0
  N  N3955  1  0.285100  0.082500  0.196600  1.0
  N  N3956  1  0.214900  0.417500  0.696600  1.0
  N  N3957  1  0.698000  0.939400  0.762000  1.0
  N  N3958  1  0.802000  0.560600  0.262000  1.0
  N  N3959  1  0.302000  0.060600  0.238000  1.0
  N  N3960  1  0.198000  0.439400  0.738000  1.0
  N  N3961  1  0.721300  0.997000  0.753900  1.0
  N  N3962  1  0.778700  0.503000  0.253900  1.0
  N  N3963  1  0.278700  0.003000  0.246100  1.0
  N  N3964  1  0.221300  0.497000  0.746100  1.0
  N  N3965  1  0.818900  0.164300  0.979600  1.0
  N  N3966  1  0.681100  0.335700  0.479600  1.0
  N  N3967  1  0.181100  0.835700  0.020400  1.0
  N  N3968  1  0.318900  0.664300  0.520400  1.0
  N  N3969  1  0.830600  0.222900  0.962500  1.0
  N  N3970  1  0.669400  0.277100  0.462500  1.0
  N  N3971  1  0.169400  0.777100  0.037500  1.0
  N  N3972  1  0.330600  0.722900  0.537500  1.0
  N  N3973  1  0.829700  0.221400  0.917200  1.0
  N  N3974  1  0.670300  0.278600  0.417200  1.0
  N  N3975  1  0.170300  0.778600  0.082800  1.0
  N  N3976  1  0.329700  0.721400  0.582800  1.0
  N  N3977  1  0.831300  0.236100  0.723200  1.0
  N  N3978  1  0.668700  0.263900  0.223200  1.0
  N  N3979  1  0.168700  0.763900  0.276800  1.0
  N  N3980  1  0.331300  0.736100  0.776800  1.0
  N  N3981  1  0.795600  0.173900  0.724900  1.0
  N  N3982  1  0.704400  0.326100  0.224900  1.0
  N  N3983  1  0.204400  0.826100  0.275100  1.0
  N  N3984  1  0.295600  0.673900  0.775100  1.0
  N  N3985  1  0.791000  0.177100  0.777600  1.0
  N  N3986  1  0.709000  0.322900  0.277600  1.0
  N  N3987  1  0.209000  0.822900  0.222400  1.0
  N  N3988  1  0.291000  0.677100  0.722400  1.0
  N  N3989  1  0.824500  0.241000  0.776100  1.0
  N  N3990  1  0.675500  0.259000  0.276100  1.0
  N  N3991  1  0.175500  0.759000  0.223900  1.0
  N  N3992  1  0.324500  0.741000  0.723900  1.0
  N  N3993  1  0.843400  0.559400  0.906500  1.0
  N  N3994  1  0.656600  0.940600  0.406500  1.0
  N  N3995  1  0.156600  0.440600  0.093500  1.0
  N  N3996  1  0.343400  0.059400  0.593500  1.0
  N  N3997  1  0.858800  0.502000  0.887300  1.0
  N  N3998  1  0.641200  0.998000  0.387300  1.0
  N  N3999  1  0.141200  0.498000  0.112700  1.0
  N  N4000  1  0.358800  0.002000  0.612700  1.0
  N  N4001  1  0.809900  0.461400  0.893200  1.0
  N  N4002  1  0.690100  0.038600  0.393200  1.0
  N  N4003  1  0.190100  0.538600  0.106800  1.0
  N  N4004  1  0.309900  0.961400  0.606800  1.0
  N  N4005  1  0.881800  0.172700  0.946300  1.0
  N  N4006  1  0.618200  0.327300  0.446300  1.0
  N  N4007  1  0.118200  0.827300  0.053700  1.0
  N  N4008  1  0.381800  0.672700  0.553700  1.0
  N  N4009  1  0.834500  0.135000  0.926800  1.0
  N  N4010  1  0.665500  0.365000  0.426800  1.0
  N  N4011  1  0.165500  0.865000  0.073200  1.0
  N  N4012  1  0.334500  0.635000  0.573200  1.0
  N  N4013  1  0.780300  0.164600  0.924300  1.0
  N  N4014  1  0.719700  0.335400  0.424300  1.0
  N  N4015  1  0.219700  0.835400  0.075700  1.0
  N  N4016  1  0.280300  0.664600  0.575700  1.0
  N  N4017  1  0.429400  0.105100  0.975500  1.0
  N  N4018  1  0.070600  0.394900  0.475500  1.0
  N  N4019  1  0.570600  0.894900  0.024500  1.0
  N  N4020  1  0.929400  0.605100  0.524500  1.0
  N  N4021  1  0.405400  0.145200  0.945700  1.0
  N  N4022  1  0.094600  0.354800  0.445700  1.0
  N  N4023  1  0.594600  0.854800  0.054300  1.0
  N  N4024  1  0.905400  0.645200  0.554300  1.0
  N  N4025  1  0.446300  0.191700  0.934800  1.0
  N  N4026  1  0.053700  0.308300  0.434800  1.0
  N  N4027  1  0.553700  0.808300  0.065200  1.0
  N  N4028  1  0.946300  0.691700  0.565200  1.0
  N  N4029  1  0.386300  0.518000  0.932900  1.0
  N  N4030  1  0.113700  0.982000  0.432900  1.0
  N  N4031  1  0.613700  0.482000  0.067100  1.0
  N  N4032  1  0.886300  0.018000  0.567100  1.0
  N  N4033  1  0.435900  0.543100  0.908300  1.0
  N  N4034  1  0.064100  0.956900  0.408300  1.0
  N  N4035  1  0.564100  0.456900  0.091700  1.0
  N  N4036  1  0.935900  0.043100  0.591700  1.0
  N  N4037  1  0.482900  0.504300  0.906400  1.0
  N  N4038  1  0.017100  0.995700  0.406400  1.0
  N  N4039  1  0.517100  0.495700  0.093600  1.0
  N  N4040  1  0.982900  0.004300  0.593600  1.0
  N  N4041  1  0.676600  0.320700  0.902200  1.0
  N  N4042  1  0.823400  0.179300  0.402200  1.0
  N  N4043  1  0.323400  0.679300  0.097800  1.0
  N  N4044  1  0.176600  0.820700  0.597800  1.0
  N  N4045  1  0.619700  0.275500  0.904800  1.0
  N  N4046  1  0.880300  0.224500  0.404800  1.0
  N  N4047  1  0.380300  0.724500  0.095200  1.0
  N  N4048  1  0.119700  0.775500  0.595200  1.0
  N  N4049  1  0.574500  0.332500  0.901800  1.0
  N  N4050  1  0.925500  0.167500  0.401800  1.0
  N  N4051  1  0.425500  0.667500  0.098200  1.0
  N  N4052  1  0.074500  0.832500  0.598200  1.0
  N  N4053  1  0.631400  0.377300  0.899000  1.0
  N  N4054  1  0.868600  0.122700  0.399000  1.0
  N  N4055  1  0.368600  0.622700  0.101000  1.0
  N  N4056  1  0.131400  0.877300  0.601000  1.0
  N  N4057  1  0.533400  0.703500  0.729700  1.0
  N  N4058  1  0.966600  0.796500  0.229700  1.0
  N  N4059  1  0.466600  0.296500  0.270300  1.0
  N  N4060  1  0.033400  0.203500  0.770300  1.0
  N  N4061  1  0.543500  0.664000  0.692200  1.0
  N  N4062  1  0.956500  0.836000  0.192200  1.0
  N  N4063  1  0.456500  0.336000  0.307800  1.0
  N  N4064  1  0.043500  0.164000  0.807800  1.0
  N  N4065  1  0.519200  0.607300  0.700000  1.0
  N  N4066  1  0.980800  0.892700  0.200000  1.0
  N  N4067  1  0.480800  0.392700  0.300000  1.0
  N  N4068  1  0.019200  0.107300  0.800000  1.0
  N  N4069  1  0.459200  0.525000  0.961500  1.0
  N  N4070  1  0.040800  0.975000  0.461500  1.0
  N  N4071  1  0.540800  0.475000  0.038500  1.0
  N  N4072  1  0.959200  0.025000  0.538500  1.0
  N  N4073  1  0.431200  0.467600  0.954700  1.0
  N  N4074  1  0.068800  0.032400  0.454700  1.0
  N  N4075  1  0.568800  0.532400  0.045300  1.0
  N  N4076  1  0.931200  0.967600  0.545300  1.0
  N  N4077  1  0.426200  0.455600  0.910600  1.0
  N  N4078  1  0.073800  0.044400  0.410600  1.0
  N  N4079  1  0.573800  0.544400  0.089400  1.0
  N  N4080  1  0.926200  0.955600  0.589400  1.0
  N  N4081  1  0.250900  0.151400  0.772200  1.0
  N  N4082  1  0.249100  0.348600  0.272200  1.0
  N  N4083  1  0.749100  0.848600  0.227800  1.0
  N  N4084  1  0.750900  0.651400  0.727800  1.0
  N  N4085  1  0.279700  0.176200  0.808900  1.0
  N  N4086  1  0.220300  0.323800  0.308900  1.0
  N  N4087  1  0.720300  0.823800  0.191100  1.0
  N  N4088  1  0.779700  0.676200  0.691100  1.0
  N  N4089  1  0.307400  0.230200  0.798500  1.0
  N  N4090  1  0.192600  0.269800  0.298500  1.0
  N  N4091  1  0.692600  0.769800  0.201500  1.0
  N  N4092  1  0.807400  0.730200  0.701500  1.0
  N  N4093  1  0.355200  0.296200  0.534600  1.0
  N  N4094  1  0.144800  0.203800  0.034600  1.0
  N  N4095  1  0.644800  0.703800  0.465400  1.0
  N  N4096  1  0.855200  0.796200  0.965400  1.0
  N  N4097  1  0.399900  0.342700  0.537800  1.0
  N  N4098  1  0.100100  0.157300  0.037800  1.0
  N  N4099  1  0.600100  0.657300  0.462200  1.0
  N  N4100  1  0.899900  0.842700  0.962200  1.0
  N  N4101  1  0.405700  0.362600  0.581000  1.0
  N  N4102  1  0.094300  0.137400  0.081000  1.0
  N  N4103  1  0.594300  0.637400  0.419000  1.0
  N  N4104  1  0.905700  0.862600  0.919000  1.0
  N  N4105  1  0.449600  0.446900  0.765800  1.0
  N  N4106  1  0.050400  0.053100  0.265800  1.0
  N  N4107  1  0.550400  0.553100  0.234200  1.0
  N  N4108  1  0.949600  0.946900  0.734200  1.0
  N  N4109  1  0.413000  0.386800  0.778700  1.0
  N  N4110  1  0.087000  0.113200  0.278700  1.0
  N  N4111  1  0.587000  0.613200  0.221300  1.0
  N  N4112  1  0.913000  0.886800  0.721300  1.0
  N  N4113  1  0.411700  0.367200  0.726900  1.0
  N  N4114  1  0.088300  0.132800  0.226900  1.0
  N  N4115  1  0.588300  0.632800  0.273100  1.0
  N  N4116  1  0.911700  0.867200  0.773100  1.0
  N  N4117  1  0.446000  0.427500  0.713900  1.0
  N  N4118  1  0.054000  0.072500  0.213900  1.0
  N  N4119  1  0.554000  0.572500  0.286100  1.0
  N  N4120  1  0.946000  0.927500  0.786100  1.0
  N  N4121  1  0.011300  0.395700  0.746600  1.0
  N  N4122  1  0.488700  0.104300  0.246600  1.0
  N  N4123  1  0.988700  0.604300  0.253400  1.0
  N  N4124  1  0.511300  0.895700  0.753400  1.0
  N  N4125  1  0.984100  0.379500  0.704500  1.0
  N  N4126  1  0.515900  0.120500  0.204500  1.0
  N  N4127  1  0.015900  0.620500  0.295500  1.0
  N  N4128  1  0.484100  0.879500  0.795500  1.0
  N  N4129  1  0.930900  0.411500  0.699300  1.0
  N  N4130  1  0.569100  0.088500  0.199300  1.0
  N  N4131  1  0.069100  0.588500  0.300700  1.0
  N  N4132  1  0.430900  0.911500  0.800700  1.0
  N  N4133  1  0.841800  0.490000  0.942600  1.0
  N  N4134  1  0.658200  0.010000  0.442600  1.0
  N  N4135  1  0.158200  0.510000  0.057400  1.0
  N  N4136  1  0.341800  0.990000  0.557400  1.0
  N  N4137  1  0.788800  0.524900  0.932800  1.0
  N  N4138  1  0.711200  0.975100  0.432800  1.0
  N  N4139  1  0.211200  0.475100  0.067200  1.0
  N  N4140  1  0.288800  0.024900  0.567200  1.0
  N  N4141  1  0.773000  0.525800  0.890900  1.0
  N  N4142  1  0.727000  0.974200  0.390900  1.0
  N  N4143  1  0.227000  0.474200  0.109100  1.0
  N  N4144  1  0.273000  0.025800  0.609100  1.0
  N  N4145  1  0.466900  0.668000  0.707600  1.0
  N  N4146  1  0.033100  0.832000  0.207600  1.0
  N  N4147  1  0.533100  0.332000  0.292400  1.0
  N  N4148  1  0.966900  0.168000  0.792400  1.0
  N  N4149  1  0.484100  0.652600  0.750200  1.0
  N  N4150  1  0.015900  0.847400  0.250200  1.0
  N  N4151  1  0.515900  0.347400  0.249800  1.0
  N  N4152  1  0.984100  0.152600  0.749800  1.0
  N  N4153  1  0.539900  0.623600  0.750500  1.0
  N  N4154  1  0.960100  0.876400  0.250500  1.0
  N  N4155  1  0.460100  0.376400  0.249500  1.0
  N  N4156  1  0.039900  0.123600  0.749500  1.0
  N  N4157  1  0.636200  0.527600  0.506800  1.0
  N  N4158  1  0.863800  0.972400  0.006800  1.0
  N  N4159  1  0.363800  0.472400  0.493200  1.0
  N  N4160  1  0.136200  0.027600  0.993200  1.0
  N  N4161  1  0.688100  0.492300  0.515500  1.0
  N  N4162  1  0.811900  0.007700  0.015500  1.0
  N  N4163  1  0.311900  0.507700  0.484500  1.0
  N  N4164  1  0.188100  0.992300  0.984500  1.0
  N  N4165  1  0.700500  0.494200  0.560400  1.0
  N  N4166  1  0.799500  0.005800  0.060400  1.0
  N  N4167  1  0.299500  0.505800  0.439600  1.0
  N  N4168  1  0.200500  0.994200  0.939600  1.0
  N  N4169  1  0.763900  0.484400  0.750400  1.0
  N  N4170  1  0.736100  0.015600  0.250400  1.0
  N  N4171  1  0.236100  0.515600  0.249600  1.0
  N  N4172  1  0.263900  0.984400  0.749600  1.0
  N  N4173  1  0.699600  0.516100  0.758600  1.0
  N  N4174  1  0.800400  0.983900  0.258600  1.0
  N  N4175  1  0.300400  0.483900  0.241400  1.0
  N  N4176  1  0.199600  0.016100  0.741400  1.0
  N  N4177  1  0.686300  0.510300  0.705300  1.0
  N  N4178  1  0.813700  0.989700  0.205300  1.0
  N  N4179  1  0.313700  0.489700  0.294700  1.0
  N  N4180  1  0.186300  0.010300  0.794700  1.0
  N  N4181  1  0.750100  0.481500  0.698100  1.0
  N  N4182  1  0.749900  0.018500  0.198100  1.0
  N  N4183  1  0.249900  0.518500  0.301900  1.0
  N  N4184  1  0.250100  0.981500  0.801900  1.0
  N  N4185  1  0.898500  0.180300  0.557000  1.0
  N  N4186  1  0.601500  0.319700  0.057000  1.0
  N  N4187  1  0.101500  0.819700  0.443000  1.0
  N  N4188  1  0.398500  0.680300  0.943000  1.0
  N  N4189  1  0.900300  0.239200  0.576500  1.0
  N  N4190  1  0.599700  0.260800  0.076500  1.0
  N  N4191  1  0.099700  0.760800  0.423500  1.0
  N  N4192  1  0.400300  0.739200  0.923500  1.0
  N  N4193  1  0.841900  0.263200  0.579000  1.0
  N  N4194  1  0.658100  0.236800  0.079000  1.0
  N  N4195  1  0.158100  0.736800  0.421000  1.0
  N  N4196  1  0.341900  0.763200  0.921000  1.0
  N  N4197  1  0.702100  0.564000  0.529900  1.0
  N  N4198  1  0.797900  0.936000  0.029900  1.0
  N  N4199  1  0.297900  0.436000  0.470100  1.0
  N  N4200  1  0.202100  0.064000  0.970100  1.0
  N  N4201  1  0.646300  0.561900  0.556100  1.0
  N  N4202  1  0.853700  0.938100  0.056100  1.0
  N  N4203  1  0.353700  0.438100  0.443900  1.0
  N  N4204  1  0.146300  0.061900  0.943900  1.0
  N  N4205  1  0.627100  0.504400  0.563700  1.0
  N  N4206  1  0.872900  0.995600  0.063700  1.0
  N  N4207  1  0.372900  0.495600  0.436300  1.0
  N  N4208  1  0.127100  0.004400  0.936300  1.0
  N  N4209  1  0.330700  0.364800  0.558000  1.0
  N  N4210  1  0.169300  0.135200  0.058000  1.0
  N  N4211  1  0.669300  0.635200  0.442000  1.0
  N  N4212  1  0.830700  0.864800  0.942000  1.0
  N  N4213  1  0.332000  0.316800  0.587500  1.0
  N  N4214  1  0.168000  0.183200  0.087500  1.0
  N  N4215  1  0.668000  0.683200  0.412500  1.0
  N  N4216  1  0.832000  0.816800  0.912500  1.0
  N  N4217  1  0.389900  0.291300  0.589400  1.0
  N  N4218  1  0.110100  0.208700  0.089400  1.0
  N  N4219  1  0.610100  0.708700  0.410600  1.0
  N  N4220  1  0.889900  0.791300  0.910600  1.0
  N  N4221  1  0.518400  0.985600  0.600200  1.0
  N  N4222  1  0.981600  0.514400  0.100200  1.0
  N  N4223  1  0.481600  0.014400  0.399800  1.0
  N  N4224  1  0.018400  0.485600  0.899800  1.0
  N  N4225  1  0.576500  0.991800  0.618900  1.0
  N  N4226  1  0.923500  0.508200  0.118900  1.0
  N  N4227  1  0.423500  0.008200  0.381100  1.0
  N  N4228  1  0.076500  0.491800  0.881100  1.0
  N  N4229  1  0.596600  0.050700  0.608600  1.0
  N  N4230  1  0.903400  0.449300  0.108600  1.0
  N  N4231  1  0.403400  0.949300  0.391400  1.0
  N  N4232  1  0.096600  0.550700  0.891400  1.0
  N  N4233  1  0.653100  0.315700  0.597900  1.0
  N  N4234  1  0.846900  0.184300  0.097900  1.0
  N  N4235  1  0.346900  0.684300  0.402100  1.0
  N  N4236  1  0.153100  0.815700  0.902100  1.0
  N  N4237  1  0.581200  0.316800  0.595300  1.0
  N  N4238  1  0.918800  0.183200  0.095300  1.0
  N  N4239  1  0.418800  0.683200  0.404700  1.0
  N  N4240  1  0.081200  0.816800  0.904700  1.0
  N  N4241  1  0.579900  0.244600  0.600500  1.0
  N  N4242  1  0.920100  0.255400  0.100500  1.0
  N  N4243  1  0.420100  0.755400  0.399500  1.0
  N  N4244  1  0.079900  0.744600  0.899500  1.0
  N  N4245  1  0.651100  0.243600  0.601200  1.0
  N  N4246  1  0.848900  0.256400  0.101200  1.0
  N  N4247  1  0.348900  0.756400  0.398800  1.0
  N  N4248  1  0.151100  0.743600  0.898800  1.0
  N  N4249  1  0.773200  0.939900  0.766100  1.0
  N  N4250  1  0.726800  0.560100  0.266100  1.0
  N  N4251  1  0.226800  0.060100  0.233900  1.0
  N  N4252  1  0.273200  0.439900  0.733900  1.0
  N  N4253  1  0.767700  0.975100  0.806700  1.0
  N  N4254  1  0.732300  0.524900  0.306700  1.0
  N  N4255  1  0.232300  0.024900  0.193300  1.0
  N  N4256  1  0.267700  0.475100  0.693300  1.0
  N  N4257  1  0.710100  0.001800  0.806600  1.0
  N  N4258  1  0.789900  0.498200  0.306600  1.0
  N  N4259  1  0.289900  0.998200  0.193400  1.0
  N  N4260  1  0.210100  0.501800  0.693400  1.0
  N  N4261  1  0.572800  0.001500  0.564000  1.0
  N  N4262  1  0.927200  0.498500  0.064000  1.0
  N  N4263  1  0.427200  0.998500  0.436000  1.0
  N  N4264  1  0.072800  0.501500  0.936000  1.0
  N  N4265  1  0.531200  0.052200  0.569100  1.0
  N  N4266  1  0.968800  0.447800  0.069100  1.0
  N  N4267  1  0.468800  0.947800  0.430900  1.0
  N  N4268  1  0.031200  0.552200  0.930900  1.0
  N  N4269  1  0.523200  0.072600  0.610800  1.0
  N  N4270  1  0.976800  0.427400  0.110800  1.0
  N  N4271  1  0.476800  0.927400  0.389200  1.0
  N  N4272  1  0.023200  0.572600  0.889200  1.0
  N  N4273  1  0.227600  0.223200  0.793300  1.0
  N  N4274  1  0.272400  0.276800  0.293300  1.0
  N  N4275  1  0.772400  0.776800  0.206700  1.0
  N  N4276  1  0.727600  0.723200  0.706700  1.0
  N  N4277  1  0.252600  0.222000  0.750700  1.0
  N  N4278  1  0.247400  0.278000  0.250700  1.0
  N  N4279  1  0.747400  0.778000  0.249300  1.0
  N  N4280  1  0.752600  0.722000  0.749300  1.0
  N  N4281  1  0.310100  0.196500  0.750500  1.0
  N  N4282  1  0.189900  0.303500  0.250500  1.0
  N  N4283  1  0.689900  0.803500  0.249500  1.0
  N  N4284  1  0.810100  0.696500  0.749500  1.0
  N  N4285  1  0.423600  0.180100  0.993200  1.0
  N  N4286  1  0.076400  0.319900  0.493200  1.0
  N  N4287  1  0.576400  0.819900  0.006800  1.0
  N  N4288  1  0.923600  0.680100  0.506800  1.0
  N  N4289  1  0.482300  0.155300  0.988800  1.0
  N  N4290  1  0.017700  0.344700  0.488800  1.0
  N  N4291  1  0.517700  0.844700  0.011200  1.0
  N  N4292  1  0.982300  0.655300  0.511200  1.0
  N  N4293  1  0.492000  0.137400  0.945300  1.0
  N  N4294  1  0.008000  0.362600  0.445300  1.0
  N  N4295  1  0.508000  0.862600  0.054700  1.0
  N  N4296  1  0.992000  0.637400  0.554700  1.0
  N  N4297  1  0.555600  0.097500  0.753100  1.0
  N  N4298  1  0.944400  0.402500  0.253100  1.0
  N  N4299  1  0.444400  0.902500  0.246900  1.0
  N  N4300  1  0.055600  0.597500  0.746900  1.0
  N  N4301  1  0.490400  0.127000  0.745300  1.0
  N  N4302  1  0.009600  0.373000  0.245300  1.0
  N  N4303  1  0.509600  0.873000  0.254700  1.0
  N  N4304  1  0.990400  0.627000  0.754700  1.0
  N  N4305  1  0.483800  0.136200  0.799700  1.0
  N  N4306  1  0.016200  0.363800  0.299700  1.0
  N  N4307  1  0.516200  0.863800  0.200300  1.0
  N  N4308  1  0.983800  0.636200  0.700300  1.0
  N  N4309  1  0.547800  0.106300  0.806900  1.0
  N  N4310  1  0.952200  0.393700  0.306900  1.0
  N  N4311  1  0.452200  0.893700  0.193100  1.0
  N  N4312  1  0.047800  0.606300  0.693100  1.0
  N  N4313  1  0.300000  0.387200  0.641700  1.0
  N  N4314  1  0.200000  0.112800  0.141700  1.0
  N  N4315  1  0.700000  0.612800  0.358300  1.0
  N  N4316  1  0.800000  0.887200  0.858300  1.0
  N  N4317  1  0.591900  0.161800  0.953100  0.5
  N  N4318  1  0.908100  0.338200  0.453100  0.5
  N  N4319  1  0.408100  0.838200  0.046900  0.5
  N  N4320  1  0.091900  0.661800  0.546900  0.5
  N  N4321  1  0.443500  0.688200  0.859800  0.5
  N  N4322  1  0.056500  0.811800  0.359800  0.5
  N  N4323  1  0.556500  0.311800  0.140200  0.5
  N  N4324  1  0.943500  0.188200  0.640200  0.5
  N  N4325  1  0.920700  0.541300  0.944900  0.5
  N  N4326  1  0.579300  0.958700  0.444900  0.5
  N  N4327  1  0.079300  0.458700  0.055100  0.5
  N  N4328  1  0.420700  0.041300  0.555100  0.5
  F  F4329  1  0.005800  0.481900  0.799100  0.25
  F  F4330  1  0.494200  0.018100  0.299100  0.25
  F  F4331  1  0.994200  0.518100  0.200900  0.25
  F  F4332  1  0.505800  0.981900  0.700900  0.25
  F  F4333  1  0.029300  0.446100  0.823100  0.25
  F  F4334  1  0.470700  0.053900  0.323100  0.25
  F  F4335  1  0.970700  0.553900  0.176900  0.25
  F  F4336  1  0.529300  0.946100  0.676900  0.25
  F  F4337  1  0.995700  0.482300  0.838300  0.25
  F  F4338  1  0.504300  0.017700  0.338300  0.25
  F  F4339  1  0.004300  0.517700  0.161700  0.25
  F  F4340  1  0.495700  0.982300  0.661700  0.25
  F  F4341  1  0.976700  0.442300  0.816300  0.25
  F  F4342  1  0.523300  0.057700  0.316300  0.25
  F  F4343  1  0.023300  0.557700  0.183700  0.25
  F  F4344  1  0.476700  0.942300  0.683700  0.25
  F  F4345  1  0.544400  0.551500  0.835300  0.25
  F  F4346  1  0.955600  0.948500  0.335300  0.25
  F  F4347  1  0.455600  0.448500  0.164700  0.25
  F  F4348  1  0.044400  0.051500  0.664700  0.25
  F  F4349  1  0.493400  0.535900  0.838600  0.25
  F  F4350  1  0.006600  0.964100  0.338600  0.25
  F  F4351  1  0.506600  0.464100  0.161400  0.25
  F  F4352  1  0.993400  0.035900  0.661400  0.25
  F  F4353  1  0.511100  0.556000  0.804300  0.25
  F  F4354  1  0.988900  0.944000  0.304300  0.25
  F  F4355  1  0.488900  0.444000  0.195700  0.25
  F  F4356  1  0.011100  0.056000  0.695700  0.25
  F  F4357  1  0.506100  0.588800  0.835200  0.25
  F  F4358  1  0.993900  0.911200  0.335200  0.25
  F  F4359  1  0.493900  0.411200  0.164800  0.25
  F  F4360  1  0.006100  0.088800  0.664800  0.25
  F  F4361  1  0.620600  0.041600  0.673900  0.25
  F  F4362  1  0.879400  0.458400  0.173900  0.25
  F  F4363  1  0.379400  0.958400  0.326100  0.25
  F  F4364  1  0.120600  0.541600  0.826100  0.25
  F  F4365  1  0.661600  0.060100  0.695900  0.25
  F  F4366  1  0.838400  0.439900  0.195900  0.25
  F  F4367  1  0.338400  0.939900  0.304100  0.25
  F  F4368  1  0.161600  0.560100  0.804100  0.25
  F  F4369  1  0.655700  0.007800  0.690700  0.25
  F  F4370  1  0.844300  0.492200  0.190700  0.25
  F  F4371  1  0.344300  0.992200  0.309300  0.25
  F  F4372  1  0.155700  0.507800  0.809300  0.25
  F  F4373  1  0.671900  0.038400  0.660500  0.25
  F  F4374  1  0.828100  0.461600  0.160500  0.25
  F  F4375  1  0.328100  0.961600  0.339500  0.25
  F  F4376  1  0.171900  0.538400  0.839500  0.25
  F  F4377  1  0.752700  0.275300  0.980500  0.25
  F  F4378  1  0.747300  0.224700  0.480500  0.25
  F  F4379  1  0.247300  0.724700  0.019500  0.25
  F  F4380  1  0.252700  0.775300  0.519500  0.25
  F  F4381  1  0.750400  0.277800  0.019500  0.25
  F  F4382  1  0.749600  0.222200  0.519500  0.25
  F  F4383  1  0.249600  0.722200  0.980500  0.25
  F  F4384  1  0.250400  0.777800  0.480500  0.25
  F  F4385  1  0.767600  0.232800  0.002500  0.25
  F  F4386  1  0.732400  0.267200  0.502500  0.25
  F  F4387  1  0.232400  0.767200  0.997500  0.25
  F  F4388  1  0.267600  0.732800  0.497500  0.25
  F  F4389  1  0.716500  0.243500  0.999600  0.25
  F  F4390  1  0.783500  0.256500  0.499600  0.25
  F  F4391  1  0.283500  0.756500  0.000400  0.25
  F  F4392  1  0.216500  0.743500  0.500400  0.25
  F  F4393  1  0.848500  0.332400  0.542900  0.25
  F  F4394  1  0.651500  0.167600  0.042900  0.25
  F  F4395  1  0.151500  0.667600  0.457100  0.25
  F  F4396  1  0.348500  0.832400  0.957100  0.25
  F  F4397  1  0.872900  0.376200  0.557400  0.25
  F  F4398  1  0.627100  0.123800  0.057400  0.25
  F  F4399  1  0.127100  0.623800  0.442600  0.25
  F  F4400  1  0.372900  0.876200  0.942600  0.25
  F  F4401  1  0.885700  0.357300  0.521700  0.25
  F  F4402  1  0.614300  0.142700  0.021700  0.25
  F  F4403  1  0.114300  0.642700  0.478300  0.25
  F  F4404  1  0.385700  0.857300  0.978300  0.25
  F  F4405  1  0.899500  0.330200  0.554800  0.25
  F  F4406  1  0.600500  0.169800  0.054800  0.25
  F  F4407  1  0.100500  0.669800  0.445200  0.25
  F  F4408  1  0.399500  0.830200  0.945200  0.25
  F  F4409  1  0.715700  0.101900  0.858400  0.25
  F  F4410  1  0.784300  0.398100  0.358400  0.25
  F  F4411  1  0.284300  0.898100  0.141600  0.25
  F  F4412  1  0.215700  0.601900  0.641600  0.25
  F  F4413  1  0.749800  0.066800  0.874800  0.25
  F  F4414  1  0.750200  0.433200  0.374800  0.25
  F  F4415  1  0.250200  0.933200  0.125200  0.25
  F  F4416  1  0.249800  0.566800  0.625200  0.25
  F  F4417  1  0.753800  0.079200  0.836500  0.25
  F  F4418  1  0.746200  0.420800  0.336500  0.25
  F  F4419  1  0.246200  0.920800  0.163500  0.25
  F  F4420  1  0.253800  0.579200  0.663500  0.25
  F  F4421  1  0.766800  0.115900  0.864200  0.25
  F  F4422  1  0.733200  0.384100  0.364200  0.25
  F  F4423  1  0.233200  0.884100  0.135800  0.25
  F  F4424  1  0.266800  0.615900  0.635800  0.25
  F  F4425  1  0.340500  0.225700  0.662700  0.5
  F  F4426  1  0.159500  0.274300  0.162700  0.5
  F  F4427  1  0.659500  0.774300  0.337300  0.5
  F  F4428  1  0.840500  0.725700  0.837300  0.5
  F  F4429  1  0.369000  0.270900  0.661400  0.5
  F  F4430  1  0.131000  0.229100  0.161400  0.5
  F  F4431  1  0.631000  0.729100  0.338600  0.5
  F  F4432  1  0.869000  0.770900  0.838600  0.5
  F  F4433  1  0.382400  0.232200  0.686600  0.5
  F  F4434  1  0.117600  0.267800  0.186600  0.5
  F  F4435  1  0.617600  0.767800  0.313400  0.5
  F  F4436  1  0.882400  0.732200  0.813400  0.5
  F  F4437  1  0.338900  0.260400  0.693900  0.5
  F  F4438  1  0.161100  0.239600  0.193900  0.5
  F  F4439  1  0.661100  0.739600  0.306100  0.5
  F  F4440  1  0.838900  0.760400  0.806100  0.5
  F  F4441  1  0.826200  0.436200  0.830100  0.5
  F  F4442  1  0.673800  0.063800  0.330100  0.5
  F  F4443  1  0.173800  0.563800  0.169900  0.5
  F  F4444  1  0.326200  0.936200  0.669900  0.5
  F  F4445  1  0.863500  0.399400  0.835400  0.5
  F  F4446  1  0.636500  0.100600  0.335400  0.5
  F  F4447  1  0.136500  0.600600  0.164600  0.5
  F  F4448  1  0.363500  0.899400  0.664600  0.5
  F  F4449  1  0.867800  0.435000  0.805700  0.5
  F  F4450  1  0.632200  0.065000  0.305700  0.5
  F  F4451  1  0.132200  0.565000  0.194300  0.5
  F  F4452  1  0.367800  0.935000  0.694300  0.5
  F  F4453  1  0.831000  0.396100  0.803500  0.5
  F  F4454  1  0.669000  0.103900  0.303500  0.5
  F  F4455  1  0.169000  0.603900  0.196500  0.5
  F  F4456  1  0.331000  0.896100  0.696500  0.5
  F  F4457  1  0.897000  0.345500  0.633000  0.5
  F  F4458  1  0.603000  0.154500  0.133000  0.5
  F  F4459  1  0.103000  0.654500  0.367000  0.5
  F  F4460  1  0.397000  0.845500  0.867000  0.5
  F  F4461  1  0.898400  0.328700  0.670000  0.5
  F  F4462  1  0.601600  0.171300  0.170000  0.5
  F  F4463  1  0.101600  0.671300  0.330000  0.5
  F  F4464  1  0.398400  0.828700  0.830000  0.5
  F  F4465  1  0.874500  0.297900  0.641100  0.5
  F  F4466  1  0.625500  0.202100  0.141100  0.5
  F  F4467  1  0.125500  0.702100  0.358900  0.5
  F  F4468  1  0.374500  0.797900  0.858900  0.5
  F  F4469  1  0.851200  0.341100  0.654900  0.5
  F  F4470  1  0.648800  0.158900  0.154900  0.5
  F  F4471  1  0.148800  0.658900  0.345100  0.5
  F  F4472  1  0.351200  0.841100  0.845100  0.5
  F  F4473  1  0.573300  0.532100  0.654400  0.5
  F  F4474  1  0.926700  0.967900  0.154400  0.5
  F  F4475  1  0.426700  0.467900  0.345600  0.5
  F  F4476  1  0.073300  0.032100  0.845600  0.5
  F  F4477  1  0.610000  0.541800  0.626300  0.5
  F  F4478  1  0.890000  0.958200  0.126300  0.5
  F  F4479  1  0.390000  0.458200  0.373700  0.5
  F  F4480  1  0.110000  0.041800  0.873700  0.5
  F  F4481  1  0.567300  0.573500  0.628900  0.5
  F  F4482  1  0.932700  0.926500  0.128900  0.5
  F  F4483  1  0.432700  0.426500  0.371100  0.5
  F  F4484  1  0.067300  0.073500  0.871100  0.5
  F  F4485  1  0.558600  0.524000  0.617300  0.5
  F  F4486  1  0.941400  0.976000  0.117300  0.5
  F  F4487  1  0.441400  0.476000  0.382700  0.5
  F  F4488  1  0.058600  0.024000  0.882700  0.5
  F  F4489  1  0.362300  0.221500  0.873500  0.5
  F  F4490  1  0.137700  0.278500  0.373500  0.5
  F  F4491  1  0.637700  0.778500  0.126500  0.5
  F  F4492  1  0.862300  0.721500  0.626500  0.5
  F  F4493  1  0.375100  0.197900  0.838900  0.5
  F  F4494  1  0.124900  0.302100  0.338900  0.5
  F  F4495  1  0.624900  0.802100  0.161100  0.5
  F  F4496  1  0.875100  0.697900  0.661100  0.5
  F  F4497  1  0.404900  0.188600  0.871400  0.5
  F  F4498  1  0.095100  0.311400  0.371400  0.5
  F  F4499  1  0.595100  0.811400  0.128600  0.5
  F  F4500  1  0.904900  0.688600  0.628600  0.5
  F  F4501  1  0.406600  0.235600  0.853100  0.5
  F  F4502  1  0.093400  0.264400  0.353100  0.5
  F  F4503  1  0.593400  0.764400  0.146900  0.5
  F  F4504  1  0.906600  0.735600  0.646900  0.5
  F  F4505  1  0.766400  0.108800  0.614800  0.5
  F  F4506  1  0.733600  0.391200  0.114800  0.5
  F  F4507  1  0.233600  0.891200  0.385200  0.5
  F  F4508  1  0.266400  0.608800  0.885200  0.5
  F  F4509  1  0.734900  0.142400  0.595500  0.5
  F  F4510  1  0.765100  0.357600  0.095500  0.5
  F  F4511  1  0.265100  0.857600  0.404500  0.5
  F  F4512  1  0.234900  0.642400  0.904500  0.5
  F  F4513  1  0.716400  0.094600  0.603700  0.5
  F  F4514  1  0.783600  0.405400  0.103700  0.5
  F  F4515  1  0.283600  0.905400  0.396300  0.5
  F  F4516  1  0.216400  0.594600  0.896300  0.5
  F  F4517  1  0.755900  0.100200  0.576200  0.5
  F  F4518  1  0.744100  0.399800  0.076200  0.5
  F  F4519  1  0.244100  0.899800  0.423800  0.5
  F  F4520  1  0.255900  0.600200  0.923800  0.5
  F  F4521  1  0.774500  0.587600  0.608000  0.5
  F  F4522  1  0.725500  0.912400  0.108000  0.5
  F  F4523  1  0.225500  0.412400  0.392000  0.5
  F  F4524  1  0.274500  0.087600  0.892000  0.5
  F  F4525  1  0.762300  0.628500  0.584600  0.5
  F  F4526  1  0.737700  0.871500  0.084600  0.5
  F  F4527  1  0.237700  0.371500  0.415400  0.5
  F  F4528  1  0.262300  0.128500  0.915400  0.5
  F  F4529  1  0.721900  0.601600  0.601800  0.5
  F  F4530  1  0.778100  0.898400  0.101800  0.5
  F  F4531  1  0.278100  0.398400  0.398200  0.5
  F  F4532  1  0.221900  0.101600  0.898200  0.5
  F  F4533  1  0.752000  0.577300  0.573400  0.5
  F  F4534  1  0.748000  0.922700  0.073400  0.5
  F  F4535  1  0.248000  0.422700  0.426600  0.5
  F  F4536  1  0.252000  0.077300  0.926600  0.5
  F  F4537  1  0.532800  0.583500  0.922800  0.5
  F  F4538  1  0.967200  0.916500  0.422800  0.5
  F  F4539  1  0.467200  0.416500  0.077200  0.5
  F  F4540  1  0.032800  0.083500  0.577200  0.5
  F  F4541  1  0.533200  0.615200  0.954200  0.5
  F  F4542  1  0.966800  0.884800  0.454200  0.5
  F  F4543  1  0.466800  0.384800  0.045800  0.5
  F  F4544  1  0.033200  0.115200  0.545800  0.5
  F  F4545  1  0.553200  0.632600  0.918900  0.5
  F  F4546  1  0.946800  0.867400  0.418900  0.5
  F  F4547  1  0.446800  0.367400  0.081100  0.5
  F  F4548  1  0.053200  0.132600  0.581100  0.5
  F  F4549  1  0.579900  0.597500  0.940300  0.5
  F  F4550  1  0.920100  0.902500  0.440300  0.5
  F  F4551  1  0.420100  0.402500  0.059700  0.5
  F  F4552  1  0.079900  0.097500  0.559700  0.5
