# generated using pymatgen
data_Co24B252H979.5C1173N202.5
_symmetry_space_group_name_H-M   'P 1'
_cell_length_a   35.23708246
_cell_length_b   35.23708246
_cell_length_c   35.23708246
_cell_angle_alpha   87.01297091
_cell_angle_beta   87.01297091
_cell_angle_gamma   87.01297091
_symmetry_Int_Tables_number   1
_chemical_formula_structural   Co24B252H979.5C1173N202.5
_chemical_formula_sum   'Co24 B252 H979.5 C1173 N202.5'
_cell_volume   43579.83505479
_cell_formula_units_Z   1
loop_
 _symmetry_equiv_pos_site_id
 _symmetry_equiv_pos_as_xyz
  1  'x, y, z'
loop_
 _atom_site_type_symbol
 _atom_site_label
 _atom_site_symmetry_multiplicity
 _atom_site_fract_x
 _atom_site_fract_y
 _atom_site_fract_z
 _atom_site_occupancy
  B  B1  1  0.163000  0.778300  0.707500  1.0
  B  B2  1  0.707500  0.163000  0.778300  1.0
  B  B3  1  0.778300  0.707500  0.163000  1.0
  B  B4  1  0.837000  0.221700  0.292500  1.0
  B  B5  1  0.292500  0.837000  0.221700  1.0
  B  B6  1  0.221700  0.292500  0.837000  1.0
  B  B7  1  0.156000  0.822500  0.687400  1.0
  B  B8  1  0.687400  0.156000  0.822500  1.0
  B  B9  1  0.822500  0.687400  0.156000  1.0
  B  B10  1  0.844000  0.177500  0.312600  1.0
  B  B11  1  0.312600  0.844000  0.177500  1.0
  B  B12  1  0.177500  0.312600  0.844000  1.0
  B  B13  1  0.180900  0.815800  0.729500  1.0
  B  B14  1  0.729500  0.180900  0.815800  1.0
  B  B15  1  0.815800  0.729500  0.180900  1.0
  B  B16  1  0.819100  0.184200  0.270500  1.0
  B  B17  1  0.270500  0.819100  0.184200  1.0
  B  B18  1  0.184200  0.270500  0.819100  1.0
  B  B19  1  0.207000  0.773000  0.727900  1.0
  B  B20  1  0.727900  0.207000  0.773000  1.0
  B  B21  1  0.773000  0.727900  0.207000  1.0
  B  B22  1  0.793000  0.227000  0.272100  1.0
  B  B23  1  0.272100  0.793000  0.227000  1.0
  B  B24  1  0.227000  0.272100  0.793000  1.0
  B  B25  1  0.200400  0.754700  0.682900  1.0
  B  B26  1  0.682900  0.200400  0.754700  1.0
  B  B27  1  0.754700  0.682900  0.200400  1.0
  B  B28  1  0.799600  0.245300  0.317100  1.0
  B  B29  1  0.317100  0.799600  0.245300  1.0
  B  B30  1  0.245300  0.317100  0.799600  1.0
  B  B31  1  0.166700  0.784000  0.657600  1.0
  B  B32  1  0.657600  0.166700  0.784000  1.0
  B  B33  1  0.784000  0.657600  0.166700  1.0
  B  B34  1  0.833300  0.216000  0.342400  1.0
  B  B35  1  0.342400  0.833300  0.216000  1.0
  B  B36  1  0.216000  0.342400  0.833300  1.0
  B  B37  1  0.196000  0.846800  0.692100  1.0
  B  B38  1  0.692100  0.196000  0.846800  1.0
  B  B39  1  0.846800  0.692100  0.196000  1.0
  B  B40  1  0.804000  0.153200  0.307900  1.0
  B  B41  1  0.307900  0.804000  0.153200  1.0
  B  B42  1  0.153200  0.307900  0.804000  1.0
  B  B43  1  0.229600  0.815400  0.715700  1.0
  B  B44  1  0.715700  0.229600  0.815400  1.0
  B  B45  1  0.815400  0.715700  0.229600  1.0
  B  B46  1  0.770400  0.184600  0.284300  1.0
  B  B47  1  0.284300  0.770400  0.184600  1.0
  B  B48  1  0.184600  0.284300  0.770400  1.0
  B  B49  1  0.239900  0.776600  0.688700  1.0
  B  B50  1  0.688700  0.239900  0.776600  1.0
  B  B51  1  0.776600  0.688700  0.239900  1.0
  B  B52  1  0.760100  0.223400  0.311300  1.0
  B  B53  1  0.311300  0.760100  0.223400  1.0
  B  B54  1  0.223400  0.311300  0.760100  1.0
  B  B55  1  0.215600  0.785700  0.646300  1.0
  B  B56  1  0.646300  0.215600  0.785700  1.0
  B  B57  1  0.785700  0.646300  0.215600  1.0
  B  B58  1  0.784400  0.214300  0.353700  1.0
  B  B59  1  0.353700  0.784400  0.214300  1.0
  B  B60  1  0.214300  0.353700  0.784400  1.0
  B  B61  1  0.189600  0.830200  0.648200  1.0
  B  B62  1  0.648200  0.189600  0.830200  1.0
  B  B63  1  0.830200  0.648200  0.189600  1.0
  B  B64  1  0.810400  0.169800  0.351800  1.0
  B  B65  1  0.351800  0.810400  0.169800  1.0
  B  B66  1  0.169800  0.351800  0.810400  1.0
  B  B67  1  0.233200  0.824800  0.667300  1.0
  B  B68  1  0.667300  0.233200  0.824800  1.0
  B  B69  1  0.824800  0.667300  0.233200  1.0
  B  B70  1  0.766800  0.175200  0.332700  1.0
  B  B71  1  0.332700  0.766800  0.175200  1.0
  B  B72  1  0.175200  0.332700  0.766800  1.0
  B  B73  1  0.036300  0.660200  0.714100  1.0
  B  B74  1  0.714100  0.036300  0.660200  1.0
  B  B75  1  0.660200  0.714100  0.036300  1.0
  B  B76  1  0.963700  0.339800  0.285900  1.0
  B  B77  1  0.285900  0.963700  0.339800  1.0
  B  B78  1  0.339800  0.285900  0.963700  1.0
  B  B79  1  0.054400  0.673000  0.754600  1.0
  B  B80  1  0.754600  0.054400  0.673000  1.0
  B  B81  1  0.673000  0.754600  0.054400  1.0
  B  B82  1  0.945600  0.327000  0.245400  1.0
  B  B83  1  0.245400  0.945600  0.327000  1.0
  B  B84  1  0.327000  0.245400  0.945600  1.0
  B  B85  1  0.076900  0.635800  0.730300  1.0
  B  B86  1  0.730300  0.076900  0.635800  1.0
  B  B87  1  0.635800  0.730300  0.076900  1.0
  B  B88  1  0.923100  0.364200  0.269700  1.0
  B  B89  1  0.269700  0.923100  0.364200  1.0
  B  B90  1  0.364200  0.269700  0.923100  1.0
  B  B91  1  0.042300  0.611400  0.710400  1.0
  B  B92  1  0.710400  0.042300  0.611400  1.0
  B  B93  1  0.611400  0.710400  0.042300  1.0
  B  B94  1  0.957700  0.388600  0.289600  1.0
  B  B95  1  0.289600  0.957700  0.388600  1.0
  B  B96  1  0.388600  0.289600  0.957700  1.0
  B  B97  1  0.997600  0.632500  0.725600  1.0
  B  B98  1  0.725600  0.997600  0.632500  1.0
  B  B99  1  0.632500  0.725600  0.997600  1.0
  B  B100  1  0.002400  0.367500  0.274400  1.0
  B  B101  1  0.274400  0.002400  0.367500  1.0
  B  B102  1  0.367500  0.274400  0.002400  1.0
  B  B103  1  0.004500  0.672400  0.751700  1.0
  B  B104  1  0.751700  0.004500  0.672400  1.0
  B  B105  1  0.672400  0.751700  0.004500  1.0
  B  B106  1  0.995500  0.327600  0.248300  1.0
  B  B107  1  0.248300  0.995500  0.327600  1.0
  B  B108  1  0.327600  0.248300  0.995500  1.0
  B  B109  1  0.070500  0.632700  0.779700  1.0
  B  B110  1  0.779700  0.070500  0.632700  1.0
  B  B111  1  0.632700  0.779700  0.070500  1.0
  B  B112  1  0.929500  0.367300  0.220300  1.0
  B  B113  1  0.220300  0.929500  0.367300  1.0
  B  B114  1  0.367300  0.220300  0.929500  1.0
  B  B115  1  0.061600  0.593200  0.752500  1.0
  B  B116  1  0.752500  0.061600  0.593200  1.0
  B  B117  1  0.593200  0.752500  0.061600  1.0
  B  B118  1  0.938400  0.406800  0.247500  1.0
  B  B119  1  0.247500  0.938400  0.406800  1.0
  B  B120  1  0.406800  0.247500  0.938400  1.0
  B  B121  1  0.013400  0.591800  0.747200  1.0
  B  B122  1  0.747200  0.013400  0.591800  1.0
  B  B123  1  0.591800  0.747200  0.013400  1.0
  B  B124  1  0.986600  0.408200  0.252800  1.0
  B  B125  1  0.252800  0.986600  0.408200  1.0
  B  B126  1  0.408200  0.252800  0.986600  1.0
  B  B127  1  0.992200  0.628600  0.774800  1.0
  B  B128  1  0.774800  0.992200  0.628600  1.0
  B  B129  1  0.628600  0.774800  0.992200  1.0
  B  B130  1  0.007800  0.371400  0.225200  1.0
  B  B131  1  0.225200  0.007800  0.371400  1.0
  B  B132  1  0.371400  0.225200  0.007800  1.0
  B  B133  1  0.028700  0.652900  0.795900  1.0
  B  B134  1  0.795900  0.028700  0.652900  1.0
  B  B135  1  0.652900  0.795900  0.028700  1.0
  B  B136  1  0.971300  0.347100  0.204100  1.0
  B  B137  1  0.204100  0.971300  0.347100  1.0
  B  B138  1  0.347100  0.204100  0.971300  1.0
  B  B139  1  0.033100  0.605100  0.791900  1.0
  B  B140  1  0.791900  0.033100  0.605100  1.0
  B  B141  1  0.605100  0.791900  0.033100  1.0
  B  B142  1  0.966900  0.394900  0.208100  1.0
  B  B143  1  0.208100  0.966900  0.394900  1.0
  B  B144  1  0.394900  0.208100  0.966900  1.0
  B  B145  1  0.651300  0.436300  0.514800  1.0
  B  B146  1  0.514800  0.651300  0.436300  1.0
  B  B147  1  0.436300  0.514800  0.651300  1.0
  B  B148  1  0.348700  0.563700  0.485200  1.0
  B  B149  1  0.485200  0.348700  0.563700  1.0
  B  B150  1  0.563700  0.485200  0.348700  1.0
  B  B151  1  0.698700  0.428800  0.514800  1.0
  B  B152  1  0.514800  0.698700  0.428800  1.0
  B  B153  1  0.428800  0.514800  0.698700  1.0
  B  B154  1  0.301300  0.571200  0.485200  1.0
  B  B155  1  0.485200  0.301300  0.571200  1.0
  B  B156  1  0.571200  0.485200  0.301300  1.0
  B  B157  1  0.672900  0.430900  0.558600  1.0
  B  B158  1  0.558600  0.672900  0.430900  1.0
  B  B159  1  0.430900  0.558600  0.672900  1.0
  B  B160  1  0.327100  0.569100  0.441400  1.0
  B  B161  1  0.441400  0.327100  0.569100  1.0
  B  B162  1  0.569100  0.441400  0.327100  1.0
  B  B163  1  0.629600  0.411300  0.553100  1.0
  B  B164  1  0.553100  0.629600  0.411300  1.0
  B  B165  1  0.411300  0.553100  0.629600  1.0
  B  B166  1  0.370400  0.588700  0.446900  1.0
  B  B167  1  0.446900  0.370400  0.588700  1.0
  B  B168  1  0.588700  0.446900  0.370400  1.0
  B  B169  1  0.630300  0.394700  0.506600  1.0
  B  B170  1  0.506600  0.630300  0.394700  1.0
  B  B171  1  0.394700  0.506600  0.630300  1.0
  B  B172  1  0.369700  0.605300  0.493400  1.0
  B  B173  1  0.493400  0.369700  0.605300  1.0
  B  B174  1  0.605300  0.493400  0.369700  1.0
  B  B175  1  0.672500  0.406800  0.481100  1.0
  B  B176  1  0.481100  0.672500  0.406800  1.0
  B  B177  1  0.406800  0.481100  0.672500  1.0
  B  B178  1  0.327500  0.593200  0.518900  1.0
  B  B179  1  0.518900  0.327500  0.593200  1.0
  B  B180  1  0.593200  0.518900  0.327500  1.0
  B  B181  1  0.709500  0.396000  0.551200  1.0
  B  B182  1  0.551200  0.709500  0.396000  1.0
  B  B183  1  0.396000  0.551200  0.709500  1.0
  B  B184  1  0.290500  0.604000  0.448800  1.0
  B  B185  1  0.448800  0.290500  0.604000  1.0
  B  B186  1  0.604000  0.448800  0.290500  1.0
  B  B187  1  0.665500  0.383500  0.575000  1.0
  B  B188  1  0.575000  0.665500  0.383500  1.0
  B  B189  1  0.383500  0.575000  0.665500  1.0
  B  B190  1  0.334500  0.616500  0.425000  1.0
  B  B191  1  0.425000  0.334500  0.616500  1.0
  B  B192  1  0.616500  0.425000  0.334500  1.0
  B  B193  1  0.638700  0.363600  0.543100  1.0
  B  B194  1  0.543100  0.638700  0.363600  1.0
  B  B195  1  0.363600  0.543100  0.638700  1.0
  B  B196  1  0.361300  0.636400  0.456900  1.0
  B  B197  1  0.456900  0.361300  0.636400  1.0
  B  B198  1  0.636400  0.456900  0.361300  1.0
  B  B199  1  0.666800  0.360000  0.500600  1.0
  B  B200  1  0.500600  0.666800  0.360000  1.0
  B  B201  1  0.360000  0.500600  0.666800  1.0
  B  B202  1  0.333200  0.640000  0.499400  1.0
  B  B203  1  0.499400  0.333200  0.640000  1.0
  B  B204  1  0.640000  0.499400  0.333200  1.0
  B  B205  1  0.711700  0.379700  0.506500  1.0
  B  B206  1  0.506500  0.711700  0.379700  1.0
  B  B207  1  0.379700  0.506500  0.711700  1.0
  B  B208  1  0.288300  0.620300  0.493500  1.0
  B  B209  1  0.493500  0.288300  0.620300  1.0
  B  B210  1  0.620300  0.493500  0.288300  1.0
  B  B211  1  0.689900  0.354200  0.543600  1.0
  B  B212  1  0.543600  0.689900  0.354200  1.0
  B  B213  1  0.354200  0.543600  0.689900  1.0
  B  B214  1  0.310100  0.645800  0.456400  1.0
  B  B215  1  0.456400  0.310100  0.645800  1.0
  B  B216  1  0.645800  0.456400  0.310100  1.0
  B  B217  1  0.140200  0.509200  0.953200  0.5
  B  B218  1  0.953200  0.140200  0.509200  0.5
  B  B219  1  0.509200  0.953200  0.140200  0.5
  B  B220  1  0.859800  0.490800  0.046800  0.5
  B  B221  1  0.046800  0.859800  0.490800  0.5
  B  B222  1  0.490800  0.046800  0.859800  0.5
  B  B223  1  0.131600  0.555300  0.940600  0.5
  B  B224  1  0.940600  0.131600  0.555300  0.5
  B  B225  1  0.555300  0.940600  0.131600  0.5
  B  B226  1  0.868400  0.444700  0.059400  0.5
  B  B227  1  0.059400  0.868400  0.444700  0.5
  B  B228  1  0.444700  0.059400  0.868400  0.5
  B  B229  1  0.101800  0.533200  0.975700  0.5
  B  B230  1  0.975700  0.101800  0.533200  0.5
  B  B231  1  0.533200  0.975700  0.101800  0.5
  B  B232  1  0.898200  0.466800  0.024300  0.5
  B  B233  1  0.024300  0.898200  0.466800  0.5
  B  B234  1  0.466800  0.024300  0.898200  0.5
  B  B235  1  0.098300  0.486600  0.963700  0.5
  B  B236  1  0.963700  0.098300  0.486600  0.5
  B  B237  1  0.486600  0.963700  0.098300  0.5
  B  B238  1  0.901700  0.513400  0.036300  0.5
  B  B239  1  0.036300  0.901700  0.513400  0.5
  B  B240  1  0.513400  0.036300  0.901700  0.5
  B  B241  1  0.123700  0.481400  0.919500  0.5
  B  B242  1  0.919500  0.123700  0.481400  0.5
  B  B243  1  0.481400  0.919500  0.123700  0.5
  B  B244  1  0.876300  0.518600  0.080500  0.5
  B  B245  1  0.080500  0.876300  0.518600  0.5
  B  B246  1  0.518600  0.080500  0.876300  0.5
  B  B247  1  0.146900  0.523100  0.905600  0.5
  B  B248  1  0.905600  0.146900  0.523100  0.5
  B  B249  1  0.523100  0.905600  0.146900  0.5
  B  B250  1  0.853100  0.476900  0.094400  0.5
  B  B251  1  0.094400  0.853100  0.476900  0.5
  B  B252  1  0.476900  0.094400  0.853100  0.5
  B  B253  1  0.083000  0.563600  0.939800  0.5
  B  B254  1  0.939800  0.083000  0.563600  0.5
  B  B255  1  0.563600  0.939800  0.083000  0.5
  B  B256  1  0.917000  0.436400  0.060200  0.5
  B  B257  1  0.060200  0.917000  0.436400  0.5
  B  B258  1  0.436400  0.060200  0.917000  0.5
  B  B259  1  0.061500  0.519700  0.953000  0.5
  B  B260  1  0.953000  0.061500  0.519700  0.5
  B  B261  1  0.519700  0.953000  0.061500  0.5
  B  B262  1  0.938500  0.480300  0.047000  0.5
  B  B263  1  0.047000  0.938500  0.480300  0.5
  B  B264  1  0.480300  0.047000  0.938500  0.5
  B  B265  1  0.076800  0.487100  0.920200  0.5
  B  B266  1  0.920200  0.076800  0.487100  0.5
  B  B267  1  0.487100  0.920200  0.076800  0.5
  B  B268  1  0.923200  0.512900  0.079800  0.5
  B  B269  1  0.079800  0.923200  0.512900  0.5
  B  B270  1  0.512900  0.079800  0.923200  0.5
  B  B271  1  0.104700  0.511800  0.884700  0.5
  B  B272  1  0.884700  0.104700  0.511800  0.5
  B  B273  1  0.511800  0.884700  0.104700  0.5
  B  B274  1  0.895300  0.488200  0.115300  0.5
  B  B275  1  0.115300  0.895300  0.488200  0.5
  B  B276  1  0.488200  0.115300  0.895300  0.5
  B  B277  1  0.107300  0.559900  0.897000  0.5
  B  B278  1  0.897000  0.107300  0.559900  0.5
  B  B279  1  0.559900  0.897000  0.107300  0.5
  B  B280  1  0.892700  0.440100  0.103000  0.5
  B  B281  1  0.103000  0.892700  0.440100  0.5
  B  B282  1  0.440100  0.103000  0.892700  0.5
  B  B283  1  0.066100  0.537100  0.906400  0.5
  B  B284  1  0.906400  0.066100  0.537100  0.5
  B  B285  1  0.537100  0.906400  0.066100  0.5
  B  B286  1  0.933900  0.462900  0.093600  0.5
  B  B287  1  0.093600  0.933900  0.462900  0.5
  B  B288  1  0.462900  0.093600  0.933900  0.5
  C  C289  1  0.000300  0.326900  0.828100  1.0
  C  C290  1  0.828100  0.000300  0.326900  1.0
  C  C291  1  0.326900  0.828100  0.000300  1.0
  C  C292  1  0.999700  0.673100  0.171900  1.0
  C  C293  1  0.171900  0.999700  0.673100  1.0
  C  C294  1  0.673100  0.171900  0.999700  1.0
  C  C295  1  0.009600  0.291000  0.809700  1.0
  C  C296  1  0.809700  0.009600  0.291000  1.0
  C  C297  1  0.291000  0.809700  0.009600  1.0
  C  C298  1  0.990400  0.709000  0.190300  1.0
  C  C299  1  0.190300  0.990400  0.709000  1.0
  C  C300  1  0.709000  0.190300  0.990400  1.0
  C  C301  1  0.033500  0.294400  0.777300  1.0
  C  C302  1  0.777300  0.033500  0.294400  1.0
  C  C303  1  0.294400  0.777300  0.033500  1.0
  C  C304  1  0.966500  0.705600  0.222700  1.0
  C  C305  1  0.222700  0.966500  0.705600  1.0
  C  C306  1  0.705600  0.222700  0.966500  1.0
  C  C307  1  0.047800  0.326900  0.766800  1.0
  C  C308  1  0.766800  0.047800  0.326900  1.0
  C  C309  1  0.326900  0.766800  0.047800  1.0
  C  C310  1  0.952200  0.673100  0.233200  1.0
  C  C311  1  0.233200  0.952200  0.673100  1.0
  C  C312  1  0.673100  0.233200  0.952200  1.0
  C  C313  1  0.074000  0.331300  0.733800  1.0
  C  C314  1  0.733800  0.074000  0.331300  1.0
  C  C315  1  0.331300  0.733800  0.074000  1.0
  C  C316  1  0.926000  0.668700  0.266200  1.0
  C  C317  1  0.266200  0.926000  0.668700  1.0
  C  C318  1  0.668700  0.266200  0.926000  1.0
  C  C319  1  0.085100  0.365200  0.721800  1.0
  C  C320  1  0.721800  0.085100  0.365200  1.0
  C  C321  1  0.365200  0.721800  0.085100  1.0
  C  C322  1  0.914900  0.634800  0.278200  1.0
  C  C323  1  0.278200  0.914900  0.634800  1.0
  C  C324  1  0.634800  0.278200  0.914900  1.0
  C  C325  1  0.072700  0.400200  0.740300  1.0
  C  C326  1  0.740300  0.072700  0.400200  1.0
  C  C327  1  0.400200  0.740300  0.072700  1.0
  C  C328  1  0.927300  0.599800  0.259700  1.0
  C  C329  1  0.259700  0.927300  0.599800  1.0
  C  C330  1  0.599800  0.259700  0.927300  1.0
  C  C331  1  0.083300  0.438300  0.730300  1.0
  C  C332  1  0.730300  0.083300  0.438300  1.0
  C  C333  1  0.438300  0.730300  0.083300  1.0
  C  C334  1  0.916700  0.561700  0.269700  1.0
  C  C335  1  0.269700  0.916700  0.561700  1.0
  C  C336  1  0.561700  0.269700  0.916700  1.0
  C  C337  1  0.069900  0.466300  0.751700  1.0
  C  C338  1  0.751700  0.069900  0.466300  1.0
  C  C339  1  0.466300  0.751700  0.069900  1.0
  C  C340  1  0.930100  0.533700  0.248300  1.0
  C  C341  1  0.248300  0.930100  0.533700  1.0
  C  C342  1  0.533700  0.248300  0.930100  1.0
  C  C343  1  0.045100  0.459700  0.784600  1.0
  C  C344  1  0.784600  0.045100  0.459700  1.0
  C  C345  1  0.459700  0.784600  0.045100  1.0
  C  C346  1  0.954900  0.540300  0.215400  1.0
  C  C347  1  0.215400  0.954900  0.540300  1.0
  C  C348  1  0.540300  0.215400  0.954900  1.0
  C  C349  1  0.049000  0.394300  0.774400  1.0
  C  C350  1  0.774400  0.049000  0.394300  1.0
  C  C351  1  0.394300  0.774400  0.049000  1.0
  C  C352  1  0.951000  0.605700  0.225600  1.0
  C  C353  1  0.225600  0.951000  0.605700  1.0
  C  C354  1  0.605700  0.225600  0.951000  1.0
  C  C355  1  0.034700  0.358600  0.788100  1.0
  C  C356  1  0.788100  0.034700  0.358600  1.0
  C  C357  1  0.358600  0.788100  0.034700  1.0
  C  C358  1  0.965300  0.641400  0.211900  1.0
  C  C359  1  0.211900  0.965300  0.641400  1.0
  C  C360  1  0.641400  0.211900  0.965300  1.0
  C  C361  1  0.027300  0.486900  0.808800  1.0
  C  C362  1  0.808800  0.027300  0.486900  1.0
  C  C363  1  0.486900  0.808800  0.027300  1.0
  C  C364  1  0.972700  0.513100  0.191200  1.0
  C  C365  1  0.191200  0.972700  0.513100  1.0
  C  C366  1  0.513100  0.191200  0.972700  1.0
  C  C367  1  0.984000  0.504500  0.857600  1.0
  C  C368  1  0.857600  0.984000  0.504500  1.0
  C  C369  1  0.504500  0.857600  0.984000  1.0
  C  C370  1  0.016000  0.495500  0.142400  1.0
  C  C371  1  0.142400  0.016000  0.495500  1.0
  C  C372  1  0.495500  0.142400  0.016000  1.0
  C  C373  1  0.977400  0.498700  0.897600  1.0
  C  C374  1  0.897600  0.977400  0.498700  1.0
  C  C375  1  0.498700  0.897600  0.977400  1.0
  C  C376  1  0.022600  0.501300  0.102400  1.0
  C  C377  1  0.102400  0.022600  0.501300  1.0
  C  C378  1  0.501300  0.102400  0.022600  1.0
  C  C379  1  0.955600  0.525300  0.915600  1.0
  C  C380  1  0.915600  0.955600  0.525300  1.0
  C  C381  1  0.525300  0.915600  0.955600  1.0
  C  C382  1  0.044400  0.474700  0.084400  1.0
  C  C383  1  0.084400  0.044400  0.474700  1.0
  C  C384  1  0.474700  0.084400  0.044400  1.0
  C  C385  1  0.939800  0.556200  0.897200  1.0
  C  C386  1  0.897200  0.939800  0.556200  1.0
  C  C387  1  0.556200  0.897200  0.939800  1.0
  C  C388  1  0.060200  0.443800  0.102800  1.0
  C  C389  1  0.102800  0.060200  0.443800  1.0
  C  C390  1  0.443800  0.102800  0.060200  1.0
  C  C391  1  0.944200  0.560600  0.857800  1.0
  C  C392  1  0.857800  0.944200  0.560600  1.0
  C  C393  1  0.560600  0.857800  0.944200  1.0
  C  C394  1  0.055800  0.439400  0.142200  1.0
  C  C395  1  0.142200  0.055800  0.439400  1.0
  C  C396  1  0.439400  0.142200  0.055800  1.0
  C  C397  1  0.965380  0.535180  0.837680  1.0
  C  C398  1  0.837680  0.965380  0.535180  1.0
  C  C399  1  0.535180  0.837680  0.965380  1.0
  C  C400  1  0.034620  0.464820  0.162320  1.0
  C  C401  1  0.162320  0.034620  0.464820  1.0
  C  C402  1  0.464820  0.162320  0.034620  1.0
  C  C403  1  0.588000  0.528100  0.176300  1.0
  C  C404  1  0.176300  0.588000  0.528100  1.0
  C  C405  1  0.528100  0.176300  0.588000  1.0
  C  C406  1  0.412000  0.471900  0.823700  1.0
  C  C407  1  0.823700  0.412000  0.471900  1.0
  C  C408  1  0.471900  0.823700  0.412000  1.0
  C  C409  1  0.550600  0.516600  0.196700  1.0
  C  C410  1  0.196700  0.550600  0.516600  1.0
  C  C411  1  0.516600  0.196700  0.550600  1.0
  C  C412  1  0.449400  0.483400  0.803300  1.0
  C  C413  1  0.803300  0.449400  0.483400  1.0
  C  C414  1  0.483400  0.803300  0.449400  1.0
  C  C415  1  0.531700  0.488500  0.185500  1.0
  C  C416  1  0.185500  0.531700  0.488500  1.0
  C  C417  1  0.488500  0.185500  0.531700  1.0
  C  C418  1  0.468300  0.511500  0.814500  1.0
  C  C419  1  0.814500  0.468300  0.511500  1.0
  C  C420  1  0.511500  0.814500  0.468300  1.0
  C  C421  1  0.545300  0.467400  0.154000  1.0
  C  C422  1  0.154000  0.545300  0.467400  1.0
  C  C423  1  0.467400  0.154000  0.545300  1.0
  C  C424  1  0.454700  0.532600  0.846000  1.0
  C  C425  1  0.846000  0.454700  0.532600  1.0
  C  C426  1  0.532600  0.846000  0.454700  1.0
  C  C427  1  0.525300  0.438600  0.140400  1.0
  C  C428  1  0.140400  0.525300  0.438600  1.0
  C  C429  1  0.438600  0.140400  0.525300  1.0
  C  C430  1  0.474700  0.561400  0.859600  1.0
  C  C431  1  0.859600  0.474700  0.561400  1.0
  C  C432  1  0.561400  0.859600  0.474700  1.0
  C  C433  1  0.542900  0.416600  0.111500  1.0
  C  C434  1  0.111500  0.542900  0.416600  1.0
  C  C435  1  0.416600  0.111500  0.542900  1.0
  C  C436  1  0.457100  0.583400  0.888500  1.0
  C  C437  1  0.888500  0.457100  0.583400  1.0
  C  C438  1  0.583400  0.888500  0.457100  1.0
  C  C439  1  0.576800  0.428900  0.091100  1.0
  C  C440  1  0.091100  0.576800  0.428900  1.0
  C  C441  1  0.428900  0.091100  0.576800  1.0
  C  C442  1  0.423200  0.571100  0.908900  1.0
  C  C443  1  0.908900  0.423200  0.571100  1.0
  C  C444  1  0.571100  0.908900  0.423200  1.0
  C  C445  1  0.590500  0.412900  0.056500  1.0
  C  C446  1  0.056500  0.590500  0.412900  1.0
  C  C447  1  0.412900  0.056500  0.590500  1.0
  C  C448  1  0.409500  0.587100  0.943500  1.0
  C  C449  1  0.943500  0.409500  0.587100  1.0
  C  C450  1  0.587100  0.943500  0.409500  1.0
  C  C451  1  0.622800  0.428400  0.040200  1.0
  C  C452  1  0.040200  0.622800  0.428400  1.0
  C  C453  1  0.428400  0.040200  0.622800  1.0
  C  C454  1  0.377200  0.571600  0.959800  1.0
  C  C455  1  0.959800  0.377200  0.571600  1.0
  C  C456  1  0.571600  0.959800  0.377200  1.0
  C  C457  1  0.639700  0.455200  0.055900  1.0
  C  C458  1  0.055900  0.639700  0.455200  1.0
  C  C459  1  0.455200  0.055900  0.639700  1.0
  C  C460  1  0.360300  0.544800  0.944100  1.0
  C  C461  1  0.944100  0.360300  0.544800  1.0
  C  C462  1  0.544800  0.944100  0.360300  1.0
  C  C463  1  0.595900  0.460000  0.104800  1.0
  C  C464  1  0.104800  0.595900  0.460000  1.0
  C  C465  1  0.460000  0.104800  0.595900  1.0
  C  C466  1  0.404100  0.540000  0.895200  1.0
  C  C467  1  0.895200  0.404100  0.540000  1.0
  C  C468  1  0.540000  0.895200  0.404100  1.0
  C  C469  1  0.580600  0.479900  0.135600  1.0
  C  C470  1  0.135600  0.580600  0.479900  1.0
  C  C471  1  0.479900  0.135600  0.580600  1.0
  C  C472  1  0.419400  0.520100  0.864400  1.0
  C  C473  1  0.864400  0.419400  0.520100  1.0
  C  C474  1  0.520100  0.864400  0.419400  1.0
  C  C475  1  0.674000  0.475700  0.039800  1.0
  C  C476  1  0.039800  0.674000  0.475700  1.0
  C  C477  1  0.475700  0.039800  0.674000  1.0
  C  C478  1  0.326000  0.524300  0.960200  1.0
  C  C479  1  0.960200  0.326000  0.524300  1.0
  C  C480  1  0.524300  0.960200  0.326000  1.0
  C  C481  1  0.718800  0.521000  0.044800  1.0
  C  C482  1  0.044800  0.718800  0.521000  1.0
  C  C483  1  0.521000  0.044800  0.718800  1.0
  C  C484  1  0.281200  0.479000  0.955200  1.0
  C  C485  1  0.955200  0.281200  0.479000  1.0
  C  C486  1  0.479000  0.955200  0.281200  1.0
  C  C487  1  0.721100  0.530700  0.005800  1.0
  C  C488  1  0.005800  0.721100  0.530700  1.0
  C  C489  1  0.530700  0.005800  0.721100  1.0
  C  C490  1  0.278900  0.469300  0.994200  1.0
  C  C491  1  0.994200  0.278900  0.469300  1.0
  C  C492  1  0.469300  0.994200  0.278900  1.0
  C  C493  1  0.749700  0.554100  0.992200  1.0
  C  C494  1  0.992200  0.749700  0.554100  1.0
  C  C495  1  0.554100  0.992200  0.749700  1.0
  C  C496  1  0.250300  0.445900  0.007800  1.0
  C  C497  1  0.007800  0.250300  0.445900  1.0
  C  C498  1  0.445900  0.007800  0.250300  1.0
  C  C499  1  0.775400  0.568900  0.016200  1.0
  C  C500  1  0.016200  0.775400  0.568900  1.0
  C  C501  1  0.568900  0.016200  0.775400  1.0
  C  C502  1  0.224600  0.431100  0.983800  1.0
  C  C503  1  0.983800  0.224600  0.431100  1.0
  C  C504  1  0.431100  0.983800  0.224600  1.0
  C  C505  1  0.772600  0.557100  0.053900  1.0
  C  C506  1  0.053900  0.772600  0.557100  1.0
  C  C507  1  0.557100  0.053900  0.772600  1.0
  C  C508  1  0.227400  0.442900  0.946100  1.0
  C  C509  1  0.946100  0.227400  0.442900  1.0
  C  C510  1  0.442900  0.946100  0.227400  1.0
  C  C511  1  0.744600  0.533800  0.068000  1.0
  C  C512  1  0.068000  0.744600  0.533800  1.0
  C  C513  1  0.533800  0.068000  0.744600  1.0
  C  C514  1  0.255400  0.466200  0.932000  1.0
  C  C515  1  0.932000  0.255400  0.466200  1.0
  C  C516  1  0.466200  0.932000  0.255400  1.0
  C  C517  1  0.811300  0.962400  0.162200  1.0
  C  C518  1  0.162200  0.811300  0.962400  1.0
  C  C519  1  0.962400  0.162200  0.811300  1.0
  C  C520  1  0.188700  0.037600  0.837800  1.0
  C  C521  1  0.837800  0.188700  0.037600  1.0
  C  C522  1  0.037600  0.837800  0.188700  1.0
  C  C523  1  0.802000  0.999500  0.181500  1.0
  C  C524  1  0.181500  0.802000  0.999500  1.0
  C  C525  1  0.999500  0.181500  0.802000  1.0
  C  C526  1  0.198000  0.000500  0.818500  1.0
  C  C527  1  0.818500  0.198000  0.000500  1.0
  C  C528  1  0.000500  0.818500  0.198000  1.0
  C  C529  1  0.765900  0.016000  0.185500  1.0
  C  C530  1  0.185500  0.765900  0.016000  1.0
  C  C531  1  0.016000  0.185500  0.765900  1.0
  C  C532  1  0.234100  0.984000  0.814500  1.0
  C  C533  1  0.814500  0.234100  0.984000  1.0
  C  C534  1  0.984000  0.814500  0.234100  1.0
  C  C535  1  0.735800  0.999200  0.173300  1.0
  C  C536  1  0.173300  0.735800  0.999200  1.0
  C  C537  1  0.999200  0.173300  0.735800  1.0
  C  C538  1  0.264200  0.000800  0.826700  1.0
  C  C539  1  0.826700  0.264200  0.000800  1.0
  C  C540  1  0.000800  0.826700  0.264200  1.0
  C  C541  1  0.703200  0.014500  0.173200  1.0
  C  C542  1  0.173200  0.703200  0.014500  1.0
  C  C543  1  0.014500  0.173200  0.703200  1.0
  C  C544  1  0.296800  0.985500  0.826800  1.0
  C  C545  1  0.826800  0.296800  0.985500  1.0
  C  C546  1  0.985500  0.826800  0.296800  1.0
  C  C547  1  0.670200  0.997100  0.162100  1.0
  C  C548  1  0.162100  0.670200  0.997100  1.0
  C  C549  1  0.997100  0.162100  0.670200  1.0
  C  C550  1  0.329800  0.002900  0.837900  1.0
  C  C551  1  0.837900  0.329800  0.002900  1.0
  C  C552  1  0.002900  0.837900  0.329800  1.0
  C  C553  1  0.678600  0.960200  0.141700  1.0
  C  C554  1  0.141700  0.678600  0.960200  1.0
  C  C555  1  0.960200  0.141700  0.678600  1.0
  C  C556  1  0.321400  0.039800  0.858300  1.0
  C  C557  1  0.858300  0.321400  0.039800  1.0
  C  C558  1  0.039800  0.858300  0.321400  1.0
  C  C559  1  0.650500  0.941200  0.127000  1.0
  C  C560  1  0.127000  0.650500  0.941200  1.0
  C  C561  1  0.941200  0.127000  0.650500  1.0
  C  C562  1  0.349500  0.058800  0.873000  1.0
  C  C563  1  0.873000  0.349500  0.058800  1.0
  C  C564  1  0.058800  0.873000  0.349500  1.0
  C  C565  1  0.662000  0.909900  0.109300  1.0
  C  C566  1  0.109300  0.662000  0.909900  1.0
  C  C567  1  0.909900  0.109300  0.662000  1.0
  C  C568  1  0.338000  0.090100  0.890700  1.0
  C  C569  1  0.890700  0.338000  0.090100  1.0
  C  C570  1  0.090100  0.890700  0.338000  1.0
  C  C571  1  0.697600  0.895700  0.110100  1.0
  C  C572  1  0.110100  0.697600  0.895700  1.0
  C  C573  1  0.895700  0.110100  0.697600  1.0
  C  C574  1  0.302400  0.104300  0.889900  1.0
  C  C575  1  0.889900  0.302400  0.104300  1.0
  C  C576  1  0.104300  0.889900  0.302400  1.0
  C  C577  1  0.713600  0.947600  0.139700  1.0
  C  C578  1  0.139700  0.713600  0.947600  1.0
  C  C579  1  0.947600  0.139700  0.713600  1.0
  C  C580  1  0.286400  0.052400  0.860300  1.0
  C  C581  1  0.860300  0.286400  0.052400  1.0
  C  C582  1  0.052400  0.860300  0.286400  1.0
  C  C583  1  0.743900  0.960900  0.156700  1.0
  C  C584  1  0.156700  0.743900  0.960900  1.0
  C  C585  1  0.960900  0.156700  0.743900  1.0
  C  C586  1  0.256100  0.039100  0.843300  1.0
  C  C587  1  0.843300  0.256100  0.039100  1.0
  C  C588  1  0.039100  0.843300  0.256100  1.0
  C  C589  1  0.714700  0.860000  0.095100  1.0
  C  C590  1  0.095100  0.714700  0.860000  1.0
  C  C591  1  0.860000  0.095100  0.714700  1.0
  C  C592  1  0.285300  0.140000  0.904900  1.0
  C  C593  1  0.904900  0.285300  0.140000  1.0
  C  C594  1  0.140000  0.904900  0.285300  1.0
  C  C595  1  0.766700  0.818300  0.079400  1.0
  C  C596  1  0.079400  0.766700  0.818300  1.0
  C  C597  1  0.818300  0.079400  0.766700  1.0
  C  C598  1  0.233300  0.181700  0.920600  1.0
  C  C599  1  0.920600  0.233300  0.181700  1.0
  C  C600  1  0.181700  0.920600  0.233300  1.0
  C  C601  1  0.792400  0.794400  0.096800  1.0
  C  C602  1  0.096800  0.792400  0.794400  1.0
  C  C603  1  0.794400  0.096800  0.792400  1.0
  C  C604  1  0.207600  0.205600  0.903200  1.0
  C  C605  1  0.903200  0.207600  0.205600  1.0
  C  C606  1  0.205600  0.903200  0.207600  1.0
  C  C607  1  0.812200  0.764900  0.078600  1.0
  C  C608  1  0.078600  0.812200  0.764900  1.0
  C  C609  1  0.764900  0.078600  0.812200  1.0
  C  C610  1  0.187800  0.235100  0.921400  1.0
  C  C611  1  0.921400  0.187800  0.235100  1.0
  C  C612  1  0.235100  0.921400  0.187800  1.0
  C  C613  1  0.805400  0.759000  0.040900  1.0
  C  C614  1  0.040900  0.805400  0.759000  1.0
  C  C615  1  0.759000  0.040900  0.805400  1.0
  C  C616  1  0.194600  0.241000  0.959100  1.0
  C  C617  1  0.959100  0.194600  0.241000  1.0
  C  C618  1  0.241000  0.959100  0.194600  1.0
  C  C619  1  0.778300  0.783300  0.023600  1.0
  C  C620  1  0.023600  0.778300  0.783300  1.0
  C  C621  1  0.783300  0.023600  0.778300  1.0
  C  C622  1  0.221700  0.216700  0.976400  1.0
  C  C623  1  0.976400  0.221700  0.216700  1.0
  C  C624  1  0.216700  0.976400  0.221700  1.0
  C  C625  1  0.758700  0.812700  0.041700  1.0
  C  C626  1  0.041700  0.758700  0.812700  1.0
  C  C627  1  0.812700  0.041700  0.758700  1.0
  C  C628  1  0.241300  0.187300  0.958300  1.0
  C  C629  1  0.958300  0.241300  0.187300  1.0
  C  C630  1  0.187300  0.958300  0.241300  1.0
  C  C631  1  0.203600  0.744400  0.863100  1.0
  C  C632  1  0.863100  0.203600  0.744400  1.0
  C  C633  1  0.744400  0.863100  0.203600  1.0
  C  C634  1  0.796400  0.255600  0.136900  1.0
  C  C635  1  0.136900  0.796400  0.255600  1.0
  C  C636  1  0.255600  0.136900  0.796400  1.0
  C  C637  1  0.242200  0.750400  0.842500  1.0
  C  C638  1  0.842500  0.242200  0.750400  1.0
  C  C639  1  0.750400  0.842500  0.242200  1.0
  C  C640  1  0.757800  0.249600  0.157500  1.0
  C  C641  1  0.157500  0.757800  0.249600  1.0
  C  C642  1  0.249600  0.157500  0.757800  1.0
  C  C643  1  0.250800  0.782600  0.828400  1.0
  C  C644  1  0.828400  0.250800  0.782600  1.0
  C  C645  1  0.782600  0.828400  0.250800  1.0
  C  C646  1  0.749200  0.217400  0.171600  1.0
  C  C647  1  0.171600  0.749200  0.217400  1.0
  C  C648  1  0.217400  0.171600  0.749200  1.0
  C  C649  1  0.227200  0.813300  0.831500  1.0
  C  C650  1  0.831500  0.227200  0.813300  1.0
  C  C651  1  0.813300  0.831500  0.227200  1.0
  C  C652  1  0.772800  0.186700  0.168500  1.0
  C  C653  1  0.168500  0.772800  0.186700  1.0
  C  C654  1  0.186700  0.168500  0.772800  1.0
  C  C655  1  0.233700  0.844600  0.814100  1.0
  C  C656  1  0.814100  0.233700  0.844600  1.0
  C  C657  1  0.844600  0.814100  0.233700  1.0
  C  C658  1  0.766300  0.155400  0.185900  1.0
  C  C659  1  0.185900  0.766300  0.155400  1.0
  C  C660  1  0.155400  0.185900  0.766300  1.0
  C  C661  1  0.206800  0.879200  0.812700  1.0
  C  C662  1  0.812700  0.206800  0.879200  1.0
  C  C663  1  0.879200  0.812700  0.206800  1.0
  C  C664  1  0.793200  0.120800  0.187300  1.0
  C  C665  1  0.187300  0.793200  0.120800  1.0
  C  C666  1  0.120800  0.187300  0.793200  1.0
  C  C667  1  0.169000  0.871000  0.835300  1.0
  C  C668  1  0.835300  0.169000  0.871000  1.0
  C  C669  1  0.871000  0.835300  0.169000  1.0
  C  C670  1  0.831000  0.129000  0.164700  1.0
  C  C671  1  0.164700  0.831000  0.129000  1.0
  C  C672  1  0.129000  0.164700  0.831000  1.0
  C  C673  1  0.141600  0.904200  0.832500  1.0
  C  C674  1  0.832500  0.141600  0.904200  1.0
  C  C675  1  0.904200  0.832500  0.141600  1.0
  C  C676  1  0.858400  0.095800  0.167500  1.0
  C  C677  1  0.167500  0.858400  0.095800  1.0
  C  C678  1  0.095800  0.167500  0.858400  1.0
  C  C679  1  0.105200  0.893200  0.854400  1.0
  C  C680  1  0.854400  0.105200  0.893200  1.0
  C  C681  1  0.893200  0.854400  0.105200  1.0
  C  C682  1  0.894800  0.106800  0.145600  1.0
  C  C683  1  0.145600  0.894800  0.106800  1.0
  C  C684  1  0.106800  0.145600  0.894800  1.0
  C  C685  1  0.105000  0.856000  0.871400  1.0
  C  C686  1  0.871400  0.105000  0.856000  1.0
  C  C687  1  0.856000  0.871400  0.105000  1.0
  C  C688  1  0.895000  0.144000  0.128600  1.0
  C  C689  1  0.128600  0.895000  0.144000  1.0
  C  C690  1  0.144000  0.128600  0.895000  1.0
  C  C691  1  0.166700  0.839000  0.853400  1.0
  C  C692  1  0.853400  0.166700  0.839000  1.0
  C  C693  1  0.839000  0.853400  0.166700  1.0
  C  C694  1  0.833300  0.161000  0.146600  1.0
  C  C695  1  0.146600  0.833300  0.161000  1.0
  C  C696  1  0.161000  0.146600  0.833300  1.0
  C  C697  1  0.190600  0.807400  0.851800  1.0
  C  C698  1  0.851800  0.190600  0.807400  1.0
  C  C699  1  0.807400  0.851800  0.190600  1.0
  C  C700  1  0.809400  0.192600  0.148200  1.0
  C  C701  1  0.148200  0.809400  0.192600  1.0
  C  C702  1  0.192600  0.148200  0.809400  1.0
  C  C703  1  0.068200  0.842000  0.892200  1.0
  C  C704  1  0.892200  0.068200  0.842000  1.0
  C  C705  1  0.842000  0.892200  0.068200  1.0
  C  C706  1  0.931800  0.158000  0.107800  1.0
  C  C707  1  0.107800  0.931800  0.158000  1.0
  C  C708  1  0.158000  0.107800  0.931800  1.0
  C  C709  1  0.038000  0.787400  0.914300  1.0
  C  C710  1  0.914300  0.038000  0.787400  1.0
  C  C711  1  0.787400  0.914300  0.038000  1.0
  C  C712  1  0.962000  0.212600  0.085700  1.0
  C  C713  1  0.085700  0.962000  0.212600  1.0
  C  C714  1  0.212600  0.085700  0.962000  1.0
  C  C715  1  0.040700  0.759000  0.943000  1.0
  C  C716  1  0.943000  0.040700  0.759000  1.0
  C  C717  1  0.759000  0.943000  0.040700  1.0
  C  C718  1  0.959300  0.241000  0.057000  1.0
  C  C719  1  0.057000  0.959300  0.241000  1.0
  C  C720  1  0.241000  0.057000  0.959300  1.0
  C  C721  1  0.009700  0.737900  0.951900  1.0
  C  C722  1  0.951900  0.009700  0.737900  1.0
  C  C723  1  0.737900  0.951900  0.009700  1.0
  C  C724  1  0.990300  0.262100  0.048100  1.0
  C  C725  1  0.048100  0.990300  0.262100  1.0
  C  C726  1  0.262100  0.048100  0.990300  1.0
  C  C727  1  0.975700  0.744300  0.933300  1.0
  C  C728  1  0.933300  0.975700  0.744300  1.0
  C  C729  1  0.744300  0.933300  0.975700  1.0
  C  C730  1  0.024300  0.255700  0.066700  1.0
  C  C731  1  0.066700  0.024300  0.255700  1.0
  C  C732  1  0.255700  0.066700  0.024300  1.0
  C  C733  1  0.974200  0.773000  0.906700  1.0
  C  C734  1  0.906700  0.974200  0.773000  1.0
  C  C735  1  0.773000  0.906700  0.974200  1.0
  C  C736  1  0.025800  0.227000  0.093300  1.0
  C  C737  1  0.093300  0.025800  0.227000  1.0
  C  C738  1  0.227000  0.093300  0.025800  1.0
  C  C739  1  0.004100  0.794900  0.896900  1.0
  C  C740  1  0.896900  0.004100  0.794900  1.0
  C  C741  1  0.794900  0.896900  0.004100  1.0
  C  C742  1  0.995900  0.205100  0.103100  1.0
  C  C743  1  0.103100  0.995900  0.205100  1.0
  C  C744  1  0.205100  0.103100  0.995900  1.0
  C  C745  1  0.919100  0.587400  0.918500  1.0
  C  C746  1  0.918500  0.919100  0.587400  1.0
  C  C747  1  0.587400  0.918500  0.919100  1.0
  C  C748  1  0.080900  0.412600  0.081500  1.0
  C  C749  1  0.081500  0.080900  0.412600  1.0
  C  C750  1  0.412600  0.081500  0.080900  1.0
  C  C751  1  0.885200  0.577700  0.939300  1.0
  C  C752  1  0.939300  0.885200  0.577700  1.0
  C  C753  1  0.577700  0.939300  0.885200  1.0
  C  C754  1  0.114800  0.422300  0.060700  1.0
  C  C755  1  0.060700  0.114800  0.422300  1.0
  C  C756  1  0.422300  0.060700  0.114800  1.0
  C  C757  1  0.866900  0.543200  0.940200  1.0
  C  C758  1  0.940200  0.866900  0.543200  1.0
  C  C759  1  0.543200  0.940200  0.866900  1.0
  C  C760  1  0.133100  0.456800  0.059800  1.0
  C  C761  1  0.059800  0.133100  0.456800  1.0
  C  C762  1  0.456800  0.059800  0.133100  1.0
  C  C763  1  0.834900  0.545400  0.962200  1.0
  C  C764  1  0.962200  0.834900  0.545400  1.0
  C  C765  1  0.545400  0.962200  0.834900  1.0
  C  C766  1  0.165100  0.454600  0.037800  1.0
  C  C767  1  0.037800  0.165100  0.454600  1.0
  C  C768  1  0.454600  0.037800  0.165100  1.0
  C  C769  1  0.832200  0.582200  0.976700  1.0
  C  C770  1  0.976700  0.832200  0.582200  1.0
  C  C771  1  0.582200  0.976700  0.832200  1.0
  C  C772  1  0.167800  0.417800  0.023300  1.0
  C  C773  1  0.023300  0.167800  0.417800  1.0
  C  C774  1  0.417800  0.023300  0.167800  1.0
  C  C775  1  0.805400  0.596200  0.002100  1.0
  C  C776  1  0.002100  0.805400  0.596200  1.0
  C  C777  1  0.596200  0.002100  0.805400  1.0
  C  C778  1  0.194600  0.403800  0.997900  1.0
  C  C779  1  0.997900  0.194600  0.403800  1.0
  C  C780  1  0.403800  0.997900  0.194600  1.0
  C  C781  1  0.800800  0.632400  0.015200  1.0
  C  C782  1  0.015200  0.800800  0.632400  1.0
  C  C783  1  0.632400  0.015200  0.800800  1.0
  C  C784  1  0.199200  0.367600  0.984800  1.0
  C  C785  1  0.984800  0.199200  0.367600  1.0
  C  C786  1  0.367600  0.984800  0.199200  1.0
  C  C787  1  0.769900  0.646700  0.040800  1.0
  C  C788  1  0.040800  0.769900  0.646700  1.0
  C  C789  1  0.646700  0.040800  0.769900  1.0
  C  C790  1  0.230100  0.353300  0.959200  1.0
  C  C791  1  0.959200  0.230100  0.353300  1.0
  C  C792  1  0.353300  0.959200  0.230100  1.0
  C  C793  1  0.775800  0.683500  0.044600  1.0
  C  C794  1  0.044600  0.775800  0.683500  1.0
  C  C795  1  0.683500  0.044600  0.775800  1.0
  C  C796  1  0.224200  0.316500  0.955400  1.0
  C  C797  1  0.955400  0.224200  0.316500  1.0
  C  C798  1  0.316500  0.955400  0.224200  1.0
  C  C799  1  0.810100  0.692600  0.023400  1.0
  C  C800  1  0.023400  0.810100  0.692600  1.0
  C  C801  1  0.692600  0.023400  0.810100  1.0
  C  C802  1  0.189900  0.307400  0.976600  1.0
  C  C803  1  0.976600  0.189900  0.307400  1.0
  C  C804  1  0.307400  0.976600  0.189900  1.0
  C  C805  1  0.826300  0.726900  0.021200  1.0
  C  C806  1  0.021200  0.826300  0.726900  1.0
  C  C807  1  0.726900  0.021200  0.826300  1.0
  C  C808  1  0.173700  0.273100  0.978800  1.0
  C  C809  1  0.978800  0.173700  0.273100  1.0
  C  C810  1  0.273100  0.978800  0.173700  1.0
  C  C811  1  0.859700  0.738100  0.001800  1.0
  C  C812  1  0.001800  0.859700  0.738100  1.0
  C  C813  1  0.738100  0.001800  0.859700  1.0
  C  C814  1  0.140300  0.261900  0.998200  1.0
  C  C815  1  0.998200  0.140300  0.261900  1.0
  C  C816  1  0.261900  0.998200  0.140300  1.0
  C  C817  1  0.877100  0.773000  0.001700  1.0
  C  C818  1  0.001700  0.877100  0.773000  1.0
  C  C819  1  0.773000  0.001700  0.877100  1.0
  C  C820  1  0.122900  0.227000  0.998300  1.0
  C  C821  1  0.998300  0.122900  0.227000  1.0
  C  C822  1  0.227000  0.998300  0.122900  1.0
  C  C823  1  0.911100  0.769800  0.980800  1.0
  C  C824  1  0.980800  0.911100  0.769800  1.0
  C  C825  1  0.769800  0.980800  0.911100  1.0
  C  C826  1  0.088900  0.230200  0.019200  1.0
  C  C827  1  0.019200  0.088900  0.230200  1.0
  C  C828  1  0.230200  0.019200  0.088900  1.0
  C  C829  1  0.914100  0.732400  0.966300  1.0
  C  C830  1  0.966300  0.914100  0.732400  1.0
  C  C831  1  0.732400  0.966300  0.914100  1.0
  C  C832  1  0.085900  0.267600  0.033700  1.0
  C  C833  1  0.033700  0.085900  0.267600  1.0
  C  C834  1  0.267600  0.033700  0.085900  1.0
  C  C835  1  0.943000  0.718700  0.942700  1.0
  C  C836  1  0.942700  0.943000  0.718700  1.0
  C  C837  1  0.718700  0.942700  0.943000  1.0
  C  C838  1  0.057000  0.281300  0.057300  1.0
  C  C839  1  0.057300  0.057000  0.281300  1.0
  C  C840  1  0.281300  0.057300  0.057000  1.0
  C  C841  1  0.948000  0.682800  0.928900  1.0
  C  C842  1  0.928900  0.948000  0.682800  1.0
  C  C843  1  0.682800  0.928900  0.948000  1.0
  C  C844  1  0.052000  0.317200  0.071100  1.0
  C  C845  1  0.071100  0.052000  0.317200  1.0
  C  C846  1  0.317200  0.071100  0.052000  1.0
  C  C847  1  0.979400  0.667000  0.908200  1.0
  C  C848  1  0.908200  0.979400  0.667000  1.0
  C  C849  1  0.667000  0.908200  0.979400  1.0
  C  C850  1  0.020600  0.333000  0.091800  1.0
  C  C851  1  0.091800  0.020600  0.333000  1.0
  C  C852  1  0.333000  0.091800  0.020600  1.0
  C  C853  1  0.973300  0.630800  0.899800  1.0
  C  C854  1  0.899800  0.973300  0.630800  1.0
  C  C855  1  0.630800  0.899800  0.973300  1.0
  C  C856  1  0.026700  0.369200  0.100200  1.0
  C  C857  1  0.100200  0.026700  0.369200  1.0
  C  C858  1  0.369200  0.100200  0.026700  1.0
  C  C859  1  0.935300  0.623900  0.919200  1.0
  C  C860  1  0.919200  0.935300  0.623900  1.0
  C  C861  1  0.623900  0.919200  0.935300  1.0
  C  C862  1  0.064700  0.376100  0.080800  1.0
  C  C863  1  0.080800  0.064700  0.376100  1.0
  C  C864  1  0.376100  0.080800  0.064700  1.0
  C  C865  1  0.656000  0.607200  0.314000  1.0
  C  C866  1  0.314000  0.656000  0.607200  1.0
  C  C867  1  0.607200  0.314000  0.656000  1.0
  C  C868  1  0.344000  0.392800  0.686000  1.0
  C  C869  1  0.686000  0.344000  0.392800  1.0
  C  C870  1  0.392800  0.686000  0.344000  1.0
  C  C871  1  0.631400  0.612600  0.281900  1.0
  C  C872  1  0.281900  0.631400  0.612600  1.0
  C  C873  1  0.612600  0.281900  0.631400  1.0
  C  C874  1  0.368600  0.387400  0.718100  1.0
  C  C875  1  0.718100  0.368600  0.387400  1.0
  C  C876  1  0.387400  0.718100  0.368600  1.0
  C  C877  1  0.630600  0.648900  0.263800  1.0
  C  C878  1  0.263800  0.630600  0.648900  1.0
  C  C879  1  0.648900  0.263800  0.630600  1.0
  C  C880  1  0.369400  0.351100  0.736200  1.0
  C  C881  1  0.736200  0.369400  0.351100  1.0
  C  C882  1  0.351100  0.736200  0.369400  1.0
  C  C883  1  0.650300  0.675000  0.276800  1.0
  C  C884  1  0.276800  0.650300  0.675000  1.0
  C  C885  1  0.675000  0.276800  0.650300  1.0
  C  C886  1  0.349700  0.325000  0.723200  1.0
  C  C887  1  0.723200  0.349700  0.325000  1.0
  C  C888  1  0.325000  0.723200  0.349700  1.0
  C  C889  1  0.649900  0.712800  0.258300  1.0
  C  C890  1  0.258300  0.649900  0.712800  1.0
  C  C891  1  0.712800  0.258300  0.649900  1.0
  C  C892  1  0.350100  0.287200  0.741700  1.0
  C  C893  1  0.741700  0.350100  0.287200  1.0
  C  C894  1  0.287200  0.741700  0.350100  1.0
  C  C895  1  0.671100  0.738200  0.271100  1.0
  C  C896  1  0.271100  0.671100  0.738200  1.0
  C  C897  1  0.738200  0.271100  0.671100  1.0
  C  C898  1  0.328900  0.261800  0.728900  1.0
  C  C899  1  0.728900  0.328900  0.261800  1.0
  C  C900  1  0.261800  0.728900  0.328900  1.0
  C  C901  1  0.696500  0.731600  0.302700  1.0
  C  C902  1  0.302700  0.696500  0.731600  1.0
  C  C903  1  0.731600  0.302700  0.696500  1.0
  C  C904  1  0.303500  0.268400  0.697300  1.0
  C  C905  1  0.697300  0.303500  0.268400  1.0
  C  C906  1  0.268400  0.697300  0.303500  1.0
  C  C907  1  0.720200  0.757700  0.319800  1.0
  C  C908  1  0.319800  0.720200  0.757700  1.0
  C  C909  1  0.757700  0.319800  0.720200  1.0
  C  C910  1  0.279800  0.242300  0.680200  1.0
  C  C911  1  0.680200  0.279800  0.242300  1.0
  C  C912  1  0.242300  0.680200  0.279800  1.0
  C  C913  1  0.739300  0.745800  0.349800  1.0
  C  C914  1  0.349800  0.739300  0.745800  1.0
  C  C915  1  0.745800  0.349800  0.739300  1.0
  C  C916  1  0.260700  0.254200  0.650200  1.0
  C  C917  1  0.650200  0.260700  0.254200  1.0
  C  C918  1  0.254200  0.650200  0.260700  1.0
  C  C919  1  0.738900  0.707300  0.364700  1.0
  C  C920  1  0.364700  0.738900  0.707300  1.0
  C  C921  1  0.707300  0.364700  0.738900  1.0
  C  C922  1  0.261100  0.292700  0.635300  1.0
  C  C923  1  0.635300  0.261100  0.292700  1.0
  C  C924  1  0.292700  0.635300  0.261100  1.0
  C  C925  1  0.695000  0.693600  0.320000  1.0
  C  C926  1  0.320000  0.695000  0.693600  1.0
  C  C927  1  0.693600  0.320000  0.695000  1.0
  C  C928  1  0.305000  0.306400  0.680000  1.0
  C  C929  1  0.680000  0.305000  0.306400  1.0
  C  C930  1  0.306400  0.680000  0.305000  1.0
  C  C931  1  0.673300  0.663800  0.307300  1.0
  C  C932  1  0.307300  0.673300  0.663800  1.0
  C  C933  1  0.663800  0.307300  0.673300  1.0
  C  C934  1  0.326700  0.336200  0.692700  1.0
  C  C935  1  0.692700  0.326700  0.336200  1.0
  C  C936  1  0.336200  0.692700  0.326700  1.0
  C  C937  1  0.758000  0.690500  0.396000  1.0
  C  C938  1  0.396000  0.758000  0.690500  1.0
  C  C939  1  0.690500  0.396000  0.758000  1.0
  C  C940  1  0.242000  0.309500  0.604000  1.0
  C  C941  1  0.604000  0.242000  0.309500  1.0
  C  C942  1  0.309500  0.604000  0.242000  1.0
  C  C943  1  0.770400  0.639900  0.439900  1.0
  C  C944  1  0.439900  0.770400  0.639900  1.0
  C  C945  1  0.639900  0.439900  0.770400  1.0
  C  C946  1  0.229600  0.360100  0.560100  1.0
  C  C947  1  0.560100  0.229600  0.360100  1.0
  C  C948  1  0.360100  0.560100  0.229600  1.0
  C  C949  1  0.785800  0.602500  0.439700  1.0
  C  C950  1  0.439700  0.785800  0.602500  1.0
  C  C951  1  0.602500  0.439700  0.785800  1.0
  C  C952  1  0.214200  0.397500  0.560300  1.0
  C  C953  1  0.560300  0.214200  0.397500  1.0
  C  C954  1  0.397500  0.560300  0.214200  1.0
  C  C955  1  0.800500  0.587200  0.471800  1.0
  C  C956  1  0.471800  0.800500  0.587200  1.0
  C  C957  1  0.587200  0.471800  0.800500  1.0
  C  C958  1  0.199500  0.412800  0.528200  1.0
  C  C959  1  0.528200  0.199500  0.412800  1.0
  C  C960  1  0.412800  0.528200  0.199500  1.0
  C  C961  1  0.800700  0.605700  0.503500  1.0
  C  C962  1  0.503500  0.800700  0.605700  1.0
  C  C963  1  0.605700  0.503500  0.800700  1.0
  C  C964  1  0.199300  0.394300  0.496500  1.0
  C  C965  1  0.496500  0.199300  0.394300  1.0
  C  C966  1  0.394300  0.496500  0.199300  1.0
  C  C967  1  0.784800  0.642900  0.503800  1.0
  C  C968  1  0.503800  0.784800  0.642900  1.0
  C  C969  1  0.642900  0.503800  0.784800  1.0
  C  C970  1  0.215200  0.357100  0.496200  1.0
  C  C971  1  0.496200  0.215200  0.357100  1.0
  C  C972  1  0.357100  0.496200  0.215200  1.0
  C  C973  1  0.769000  0.660200  0.473200  1.0
  C  C974  1  0.473200  0.769000  0.660200  1.0
  C  C975  1  0.660200  0.473200  0.769000  1.0
  C  C976  1  0.231000  0.339800  0.526800  1.0
  C  C977  1  0.526800  0.231000  0.339800  1.0
  C  C978  1  0.339800  0.526800  0.231000  1.0
  C  C979  1  0.607200  0.311400  0.781900  1.0
  C  C980  1  0.781900  0.607200  0.311400  1.0
  C  C981  1  0.311400  0.781900  0.607200  1.0
  C  C982  1  0.392800  0.688600  0.218100  1.0
  C  C983  1  0.218100  0.392800  0.688600  1.0
  C  C984  1  0.688600  0.218100  0.392800  1.0
  C  C985  1  0.576700  0.291200  0.807100  1.0
  C  C986  1  0.807100  0.576700  0.291200  1.0
  C  C987  1  0.291200  0.807100  0.576700  1.0
  C  C988  1  0.423300  0.708800  0.192900  1.0
  C  C989  1  0.192900  0.423300  0.708800  1.0
  C  C990  1  0.708800  0.192900  0.423300  1.0
  C  C991  1  0.539900  0.300600  0.806900  1.0
  C  C992  1  0.806900  0.539900  0.300600  1.0
  C  C993  1  0.300600  0.806900  0.539900  1.0
  C  C994  1  0.460100  0.699400  0.193100  1.0
  C  C995  1  0.193100  0.460100  0.699400  1.0
  C  C996  1  0.699400  0.193100  0.460100  1.0
  C  C997  1  0.528100  0.328300  0.779000  1.0
  C  C998  1  0.779000  0.528100  0.328300  1.0
  C  C999  1  0.328300  0.779000  0.528100  1.0
  C  C1000  1  0.471900  0.671700  0.221000  1.0
  C  C1001  1  0.221000  0.471900  0.671700  1.0
  C  C1002  1  0.671700  0.221000  0.471900  1.0
  C  C1003  1  0.490100  0.339600  0.776900  1.0
  C  C1004  1  0.776900  0.490100  0.339600  1.0
  C  C1005  1  0.339600  0.776900  0.490100  1.0
  C  C1006  1  0.509900  0.660400  0.223100  1.0
  C  C1007  1  0.223100  0.509900  0.660400  1.0
  C  C1008  1  0.660400  0.223100  0.509900  1.0
  C  C1009  1  0.479800  0.371200  0.752000  1.0
  C  C1010  1  0.752000  0.479800  0.371200  1.0
  C  C1011  1  0.371200  0.752000  0.479800  1.0
  C  C1012  1  0.520200  0.628800  0.248000  1.0
  C  C1013  1  0.248000  0.520200  0.628800  1.0
  C  C1014  1  0.628800  0.248000  0.520200  1.0
  C  C1015  1  0.507500  0.389500  0.727900  1.0
  C  C1016  1  0.727900  0.507500  0.389500  1.0
  C  C1017  1  0.389500  0.727900  0.507500  1.0
  C  C1018  1  0.492500  0.610500  0.272100  1.0
  C  C1019  1  0.272100  0.492500  0.610500  1.0
  C  C1020  1  0.610500  0.272100  0.492500  1.0
  C  C1021  1  0.499300  0.420200  0.701200  1.0
  C  C1022  1  0.701200  0.499300  0.420200  1.0
  C  C1023  1  0.420200  0.701200  0.499300  1.0
  C  C1024  1  0.500700  0.579800  0.298800  1.0
  C  C1025  1  0.298800  0.500700  0.579800  1.0
  C  C1026  1  0.579800  0.298800  0.500700  1.0
  C  C1027  1  0.529100  0.436300  0.681100  1.0
  C  C1028  1  0.681100  0.529100  0.436300  1.0
  C  C1029  1  0.436300  0.681100  0.529100  1.0
  C  C1030  1  0.470900  0.563700  0.318900  1.0
  C  C1031  1  0.318900  0.470900  0.563700  1.0
  C  C1032  1  0.563700  0.318900  0.470900  1.0
  C  C1033  1  0.564800  0.421800  0.685400  1.0
  C  C1034  1  0.685400  0.564800  0.421800  1.0
  C  C1035  1  0.421800  0.685400  0.564800  1.0
  C  C1036  1  0.435200  0.578200  0.314600  1.0
  C  C1037  1  0.314600  0.435200  0.578200  1.0
  C  C1038  1  0.578200  0.314600  0.435200  1.0
  C  C1039  1  0.546100  0.376100  0.730600  1.0
  C  C1040  1  0.730600  0.546100  0.376100  1.0
  C  C1041  1  0.376100  0.730600  0.546100  1.0
  C  C1042  1  0.453900  0.623900  0.269400  1.0
  C  C1043  1  0.269400  0.453900  0.623900  1.0
  C  C1044  1  0.623900  0.269400  0.453900  1.0
  C  C1045  1  0.557900  0.347200  0.756400  1.0
  C  C1046  1  0.756400  0.557900  0.347200  1.0
  C  C1047  1  0.347200  0.756400  0.557900  1.0
  C  C1048  1  0.442100  0.652800  0.243600  1.0
  C  C1049  1  0.243600  0.442100  0.652800  1.0
  C  C1050  1  0.652800  0.243600  0.442100  1.0
  C  C1051  1  0.599900  0.437600  0.666300  1.0
  C  C1052  1  0.666300  0.599900  0.437600  1.0
  C  C1053  1  0.437600  0.666300  0.599900  1.0
  C  C1054  1  0.400100  0.562400  0.333700  1.0
  C  C1055  1  0.333700  0.400100  0.562400  1.0
  C  C1056  1  0.562400  0.333700  0.400100  1.0
  C  C1057  1  0.666100  0.443000  0.664600  1.0
  C  C1058  1  0.664600  0.666100  0.443000  1.0
  C  C1059  1  0.443000  0.664600  0.666100  1.0
  C  C1060  1  0.333900  0.557000  0.335400  1.0
  C  C1061  1  0.335400  0.333900  0.557000  1.0
  C  C1062  1  0.557000  0.335400  0.333900  1.0
  C  C1063  1  0.699300  0.421200  0.654400  1.0
  C  C1064  1  0.654400  0.699300  0.421200  1.0
  C  C1065  1  0.421200  0.654400  0.699300  1.0
  C  C1066  1  0.300700  0.578800  0.345600  1.0
  C  C1067  1  0.345600  0.300700  0.578800  1.0
  C  C1068  1  0.578800  0.345600  0.300700  1.0
  C  C1069  1  0.731500  0.440200  0.643700  1.0
  C  C1070  1  0.643700  0.731500  0.440200  1.0
  C  C1071  1  0.440200  0.643700  0.731500  1.0
  C  C1072  1  0.268500  0.559800  0.356300  1.0
  C  C1073  1  0.356300  0.268500  0.559800  1.0
  C  C1074  1  0.559800  0.356300  0.268500  1.0
  C  C1075  1  0.732400  0.479200  0.645500  1.0
  C  C1076  1  0.645500  0.732400  0.479200  1.0
  C  C1077  1  0.479200  0.645500  0.732400  1.0
  C  C1078  1  0.267600  0.520800  0.354500  1.0
  C  C1079  1  0.354500  0.267600  0.520800  1.0
  C  C1080  1  0.520800  0.354500  0.267600  1.0
  C  C1081  1  0.699600  0.498600  0.656200  1.0
  C  C1082  1  0.656200  0.699600  0.498600  1.0
  C  C1083  1  0.498600  0.656200  0.699600  1.0
  C  C1084  1  0.300400  0.501400  0.343800  1.0
  C  C1085  1  0.343800  0.300400  0.501400  1.0
  C  C1086  1  0.501400  0.343800  0.300400  1.0
  C  C1087  1  0.666300  0.482000  0.666200  1.0
  C  C1088  1  0.666200  0.666300  0.482000  1.0
  C  C1089  1  0.482000  0.666200  0.666300  1.0
  C  C1090  1  0.333700  0.518000  0.333800  1.0
  C  C1091  1  0.333800  0.333700  0.518000  1.0
  C  C1092  1  0.518000  0.333800  0.333700  1.0
  C  C1093  1  0.088300  0.396200  0.867300  1.0
  C  C1094  1  0.867300  0.088300  0.396200  1.0
  C  C1095  1  0.396200  0.867300  0.088300  1.0
  C  C1096  1  0.911700  0.603800  0.132700  1.0
  C  C1097  1  0.132700  0.911700  0.603800  1.0
  C  C1098  1  0.603800  0.132700  0.911700  1.0
  C  C1099  1  0.114700  0.384200  0.898800  1.0
  C  C1100  1  0.898800  0.114700  0.384200  1.0
  C  C1101  1  0.384200  0.898800  0.114700  1.0
  C  C1102  1  0.885300  0.615800  0.101200  1.0
  C  C1103  1  0.101200  0.885300  0.615800  1.0
  C  C1104  1  0.615800  0.101200  0.885300  1.0
  C  C1105  1  0.101600  0.375800  0.935300  1.0
  C  C1106  1  0.935300  0.101600  0.375800  1.0
  C  C1107  1  0.375800  0.935300  0.101600  1.0
  C  C1108  1  0.898400  0.624200  0.064700  1.0
  C  C1109  1  0.064700  0.898400  0.624200  1.0
  C  C1110  1  0.624200  0.064700  0.898400  1.0
  C  C1111  1  0.064400  0.379900  0.943800  1.0
  C  C1112  1  0.943800  0.064400  0.379900  1.0
  C  C1113  1  0.379900  0.943800  0.064400  1.0
  C  C1114  1  0.935600  0.620100  0.056200  1.0
  C  C1115  1  0.056200  0.935600  0.620100  1.0
  C  C1116  1  0.620100  0.056200  0.935600  1.0
  C  C1117  1  0.051200  0.371100  0.976600  1.0
  C  C1118  1  0.976600  0.051200  0.371100  1.0
  C  C1119  1  0.371100  0.976600  0.051200  1.0
  C  C1120  1  0.948800  0.628900  0.023400  1.0
  C  C1121  1  0.023400  0.948800  0.628900  1.0
  C  C1122  1  0.628900  0.023400  0.948800  1.0
  C  C1123  1  0.012100  0.374000  0.987900  1.0
  C  C1124  1  0.987900  0.012100  0.374000  1.0
  C  C1125  1  0.374000  0.987900  0.012100  1.0
  C  C1126  1  0.987900  0.626000  0.012100  1.0
  C  C1127  1  0.012100  0.987900  0.626000  1.0
  C  C1128  1  0.626000  0.012100  0.987900  1.0
  C  C1129  1  0.984300  0.385200  0.957100  1.0
  C  C1130  1  0.957100  0.984300  0.385200  1.0
  C  C1131  1  0.385200  0.957100  0.984300  1.0
  C  C1132  1  0.015700  0.614800  0.042900  1.0
  C  C1133  1  0.042900  0.015700  0.614800  1.0
  C  C1134  1  0.614800  0.042900  0.015700  1.0
  C  C1135  1  0.945900  0.386100  0.963100  1.0
  C  C1136  1  0.963100  0.945900  0.386100  1.0
  C  C1137  1  0.386100  0.963100  0.945900  1.0
  C  C1138  1  0.054100  0.613900  0.036900  1.0
  C  C1139  1  0.036900  0.054100  0.613900  1.0
  C  C1140  1  0.613900  0.036900  0.054100  1.0
  C  C1141  1  0.924500  0.399800  0.933900  1.0
  C  C1142  1  0.933900  0.924500  0.399800  1.0
  C  C1143  1  0.399800  0.933900  0.924500  1.0
  C  C1144  1  0.075500  0.600200  0.066100  1.0
  C  C1145  1  0.066100  0.075500  0.600200  1.0
  C  C1146  1  0.600200  0.066100  0.075500  1.0
  C  C1147  1  0.941000  0.406200  0.899600  1.0
  C  C1148  1  0.899600  0.941000  0.406200  1.0
  C  C1149  1  0.406200  0.899600  0.941000  1.0
  C  C1150  1  0.059000  0.593800  0.100400  1.0
  C  C1151  1  0.100400  0.059000  0.593800  1.0
  C  C1152  1  0.593800  0.100400  0.059000  1.0
  C  C1153  1  0.000100  0.391800  0.923900  1.0
  C  C1154  1  0.923900  0.000100  0.391800  1.0
  C  C1155  1  0.391800  0.923900  0.000100  1.0
  C  C1156  1  0.999900  0.608200  0.076100  1.0
  C  C1157  1  0.076100  0.999900  0.608200  1.0
  C  C1158  1  0.608200  0.076100  0.999900  1.0
  C  C1159  1  0.038100  0.389400  0.913500  1.0
  C  C1160  1  0.913500  0.038100  0.389400  1.0
  C  C1161  1  0.389400  0.913500  0.038100  1.0
  C  C1162  1  0.961900  0.610600  0.086500  1.0
  C  C1163  1  0.086500  0.961900  0.610600  1.0
  C  C1164  1  0.610600  0.086500  0.961900  1.0
  C  C1165  1  0.922900  0.419300  0.863500  1.0
  C  C1166  1  0.863500  0.922900  0.419300  1.0
  C  C1167  1  0.419300  0.863500  0.922900  1.0
  C  C1168  1  0.077100  0.580700  0.136500  1.0
  C  C1169  1  0.136500  0.077100  0.580700  1.0
  C  C1170  1  0.580700  0.136500  0.077100  1.0
  C  C1171  1  0.930400  0.443600  0.800200  1.0
  C  C1172  1  0.800200  0.930400  0.443600  1.0
  C  C1173  1  0.443600  0.800200  0.930400  1.0
  C  C1174  1  0.069600  0.556400  0.199800  1.0
  C  C1175  1  0.199800  0.069600  0.556400  1.0
  C  C1176  1  0.556400  0.199800  0.069600  1.0
  C  C1177  1  0.904800  0.473200  0.801600  1.0
  C  C1178  1  0.801600  0.904800  0.473200  1.0
  C  C1179  1  0.473200  0.801600  0.904800  1.0
  C  C1180  1  0.095200  0.526800  0.198400  1.0
  C  C1181  1  0.198400  0.095200  0.526800  1.0
  C  C1182  1  0.526800  0.198400  0.095200  1.0
  C  C1183  1  0.891500  0.491700  0.768200  1.0
  C  C1184  1  0.768200  0.891500  0.491700  1.0
  C  C1185  1  0.491700  0.768200  0.891500  1.0
  C  C1186  1  0.108500  0.508300  0.231800  1.0
  C  C1187  1  0.231800  0.108500  0.508300  1.0
  C  C1188  1  0.508300  0.231800  0.108500  1.0
  C  C1189  1  0.904300  0.479100  0.733200  1.0
  C  C1190  1  0.733200  0.904300  0.479100  1.0
  C  C1191  1  0.479100  0.733200  0.904300  1.0
  C  C1192  1  0.095700  0.520900  0.266800  1.0
  C  C1193  1  0.266800  0.095700  0.520900  1.0
  C  C1194  1  0.520900  0.266800  0.095700  1.0
  C  C1195  1  0.930100  0.448300  0.732500  1.0
  C  C1196  1  0.732500  0.930100  0.448300  1.0
  C  C1197  1  0.448300  0.732500  0.930100  1.0
  C  C1198  1  0.069900  0.551700  0.267500  1.0
  C  C1199  1  0.267500  0.069900  0.551700  1.0
  C  C1200  1  0.551700  0.267500  0.069900  1.0
  C  C1201  1  0.944200  0.431000  0.764500  1.0
  C  C1202  1  0.764500  0.944200  0.431000  1.0
  C  C1203  1  0.431000  0.764500  0.944200  1.0
  C  C1204  1  0.055800  0.569000  0.235500  1.0
  C  C1205  1  0.235500  0.055800  0.569000  1.0
  C  C1206  1  0.569000  0.235500  0.055800  1.0
  C  C1207  1  0.159500  0.682800  0.439300  1.0
  C  C1208  1  0.439300  0.159500  0.682800  1.0
  C  C1209  1  0.682800  0.439300  0.159500  1.0
  C  C1210  1  0.840500  0.317200  0.560700  1.0
  C  C1211  1  0.560700  0.840500  0.317200  1.0
  C  C1212  1  0.317200  0.560700  0.840500  1.0
  C  C1213  1  0.194900  0.700000  0.419700  1.0
  C  C1214  1  0.419700  0.194900  0.700000  1.0
  C  C1215  1  0.700000  0.419700  0.194900  1.0
  C  C1216  1  0.805100  0.300000  0.580300  1.0
  C  C1217  1  0.580300  0.805100  0.300000  1.0
  C  C1218  1  0.300000  0.580300  0.805100  1.0
  C  C1219  1  0.221400  0.711200  0.439300  1.0
  C  C1220  1  0.439300  0.221400  0.711200  1.0
  C  C1221  1  0.711200  0.439300  0.221400  1.0
  C  C1222  1  0.778600  0.288800  0.560700  1.0
  C  C1223  1  0.560700  0.778600  0.288800  1.0
  C  C1224  1  0.288800  0.560700  0.778600  1.0
  C  C1225  1  0.215900  0.709800  0.476800  1.0
  C  C1226  1  0.476800  0.215900  0.709800  1.0
  C  C1227  1  0.709800  0.476800  0.215900  1.0
  C  C1228  1  0.784100  0.290200  0.523200  1.0
  C  C1229  1  0.523200  0.784100  0.290200  1.0
  C  C1230  1  0.290200  0.523200  0.784100  1.0
  C  C1231  1  0.240300  0.723200  0.496900  1.0
  C  C1232  1  0.496900  0.240300  0.723200  1.0
  C  C1233  1  0.723200  0.496900  0.240300  1.0
  C  C1234  1  0.759700  0.276800  0.503100  1.0
  C  C1235  1  0.503100  0.759700  0.276800  1.0
  C  C1236  1  0.276800  0.503100  0.759700  1.0
  C  C1237  1  0.241400  0.720200  0.539300  1.0
  C  C1238  1  0.539300  0.241400  0.720200  1.0
  C  C1239  1  0.720200  0.539300  0.241400  1.0
  C  C1240  1  0.758600  0.279800  0.460700  1.0
  C  C1241  1  0.460700  0.758600  0.279800  1.0
  C  C1242  1  0.279800  0.460700  0.758600  1.0
  C  C1243  1  0.205100  0.702600  0.556000  1.0
  C  C1244  1  0.556000  0.205100  0.702600  1.0
  C  C1245  1  0.702600  0.556000  0.205100  1.0
  C  C1246  1  0.794900  0.297400  0.444000  1.0
  C  C1247  1  0.444000  0.794900  0.297400  1.0
  C  C1248  1  0.297400  0.444000  0.794900  1.0
  C  C1249  1  0.201300  0.703000  0.597800  1.0
  C  C1250  1  0.597800  0.201300  0.703000  1.0
  C  C1251  1  0.703000  0.597800  0.201300  1.0
  C  C1252  1  0.798700  0.297000  0.402200  1.0
  C  C1253  1  0.402200  0.798700  0.297000  1.0
  C  C1254  1  0.297000  0.402200  0.798700  1.0
  C  C1255  1  0.164500  0.687400  0.611200  1.0
  C  C1256  1  0.611200  0.164500  0.687400  1.0
  C  C1257  1  0.687400  0.611200  0.164500  1.0
  C  C1258  1  0.835500  0.312600  0.388800  1.0
  C  C1259  1  0.388800  0.835500  0.312600  1.0
  C  C1260  1  0.312600  0.388800  0.835500  1.0
  C  C1261  1  0.140900  0.675500  0.584300  1.0
  C  C1262  1  0.584300  0.140900  0.675500  1.0
  C  C1263  1  0.675500  0.584300  0.140900  1.0
  C  C1264  1  0.859100  0.324500  0.415700  1.0
  C  C1265  1  0.415700  0.859100  0.324500  1.0
  C  C1266  1  0.324500  0.415700  0.859100  1.0
  C  C1267  1  0.181400  0.692400  0.533500  1.0
  C  C1268  1  0.533500  0.181400  0.692400  1.0
  C  C1269  1  0.692400  0.533500  0.181400  1.0
  C  C1270  1  0.818600  0.307600  0.466500  1.0
  C  C1271  1  0.466500  0.818600  0.307600  1.0
  C  C1272  1  0.307600  0.466500  0.818600  1.0
  C  C1273  1  0.182300  0.694000  0.494400  1.0
  C  C1274  1  0.494400  0.182300  0.694000  1.0
  C  C1275  1  0.694000  0.494400  0.182300  1.0
  C  C1276  1  0.817700  0.306000  0.505600  1.0
  C  C1277  1  0.505600  0.817700  0.306000  1.0
  C  C1278  1  0.306000  0.505600  0.817700  1.0
  C  C1279  1  0.103100  0.656400  0.595300  1.0
  C  C1280  1  0.595300  0.103100  0.656400  1.0
  C  C1281  1  0.656400  0.595300  0.103100  1.0
  C  C1282  1  0.896900  0.343600  0.404700  1.0
  C  C1283  1  0.404700  0.896900  0.343600  1.0
  C  C1284  1  0.343600  0.404700  0.896900  1.0
  C  C1285  1  0.048400  0.630600  0.576200  1.0
  C  C1286  1  0.576200  0.048400  0.630600  1.0
  C  C1287  1  0.630600  0.576200  0.048400  1.0
  C  C1288  1  0.951600  0.369400  0.423800  1.0
  C  C1289  1  0.423800  0.951600  0.369400  1.0
  C  C1290  1  0.369400  0.423800  0.951600  1.0
  C  C1291  1  0.035900  0.601900  0.554700  1.0
  C  C1292  1  0.554700  0.035900  0.601900  1.0
  C  C1293  1  0.601900  0.554700  0.035900  1.0
  C  C1294  1  0.964100  0.398100  0.445300  1.0
  C  C1295  1  0.445300  0.964100  0.398100  1.0
  C  C1296  1  0.398100  0.445300  0.964100  1.0
  C  C1297  1  0.001300  0.587400  0.561500  1.0
  C  C1298  1  0.561500  0.001300  0.587400  1.0
  C  C1299  1  0.587400  0.561500  0.001300  1.0
  C  C1300  1  0.998700  0.412600  0.438500  1.0
  C  C1301  1  0.438500  0.998700  0.412600  1.0
  C  C1302  1  0.412600  0.438500  0.998700  1.0
  C  C1303  1  0.976300  0.602200  0.590300  1.0
  C  C1304  1  0.590300  0.976300  0.602200  1.0
  C  C1305  1  0.602200  0.590300  0.976300  1.0
  C  C1306  1  0.023700  0.397800  0.409700  1.0
  C  C1307  1  0.409700  0.023700  0.397800  1.0
  C  C1308  1  0.397800  0.409700  0.023700  1.0
  C  C1309  1  0.987500  0.632000  0.608400  1.0
  C  C1310  1  0.608400  0.987500  0.632000  1.0
  C  C1311  1  0.632000  0.608400  0.987500  1.0
  C  C1312  1  0.012500  0.368000  0.391600  1.0
  C  C1313  1  0.391600  0.012500  0.368000  1.0
  C  C1314  1  0.368000  0.391600  0.012500  1.0
  C  C1315  1  0.022700  0.645700  0.602100  1.0
  C  C1316  1  0.602100  0.022700  0.645700  1.0
  C  C1317  1  0.645700  0.602100  0.022700  1.0
  C  C1318  1  0.977300  0.354300  0.397900  1.0
  C  C1319  1  0.397900  0.977300  0.354300  1.0
  C  C1320  1  0.354300  0.397900  0.977300  1.0
  C  C1321  1  0.816700  0.587400  0.539100  1.0
  C  C1322  1  0.539100  0.816700  0.587400  1.0
  C  C1323  1  0.587400  0.539100  0.816700  1.0
  C  C1324  1  0.183300  0.412600  0.460900  1.0
  C  C1325  1  0.460900  0.183300  0.412600  1.0
  C  C1326  1  0.412600  0.460900  0.183300  1.0
  C  C1327  1  0.791800  0.563400  0.560100  1.0
  C  C1328  1  0.560100  0.791800  0.563400  1.0
  C  C1329  1  0.563400  0.560100  0.791800  1.0
  C  C1330  1  0.208200  0.436600  0.439900  1.0
  C  C1331  1  0.439900  0.208200  0.436600  1.0
  C  C1332  1  0.436600  0.439900  0.208200  1.0
  C  C1333  1  0.755100  0.553800  0.551200  1.0
  C  C1334  1  0.551200  0.755100  0.553800  1.0
  C  C1335  1  0.553800  0.551200  0.755100  1.0
  C  C1336  1  0.244900  0.446200  0.448800  1.0
  C  C1337  1  0.448800  0.244900  0.446200  1.0
  C  C1338  1  0.446200  0.448800  0.244900  1.0
  C  C1339  1  0.742500  0.528100  0.578100  1.0
  C  C1340  1  0.578100  0.742500  0.528100  1.0
  C  C1341  1  0.528100  0.578100  0.742500  1.0
  C  C1342  1  0.257500  0.471900  0.421900  1.0
  C  C1343  1  0.421900  0.257500  0.471900  1.0
  C  C1344  1  0.471900  0.421900  0.257500  1.0
  C  C1345  1  0.771000  0.522800  0.605600  1.0
  C  C1346  1  0.605600  0.771000  0.522800  1.0
  C  C1347  1  0.522800  0.605600  0.771000  1.0
  C  C1348  1  0.229000  0.477200  0.394400  1.0
  C  C1349  1  0.394400  0.229000  0.477200  1.0
  C  C1350  1  0.477200  0.394400  0.229000  1.0
  C  C1351  1  0.769000  0.499300  0.637700  1.0
  C  C1352  1  0.637700  0.769000  0.499300  1.0
  C  C1353  1  0.499300  0.637700  0.769000  1.0
  C  C1354  1  0.231000  0.500700  0.362300  1.0
  C  C1355  1  0.362300  0.231000  0.500700  1.0
  C  C1356  1  0.500700  0.362300  0.231000  1.0
  C  C1357  1  0.796500  0.491600  0.664100  1.0
  C  C1358  1  0.664100  0.796500  0.491600  1.0
  C  C1359  1  0.491600  0.664100  0.796500  1.0
  C  C1360  1  0.203500  0.508400  0.335900  1.0
  C  C1361  1  0.335900  0.203500  0.508400  1.0
  C  C1362  1  0.508400  0.335900  0.203500  1.0
  C  C1363  1  0.794000  0.468600  0.699500  1.0
  C  C1364  1  0.699500  0.794000  0.468600  1.0
  C  C1365  1  0.468600  0.699500  0.794000  1.0
  C  C1366  1  0.206000  0.531400  0.300500  1.0
  C  C1367  1  0.300500  0.206000  0.531400  1.0
  C  C1368  1  0.531400  0.300500  0.206000  1.0
  C  C1369  1  0.826800  0.468500  0.716300  1.0
  C  C1370  1  0.716300  0.826800  0.468500  1.0
  C  C1371  1  0.468500  0.716300  0.826800  1.0
  C  C1372  1  0.173200  0.531500  0.283700  1.0
  C  C1373  1  0.283700  0.173200  0.531500  1.0
  C  C1374  1  0.531500  0.283700  0.173200  1.0
  C  C1375  1  0.851200  0.491800  0.692300  1.0
  C  C1376  1  0.692300  0.851200  0.491800  1.0
  C  C1377  1  0.491800  0.692300  0.851200  1.0
  C  C1378  1  0.148800  0.508200  0.307700  1.0
  C  C1379  1  0.307700  0.148800  0.508200  1.0
  C  C1380  1  0.508200  0.307700  0.148800  1.0
  C  C1381  1  0.888500  0.497600  0.698100  1.0
  C  C1382  1  0.698100  0.888500  0.497600  1.0
  C  C1383  1  0.497600  0.698100  0.888500  1.0
  C  C1384  1  0.111500  0.502400  0.301900  1.0
  C  C1385  1  0.301900  0.111500  0.502400  1.0
  C  C1386  1  0.502400  0.301900  0.111500  1.0
  C  C1387  1  0.914500  0.519800  0.676600  1.0
  C  C1388  1  0.676600  0.914500  0.519800  1.0
  C  C1389  1  0.519800  0.676600  0.914500  1.0
  C  C1390  1  0.085500  0.480200  0.323400  1.0
  C  C1391  1  0.323400  0.085500  0.480200  1.0
  C  C1392  1  0.480200  0.323400  0.085500  1.0
  C  C1393  1  0.951800  0.528100  0.684100  1.0
  C  C1394  1  0.684100  0.951800  0.528100  1.0
  C  C1395  1  0.528100  0.684100  0.951800  1.0
  C  C1396  1  0.048200  0.471900  0.315900  1.0
  C  C1397  1  0.315900  0.048200  0.471900  1.0
  C  C1398  1  0.471900  0.315900  0.048200  1.0
  C  C1399  1  0.966700  0.551300  0.655600  1.0
  C  C1400  1  0.655600  0.966700  0.551300  1.0
  C  C1401  1  0.551300  0.655600  0.966700  1.0
  C  C1402  1  0.033300  0.448700  0.344400  1.0
  C  C1403  1  0.344400  0.033300  0.448700  1.0
  C  C1404  1  0.448700  0.344400  0.033300  1.0
  C  C1405  1  0.936400  0.559600  0.629900  1.0
  C  C1406  1  0.629900  0.936400  0.559600  1.0
  C  C1407  1  0.559600  0.629900  0.936400  1.0
  C  C1408  1  0.063600  0.440400  0.370100  1.0
  C  C1409  1  0.370100  0.063600  0.440400  1.0
  C  C1410  1  0.440400  0.370100  0.063600  1.0
  C  C1411  1  0.938300  0.584400  0.599000  1.0
  C  C1412  1  0.599000  0.938300  0.584400  1.0
  C  C1413  1  0.584400  0.599000  0.938300  1.0
  C  C1414  1  0.061700  0.415600  0.401000  1.0
  C  C1415  1  0.401000  0.061700  0.415600  1.0
  C  C1416  1  0.415600  0.401000  0.061700  1.0
  C  C1417  1  0.910100  0.593900  0.573900  1.0
  C  C1418  1  0.573900  0.910100  0.593900  1.0
  C  C1419  1  0.593900  0.573900  0.910100  1.0
  C  C1420  1  0.089900  0.406100  0.426100  1.0
  C  C1421  1  0.426100  0.089900  0.406100  1.0
  C  C1422  1  0.406100  0.426100  0.089900  1.0
  C  C1423  1  0.911500  0.618400  0.541400  1.0
  C  C1424  1  0.541400  0.911500  0.618400  1.0
  C  C1425  1  0.618400  0.541400  0.911500  1.0
  C  C1426  1  0.088500  0.381600  0.458600  1.0
  C  C1427  1  0.458600  0.088500  0.381600  1.0
  C  C1428  1  0.381600  0.458600  0.088500  1.0
  C  C1429  1  0.877800  0.621300  0.523900  1.0
  C  C1430  1  0.523900  0.877800  0.621300  1.0
  C  C1431  1  0.621300  0.523900  0.877800  1.0
  C  C1432  1  0.122200  0.378700  0.476100  1.0
  C  C1433  1  0.476100  0.122200  0.378700  1.0
  C  C1434  1  0.378700  0.476100  0.122200  1.0
  C  C1435  1  0.854700  0.593800  0.548400  1.0
  C  C1436  1  0.548400  0.854700  0.593800  1.0
  C  C1437  1  0.593800  0.548400  0.854700  1.0
  C  C1438  1  0.145300  0.406200  0.451600  1.0
  C  C1439  1  0.451600  0.145300  0.406200  1.0
  C  C1440  1  0.406200  0.451600  0.145300  1.0
  C  C1441  1  0.172800  0.675900  0.793200  0.25
  C  C1442  1  0.793200  0.172800  0.675900  0.25
  C  C1443  1  0.675900  0.793200  0.172800  0.25
  C  C1444  1  0.827200  0.324100  0.206800  0.25
  C  C1445  1  0.206800  0.827200  0.324100  0.25
  C  C1446  1  0.324100  0.206800  0.827200  0.25
  C  C1447  1  0.193300  0.658500  0.824000  0.25
  C  C1448  1  0.824000  0.193300  0.658500  0.25
  C  C1449  1  0.658500  0.824000  0.193300  0.25
  C  C1450  1  0.806700  0.341500  0.176000  0.25
  C  C1451  1  0.176000  0.806700  0.341500  0.25
  C  C1452  1  0.341500  0.176000  0.806700  0.25
  C  C1453  1  0.562200  0.554300  0.648800  0.36
  C  C1454  1  0.648800  0.562200  0.554300  0.36
  C  C1455  1  0.554300  0.648800  0.562200  0.36
  C  C1456  1  0.437800  0.445700  0.351200  0.36
  C  C1457  1  0.351200  0.437800  0.445700  0.36
  C  C1458  1  0.445700  0.351200  0.437800  0.36
  C  C1459  1  0.550900  0.593500  0.637700  0.36
  C  C1460  1  0.637700  0.550900  0.593500  0.36
  C  C1461  1  0.593500  0.637700  0.550900  0.36
  C  C1462  1  0.449100  0.406500  0.362300  0.36
  C  C1463  1  0.362300  0.449100  0.406500  0.36
  C  C1464  1  0.406500  0.362300  0.449100  0.36
  C  C1465  1  0.156200  0.587300  0.641900  0.5
  C  C1466  1  0.641900  0.156200  0.587300  0.5
  C  C1467  1  0.587300  0.641900  0.156200  0.5
  C  C1468  1  0.843800  0.412700  0.358100  0.5
  C  C1469  1  0.358100  0.843800  0.412700  0.5
  C  C1470  1  0.412700  0.358100  0.843800  0.5
  C  C1471  1  0.124900  0.570700  0.665500  0.5
  C  C1472  1  0.665500  0.124900  0.570700  0.5
  C  C1473  1  0.570700  0.665500  0.124900  0.5
  C  C1474  1  0.875100  0.429300  0.334500  0.5
  C  C1475  1  0.334500  0.875100  0.429300  0.5
  C  C1476  1  0.429300  0.334500  0.875100  0.5
  C  C1477  1  0.546800  0.541200  0.643400  0.64
  C  C1478  1  0.643400  0.546800  0.541200  0.64
  C  C1479  1  0.541200  0.643400  0.546800  0.64
  C  C1480  1  0.453200  0.458800  0.356600  0.64
  C  C1481  1  0.356600  0.453200  0.458800  0.64
  C  C1482  1  0.458800  0.356600  0.453200  0.64
  C  C1483  1  0.528200  0.569500  0.619000  0.64
  C  C1484  1  0.619000  0.528200  0.569500  0.64
  C  C1485  1  0.569500  0.619000  0.528200  0.64
  C  C1486  1  0.471800  0.430500  0.381000  0.64
  C  C1487  1  0.381000  0.471800  0.430500  0.64
  C  C1488  1  0.430500  0.381000  0.471800  0.64
  Co  Co1489  1  0.004680  0.414020  0.842560  1.0
  Co  Co1490  1  0.842560  0.004680  0.414020  1.0
  Co  Co1491  1  0.414020  0.842560  0.004680  1.0
  Co  Co1492  1  0.995320  0.585980  0.157440  1.0
  Co  Co1493  1  0.157440  0.995320  0.585980  1.0
  Co  Co1494  1  0.585980  0.157440  0.995320  1.0
  Co  Co1495  1  0.714760  0.628290  0.371730  1.0
  Co  Co1496  1  0.371730  0.714760  0.628290  1.0
  Co  Co1497  1  0.628290  0.371730  0.714760  1.0
  Co  Co1498  1  0.285240  0.371710  0.628270  1.0
  Co  Co1499  1  0.628270  0.285240  0.371710  1.0
  Co  Co1500  1  0.371710  0.628270  0.285240  1.0
  Co  Co1501  1  0.653690  0.511340  0.112220  1.0
  Co  Co1502  1  0.112220  0.653690  0.511340  1.0
  Co  Co1503  1  0.511340  0.112220  0.653690  1.0
  Co  Co1504  1  0.346310  0.488660  0.887780  1.0
  Co  Co1505  1  0.887780  0.346310  0.488660  1.0
  Co  Co1506  1  0.488660  0.887780  0.346310  1.0
  Co  Co1507  1  0.126620  0.779880  0.890560  1.0
  Co  Co1508  1  0.890560  0.126620  0.779880  1.0
  Co  Co1509  1  0.779880  0.890560  0.126620  1.0
  Co  Co1510  1  0.873380  0.220120  0.109440  1.0
  Co  Co1511  1  0.109440  0.873380  0.220120  1.0
  Co  Co1512  1  0.220120  0.109440  0.873380  1.0
  H  H1513  1  0.985400  0.325500  0.851300  1.0
  H  H1514  1  0.851300  0.985400  0.325500  1.0
  H  H1515  1  0.325500  0.851300  0.985400  1.0
  H  H1516  1  0.014600  0.674500  0.148700  1.0
  H  H1517  1  0.148700  0.014600  0.674500  1.0
  H  H1518  1  0.674500  0.148700  0.014600  1.0
  H  H1519  1  0.000100  0.267400  0.819100  1.0
  H  H1520  1  0.819100  0.000100  0.267400  1.0
  H  H1521  1  0.267400  0.819100  0.000100  1.0
  H  H1522  1  0.999900  0.732600  0.180900  1.0
  H  H1523  1  0.180900  0.999900  0.732600  1.0
  H  H1524  1  0.732600  0.180900  0.999900  1.0
  H  H1525  1  0.039600  0.272900  0.762700  1.0
  H  H1526  1  0.762700  0.039600  0.272900  1.0
  H  H1527  1  0.272900  0.762700  0.039600  1.0
  H  H1528  1  0.960400  0.727100  0.237300  1.0
  H  H1529  1  0.237300  0.960400  0.727100  1.0
  H  H1530  1  0.727100  0.237300  0.960400  1.0
  H  H1531  1  0.083100  0.309500  0.720700  1.0
  H  H1532  1  0.720700  0.083100  0.309500  1.0
  H  H1533  1  0.309500  0.720700  0.083100  1.0
  H  H1534  1  0.916900  0.690500  0.279300  1.0
  H  H1535  1  0.279300  0.916900  0.690500  1.0
  H  H1536  1  0.690500  0.279300  0.916900  1.0
  H  H1537  1  0.102300  0.367000  0.700100  1.0
  H  H1538  1  0.700100  0.102300  0.367000  1.0
  H  H1539  1  0.367000  0.700100  0.102300  1.0
  H  H1540  1  0.897700  0.633000  0.299900  1.0
  H  H1541  1  0.299900  0.897700  0.633000  1.0
  H  H1542  1  0.633000  0.299900  0.897700  1.0
  H  H1543  1  0.100000  0.443400  0.708800  1.0
  H  H1544  1  0.708800  0.100000  0.443400  1.0
  H  H1545  1  0.443400  0.708800  0.100000  1.0
  H  H1546  1  0.900000  0.556600  0.291200  1.0
  H  H1547  1  0.291200  0.900000  0.556600  1.0
  H  H1548  1  0.556600  0.291200  0.900000  1.0
  H  H1549  1  0.076900  0.491600  0.744900  1.0
  H  H1550  1  0.744900  0.076900  0.491600  1.0
  H  H1551  1  0.491600  0.744900  0.076900  1.0
  H  H1552  1  0.923100  0.508400  0.255100  1.0
  H  H1553  1  0.255100  0.923100  0.508400  1.0
  H  H1554  1  0.508400  0.255100  0.923100  1.0
  H  H1555  1  0.031200  0.513300  0.804000  1.0
  H  H1556  1  0.804000  0.031200  0.513300  1.0
  H  H1557  1  0.513300  0.804000  0.031200  1.0
  H  H1558  1  0.968800  0.486700  0.196000  1.0
  H  H1559  1  0.196000  0.968800  0.486700  1.0
  H  H1560  1  0.486700  0.196000  0.968800  1.0
  H  H1561  1  0.988100  0.477000  0.911000  1.0
  H  H1562  1  0.911000  0.988100  0.477000  1.0
  H  H1563  1  0.477000  0.911000  0.988100  1.0
  H  H1564  1  0.011900  0.523000  0.089000  1.0
  H  H1565  1  0.089000  0.011900  0.523000  1.0
  H  H1566  1  0.523000  0.089000  0.011900  1.0
  H  H1567  1  0.951200  0.522100  0.942400  1.0
  H  H1568  1  0.942400  0.951200  0.522100  1.0
  H  H1569  1  0.522100  0.942400  0.951200  1.0
  H  H1570  1  0.048800  0.477900  0.057600  1.0
  H  H1571  1  0.057600  0.048800  0.477900  1.0
  H  H1572  1  0.477900  0.057600  0.048800  1.0
  H  H1573  1  0.932100  0.581900  0.845000  1.0
  H  H1574  1  0.845000  0.932100  0.581900  1.0
  H  H1575  1  0.581900  0.845000  0.932100  1.0
  H  H1576  1  0.067900  0.418100  0.155000  1.0
  H  H1577  1  0.155000  0.067900  0.418100  1.0
  H  H1578  1  0.418100  0.155000  0.067900  1.0
  H  H1579  1  0.967800  0.537900  0.810700  1.0
  H  H1580  1  0.810700  0.967800  0.537900  1.0
  H  H1581  1  0.537900  0.810700  0.967800  1.0
  H  H1582  1  0.032200  0.462100  0.189300  1.0
  H  H1583  1  0.189300  0.032200  0.462100  1.0
  H  H1584  1  0.462100  0.189300  0.032200  1.0
  H  H1585  1  0.601600  0.548800  0.183700  1.0
  H  H1586  1  0.183700  0.601600  0.548800  1.0
  H  H1587  1  0.548800  0.183700  0.601600  1.0
  H  H1588  1  0.398400  0.451200  0.816300  1.0
  H  H1589  1  0.816300  0.398400  0.451200  1.0
  H  H1590  1  0.451200  0.816300  0.398400  1.0
  H  H1591  1  0.540800  0.530100  0.217900  1.0
  H  H1592  1  0.217900  0.540800  0.530100  1.0
  H  H1593  1  0.530100  0.217900  0.540800  1.0
  H  H1594  1  0.459200  0.469900  0.782100  1.0
  H  H1595  1  0.782100  0.459200  0.469900  1.0
  H  H1596  1  0.469900  0.782100  0.459200  1.0
  H  H1597  1  0.508500  0.482000  0.198700  1.0
  H  H1598  1  0.198700  0.508500  0.482000  1.0
  H  H1599  1  0.482000  0.198700  0.508500  1.0
  H  H1600  1  0.491500  0.518000  0.801300  1.0
  H  H1601  1  0.801300  0.491500  0.518000  1.0
  H  H1602  1  0.518000  0.801300  0.491500  1.0
  H  H1603  1  0.500300  0.433800  0.150400  1.0
  H  H1604  1  0.150400  0.500300  0.433800  1.0
  H  H1605  1  0.433800  0.150400  0.500300  1.0
  H  H1606  1  0.499700  0.566200  0.849600  1.0
  H  H1607  1  0.849600  0.499700  0.566200  1.0
  H  H1608  1  0.566200  0.849600  0.499700  1.0
  H  H1609  1  0.532300  0.393500  0.105600  1.0
  H  H1610  1  0.105600  0.532300  0.393500  1.0
  H  H1611  1  0.393500  0.105600  0.532300  1.0
  H  H1612  1  0.467700  0.606500  0.894400  1.0
  H  H1613  1  0.894400  0.467700  0.606500  1.0
  H  H1614  1  0.606500  0.894400  0.467700  1.0
  H  H1615  1  0.578400  0.393100  0.045500  1.0
  H  H1616  1  0.045500  0.578400  0.393100  1.0
  H  H1617  1  0.393100  0.045500  0.578400  1.0
  H  H1618  1  0.421600  0.606900  0.954500  1.0
  H  H1619  1  0.954500  0.421600  0.606900  1.0
  H  H1620  1  0.606900  0.954500  0.421600  1.0
  H  H1621  1  0.633000  0.419200  0.016700  1.0
  H  H1622  1  0.016700  0.633000  0.419200  1.0
  H  H1623  1  0.419200  0.016700  0.633000  1.0
  H  H1624  1  0.367000  0.580800  0.983300  1.0
  H  H1625  1  0.983300  0.367000  0.580800  1.0
  H  H1626  1  0.580800  0.983300  0.367000  1.0
  H  H1627  1  0.685500  0.473100  0.015000  1.0
  H  H1628  1  0.015000  0.685500  0.473100  1.0
  H  H1629  1  0.473100  0.015000  0.685500  1.0
  H  H1630  1  0.314500  0.526900  0.985000  1.0
  H  H1631  1  0.985000  0.314500  0.526900  1.0
  H  H1632  1  0.526900  0.985000  0.314500  1.0
  H  H1633  1  0.703600  0.521600  0.989200  1.0
  H  H1634  1  0.989200  0.703600  0.521600  1.0
  H  H1635  1  0.521600  0.989200  0.703600  1.0
  H  H1636  1  0.296400  0.478400  0.010800  1.0
  H  H1637  1  0.010800  0.296400  0.478400  1.0
  H  H1638  1  0.478400  0.010800  0.296400  1.0
  H  H1639  1  0.752200  0.560400  0.965700  1.0
  H  H1640  1  0.965700  0.752200  0.560400  1.0
  H  H1641  1  0.560400  0.965700  0.752200  1.0
  H  H1642  1  0.247800  0.439600  0.034300  1.0
  H  H1643  1  0.034300  0.247800  0.439600  1.0
  H  H1644  1  0.439600  0.034300  0.247800  1.0
  H  H1645  1  0.790500  0.565300  0.070700  1.0
  H  H1646  1  0.070700  0.790500  0.565300  1.0
  H  H1647  1  0.565300  0.070700  0.790500  1.0
  H  H1648  1  0.209500  0.434700  0.929300  1.0
  H  H1649  1  0.929300  0.209500  0.434700  1.0
  H  H1650  1  0.434700  0.929300  0.209500  1.0
  H  H1651  1  0.743100  0.526700  0.094300  1.0
  H  H1652  1  0.094300  0.743100  0.526700  1.0
  H  H1653  1  0.526700  0.094300  0.743100  1.0
  H  H1654  1  0.256900  0.473300  0.905700  1.0
  H  H1655  1  0.905700  0.256900  0.473300  1.0
  H  H1656  1  0.473300  0.905700  0.256900  1.0
  H  H1657  1  0.835900  0.950600  0.158700  1.0
  H  H1658  1  0.158700  0.835900  0.950600  1.0
  H  H1659  1  0.950600  0.158700  0.835900  1.0
  H  H1660  1  0.164100  0.049400  0.841300  1.0
  H  H1661  1  0.841300  0.164100  0.049400  1.0
  H  H1662  1  0.049400  0.841300  0.164100  1.0
  H  H1663  1  0.822300  0.012100  0.191500  1.0
  H  H1664  1  0.191500  0.822300  0.012100  1.0
  H  H1665  1  0.012100  0.191500  0.822300  1.0
  H  H1666  1  0.177700  0.987900  0.808500  1.0
  H  H1667  1  0.808500  0.177700  0.987900  1.0
  H  H1668  1  0.987900  0.808500  0.177700  1.0
  H  H1669  1  0.762200  0.039700  0.197000  1.0
  H  H1670  1  0.197000  0.762200  0.039700  1.0
  H  H1671  1  0.039700  0.197000  0.762200  1.0
  H  H1672  1  0.237800  0.960300  0.803000  1.0
  H  H1673  1  0.803000  0.237800  0.960300  1.0
  H  H1674  1  0.960300  0.803000  0.237800  1.0
  H  H1675  1  0.700100  0.039900  0.181200  1.0
  H  H1676  1  0.181200  0.700100  0.039900  1.0
  H  H1677  1  0.039900  0.181200  0.700100  1.0
  H  H1678  1  0.299900  0.960100  0.818800  1.0
  H  H1679  1  0.818800  0.299900  0.960100  1.0
  H  H1680  1  0.960100  0.818800  0.299900  1.0
  H  H1681  1  0.645100  0.007600  0.166800  1.0
  H  H1682  1  0.166800  0.645100  0.007600  1.0
  H  H1683  1  0.007600  0.166800  0.645100  1.0
  H  H1684  1  0.354900  0.992400  0.833200  1.0
  H  H1685  1  0.833200  0.354900  0.992400  1.0
  H  H1686  1  0.992400  0.833200  0.354900  1.0
  H  H1687  1  0.624400  0.949600  0.129100  1.0
  H  H1688  1  0.129100  0.624400  0.949600  1.0
  H  H1689  1  0.949600  0.129100  0.624400  1.0
  H  H1690  1  0.375600  0.050400  0.870900  1.0
  H  H1691  1  0.870900  0.375600  0.050400  1.0
  H  H1692  1  0.050400  0.870900  0.375600  1.0
  H  H1693  1  0.644200  0.897400  0.095800  1.0
  H  H1694  1  0.095800  0.644200  0.897400  1.0
  H  H1695  1  0.897400  0.095800  0.644200  1.0
  H  H1696  1  0.355800  0.102600  0.904200  1.0
  H  H1697  1  0.904200  0.355800  0.102600  1.0
  H  H1698  1  0.102600  0.904200  0.355800  1.0
  H  H1699  1  0.698900  0.843900  0.082600  1.0
  H  H1700  1  0.082600  0.698900  0.843900  1.0
  H  H1701  1  0.843900  0.082600  0.698900  1.0
  H  H1702  1  0.301100  0.156100  0.917400  1.0
  H  H1703  1  0.917400  0.301100  0.156100  1.0
  H  H1704  1  0.156100  0.917400  0.301100  1.0
  H  H1705  1  0.797000  0.798000  0.122500  1.0
  H  H1706  1  0.122500  0.797000  0.798000  1.0
  H  H1707  1  0.798000  0.122500  0.797000  1.0
  H  H1708  1  0.203000  0.202000  0.877500  1.0
  H  H1709  1  0.877500  0.203000  0.202000  1.0
  H  H1710  1  0.202000  0.877500  0.203000  1.0
  H  H1711  1  0.830200  0.748900  0.091900  1.0
  H  H1712  1  0.091900  0.830200  0.748900  1.0
  H  H1713  1  0.748900  0.091900  0.830200  1.0
  H  H1714  1  0.169800  0.251100  0.908100  1.0
  H  H1715  1  0.908100  0.169800  0.251100  1.0
  H  H1716  1  0.251100  0.908100  0.169800  1.0
  H  H1717  1  0.773100  0.779600  0.998000  1.0
  H  H1718  1  0.998000  0.773100  0.779600  1.0
  H  H1719  1  0.779600  0.998000  0.773100  1.0
  H  H1720  1  0.226900  0.220400  0.002000  1.0
  H  H1721  1  0.002000  0.226900  0.220400  1.0
  H  H1722  1  0.220400  0.002000  0.226900  1.0
  H  H1723  1  0.740200  0.828700  0.028900  1.0
  H  H1724  1  0.028900  0.740200  0.828700  1.0
  H  H1725  1  0.828700  0.028900  0.740200  1.0
  H  H1726  1  0.259800  0.171300  0.971100  1.0
  H  H1727  1  0.971100  0.259800  0.171300  1.0
  H  H1728  1  0.171300  0.971100  0.259800  1.0
  H  H1729  1  0.196700  0.720600  0.874600  1.0
  H  H1730  1  0.874600  0.196700  0.720600  1.0
  H  H1731  1  0.720600  0.874600  0.196700  1.0
  H  H1732  1  0.803300  0.279400  0.125400  1.0
  H  H1733  1  0.125400  0.803300  0.279400  1.0
  H  H1734  1  0.279400  0.125400  0.803300  1.0
  H  H1735  1  0.260000  0.729300  0.840100  1.0
  H  H1736  1  0.840100  0.260000  0.729300  1.0
  H  H1737  1  0.729300  0.840100  0.260000  1.0
  H  H1738  1  0.740000  0.270700  0.159900  1.0
  H  H1739  1  0.159900  0.740000  0.270700  1.0
  H  H1740  1  0.270700  0.159900  0.740000  1.0
  H  H1741  1  0.274900  0.785100  0.815300  1.0
  H  H1742  1  0.815300  0.274900  0.785100  1.0
  H  H1743  1  0.785100  0.815300  0.274900  1.0
  H  H1744  1  0.725100  0.214900  0.184700  1.0
  H  H1745  1  0.184700  0.725100  0.214900  1.0
  H  H1746  1  0.214900  0.184700  0.725100  1.0
  H  H1747  1  0.257800  0.846600  0.800900  1.0
  H  H1748  1  0.800900  0.257800  0.846600  1.0
  H  H1749  1  0.846600  0.800900  0.257800  1.0
  H  H1750  1  0.742200  0.153400  0.199100  1.0
  H  H1751  1  0.199100  0.742200  0.153400  1.0
  H  H1752  1  0.153400  0.199100  0.742200  1.0
  H  H1753  1  0.212200  0.902800  0.799600  1.0
  H  H1754  1  0.799600  0.212200  0.902800  1.0
  H  H1755  1  0.902800  0.799600  0.212200  1.0
  H  H1756  1  0.787800  0.097200  0.200400  1.0
  H  H1757  1  0.200400  0.787800  0.097200  1.0
  H  H1758  1  0.097200  0.200400  0.787800  1.0
  H  H1759  1  0.145900  0.928000  0.819400  1.0
  H  H1760  1  0.819400  0.145900  0.928000  1.0
  H  H1761  1  0.928000  0.819400  0.145900  1.0
  H  H1762  1  0.854100  0.072000  0.180600  1.0
  H  H1763  1  0.180600  0.854100  0.072000  1.0
  H  H1764  1  0.072000  0.180600  0.854100  1.0
  H  H1765  1  0.083700  0.910500  0.856500  1.0
  H  H1766  1  0.856500  0.083700  0.910500  1.0
  H  H1767  1  0.910500  0.856500  0.083700  1.0
  H  H1768  1  0.916300  0.089500  0.143500  1.0
  H  H1769  1  0.143500  0.916300  0.089500  1.0
  H  H1770  1  0.089500  0.143500  0.916300  1.0
  H  H1771  1  0.045700  0.857800  0.895900  1.0
  H  H1772  1  0.895900  0.045700  0.857800  1.0
  H  H1773  1  0.857800  0.895900  0.045700  1.0
  H  H1774  1  0.954300  0.142200  0.104100  1.0
  H  H1775  1  0.104100  0.954300  0.142200  1.0
  H  H1776  1  0.142200  0.104100  0.954300  1.0
  H  H1777  1  0.063500  0.754300  0.956100  1.0
  H  H1778  1  0.956100  0.063500  0.754300  1.0
  H  H1779  1  0.754300  0.956100  0.063500  1.0
  H  H1780  1  0.936500  0.245700  0.043900  1.0
  H  H1781  1  0.043900  0.936500  0.245700  1.0
  H  H1782  1  0.245700  0.043900  0.936500  1.0
  H  H1783  1  0.011300  0.718400  0.971300  1.0
  H  H1784  1  0.971300  0.011300  0.718400  1.0
  H  H1785  1  0.718400  0.971300  0.011300  1.0
  H  H1786  1  0.988700  0.281600  0.028700  1.0
  H  H1787  1  0.028700  0.988700  0.281600  1.0
  H  H1788  1  0.281600  0.028700  0.988700  1.0
  H  H1789  1  0.951000  0.778200  0.894100  1.0
  H  H1790  1  0.894100  0.951000  0.778200  1.0
  H  H1791  1  0.778200  0.894100  0.951000  1.0
  H  H1792  1  0.049000  0.221800  0.105900  1.0
  H  H1793  1  0.105900  0.049000  0.221800  1.0
  H  H1794  1  0.221800  0.105900  0.049000  1.0
  H  H1795  1  0.001800  0.815300  0.878200  1.0
  H  H1796  1  0.878200  0.001800  0.815300  1.0
  H  H1797  1  0.815300  0.878200  0.001800  1.0
  H  H1798  1  0.998200  0.184700  0.121800  1.0
  H  H1799  1  0.121800  0.998200  0.184700  1.0
  H  H1800  1  0.184700  0.121800  0.998200  1.0
  H  H1801  1  0.875800  0.521500  0.926900  1.0
  H  H1802  1  0.926900  0.875800  0.521500  1.0
  H  H1803  1  0.521500  0.926900  0.875800  1.0
  H  H1804  1  0.124200  0.478500  0.073100  1.0
  H  H1805  1  0.073100  0.124200  0.478500  1.0
  H  H1806  1  0.478500  0.073100  0.124200  1.0
  H  H1807  1  0.817300  0.526000  0.967100  1.0
  H  H1808  1  0.967100  0.817300  0.526000  1.0
  H  H1809  1  0.526000  0.967100  0.817300  1.0
  H  H1810  1  0.182700  0.474000  0.032900  1.0
  H  H1811  1  0.032900  0.182700  0.474000  1.0
  H  H1812  1  0.474000  0.032900  0.182700  1.0
  H  H1813  1  0.749700  0.632800  0.052400  1.0
  H  H1814  1  0.052400  0.749700  0.632800  1.0
  H  H1815  1  0.632800  0.052400  0.749700  1.0
  H  H1816  1  0.250300  0.367200  0.947600  1.0
  H  H1817  1  0.947600  0.250300  0.367200  1.0
  H  H1818  1  0.367200  0.947600  0.250300  1.0
  H  H1819  1  0.760000  0.700600  0.058900  1.0
  H  H1820  1  0.058900  0.760000  0.700600  1.0
  H  H1821  1  0.700600  0.058900  0.760000  1.0
  H  H1822  1  0.240000  0.299400  0.941100  1.0
  H  H1823  1  0.941100  0.240000  0.299400  1.0
  H  H1824  1  0.299400  0.941100  0.240000  1.0
  H  H1825  1  0.867100  0.795100  0.013900  1.0
  H  H1826  1  0.013900  0.867100  0.795100  1.0
  H  H1827  1  0.795100  0.013900  0.867100  1.0
  H  H1828  1  0.132900  0.204900  0.986100  1.0
  H  H1829  1  0.986100  0.132900  0.204900  1.0
  H  H1830  1  0.204900  0.986100  0.132900  1.0
  H  H1831  1  0.929300  0.788600  0.976800  1.0
  H  H1832  1  0.976800  0.929300  0.788600  1.0
  H  H1833  1  0.788600  0.976800  0.929300  1.0
  H  H1834  1  0.070700  0.211400  0.023200  1.0
  H  H1835  1  0.023200  0.070700  0.211400  1.0
  H  H1836  1  0.211400  0.023200  0.070700  1.0
  H  H1837  1  0.001900  0.679900  0.901000  1.0
  H  H1838  1  0.901000  0.001900  0.679900  1.0
  H  H1839  1  0.679900  0.901000  0.001900  1.0
  H  H1840  1  0.998100  0.320100  0.099000  1.0
  H  H1841  1  0.099000  0.998100  0.320100  1.0
  H  H1842  1  0.320100  0.099000  0.998100  1.0
  H  H1843  1  0.989300  0.613900  0.885100  1.0
  H  H1844  1  0.885100  0.989300  0.613900  1.0
  H  H1845  1  0.613900  0.885100  0.989300  1.0
  H  H1846  1  0.010700  0.386100  0.114900  1.0
  H  H1847  1  0.114900  0.010700  0.386100  1.0
  H  H1848  1  0.386100  0.114900  0.010700  1.0
  H  H1849  1  0.656000  0.583200  0.327500  1.0
  H  H1850  1  0.327500  0.656000  0.583200  1.0
  H  H1851  1  0.583200  0.327500  0.656000  1.0
  H  H1852  1  0.344000  0.416800  0.672500  1.0
  H  H1853  1  0.672500  0.344000  0.416800  1.0
  H  H1854  1  0.416800  0.672500  0.344000  1.0
  H  H1855  1  0.616900  0.592600  0.273800  1.0
  H  H1856  1  0.273800  0.616900  0.592600  1.0
  H  H1857  1  0.592600  0.273800  0.616900  1.0
  H  H1858  1  0.383100  0.407400  0.726200  1.0
  H  H1859  1  0.726200  0.383100  0.407400  1.0
  H  H1860  1  0.407400  0.726200  0.383100  1.0
  H  H1861  1  0.615800  0.654400  0.242200  1.0
  H  H1862  1  0.242200  0.615800  0.654400  1.0
  H  H1863  1  0.654400  0.242200  0.615800  1.0
  H  H1864  1  0.384200  0.345600  0.757800  1.0
  H  H1865  1  0.757800  0.384200  0.345600  1.0
  H  H1866  1  0.345600  0.757800  0.384200  1.0
  H  H1867  1  0.634700  0.719000  0.237300  1.0
  H  H1868  1  0.237300  0.634700  0.719000  1.0
  H  H1869  1  0.719000  0.237300  0.634700  1.0
  H  H1870  1  0.365300  0.281000  0.762700  1.0
  H  H1871  1  0.762700  0.365300  0.281000  1.0
  H  H1872  1  0.281000  0.762700  0.365300  1.0
  H  H1873  1  0.669900  0.762900  0.259000  1.0
  H  H1874  1  0.259000  0.669900  0.762900  1.0
  H  H1875  1  0.762900  0.259000  0.669900  1.0
  H  H1876  1  0.330100  0.237100  0.741000  1.0
  H  H1877  1  0.741000  0.330100  0.237100  1.0
  H  H1878  1  0.237100  0.741000  0.330100  1.0
  H  H1879  1  0.721900  0.783000  0.309600  1.0
  H  H1880  1  0.309600  0.721900  0.783000  1.0
  H  H1881  1  0.783000  0.309600  0.721900  1.0
  H  H1882  1  0.278100  0.217000  0.690400  1.0
  H  H1883  1  0.690400  0.278100  0.217000  1.0
  H  H1884  1  0.217000  0.690400  0.278100  1.0
  H  H1885  1  0.753600  0.763400  0.361700  1.0
  H  H1886  1  0.361700  0.753600  0.763400  1.0
  H  H1887  1  0.763400  0.361700  0.753600  1.0
  H  H1888  1  0.246400  0.236600  0.638300  1.0
  H  H1889  1  0.638300  0.246400  0.236600  1.0
  H  H1890  1  0.236600  0.638300  0.246400  1.0
  H  H1891  1  0.773400  0.705400  0.410100  1.0
  H  H1892  1  0.410100  0.773400  0.705400  1.0
  H  H1893  1  0.705400  0.410100  0.773400  1.0
  H  H1894  1  0.226600  0.294600  0.589900  1.0
  H  H1895  1  0.589900  0.226600  0.294600  1.0
  H  H1896  1  0.294600  0.589900  0.226600  1.0
  H  H1897  1  0.785900  0.588300  0.417500  1.0
  H  H1898  1  0.417500  0.785900  0.588300  1.0
  H  H1899  1  0.588300  0.417500  0.785900  1.0
  H  H1900  1  0.214100  0.411700  0.582500  1.0
  H  H1901  1  0.582500  0.214100  0.411700  1.0
  H  H1902  1  0.411700  0.582500  0.214100  1.0
  H  H1903  1  0.811200  0.561900  0.471700  1.0
  H  H1904  1  0.471700  0.811200  0.561900  1.0
  H  H1905  1  0.561900  0.471700  0.811200  1.0
  H  H1906  1  0.188800  0.438100  0.528300  1.0
  H  H1907  1  0.528300  0.188800  0.438100  1.0
  H  H1908  1  0.438100  0.528300  0.188800  1.0
  H  H1909  1  0.785100  0.656400  0.526300  1.0
  H  H1910  1  0.526300  0.785100  0.656400  1.0
  H  H1911  1  0.656400  0.526300  0.785100  1.0
  H  H1912  1  0.214900  0.343600  0.473700  1.0
  H  H1913  1  0.473700  0.214900  0.343600  1.0
  H  H1914  1  0.343600  0.473700  0.214900  1.0
  H  H1915  1  0.757400  0.685100  0.474000  1.0
  H  H1916  1  0.474000  0.757400  0.685100  1.0
  H  H1917  1  0.685100  0.474000  0.757400  1.0
  H  H1918  1  0.242600  0.314900  0.526000  1.0
  H  H1919  1  0.526000  0.242600  0.314900  1.0
  H  H1920  1  0.314900  0.526000  0.242600  1.0
  H  H1921  1  0.633600  0.304600  0.783300  1.0
  H  H1922  1  0.783300  0.633600  0.304600  1.0
  H  H1923  1  0.304600  0.783300  0.633600  1.0
  H  H1924  1  0.366400  0.695400  0.216700  1.0
  H  H1925  1  0.216700  0.366400  0.695400  1.0
  H  H1926  1  0.695400  0.216700  0.366400  1.0
  H  H1927  1  0.584800  0.270800  0.823900  1.0
  H  H1928  1  0.823900  0.584800  0.270800  1.0
  H  H1929  1  0.270800  0.823900  0.584800  1.0
  H  H1930  1  0.415200  0.729200  0.176100  1.0
  H  H1931  1  0.176100  0.415200  0.729200  1.0
  H  H1932  1  0.729200  0.176100  0.415200  1.0
  H  H1933  1  0.522200  0.289300  0.824800  1.0
  H  H1934  1  0.824800  0.522200  0.289300  1.0
  H  H1935  1  0.289300  0.824800  0.522200  1.0
  H  H1936  1  0.477800  0.710700  0.175200  1.0
  H  H1937  1  0.175200  0.477800  0.710700  1.0
  H  H1938  1  0.710700  0.175200  0.477800  1.0
  H  H1939  1  0.471200  0.326300  0.791700  1.0
  H  H1940  1  0.791700  0.471200  0.326300  1.0
  H  H1941  1  0.326300  0.791700  0.471200  1.0
  H  H1942  1  0.528800  0.673700  0.208300  1.0
  H  H1943  1  0.208300  0.528800  0.673700  1.0
  H  H1944  1  0.673700  0.208300  0.528800  1.0
  H  H1945  1  0.453900  0.380400  0.751600  1.0
  H  H1946  1  0.751600  0.453900  0.380400  1.0
  H  H1947  1  0.380400  0.751600  0.453900  1.0
  H  H1948  1  0.546100  0.619600  0.248400  1.0
  H  H1949  1  0.248400  0.546100  0.619600  1.0
  H  H1950  1  0.619600  0.248400  0.546100  1.0
  H  H1951  1  0.473800  0.429300  0.697500  1.0
  H  H1952  1  0.697500  0.473800  0.429300  1.0
  H  H1953  1  0.429300  0.697500  0.473800  1.0
  H  H1954  1  0.526200  0.570700  0.302500  1.0
  H  H1955  1  0.302500  0.526200  0.570700  1.0
  H  H1956  1  0.570700  0.302500  0.526200  1.0
  H  H1957  1  0.524600  0.457900  0.664300  1.0
  H  H1958  1  0.664300  0.524600  0.457900  1.0
  H  H1959  1  0.457900  0.664300  0.524600  1.0
  H  H1960  1  0.475400  0.542100  0.335700  1.0
  H  H1961  1  0.335700  0.475400  0.542100  1.0
  H  H1962  1  0.542100  0.335700  0.475400  1.0
  H  H1963  1  0.599300  0.457700  0.647400  1.0
  H  H1964  1  0.647400  0.599300  0.457700  1.0
  H  H1965  1  0.457700  0.647400  0.599300  1.0
  H  H1966  1  0.400700  0.542300  0.352600  1.0
  H  H1967  1  0.352600  0.400700  0.542300  1.0
  H  H1968  1  0.542300  0.352600  0.400700  1.0
  H  H1969  1  0.699300  0.394200  0.654700  1.0
  H  H1970  1  0.654700  0.699300  0.394200  1.0
  H  H1971  1  0.394200  0.654700  0.699300  1.0
  H  H1972  1  0.300700  0.605800  0.345300  1.0
  H  H1973  1  0.345300  0.300700  0.605800  1.0
  H  H1974  1  0.605800  0.345300  0.300700  1.0
  H  H1975  1  0.753700  0.426100  0.635000  1.0
  H  H1976  1  0.635000  0.753700  0.426100  1.0
  H  H1977  1  0.426100  0.635000  0.753700  1.0
  H  H1978  1  0.246300  0.573900  0.365000  1.0
  H  H1979  1  0.365000  0.246300  0.573900  1.0
  H  H1980  1  0.573900  0.365000  0.246300  1.0
  H  H1981  1  0.699900  0.525600  0.656800  1.0
  H  H1982  1  0.656800  0.699900  0.525600  1.0
  H  H1983  1  0.525600  0.656800  0.699900  1.0
  H  H1984  1  0.300100  0.474400  0.343200  1.0
  H  H1985  1  0.343200  0.300100  0.474400  1.0
  H  H1986  1  0.474400  0.343200  0.300100  1.0
  H  H1987  1  0.644100  0.496600  0.673800  1.0
  H  H1988  1  0.673800  0.644100  0.496600  1.0
  H  H1989  1  0.496600  0.673800  0.644100  1.0
  H  H1990  1  0.355900  0.503400  0.326200  1.0
  H  H1991  1  0.326200  0.355900  0.503400  1.0
  H  H1992  1  0.503400  0.326200  0.355900  1.0
  H  H1993  1  0.096700  0.402000  0.841700  1.0
  H  H1994  1  0.841700  0.096700  0.402000  1.0
  H  H1995  1  0.402000  0.841700  0.096700  1.0
  H  H1996  1  0.903300  0.598000  0.158300  1.0
  H  H1997  1  0.158300  0.903300  0.598000  1.0
  H  H1998  1  0.598000  0.158300  0.903300  1.0
  H  H1999  1  0.141400  0.382300  0.892900  1.0
  H  H2000  1  0.892900  0.141400  0.382300  1.0
  H  H2001  1  0.382300  0.892900  0.141400  1.0
  H  H2002  1  0.858600  0.617700  0.107100  1.0
  H  H2003  1  0.107100  0.858600  0.617700  1.0
  H  H2004  1  0.617700  0.107100  0.858600  1.0
  H  H2005  1  0.118700  0.367300  0.954300  1.0
  H  H2006  1  0.954300  0.118700  0.367300  1.0
  H  H2007  1  0.367300  0.954300  0.118700  1.0
  H  H2008  1  0.881300  0.632700  0.045700  1.0
  H  H2009  1  0.045700  0.881300  0.632700  1.0
  H  H2010  1  0.632700  0.045700  0.881300  1.0
  H  H2011  1  0.068600  0.361900  0.995100  1.0
  H  H2012  1  0.995100  0.068600  0.361900  1.0
  H  H2013  1  0.361900  0.995100  0.068600  1.0
  H  H2014  1  0.931400  0.638100  0.004900  1.0
  H  H2015  1  0.004900  0.931400  0.638100  1.0
  H  H2016  1  0.638100  0.004900  0.931400  1.0
  H  H2017  1  0.003600  0.369300  0.013700  1.0
  H  H2018  1  0.013700  0.003600  0.369300  1.0
  H  H2019  1  0.369300  0.013700  0.003600  1.0
  H  H2020  1  0.996400  0.630700  0.986300  1.0
  H  H2021  1  0.986300  0.996400  0.630700  1.0
  H  H2022  1  0.630700  0.986300  0.996400  1.0
  H  H2023  1  0.934400  0.377500  0.986800  1.0
  H  H2024  1  0.986800  0.934400  0.377500  1.0
  H  H2025  1  0.377500  0.986800  0.934400  1.0
  H  H2026  1  0.065600  0.622500  0.013200  1.0
  H  H2027  1  0.013200  0.065600  0.622500  1.0
  H  H2028  1  0.622500  0.013200  0.065600  1.0
  H  H2029  1  0.897800  0.404700  0.938000  1.0
  H  H2030  1  0.938000  0.897800  0.404700  1.0
  H  H2031  1  0.404700  0.938000  0.897800  1.0
  H  H2032  1  0.102200  0.595300  0.062000  1.0
  H  H2033  1  0.062000  0.102200  0.595300  1.0
  H  H2034  1  0.595300  0.062000  0.102200  1.0
  H  H2035  1  0.896100  0.422200  0.862800  1.0
  H  H2036  1  0.862800  0.896100  0.422200  1.0
  H  H2037  1  0.422200  0.862800  0.896100  1.0
  H  H2038  1  0.103900  0.577800  0.137200  1.0
  H  H2039  1  0.137200  0.103900  0.577800  1.0
  H  H2040  1  0.577800  0.137200  0.103900  1.0
  H  H2041  1  0.895600  0.482000  0.825700  1.0
  H  H2042  1  0.825700  0.895600  0.482000  1.0
  H  H2043  1  0.482000  0.825700  0.895600  1.0
  H  H2044  1  0.104400  0.518000  0.174300  1.0
  H  H2045  1  0.174300  0.104400  0.518000  1.0
  H  H2046  1  0.518000  0.174300  0.104400  1.0
  H  H2047  1  0.873600  0.512800  0.769800  1.0
  H  H2048  1  0.769800  0.873600  0.512800  1.0
  H  H2049  1  0.512800  0.769800  0.873600  1.0
  H  H2050  1  0.126400  0.487200  0.230200  1.0
  H  H2051  1  0.230200  0.126400  0.487200  1.0
  H  H2052  1  0.487200  0.230200  0.126400  1.0
  H  H2053  1  0.938400  0.438700  0.708600  1.0
  H  H2054  1  0.708600  0.938400  0.438700  1.0
  H  H2055  1  0.438700  0.708600  0.938400  1.0
  H  H2056  1  0.061600  0.561300  0.291400  1.0
  H  H2057  1  0.291400  0.061600  0.561300  1.0
  H  H2058  1  0.561300  0.291400  0.061600  1.0
  H  H2059  1  0.963000  0.410800  0.762900  1.0
  H  H2060  1  0.762900  0.963000  0.410800  1.0
  H  H2061  1  0.410800  0.762900  0.963000  1.0
  H  H2062  1  0.037000  0.589200  0.237100  1.0
  H  H2063  1  0.237100  0.037000  0.589200  1.0
  H  H2064  1  0.589200  0.237100  0.037000  1.0
  H  H2065  1  0.140800  0.672700  0.424900  1.0
  H  H2066  1  0.424900  0.140800  0.672700  1.0
  H  H2067  1  0.672700  0.424900  0.140800  1.0
  H  H2068  1  0.859200  0.327300  0.575100  1.0
  H  H2069  1  0.575100  0.859200  0.327300  1.0
  H  H2070  1  0.327300  0.575100  0.859200  1.0
  H  H2071  1  0.197300  0.702400  0.392700  1.0
  H  H2072  1  0.392700  0.197300  0.702400  1.0
  H  H2073  1  0.702400  0.392700  0.197300  1.0
  H  H2074  1  0.802700  0.297600  0.607300  1.0
  H  H2075  1  0.607300  0.802700  0.297600  1.0
  H  H2076  1  0.297600  0.607300  0.802700  1.0
  H  H2077  1  0.244200  0.720400  0.427400  1.0
  H  H2078  1  0.427400  0.244200  0.720400  1.0
  H  H2079  1  0.720400  0.427400  0.244200  1.0
  H  H2080  1  0.755800  0.279600  0.572600  1.0
  H  H2081  1  0.572600  0.755800  0.279600  1.0
  H  H2082  1  0.279600  0.572600  0.755800  1.0
  H  H2083  1  0.260000  0.736600  0.483600  1.0
  H  H2084  1  0.483600  0.260000  0.736600  1.0
  H  H2085  1  0.736600  0.483600  0.260000  1.0
  H  H2086  1  0.740000  0.263400  0.516400  1.0
  H  H2087  1  0.516400  0.740000  0.263400  1.0
  H  H2088  1  0.263400  0.516400  0.740000  1.0
  H  H2089  1  0.261400  0.727900  0.553600  1.0
  H  H2090  1  0.553600  0.261400  0.727900  1.0
  H  H2091  1  0.727900  0.553600  0.261400  1.0
  H  H2092  1  0.738600  0.272100  0.446400  1.0
  H  H2093  1  0.446400  0.738600  0.272100  1.0
  H  H2094  1  0.272100  0.446400  0.738600  1.0
  H  H2095  1  0.219600  0.711700  0.613700  1.0
  H  H2096  1  0.613700  0.219600  0.711700  1.0
  H  H2097  1  0.711700  0.613700  0.219600  1.0
  H  H2098  1  0.780400  0.288300  0.386300  1.0
  H  H2099  1  0.386300  0.780400  0.288300  1.0
  H  H2100  1  0.288300  0.386300  0.780400  1.0
  H  H2101  1  0.157200  0.685700  0.637600  1.0
  H  H2102  1  0.637600  0.157200  0.685700  1.0
  H  H2103  1  0.685700  0.637600  0.157200  1.0
  H  H2104  1  0.842800  0.314300  0.362400  1.0
  H  H2105  1  0.362400  0.842800  0.314300  1.0
  H  H2106  1  0.314300  0.362400  0.842800  1.0
  H  H2107  1  0.094100  0.652900  0.621000  1.0
  H  H2108  1  0.621000  0.094100  0.652900  1.0
  H  H2109  1  0.652900  0.621000  0.094100  1.0
  H  H2110  1  0.905900  0.347100  0.379000  1.0
  H  H2111  1  0.379000  0.905900  0.347100  1.0
  H  H2112  1  0.347100  0.379000  0.905900  1.0
  H  H2113  1  0.052200  0.592400  0.534700  1.0
  H  H2114  1  0.534700  0.052200  0.592400  1.0
  H  H2115  1  0.592400  0.534700  0.052200  1.0
  H  H2116  1  0.947800  0.407600  0.465300  1.0
  H  H2117  1  0.465300  0.947800  0.407600  1.0
  H  H2118  1  0.407600  0.465300  0.947800  1.0
  H  H2119  1  0.993900  0.567200  0.547100  1.0
  H  H2120  1  0.547100  0.993900  0.567200  1.0
  H  H2121  1  0.567200  0.547100  0.993900  1.0
  H  H2122  1  0.006100  0.432800  0.452900  1.0
  H  H2123  1  0.452900  0.006100  0.432800  1.0
  H  H2124  1  0.432800  0.452900  0.006100  1.0
  H  H2125  1  0.970100  0.644000  0.626100  1.0
  H  H2126  1  0.626100  0.970100  0.644000  1.0
  H  H2127  1  0.644000  0.626100  0.970100  1.0
  H  H2128  1  0.029900  0.356000  0.373900  1.0
  H  H2129  1  0.373900  0.029900  0.356000  1.0
  H  H2130  1  0.356000  0.373900  0.029900  1.0
  H  H2131  1  0.029600  0.666400  0.616200  1.0
  H  H2132  1  0.616200  0.029600  0.666400  1.0
  H  H2133  1  0.666400  0.616200  0.029600  1.0
  H  H2134  1  0.970400  0.333600  0.383800  1.0
  H  H2135  1  0.383800  0.970400  0.333600  1.0
  H  H2136  1  0.333600  0.383800  0.970400  1.0
  H  H2137  1  0.741400  0.563800  0.530000  1.0
  H  H2138  1  0.530000  0.741400  0.563800  1.0
  H  H2139  1  0.563800  0.530000  0.741400  1.0
  H  H2140  1  0.258600  0.436200  0.470000  1.0
  H  H2141  1  0.470000  0.258600  0.436200  1.0
  H  H2142  1  0.436200  0.470000  0.258600  1.0
  H  H2143  1  0.719200  0.515700  0.578700  1.0
  H  H2144  1  0.578700  0.719200  0.515700  1.0
  H  H2145  1  0.515700  0.578700  0.719200  1.0
  H  H2146  1  0.280800  0.484300  0.421300  1.0
  H  H2147  1  0.421300  0.280800  0.484300  1.0
  H  H2148  1  0.484300  0.421300  0.280800  1.0
  H  H2149  1  0.772200  0.455700  0.709000  1.0
  H  H2150  1  0.709000  0.772200  0.455700  1.0
  H  H2151  1  0.455700  0.709000  0.772200  1.0
  H  H2152  1  0.227800  0.544300  0.291000  1.0
  H  H2153  1  0.291000  0.227800  0.544300  1.0
  H  H2154  1  0.544300  0.291000  0.227800  1.0
  H  H2155  1  0.832900  0.455500  0.739700  1.0
  H  H2156  1  0.739700  0.832900  0.455500  1.0
  H  H2157  1  0.455500  0.739700  0.832900  1.0
  H  H2158  1  0.167100  0.544500  0.260300  1.0
  H  H2159  1  0.260300  0.167100  0.544500  1.0
  H  H2160  1  0.544500  0.260300  0.167100  1.0
  H  H2161  1  0.965000  0.518900  0.705900  1.0
  H  H2162  1  0.705900  0.965000  0.518900  1.0
  H  H2163  1  0.518900  0.705900  0.965000  1.0
  H  H2164  1  0.035000  0.481100  0.294100  1.0
  H  H2165  1  0.294100  0.035000  0.481100  1.0
  H  H2166  1  0.481100  0.294100  0.035000  1.0
  H  H2167  1  0.991600  0.560200  0.653000  1.0
  H  H2168  1  0.653000  0.991600  0.560200  1.0
  H  H2169  1  0.560200  0.653000  0.991600  1.0
  H  H2170  1  0.008400  0.439800  0.347000  1.0
  H  H2171  1  0.347000  0.008400  0.439800  1.0
  H  H2172  1  0.439800  0.347000  0.008400  1.0
  H  H2173  1  0.933400  0.631500  0.532500  1.0
  H  H2174  1  0.532500  0.933400  0.631500  1.0
  H  H2175  1  0.631500  0.532500  0.933400  1.0
  H  H2176  1  0.066600  0.368500  0.467500  1.0
  H  H2177  1  0.467500  0.066600  0.368500  1.0
  H  H2178  1  0.368500  0.467500  0.066600  1.0
  H  H2179  1  0.870700  0.636500  0.502000  1.0
  H  H2180  1  0.502000  0.870700  0.636500  1.0
  H  H2181  1  0.636500  0.502000  0.870700  1.0
  H  H2182  1  0.129300  0.363500  0.498000  1.0
  H  H2183  1  0.498000  0.129300  0.363500  1.0
  H  H2184  1  0.363500  0.498000  0.129300  1.0
  H  H2185  1  0.138300  0.762700  0.720800  1.0
  H  H2186  1  0.720800  0.138300  0.762700  1.0
  H  H2187  1  0.762700  0.720800  0.138300  1.0
  H  H2188  1  0.861700  0.237300  0.279200  1.0
  H  H2189  1  0.279200  0.861700  0.237300  1.0
  H  H2190  1  0.237300  0.279200  0.861700  1.0
  H  H2191  1  0.126900  0.837000  0.687600  1.0
  H  H2192  1  0.687600  0.126900  0.837000  1.0
  H  H2193  1  0.837000  0.687600  0.126900  1.0
  H  H2194  1  0.873100  0.163000  0.312400  1.0
  H  H2195  1  0.312400  0.873100  0.163000  1.0
  H  H2196  1  0.163000  0.312400  0.873100  1.0
  H  H2197  1  0.169600  0.826400  0.757500  1.0
  H  H2198  1  0.757500  0.169600  0.826400  1.0
  H  H2199  1  0.826400  0.757500  0.169600  1.0
  H  H2200  1  0.830400  0.173600  0.242500  1.0
  H  H2201  1  0.242500  0.830400  0.173600  1.0
  H  H2202  1  0.173600  0.242500  0.830400  1.0
  H  H2203  1  0.212000  0.755200  0.754500  1.0
  H  H2204  1  0.754500  0.212000  0.755200  1.0
  H  H2205  1  0.755200  0.754500  0.212000  1.0
  H  H2206  1  0.788000  0.244800  0.245500  1.0
  H  H2207  1  0.245500  0.788000  0.244800  1.0
  H  H2208  1  0.244800  0.245500  0.788000  1.0
  H  H2209  1  0.202100  0.723100  0.679500  1.0
  H  H2210  1  0.679500  0.202100  0.723100  1.0
  H  H2211  1  0.723100  0.679500  0.202100  1.0
  H  H2212  1  0.797900  0.276900  0.320500  1.0
  H  H2213  1  0.320500  0.797900  0.276900  1.0
  H  H2214  1  0.276900  0.320500  0.797900  1.0
  H  H2215  1  0.146100  0.772900  0.638300  1.0
  H  H2216  1  0.638300  0.146100  0.772900  1.0
  H  H2217  1  0.772900  0.638300  0.146100  1.0
  H  H2218  1  0.853900  0.227100  0.361700  1.0
  H  H2219  1  0.361700  0.853900  0.227100  1.0
  H  H2220  1  0.227100  0.361700  0.853900  1.0
  H  H2221  1  0.194000  0.878200  0.695700  1.0
  H  H2222  1  0.695700  0.194000  0.878200  1.0
  H  H2223  1  0.878200  0.695700  0.194000  1.0
  H  H2224  1  0.806000  0.121800  0.304300  1.0
  H  H2225  1  0.304300  0.806000  0.121800  1.0
  H  H2226  1  0.121800  0.304300  0.806000  1.0
  H  H2227  1  0.251700  0.825600  0.734100  1.0
  H  H2228  1  0.734100  0.251700  0.825600  1.0
  H  H2229  1  0.825600  0.734100  0.251700  1.0
  H  H2230  1  0.748300  0.174400  0.265900  1.0
  H  H2231  1  0.265900  0.748300  0.174400  1.0
  H  H2232  1  0.174400  0.265900  0.748300  1.0
  H  H2233  1  0.268000  0.760300  0.689200  1.0
  H  H2234  1  0.689200  0.268000  0.760300  1.0
  H  H2235  1  0.760300  0.689200  0.268000  1.0
  H  H2236  1  0.732000  0.239700  0.310800  1.0
  H  H2237  1  0.310800  0.732000  0.239700  1.0
  H  H2238  1  0.239700  0.310800  0.732000  1.0
  H  H2239  1  0.227600  0.775500  0.618400  1.0
  H  H2240  1  0.618400  0.227600  0.775500  1.0
  H  H2241  1  0.775500  0.618400  0.227600  1.0
  H  H2242  1  0.772400  0.224500  0.381600  1.0
  H  H2243  1  0.381600  0.772400  0.224500  1.0
  H  H2244  1  0.224500  0.381600  0.772400  1.0
  H  H2245  1  0.184300  0.849700  0.622600  1.0
  H  H2246  1  0.622600  0.184300  0.849700  1.0
  H  H2247  1  0.849700  0.622600  0.184300  1.0
  H  H2248  1  0.815700  0.150300  0.377400  1.0
  H  H2249  1  0.377400  0.815700  0.150300  1.0
  H  H2250  1  0.150300  0.377400  0.815700  1.0
  H  H2251  1  0.257200  0.841200  0.653900  1.0
  H  H2252  1  0.653900  0.257200  0.841200  1.0
  H  H2253  1  0.841200  0.653900  0.257200  1.0
  H  H2254  1  0.742800  0.158800  0.346100  1.0
  H  H2255  1  0.346100  0.742800  0.158800  1.0
  H  H2256  1  0.158800  0.346100  0.742800  1.0
  H  H2257  1  0.037500  0.679500  0.687900  1.0
  H  H2258  1  0.687900  0.037500  0.679500  1.0
  H  H2259  1  0.679500  0.687900  0.037500  1.0
  H  H2260  1  0.962500  0.320500  0.312100  1.0
  H  H2261  1  0.312100  0.962500  0.320500  1.0
  H  H2262  1  0.320500  0.312100  0.962500  1.0
  H  H2263  1  0.068000  0.701000  0.755600  1.0
  H  H2264  1  0.755600  0.068000  0.701000  1.0
  H  H2265  1  0.701000  0.755600  0.068000  1.0
  H  H2266  1  0.932000  0.299000  0.244400  1.0
  H  H2267  1  0.244400  0.932000  0.299000  1.0
  H  H2268  1  0.299000  0.244400  0.932000  1.0
  H  H2269  1  0.105900  0.637800  0.715800  1.0
  H  H2270  1  0.715800  0.105900  0.637800  1.0
  H  H2271  1  0.637800  0.715800  0.105900  1.0
  H  H2272  1  0.894100  0.362200  0.284200  1.0
  H  H2273  1  0.284200  0.894100  0.362200  1.0
  H  H2274  1  0.362200  0.284200  0.894100  1.0
  H  H2275  1  0.048100  0.597900  0.682400  1.0
  H  H2276  1  0.682400  0.048100  0.597900  1.0
  H  H2277  1  0.597900  0.682400  0.048100  1.0
  H  H2278  1  0.951900  0.402100  0.317600  1.0
  H  H2279  1  0.317600  0.951900  0.402100  1.0
  H  H2280  1  0.402100  0.317600  0.951900  1.0
  H  H2281  1  0.972400  0.632400  0.707700  1.0
  H  H2282  1  0.707700  0.972400  0.632400  1.0
  H  H2283  1  0.632400  0.707700  0.972400  1.0
  H  H2284  1  0.027600  0.367600  0.292300  1.0
  H  H2285  1  0.292300  0.027600  0.367600  1.0
  H  H2286  1  0.367600  0.292300  0.027600  1.0
  H  H2287  1  0.985000  0.698500  0.751100  1.0
  H  H2288  1  0.751100  0.985000  0.698500  1.0
  H  H2289  1  0.698500  0.751100  0.985000  1.0
  H  H2290  1  0.015000  0.301500  0.248900  1.0
  H  H2291  1  0.248900  0.015000  0.301500  1.0
  H  H2292  1  0.301500  0.248900  0.015000  1.0
  H  H2293  1  0.095600  0.633200  0.797900  1.0
  H  H2294  1  0.797900  0.095600  0.633200  1.0
  H  H2295  1  0.633200  0.797900  0.095600  1.0
  H  H2296  1  0.904400  0.366800  0.202100  1.0
  H  H2297  1  0.202100  0.904400  0.366800  1.0
  H  H2298  1  0.366800  0.202100  0.904400  1.0
  H  H2299  1  0.079600  0.566100  0.753200  1.0
  H  H2300  1  0.753200  0.079600  0.566100  1.0
  H  H2301  1  0.566100  0.753200  0.079600  1.0
  H  H2302  1  0.920400  0.433900  0.246800  1.0
  H  H2303  1  0.246800  0.920400  0.433900  1.0
  H  H2304  1  0.433900  0.246800  0.920400  1.0
  H  H2305  1  0.999200  0.564700  0.743500  1.0
  H  H2306  1  0.743500  0.999200  0.564700  1.0
  H  H2307  1  0.564700  0.743500  0.999200  1.0
  H  H2308  1  0.000800  0.435300  0.256500  1.0
  H  H2309  1  0.256500  0.000800  0.435300  1.0
  H  H2310  1  0.435300  0.256500  0.000800  1.0
  H  H2311  1  0.963700  0.625900  0.790100  1.0
  H  H2312  1  0.790100  0.963700  0.625900  1.0
  H  H2313  1  0.625900  0.790100  0.963700  1.0
  H  H2314  1  0.036300  0.374100  0.209900  1.0
  H  H2315  1  0.209900  0.036300  0.374100  1.0
  H  H2316  1  0.374100  0.209900  0.036300  1.0
  H  H2317  1  0.025200  0.665800  0.824300  1.0
  H  H2318  1  0.824300  0.025200  0.665800  1.0
  H  H2319  1  0.665800  0.824300  0.025200  1.0
  H  H2320  1  0.974800  0.334200  0.175700  1.0
  H  H2321  1  0.175700  0.974800  0.334200  1.0
  H  H2322  1  0.334200  0.175700  0.974800  1.0
  H  H2323  1  0.032300  0.586200  0.818500  1.0
  H  H2324  1  0.818500  0.032300  0.586200  1.0
  H  H2325  1  0.586200  0.818500  0.032300  1.0
  H  H2326  1  0.967700  0.413800  0.181500  1.0
  H  H2327  1  0.181500  0.967700  0.413800  1.0
  H  H2328  1  0.413800  0.181500  0.967700  1.0
  H  H2329  1  0.638700  0.464600  0.504500  1.0
  H  H2330  1  0.504500  0.638700  0.464600  1.0
  H  H2331  1  0.464600  0.504500  0.638700  1.0
  H  H2332  1  0.361300  0.535400  0.495500  1.0
  H  H2333  1  0.495500  0.361300  0.535400  1.0
  H  H2334  1  0.535400  0.495500  0.361300  1.0
  H  H2335  1  0.718000  0.452000  0.505000  1.0
  H  H2336  1  0.505000  0.718000  0.452000  1.0
  H  H2337  1  0.452000  0.505000  0.718000  1.0
  H  H2338  1  0.282000  0.548000  0.495000  1.0
  H  H2339  1  0.495000  0.282000  0.548000  1.0
  H  H2340  1  0.548000  0.495000  0.282000  1.0
  H  H2341  1  0.675200  0.454300  0.578500  1.0
  H  H2342  1  0.578500  0.675200  0.454300  1.0
  H  H2343  1  0.454300  0.578500  0.675200  1.0
  H  H2344  1  0.324800  0.545700  0.421500  1.0
  H  H2345  1  0.421500  0.324800  0.545700  1.0
  H  H2346  1  0.545700  0.421500  0.324800  1.0
  H  H2347  1  0.603300  0.422300  0.569000  1.0
  H  H2348  1  0.569000  0.603300  0.422300  1.0
  H  H2349  1  0.422300  0.569000  0.603300  1.0
  H  H2350  1  0.396700  0.577700  0.431000  1.0
  H  H2351  1  0.431000  0.396700  0.577700  1.0
  H  H2352  1  0.577700  0.431000  0.396700  1.0
  H  H2353  1  0.603300  0.393800  0.491300  1.0
  H  H2354  1  0.491300  0.603300  0.393800  1.0
  H  H2355  1  0.393800  0.491300  0.603300  1.0
  H  H2356  1  0.396700  0.606200  0.508700  1.0
  H  H2357  1  0.508700  0.396700  0.606200  1.0
  H  H2358  1  0.606200  0.508700  0.396700  1.0
  H  H2359  1  0.674100  0.414300  0.449800  1.0
  H  H2360  1  0.449800  0.674100  0.414300  1.0
  H  H2361  1  0.414300  0.449800  0.674100  1.0
  H  H2362  1  0.325900  0.585700  0.550200  1.0
  H  H2363  1  0.550200  0.325900  0.585700  1.0
  H  H2364  1  0.585700  0.550200  0.325900  1.0
  H  H2365  1  0.736600  0.397000  0.566300  1.0
  H  H2366  1  0.566300  0.736600  0.397000  1.0
  H  H2367  1  0.397000  0.566300  0.736600  1.0
  H  H2368  1  0.263400  0.603000  0.433700  1.0
  H  H2369  1  0.433700  0.263400  0.603000  1.0
  H  H2370  1  0.603000  0.433700  0.263400  1.0
  H  H2371  1  0.662700  0.374500  0.606000  1.0
  H  H2372  1  0.606000  0.662700  0.374500  1.0
  H  H2373  1  0.374500  0.606000  0.662700  1.0
  H  H2374  1  0.337300  0.625500  0.394000  1.0
  H  H2375  1  0.394000  0.337300  0.625500  1.0
  H  H2376  1  0.625500  0.394000  0.337300  1.0
  H  H2377  1  0.617500  0.342000  0.552300  1.0
  H  H2378  1  0.552300  0.617500  0.342000  1.0
  H  H2379  1  0.342000  0.552300  0.617500  1.0
  H  H2380  1  0.382500  0.658000  0.447700  1.0
  H  H2381  1  0.447700  0.382500  0.658000  1.0
  H  H2382  1  0.658000  0.447700  0.382500  1.0
  H  H2383  1  0.664700  0.335900  0.481500  1.0
  H  H2384  1  0.481500  0.664700  0.335900  1.0
  H  H2385  1  0.335900  0.481500  0.664700  1.0
  H  H2386  1  0.335300  0.664100  0.518500  1.0
  H  H2387  1  0.518500  0.335300  0.664100  1.0
  H  H2388  1  0.664100  0.518500  0.335300  1.0
  H  H2389  1  0.739000  0.369300  0.492000  1.0
  H  H2390  1  0.492000  0.739000  0.369300  1.0
  H  H2391  1  0.369300  0.492000  0.739000  1.0
  H  H2392  1  0.261000  0.630700  0.508000  1.0
  H  H2393  1  0.508000  0.261000  0.630700  1.0
  H  H2394  1  0.630700  0.508000  0.261000  1.0
  H  H2395  1  0.703300  0.326300  0.553600  1.0
  H  H2396  1  0.553600  0.703300  0.326300  1.0
  H  H2397  1  0.326300  0.553600  0.703300  1.0
  H  H2398  1  0.296700  0.673700  0.446400  1.0
  H  H2399  1  0.446400  0.296700  0.673700  1.0
  H  H2400  1  0.673700  0.446400  0.296700  1.0
  H  H2401  1  0.178900  0.637600  0.835900  0.25
  H  H2402  1  0.835900  0.178900  0.637600  0.25
  H  H2403  1  0.637600  0.835900  0.178900  0.25
  H  H2404  1  0.821100  0.362400  0.164100  0.25
  H  H2405  1  0.164100  0.821100  0.362400  0.25
  H  H2406  1  0.362400  0.164100  0.821100  0.25
  H  H2407  1  0.196600  0.677400  0.842900  0.25
  H  H2408  1  0.842900  0.196600  0.677400  0.25
  H  H2409  1  0.677400  0.842900  0.196600  0.25
  H  H2410  1  0.803400  0.322600  0.157100  0.25
  H  H2411  1  0.157100  0.803400  0.322600  0.25
  H  H2412  1  0.322600  0.157100  0.803400  0.25
  H  H2413  1  0.218200  0.648600  0.814400  0.25
  H  H2414  1  0.814400  0.218200  0.648600  0.25
  H  H2415  1  0.648600  0.814400  0.218200  0.25
  H  H2416  1  0.781800  0.351400  0.185600  0.25
  H  H2417  1  0.185600  0.781800  0.351400  0.25
  H  H2418  1  0.351400  0.185600  0.781800  0.25
  H  H2419  1  0.560800  0.599500  0.611600  0.36
  H  H2420  1  0.611600  0.560800  0.599500  0.36
  H  H2421  1  0.599500  0.611600  0.560800  0.36
  H  H2422  1  0.439200  0.400500  0.388400  0.36
  H  H2423  1  0.388400  0.439200  0.400500  0.36
  H  H2424  1  0.400500  0.388400  0.439200  0.36
  H  H2425  1  0.523100  0.596800  0.638800  0.36
  H  H2426  1  0.638800  0.523100  0.596800  0.36
  H  H2427  1  0.596800  0.638800  0.523100  0.36
  H  H2428  1  0.476900  0.403200  0.361200  0.36
  H  H2429  1  0.361200  0.476900  0.403200  0.36
  H  H2430  1  0.403200  0.361200  0.476900  0.36
  H  H2431  1  0.561300  0.610700  0.655100  0.36
  H  H2432  1  0.655100  0.561300  0.610700  0.36
  H  H2433  1  0.610700  0.655100  0.561300  0.36
  H  H2434  1  0.438700  0.389300  0.344900  0.36
  H  H2435  1  0.344900  0.438700  0.389300  0.36
  H  H2436  1  0.389300  0.344900  0.438700  0.36
  H  H2437  1  0.867800  0.626200  0.965500  0.5
  H  H2438  1  0.965500  0.867800  0.626200  0.5
  H  H2439  1  0.626200  0.965500  0.867800  0.5
  H  H2440  1  0.132200  0.373800  0.034500  0.5
  H  H2441  1  0.034500  0.132200  0.373800  0.5
  H  H2442  1  0.373800  0.034500  0.132200  0.5
  H  H2443  1  0.846500  0.659400  0.991700  0.5
  H  H2444  1  0.991700  0.846500  0.659400  0.5
  H  H2445  1  0.659400  0.991700  0.846500  0.5
  H  H2446  1  0.153500  0.340600  0.008300  0.5
  H  H2447  1  0.008300  0.153500  0.340600  0.5
  H  H2448  1  0.340600  0.008300  0.153500  0.5
  H  H2449  1  0.878200  0.690600  0.973200  0.5
  H  H2450  1  0.973200  0.878200  0.690600  0.5
  H  H2451  1  0.690600  0.973200  0.878200  0.5
  H  H2452  1  0.121800  0.309400  0.026800  0.5
  H  H2453  1  0.026800  0.121800  0.309400  0.5
  H  H2454  1  0.309400  0.026800  0.121800  0.5
  H  H2455  1  0.899200  0.657300  0.947700  0.5
  H  H2456  1  0.947700  0.899200  0.657300  0.5
  H  H2457  1  0.657300  0.947700  0.899200  0.5
  H  H2458  1  0.100800  0.342700  0.052300  0.5
  H  H2459  1  0.052300  0.100800  0.342700  0.5
  H  H2460  1  0.342700  0.052300  0.100800  0.5
  H  H2461  1  0.822600  0.544900  0.606000  0.5
  H  H2462  1  0.606000  0.822600  0.544900  0.5
  H  H2463  1  0.544900  0.606000  0.822600  0.5
  H  H2464  1  0.177400  0.455100  0.394000  0.5
  H  H2465  1  0.394000  0.177400  0.455100  0.5
  H  H2466  1  0.455100  0.394000  0.177400  0.5
  H  H2467  1  0.841900  0.519500  0.642100  0.5
  H  H2468  1  0.642100  0.841900  0.519500  0.5
  H  H2469  1  0.519500  0.642100  0.841900  0.5
  H  H2470  1  0.158100  0.480500  0.357900  0.5
  H  H2471  1  0.357900  0.158100  0.480500  0.5
  H  H2472  1  0.480500  0.357900  0.158100  0.5
  H  H2473  1  0.882800  0.542200  0.631300  0.5
  H  H2474  1  0.631300  0.882800  0.542200  0.5
  H  H2475  1  0.542200  0.631300  0.882800  0.5
  H  H2476  1  0.117200  0.457800  0.368700  0.5
  H  H2477  1  0.368700  0.117200  0.457800  0.5
  H  H2478  1  0.457800  0.368700  0.117200  0.5
  H  H2479  1  0.865500  0.564300  0.595900  0.5
  H  H2480  1  0.595900  0.865500  0.564300  0.5
  H  H2481  1  0.564300  0.595900  0.865500  0.5
  H  H2482  1  0.134500  0.435700  0.404100  0.5
  H  H2483  1  0.404100  0.134500  0.435700  0.5
  H  H2484  1  0.435700  0.404100  0.134500  0.5
  H  H2485  1  0.166000  0.500300  0.969300  0.5
  H  H2486  1  0.969300  0.166000  0.500300  0.5
  H  H2487  1  0.500300  0.969300  0.166000  0.5
  H  H2488  1  0.834000  0.499700  0.030700  0.5
  H  H2489  1  0.030700  0.834000  0.499700  0.5
  H  H2490  1  0.499700  0.030700  0.834000  0.5
  H  H2491  1  0.151100  0.577500  0.948100  0.5
  H  H2492  1  0.948100  0.151100  0.577500  0.5
  H  H2493  1  0.577500  0.948100  0.151100  0.5
  H  H2494  1  0.848900  0.422500  0.051900  0.5
  H  H2495  1  0.051900  0.848900  0.422500  0.5
  H  H2496  1  0.422500  0.051900  0.848900  0.5
  H  H2497  1  0.100300  0.540800  0.006200  0.5
  H  H2498  1  0.006200  0.100300  0.540800  0.5
  H  H2499  1  0.540800  0.006200  0.100300  0.5
  H  H2500  1  0.899700  0.459200  0.993800  0.5
  H  H2501  1  0.993800  0.899700  0.459200  0.5
  H  H2502  1  0.459200  0.993800  0.899700  0.5
  H  H2503  1  0.095400  0.463200  0.986400  0.5
  H  H2504  1  0.986400  0.095400  0.463200  0.5
  H  H2505  1  0.463200  0.986400  0.095400  0.5
  H  H2506  1  0.904600  0.536800  0.013600  0.5
  H  H2507  1  0.013600  0.904600  0.536800  0.5
  H  H2508  1  0.536800  0.013600  0.904600  0.5
  H  H2509  1  0.137400  0.453200  0.912100  0.5
  H  H2510  1  0.912100  0.137400  0.453200  0.5
  H  H2511  1  0.453200  0.912100  0.137400  0.5
  H  H2512  1  0.862600  0.546800  0.087900  0.5
  H  H2513  1  0.087900  0.862600  0.546800  0.5
  H  H2514  1  0.546800  0.087900  0.862600  0.5
  H  H2515  1  0.175500  0.523300  0.890000  0.5
  H  H2516  1  0.890000  0.175500  0.523300  0.5
  H  H2517  1  0.523300  0.890000  0.175500  0.5
  H  H2518  1  0.824500  0.476700  0.110000  0.5
  H  H2519  1  0.110000  0.824500  0.476700  0.5
  H  H2520  1  0.476700  0.110000  0.824500  0.5
  H  H2521  1  0.069400  0.592000  0.946900  0.5
  H  H2522  1  0.946900  0.069400  0.592000  0.5
  H  H2523  1  0.592000  0.946900  0.069400  0.5
  H  H2524  1  0.930600  0.408000  0.053100  0.5
  H  H2525  1  0.053100  0.930600  0.408000  0.5
  H  H2526  1  0.408000  0.053100  0.930600  0.5
  H  H2527  1  0.032700  0.517900  0.967700  0.5
  H  H2528  1  0.967700  0.032700  0.517900  0.5
  H  H2529  1  0.517900  0.967700  0.032700  0.5
  H  H2530  1  0.967300  0.482100  0.032300  0.5
  H  H2531  1  0.032300  0.967300  0.482100  0.5
  H  H2532  1  0.482100  0.032300  0.967300  0.5
  H  H2533  1  0.059200  0.463100  0.913500  0.5
  H  H2534  1  0.913500  0.059200  0.463100  0.5
  H  H2535  1  0.463100  0.913500  0.059200  0.5
  H  H2536  1  0.940800  0.536900  0.086500  0.5
  H  H2537  1  0.086500  0.940800  0.536900  0.5
  H  H2538  1  0.536900  0.086500  0.940800  0.5
  H  H2539  1  0.105400  0.504800  0.854100  0.5
  H  H2540  1  0.854100  0.105400  0.504800  0.5
  H  H2541  1  0.504800  0.854100  0.105400  0.5
  H  H2542  1  0.894600  0.495200  0.145900  0.5
  H  H2543  1  0.145900  0.894600  0.495200  0.5
  H  H2544  1  0.495200  0.145900  0.894600  0.5
  H  H2545  1  0.109400  0.584400  0.875500  0.5
  H  H2546  1  0.875500  0.109400  0.584400  0.5
  H  H2547  1  0.584400  0.875500  0.109400  0.5
  H  H2548  1  0.890600  0.415600  0.124500  0.5
  H  H2549  1  0.124500  0.890600  0.415600  0.5
  H  H2550  1  0.415600  0.124500  0.890600  0.5
  H  H2551  1  0.040400  0.547000  0.890700  0.5
  H  H2552  1  0.890700  0.040400  0.547000  0.5
  H  H2553  1  0.547000  0.890700  0.040400  0.5
  H  H2554  1  0.959600  0.453000  0.109300  0.5
  H  H2555  1  0.109300  0.959600  0.453000  0.5
  H  H2556  1  0.453000  0.109300  0.959600  0.5
  H  H2557  1  0.108500  0.591100  0.676200  0.5
  H  H2558  1  0.676200  0.108500  0.591100  0.5
  H  H2559  1  0.591100  0.676200  0.108500  0.5
  H  H2560  1  0.891500  0.408900  0.323800  0.5
  H  H2561  1  0.323800  0.891500  0.408900  0.5
  H  H2562  1  0.408900  0.323800  0.891500  0.5
  H  H2563  1  0.110100  0.555500  0.649900  0.5
  H  H2564  1  0.649900  0.110100  0.555500  0.5
  H  H2565  1  0.555500  0.649900  0.110100  0.5
  H  H2566  1  0.889900  0.444500  0.350100  0.5
  H  H2567  1  0.350100  0.889900  0.444500  0.5
  H  H2568  1  0.444500  0.350100  0.889900  0.5
  H  H2569  1  0.135600  0.554500  0.686300  0.5
  H  H2570  1  0.686300  0.135600  0.554500  0.5
  H  H2571  1  0.554500  0.686300  0.135600  0.5
  H  H2572  1  0.864400  0.445500  0.313700  0.5
  H  H2573  1  0.313700  0.864400  0.445500  0.5
  H  H2574  1  0.445500  0.313700  0.864400  0.5
  H  H2575  1  0.532300  0.562600  0.592400  0.64
  H  H2576  1  0.592400  0.532300  0.562600  0.64
  H  H2577  1  0.562600  0.592400  0.532300  0.64
  H  H2578  1  0.467700  0.437400  0.407600  0.64
  H  H2579  1  0.407600  0.467700  0.437400  0.64
  H  H2580  1  0.437400  0.407600  0.467700  0.64
  H  H2581  1  0.538600  0.594300  0.622200  0.64
  H  H2582  1  0.622200  0.538600  0.594300  0.64
  H  H2583  1  0.594300  0.622200  0.538600  0.64
  H  H2584  1  0.461400  0.405700  0.377800  0.64
  H  H2585  1  0.377800  0.461400  0.405700  0.64
  H  H2586  1  0.405700  0.377800  0.461400  0.64
  H  H2587  1  0.500700  0.570800  0.625700  0.64
  H  H2588  1  0.625700  0.500700  0.570800  0.64
  H  H2589  1  0.570800  0.625700  0.500700  0.64
  H  H2590  1  0.499300  0.429200  0.374300  0.64
  H  H2591  1  0.374300  0.499300  0.429200  0.64
  H  H2592  1  0.429200  0.374300  0.499300  0.64
  N  N2593  1  0.010100  0.358600  0.816600  1.0
  N  N2594  1  0.816600  0.010100  0.358600  1.0
  N  N2595  1  0.358600  0.816600  0.010100  1.0
  N  N2596  1  0.989900  0.641400  0.183400  1.0
  N  N2597  1  0.183400  0.989900  0.641400  1.0
  N  N2598  1  0.641400  0.183400  0.989900  1.0
  N  N2599  1  0.036100  0.424200  0.795800  1.0
  N  N2600  1  0.795800  0.036100  0.424200  1.0
  N  N2601  1  0.424200  0.795800  0.036100  1.0
  N  N2602  1  0.963900  0.575800  0.204200  1.0
  N  N2603  1  0.204200  0.963900  0.575800  1.0
  N  N2604  1  0.575800  0.204200  0.963900  1.0
  N  N2605  1  0.006940  0.476240  0.835740  1.0
  N  N2606  1  0.835740  0.006940  0.476240  1.0
  N  N2607  1  0.476240  0.835740  0.006940  1.0
  N  N2608  1  0.993060  0.523760  0.164260  1.0
  N  N2609  1  0.164260  0.993060  0.523760  1.0
  N  N2610  1  0.523760  0.164260  0.993060  1.0
  N  N2611  1  0.600100  0.507100  0.147400  1.0
  N  N2612  1  0.147400  0.600100  0.507100  1.0
  N  N2613  1  0.507100  0.147400  0.600100  1.0
  N  N2614  1  0.399900  0.492900  0.852600  1.0
  N  N2615  1  0.852600  0.399900  0.492900  1.0
  N  N2616  1  0.492900  0.852600  0.399900  1.0
  N  N2617  1  0.630300  0.471500  0.086800  1.0
  N  N2618  1  0.086800  0.630300  0.471500  1.0
  N  N2619  1  0.471500  0.086800  0.630300  1.0
  N  N2620  1  0.369700  0.528500  0.913200  1.0
  N  N2621  1  0.913200  0.369700  0.528500  1.0
  N  N2622  1  0.528500  0.913200  0.369700  1.0
  N  N2623  1  0.684600  0.495700  0.063800  1.0
  N  N2624  1  0.063800  0.684600  0.495700  1.0
  N  N2625  1  0.495700  0.063800  0.684600  1.0
  N  N2626  1  0.315400  0.504300  0.936200  1.0
  N  N2627  1  0.936200  0.315400  0.504300  1.0
  N  N2628  1  0.504300  0.936200  0.315400  1.0
  N  N2629  1  0.778400  0.949200  0.150700  1.0
  N  N2630  1  0.150700  0.778400  0.949200  1.0
  N  N2631  1  0.949200  0.150700  0.778400  1.0
  N  N2632  1  0.221600  0.050800  0.849300  1.0
  N  N2633  1  0.849300  0.221600  0.050800  1.0
  N  N2634  1  0.050800  0.849300  0.221600  1.0
  N  N2635  1  0.725700  0.911300  0.124600  1.0
  N  N2636  1  0.124600  0.725700  0.911300  1.0
  N  N2637  1  0.911300  0.124600  0.725700  1.0
  N  N2638  1  0.274300  0.088700  0.875400  1.0
  N  N2639  1  0.875400  0.274300  0.088700  1.0
  N  N2640  1  0.088700  0.875400  0.274300  1.0
  N  N2641  1  0.749320  0.849720  0.098120  1.0
  N  N2642  1  0.098120  0.749320  0.849720  1.0
  N  N2643  1  0.849720  0.098120  0.749320  1.0
  N  N2644  1  0.250680  0.150280  0.901880  1.0
  N  N2645  1  0.901880  0.250680  0.150280  1.0
  N  N2646  1  0.150280  0.901880  0.250680  1.0
  N  N2647  1  0.180500  0.775200  0.863500  1.0
  N  N2648  1  0.863500  0.180500  0.775200  1.0
  N  N2649  1  0.775200  0.863500  0.180500  1.0
  N  N2650  1  0.819500  0.224800  0.136500  1.0
  N  N2651  1  0.136500  0.819500  0.224800  1.0
  N  N2652  1  0.224800  0.136500  0.819500  1.0
  N  N2653  1  0.131400  0.826500  0.870900  1.0
  N  N2654  1  0.870900  0.131400  0.826500  1.0
  N  N2655  1  0.826500  0.870900  0.131400  1.0
  N  N2656  1  0.868600  0.173500  0.129100  1.0
  N  N2657  1  0.129100  0.868600  0.173500  1.0
  N  N2658  1  0.173500  0.129100  0.868600  1.0
  N  N2659  1  0.070800  0.807800  0.903400  1.0
  N  N2660  1  0.903400  0.070800  0.807800  1.0
  N  N2661  1  0.807800  0.903400  0.070800  1.0
  N  N2662  1  0.929200  0.192200  0.096600  1.0
  N  N2663  1  0.096600  0.929200  0.192200  1.0
  N  N2664  1  0.192200  0.096600  0.929200  1.0
  N  N2665  1  0.863240  0.602440  0.961540  1.0
  N  N2666  1  0.961540  0.863240  0.602440  1.0
  N  N2667  1  0.602440  0.961540  0.863240  1.0
  N  N2668  1  0.136760  0.397560  0.038460  1.0
  N  N2669  1  0.038460  0.136760  0.397560  1.0
  N  N2670  1  0.397560  0.038460  0.136760  1.0
  N  N2671  1  0.825220  0.661020  0.006020  1.0
  N  N2672  1  0.006020  0.825220  0.661020  1.0
  N  N2673  1  0.661020  0.006020  0.825220  1.0
  N  N2674  1  0.174780  0.338980  0.993980  1.0
  N  N2675  1  0.993980  0.174780  0.338980  1.0
  N  N2676  1  0.338980  0.993980  0.174780  1.0
  N  N2677  1  0.883110  0.713910  0.978610  1.0
  N  N2678  1  0.978610  0.883110  0.713910  1.0
  N  N2679  1  0.713910  0.978610  0.883110  1.0
  N  N2680  1  0.116890  0.286090  0.021390  1.0
  N  N2681  1  0.021390  0.116890  0.286090  1.0
  N  N2682  1  0.286090  0.021390  0.116890  1.0
  N  N2683  1  0.921350  0.654750  0.935150  1.0
  N  N2684  1  0.935150  0.921350  0.654750  1.0
  N  N2685  1  0.654750  0.935150  0.921350  1.0
  N  N2686  1  0.078650  0.345250  0.064850  1.0
  N  N2687  1  0.064850  0.078650  0.345250  1.0
  N  N2688  1  0.345250  0.064850  0.078650  1.0
  N  N2689  1  0.676200  0.630500  0.324800  1.0
  N  N2690  1  0.324800  0.676200  0.630500  1.0
  N  N2691  1  0.630500  0.324800  0.676200  1.0
  N  N2692  1  0.323800  0.369500  0.675200  1.0
  N  N2693  1  0.675200  0.323800  0.369500  1.0
  N  N2694  1  0.369500  0.675200  0.323800  1.0
  N  N2695  1  0.717000  0.683200  0.350100  1.0
  N  N2696  1  0.350100  0.717000  0.683200  1.0
  N  N2697  1  0.683200  0.350100  0.717000  1.0
  N  N2698  1  0.283000  0.316800  0.649900  1.0
  N  N2699  1  0.649900  0.283000  0.316800  1.0
  N  N2700  1  0.316800  0.649900  0.283000  1.0
  N  N2701  1  0.754710  0.656510  0.405110  1.0
  N  N2702  1  0.405110  0.754710  0.656510  1.0
  N  N2703  1  0.656510  0.405110  0.754710  1.0
  N  N2704  1  0.245290  0.343490  0.594890  1.0
  N  N2705  1  0.594890  0.245290  0.343490  1.0
  N  N2706  1  0.343490  0.594890  0.245290  1.0
  N  N2707  1  0.594200  0.338700  0.758300  1.0
  N  N2708  1  0.758300  0.594200  0.338700  1.0
  N  N2709  1  0.338700  0.758300  0.594200  1.0
  N  N2710  1  0.405800  0.661300  0.241700  1.0
  N  N2711  1  0.241700  0.405800  0.661300  1.0
  N  N2712  1  0.661300  0.241700  0.405800  1.0
  N  N2713  1  0.573990  0.394390  0.708390  1.0
  N  N2714  1  0.708390  0.573990  0.394390  1.0
  N  N2715  1  0.394390  0.708390  0.573990  1.0
  N  N2716  1  0.426010  0.605610  0.291610  1.0
  N  N2717  1  0.291610  0.426010  0.605610  1.0
  N  N2718  1  0.605610  0.291610  0.426010  1.0
  N  N2719  1  0.629080  0.422480  0.677080  1.0
  N  N2720  1  0.677080  0.629080  0.422480  1.0
  N  N2721  1  0.422480  0.677080  0.629080  1.0
  N  N2722  1  0.370920  0.577520  0.322920  1.0
  N  N2723  1  0.322920  0.370920  0.577520  1.0
  N  N2724  1  0.577520  0.322920  0.370920  1.0
  N  N2725  1  0.051900  0.397400  0.879700  1.0
  N  N2726  1  0.879700  0.051900  0.397400  1.0
  N  N2727  1  0.397400  0.879700  0.051900  1.0
  N  N2728  1  0.948100  0.602600  0.120300  1.0
  N  N2729  1  0.120300  0.948100  0.602600  1.0
  N  N2730  1  0.602600  0.120300  0.948100  1.0
  N  N2731  1  0.977900  0.403800  0.891800  1.0
  N  N2732  1  0.891800  0.977900  0.403800  1.0
  N  N2733  1  0.403800  0.891800  0.977900  1.0
  N  N2734  1  0.022100  0.596200  0.108200  1.0
  N  N2735  1  0.108200  0.022100  0.596200  1.0
  N  N2736  1  0.596200  0.108200  0.022100  1.0
  N  N2737  1  0.943170  0.426270  0.834970  1.0
  N  N2738  1  0.834970  0.943170  0.426270  1.0
  N  N2739  1  0.426270  0.834970  0.943170  1.0
  N  N2740  1  0.056830  0.573730  0.165030  1.0
  N  N2741  1  0.165030  0.056830  0.573730  1.0
  N  N2742  1  0.573730  0.165030  0.056830  1.0
  N  N2743  1  0.155800  0.682500  0.476000  1.0
  N  N2744  1  0.476000  0.155800  0.682500  1.0
  N  N2745  1  0.682500  0.476000  0.155800  1.0
  N  N2746  1  0.844200  0.317500  0.524000  1.0
  N  N2747  1  0.524000  0.844200  0.317500  1.0
  N  N2748  1  0.317500  0.524000  0.844200  1.0
  N  N2749  1  0.146250  0.675750  0.546150  1.0
  N  N2750  1  0.546150  0.146250  0.675750  1.0
  N  N2751  1  0.675750  0.546150  0.146250  1.0
  N  N2752  1  0.853750  0.324250  0.453850  1.0
  N  N2753  1  0.453850  0.853750  0.324250  1.0
  N  N2754  1  0.324250  0.453850  0.853750  1.0
  N  N2755  1  0.085000  0.645800  0.567900  1.0
  N  N2756  1  0.567900  0.085000  0.645800  1.0
  N  N2757  1  0.645800  0.567900  0.085000  1.0
  N  N2758  1  0.915000  0.354200  0.432100  1.0
  N  N2759  1  0.432100  0.915000  0.354200  1.0
  N  N2760  1  0.354200  0.432100  0.915000  1.0
  N  N2761  1  0.801290  0.543790  0.594190  1.0
  N  N2762  1  0.594190  0.801290  0.543790  1.0
  N  N2763  1  0.543790  0.594190  0.801290  1.0
  N  N2764  1  0.198710  0.456210  0.405810  1.0
  N  N2765  1  0.405810  0.198710  0.456210  1.0
  N  N2766  1  0.456210  0.405810  0.198710  1.0
  N  N2767  1  0.832510  0.504910  0.661010  1.0
  N  N2768  1  0.661010  0.832510  0.504910  1.0
  N  N2769  1  0.504910  0.661010  0.832510  1.0
  N  N2770  1  0.167490  0.495090  0.338990  1.0
  N  N2771  1  0.338990  0.167490  0.495090  1.0
  N  N2772  1  0.495090  0.338990  0.167490  1.0
  N  N2773  1  0.904840  0.541240  0.642140  1.0
  N  N2774  1  0.642140  0.904840  0.541240  1.0
  N  N2775  1  0.541240  0.642140  0.904840  1.0
  N  N2776  1  0.095160  0.458760  0.357860  1.0
  N  N2777  1  0.357860  0.095160  0.458760  1.0
  N  N2778  1  0.458760  0.357860  0.095160  1.0
  N  N2779  1  0.874100  0.579900  0.577400  1.0
  N  N2780  1  0.577400  0.874100  0.579900  1.0
  N  N2781  1  0.579900  0.577400  0.874100  1.0
  N  N2782  1  0.125900  0.420100  0.422600  1.0
  N  N2783  1  0.422600  0.125900  0.420100  1.0
  N  N2784  1  0.420100  0.422600  0.125900  1.0
  N  N2785  1  0.567000  0.524900  0.664700  1.0
  N  N2786  1  0.664700  0.567000  0.524900  1.0
  N  N2787  1  0.524900  0.664700  0.567000  1.0
  N  N2788  1  0.433000  0.475100  0.335300  1.0
  N  N2789  1  0.335300  0.433000  0.475100  1.0
  N  N2790  1  0.475100  0.335300  0.433000  1.0
  N  N2791  1  0.158900  0.684400  0.764100  0.25
  N  N2792  1  0.764100  0.158900  0.684400  0.25
  N  N2793  1  0.684400  0.764100  0.158900  0.25
  N  N2794  1  0.841100  0.315600  0.235900  0.25
  N  N2795  1  0.235900  0.841100  0.315600  0.25
  N  N2796  1  0.315600  0.235900  0.841100  0.25
  N  N2797  1  0.182000  0.593900  0.622700  0.5
  N  N2798  1  0.622700  0.182000  0.593900  0.5
  N  N2799  1  0.593900  0.622700  0.182000  0.5
  N  N2800  1  0.818000  0.406100  0.377300  0.5
  N  N2801  1  0.377300  0.818000  0.406100  0.5
  N  N2802  1  0.406100  0.377300  0.818000  0.5
