# generated using pymatgen
data_Co12B276H693.244C744N117O1
_symmetry_space_group_name_H-M   'P 1'
_cell_length_a   26.43800000
_cell_length_b   30.37400000
_cell_length_c   31.04700000
_cell_angle_alpha   67.30000000
_cell_angle_beta   84.86000000
_cell_angle_gamma   78.93000000
_symmetry_Int_Tables_number   1
_chemical_formula_structural   Co12B276H693.244C744N117O1
_chemical_formula_sum   'Co12 B276 H693.244 C744 N117 O1'
_cell_volume   22569.08984922
_cell_formula_units_Z   1
loop_
 _symmetry_equiv_pos_site_id
 _symmetry_equiv_pos_as_xyz
  1  'x, y, z'
loop_
 _atom_site_type_symbol
 _atom_site_label
 _atom_site_symmetry_multiplicity
 _atom_site_fract_x
 _atom_site_fract_y
 _atom_site_fract_z
 _atom_site_occupancy
  Co  Co1  1  0.241620  0.551480  0.006330  1.0
  Co  Co2  1  0.758380  0.448520  0.993670  1.0
  Co  Co3  1  0.699800  0.167910  0.391920  1.0
  Co  Co4  1  0.300200  0.832090  0.608080  1.0
  Co  Co5  1  0.264060  0.190530  0.495870  1.0
  Co  Co6  1  0.735940  0.809470  0.504130  1.0
  Co  Co7  1  0.588390  0.869640  0.949940  1.0
  Co  Co8  1  0.411610  0.130360  0.050060  1.0
  Co  Co9  1  0.068110  0.930790  0.173940  1.0
  Co  Co10  1  0.931890  0.069210  0.826060  1.0
  Co  Co11  1  0.935780  0.521780  0.308470  1.0
  Co  Co12  1  0.064220  0.478220  0.691530  1.0
  B  B13  1  0.117600  0.429700  0.889200  1.0
  B  B14  1  0.882400  0.570300  0.110800  1.0
  B  B15  1  0.175100  0.386900  0.896900  1.0
  B  B16  1  0.824900  0.613100  0.103100  1.0
  B  B17  1  0.172800  0.438400  0.910900  1.0
  B  B18  1  0.827200  0.561600  0.089100  1.0
  B  B19  1  0.111900  0.450300  0.935400  1.0
  B  B20  1  0.888100  0.549700  0.064600  1.0
  B  B21  1  0.075800  0.407200  0.936400  1.0
  B  B22  1  0.924200  0.592800  0.063600  1.0
  B  B23  1  0.115100  0.368400  0.911600  1.0
  B  B24  1  0.884900  0.631600  0.088400  1.0
  B  B25  1  0.168600  0.337000  0.948300  1.0
  B  B26  1  0.831400  0.663000  0.051700  1.0
  B  B27  1  0.204600  0.381200  0.948300  1.0
  B  B28  1  0.795400  0.618800  0.051700  1.0
  B  B29  1  0.164900  0.419500  0.972200  1.0
  B  B30  1  0.835100  0.580500  0.027800  1.0
  B  B31  1  0.105400  0.400500  0.987200  1.0
  B  B32  1  0.894600  0.599500  0.012800  1.0
  B  B33  1  0.108000  0.351800  0.971700  1.0
  B  B34  1  0.892000  0.648200  0.028300  1.0
  B  B35  1  0.162700  0.358200  0.994600  1.0
  B  B36  1  0.837300  0.641800  0.005400  1.0
  B  B37  1  0.266400  0.049400  0.735900  1.0
  B  B38  1  0.733600  0.950600  0.264100  1.0
  B  B39  1  0.312600  0.082000  0.739900  1.0
  B  B40  1  0.687400  0.918000  0.260100  1.0
  B  B41  1  0.280200  0.048700  0.791000  1.0
  B  B42  1  0.719800  0.951300  0.209000  1.0
  B  B43  1  0.272800  0.995700  0.785600  1.0
  B  B44  1  0.727200  0.004300  0.214400  1.0
  B  B45  1  0.298800  0.995400  0.731800  1.0
  B  B46  1  0.701200  0.004600  0.268200  1.0
  B  B47  1  0.323900  0.049400  0.703500  1.0
  B  B48  1  0.676100  0.950600  0.296500  1.0
  B  B49  1  0.373900  0.049000  0.737800  1.0
  B  B50  1  0.626100  0.951000  0.262200  1.0
  B  B51  1  0.347000  0.048200  0.792200  1.0
  B  B52  1  0.653000  0.951800  0.207800  1.0
  B  B53  1  0.322500  0.994300  0.819900  1.0
  B  B54  1  0.677500  0.005700  0.180100  1.0
  B  B55  1  0.333900  0.961800  0.783400  1.0
  B  B56  1  0.666100  0.038200  0.216600  1.0
  B  B57  1  0.364700  0.994900  0.733400  1.0
  B  B58  1  0.635300  0.005100  0.266600  1.0
  B  B59  1  0.379600  0.994600  0.787500  1.0
  B  B60  1  0.620400  0.005400  0.212500  1.0
  B  B61  1  0.763600  0.994800  0.725000  1.0
  B  B62  1  0.236400  0.005200  0.275000  1.0
  B  B63  1  0.719400  0.953800  0.744900  1.0
  B  B64  1  0.280600  0.046200  0.255100  1.0
  B  B65  1  0.696700  0.016800  0.719900  1.0
  B  B66  1  0.303300  0.983200  0.280100  1.0
  B  B67  1  0.738100  0.040800  0.674500  1.0
  B  B68  1  0.261900  0.959200  0.325500  1.0
  B  B69  1  0.788000  0.996000  0.669700  1.0
  B  B70  1  0.212000  0.004000  0.330300  1.0
  B  B71  1  0.775800  0.941000  0.714200  1.0
  B  B72  1  0.224200  0.059000  0.285800  1.0
  B  B73  1  0.717100  0.929600  0.702200  1.0
  B  B74  1  0.282900  0.070400  0.297800  1.0
  B  B75  1  0.667400  0.976500  0.706200  1.0
  B  B76  1  0.332600  0.023500  0.293800  1.0
  B  B77  1  0.679500  0.031300  0.662100  1.0
  B  B78  1  0.320500  0.968700  0.337900  1.0
  B  B79  1  0.735300  0.018500  0.631100  1.0
  B  B80  1  0.264700  0.981500  0.368900  1.0
  B  B81  1  0.758400  0.957400  0.655900  1.0
  B  B82  1  0.241600  0.042600  0.344100  1.0
  B  B83  1  0.691400  0.978100  0.651000  1.0
  B  B84  1  0.308600  0.021900  0.349000  1.0
  B  B85  1  0.174000  0.912400  0.759000  1.0
  B  B86  1  0.826000  0.087600  0.241000  1.0
  B  B87  1  0.115200  0.901900  0.790100  1.0
  B  B88  1  0.884800  0.098100  0.209900  1.0
  B  B89  1  0.130900  0.961000  0.766300  1.0
  B  B90  1  0.869100  0.039000  0.233700  1.0
  B  B91  1  0.162000  0.968600  0.713700  1.0
  B  B92  1  0.838000  0.031400  0.286300  1.0
  B  B93  1  0.168100  0.915400  0.702600  1.0
  B  B94  1  0.831900  0.084600  0.297400  1.0
  B  B95  1  0.138200  0.873800  0.750600  1.0
  B  B96  1  0.861800  0.126200  0.249400  1.0
  B  B97  1  0.071700  0.897900  0.752500  1.0
  B  B98  1  0.928300  0.102100  0.247500  1.0
  B  B99  1  0.067400  0.952400  0.762700  1.0
  B  B100  1  0.932600  0.047600  0.237300  1.0
  B  B101  1  0.096600  0.993400  0.714100  1.0
  B  B102  1  0.903400  0.006600  0.285900  1.0
  B  B103  1  0.118900  0.964900  0.675400  1.0
  B  B104  1  0.881100  0.035100  0.324600  1.0
  B  B105  1  0.105200  0.907000  0.699100  1.0
  B  B106  1  0.894800  0.093000  0.300900  1.0
  B  B107  1  0.060600  0.955400  0.705800  1.0
  B  B108  1  0.939400  0.044600  0.294200  1.0
  B  B109  1  0.812600  0.717100  0.151300  1.0
  B  B110  1  0.187400  0.282900  0.848700  1.0
  B  B111  1  0.833500  0.710100  0.205800  1.0
  B  B112  1  0.166500  0.289900  0.794200  1.0
  B  B113  1  0.819500  0.769000  0.205400  1.0
  B  B114  1  0.180500  0.231000  0.794600  1.0
  B  B115  1  0.790400  0.807800  0.153500  1.0
  B  B116  1  0.209600  0.192200  0.846500  1.0
  B  B117  1  0.787200  0.774100  0.119900  1.0
  B  B118  1  0.212800  0.225900  0.880100  1.0
  B  B119  1  0.842800  0.761000  0.156500  1.0
  B  B120  1  0.157200  0.239000  0.843500  1.0
  B  B121  1  0.746200  0.731600  0.148800  1.0
  B  B122  1  0.253800  0.268400  0.851200  1.0
  B  B123  1  0.775000  0.692300  0.203000  1.0
  B  B124  1  0.225000  0.307700  0.797000  1.0
  B  B125  1  0.779200  0.725700  0.236300  1.0
  B  B126  1  0.220800  0.274300  0.763700  1.0
  B  B127  1  0.751400  0.786300  0.204100  1.0
  B  B128  1  0.248600  0.213700  0.795900  1.0
  B  B129  1  0.725500  0.739400  0.200000  1.0
  B  B130  1  0.274500  0.260600  0.800000  1.0
  B  B131  1  0.733900  0.790200  0.149600  1.0
  B  B132  1  0.266100  0.209800  0.850400  1.0
  B  B133  1  0.004700  0.759400  0.364400  1.0
  B  B134  1  0.995300  0.240600  0.635600  1.0
  B  B135  1  0.033500  0.802800  0.368300  1.0
  B  B136  1  0.966500  0.197200  0.631700  1.0
  B  B137  1  0.018900  0.754800  0.420000  1.0
  B  B138  1  0.981100  0.245200  0.580000  1.0
  B  B139  1  0.959300  0.741200  0.412700  1.0
  B  B140  1  0.040700  0.258800  0.587300  1.0
  B  B141  1  0.936600  0.784200  0.354100  1.0
  B  B142  1  0.063400  0.215800  0.645900  1.0
  B  B143  1  0.985900  0.821400  0.329400  1.0
  B  B144  1  0.014100  0.178600  0.670600  1.0
  B  B145  1  0.007600  0.815500  0.414500  1.0
  B  B146  1  0.992400  0.184500  0.585500  1.0
  B  B147  1  0.963100  0.776800  0.446300  1.0
  B  B148  1  0.036900  0.223200  0.553700  1.0
  B  B149  1  0.911300  0.795800  0.403800  1.0
  B  B150  1  0.088700  0.204200  0.596200  1.0
  B  B151  1  0.929100  0.843600  0.353700  1.0
  B  B152  1  0.070900  0.156400  0.646300  1.0
  B  B153  1  0.989500  0.853100  0.362900  1.0
  B  B154  1  0.010500  0.146900  0.637100  1.0
  B  B155  1  0.943200  0.840000  0.407000  1.0
  B  B156  1  0.056800  0.160000  0.593000  1.0
  B  B157  1  0.456800  0.089800  0.326000  1.0
  B  B158  1  0.543200  0.910200  0.674000  1.0
  B  B159  1  0.450000  0.151100  0.319100  1.0
  B  B160  1  0.550000  0.848900  0.680900  1.0
  B  B161  1  0.510800  0.114600  0.324800  1.0
  B  B162  1  0.489200  0.885400  0.675200  1.0
  B  B163  1  0.506300  0.056700  0.364600  1.0
  B  B164  1  0.493700  0.943300  0.635400  1.0
  B  B165  1  0.444800  0.060400  0.383000  1.0
  B  B166  1  0.555200  0.939600  0.617000  1.0
  B  B167  1  0.407500  0.115900  0.355300  1.0
  B  B168  1  0.592500  0.884100  0.644700  1.0
  B  B169  1  0.495700  0.155900  0.353800  1.0
  B  B170  1  0.504300  0.844100  0.646200  1.0
  B  B171  1  0.531100  0.098200  0.382300  1.0
  B  B172  1  0.468900  0.901800  0.617700  1.0
  B  B173  1  0.488300  0.061500  0.419500  1.0
  B  B174  1  0.511700  0.938500  0.580500  1.0
  B  B175  1  0.427500  0.096300  0.413600  1.0
  B  B176  1  0.572500  0.903700  0.586400  1.0
  B  B177  1  0.431800  0.155900  0.372600  1.0
  B  B178  1  0.568200  0.844100  0.627400  1.0
  B  B179  1  0.481200  0.122400  0.412600  1.0
  B  B180  1  0.518800  0.877600  0.587400  1.0
  B  B181  1  0.282900  0.305200  0.204700  1.0
  B  B182  1  0.717100  0.694800  0.795300  1.0
  B  B183  1  0.244200  0.307800  0.252500  1.0
  B  B184  1  0.755800  0.692200  0.747500  1.0
  B  B185  1  0.269600  0.358600  0.216100  1.0
  B  B186  1  0.730400  0.641400  0.783900  1.0
  B  B187  1  0.329900  0.341200  0.197700  1.0
  B  B188  1  0.670100  0.658800  0.802300  1.0
  B  B189  1  0.346500  0.277700  0.223500  1.0
  B  B190  1  0.653500  0.722300  0.776500  1.0
  B  B191  1  0.292600  0.255900  0.259200  1.0
  B  B192  1  0.707400  0.744100  0.740800  1.0
  B  B193  1  0.266900  0.342200  0.276800  1.0
  B  B194  1  0.733100  0.657800  0.723200  1.0
  B  B195  1  0.320100  0.364100  0.242600  1.0
  B  B196  1  0.679900  0.635900  0.757400  1.0
  B  B197  1  0.369100  0.314900  0.246700  1.0
  B  B198  1  0.630900  0.685100  0.753300  1.0
  B  B199  1  0.342100  0.265800  0.282200  1.0
  B  B200  1  0.657900  0.734200  0.717800  1.0
  B  B201  1  0.283000  0.279300  0.302500  1.0
  B  B202  1  0.717000  0.720700  0.697500  1.0
  B  B203  1  0.328400  0.316000  0.295700  1.0
  B  B204  1  0.671600  0.684000  0.704300  1.0
  B  B205  1  0.699200  0.178600  0.921600  0.247
  B  B206  1  0.300800  0.821400  0.078400  0.247
  B  B207  1  0.716200  0.166900  0.979300  0.247
  B  B208  1  0.283800  0.833100  0.020700  0.247
  B  B209  1  0.748300  0.205900  0.931500  0.247
  B  B210  1  0.251700  0.794100  0.068500  0.247
  B  B211  1  0.703500  0.238900  0.888600  0.247
  B  B212  1  0.296500  0.761100  0.111400  0.247
  B  B213  1  0.643200  0.222000  0.907300  0.247
  B  B214  1  0.356800  0.778000  0.092700  0.247
  B  B215  1  0.651200  0.176700  0.964200  0.247
  B  B216  1  0.348800  0.823300  0.035800  0.247
  B  B217  1  0.669600  0.202400  0.001500  0.247
  B  B218  1  0.330400  0.797600  0.998500  0.247
  B  B219  1  0.730100  0.220800  0.980900  0.247
  B  B220  1  0.269900  0.779200  0.019100  0.247
  B  B221  1  0.721100  0.265800  0.924500  0.247
  B  B222  1  0.278900  0.734200  0.075500  0.247
  B  B223  1  0.657000  0.275300  0.909900  0.247
  B  B224  1  0.343000  0.724700  0.090100  0.247
  B  B225  1  0.626000  0.236700  0.956100  0.247
  B  B226  1  0.374000  0.763300  0.043900  0.247
  B  B227  1  0.673700  0.263700  0.967300  0.247
  B  B228  1  0.326300  0.736300  0.032700  0.247
  B  B229  1  0.838800  0.131900  0.117000  0.435
  B  B230  1  0.161200  0.868100  0.883000  0.435
  B  B231  1  0.851700  0.169600  0.144700  0.435
  B  B232  1  0.148300  0.830400  0.855300  0.435
  B  B233  1  0.902900  0.139700  0.120100  0.435
  B  B234  1  0.097100  0.860300  0.879900  0.435
  B  B235  1  0.881300  0.139100  0.069300  0.435
  B  B236  1  0.118700  0.860900  0.930700  0.435
  B  B237  1  0.817000  0.167500  0.061100  0.435
  B  B238  1  0.183000  0.832500  0.938900  0.435
  B  B239  1  0.798100  0.186400  0.107900  0.435
  B  B240  1  0.201900  0.813600  0.892100  0.435
  B  B241  1  0.835600  0.229700  0.105800  0.435
  B  B242  1  0.164400  0.770300  0.894200  0.435
  B  B243  1  0.901300  0.200800  0.113100  0.435
  B  B244  1  0.098700  0.799200  0.886900  0.435
  B  B245  1  0.919200  0.182100  0.065600  0.435
  B  B246  1  0.080800  0.817900  0.934400  0.435
  B  B247  1  0.866700  0.198700  0.029700  0.435
  B  B248  1  0.133300  0.801300  0.970300  0.435
  B  B249  1  0.816000  0.227100  0.054000  0.435
  B  B250  1  0.184000  0.772900  0.946000  0.435
  B  B251  1  0.878800  0.236800  0.056800  0.435
  B  B252  1  0.121200  0.763200  0.943200  0.435
  B  B253  1  0.080100  0.306000  0.210900  0.439
  B  B254  1  0.919900  0.694000  0.789100  0.439
  B  B255  1  0.026100  0.278200  0.214600  0.439
  B  B256  1  0.973900  0.721800  0.785400  0.439
  B  B257  1  0.037800  0.328000  0.162800  0.439
  B  B258  1  0.962200  0.672000  0.837200  0.439
  B  B259  1  0.103700  0.322200  0.153300  0.439
  B  B260  1  0.896300  0.677800  0.846700  0.439
  B  B261  1  0.134600  0.270800  0.197400  0.439
  B  B262  1  0.865400  0.729200  0.802600  0.439
  B  B263  1  0.086300  0.243300  0.235800  0.439
  B  B264  1  0.913700  0.756700  0.764200  0.439
  B  B265  1  0.047600  0.224500  0.204800  0.439
  B  B266  1  0.952400  0.775500  0.795200  0.439
  B  B267  1  0.017300  0.277400  0.159500  0.439
  B  B268  1  0.982700  0.722600  0.840500  0.439
  B  B269  1  0.065900  0.303500  0.121700  0.439
  B  B270  1  0.934100  0.696500  0.878300  0.439
  B  B271  1  0.125500  0.269400  0.142500  0.439
  B  B272  1  0.874500  0.730600  0.857500  0.439
  B  B273  1  0.114300  0.222000  0.192800  0.439
  B  B274  1  0.885700  0.778000  0.807200  0.439
  B  B275  1  0.072000  0.241400  0.146600  0.439
  B  B276  1  0.928000  0.758600  0.853400  0.439
  B  B277  1  0.025300  0.775100  0.573300  0.5
  B  B278  1  0.974700  0.224900  0.426700  0.5
  B  B279  1  0.049300  0.754700  0.528200  0.5
  B  B280  1  0.950700  0.245300  0.471800  0.5
  B  B281  1  0.059700  0.811900  0.525600  0.5
  B  B282  1  0.940300  0.188100  0.474400  0.5
  B  B283  1  0.070500  0.806100  0.581600  0.5
  B  B284  1  0.929500  0.193900  0.418400  0.5
  B  B285  1  0.067100  0.746500  0.620400  0.5
  B  B286  1  0.932900  0.253500  0.379600  0.5
  B  B287  1  0.053800  0.714800  0.586500  0.5
  B  B288  1  0.946200  0.285200  0.413500  0.5
  B  B289  1  0.105500  0.712700  0.547200  0.5
  B  B290  1  0.894500  0.287300  0.452800  0.5
  B  B291  1  0.109100  0.773500  0.509100  0.5
  B  B292  1  0.890900  0.226500  0.490900  0.5
  B  B293  1  0.123200  0.804300  0.543300  0.5
  B  B294  1  0.876800  0.195700  0.456700  0.5
  B  B295  1  0.127500  0.764600  0.601300  0.5
  B  B296  1  0.872500  0.235400  0.398700  0.5
  B  B297  1  0.116600  0.709700  0.603700  0.5
  B  B298  1  0.883400  0.290300  0.396300  0.5
  B  B299  1  0.151200  0.744300  0.556000  0.5
  B  B300  1  0.848800  0.255700  0.444000  0.5
  B  B301  1  0.072400  0.304700  0.137400  0.561
  B  B302  1  0.927600  0.695300  0.862600  0.561
  B  B303  1  0.022100  0.301000  0.179900  0.561
  B  B304  1  0.977900  0.699000  0.820100  0.561
  B  B305  1  0.042000  0.253200  0.159300  0.561
  B  B306  1  0.958000  0.746800  0.840700  0.561
  B  B307  1  0.107900  0.246600  0.151100  0.561
  B  B308  1  0.892100  0.753400  0.848900  0.561
  B  B309  1  0.131200  0.289700  0.165300  0.561
  B  B310  1  0.868800  0.710300  0.834700  0.561
  B  B311  1  0.077700  0.323800  0.183000  0.561
  B  B312  1  0.922300  0.676200  0.817000  0.561
  B  B313  1  0.050300  0.284100  0.234300  0.561
  B  B314  1  0.949700  0.715900  0.765700  0.561
  B  B315  1  0.027700  0.240400  0.219400  0.561
  B  B316  1  0.972300  0.759600  0.780600  0.561
  B  B317  1  0.081600  0.206900  0.201800  0.561
  B  B318  1  0.918400  0.793100  0.798200  0.561
  B  B319  1  0.136500  0.229200  0.205000  0.561
  B  B320  1  0.863500  0.770800  0.795000  0.561
  B  B321  1  0.116600  0.275900  0.224200  0.561
  B  B322  1  0.883400  0.724100  0.775800  0.561
  B  B323  1  0.086800  0.224700  0.247200  0.561
  B  B324  1  0.913200  0.775300  0.752800  0.561
  B  B325  1  0.932900  0.287400  0.005800  0.565
  B  B326  1  0.067100  0.712600  0.994200  0.565
  B  B327  1  0.899900  0.330900  0.955600  0.565
  B  B328  1  0.100100  0.669100  0.044400  0.565
  B  B329  1  0.964700  0.303400  0.950400  0.565
  B  B330  1  0.035300  0.696600  0.049600  0.565
  B  B331  1  0.972900  0.244000  0.988800  0.565
  B  B332  1  0.027100  0.756000  0.011200  0.565
  B  B333  1  0.914800  0.231100  0.019100  0.565
  B  B334  1  0.085200  0.768900  0.980900  0.565
  B  B335  1  0.869200  0.285600  0.998400  0.565
  B  B336  1  0.130800  0.714400  0.001600  0.565
  B  B337  1  0.859800  0.301300  0.938100  0.565
  B  B338  1  0.140200  0.698700  0.061900  0.565
  B  B339  1  0.919000  0.312300  0.908500  0.565
  B  B340  1  0.081000  0.687700  0.091500  0.565
  B  B341  1  0.963800  0.257800  0.929300  0.565
  B  B342  1  0.036200  0.742200  0.070700  0.565
  B  B343  1  0.933200  0.213800  0.971500  0.565
  B  B344  1  0.066800  0.786200  0.028500  0.565
  B  B345  1  0.870900  0.240300  0.977200  0.565
  B  B346  1  0.129100  0.759700  0.022800  0.565
  B  B347  1  0.900000  0.256700  0.921400  0.565
  B  B348  1  0.100000  0.743300  0.078600  0.565
  B  B349  1  0.740600  0.190500  0.960200  0.753
  B  B350  1  0.259400  0.809500  0.039800  0.753
  B  B351  1  0.682200  0.168500  0.980900  0.753
  B  B352  1  0.317800  0.831500  0.019100  0.753
  B  B353  1  0.694300  0.219800  0.990400  0.753
  B  B354  1  0.305700  0.780200  0.009600  0.753
  B  B355  1  0.727300  0.252800  0.941500  0.753
  B  B356  1  0.272700  0.747200  0.058500  0.753
  B  B357  1  0.736000  0.225000  0.900500  0.753
  B  B358  1  0.264000  0.775000  0.099500  0.753
  B  B359  1  0.707700  0.172100  0.925600  0.753
  B  B360  1  0.292300  0.827900  0.074400  0.753
  B  B361  1  0.641000  0.189500  0.933400  0.753
  B  B362  1  0.359000  0.810500  0.066600  0.753
  B  B363  1  0.632500  0.219300  0.973500  0.753
  B  B364  1  0.367500  0.780700  0.026500  0.753
  B  B365  1  0.661200  0.272000  0.948500  0.753
  B  B366  1  0.338800  0.728000  0.051500  0.753
  B  B367  1  0.686600  0.274900  0.893800  0.753
  B  B368  1  0.313400  0.725100  0.106200  0.753
  B  B369  1  0.674700  0.224900  0.885100  0.753
  B  B370  1  0.325300  0.775100  0.114900  0.753
  B  B371  1  0.628300  0.253900  0.913700  0.753
  B  B372  1  0.371700  0.746100  0.086300  0.753
  H  H373  1  0.039800  0.371600  0.767100  1.0
  H  H374  1  0.960200  0.628400  0.232900  1.0
  H  H375  1  0.998200  0.343600  0.840500  1.0
  H  H376  1  0.001800  0.656400  0.159500  1.0
  H  H377  1  0.972100  0.396400  0.878900  1.0
  H  H378  1  0.027900  0.603600  0.121100  1.0
  H  H379  1  0.964900  0.482700  0.879300  1.0
  H  H380  1  0.035100  0.517300  0.120700  1.0
  H  H381  1  0.977600  0.559700  0.843000  1.0
  H  H382  1  0.022400  0.440300  0.157000  1.0
  H  H383  1  0.024400  0.621600  0.773700  1.0
  H  H384  1  0.975600  0.378400  0.226300  1.0
  H  H385  1  0.063700  0.640400  0.699300  1.0
  H  H386  1  0.936300  0.359600  0.300700  1.0
  H  H387  1  0.106400  0.603900  0.635200  1.0
  H  H388  1  0.893600  0.396100  0.364800  1.0
  H  H389  1  0.078300  0.499700  0.586700  1.0
  H  H390  1  0.921700  0.500300  0.413300  1.0
  H  H391  1  0.114200  0.507400  0.512800  1.0
  H  H392  1  0.885800  0.492600  0.487200  1.0
  H  H393  1  0.214600  0.584600  0.527300  1.0
  H  H394  1  0.785400  0.415400  0.472700  1.0
  H  H395  1  0.179300  0.578400  0.600100  1.0
  H  H396  1  0.820700  0.421600  0.399900  1.0
  H  H397  1  0.158900  0.145400  0.545400  1.0
  H  H398  1  0.841100  0.854600  0.454600  1.0
  H  H399  1  0.142300  0.068100  0.595500  1.0
  H  H400  1  0.857700  0.931900  0.404500  1.0
  H  H401  1  0.208000  0.004400  0.619200  1.0
  H  H402  1  0.792000  0.995600  0.380800  1.0
  H  H403  1  0.306100  0.973800  0.623100  1.0
  H  H404  1  0.693900  0.026200  0.376900  1.0
  H  H405  1  0.386400  0.988600  0.599000  1.0
  H  H406  1  0.613600  0.011400  0.401000  1.0
  H  H407  1  0.445300  0.055900  0.560300  1.0
  H  H408  1  0.554700  0.944100  0.439700  1.0
  H  H409  1  0.451400  0.135600  0.513900  1.0
  H  H410  1  0.548600  0.864400  0.486100  1.0
  H  H411  1  0.398800  0.225500  0.466500  1.0
  H  H412  1  0.601200  0.774500  0.533500  1.0
  H  H413  1  0.253900  0.287000  0.403000  1.0
  H  H414  1  0.746100  0.713000  0.597000  1.0
  H  H415  1  0.228400  0.370800  0.373300  1.0
  H  H416  1  0.771600  0.629200  0.626700  1.0
  H  H417  1  0.344000  0.384700  0.441000  1.0
  H  H418  1  0.656000  0.615300  0.559000  1.0
  H  H419  1  0.370700  0.301200  0.470200  1.0
  H  H420  1  0.629300  0.698800  0.529800  1.0
  H  H421  1  0.265200  0.454400  0.975300  1.0
  H  H422  1  0.734800  0.545600  0.024700  1.0
  H  H423  1  0.299600  0.438300  0.909900  1.0
  H  H424  1  0.700400  0.561700  0.090100  1.0
  H  H425  1  0.328500  0.498000  0.846600  1.0
  H  H426  1  0.671500  0.502000  0.153400  1.0
  H  H427  1  0.346100  0.585600  0.809900  1.0
  H  H428  1  0.653900  0.414400  0.190100  1.0
  H  H429  1  0.344600  0.658500  0.814200  1.0
  H  H430  1  0.655400  0.341500  0.185800  1.0
  H  H431  1  0.327900  0.709500  0.867700  1.0
  H  H432  1  0.672100  0.290500  0.132300  1.0
  H  H433  1  0.298900  0.713300  0.939200  1.0
  H  H434  1  0.701100  0.286700  0.060800  1.0
  H  H435  1  0.267100  0.664500  0.026400  1.0
  H  H436  1  0.732900  0.335500  0.973600  1.0
  H  H437  1  0.184300  0.558600  0.104900  1.0
  H  H438  1  0.815700  0.441400  0.895100  1.0
  H  H439  1  0.177200  0.546200  0.184100  1.0
  H  H440  1  0.822800  0.453800  0.815900  1.0
  H  H441  1  0.305600  0.604500  0.172200  1.0
  H  H442  1  0.694400  0.395500  0.827800  1.0
  H  H443  1  0.311600  0.618100  0.093500  1.0
  H  H444  1  0.688400  0.381900  0.906500  1.0
  H  H445  1  0.049800  0.982400  0.059400  1.0
  H  H446  1  0.950200  0.017600  0.940600  1.0
  H  H447  1  0.032700  0.063800  0.002600  1.0
  H  H448  1  0.967300  0.936200  0.997400  1.0
  H  H449  1  0.022800  0.127000  0.027900  1.0
  H  H450  1  0.977200  0.873000  0.972100  1.0
  H  H451  1  0.032100  0.157000  0.092800  1.0
  H  H452  1  0.967900  0.843000  0.907200  1.0
  H  H453  1  0.043300  0.140800  0.169200  1.0
  H  H454  1  0.956700  0.859200  0.830800  1.0
  H  H455  1  0.074000  0.074000  0.249700  1.0
  H  H456  1  0.926000  0.926000  0.750300  1.0
  H  H457  1  0.093300  0.991900  0.298300  1.0
  H  H458  1  0.906700  0.008100  0.701700  1.0
  H  H459  1  0.107900  0.901100  0.301000  1.0
  H  H460  1  0.892100  0.098900  0.699000  1.0
  H  H461  1  0.171100  0.838500  0.303800  1.0
  H  H462  1  0.828900  0.161500  0.696200  1.0
  H  H463  1  0.203000  0.756600  0.330000  1.0
  H  H464  1  0.797000  0.243400  0.670000  1.0
  H  H465  1  0.095000  0.739200  0.255700  1.0
  H  H466  1  0.905000  0.260800  0.744300  1.0
  H  H467  1  0.065100  0.822300  0.227300  1.0
  H  H468  1  0.934900  0.177700  0.772700  1.0
  H  H469  1  0.212600  0.453300  0.525300  1.0
  H  H470  1  0.787400  0.546700  0.474700  1.0
  H  H471  1  0.252200  0.396700  0.486600  1.0
  H  H472  1  0.747800  0.603300  0.513400  1.0
  H  H473  1  0.296500  0.414200  0.310600  1.0
  H  H474  1  0.703500  0.585800  0.689400  1.0
  H  H475  1  0.277200  0.479500  0.233700  1.0
  H  H476  1  0.722800  0.520500  0.766300  1.0
  H  H477  1  0.215400  0.670600  0.174900  1.0
  H  H478  1  0.784600  0.329400  0.825100  1.0
  H  H479  1  0.187500  0.728500  0.214200  1.0
  H  H480  1  0.812500  0.271500  0.785800  1.0
  H  H481  1  0.129200  0.710800  0.388200  1.0
  H  H482  1  0.870800  0.289200  0.611800  1.0
  H  H483  1  0.138000  0.644700  0.465100  1.0
  H  H484  1  0.862000  0.355300  0.534900  1.0
  H  H485  1  0.826000  0.140300  0.379700  1.0
  H  H486  1  0.174000  0.859700  0.620300  1.0
  H  H487  1  0.887300  0.072600  0.419000  1.0
  H  H488  1  0.112700  0.927400  0.581000  1.0
  H  H489  1  0.862500  0.002200  0.469900  1.0
  H  H490  1  0.137500  0.997800  0.530100  1.0
  H  H491  1  0.788400  0.964700  0.527800  1.0
  H  H492  1  0.211600  0.035300  0.472200  1.0
  H  H493  1  0.703700  0.964900  0.545300  1.0
  H  H494  1  0.296300  0.035100  0.454700  1.0
  H  H495  1  0.612300  0.022200  0.536000  1.0
  H  H496  1  0.387700  0.977800  0.464000  1.0
  H  H497  1  0.560700  0.098100  0.498500  1.0
  H  H498  1  0.439300  0.901900  0.501500  1.0
  H  H499  1  0.558600  0.188600  0.428500  1.0
  H  H500  1  0.441400  0.811400  0.571500  1.0
  H  H501  1  0.616100  0.238000  0.301800  1.0
  H  H502  1  0.383900  0.762000  0.698200  1.0
  H  H503  1  0.599900  0.318900  0.251900  1.0
  H  H504  1  0.400100  0.681100  0.748100  1.0
  H  H505  1  0.570300  0.358500  0.362600  1.0
  H  H506  1  0.429700  0.641500  0.637400  1.0
  H  H507  1  0.589700  0.278100  0.413100  1.0
  H  H508  1  0.410300  0.721900  0.586900  1.0
  H  H509  1  0.041500  0.436300  0.339000  1.0
  H  H510  1  0.958500  0.563700  0.661000  1.0
  H  H511  1  0.122300  0.427300  0.376900  1.0
  H  H512  1  0.877700  0.572700  0.623100  1.0
  H  H513  1  0.135500  0.488600  0.395800  1.0
  H  H514  1  0.864500  0.511400  0.604200  1.0
  H  H515  1  0.103800  0.574800  0.400000  1.0
  H  H516  1  0.896200  0.425200  0.600000  1.0
  H  H517  1  0.041000  0.637100  0.394800  1.0
  H  H518  1  0.959000  0.362900  0.605200  1.0
  H  H519  1  0.945300  0.677300  0.366900  1.0
  H  H520  1  0.054700  0.322700  0.633100  1.0
  H  H521  1  0.868600  0.672200  0.340600  1.0
  H  H522  1  0.131400  0.327800  0.659400  1.0
  H  H523  1  0.819400  0.619900  0.309300  1.0
  H  H524  1  0.180600  0.380100  0.690700  1.0
  H  H525  1  0.850000  0.545300  0.225200  1.0
  H  H526  1  0.150000  0.454700  0.774800  1.0
  H  H527  1  0.776800  0.531000  0.198900  1.0
  H  H528  1  0.223200  0.469000  0.801100  1.0
  H  H529  1  0.696900  0.536100  0.314400  1.0
  H  H530  1  0.303100  0.463900  0.685600  1.0
  H  H531  1  0.769300  0.551900  0.341100  1.0
  H  H532  1  0.230700  0.448100  0.658900  1.0
  H  H533  1  0.693800  0.922600  0.913000  1.0
  H  H534  1  0.306200  0.077400  0.087000  1.0
  H  H535  1  0.710600  0.993400  0.851000  1.0
  H  H536  1  0.289400  0.006600  0.149000  1.0
  H  H537  1  0.643200  0.048700  0.807200  1.0
  H  H538  1  0.356800  0.951300  0.192800  1.0
  H  H539  1  0.544100  0.075100  0.796800  1.0
  H  H540  1  0.455900  0.924900  0.203200  1.0
  H  H541  1  0.462600  0.062400  0.820400  1.0
  H  H542  1  0.537400  0.937600  0.179600  1.0
  H  H543  1  0.404300  0.006500  0.881300  1.0
  H  H544  1  0.595700  0.993500  0.118700  1.0
  H  H545  1  0.397900  0.931200  0.941200  1.0
  H  H546  1  0.602100  0.068800  0.058800  1.0
  H  H547  1  0.451300  0.845600  0.998200  1.0
  H  H548  1  0.548700  0.154400  0.001800  1.0
  H  H549  1  0.482600  0.794000  0.070400  1.0
  H  H550  1  0.517400  0.206000  0.929600  1.0
  H  H551  1  0.497300  0.713400  0.122700  1.0
  H  H552  1  0.502700  0.286600  0.877300  1.0
  H  H553  1  0.604100  0.679200  0.034400  1.0
  H  H554  1  0.395900  0.320800  0.965600  1.0
  H  H555  1  0.590300  0.759800  0.982900  1.0
  H  H556  1  0.409700  0.240200  0.017100  1.0
  H  H557  1  0.183200  0.651800  0.922100  1.0
  H  H558  1  0.816800  0.348200  0.077900  1.0
  H  H559  1  0.097200  0.679900  0.889500  1.0
  H  H560  1  0.902800  0.320100  0.110500  1.0
  H  H561  1  0.032400  0.638600  0.927200  1.0
  H  H562  1  0.967600  0.361400  0.072800  1.0
  H  H563  1  0.004800  0.563100  0.986000  1.0
  H  H564  1  0.995200  0.436900  0.014000  1.0
  H  H565  1  0.022200  0.490100  0.044500  1.0
  H  H566  1  0.977800  0.509900  0.955500  1.0
  H  H567  1  0.096000  0.423500  0.092800  1.0
  H  H568  1  0.904000  0.576500  0.907200  1.0
  H  H569  1  0.180400  0.399400  0.119700  1.0
  H  H570  1  0.819600  0.600600  0.880300  1.0
  H  H571  1  0.268800  0.430300  0.114000  1.0
  H  H572  1  0.731200  0.569700  0.886000  1.0
  H  H573  1  0.301400  0.467600  0.154200  1.0
  H  H574  1  0.698600  0.532400  0.845800  1.0
  H  H575  1  0.373900  0.474700  0.186300  1.0
  H  H576  1  0.626100  0.525300  0.813700  1.0
  H  H577  1  0.438600  0.526500  0.057400  1.0
  H  H578  1  0.561400  0.473500  0.942600  1.0
  H  H579  1  0.363900  0.522800  0.024800  1.0
  H  H580  1  0.636100  0.477200  0.975200  1.0
  H  H581  1  0.668700  0.375200  0.325100  1.0
  H  H582  1  0.331300  0.624800  0.674900  1.0
  H  H583  1  0.720800  0.439000  0.306600  1.0
  H  H584  1  0.279200  0.561000  0.693400  1.0
  H  H585  1  0.704300  0.623300  0.186200  1.0
  H  H586  1  0.295700  0.376700  0.813800  1.0
  H  H587  1  0.641700  0.677600  0.125700  1.0
  H  H588  1  0.358300  0.322400  0.874300  1.0
  H  H589  1  0.463000  0.664400  0.069500  1.0
  H  H590  1  0.537000  0.335600  0.930500  1.0
  H  H591  1  0.413200  0.598800  0.084600  1.0
  H  H592  1  0.586800  0.401200  0.915400  1.0
  H  H593  1  0.443000  0.408400  0.189400  1.0
  H  H594  1  0.557000  0.591600  0.810600  1.0
  H  H595  1  0.501900  0.355600  0.253200  1.0
  H  H596  1  0.498100  0.644400  0.746800  1.0
  H  H597  1  0.645100  0.105200  0.347100  1.0
  H  H598  1  0.354900  0.894800  0.652900  1.0
  H  H599  1  0.644400  0.101500  0.273700  1.0
  H  H600  1  0.355600  0.898500  0.726300  1.0
  H  H601  1  0.690800  0.148800  0.212200  1.0
  H  H602  1  0.309200  0.851200  0.787800  1.0
  H  H603  1  0.740000  0.222600  0.181200  1.0
  H  H604  1  0.260000  0.777400  0.818800  1.0
  H  H605  1  0.775200  0.278600  0.193400  1.0
  H  H606  1  0.224800  0.721400  0.806600  1.0
  H  H607  1  0.783800  0.320700  0.251700  1.0
  H  H608  1  0.216200  0.679300  0.748300  1.0
  H  H609  1  0.774600  0.320100  0.328200  1.0
  H  H610  1  0.225400  0.679900  0.671800  1.0
  H  H611  1  0.739600  0.273900  0.414800  1.0
  H  H612  1  0.260400  0.726100  0.585200  1.0
  H  H613  1  0.662800  0.279900  0.457100  1.0
  H  H614  1  0.337200  0.720100  0.542900  1.0
  H  H615  1  0.621100  0.270300  0.528300  1.0
  H  H616  1  0.378900  0.729700  0.471700  1.0
  H  H617  1  0.674800  0.126000  0.575800  1.0
  H  H618  1  0.325200  0.874000  0.424200  1.0
  H  H619  1  0.717200  0.135400  0.504000  1.0
  H  H620  1  0.282800  0.864600  0.496000  1.0
  H  H621  1  0.306800  0.131000  0.427100  1.0
  H  H622  1  0.693200  0.869000  0.572900  1.0
  H  H623  1  0.273800  0.126100  0.361100  1.0
  H  H624  1  0.726200  0.873900  0.638900  1.0
  H  H625  1  0.196000  0.171200  0.332100  1.0
  H  H626  1  0.804000  0.828800  0.667900  1.0
  H  H627  1  0.116400  0.237600  0.336700  1.0
  H  H628  1  0.883600  0.762400  0.663300  1.0
  H  H629  1  0.075400  0.287000  0.372500  1.0
  H  H630  1  0.924600  0.713000  0.627500  1.0
  H  H631  1  0.079900  0.322800  0.437700  1.0
  H  H632  1  0.920100  0.677200  0.562300  1.0
  H  H633  1  0.124900  0.322300  0.498600  1.0
  H  H634  1  0.875100  0.677700  0.501400  1.0
  H  H635  1  0.211100  0.281400  0.552600  1.0
  H  H636  1  0.788900  0.718600  0.447400  1.0
  H  H637  1  0.304000  0.293000  0.549100  1.0
  H  H638  1  0.696000  0.707000  0.450900  1.0
  H  H639  1  0.376500  0.282000  0.592300  1.0
  H  H640  1  0.623500  0.718000  0.407700  1.0
  H  H641  1  0.373300  0.138700  0.652500  1.0
  H  H642  1  0.626700  0.861300  0.347500  1.0
  H  H643  1  0.302300  0.148800  0.607600  1.0
  H  H644  1  0.697700  0.851200  0.392400  1.0
  H  H645  1  0.486200  0.109000  0.141400  1.0
  H  H646  1  0.513800  0.891000  0.858600  1.0
  H  H647  1  0.471300  0.112400  0.216800  1.0
  H  H648  1  0.528700  0.887600  0.783200  1.0
  H  H649  1  0.391700  0.142900  0.236400  1.0
  H  H650  1  0.608300  0.857100  0.763600  1.0
  H  H651  1  0.297700  0.183100  0.213400  1.0
  H  H652  1  0.702300  0.816900  0.786600  1.0
  H  H653  1  0.235000  0.212800  0.159600  1.0
  H  H654  1  0.765000  0.787200  0.840400  1.0
  H  H655  1  0.209700  0.229200  0.074200  1.0
  H  H656  1  0.790300  0.770800  0.925800  1.0
  H  H657  1  0.233100  0.220500  0.003700  1.0
  H  H658  1  0.766900  0.779500  0.996300  1.0
  H  H659  1  0.308100  0.191400  0.953100  1.0
  H  H660  1  0.691900  0.808600  0.046900  1.0
  H  H661  1  0.442400  0.091800  0.965100  1.0
  H  H662  1  0.557600  0.908200  0.034900  1.0
  H  H663  1  0.485700  0.094500  0.895200  1.0
  H  H664  1  0.514300  0.905500  0.104800  1.0
  H  H665  1  0.412300  0.231900  0.830300  1.0
  H  H666  1  0.587700  0.768100  0.169700  1.0
  H  H667  1  0.367900  0.228700  0.899100  1.0
  H  H668  1  0.632100  0.771300  0.100900  1.0
  H  H669  1  0.037300  0.055200  0.762900  1.0
  H  H670  1  0.962700  0.944800  0.237100  1.0
  H  H671  1  0.122800  0.063900  0.765700  1.0
  H  H672  1  0.877200  0.936100  0.234300  1.0
  H  H673  1  0.150400  0.094200  0.815300  1.0
  H  H674  1  0.849600  0.905800  0.184700  1.0
  H  H675  1  0.129800  0.127700  0.876400  1.0
  H  H676  1  0.870200  0.872300  0.123600  1.0
  H  H677  1  0.071500  0.153200  0.926900  1.0
  H  H678  1  0.928500  0.846800  0.073100  1.0
  H  H679  1  0.976300  0.155800  0.956000  1.0
  H  H680  1  0.023700  0.844200  0.044000  1.0
  H  H681  1  0.891100  0.149600  0.946500  1.0
  H  H682  1  0.108900  0.850400  0.053500  1.0
  H  H683  1  0.834100  0.139200  0.890100  1.0
  H  H684  1  0.165900  0.860800  0.109900  1.0
  H  H685  1  0.816000  0.050300  0.821400  1.0
  H  H686  1  0.184000  0.949700  0.178600  1.0
  H  H687  1  0.736700  0.067400  0.786600  1.0
  H  H688  1  0.263300  0.932600  0.213400  1.0
  H  H689  1  0.710300  0.200100  0.793700  1.0
  H  H690  1  0.289700  0.799900  0.206300  1.0
  H  H691  1  0.789300  0.182500  0.829700  1.0
  H  H692  1  0.210700  0.817500  0.170300  1.0
  H  H693  1  0.542900  0.215100  0.530400  1.0
  H  H694  1  0.457100  0.784900  0.469600  1.0
  H  H695  1  0.450700  0.221500  0.554100  1.0
  H  H696  1  0.549300  0.778500  0.445900  1.0
  H  H697  1  0.349700  0.192100  0.717000  1.0
  H  H698  1  0.650300  0.807900  0.283000  1.0
  H  H699  1  0.374400  0.174900  0.797800  1.0
  H  H700  1  0.625600  0.825100  0.202200  1.0
  H  H701  1  0.552600  0.153900  0.879700  1.0
  H  H702  1  0.447400  0.846100  0.120300  1.0
  H  H703  1  0.644800  0.140900  0.857400  1.0
  H  H704  1  0.355200  0.859100  0.142600  1.0
  H  H705  1  0.746300  0.150500  0.699500  1.0
  H  H706  1  0.253700  0.849500  0.300500  1.0
  H  H707  1  0.720700  0.174500  0.617700  1.0
  H  H708  1  0.279300  0.825500  0.382300  1.0
  H  H709  1  0.102500  0.453700  0.853700  1.0
  H  H710  1  0.897500  0.546300  0.146300  1.0
  H  H711  1  0.198800  0.382200  0.866700  1.0
  H  H712  1  0.801200  0.617800  0.133300  1.0
  H  H713  1  0.194500  0.468200  0.889800  1.0
  H  H714  1  0.805500  0.531800  0.110200  1.0
  H  H715  1  0.093300  0.488200  0.930800  1.0
  H  H716  1  0.906700  0.511800  0.069200  1.0
  H  H717  1  0.032800  0.415900  0.932900  1.0
  H  H718  1  0.967200  0.584100  0.067100  1.0
  H  H719  1  0.098400  0.351300  0.891400  1.0
  H  H720  1  0.901600  0.648700  0.108600  1.0
  H  H721  1  0.187000  0.299100  0.952600  1.0
  H  H722  1  0.813000  0.700900  0.047400  1.0
  H  H723  1  0.247500  0.372900  0.952500  1.0
  H  H724  1  0.752500  0.627100  0.047500  1.0
  H  H725  1  0.181300  0.436800  0.992600  1.0
  H  H726  1  0.818700  0.563200  0.007400  1.0
  H  H727  1  0.082100  0.404500  0.017800  1.0
  H  H728  1  0.917900  0.595500  0.982200  1.0
  H  H729  1  0.085600  0.322400  0.992400  1.0
  H  H730  1  0.914400  0.677600  0.007600  1.0
  H  H731  1  0.177700  0.333800  0.030100  1.0
  H  H732  1  0.822300  0.666200  0.969900  1.0
  H  H733  1  0.228600  0.067800  0.718500  1.0
  H  H734  1  0.771400  0.932200  0.281500  1.0
  H  H735  1  0.305500  0.122500  0.725300  1.0
  H  H736  1  0.694500  0.877500  0.274700  1.0
  H  H737  1  0.251500  0.066600  0.810500  1.0
  H  H738  1  0.748500  0.933400  0.189500  1.0
  H  H739  1  0.238700  0.977900  0.801800  1.0
  H  H740  1  0.761300  0.022100  0.198200  1.0
  H  H741  1  0.282600  0.977500  0.712000  1.0
  H  H742  1  0.717400  0.022500  0.288000  1.0
  H  H743  1  0.324700  0.067700  0.664500  1.0
  H  H744  1  0.675300  0.932300  0.335500  1.0
  H  H745  1  0.407900  0.067100  0.721700  1.0
  H  H746  1  0.592100  0.932900  0.278300  1.0
  H  H747  1  0.362800  0.066000  0.812500  1.0
  H  H748  1  0.637200  0.934000  0.187500  1.0
  H  H749  1  0.322000  0.975500  0.858800  1.0
  H  H750  1  0.678000  0.024500  0.141200  1.0
  H  H751  1  0.341300  0.921200  0.797800  1.0
  H  H752  1  0.658700  0.078800  0.202200  1.0
  H  H753  1  0.393100  0.976400  0.714100  1.0
  H  H754  1  0.606900  0.023600  0.285900  1.0
  H  H755  1  0.417600  0.976300  0.804600  1.0
  H  H756  1  0.582400  0.023700  0.195400  1.0
  H  H757  1  0.787600  0.000700  0.749600  1.0
  H  H758  1  0.212400  0.999300  0.250400  1.0
  H  H759  1  0.713600  0.932200  0.783000  1.0
  H  H760  1  0.286400  0.067800  0.217000  1.0
  H  H761  1  0.676100  0.037500  0.741200  1.0
  H  H762  1  0.323900  0.962500  0.258800  1.0
  H  H763  1  0.745400  0.078500  0.665300  1.0
  H  H764  1  0.254600  0.921500  0.334700  1.0
  H  H765  1  0.828100  0.002500  0.657500  1.0
  H  H766  1  0.171900  0.997500  0.342500  1.0
  H  H767  1  0.807700  0.910600  0.731700  1.0
  H  H768  1  0.192300  0.089400  0.268300  1.0
  H  H769  1  0.710400  0.891700  0.711400  1.0
  H  H770  1  0.289600  0.108300  0.288600  1.0
  H  H771  1  0.627400  0.969900  0.718500  1.0
  H  H772  1  0.372600  0.030100  0.281500  1.0
  H  H773  1  0.647500  0.061600  0.644700  1.0
  H  H774  1  0.352500  0.938400  0.355300  1.0
  H  H775  1  0.740500  0.040200  0.593100  1.0
  H  H776  1  0.259500  0.959800  0.406900  1.0
  H  H777  1  0.779400  0.937800  0.633800  1.0
  H  H778  1  0.220600  0.062200  0.366200  1.0
  H  H779  1  0.667200  0.972400  0.626400  1.0
  H  H780  1  0.332800  0.027600  0.373600  1.0
  H  H781  1  0.212100  0.898000  0.776800  1.0
  H  H782  1  0.787900  0.102000  0.223200  1.0
  H  H783  1  0.113800  0.880700  0.828700  1.0
  H  H784  1  0.886200  0.119300  0.171300  1.0
  H  H785  1  0.140100  0.979300  0.789000  1.0
  H  H786  1  0.859900  0.020700  0.211000  1.0
  H  H787  1  0.192100  0.992400  0.701200  1.0
  H  H788  1  0.807900  0.007600  0.298800  1.0
  H  H789  1  0.201600  0.903600  0.682500  1.0
  H  H790  1  0.798400  0.096400  0.317500  1.0
  H  H791  1  0.152000  0.833700  0.762600  1.0
  H  H792  1  0.848000  0.166300  0.237400  1.0
  H  H793  1  0.041400  0.874300  0.765200  1.0
  H  H794  1  0.958600  0.125700  0.234800  1.0
  H  H795  1  0.034400  0.964800  0.783000  1.0
  H  H796  1  0.965600  0.035200  0.217000  1.0
  H  H797  1  0.082700  0.033400  0.701500  1.0
  H  H798  1  0.917300  0.966600  0.298500  1.0
  H  H799  1  0.119800  0.985700  0.636800  1.0
  H  H800  1  0.880200  0.014300  0.363200  1.0
  H  H801  1  0.096900  0.888700  0.676000  1.0
  H  H802  1  0.903100  0.111300  0.324000  1.0
  H  H803  1  0.022700  0.969900  0.687800  1.0
  H  H804  1  0.977300  0.030100  0.312200  1.0
  H  H805  1  0.833200  0.694400  0.131900  1.0
  H  H806  1  0.166800  0.305600  0.868100  1.0
  H  H807  1  0.867000  0.682300  0.224300  1.0
  H  H808  1  0.133000  0.317700  0.775700  1.0
  H  H809  1  0.843800  0.782400  0.223900  1.0
  H  H810  1  0.156200  0.217600  0.776100  1.0
  H  H811  1  0.794800  0.846800  0.136900  1.0
  H  H812  1  0.205200  0.153200  0.863100  1.0
  H  H813  1  0.790100  0.789800  0.080800  1.0
  H  H814  1  0.209900  0.210200  0.919200  1.0
  H  H815  1  0.882500  0.767500  0.143100  1.0
  H  H816  1  0.117500  0.232500  0.856900  1.0
  H  H817  1  0.721900  0.718600  0.129900  1.0
  H  H818  1  0.278100  0.281400  0.870100  1.0
  H  H819  1  0.770000  0.653400  0.219800  1.0
  H  H820  1  0.230000  0.346600  0.780200  1.0
  H  H821  1  0.776900  0.709600  0.275400  1.0
  H  H822  1  0.223100  0.290400  0.724600  1.0
  H  H823  1  0.729900  0.810100  0.222200  1.0
  H  H824  1  0.270100  0.189900  0.777800  1.0
  H  H825  1  0.686300  0.732400  0.214800  1.0
  H  H826  1  0.313700  0.267600  0.785200  1.0
  H  H827  1  0.700800  0.817800  0.130400  1.0
  H  H828  1  0.299200  0.182200  0.869600  1.0
  H  H829  1  0.025400  0.732800  0.349100  1.0
  H  H830  1  0.974600  0.267200  0.650900  1.0
  H  H831  1  0.074500  0.804700  0.356200  1.0
  H  H832  1  0.925500  0.195300  0.643800  1.0
  H  H833  1  0.049100  0.725800  0.442400  1.0
  H  H834  1  0.950900  0.274200  0.557600  1.0
  H  H835  1  0.950100  0.703700  0.429200  1.0
  H  H836  1  0.049900  0.296300  0.570800  1.0
  H  H837  1  0.912400  0.774200  0.332600  1.0
  H  H838  1  0.087600  0.225800  0.667400  1.0
  H  H839  1  0.993700  0.836400  0.290800  1.0
  H  H840  1  0.006300  0.163600  0.709200  1.0
  H  H841  1  0.031500  0.827800  0.434300  1.0
  H  H842  1  0.968500  0.172200  0.565700  1.0
  H  H843  1  0.956800  0.763100  0.485100  1.0
  H  H844  1  0.043200  0.236900  0.514900  1.0
  H  H845  1  0.870200  0.793600  0.415100  1.0
  H  H846  1  0.129800  0.206400  0.584900  1.0
  H  H847  1  0.899400  0.873500  0.331700  1.0
  H  H848  1  0.100600  0.126500  0.668300  1.0
  H  H849  1  0.000900  0.889800  0.347500  1.0
  H  H850  1  0.999100  0.110200  0.652500  1.0
  H  H851  1  0.922400  0.867500  0.421200  1.0
  H  H852  1  0.077600  0.132500  0.578800  1.0
  H  H853  1  0.448100  0.078500  0.297500  1.0
  H  H854  1  0.551900  0.921500  0.702500  1.0
  H  H855  1  0.437400  0.181300  0.285400  1.0
  H  H856  1  0.562600  0.818700  0.714600  1.0
  H  H857  1  0.539100  0.120200  0.294900  1.0
  H  H858  1  0.460900  0.879800  0.705100  1.0
  H  H859  1  0.530800  0.023300  0.362000  1.0
  H  H860  1  0.469200  0.976700  0.638000  1.0
  H  H861  1  0.426900  0.027200  0.393200  1.0
  H  H862  1  0.573100  0.972800  0.606800  1.0
  H  H863  1  0.366000  0.122100  0.346300  1.0
  H  H864  1  0.634000  0.877900  0.653700  1.0
  H  H865  1  0.513800  0.189000  0.343500  1.0
  H  H866  1  0.486200  0.811000  0.656500  1.0
  H  H867  1  0.572600  0.093000  0.390900  1.0
  H  H868  1  0.427400  0.907000  0.609100  1.0
  H  H869  1  0.501000  0.031300  0.453200  1.0
  H  H870  1  0.499000  0.968700  0.546800  1.0
  H  H871  1  0.399100  0.088700  0.443500  1.0
  H  H872  1  0.600900  0.911300  0.556500  1.0
  H  H873  1  0.406800  0.189100  0.375100  1.0
  H  H874  1  0.593200  0.810900  0.624900  1.0
  H  H875  1  0.488900  0.133200  0.441700  1.0
  H  H876  1  0.511100  0.866800  0.558300  1.0
  H  H877  1  0.266600  0.301300  0.174600  1.0
  H  H878  1  0.733400  0.698700  0.825400  1.0
  H  H879  1  0.202000  0.306700  0.253500  1.0
  H  H880  1  0.798000  0.693300  0.746500  1.0
  H  H881  1  0.244800  0.392000  0.192500  1.0
  H  H882  1  0.755200  0.608000  0.807500  1.0
  H  H883  1  0.345200  0.361900  0.162300  1.0
  H  H884  1  0.654800  0.638100  0.837700  1.0
  H  H885  1  0.373200  0.255800  0.206200  1.0
  H  H886  1  0.626800  0.744200  0.793800  1.0
  H  H887  1  0.283700  0.219300  0.265700  1.0
  H  H888  1  0.716300  0.780700  0.734300  1.0
  H  H889  1  0.240000  0.363300  0.294700  1.0
  H  H890  1  0.760000  0.636700  0.705300  1.0
  H  H891  1  0.329400  0.400200  0.237800  1.0
  H  H892  1  0.670600  0.599800  0.762200  1.0
  H  H893  1  0.411000  0.317400  0.244900  1.0
  H  H894  1  0.589000  0.682600  0.755100  1.0
  H  H895  1  0.368500  0.233400  0.305500  1.0
  H  H896  1  0.631500  0.766600  0.694500  1.0
  H  H897  1  0.267900  0.257600  0.337700  1.0
  H  H898  1  0.732100  0.742400  0.662300  1.0
  H  H899  1  0.343600  0.319400  0.326600  1.0
  H  H900  1  0.656400  0.680600  0.673400  1.0
  H  H901  1  0.151100  0.139400  0.148200  1.0
  H  H902  1  0.848900  0.860600  0.851800  1.0
  H  H903  1  0.212400  0.133700  0.141800  1.0
  H  H904  1  0.787600  0.866300  0.858200  1.0
  H  H905  1  0.187400  0.103800  0.190800  1.0
  H  H906  1  0.812600  0.896200  0.809200  1.0
  H  H907  1  0.657900  0.072200  0.959000  1.0
  H  H908  1  0.342100  0.927800  0.041000  1.0
  H  H909  1  0.665400  0.043600  0.924400  1.0
  H  H910  1  0.334600  0.956400  0.075600  1.0
  H  H911  1  0.671200  0.014300  0.979500  1.0
  H  H912  1  0.328800  0.985700  0.020500  1.0
  H  H913  1  0.682900  0.546700  0.427000  1.0
  H  H914  1  0.317100  0.453300  0.573000  1.0
  H  H915  1  0.639500  0.521700  0.462400  1.0
  H  H916  1  0.360500  0.478300  0.537600  1.0
  H  H917  1  0.694800  0.518900  0.481500  1.0
  H  H918  1  0.305200  0.481100  0.518500  1.0
  H  H919  1  0.698700  0.710900  0.317900  1.0
  H  H920  1  0.301300  0.289100  0.682100  1.0
  H  H921  1  0.651400  0.685900  0.346000  1.0
  H  H922  1  0.348600  0.314100  0.654000  1.0
  H  H923  1  0.680500  0.669900  0.305500  1.0
  H  H924  1  0.319500  0.330100  0.694500  1.0
  H  H925  1  0.333200  0.571200  0.545400  1.0
  H  H926  1  0.666800  0.428800  0.454600  1.0
  H  H927  1  0.338900  0.545100  0.600800  1.0
  H  H928  1  0.661100  0.454900  0.399200  1.0
  H  H929  1  0.373700  0.584900  0.571500  1.0
  H  H930  1  0.626300  0.415100  0.428500  1.0
  H  H931  1  0.448700  0.326100  0.338300  1.0
  H  H932  1  0.551300  0.673900  0.661700  1.0
  H  H933  1  0.434900  0.274500  0.345900  1.0
  H  H934  1  0.565100  0.725500  0.654100  1.0
  H  H935  1  0.493300  0.283300  0.335900  1.0
  H  H936  1  0.506700  0.716700  0.664100  1.0
  H  H937  1  0.707800  0.149900  0.906400  0.247
  H  H938  1  0.292200  0.850100  0.093600  0.247
  H  H939  1  0.736300  0.130500  0.002700  0.247
  H  H940  1  0.263700  0.869500  0.997300  0.247
  H  H941  1  0.789700  0.195600  0.922700  0.247
  H  H942  1  0.210300  0.804400  0.077300  0.247
  H  H943  1  0.715300  0.250800  0.850800  0.247
  H  H944  1  0.284700  0.749200  0.149200  0.247
  H  H945  1  0.614400  0.222800  0.882600  0.247
  H  H946  1  0.385600  0.777200  0.117400  0.247
  H  H947  1  0.627500  0.147100  0.977500  0.247
  H  H948  1  0.372500  0.852900  0.022500  0.247
  H  H949  1  0.658000  0.190000  0.039300  0.247
  H  H950  1  0.342000  0.810000  0.960700  0.247
  H  H951  1  0.759400  0.220400  0.005100  0.247
  H  H952  1  0.240600  0.779600  0.994900  0.247
  H  H953  1  0.744100  0.295900  0.911000  0.247
  H  H954  1  0.255900  0.704100  0.089000  0.247
  H  H955  1  0.636900  0.311800  0.886800  0.247
  H  H956  1  0.363100  0.688200  0.113200  0.247
  H  H957  1  0.584400  0.247500  0.964100  0.247
  H  H958  1  0.415600  0.752500  0.035900  0.247
  H  H959  1  0.664900  0.292100  0.982900  0.247
  H  H960  1  0.335100  0.707900  0.017100  0.247
  H  H961  1  0.505300  0.086200  0.684300  0.36
  H  H962  1  0.494700  0.913800  0.315700  0.36
  H  H963  1  0.549000  0.039200  0.693900  0.36
  H  H964  1  0.451000  0.960800  0.306100  0.36
  H  H965  1  0.490800  0.036900  0.685700  0.36
  H  H966  1  0.509200  0.963100  0.314300  0.36
  H  H967  1  0.825200  0.096800  0.137400  0.435
  H  H968  1  0.174800  0.903200  0.862600  0.435
  H  H969  1  0.847200  0.159600  0.183300  0.435
  H  H970  1  0.152800  0.840400  0.816700  0.435
  H  H971  1  0.932500  0.109700  0.142200  0.435
  H  H972  1  0.067500  0.890300  0.857800  0.435
  H  H973  1  0.896600  0.108400  0.057600  0.435
  H  H974  1  0.103400  0.891600  0.942400  0.435
  H  H975  1  0.789200  0.156600  0.043500  0.435
  H  H976  1  0.210800  0.843400  0.956500  0.435
  H  H977  1  0.757400  0.188000  0.121600  0.435
  H  H978  1  0.242600  0.812000  0.878400  0.435
  H  H979  1  0.819800  0.260000  0.118000  0.435
  H  H980  1  0.180200  0.740000  0.882000  0.435
  H  H981  1  0.929400  0.211600  0.130400  0.435
  H  H982  1  0.070600  0.788400  0.869600  0.435
  H  H983  1  0.959500  0.180800  0.051000  0.435
  H  H984  1  0.040500  0.819200  0.949000  0.435
  H  H985  1  0.871700  0.208600  0.991100  0.435
  H  H986  1  0.128300  0.791400  0.008900  0.435
  H  H987  1  0.786700  0.256900  0.031200  0.435
  H  H988  1  0.213300  0.743100  0.968800  0.435
  H  H989  1  0.891800  0.272300  0.036500  0.435
  H  H990  1  0.108200  0.727700  0.963500  0.435
  H  H991  1  0.082800  0.327400  0.232700  0.439
  H  H992  1  0.917200  0.672600  0.767300  0.439
  H  H993  1  0.992500  0.281400  0.238600  0.439
  H  H994  1  0.007500  0.718600  0.761400  0.439
  H  H995  1  0.122100  0.355200  0.136100  0.439
  H  H996  1  0.877900  0.644800  0.863900  0.439
  H  H997  1  0.173700  0.268800  0.209900  0.439
  H  H998  1  0.826300  0.731200  0.790100  0.439
  H  H999  1  0.093100  0.222600  0.274000  0.439
  H  H1000  1  0.906900  0.777400  0.726000  0.439
  H  H1001  1  0.978000  0.280000  0.146900  0.439
  H  H1002  1  0.022000  0.720000  0.853100  0.439
  H  H1003  1  0.059300  0.323300  0.083300  0.439
  H  H1004  1  0.940700  0.676700  0.916700  0.439
  H  H1005  1  0.158900  0.266300  0.118300  0.439
  H  H1006  1  0.841100  0.733700  0.881700  0.439
  H  H1007  1  0.140900  0.186300  0.202400  0.439
  H  H1008  1  0.859100  0.813700  0.797600  0.439
  H  H1009  1  0.069300  0.219300  0.125300  0.439
  H  H1010  1  0.930700  0.780700  0.874700  0.439
  H  H1011  1  0.223500  0.531500  0.387000  0.5
  H  H1012  1  0.776500  0.468500  0.613000  0.5
  H  H1013  1  0.227100  0.533800  0.331100  0.5
  H  H1014  1  0.772900  0.466200  0.668900  0.5
  H  H1015  1  0.205600  0.593400  0.313800  0.5
  H  H1016  1  0.794400  0.406600  0.686200  0.5
  H  H1017  1  0.206600  0.591400  0.370600  0.5
  H  H1018  1  0.793400  0.408600  0.629400  0.5
  H  H1019  1  0.598300  0.492500  0.222300  0.5
  H  H1020  1  0.401700  0.507500  0.777700  0.5
  H  H1021  1  0.596600  0.547500  0.181600  0.5
  H  H1022  1  0.403400  0.452500  0.818400  0.5
  H  H1023  1  0.543300  0.541400  0.159000  0.5
  H  H1024  1  0.456700  0.458600  0.841000  0.5
  H  H1025  1  0.544500  0.486600  0.200600  0.5
  H  H1026  1  0.455500  0.513400  0.799400  0.5
  H  H1027  1  0.535700  0.187100  0.668600  0.5
  H  H1028  1  0.464300  0.812900  0.331400  0.5
  H  H1029  1  0.502900  0.180800  0.718900  0.5
  H  H1030  1  0.497100  0.819200  0.281100  0.5
  H  H1031  1  0.559600  0.163400  0.746200  0.5
  H  H1032  1  0.440400  0.836600  0.253800  0.5
  H  H1033  1  0.592300  0.167900  0.696500  0.5
  H  H1034  1  0.407700  0.832100  0.303500  0.5
  H  H1035  1  0.983000  0.785400  0.579000  0.5
  H  H1036  1  0.017000  0.214600  0.421000  0.5
  H  H1037  1  0.023100  0.751600  0.503500  0.5
  H  H1038  1  0.976900  0.248400  0.496500  0.5
  H  H1039  1  0.040500  0.847000  0.499400  0.5
  H  H1040  1  0.959500  0.153000  0.500600  0.5
  H  H1041  1  0.058200  0.837600  0.592700  0.5
  H  H1042  1  0.941800  0.162400  0.407300  0.5
  H  H1043  1  0.053200  0.737700  0.657400  0.5
  H  H1044  1  0.946800  0.262300  0.342600  0.5
  H  H1045  1  0.030900  0.684600  0.601100  0.5
  H  H1046  1  0.969100  0.315400  0.398900  0.5
  H  H1047  1  0.117100  0.681300  0.536000  0.5
  H  H1048  1  0.882900  0.318700  0.464000  0.5
  H  H1049  1  0.122700  0.782800  0.471900  0.5
  H  H1050  1  0.877300  0.217200  0.528100  0.5
  H  H1051  1  0.146800  0.833900  0.529100  0.5
  H  H1052  1  0.853200  0.166100  0.470900  0.5
  H  H1053  1  0.153900  0.767600  0.625900  0.5
  H  H1054  1  0.846100  0.232400  0.374100  0.5
  H  H1055  1  0.136400  0.675300  0.630500  0.5
  H  H1056  1  0.863600  0.324700  0.369500  0.5
  H  H1057  1  0.193400  0.733600  0.550200  0.5
  H  H1058  1  0.806600  0.266400  0.449800  0.5
  H  H1059  1  0.220800  0.289400  0.649100  0.5
  H  H1060  1  0.779200  0.710600  0.350900  0.5
  H  H1061  1  0.164400  0.290900  0.633100  0.5
  H  H1062  1  0.835600  0.709100  0.366900  0.5
  H  H1063  1  0.214100  0.277300  0.604400  0.5
  H  H1064  1  0.785900  0.722700  0.395600  0.5
  H  H1065  1  0.518800  0.206800  0.195100  0.5
  H  H1066  1  0.481200  0.793200  0.804900  0.5
  H  H1067  1  0.481100  0.256000  0.191800  0.5
  H  H1068  1  0.518900  0.744000  0.808200  0.5
  H  H1069  1  0.503200  0.218100  0.241300  0.5
  H  H1070  1  0.496800  0.781900  0.758700  0.5
  H  H1071  1  0.165100  0.874900  0.471600  0.5
  H  H1072  1  0.834900  0.125100  0.528400  0.5
  H  H1073  1  0.126000  0.921900  0.441400  0.5
  H  H1074  1  0.874000  0.078100  0.558600  0.5
  H  H1075  1  0.186900  0.920500  0.434000  0.5
  H  H1076  1  0.813100  0.079500  0.566000  0.5
  H  H1077  1  0.230900  0.768100  0.448800  0.5
  H  H1078  1  0.769100  0.231900  0.551200  0.5
  H  H1079  1  0.224400  0.753100  0.405800  0.5
  H  H1080  1  0.775600  0.246900  0.594200  0.5
  H  H1081  1  0.183300  0.742800  0.448100  0.5
  H  H1082  1  0.816700  0.257200  0.551900  0.5
  H  H1083  1  0.051300  0.624100  0.264600  0.5
  H  H1084  1  0.948700  0.375900  0.735400  0.5
  H  H1085  1  0.094000  0.640500  0.224400  0.5
  H  H1086  1  0.906000  0.359500  0.775600  0.5
  H  H1087  1  0.110300  0.616300  0.278000  0.5
  H  H1088  1  0.889700  0.383700  0.722000  0.5
  H  H1089  1  0.374100  0.426200  0.031600  0.5
  H  H1090  1  0.625900  0.573800  0.968400  0.5
  H  H1091  1  0.443000  0.453400  0.984000  0.5
  H  H1092  1  0.557000  0.546600  0.016000  0.5
  H  H1093  1  0.460700  0.401200  0.981000  0.5
  H  H1094  1  0.539300  0.598800  0.019000  0.5
  H  H1095  1  0.407000  0.433600  0.959400  0.5
  H  H1096  1  0.593000  0.566400  0.040600  0.5
  H  H1097  1  0.450900  0.420000  0.070200  0.5
  H  H1098  1  0.549100  0.580000  0.929800  0.5
  H  H1099  1  0.419700  0.377700  0.100900  0.5
  H  H1100  1  0.580300  0.622300  0.899100  0.5
  H  H1101  1  0.469700  0.366200  0.071500  0.5
  H  H1102  1  0.530300  0.633800  0.928500  0.5
  H  H1103  1  0.333900  0.360700  0.089200  0.5
  H  H1104  1  0.666100  0.639300  0.910800  0.5
  H  H1105  1  0.278400  0.319800  0.083600  0.5
  H  H1106  1  0.721600  0.680200  0.916400  0.5
  H  H1107  1  0.283000  0.358400  0.031500  0.5
  H  H1108  1  0.717000  0.641600  0.968500  0.5
  H  H1109  1  0.312500  0.303700  0.045200  0.5
  H  H1110  1  0.687500  0.696300  0.954800  0.5
  H  H1111  1  0.412100  0.290300  0.105400  0.5
  H  H1112  1  0.587900  0.709700  0.894600  0.5
  H  H1113  1  0.361100  0.266600  0.121800  0.5
  H  H1114  1  0.638900  0.733400  0.878200  0.5
  H  H1115  1  0.388100  0.270100  0.072600  0.5
  H  H1116  1  0.611900  0.729900  0.927400  0.5
  H  H1117  1  0.067400  0.331400  0.100600  0.561
  H  H1118  1  0.932600  0.668600  0.899400  0.561
  H  H1119  1  0.983400  0.324900  0.171400  0.561
  H  H1120  1  0.016600  0.675100  0.828600  0.561
  H  H1121  1  0.016900  0.245200  0.136900  0.561
  H  H1122  1  0.983100  0.754800  0.863100  0.561
  H  H1123  1  0.126800  0.234000  0.123100  0.561
  H  H1124  1  0.873200  0.766000  0.876900  0.561
  H  H1125  1  0.165700  0.306000  0.147500  0.561
  H  H1126  1  0.834300  0.694000  0.852500  0.561
  H  H1127  1  0.076600  0.362800  0.176900  0.561
  H  H1128  1  0.923400  0.637200  0.823100  0.561
  H  H1129  1  0.031500  0.296800  0.262200  0.561
  H  H1130  1  0.968500  0.703200  0.737800  0.561
  H  H1131  1  0.993100  0.224300  0.237100  0.561
  H  H1132  1  0.006900  0.775700  0.762900  0.561
  H  H1133  1  0.083100  0.167800  0.208300  0.561
  H  H1134  1  0.916900  0.832200  0.791700  0.561
  H  H1135  1  0.175200  0.205300  0.213500  0.561
  H  H1136  1  0.824800  0.794700  0.786500  0.561
  H  H1137  1  0.142400  0.283100  0.246500  0.561
  H  H1138  1  0.857600  0.716900  0.753500  0.561
  H  H1139  1  0.091900  0.197700  0.283900  0.561
  H  H1140  1  0.908100  0.802300  0.716100  0.561
  H  H1141  1  0.943600  0.298000  0.034100  0.565
  H  H1142  1  0.056400  0.702000  0.965900  0.565
  H  H1143  1  0.889000  0.370200  0.950200  0.565
  H  H1144  1  0.111000  0.629800  0.049800  0.565
  H  H1145  1  0.997300  0.324400  0.941600  0.565
  H  H1146  1  0.002700  0.675600  0.058400  0.565
  H  H1147  1  0.011100  0.225600  0.005600  0.565
  H  H1148  1  0.988900  0.774400  0.994400  0.565
  H  H1149  1  0.913700  0.203900  0.055700  0.565
  H  H1150  1  0.086300  0.796100  0.944300  0.565
  H  H1151  1  0.837300  0.294600  0.021500  0.565
  H  H1152  1  0.162700  0.705400  0.978500  0.565
  H  H1153  1  0.821800  0.320300  0.921300  0.565
  H  H1154  1  0.178200  0.679700  0.078700  0.565
  H  H1155  1  0.920700  0.339300  0.871900  0.565
  H  H1156  1  0.079300  0.660700  0.128100  0.565
  H  H1157  1  0.995300  0.247900  0.906400  0.565
  H  H1158  1  0.004700  0.752100  0.093600  0.565
  H  H1159  1  0.944100  0.174600  0.976700  0.565
  H  H1160  1  0.055900  0.825400  0.023300  0.565
  H  H1161  1  0.839200  0.218300  0.986400  0.565
  H  H1162  1  0.160800  0.781700  0.013600  0.565
  H  H1163  1  0.888500  0.246400  0.893100  0.565
  H  H1164  1  0.111500  0.753600  0.106900  0.565
  H  H1165  1  0.545200  0.032200  0.693600  0.64
  H  H1166  1  0.454800  0.967800  0.306400  0.64
  H  H1167  1  0.501500  0.078700  0.686700  0.64
  H  H1168  1  0.498500  0.921300  0.313300  0.64
  H  H1169  1  0.560600  0.084900  0.675600  0.64
  H  H1170  1  0.439400  0.915100  0.324400  0.64
  H  H1171  1  0.778500  0.169300  0.975800  0.753
  H  H1172  1  0.221500  0.830700  0.024200  0.753
  H  H1173  1  0.681100  0.132800  0.010400  0.753
  H  H1174  1  0.318900  0.867200  0.989600  0.753
  H  H1175  1  0.700900  0.218400  0.026000  0.753
  H  H1176  1  0.299100  0.781600  0.974000  0.753
  H  H1177  1  0.756600  0.273400  0.944900  0.753
  H  H1178  1  0.243400  0.726600  0.055100  0.753
  H  H1179  1  0.770000  0.227300  0.876000  0.753
  H  H1180  1  0.230000  0.772700  0.124000  0.753
  H  H1181  1  0.723100  0.138800  0.917800  0.753
  H  H1182  1  0.276900  0.861200  0.082200  0.753
  H  H1183  1  0.612300  0.168100  0.930600  0.753
  H  H1184  1  0.387700  0.831900  0.069400  0.753
  H  H1185  1  0.598100  0.217300  0.997600  0.753
  H  H1186  1  0.401900  0.782700  0.002400  0.753
  H  H1187  1  0.645900  0.305500  0.955800  0.753
  H  H1188  1  0.354100  0.694500  0.044200  0.753
  H  H1189  1  0.688100  0.310600  0.864400  0.753
  H  H1190  1  0.311900  0.689400  0.135600  0.753
  H  H1191  1  0.667700  0.227100  0.849200  0.753
  H  H1192  1  0.332300  0.772900  0.150800  0.753
  H  H1193  1  0.590700  0.275400  0.897700  0.753
  H  H1194  1  0.409300  0.724600  0.102300  0.753
  C  C1195  1  0.028100  0.393500  0.782400  1.0
  C  C1196  1  0.971900  0.606500  0.217600  1.0
  C  C1197  1  0.003600  0.376200  0.826600  1.0
  C  C1198  1  0.996400  0.623800  0.173400  1.0
  C  C1199  1  0.987700  0.407800  0.848700  1.0
  C  C1200  1  0.012300  0.592200  0.151300  1.0
  C  C1201  1  0.993900  0.456900  0.828200  1.0
  C  C1202  1  0.006100  0.543100  0.171800  1.0
  C  C1203  1  0.980600  0.492100  0.849000  1.0
  C  C1204  1  0.019400  0.507900  0.151000  1.0
  C  C1205  1  0.988900  0.537300  0.828300  1.0
  C  C1206  1  0.011100  0.462700  0.171700  1.0
  C  C1207  1  0.015100  0.552700  0.783700  1.0
  C  C1208  1  0.984900  0.447300  0.216300  1.0
  C  C1209  1  0.030700  0.598200  0.759700  1.0
  C  C1210  1  0.969300  0.401800  0.240300  1.0
  C  C1211  1  0.055100  0.609200  0.716300  1.0
  C  C1212  1  0.944900  0.390800  0.283700  1.0
  C  C1213  1  0.066500  0.571800  0.698300  1.0
  C  C1214  1  0.933500  0.428200  0.301700  1.0
  C  C1215  1  0.029500  0.518500  0.762800  1.0
  C  C1216  1  0.970500  0.481500  0.237200  1.0
  C  C1217  1  0.019200  0.470600  0.784500  1.0
  C  C1218  1  0.980800  0.529400  0.215500  1.0
  C  C1219  1  0.092900  0.575600  0.654300  1.0
  C  C1220  1  0.907100  0.424400  0.345700  1.0
  C  C1221  1  0.123600  0.541000  0.598800  1.0
  C  C1222  1  0.876400  0.459000  0.401200  1.0
  C  C1223  1  0.105300  0.517900  0.574200  1.0
  C  C1224  1  0.894700  0.482100  0.425800  1.0
  C  C1225  1  0.127400  0.521900  0.530600  1.0
  C  C1226  1  0.872600  0.478100  0.469400  1.0
  C  C1227  1  0.168300  0.546600  0.512800  1.0
  C  C1228  1  0.831700  0.453400  0.487200  1.0
  C  C1229  1  0.186600  0.567600  0.539100  1.0
  C  C1230  1  0.813400  0.432400  0.460900  1.0
  C  C1231  1  0.165400  0.564500  0.582100  1.0
  C  C1232  1  0.834600  0.435500  0.417900  1.0
  C  C1233  1  0.187000  0.119200  0.555400  1.0
  C  C1234  1  0.813000  0.880800  0.444600  1.0
  C  C1235  1  0.176700  0.072600  0.585700  1.0
  C  C1236  1  0.823300  0.927400  0.414300  1.0
  C  C1237  1  0.215200  0.035600  0.600100  1.0
  C  C1238  1  0.784800  0.964400  0.399900  1.0
  C  C1239  1  0.265800  0.041500  0.587800  1.0
  C  C1240  1  0.734200  0.958500  0.412200  1.0
  C  C1241  1  0.310300  0.005600  0.602700  1.0
  C  C1242  1  0.689700  0.994400  0.397300  1.0
  C  C1243  1  0.358100  0.014500  0.589300  1.0
  C  C1244  1  0.641900  0.985500  0.410700  1.0
  C  C1245  1  0.367900  0.062900  0.560200  1.0
  C  C1246  1  0.632100  0.937100  0.439800  1.0
  C  C1247  1  0.414700  0.078500  0.548700  1.0
  C  C1248  1  0.585300  0.921500  0.451300  1.0
  C  C1249  1  0.418700  0.125700  0.521100  1.0
  C  C1250  1  0.581300  0.874300  0.478900  1.0
  C  C1251  1  0.373400  0.158800  0.503800  1.0
  C  C1252  1  0.626600  0.841200  0.496200  1.0
  C  C1253  1  0.323900  0.098700  0.543500  1.0
  C  C1254  1  0.676100  0.901300  0.456500  1.0
  C  C1255  1  0.273400  0.089100  0.556900  1.0
  C  C1256  1  0.726600  0.910900  0.443100  1.0
  C  C1257  1  0.369300  0.210300  0.475600  1.0
  C  C1258  1  0.630700  0.789700  0.524400  1.0
  C  C1259  1  0.313800  0.285800  0.441100  1.0
  C  C1260  1  0.686200  0.714200  0.558900  1.0
  C  C1261  1  0.272000  0.306800  0.411200  1.0
  C  C1262  1  0.728000  0.693200  0.588800  1.0
  C  C1263  1  0.256900  0.356600  0.393600  1.0
  C  C1264  1  0.743100  0.643400  0.606400  1.0
  C  C1265  1  0.282900  0.386500  0.405000  1.0
  C  C1266  1  0.717100  0.613500  0.595000  1.0
  C  C1267  1  0.325300  0.365000  0.433500  1.0
  C  C1268  1  0.674700  0.635000  0.566500  1.0
  C  C1269  1  0.341100  0.315200  0.451200  1.0
  C  C1270  1  0.658900  0.684800  0.548800  1.0
  C  C1271  1  0.278100  0.479100  0.949700  1.0
  C  C1272  1  0.721900  0.520900  0.050300  1.0
  C  C1273  1  0.298200  0.469500  0.910500  1.0
  C  C1274  1  0.701800  0.530500  0.089500  1.0
  C  C1275  1  0.315600  0.504700  0.873400  1.0
  C  C1276  1  0.684400  0.495300  0.126600  1.0
  C  C1277  1  0.314900  0.550800  0.873700  1.0
  C  C1278  1  0.685100  0.449200  0.126300  1.0
  C  C1279  1  0.333000  0.590100  0.837700  1.0
  C  C1280  1  0.667000  0.409900  0.162300  1.0
  C  C1281  1  0.333000  0.633100  0.840000  1.0
  C  C1282  1  0.667000  0.366900  0.160000  1.0
  C  C1283  1  0.314800  0.640400  0.882800  1.0
  C  C1284  1  0.685200  0.359600  0.117200  1.0
  C  C1285  1  0.315600  0.682700  0.891200  1.0
  C  C1286  1  0.684400  0.317300  0.108800  1.0
  C  C1287  1  0.298600  0.684900  0.933200  1.0
  C  C1288  1  0.701400  0.315100  0.066800  1.0
  C  C1289  1  0.280500  0.644600  0.967900  1.0
  C  C1290  1  0.719500  0.355400  0.032100  1.0
  C  C1291  1  0.296800  0.601600  0.918500  1.0
  C  C1292  1  0.703200  0.398400  0.081500  1.0
  C  C1293  1  0.295900  0.556500  0.915700  1.0
  C  C1294  1  0.704100  0.443500  0.084300  1.0
  C  C1295  1  0.265700  0.639500  0.015500  1.0
  C  C1296  1  0.734300  0.360500  0.984500  1.0
  C  C1297  1  0.247200  0.591700  0.091400  1.0
  C  C1298  1  0.752800  0.408300  0.908600  1.0
  C  C1299  1  0.208200  0.568900  0.118600  1.0
  C  C1300  1  0.791800  0.431100  0.881400  1.0
  C  C1301  1  0.204200  0.561300  0.165500  1.0
  C  C1302  1  0.795800  0.438700  0.834500  1.0
  C  C1303  1  0.239800  0.576000  0.185700  1.0
  C  C1304  1  0.760200  0.424000  0.814300  1.0
  C  C1305  1  0.280200  0.596100  0.158400  1.0
  C  C1306  1  0.719800  0.403900  0.841600  1.0
  C  C1307  1  0.283800  0.604100  0.111900  1.0
  C  C1308  1  0.716200  0.395900  0.888100  1.0
  C  C1309  1  0.047600  0.008800  0.069100  1.0
  C  C1310  1  0.952400  0.991200  0.930900  1.0
  C  C1311  1  0.036500  0.057900  0.034600  1.0
  C  C1312  1  0.963500  0.942100  0.965400  1.0
  C  C1313  1  0.031900  0.094700  0.049700  1.0
  C  C1314  1  0.968100  0.905300  0.950300  1.0
  C  C1315  1  0.039700  0.087200  0.095700  1.0
  C  C1316  1  0.960300  0.912800  0.904300  1.0
  C  C1317  1  0.038800  0.124200  0.113700  1.0
  C  C1318  1  0.961200  0.875800  0.886300  1.0
  C  C1319  1  0.046700  0.115100  0.158300  1.0
  C  C1320  1  0.953300  0.884900  0.841700  1.0
  C  C1321  1  0.060700  0.065200  0.190100  1.0
  C  C1322  1  0.939300  0.934800  0.809900  1.0
  C  C1323  1  0.073400  0.050000  0.237200  1.0
  C  C1324  1  0.926600  0.950000  0.762800  1.0
  C  C1325  1  0.085000  0.001500  0.266500  1.0
  C  C1326  1  0.915000  0.998500  0.733500  1.0
  C  C1327  1  0.083800  0.967000  0.246200  1.0
  C  C1328  1  0.916200  0.033000  0.753800  1.0
  C  C1329  1  0.061500  0.028400  0.173700  1.0
  C  C1330  1  0.938500  0.971600  0.826300  1.0
  C  C1331  1  0.053000  0.037700  0.126400  1.0
  C  C1332  1  0.947000  0.962300  0.873600  1.0
  C  C1333  1  0.097500  0.915400  0.269400  1.0
  C  C1334  1  0.902500  0.084600  0.730600  1.0
  C  C1335  1  0.114800  0.838400  0.263200  1.0
  C  C1336  1  0.885200  0.161600  0.736800  1.0
  C  C1337  1  0.155900  0.818200  0.293700  1.0
  C  C1338  1  0.844100  0.181800  0.706300  1.0
  C  C1339  1  0.174700  0.769700  0.309300  1.0
  C  C1340  1  0.825300  0.230300  0.690700  1.0
  C  C1341  1  0.152800  0.738800  0.295300  1.0
  C  C1342  1  0.847200  0.261200  0.704700  1.0
  C  C1343  1  0.111000  0.759400  0.265100  1.0
  C  C1344  1  0.889000  0.240600  0.734900  1.0
  C  C1345  1  0.092800  0.808800  0.248600  1.0
  C  C1346  1  0.907200  0.191200  0.751400  1.0
  C  C1347  1  0.188000  0.552000  0.464700  1.0
  C  C1348  1  0.812000  0.448000  0.535300  1.0
  C  C1349  1  0.210000  0.509800  0.456800  1.0
  C  C1350  1  0.790000  0.490200  0.543200  1.0
  C  C1351  1  0.219900  0.461600  0.492900  1.0
  C  C1352  1  0.780100  0.538400  0.507100  1.0
  C  C1353  1  0.241400  0.430700  0.471900  1.0
  C  C1354  1  0.758600  0.569300  0.528100  1.0
  C  C1355  1  0.244700  0.459600  0.422800  1.0
  C  C1356  1  0.755300  0.540400  0.577200  1.0
  C  C1357  1  0.263000  0.439800  0.388600  1.0
  C  C1358  1  0.737000  0.560200  0.611400  1.0
  C  C1359  1  0.261100  0.465700  0.340000  1.0
  C  C1360  1  0.738900  0.534300  0.660000  1.0
  C  C1361  1  0.279900  0.446500  0.305100  1.0
  C  C1362  1  0.720100  0.553500  0.694900  1.0
  C  C1363  1  0.269700  0.482300  0.263100  1.0
  C  C1364  1  0.730300  0.517700  0.736900  1.0
  C  C1365  1  0.245700  0.525500  0.270300  1.0
  C  C1366  1  0.754300  0.474500  0.729700  1.0
  C  C1367  1  0.233100  0.571600  0.235600  1.0
  C  C1368  1  0.766900  0.428400  0.764400  1.0
  C  C1369  1  0.216100  0.614400  0.243700  1.0
  C  C1370  1  0.783900  0.385600  0.756300  1.0
  C  C1371  1  0.209700  0.662700  0.207400  1.0
  C  C1372  1  0.790300  0.337300  0.792600  1.0
  C  C1373  1  0.194300  0.694200  0.228700  1.0
  C  C1374  1  0.805700  0.305800  0.771300  1.0
  C  C1375  1  0.190000  0.665600  0.278100  1.0
  C  C1376  1  0.810000  0.334400  0.721900  1.0
  C  C1377  1  0.172800  0.685600  0.312000  1.0
  C  C1378  1  0.827200  0.314400  0.688000  1.0
  C  C1379  1  0.171200  0.659900  0.360200  1.0
  C  C1380  1  0.828800  0.340100  0.639800  1.0
  C  C1381  1  0.146100  0.678500  0.394400  1.0
  C  C1382  1  0.853900  0.321500  0.605600  1.0
  C  C1383  1  0.150700  0.642200  0.436400  1.0
  C  C1384  1  0.849300  0.357800  0.563600  1.0
  C  C1385  1  0.178000  0.599100  0.430800  1.0
  C  C1386  1  0.822000  0.400900  0.569200  1.0
  C  C1387  1  0.815100  0.112800  0.403400  1.0
  C  C1388  1  0.184900  0.887200  0.596600  1.0
  C  C1389  1  0.851800  0.071600  0.426100  1.0
  C  C1390  1  0.148200  0.928400  0.573900  1.0
  C  C1391  1  0.837500  0.030700  0.457700  1.0
  C  C1392  1  0.162500  0.969300  0.542300  1.0
  C  C1393  1  0.785400  0.030000  0.472700  1.0
  C  C1394  1  0.214600  0.970000  0.527300  1.0
  C  C1395  1  0.764600  0.992300  0.510100  1.0
  C  C1396  1  0.235400  0.007700  0.489900  1.0
  C  C1397  1  0.715000  0.992600  0.522200  1.0
  C  C1398  1  0.285000  0.007400  0.477800  1.0
  C  C1399  1  0.678100  0.036600  0.499100  1.0
  C  C1400  1  0.321900  0.963400  0.500900  1.0
  C  C1401  1  0.626900  0.046700  0.511400  1.0
  C  C1402  1  0.373100  0.953300  0.488600  1.0
  C  C1403  1  0.595600  0.091600  0.489100  1.0
  C  C1404  1  0.404400  0.908400  0.510900  1.0
  C  C1405  1  0.618200  0.126800  0.451700  1.0
  C  C1406  1  0.381800  0.873200  0.548300  1.0
  C  C1407  1  0.697300  0.074100  0.462700  1.0
  C  C1408  1  0.302700  0.925900  0.537300  1.0
  C  C1409  1  0.750600  0.072600  0.450500  1.0
  C  C1410  1  0.249400  0.927400  0.549500  1.0
  C  C1411  1  0.593400  0.175900  0.423500  1.0
  C  C1412  1  0.406600  0.824100  0.576500  1.0
  C  C1413  1  0.605400  0.250800  0.362000  1.0
  C  C1414  1  0.394600  0.749200  0.638000  1.0
  C  C1415  1  0.607900  0.262800  0.314200  1.0
  C  C1416  1  0.392100  0.737200  0.685800  1.0
  C  C1417  1  0.598400  0.310700  0.284700  1.0
  C  C1418  1  0.401600  0.689300  0.715300  1.0
  C  C1419  1  0.586800  0.347400  0.301900  1.0
  C  C1420  1  0.413200  0.652600  0.698100  1.0
  C  C1421  1  0.581500  0.334000  0.350100  1.0
  C  C1422  1  0.418500  0.666000  0.649900  1.0
  C  C1423  1  0.591900  0.286300  0.380300  1.0
  C  C1424  1  0.408100  0.713700  0.619700  1.0
  C  C1425  1  0.047900  0.460800  0.348800  1.0
  C  C1426  1  0.952100  0.539200  0.651200  1.0
  C  C1427  1  0.096700  0.455500  0.371000  1.0
  C  C1428  1  0.903300  0.544500  0.629000  1.0
  C  C1429  1  0.103400  0.492100  0.382300  1.0
  C  C1430  1  0.896600  0.507900  0.617700  1.0
  C  C1431  1  0.069200  0.534800  0.376700  1.0
  C  C1432  1  0.930800  0.465200  0.623300  1.0
  C  C1433  1  0.071800  0.574900  0.388100  1.0
  C  C1434  1  0.928200  0.425100  0.611900  1.0
  C  C1435  1  0.035500  0.612800  0.384500  1.0
  C  C1436  1  0.964500  0.387200  0.615500  1.0
  C  C1437  1  0.985800  0.616000  0.363800  1.0
  C  C1438  1  0.014200  0.384000  0.636200  1.0
  C  C1439  1  0.943400  0.650500  0.358800  1.0
  C  C1440  1  0.056600  0.349500  0.641200  1.0
  C  C1441  1  0.898200  0.648100  0.342700  1.0
  C  C1442  1  0.101800  0.351900  0.657300  1.0
  C  C1443  1  0.896500  0.609400  0.329400  1.0
  C  C1444  1  0.103500  0.390600  0.670600  1.0
  C  C1445  1  0.981900  0.577100  0.350400  1.0
  C  C1446  1  0.018100  0.422900  0.649600  1.0
  C  C1447  1  0.021500  0.536800  0.355100  1.0
  C  C1448  1  0.978500  0.463200  0.644900  1.0
  C  C1449  1  0.852200  0.599900  0.311600  1.0
  C  C1450  1  0.147800  0.400100  0.688400  1.0
  C  C1451  1  0.815200  0.552100  0.284900  1.0
  C  C1452  1  0.184800  0.447900  0.715100  1.0
  C  C1453  1  0.818600  0.544400  0.242900  1.0
  C  C1454  1  0.181400  0.455600  0.757100  1.0
  C  C1455  1  0.775200  0.535600  0.227600  1.0
  C  C1456  1  0.224800  0.464400  0.772400  1.0
  C  C1457  1  0.729500  0.533300  0.253600  1.0
  C  C1458  1  0.270500  0.466700  0.746400  1.0
  C  C1459  1  0.727700  0.538800  0.296000  1.0
  C  C1460  1  0.272300  0.461200  0.704000  1.0
  C  C1461  1  0.770700  0.548200  0.312000  1.0
  C  C1462  1  0.229300  0.451800  0.688000  1.0
  C  C1463  1  0.665900  0.945900  0.896200  1.0
  C  C1464  1  0.334100  0.054100  0.103800  1.0
  C  C1465  1  0.676100  0.988100  0.858700  1.0
  C  C1466  1  0.323900  0.011900  0.141300  1.0
  C  C1467  1  0.636200  0.021300  0.833600  1.0
  C  C1468  1  0.363800  0.978700  0.166400  1.0
  C  C1469  1  0.585100  0.015200  0.846600  1.0
  C  C1470  1  0.414900  0.984800  0.153400  1.0
  C  C1471  1  0.539500  0.047000  0.823400  1.0
  C  C1472  1  0.460500  0.953000  0.176600  1.0
  C  C1473  1  0.491200  0.039800  0.836800  1.0
  C  C1474  1  0.508800  0.960200  0.163200  1.0
  C  C1475  1  0.483300  0.996300  0.877200  1.0
  C  C1476  1  0.516700  0.003700  0.122800  1.0
  C  C1477  1  0.434700  0.984200  0.894300  1.0
  C  C1478  1  0.565300  0.015800  0.105700  1.0
  C  C1479  1  0.430600  0.939900  0.929900  1.0
  C  C1480  1  0.569400  0.060100  0.070100  1.0
  C  C1481  1  0.476500  0.908500  0.948500  1.0
  C  C1482  1  0.523500  0.091500  0.051500  1.0
  C  C1483  1  0.526600  0.964200  0.899200  1.0
  C  C1484  1  0.473400  0.035800  0.100800  1.0
  C  C1485  1  0.578500  0.971800  0.885400  1.0
  C  C1486  1  0.421500  0.028200  0.114600  1.0
  C  C1487  1  0.480500  0.858300  0.981700  1.0
  C  C1488  1  0.519500  0.141700  0.018300  1.0
  C  C1489  1  0.533000  0.783400  0.020700  1.0
  C  C1490  1  0.467000  0.216600  0.979300  1.0
  C  C1491  1  0.506700  0.770500  0.062700  1.0
  C  C1492  1  0.493300  0.229500  0.937300  1.0
  C  C1493  1  0.515700  0.722700  0.093800  1.0
  C  C1494  1  0.484300  0.277300  0.906200  1.0
  C  C1495  1  0.551000  0.688300  0.083300  1.0
  C  C1496  1  0.449000  0.311700  0.916700  1.0
  C  C1497  1  0.579000  0.702300  0.041700  1.0
  C  C1498  1  0.421000  0.297700  0.958300  1.0
  C  C1499  1  0.570400  0.750000  0.010900  1.0
  C  C1500  1  0.429600  0.250000  0.989100  1.0
  C  C1501  1  0.156800  0.633000  0.935100  1.0
  C  C1502  1  0.843200  0.367000  0.064900  1.0
  C  C1503  1  0.104300  0.650900  0.916300  1.0
  C  C1504  1  0.895700  0.349100  0.083700  1.0
  C  C1505  1  0.066800  0.625500  0.937700  1.0
  C  C1506  1  0.933200  0.374500  0.062300  1.0
  C  C1507  1  0.075900  0.580900  0.974300  1.0
  C  C1508  1  0.924100  0.419100  0.025700  1.0
  C  C1509  1  0.039400  0.551300  0.996400  1.0
  C  C1510  1  0.960600  0.448700  0.003600  1.0
  C  C1511  1  0.048800  0.508400  0.030600  1.0
  C  C1512  1  0.951200  0.491600  0.969400  1.0
  C  C1513  1  0.101900  0.490300  0.046000  1.0
  C  C1514  1  0.898100  0.509700  0.954000  1.0
  C  C1515  1  0.119800  0.445300  0.079800  1.0
  C  C1516  1  0.880200  0.554700  0.920200  1.0
  C  C1517  1  0.169400  0.430100  0.095900  1.0
  C  C1518  1  0.830600  0.569900  0.904100  1.0
  C  C1519  1  0.203400  0.464600  0.073700  1.0
  C  C1520  1  0.796600  0.535400  0.926300  1.0
  C  C1521  1  0.139600  0.519000  0.024900  1.0
  C  C1522  1  0.860400  0.481000  0.975100  1.0
  C  C1523  1  0.128500  0.565300  0.988800  1.0
  C  C1524  1  0.871500  0.434700  0.011200  1.0
  C  C1525  1  0.254500  0.458300  0.088600  1.0
  C  C1526  1  0.745500  0.541700  0.911400  1.0
  C  C1527  1  0.326600  0.493400  0.086600  1.0
  C  C1528  1  0.673400  0.506600  0.913400  1.0
  C  C1529  1  0.329300  0.479800  0.134500  1.0
  C  C1530  1  0.670700  0.520200  0.865500  1.0
  C  C1531  1  0.372500  0.483800  0.153500  1.0
  C  C1532  1  0.627500  0.516200  0.846500  1.0
  C  C1533  1  0.413900  0.500900  0.125700  1.0
  C  C1534  1  0.586100  0.499100  0.874300  1.0
  C  C1535  1  0.410500  0.514900  0.077200  1.0
  C  C1536  1  0.589500  0.485100  0.922800  1.0
  C  C1537  1  0.366500  0.512100  0.057700  1.0
  C  C1538  1  0.633500  0.487900  0.942300  1.0
  C  C1539  1  0.580400  0.399400  0.269400  1.0
  C  C1540  1  0.419600  0.600600  0.730600  1.0
  C  C1541  1  0.617300  0.425500  0.271600  1.0
  C  C1542  1  0.382700  0.574500  0.728400  1.0
  C  C1543  1  0.661200  0.406900  0.301900  1.0
  C  C1544  1  0.338800  0.593100  0.698100  1.0
  C  C1545  1  0.689600  0.441500  0.292100  1.0
  C  C1546  1  0.310400  0.558500  0.707900  1.0
  C  C1547  1  0.664200  0.483300  0.255400  1.0
  C  C1548  1  0.335800  0.516700  0.744600  1.0
  C  C1549  1  0.681600  0.528300  0.234800  1.0
  C  C1550  1  0.318400  0.471700  0.765200  1.0
  C  C1551  1  0.657600  0.568800  0.198400  1.0
  C  C1552  1  0.342400  0.431200  0.801600  1.0
  C  C1553  1  0.674600  0.615200  0.177900  1.0
  C  C1554  1  0.325400  0.384800  0.822100  1.0
  C  C1555  1  0.640500  0.644700  0.144800  1.0
  C  C1556  1  0.359500  0.355300  0.855200  1.0
  C  C1557  1  0.602000  0.617700  0.143400  1.0
  C  C1558  1  0.398000  0.382300  0.856600  1.0
  C  C1559  1  0.558000  0.636300  0.115800  1.0
  C  C1560  1  0.442000  0.363700  0.884200  1.0
  C  C1561  1  0.519500  0.610700  0.115500  1.0
  C  C1562  1  0.480500  0.389300  0.884500  1.0
  C  C1563  1  0.472800  0.631400  0.089100  1.0
  C  C1564  1  0.527200  0.368600  0.910900  1.0
  C  C1565  1  0.445700  0.595700  0.097400  1.0
  C  C1566  1  0.554300  0.404300  0.902600  1.0
  C  C1567  1  0.475200  0.551900  0.129000  1.0
  C  C1568  1  0.524800  0.448100  0.871000  1.0
  C  C1569  1  0.460500  0.505800  0.146400  1.0
  C  C1570  1  0.539500  0.494200  0.853600  1.0
  C  C1571  1  0.485400  0.464700  0.181400  1.0
  C  C1572  1  0.514600  0.535300  0.818600  1.0
  C  C1573  1  0.470600  0.417500  0.199800  1.0
  C  C1574  1  0.529400  0.582500  0.800200  1.0
  C  C1575  1  0.502900  0.388600  0.234400  1.0
  C  C1576  1  0.497100  0.611400  0.765600  1.0
  C  C1577  1  0.539500  0.416500  0.238000  1.0
  C  C1578  1  0.460500  0.583500  0.762000  1.0
  C  C1579  1  0.664100  0.125100  0.322100  1.0
  C  C1580  1  0.335900  0.874900  0.677900  1.0
  C  C1581  1  0.663200  0.123000  0.278200  1.0
  C  C1582  1  0.336800  0.877000  0.721800  1.0
  C  C1583  1  0.689300  0.151800  0.241700  1.0
  C  C1584  1  0.310700  0.848200  0.758300  1.0
  C  C1585  1  0.714500  0.186300  0.247600  1.0
  C  C1586  1  0.285500  0.813700  0.752400  1.0
  C  C1587  1  0.738500  0.222500  0.212000  1.0
  C  C1588  1  0.261500  0.777500  0.788000  1.0
  C  C1589  1  0.759000  0.256100  0.218600  1.0
  C  C1590  1  0.241000  0.743900  0.781400  1.0
  C  C1591  1  0.756200  0.258100  0.264800  1.0
  C  C1592  1  0.243800  0.741900  0.735200  1.0
  C  C1593  1  0.770300  0.295100  0.275800  1.0
  C  C1594  1  0.229700  0.704900  0.724200  1.0
  C  C1595  1  0.765100  0.295200  0.320800  1.0
  C  C1596  1  0.234900  0.704800  0.679200  1.0
  C  C1597  1  0.744800  0.255900  0.354900  1.0
  C  C1598  1  0.255200  0.744100  0.645100  1.0
  C  C1599  1  0.735800  0.221600  0.300700  1.0
  C  C1600  1  0.264200  0.778400  0.699300  1.0
  C  C1601  1  0.714400  0.185700  0.292900  1.0
  C  C1602  1  0.285600  0.814300  0.707100  1.0
  C  C1603  1  0.733800  0.250700  0.403100  1.0
  C  C1604  1  0.266200  0.749300  0.596900  1.0
  C  C1605  1  0.693000  0.208600  0.474100  1.0
  C  C1606  1  0.307000  0.791400  0.525900  1.0
  C  C1607  1  0.664900  0.248600  0.481200  1.0
  C  C1608  1  0.335100  0.751400  0.518800  1.0
  C  C1609  1  0.640000  0.242800  0.523100  1.0
  C  C1610  1  0.360000  0.757200  0.476900  1.0
  C  C1611  1  0.642100  0.196900  0.558400  1.0
  C  C1612  1  0.357900  0.803100  0.441600  1.0
  C  C1613  1  0.671800  0.157100  0.551400  1.0
  C  C1614  1  0.328200  0.842900  0.448600  1.0
  C  C1615  1  0.697200  0.162600  0.509100  1.0
  C  C1616  1  0.302800  0.837400  0.490900  1.0
  C  C1617  1  0.274300  0.149600  0.415300  1.0
  C  C1618  1  0.725700  0.850400  0.584700  1.0
  C  C1619  1  0.254800  0.146700  0.375500  1.0
  C  C1620  1  0.745200  0.853300  0.624500  1.0
  C  C1621  1  0.208900  0.173600  0.358500  1.0
  C  C1622  1  0.791100  0.826400  0.641500  1.0
  C  C1623  1  0.179300  0.205200  0.378500  1.0
  C  C1624  1  0.820700  0.794800  0.621500  1.0
  C  C1625  1  0.131900  0.237200  0.363300  1.0
  C  C1626  1  0.868100  0.762800  0.636700  1.0
  C  C1627  1  0.107400  0.267100  0.384200  1.0
  C  C1628  1  0.892600  0.732900  0.615800  1.0
  C  C1629  1  0.129800  0.269100  0.424600  1.0
  C  C1630  1  0.870200  0.730900  0.575400  1.0
  C  C1631  1  0.111200  0.300600  0.447500  1.0
  C  C1632  1  0.888800  0.699400  0.552500  1.0
  C  C1633  1  0.137200  0.300000  0.483900  1.0
  C  C1634  1  0.862800  0.700000  0.516100  1.0
  C  C1635  1  0.182800  0.265700  0.499100  1.0
  C  C1636  1  0.817200  0.734300  0.500900  1.0
  C  C1637  1  0.176500  0.236500  0.440800  1.0
  C  C1638  1  0.823500  0.763500  0.559200  1.0
  C  C1639  1  0.202000  0.205000  0.418900  1.0
  C  C1640  1  0.798000  0.795000  0.581100  1.0
  C  C1641  1  0.217300  0.260700  0.535700  1.0
  C  C1642  1  0.782700  0.739300  0.464300  1.0
  C  C1643  1  0.296700  0.221800  0.574000  1.0
  C  C1644  1  0.703300  0.778200  0.426000  1.0
  C  C1645  1  0.318500  0.261500  0.569700  1.0
  C  C1646  1  0.681500  0.738500  0.430300  1.0
  C  C1647  1  0.361600  0.254900  0.595500  1.0
  C  C1648  1  0.638400  0.745100  0.404500  1.0
  C  C1649  1  0.383000  0.209300  0.625900  1.0
  C  C1650  1  0.617000  0.790700  0.374100  1.0
  C  C1651  1  0.359800  0.170000  0.630800  1.0
  C  C1652  1  0.640200  0.830000  0.369200  1.0
  C  C1653  1  0.317200  0.175900  0.604600  1.0
  C  C1654  1  0.682800  0.824100  0.395400  1.0
  C  C1655  1  0.452900  0.122100  0.149600  1.0
  C  C1656  1  0.547100  0.877900  0.850400  1.0
  C  C1657  1  0.444200  0.123900  0.195000  1.0
  C  C1658  1  0.555800  0.876100  0.805000  1.0
  C  C1659  1  0.397400  0.142100  0.206000  1.0
  C  C1660  1  0.602600  0.857900  0.794000  1.0
  C  C1661  1  0.356400  0.160200  0.175400  1.0
  C  C1662  1  0.643600  0.839800  0.824600  1.0
  C  C1663  1  0.305600  0.181300  0.183600  1.0
  C  C1664  1  0.694400  0.818700  0.816400  1.0
  C  C1665  1  0.268200  0.198900  0.152000  1.0
  C  C1666  1  0.731800  0.801100  0.848000  1.0
  C  C1667  1  0.278600  0.196700  0.106000  1.0
  C  C1668  1  0.721400  0.803300  0.894000  1.0
  C  C1669  1  0.243600  0.213900  0.069800  1.0
  C  C1670  1  0.756400  0.786100  0.930200  1.0
  C  C1671  1  0.257300  0.209100  0.028100  1.0
  C  C1672  1  0.742700  0.790900  0.971900  1.0
  C  C1673  1  0.307600  0.187200  0.022100  1.0
  C  C1674  1  0.692400  0.812800  0.977900  1.0
  C  C1675  1  0.328900  0.175500  0.097200  1.0
  C  C1676  1  0.671100  0.824500  0.902800  1.0
  C  C1677  1  0.368700  0.157100  0.130700  1.0
  C  C1678  1  0.631300  0.842900  0.869300  1.0
  C  C1679  1  0.328200  0.180200  0.980300  1.0
  C  C1680  1  0.671800  0.819800  0.019700  1.0
  C  C1681  1  0.400100  0.159500  0.937800  1.0
  C  C1682  1  0.599900  0.840500  0.062200  1.0
  C  C1683  1  0.435800  0.119900  0.937400  1.0
  C  C1684  1  0.564200  0.880100  0.062600  1.0
  C  C1685  1  0.461800  0.121900  0.895900  1.0
  C  C1686  1  0.538200  0.878100  0.104100  1.0
  C  C1687  1  0.453400  0.163700  0.855200  1.0
  C  C1688  1  0.546600  0.836300  0.144800  1.0
  C  C1689  1  0.418200  0.203100  0.857400  1.0
  C  C1690  1  0.581800  0.796900  0.142600  1.0
  C  C1691  1  0.391800  0.201300  0.898200  1.0
  C  C1692  1  0.608200  0.798700  0.101800  1.0
  C  C1693  1  0.047400  0.066300  0.785000  1.0
  C  C1694  1  0.952600  0.933700  0.215000  1.0
  C  C1695  1  0.098300  0.072700  0.786500  1.0
  C  C1696  1  0.901700  0.927300  0.213500  1.0
  C  C1697  1  0.115300  0.090800  0.815800  1.0
  C  C1698  1  0.884700  0.909200  0.184200  1.0
  C  C1699  1  0.079000  0.104300  0.846800  1.0
  C  C1700  1  0.921000  0.895700  0.153200  1.0
  C  C1701  1  0.094600  0.124600  0.877000  1.0
  C  C1702  1  0.905400  0.875400  0.123000  1.0
  C  C1703  1  0.061400  0.139900  0.906600  1.0
  C  C1704  1  0.938600  0.860100  0.093400  1.0
  C  C1705  1  0.009200  0.133700  0.903700  1.0
  C  C1706  1  0.990800  0.866300  0.096300  1.0
  C  C1707  1  0.968800  0.145000  0.932700  1.0
  C  C1708  1  0.031200  0.855000  0.067300  1.0
  C  C1709  1  0.919000  0.140700  0.928300  1.0
  C  C1710  1  0.081000  0.859300  0.071700  1.0
  C  C1711  1  0.912800  0.121600  0.893900  1.0
  C  C1712  1  0.087200  0.878400  0.106100  1.0
  C  C1713  1  0.995200  0.113100  0.874800  1.0
  C  C1714  1  0.004800  0.886900  0.125200  1.0
  C  C1715  1  0.029200  0.097500  0.843200  1.0
  C  C1716  1  0.970800  0.902500  0.156800  1.0
  C  C1717  1  0.863900  0.124000  0.878600  1.0
  C  C1718  1  0.136100  0.876000  0.121400  1.0
  C  C1719  1  0.809600  0.114400  0.829500  1.0
  C  C1720  1  0.190400  0.885600  0.170500  1.0
  C  C1721  1  0.794100  0.080600  0.816300  1.0
  C  C1722  1  0.205900  0.919400  0.183700  1.0
  C  C1723  1  0.747000  0.090800  0.795700  1.0
  C  C1724  1  0.253000  0.909200  0.204300  1.0
  C  C1725  1  0.714100  0.135000  0.788100  1.0
  C  C1726  1  0.285900  0.865000  0.211900  1.0
  C  C1727  1  0.731300  0.169300  0.800000  1.0
  C  C1728  1  0.268700  0.830700  0.200000  1.0
  C  C1729  1  0.778400  0.159000  0.821100  1.0
  C  C1730  1  0.221600  0.841000  0.178900  1.0
  C  C1731  1  0.612800  0.190700  0.603100  1.0
  C  C1732  1  0.387200  0.809300  0.396900  1.0
  C  C1733  1  0.559100  0.198400  0.602200  1.0
  C  C1734  1  0.440900  0.801600  0.397800  1.0
  C  C1735  1  0.529400  0.210400  0.560900  1.0
  C  C1736  1  0.470600  0.789600  0.439100  1.0
  C  C1737  1  0.479300  0.213800  0.573700  1.0
  C  C1738  1  0.520700  0.786200  0.426300  1.0
  C  C1739  1  0.477900  0.203200  0.623300  1.0
  C  C1740  1  0.522100  0.796800  0.376700  1.0
  C  C1741  1  0.432000  0.201000  0.650800  1.0
  C  C1742  1  0.568000  0.799000  0.349200  1.0
  C  C1743  1  0.429300  0.190800  0.699000  1.0
  C  C1744  1  0.570700  0.809200  0.301000  1.0
  C  C1745  1  0.383600  0.188100  0.727300  1.0
  C  C1746  1  0.616400  0.811900  0.272700  1.0
  C  C1747  1  0.397200  0.178600  0.771700  1.0
  C  C1748  1  0.602800  0.821400  0.228300  1.0
  C  C1749  1  0.452100  0.175300  0.772000  1.0
  C  C1750  1  0.547900  0.824700  0.228000  1.0
  C  C1751  1  0.482300  0.166200  0.811000  1.0
  C  C1752  1  0.517700  0.833800  0.189000  1.0
  C  C1753  1  0.536400  0.160600  0.810600  1.0
  C  C1754  1  0.463600  0.839400  0.189400  1.0
  C  C1755  1  0.566100  0.153700  0.850300  1.0
  C  C1756  1  0.433900  0.846300  0.149700  1.0
  C  C1757  1  0.616100  0.147200  0.838200  1.0
  C  C1758  1  0.383900  0.852800  0.161800  1.0
  C  C1759  1  0.617800  0.151700  0.789900  1.0
  C  C1760  1  0.382200  0.848300  0.210100  1.0
  C  C1761  1  0.663400  0.147200  0.764500  1.0
  C  C1762  1  0.336600  0.852800  0.235500  1.0
  C  C1763  1  0.666000  0.155900  0.716500  1.0
  C  C1764  1  0.334000  0.844100  0.283500  1.0
  C  C1765  1  0.712100  0.157300  0.688700  1.0
  C  C1766  1  0.287900  0.842700  0.311300  1.0
  C  C1767  1  0.698000  0.170300  0.644000  1.0
  C  C1768  1  0.302000  0.829700  0.356000  1.0
  C  C1769  1  0.642500  0.176500  0.643000  1.0
  C  C1770  1  0.357500  0.823500  0.357000  1.0
  C  C1771  1  0.518000  0.691400  0.326600  1.0
  C  C1772  1  0.482000  0.308600  0.673400  1.0
  C  C1773  1  0.441500  0.728700  0.277700  1.0
  C  C1774  1  0.558500  0.271300  0.722300  1.0
  C  C1775  1  0.434400  0.705300  0.363000  1.0
  C  C1776  1  0.565600  0.294700  0.637000  1.0
  C  C1777  1  0.468100  0.712000  0.243300  1.0
  C  C1778  1  0.531900  0.288000  0.756700  1.0
  C  C1779  1  0.367100  0.659100  0.402800  1.0
  C  C1780  1  0.632900  0.340900  0.597200  1.0
  C  C1781  1  0.349200  0.529100  0.372500  1.0
  C  C1782  1  0.650800  0.470900  0.627500  1.0
  C  C1783  1  0.563500  0.560700  0.287900  1.0
  C  C1784  1  0.436500  0.439300  0.712100  1.0
  C  C1785  1  0.383700  0.700300  0.365000  1.0
  C  C1786  1  0.616300  0.299700  0.635000  1.0
  C  C1787  1  0.459800  0.507600  0.444300  1.0
  C  C1788  1  0.540200  0.492400  0.555700  1.0
  C  C1789  1  0.451000  0.475600  0.388400  1.0
  C  C1790  1  0.549000  0.524400  0.611600  1.0
  C  C1791  1  0.531600  0.494200  0.345900  1.0
  C  C1792  1  0.468400  0.505800  0.654100  1.0
  C  C1793  1  0.360800  0.562300  0.428500  1.0
  C  C1794  1  0.639200  0.437700  0.571500  1.0
  C  C1795  1  0.493400  0.629000  0.218200  1.0
  C  C1796  1  0.506600  0.371000  0.781800  1.0
  C  C1797  1  0.434300  0.573800  0.235200  1.0
  C  C1798  1  0.565700  0.426200  0.764800  1.0
  C  C1799  1  0.572400  0.545800  0.370400  1.0
  C  C1800  1  0.427600  0.454200  0.629600  1.0
  C  C1801  1  0.443200  0.658400  0.210400  1.0
  C  C1802  1  0.556800  0.341600  0.789600  1.0
  C  C1803  1  0.519700  0.662800  0.375100  1.0
  C  C1804  1  0.480300  0.337200  0.624900  1.0
  C  C1805  1  0.374200  0.518600  0.415800  1.0
  C  C1806  1  0.625800  0.481400  0.584200  1.0
  C  C1807  1  0.370700  0.541900  0.292700  1.0
  C  C1808  1  0.629300  0.458100  0.707300  1.0
  C  C1809  1  0.510700  0.499000  0.420800  1.0
  C  C1810  1  0.489300  0.501000  0.579200  1.0
  C  C1811  1  0.430900  0.696100  0.221700  1.0
  C  C1812  1  0.569100  0.303900  0.778300  1.0
  C  C1813  1  0.565200  0.607400  0.273600  1.0
  C  C1814  1  0.434800  0.392600  0.726400  1.0
  C  C1815  1  0.424100  0.493500  0.423900  1.0
  C  C1816  1  0.575900  0.506500  0.576100  1.0
  C  C1817  1  0.327100  0.643600  0.379800  1.0
  C  C1818  1  0.672900  0.356400  0.620200  1.0
  C  C1819  1  0.363400  0.628000  0.239900  1.0
  C  C1820  1  0.636600  0.372000  0.760100  1.0
  C  C1821  1  0.517000  0.685200  0.250800  1.0
  C  C1822  1  0.483000  0.314800  0.749200  1.0
  C  C1823  1  0.462400  0.720500  0.316100  1.0
  C  C1824  1  0.537600  0.279500  0.683900  1.0
  C  C1825  1  0.323700  0.676200  0.330800  1.0
  C  C1826  1  0.676300  0.323800  0.669200  1.0
  C  C1827  1  0.573200  0.626200  0.309200  1.0
  C  C1828  1  0.426800  0.373800  0.690800  1.0
  C  C1829  1  0.326000  0.596400  0.394500  1.0
  C  C1830  1  0.674000  0.403600  0.605500  1.0
  C  C1831  1  0.530700  0.642600  0.237700  1.0
  C  C1832  1  0.469300  0.357400  0.762300  1.0
  C  C1833  1  0.398900  0.626300  0.434000  1.0
  C  C1834  1  0.601100  0.373700  0.566000  1.0
  C  C1835  1  0.506800  0.503900  0.302700  1.0
  C  C1836  1  0.493200  0.496100  0.697300  1.0
  C  C1837  1  0.420300  0.534200  0.270200  1.0
  C  C1838  1  0.579700  0.465800  0.729800  1.0
  C  C1839  1  0.407600  0.620100  0.220800  1.0
  C  C1840  1  0.592400  0.379900  0.779200  1.0
  C  C1841  1  0.527700  0.577000  0.426400  1.0
  C  C1842  1  0.472300  0.423000  0.573600  1.0
  C  C1843  1  0.315300  0.607800  0.310800  1.0
  C  C1844  1  0.684700  0.392200  0.689200  1.0
  C  C1845  1  0.543200  0.530200  0.413800  1.0
  C  C1846  1  0.456800  0.469800  0.586200  1.0
  C  C1847  1  0.380300  0.706200  0.244800  1.0
  C  C1848  1  0.619700  0.293800  0.755200  1.0
  C  C1849  1  0.455200  0.631300  0.432200  1.0
  C  C1850  1  0.544800  0.368700  0.567800  1.0
  C  C1851  1  0.483100  0.584100  0.446100  1.0
  C  C1852  1  0.516900  0.415900  0.553900  1.0
  C  C1853  1  0.576000  0.596600  0.355700  1.0
  C  C1854  1  0.424000  0.403400  0.644300  1.0
  C  C1855  1  0.490700  0.579000  0.233100  1.0
  C  C1856  1  0.509300  0.421000  0.766900  1.0
  C  C1857  1  0.505500  0.479900  0.387800  1.0
  C  C1858  1  0.494500  0.520100  0.612200  1.0
  C  C1859  1  0.447700  0.545800  0.456400  1.0
  C  C1860  1  0.552300  0.454200  0.543600  1.0
  C  C1861  1  0.374100  0.511800  0.340700  1.0
  C  C1862  1  0.625900  0.488200  0.659300  1.0
  C  C1863  1  0.396800  0.574800  0.449200  1.0
  C  C1864  1  0.603200  0.425200  0.550800  1.0
  C  C1865  1  0.358800  0.711100  0.321700  1.0
  C  C1866  1  0.641200  0.288900  0.678300  1.0
  C  C1867  1  0.543500  0.674300  0.295600  1.0
  C  C1868  1  0.456500  0.325700  0.704400  1.0
  C  C1869  1  0.455000  0.499100  0.304400  1.0
  C  C1870  1  0.545000  0.500900  0.695600  1.0
  C  C1871  1  0.429100  0.483600  0.350700  1.0
  C  C1872  1  0.570900  0.516400  0.649300  1.0
  C  C1873  1  0.348000  0.675900  0.252700  1.0
  C  C1874  1  0.652000  0.324100  0.747300  1.0
  C  C1875  1  0.522400  0.545900  0.264700  1.0
  C  C1876  1  0.477600  0.454100  0.735300  1.0
  C  C1877  1  0.548600  0.615400  0.390400  1.0
  C  C1878  1  0.451400  0.384600  0.609600  1.0
  C  C1879  1  0.386200  0.725200  0.278700  1.0
  C  C1880  1  0.613800  0.274800  0.721300  1.0
  C  C1881  1  0.470100  0.670500  0.397400  1.0
  C  C1882  1  0.529900  0.329500  0.602600  1.0
  C  C1883  1  0.319000  0.577000  0.357400  1.0
  C  C1884  1  0.681000  0.423000  0.642600  1.0
  C  C1885  1  0.566600  0.529000  0.336000  1.0
  C  C1886  1  0.433400  0.471000  0.664000  1.0
  C  C1887  1  0.319200  0.659800  0.295100  1.0
  C  C1888  1  0.680800  0.340200  0.704900  1.0
  C  C1889  1  0.342100  0.589800  0.276600  1.0
  C  C1890  1  0.657900  0.410200  0.723400  1.0
  C  C1891  1  0.184100  0.077300  0.141400  1.0
  C  C1892  1  0.815900  0.922700  0.858600  1.0
  C  C1893  1  0.183700  0.116800  0.156800  1.0
  C  C1894  1  0.816300  0.883200  0.843200  1.0
  C  C1895  1  0.477400  0.650500  0.532400  1.0
  C  C1896  1  0.522600  0.349500  0.467600  1.0
  C  C1897  1  0.529400  0.651200  0.514700  1.0
  C  C1898  1  0.470600  0.348800  0.485300  1.0
  C  C1899  1  0.597600  0.040500  0.959500  1.0
  C  C1900  1  0.402400  0.959500  0.040500  1.0
  C  C1901  1  0.652500  0.042900  0.955300  1.0
  C  C1902  1  0.347500  0.957100  0.044700  1.0
  C  C1903  1  0.650100  0.582600  0.466100  1.0
  C  C1904  1  0.349900  0.417400  0.533900  1.0
  C  C1905  1  0.668200  0.539100  0.458700  1.0
  C  C1906  1  0.331800  0.460900  0.541300  1.0
  C  C1907  1  0.719800  0.644300  0.364200  1.0
  C  C1908  1  0.280200  0.355700  0.635800  1.0
  C  C1909  1  0.684900  0.680600  0.330800  1.0
  C  C1910  1  0.315100  0.319400  0.669200  1.0
  C  C1911  1  0.528100  0.072200  0.626500  1.0
  C  C1912  1  0.471900  0.927800  0.373500  1.0
  C  C1913  1  0.299100  0.614400  0.580200  1.0
  C  C1914  1  0.700900  0.385600  0.419800  1.0
  C  C1915  1  0.339700  0.575500  0.573900  1.0
  C  C1916  1  0.660300  0.424500  0.426100  1.0
  C  C1917  1  0.468700  0.274800  0.401500  1.0
  C  C1918  1  0.531300  0.725200  0.598500  1.0
  C  C1919  1  0.460800  0.291000  0.351200  1.0
  C  C1920  1  0.539200  0.709000  0.648800  1.0
  C  C1921  1  0.517000  0.057000  0.676700  0.36
  C  C1922  1  0.483000  0.943000  0.323300  0.36
  C  C1923  1  0.203500  0.210900  0.672500  0.5
  C  C1924  1  0.796500  0.789100  0.327500  0.5
  C  C1925  1  0.200300  0.274400  0.635500  0.5
  C  C1926  1  0.799700  0.725600  0.364500  0.5
  C  C1927  1  0.554900  0.256400  0.200600  0.5
  C  C1928  1  0.445100  0.743600  0.799400  0.5
  C  C1929  1  0.511000  0.232400  0.207800  0.5
  C  C1930  1  0.489000  0.767600  0.792200  0.5
  C  C1931  1  0.159200  0.880800  0.404900  0.5
  C  C1932  1  0.840800  0.119200  0.595100  0.5
  C  C1933  1  0.159300  0.901200  0.441000  0.5
  C  C1934  1  0.840700  0.098800  0.559000  0.5
  C  C1935  1  0.249700  0.697800  0.463100  0.5
  C  C1936  1  0.750300  0.302200  0.536900  0.5
  C  C1937  1  0.219700  0.744000  0.439600  0.5
  C  C1938  1  0.780300  0.256000  0.560400  0.5
  C  C1939  1  0.087200  0.616300  0.255100  0.5
  C  C1940  1  0.912800  0.383700  0.744900  0.5
  C  C1941  1  0.095800  0.569500  0.252500  0.5
  C  C1942  1  0.904200  0.430500  0.747500  0.5
  C  C1943  1  0.405200  0.402400  0.029500  0.5
  C  C1944  1  0.594800  0.597600  0.970500  0.5
  C  C1945  1  0.431100  0.424500  0.984800  0.5
  C  C1946  1  0.568900  0.575500  0.015200  0.5
  C  C1947  1  0.439600  0.390500  0.072000  0.5
  C  C1948  1  0.560400  0.609500  0.928000  0.5
  C  C1949  1  0.342700  0.342200  0.068200  0.5
  C  C1950  1  0.657300  0.657800  0.931800  0.5
  C  C1951  1  0.301400  0.330200  0.056300  0.5
  C  C1952  1  0.698600  0.669800  0.943700  0.5
  C  C1953  1  0.380000  0.286300  0.094900  0.5
  C  C1954  1  0.620000  0.713700  0.905100  0.5
  C  C1955  1  0.534400  0.066500  0.674500  0.64
  C  C1956  1  0.465600  0.933500  0.325500  0.64
  N  N1957  1  0.035600  0.439800  0.761100  1.0
  N  N1958  1  0.964400  0.560200  0.238900  1.0
  N  N1959  1  0.053900  0.528100  0.720700  1.0
  N  N1960  1  0.946100  0.471900  0.279300  1.0
  N  N1961  1  0.097300  0.538900  0.642000  1.0
  N  N1962  1  0.902700  0.461100  0.358000  1.0
  N  N1963  1  0.234300  0.127400  0.540400  1.0
  N  N1964  1  0.765700  0.872600  0.459600  1.0
  N  N1965  1  0.327000  0.144970  0.515160  1.0
  N  N1966  1  0.673000  0.855030  0.484840  1.0
  N  N1967  1  0.322900  0.234440  0.463340  1.0
  N  N1968  1  0.677100  0.765560  0.536660  1.0
  N  N1969  1  0.276600  0.522500  0.952300  1.0
  N  N1970  1  0.723400  0.477500  0.047700  1.0
  N  N1971  1  0.279100  0.604400  0.960450  1.0
  N  N1972  1  0.720900  0.395600  0.039550  1.0
  N  N1973  1  0.250800  0.599900  0.042480  1.0
  N  N1974  1  0.749200  0.400100  0.957520  1.0
  N  N1975  1  0.054500  0.000000  0.113100  1.0
  N  N1976  1  0.945500  0.000000  0.886900  1.0
  N  N1977  1  0.074300  0.981000  0.200700  1.0
  N  N1978  1  0.925700  0.019000  0.799300  1.0
  N  N1979  1  0.095100  0.889100  0.245200  1.0
  N  N1980  1  0.904900  0.110900  0.754800  1.0
  N  N1981  1  0.225500  0.507300  0.414330  1.0
  N  N1982  1  0.774500  0.492700  0.585670  1.0
  N  N1983  1  0.241000  0.513750  0.317400  1.0
  N  N1984  1  0.759000  0.486250  0.682600  1.0
  N  N1985  1  0.204300  0.617530  0.286480  1.0
  N  N1986  1  0.795700  0.382470  0.713520  1.0
  N  N1987  1  0.189900  0.611300  0.383490  1.0
  N  N1988  1  0.810100  0.388700  0.616510  1.0
  N  N1989  1  0.764500  0.113700  0.414900  1.0
  N  N1990  1  0.235500  0.886300  0.585100  1.0
  N  N1991  1  0.667500  0.117400  0.439200  1.0
  N  N1992  1  0.332500  0.882600  0.560800  1.0
  N  N1993  1  0.623100  0.200800  0.391130  1.0
  N  N1994  1  0.376900  0.799200  0.608870  1.0
  N  N1995  1  0.012200  0.501200  0.342700  1.0
  N  N1996  1  0.987800  0.498800  0.657300  1.0
  N  N1997  1  0.937200  0.575000  0.333200  1.0
  N  N1998  1  0.062800  0.425000  0.666800  1.0
  N  N1999  1  0.859400  0.563300  0.299080  1.0
  N  N2000  1  0.140600  0.436700  0.700920  1.0
  N  N2001  1  0.617300  0.937900  0.908500  1.0
  N  N2002  1  0.382700  0.062100  0.091500  1.0
  N  N2003  1  0.522500  0.920820  0.934290  1.0
  N  N2004  1  0.477500  0.079180  0.065710  1.0
  N  N2005  1  0.526100  0.832230  0.987360  1.0
  N  N2006  1  0.473900  0.167770  0.012640  1.0
  N  N2007  1  0.166900  0.590700  0.970200  1.0
  N  N2008  1  0.833100  0.409300  0.029800  1.0
  N  N2009  1  0.188600  0.506600  0.038600  1.0
  N  N2010  1  0.811400  0.493400  0.961400  1.0
  N  N2011  1  0.280800  0.492900  0.065500  1.0
  N  N2012  1  0.719200  0.507100  0.934500  1.0
  N  N2013  1  0.620400  0.472640  0.243780  1.0
  N  N2014  1  0.379600  0.527360  0.756220  1.0
  N  N2015  1  0.613800  0.571240  0.176070  1.0
  N  N2016  1  0.386200  0.428760  0.823930  1.0
  N  N2017  1  0.519400  0.562080  0.139920  1.0
  N  N2018  1  0.480600  0.437920  0.860080  1.0
  N  N2019  1  0.527900  0.462610  0.205350  1.0
  N  N2020  1  0.472100  0.537390  0.794650  1.0
  N  N2021  1  0.691100  0.154600  0.330200  1.0
  N  N2022  1  0.308900  0.845400  0.669800  1.0
  N  N2023  1  0.731400  0.220300  0.345100  1.0
  N  N2024  1  0.268600  0.779700  0.654900  1.0
  N  N2025  1  0.715400  0.212000  0.429100  1.0
  N  N2026  1  0.284600  0.788000  0.570900  1.0
  N  N2027  1  0.247800  0.178000  0.436600  1.0
  N  N2028  1  0.752200  0.822000  0.563400  1.0
  N  N2029  1  0.200900  0.235000  0.477970  1.0
  N  N2030  1  0.799100  0.765000  0.522030  1.0
  N  N2031  1  0.257100  0.225800  0.543470  1.0
  N  N2032  1  0.742900  0.774200  0.456530  1.0
  N  N2033  1  0.415400  0.138400  0.118330  1.0
  N  N2034  1  0.584600  0.861600  0.881670  1.0
  N  N2035  1  0.341700  0.171100  0.056200  1.0
  N  N2036  1  0.658300  0.828900  0.943800  1.0
  N  N2037  1  0.375200  0.158200  0.981310  1.0
  N  N2038  1  0.624800  0.841800  0.018690  1.0
  N  N2039  1  0.013900  0.076400  0.815700  1.0
  N  N2040  1  0.986100  0.923600  0.184300  1.0
  N  N2041  1  0.948300  0.107800  0.866200  1.0
  N  N2042  1  0.051700  0.892200  0.133800  1.0
  N  N2043  1  0.860100  0.104600  0.847700  1.0
  N  N2044  1  0.139900  0.895400  0.152300  1.0
  N  N2045  1  0.527000  0.194190  0.639660  1.0
  N  N2046  1  0.473000  0.805810  0.360340  1.0
  N  N2047  1  0.470300  0.181930  0.727750  1.0
  N  N2048  1  0.529700  0.818070  0.272250  1.0
  N  N2049  1  0.568500  0.159670  0.774170  1.0
  N  N2050  1  0.431500  0.840330  0.225830  1.0
  N  N2051  1  0.624900  0.167070  0.687490  1.0
  N  N2052  1  0.375100  0.832930  0.312510  1.0
  N  N2053  1  0.182700  0.044500  0.131400  1.0
  N  N2054  1  0.817300  0.955500  0.868600  1.0
  N  N2055  1  0.558300  0.024200  0.970100  1.0
  N  N2056  1  0.441700  0.975800  0.029900  1.0
  N  N2057  1  0.637200  0.621300  0.468100  1.0
  N  N2058  1  0.362800  0.378700  0.531900  1.0
  N  N2059  1  0.750600  0.615100  0.388700  1.0
  N  N2060  1  0.249400  0.384900  0.611300  1.0
  N  N2061  1  0.528800  0.078100  0.587400  1.0
  N  N2062  1  0.471200  0.921900  0.412600  1.0
  N  N2063  1  0.268100  0.635400  0.597000  1.0
  N  N2064  1  0.731900  0.364600  0.403000  1.0
  N  N2065  1  0.478200  0.256200  0.441000  1.0
  N  N2066  1  0.521800  0.743800  0.559000  1.0
  N  N2067  1  0.568400  0.645400  0.494900  0.281
  N  N2068  1  0.431600  0.354600  0.505100  0.281
  N  N2069  1  0.198000  0.175700  0.695100  0.5
  N  N2070  1  0.802000  0.824300  0.304900  0.5
  N  N2071  1  0.592500  0.270400  0.197300  0.5
  N  N2072  1  0.407500  0.729600  0.802700  0.5
  N  N2073  1  0.171500  0.870900  0.372800  0.5
  N  N2074  1  0.828500  0.129100  0.627200  0.5
  N  N2075  1  0.268900  0.656400  0.477900  0.5
  N  N2076  1  0.731100  0.343600  0.522100  0.5
  N  N2077  1  0.100500  0.531300  0.251700  0.5
  N  N2078  1  0.899500  0.468700  0.748300  0.5
  N  N2079  1  0.433900  0.647500  0.545400  0.719
  N  N2080  1  0.566100  0.352500  0.454600  0.719
  O  O2081  1  0.388100  0.361000  0.030600  0.5
  O  O2082  1  0.611900  0.639000  0.969400  0.5
