
#######################################################################
#
#                 Cambridge Crystallographic Data Centre
#                                CCDC 
#
#######################################################################
#
# If this CIF has been generated from an entry in the Cambridge 
# Structural Database, then it will include bibliographic, chemical, 
# crystal, experimental, refinement or atomic coordinate data resulting 
# from the CCDC's data processing and validation procedures.
#
#######################################################################

data_YAWQOC
_chemical_formula_moiety         'C80 H88 N4 Si4 Zr4,2(C6 H6)'
_chemical_name_systematic        
"(\m~4~-2,3,5,6-tetrakis(Trimethylsilylmethylidyne)-1,4(4,4')-bis(2,2'-bipyridina)cyclohexaphane)-tetrakis(zirconocene) benzene solvate"
_symmetry_cell_setting           triclinic
_symmetry_space_group_name_H-M   'P -1'
_symmetry_Int_Tables_number      2
_space_group_name_Hall           '-P 1'
loop_
_symmetry_equiv_pos_site_id
_symmetry_equiv_pos_as_xyz
1 x,y,z
2 -x,-y,-z
_cell_length_a                   13.8846(1)
_cell_length_b                   14.0501(1)
_cell_length_c                   14.2032(1)
_cell_angle_alpha                61.385(1)
_cell_angle_beta                 87.029(1)
_cell_angle_gamma                65.559(1)
_cell_volume                     2176.93
_exptl_crystal_colour            black
_exptl_crystal_description       prism
_cell_formula_units_Z            1
loop_
_atom_site_label
_atom_site_type_symbol
_atom_site_fract_x
_atom_site_fract_y
_atom_site_fract_z
Zr1 Zr -0.01106(2) -0.30286(2) 0.68338(2)
Zr2 Zr 0.28932(2) -0.04771(2) 0.95469(2)
Si1 Si -0.27595(6) -0.05033(7) 0.65689(6)
Si2 Si 0.25974(6) -0.41301(7) 0.83860(6)
N1 N 0.1754(1) -0.1134(2) 0.9466(2)
N2 N 0.1818(1) -0.0104(2) 1.0623(2)
C1 C -0.1286(2) -0.1512(2) 0.7074(2)
C2 C -0.0665(2) -0.1453(2) 0.7741(2)
C3 C 0.0527(2) -0.2301(2) 0.8187(2)
C4 C 0.1114(2) -0.3143(2) 0.7905(2)
C5 C 0.1429(2) -0.1379(2) 0.8749(2)
C6 C 0.0983(2) -0.2154(2) 0.9017(2)
C7 C 0.0924(2) -0.2811(2) 1.0146(2)
C8 C 0.1202(2) -0.2564(2) 1.0877(2)
C9 C 0.1521(2) -0.1621(2) 1.0518(2)
C10 C 0.1547(2) -0.1069(2) 1.1123(2)
C11 C 0.1232(2) -0.1374(2) 1.2166(2)
C12 C 0.0991(2) -0.0594(2) 1.2545(2)
C13 C -0.1093(2) -0.0508(2) 0.8070(2)
C14 C 0.1530(2) 0.0675(2) 1.1018(2)
C15 C -0.3171(3) 0.1142(3) 0.6001(4)
C16 C -0.3249(3) -0.0644(4) 0.5459(3)
C17 C -0.3525(3) -0.0982(4) 0.7694(3)
C18 C 0.3063(3) -0.4934(3) 0.9890(3)
C19 C 0.3344(3) -0.3211(4) 0.7702(4)
C20 C 0.3018(3) -0.5330(3) 0.8004(3)
C21 C -0.0654(3) -0.4317(3) 0.8521(2)
C22 C 0.0369(3) -0.5073(3) 0.8489(3)
C23 C 0.0288(3) -0.5192(3) 0.7573(3)
C24 C -0.0791(3) -0.4529(3) 0.7068(3)
C25 C -0.1371(3) -0.3993(3) 0.7654(3)
C26 C -0.0571(2) -0.1252(3) 0.4934(2)
C27 C 0.0479(3) -0.1575(3) 0.5333(2)
C28 C 0.1137(2) -0.2712(3) 0.5453(2)
C29 C 0.0492(3) -0.3095(3) 0.5148(2)
C30 C -0.0575(3) -0.2198(3) 0.4835(2)
C31 C 0.1672(2) 0.1217(2) 0.7731(2)
C32 C 0.1693(2) 0.1765(2) 0.8318(2)
C33 C 0.2755(2) 0.1609(2) 0.8495(2)
C34 C 0.3391(2) 0.0963(3) 0.8002(2)
C35 C 0.2721(2) 0.0712(2) 0.7530(2)
C36 C 0.4474(2) -0.1664(3) 1.1083(3)
C37 C 0.4896(2) -0.1435(3) 1.0134(3)
C38 C 0.4730(2) -0.2065(3) 0.9719(2)
C39 C 0.4205(2) -0.2705(2) 1.0397(3)
C40 C 0.4038(2) -0.2462(3) 1.1256(2)
C13A C 0.1093(2) 0.0508(2) 1.1930(2)
C2A C 0.0665(2) 0.1453(2) 1.2259(2)
C1A C 0.1286(2) 0.1512(2) 1.2926(2)
Zr1A Zr 0.01106(2) 0.30286(2) 1.31662(2)
C4A C -0.1114(2) 0.3143(2) 1.2095(2)
Si2A Si -0.25974(6) 0.41301(7) 1.16140(6)
C18A C -0.3063(3) 0.4934(3) 1.0110(3)
C19A C -0.3344(3) 0.3211(4) 1.2298(4)
C20A C -0.3018(3) 0.5330(3) 1.1996(3)
C3A C -0.0527(2) 0.2301(2) 1.1813(2)
C6A C -0.0983(2) 0.2154(2) 1.0983(2)
C5A C -0.1429(2) 0.1379(2) 1.1251(2)
N1A N -0.1754(1) 0.1134(2) 1.0534(2)
Zr2A Zr -0.28932(2) 0.04771(2) 1.04531(2)
N2A N -0.1818(1) 0.0104(2) 0.9377(2)
C10A C -0.1547(2) 0.1069(2) 0.8877(2)
C9A C -0.1521(2) 0.1621(2) 0.9482(2)
C8A C -0.1202(2) 0.2564(2) 0.9123(2)
C7A C -0.0924(2) 0.2811(2) 0.9854(2)
C11A C -0.1232(2) 0.1374(2) 0.7834(2)
C12A C -0.0991(2) 0.0594(2) 0.7455(2)
C14A C -0.1530(2) -0.0675(2) 0.8982(2)
C31A C -0.1672(2) -0.1217(2) 1.2269(2)
C32A C -0.1693(2) -0.1765(2) 1.1682(2)
C33A C -0.2755(2) -0.1609(2) 1.1505(2)
C34A C -0.3391(2) -0.0963(3) 1.1998(2)
C35A C -0.2721(2) -0.0712(2) 1.2470(2)
C36A C -0.4474(2) 0.1664(3) 0.8917(3)
C37A C -0.4896(2) 0.1435(3) 0.9866(3)
C38A C -0.4730(2) 0.2065(3) 1.0281(2)
C39A C -0.4205(2) 0.2705(2) 0.9603(3)
C40A C -0.4038(2) 0.2462(3) 0.8744(2)
C21A C 0.0654(3) 0.4317(3) 1.1479(2)
C22A C -0.0369(3) 0.5073(3) 1.1511(3)
C23A C -0.0288(3) 0.5192(3) 1.2427(3)
C24A C 0.0791(3) 0.4529(3) 1.2932(3)
C25A C 0.1371(3) 0.3993(3) 1.2346(3)
C26A C 0.0571(2) 0.1252(3) 1.5066(2)
C27A C -0.0479(3) 0.1575(3) 1.4667(2)
C28A C -0.1137(2) 0.2712(3) 1.4547(2)
C29A C -0.0492(3) 0.3095(3) 1.4852(2)
C30A C 0.0575(3) 0.2198(3) 1.5165(2)
Si1A Si 0.27595(6) 0.05033(7) 1.34311(6)
C15A C 0.3171(3) -0.1142(3) 1.3999(4)
C16A C 0.3249(3) 0.0644(4) 1.4541(3)
C17A C 0.3525(3) 0.0982(4) 1.2306(3)
C41 C 0.3578(5) 0.3105(7) 0.5150(5)
C42 C 0.3735(6) 0.3567(8) 0.4095(6)
C43 C 0.3810(8) 0.4565(8) 0.3549(6)
C44 C 0.359(1) 0.5225(6) 0.4055(8)
C45 C 0.354(1) 0.4722(7) 0.5155(8)
C46 C 0.3518(7) 0.3689(6) 0.5672(6)
loop_
_geom_bond_atom_site_label_1
_geom_bond_atom_site_label_2
_geom_bond_site_symmetry_1
_geom_bond_site_symmetry_2
Zr1 C1 1_555 1_555
Zr2 N1 1_555 1_555
Si1 C1 1_555 1_555
Si2 C4 1_555 1_555
N1 C5 1_555 1_555
N2 Zr2 1_555 1_555
C1 C2 1_555 1_555
C2 C3 1_555 1_555
C3 C4 1_555 1_555
C4 Zr1 1_555 1_555
C5 C6 1_555 1_555
C6 C3 1_555 1_555
C7 C6 1_555 1_555
C8 C7 1_555 1_555
C9 N1 1_555 1_555
C10 N2 1_555 1_555
C11 C10 1_555 1_555
C12 C11 1_555 1_555
C13 C2 1_555 1_555
C14 N2 1_555 1_555
C15 Si1 1_555 1_555
C16 Si1 1_555 1_555
C17 Si1 1_555 1_555
C18 Si2 1_555 1_555
C19 Si2 1_555 1_555
C20 Si2 1_555 1_555
C21 Zr1 1_555 1_555
C22 Zr1 1_555 1_555
C23 Zr1 1_555 1_555
C24 Zr1 1_555 1_555
C25 Zr1 1_555 1_555
C26 Zr1 1_555 1_555
C27 Zr1 1_555 1_555
C28 Zr1 1_555 1_555
C29 Zr1 1_555 1_555
C30 Zr1 1_555 1_555
C31 Zr2 1_555 1_555
C32 Zr2 1_555 1_555
C33 Zr2 1_555 1_555
C34 Zr2 1_555 1_555
C35 Zr2 1_555 1_555
C36 Zr2 1_555 1_555
C37 Zr2 1_555 1_555
C38 Zr2 1_555 1_555
C39 Zr2 1_555 1_555
C40 Zr2 1_555 1_555
C41 C42 1_555 1_555
C42 C43 1_555 1_555
C43 C44 1_555 1_555
C44 C45 1_555 1_555
C45 C46 1_555 1_555
C46 C41 1_555 1_555
C13A C12 1_555 1_555
C2A C13A 1_555 1_555
C1A C2A 1_555 1_555
Zr1A C1A 1_555 1_555
C4A Zr1A 1_555 1_555
Si2A C4A 1_555 1_555
C18A Si2A 1_555 1_555
C19A Si2A 1_555 1_555
C20A Si2A 1_555 1_555
C3A C2A 1_555 1_555
C6A C3A 1_555 1_555
C5A C6A 1_555 1_555
N1A C5A 1_555 1_555
Zr2A N1A 1_555 1_555
N2A Zr2A 1_555 1_555
C10A N2A 1_555 1_555
C9A N1A 1_555 1_555
C8A C9A 1_555 1_555
C7A C6A 1_555 1_555
C11A C10A 1_555 1_555
C12A C13 1_555 1_555
C14A C13 1_555 1_555
C31A Zr2A 1_555 1_555
C32A Zr2A 1_555 1_555
C33A Zr2A 1_555 1_555
C34A Zr2A 1_555 1_555
C35A Zr2A 1_555 1_555
C36A Zr2A 1_555 1_555
C37A Zr2A 1_555 1_555
C38A Zr2A 1_555 1_555
C39A Zr2A 1_555 1_555
C40A Zr2A 1_555 1_555
C21A Zr1A 1_555 1_555
C22A Zr1A 1_555 1_555
C23A Zr1A 1_555 1_555
C24A Zr1A 1_555 1_555
C25A Zr1A 1_555 1_555
C26A Zr1A 1_555 1_555
C27A Zr1A 1_555 1_555
C28A Zr1A 1_555 1_555
C29A Zr1A 1_555 1_555
C30A Zr1A 1_555 1_555
Si1A C1A 1_555 1_555
C15A Si1A 1_555 1_555
C16A Si1A 1_555 1_555
C17A Si1A 1_555 1_555
C8 C9 1_555 1_555
C9 C10 1_555 1_555
C14 C13A 1_555 1_555
C21 C22 1_555 1_555
C21 C25 1_555 1_555
C22 C23 1_555 1_555
C23 C24 1_555 1_555
C24 C25 1_555 1_555
C26 C27 1_555 1_555
C26 C30 1_555 1_555
C27 C28 1_555 1_555
C28 C29 1_555 1_555
C29 C30 1_555 1_555
C31 C32 1_555 1_555
C31 C35 1_555 1_555
C32 C33 1_555 1_555
C33 C34 1_555 1_555
C34 C35 1_555 1_555
C36 C37 1_555 1_555
C36 C40 1_555 1_555
C37 C38 1_555 1_555
C38 C39 1_555 1_555
C39 C40 1_555 1_555
C4A C3A 1_555 1_555
N2A C14A 1_555 1_555
C10A C9A 1_555 1_555
C8A C7A 1_555 1_555
C11A C12A 1_555 1_555
C31A C32A 1_555 1_555
C31A C35A 1_555 1_555
C32A C33A 1_555 1_555
C33A C34A 1_555 1_555
C34A C35A 1_555 1_555
C36A C37A 1_555 1_555
C36A C40A 1_555 1_555
C37A C38A 1_555 1_555
C38A C39A 1_555 1_555
C39A C40A 1_555 1_555
C21A C22A 1_555 1_555
C21A C25A 1_555 1_555
C22A C23A 1_555 1_555
C23A C24A 1_555 1_555
C24A C25A 1_555 1_555
C26A C27A 1_555 1_555
C26A C30A 1_555 1_555
C27A C28A 1_555 1_555
C28A C29A 1_555 1_555
C29A C30A 1_555 1_555

#END
