
#######################################################################
#
#                 Cambridge Crystallographic Data Centre
#                                CCDC 
#
#######################################################################
#
# If this CIF has been generated from an entry in the Cambridge 
# Structural Database, then it will include bibliographic, chemical, 
# crystal, experimental, refinement or atomic coordinate data resulting 
# from the CCDC's data processing and validation procedures.
#
#######################################################################

data_YAWQUI
_chemical_formula_moiety         'C104 H104 N4 Si4 Zr4,C6 H6,7(C6 H6)'
_chemical_name_systematic        
"(\m~4~-3,4,8,9-tetrakis(Trimethylsilylmethylidyne)-1,6(4,4')-bis(2,2'-bipyridina)-2,5,7,10(1,4)-tetrabenzenacyclodecaphane)-tetrakis(zirconocene) benzene clathrate"
_symmetry_cell_setting           triclinic
_symmetry_space_group_name_H-M   'P -1'
_symmetry_Int_Tables_number      2
_space_group_name_Hall           '-P 1'
loop_
_symmetry_equiv_pos_site_id
_symmetry_equiv_pos_as_xyz
1 x,y,z
2 -x,-y,-z
_cell_length_a                   14.6211(2)
_cell_length_b                   15.0342(2)
_cell_length_c                   17.7675(1)
_cell_angle_alpha                65.455(1)
_cell_angle_beta                 66.895(1)
_cell_angle_gamma                88.621(1)
_cell_volume                     3222.32
_exptl_crystal_colour            black
_cell_formula_units_Z            1
_chemical_properties_physical    air-sensitive
loop_
_atom_site_label
_atom_site_type_symbol
_atom_site_fract_x
_atom_site_fract_y
_atom_site_fract_z
Zr1 Zr -0.32596(2) 0.28952(2) 0.67448(2)
Zr2 Zr 0.27549(2) 0.79380(2) -0.15554(2)
Si1 Si -0.47655(6) 0.49614(6) 0.67627(6)
Si2 Si -0.09019(6) 0.29388(6) 0.48167(6)
N1 N 0.1328(2) 0.7690(2) -0.0424(2)
N2 N 0.2180(2) 0.9288(2) -0.2066(2)
C1 C -0.3722(2) 0.4393(2) 0.6209(2)
C2 C -0.2965(2) 0.4902(2) 0.5359(2)
C3 C -0.2135(2) 0.4431(2) 0.4906(2)
C4 C -0.1951(2) 0.3512(2) 0.5361(2)
C5 C -0.1562(2) 0.5024(2) 0.3888(2)
C6 C -0.1834(2) 0.4786(2) 0.3322(2)
C7 C -0.0793(2) 0.5826(2) 0.3484(2)
C8 C -0.1368(2) 0.5333(2) 0.2381(2)
C9 C -0.0318(2) 0.6366(2) 0.2547(2)
C10 C -0.0604(2) 0.6139(2) 0.1978(2)
C11 C 0.0871(2) 0.7092(2) 0.0494(2)
C12 C -0.0134(2) 0.6753(2) 0.0974(2)
C13 C -0.0731(2) 0.7004(2) 0.0465(2)
C14 C -0.0322(2) 0.7646(2) -0.0432(2)
C15 C 0.0712(2) 0.8081(2) -0.0876(2)
C16 C 0.1158(2) 0.8911(2) -0.1738(2)
C17 C 0.0638(2) 0.9409(2) -0.2286(2)
C18 C 0.1029(2) 1.0343(2) -0.2955(2)
C19 C 0.1968(2) 1.0832(2) -0.3122(2)
C20 C 0.2513(2) 1.0259(2) -0.2695(2)
C21 C 0.2320(2) 1.1906(2) -0.3737(2)
C22 C 0.2806(2) 1.2510(2) -0.3536(2)
C23 C 0.2124(2) 1.2362(2) -0.4508(2)
C24 C 0.3049(2) 1.3531(2) -0.4064(2)
C25 C 0.2377(2) 1.3385(2) -0.5041(2)
C26 C -0.2828(2) 0.6010(2) 0.4823(2)
C27 C -0.4669(2) 0.2455(2) 0.6418(2)
C28 C -0.4932(2) 0.1853(2) 0.7349(2)
C29 C -0.4246(3) 0.1187(2) 0.7411(2)
C30 C -0.3560(2) 0.1382(2) 0.6529(2)
C31 C -0.3822(2) 0.2170(2) 0.5911(2)
C32 C -0.1878(2) 0.3212(3) 0.7148(2)
C33 C -0.2598(3) 0.3769(2) 0.7421(2)
C34 C -0.3463(3) 0.3108(3) 0.8147(2)
C35 C -0.3265(3) 0.2145(3) 0.8317(2)
C36 C -0.2286(3) 0.2208(2) 0.7698(2)
C37 C 0.2826(3) 0.7687(3) -0.2901(2)
C38 C 0.3553(3) 0.7194(3) -0.2644(3)
C39 C 0.3058(3) 0.6389(3) -0.1782(3)
C40 C 0.2019(3) 0.6391(2) -0.1507(2)
C41 C 0.1868(3) 0.7187(3) -0.2195(3)
C42 C 0.4409(3) 0.7753(4) -0.1472(4)
C43 C 0.3705(3) 0.7484(3) -0.0589(3)
C44 C 0.3334(3) 0.8319(3) -0.0536(3)
C45 C 0.3792(3) 0.9100(3) -0.1378(3)
C46 C 0.4453(3) 0.8776(3) -0.1969(2)
C47 C -0.5877(2) 0.3966(2) 0.7687(2)
C48 C -0.5254(2) 0.5869(2) 0.5971(2)
C49 C -0.4369(3) 0.5588(3) 0.7331(2)
C50 C -0.1266(3) 0.2322(3) 0.4225(2)
C51 C -0.0593(2) 0.1960(2) 0.5720(2)
C52 C 0.0314(2) 0.3812(3) 0.3993(2)
C26A C 0.2828(2) 1.3990(2) -0.4823(2)
C2A C 0.2965(2) 1.5098(2) -0.5359(2)
C1A C 0.3722(2) 1.5607(2) -0.6209(2)
Zr1A Zr 0.32596(2) 1.71048(2) -0.67448(2)
C4A C 0.1951(2) 1.6488(2) -0.5361(2)
Si2A Si 0.09019(6) 1.70612(6) -0.48167(6)
C50A C 0.1266(3) 1.7678(3) -0.4225(2)
C51A C 0.0593(2) 1.8040(2) -0.5720(2)
C52A C -0.0314(2) 1.6188(3) -0.3993(2)
C3A C 0.2135(2) 1.5569(2) -0.4906(2)
C5A C 0.1562(2) 1.4976(2) -0.3888(2)
C6A C 0.1834(2) 1.5214(2) -0.3322(2)
C8A C 0.1368(2) 1.4667(2) -0.2381(2)
C10A C 0.0604(2) 1.3861(2) -0.1978(2)
C9A C 0.0318(2) 1.3634(2) -0.2547(2)
C7A C 0.0793(2) 1.4174(2) -0.3484(2)
C12A C 0.0134(2) 1.3247(2) -0.0974(2)
C11A C -0.0871(2) 1.2908(2) -0.0494(2)
N1A N -0.1328(2) 1.2310(2) 0.0424(2)
Zr2A Zr -0.27549(2) 1.20620(2) 0.15554(2)
N2A N -0.2180(2) 1.0712(2) 0.2066(2)
C16A C -0.1158(2) 1.1089(2) 0.1738(2)
C15A C -0.0712(2) 1.1919(2) 0.0876(2)
C14A C 0.0322(2) 1.2354(2) 0.0432(2)
C13A C 0.0731(2) 1.2996(2) -0.0465(2)
C17A C -0.0638(2) 1.0591(2) 0.2286(2)
C18A C -0.1029(2) 0.9657(2) 0.2955(2)
C19A C -0.1968(2) 0.9168(2) 0.3122(2)
C20A C -0.2513(2) 0.9741(2) 0.2695(2)
C21A C -0.2320(2) 0.8094(2) 0.3737(2)
C22A C -0.2806(2) 0.7490(2) 0.3536(2)
C24A C -0.3049(2) 0.6469(2) 0.4064(2)
C25A C -0.2377(2) 0.6615(2) 0.5041(2)
C23A C -0.2124(2) 0.7638(2) 0.4508(2)
C37A C -0.2826(3) 1.2313(3) 0.2901(2)
C38A C -0.3553(3) 1.2806(3) 0.2644(3)
C39A C -0.3058(3) 1.3611(3) 0.1782(3)
C40A C -0.2019(3) 1.3609(2) 0.1507(2)
C41A C -0.1868(3) 1.2813(3) 0.2195(3)
C42A C -0.4409(3) 1.2247(4) 0.1472(4)
C43A C -0.3705(3) 1.2516(3) 0.0589(3)
C44A C -0.3334(3) 1.1681(3) 0.0536(3)
C45A C -0.3792(3) 1.0900(3) 0.1378(3)
C46A C -0.4453(3) 1.1224(3) 0.1969(2)
C27A C 0.4669(2) 1.7545(2) -0.6418(2)
C28A C 0.4932(2) 1.8147(2) -0.7349(2)
C29A C 0.4246(3) 1.8813(2) -0.7411(2)
C30A C 0.3560(2) 1.8618(2) -0.6529(2)
C31A C 0.3822(2) 1.7830(2) -0.5911(2)
C32A C 0.1878(2) 1.6788(3) -0.7148(2)
C33A C 0.2598(3) 1.6231(2) -0.7421(2)
C34A C 0.3463(3) 1.6892(3) -0.8147(2)
C35A C 0.3265(3) 1.7855(3) -0.8317(2)
C36A C 0.2286(3) 1.7792(2) -0.7698(2)
Si1A Si 0.47655(6) 1.50386(6) -0.67627(6)
C47A C 0.5877(2) 1.6034(2) -0.7687(2)
C48A C 0.5254(2) 1.4131(2) -0.5971(2)
C49A C 0.4369(3) 1.4412(3) -0.7331(2)
C53 C 0.1025(4) 1.0201(5) -0.0537(4)
C54 C 0.0616(4) 0.9430(4) 0.0337(4)
C55 C 0.0401(5) 1.0767(4) -0.0861(3)
C55A C -0.0401(5) 0.9233(4) 0.0861(3)
C53A C -0.1025(4) 0.9799(5) 0.0537(4)
C54A C -0.0616(4) 1.0570(4) -0.0337(4)
C56 C 0.5768(3) 0.9472(3) -0.5022(3)
C57 C 0.5112(3) 0.9311(3) -0.5334(3)
C58 C 0.5658(3) 1.0170(4) -0.4685(3)
C58A C 0.4342(3) 0.9830(4) -0.5315(3)
C56A C 0.4232(3) 1.0528(3) -0.4978(3)
C57A C 0.4888(3) 1.0689(3) -0.4666(3)
C59 C -0.2209(3) 0.9383(4) -0.0841(4)
C60 C -0.2352(4) 0.9309(4) -0.1518(4)
C61 C -0.3330(5) 0.8973(4) -0.1373(5)
C62 C -0.4105(4) 0.8795(4) -0.0598(4)
C63 C -0.3963(4) 0.8965(8) 0.0046(4)
C64 C -0.3002(4) 0.9207(6) -0.0056(4)
C65 C 0.1739(6) 0.4648(4) 0.1112(4)
C66 C 0.1758(5) 0.4113(3) 0.0646(4)
C67 C 0.2603(5) 0.3794(4) 0.0275(3)
C68 C 0.3468(5) 0.4021(4) 0.0328(4)
C69 C 0.3451(7) 0.4573(5) 0.0782(4)
C70 C 0.2588(9) 0.4864(4) 0.1192(5)
C71 C 0.1619(5) 0.1962(4) 0.2922(3)
C72 C 0.2459(4) 0.2253(3) 0.2980(3)
C73 C 0.2711(4) 0.1665(3) 0.3648(3)
C74 C 0.2131(3) 0.0748(3) 0.4272(3)
C75 C 0.1307(3) 0.0439(3) 0.4225(3)
C76 C 0.1031(3) 0.1024(4) 0.3557(3)
loop_
_geom_bond_atom_site_label_1
_geom_bond_atom_site_label_2
_geom_bond_site_symmetry_1
_geom_bond_site_symmetry_2
Zr1 C1 1_555 1_555
Zr2 N1 1_555 1_555
Si1 C1 1_555 1_555
Si2 C4 1_555 1_555
N1 C11 1_555 1_555
N2 Zr2 1_555 1_555
C1 C2 1_555 1_555
C2 C3 1_555 1_555
C3 C4 1_555 1_555
C4 Zr1 1_555 1_555
C5 C3 1_555 1_555
C6 C5 1_555 1_555
C7 C5 1_555 1_555
C8 C6 1_555 1_555
C9 C7 1_555 1_555
C10 C8 1_555 1_555
C11 C12 1_555 1_555
C12 C10 1_555 1_555
C13 C12 1_555 1_555
C14 C13 1_555 1_555
C15 N1 1_555 1_555
C16 N2 1_555 1_555
C17 C16 1_555 1_555
C18 C17 1_555 1_555
C19 C18 1_555 1_555
C20 N2 1_555 1_555
C21 C19 1_555 1_555
C22 C21 1_555 1_555
C23 C21 1_555 1_555
C24 C22 1_555 1_555
C25 C23 1_555 1_555
C26 C2 1_555 1_555
C27 Zr1 1_555 1_555
C28 Zr1 1_555 1_555
C29 Zr1 1_555 1_555
C30 Zr1 1_555 1_555
C31 Zr1 1_555 1_555
C32 Zr1 1_555 1_555
C33 Zr1 1_555 1_555
C34 Zr1 1_555 1_555
C35 Zr1 1_555 1_555
C36 Zr1 1_555 1_555
C37 Zr2 1_555 1_555
C38 Zr2 1_555 1_555
C39 Zr2 1_555 1_555
C40 Zr2 1_555 1_555
C41 Zr2 1_555 1_555
C42 Zr2 1_555 1_555
C43 Zr2 1_555 1_555
C44 Zr2 1_555 1_555
C45 Zr2 1_555 1_555
C46 Zr2 1_555 1_555
C47 Si1 1_555 1_555
C48 Si1 1_555 1_555
C49 Si1 1_555 1_555
C50 Si2 1_555 1_555
C51 Si2 1_555 1_555
C52 Si2 1_555 1_555
C53 C54 1_555 1_555
C54 C55A 1_555 1_555
C55 C53 1_555 1_555
C56 C57 1_555 1_555
C57 C58A 1_555 1_555
C58 C56 1_555 1_555
C59 C60 1_555 1_555
C60 C61 1_555 1_555
C61 C62 1_555 1_555
C62 C63 1_555 1_555
C63 C64 1_555 1_555
C64 C59 1_555 1_555
C65 C66 1_555 1_555
C66 C67 1_555 1_555
C67 C68 1_555 1_555
C68 C69 1_555 1_555
C69 C70 1_555 1_555
C70 C65 1_555 1_555
C71 C72 1_555 1_555
C72 C73 1_555 1_555
C73 C74 1_555 1_555
C74 C75 1_555 1_555
C75 C76 1_555 1_555
C76 C71 1_555 1_555
C26A C24 1_555 1_555
C2A C26A 1_555 1_555
C1A C2A 1_555 1_555
Zr1A C1A 1_555 1_555
C4A Zr1A 1_555 1_555
Si2A C4A 1_555 1_555
C50A Si2A 1_555 1_555
C51A Si2A 1_555 1_555
C52A Si2A 1_555 1_555
C3A C2A 1_555 1_555
C5A C3A 1_555 1_555
C6A C5A 1_555 1_555
C8A C6A 1_555 1_555
C10A C8A 1_555 1_555
C9A C10A 1_555 1_555
C7A C5A 1_555 1_555
C12A C10A 1_555 1_555
C11A C12A 1_555 1_555
N1A C11A 1_555 1_555
Zr2A N1A 1_555 1_555
N2A Zr2A 1_555 1_555
C16A N2A 1_555 1_555
C15A N1A 1_555 1_555
C14A C15A 1_555 1_555
C13A C12A 1_555 1_555
C17A C16A 1_555 1_555
C18A C17A 1_555 1_555
C19A C18A 1_555 1_555
C20A N2A 1_555 1_555
C21A C19A 1_555 1_555
C22A C21A 1_555 1_555
C24A C26 1_555 1_555
C25A C26 1_555 1_555
C23A C21A 1_555 1_555
C37A Zr2A 1_555 1_555
C38A Zr2A 1_555 1_555
C39A Zr2A 1_555 1_555
C40A Zr2A 1_555 1_555
C41A Zr2A 1_555 1_555
C42A Zr2A 1_555 1_555
C43A Zr2A 1_555 1_555
C44A Zr2A 1_555 1_555
C45A Zr2A 1_555 1_555
C46A Zr2A 1_555 1_555
C27A Zr1A 1_555 1_555
C28A Zr1A 1_555 1_555
C29A Zr1A 1_555 1_555
C30A Zr1A 1_555 1_555
C31A Zr1A 1_555 1_555
C32A Zr1A 1_555 1_555
C33A Zr1A 1_555 1_555
C34A Zr1A 1_555 1_555
C35A Zr1A 1_555 1_555
C36A Zr1A 1_555 1_555
Si1A C1A 1_555 1_555
C47A Si1A 1_555 1_555
C48A Si1A 1_555 1_555
C49A Si1A 1_555 1_555
C55A C53A 1_555 1_555
C53A C54A 1_555 1_555
C54A C55 1_555 1_555
C58A C56A 1_555 1_555
C56A C57A 1_555 1_555
C57A C58 1_555 1_555
C9 C10 1_555 1_555
C14 C15 1_555 1_555
C15 C16 1_555 1_555
C19 C20 1_555 1_555
C25 C26A 1_555 1_555
C27 C28 1_555 1_555
C27 C31 1_555 1_555
C28 C29 1_555 1_555
C29 C30 1_555 1_555
C30 C31 1_555 1_555
C32 C33 1_555 1_555
C32 C36 1_555 1_555
C33 C34 1_555 1_555
C34 C35 1_555 1_555
C35 C36 1_555 1_555
C37 C38 1_555 1_555
C37 C41 1_555 1_555
C38 C39 1_555 1_555
C39 C40 1_555 1_555
C40 C41 1_555 1_555
C42 C43 1_555 1_555
C42 C46 1_555 1_555
C43 C44 1_555 1_555
C44 C45 1_555 1_555
C45 C46 1_555 1_555
C4A C3A 1_555 1_555
C9A C7A 1_555 1_555
C16A C15A 1_555 1_555
C14A C13A 1_555 1_555
C19A C20A 1_555 1_555
C22A C24A 1_555 1_555
C25A C23A 1_555 1_555
C37A C38A 1_555 1_555
C37A C41A 1_555 1_555
C38A C39A 1_555 1_555
C39A C40A 1_555 1_555
C40A C41A 1_555 1_555
C42A C43A 1_555 1_555
C42A C46A 1_555 1_555
C43A C44A 1_555 1_555
C44A C45A 1_555 1_555
C45A C46A 1_555 1_555
C27A C28A 1_555 1_555
C27A C31A 1_555 1_555
C28A C29A 1_555 1_555
C29A C30A 1_555 1_555
C30A C31A 1_555 1_555
C32A C33A 1_555 1_555
C32A C36A 1_555 1_555
C33A C34A 1_555 1_555
C34A C35A 1_555 1_555
C35A C36A 1_555 1_555

#END
