# generated using pymatgen
data_H274Pd8C292S10N94O87
_symmetry_space_group_name_H-M   'P 1'
_cell_length_a   24.81770000
_cell_length_b   29.41400000
_cell_length_c   31.35240000
_cell_angle_alpha   67.88300000
_cell_angle_beta   89.92700000
_cell_angle_gamma   82.50000000
_symmetry_Int_Tables_number   1
_chemical_formula_structural   H274Pd8C292S10N94O87
_chemical_formula_sum   'H548 Pd16 C584 S20 N188 O174'
_cell_volume   20992.82390751
_cell_formula_units_Z   2
loop_
 _symmetry_equiv_pos_site_id
 _symmetry_equiv_pos_as_xyz
  1  'x, y, z'
loop_
 _atom_site_type_symbol
 _atom_site_label
 _atom_site_symmetry_multiplicity
 _atom_site_fract_x
 _atom_site_fract_y
 _atom_site_fract_z
 _atom_site_occupancy
  H  H1  1  0.723900  0.101500  0.199400  1
  H  H2  1  0.276100  0.898500  0.800600  1
  H  H3  1  0.748200  0.104400  0.297900  1
  H  H4  1  0.251800  0.895600  0.702100  1
  H  H5  1  0.814900  0.306400  0.133800  1
  H  H6  1  0.185100  0.693600  0.866200  1
  H  H7  1  0.783000  0.346900  0.210800  1
  H  H8  1  0.217000  0.653100  0.789200  1
  H  H9  1  0.575500  0.432100  0.086000  1
  H  H10  1  0.424500  0.567900  0.914000  1
  H  H11  1  0.533000  0.414900  0.183200  1
  H  H12  1  0.467000  0.585100  0.816800  1
  H  H13  1  0.467900  0.224300  0.146700  1
  H  H14  1  0.532100  0.775700  0.853300  1
  H  H15  1  0.481900  0.178000  0.249900  1
  H  H16  1  0.518100  0.822000  0.750100  1
  H  H17  1  0.618400  0.189400  0.029000  1
  H  H18  1  0.381600  0.810600  0.971000  1
  H  H19  1  0.636600  0.105800  0.047500  1
  H  H20  1  0.363400  0.894200  0.952500  1
  H  H21  1  0.683200  0.056600  0.118500  1
  H  H22  1  0.316800  0.943400  0.881500  1
  H  H23  1  0.692200  0.181600  0.142100  1
  H  H24  1  0.307800  0.818400  0.857900  1
  H  H25  1  0.840100  0.970100  0.222500  1
  H  H26  1  0.159900  0.029900  0.777500  1
  H  H27  1  0.899800  0.950700  0.287000  1
  H  H28  1  0.100200  0.049300  0.713000  1
  H  H29  1  0.893000  0.001400  0.329700  1
  H  H30  1  0.107000  0.998600  0.670300  1
  H  H31  1  0.819500  0.112400  0.391200  1
  H  H32  1  0.180500  0.887600  0.608800  1
  H  H33  1  0.791800  0.170200  0.423200  1
  H  H34  1  0.208200  0.829800  0.576800  1
  H  H35  1  0.715700  0.229100  0.392300  1
  H  H36  1  0.284300  0.770900  0.607700  1
  H  H37  1  0.695000  0.175700  0.296800  1
  H  H38  1  0.305000  0.824300  0.703200  1
  H  H39  1  0.740400  0.226800  0.016300  1
  H  H40  1  0.259600  0.773200  0.983700  1
  H  H41  1  0.833700  0.220800  0.017000  1
  H  H42  1  0.166300  0.779200  0.983000  1
  H  H43  1  0.881600  0.250600  0.061000  1
  H  H44  1  0.118400  0.749400  0.939000  1
  H  H45  1  0.738500  0.293900  0.105500  1
  H  H46  1  0.261500  0.706100  0.894500  1
  H  H47  1  0.987300  0.319700  0.139500  1
  H  H48  1  0.012700  0.680300  0.860500  1
  H  H49  1  0.008300  0.367700  0.180000  1
  H  H50  1  0.991700  0.632300  0.820000  1
  H  H51  1  0.943200  0.388100  0.226000  1
  H  H52  1  0.056800  0.611900  0.774000  1
  H  H53  1  0.764700  0.412600  0.282100  1
  H  H54  1  0.235300  0.587400  0.717900  1
  H  H55  1  0.692400  0.402900  0.334900  1
  H  H56  1  0.307600  0.597100  0.665100  1
  H  H57  1  0.643200  0.339500  0.350300  1
  H  H58  1  0.356800  0.660500  0.649700  1
  H  H59  1  0.720900  0.297100  0.258400  1
  H  H60  1  0.279100  0.702900  0.741600  1
  H  H61  1  0.688300  0.345200  0.978300  1
  H  H62  1  0.311700  0.654800  0.021700  1
  H  H63  1  0.686100  0.428700  0.945800  1
  H  H64  1  0.313900  0.571300  0.054200  1
  H  H65  1  0.637500  0.480200  0.981100  1
  H  H66  1  0.362500  0.519800  0.018900  1
  H  H67  1  0.600400  0.355200  0.079200  1
  H  H68  1  0.399600  0.644800  0.920800  1
  H  H69  1  0.499900  0.582900  0.023900  1
  H  H70  1  0.500100  0.417100  0.976100  1
  H  H71  1  0.437800  0.605400  0.070800  1
  H  H72  1  0.562200  0.394600  0.929200  1
  H  H73  1  0.417200  0.545200  0.139400  1
  H  H74  1  0.582800  0.454800  0.860600  1
  H  H75  1  0.443000  0.406200  0.272400  1
  H  H76  1  0.557000  0.593800  0.727600  1
  H  H77  1  0.458300  0.344800  0.346500  1
  H  H78  1  0.541700  0.655200  0.653500  1
  H  H79  1  0.533400  0.284500  0.362900  1
  H  H80  1  0.466600  0.715500  0.637100  1
  H  H81  1  0.576500  0.342000  0.233500  1
  H  H82  1  0.423500  0.658000  0.766500  1
  H  H83  1  0.565000  0.311800  0.983400  1
  H  H84  1  0.435000  0.688200  0.016600  1
  H  H85  1  0.473200  0.317400  0.970700  1
  H  H86  1  0.526800  0.682600  0.029300  1
  H  H87  1  0.418000  0.284500  0.029700  1
  H  H88  1  0.582000  0.715500  0.970300  1
  H  H89  1  0.551600  0.239900  0.117000  1
  H  H90  1  0.448400  0.760100  0.883000  1
  H  H91  1  0.294200  0.220600  0.142600  1
  H  H92  1  0.705800  0.779400  0.857400  1
  H  H93  1  0.258600  0.186800  0.213900  1
  H  H94  1  0.741400  0.813200  0.786100  1
  H  H95  1  0.317000  0.157100  0.280500  1
  H  H96  1  0.683000  0.842900  0.719500  1
  H  H97  1  0.492200  0.101800  0.362800  1
  H  H98  1  0.507800  0.898200  0.637200  1
  H  H99  1  0.568000  0.096900  0.415100  1
  H  H100  1  0.432000  0.903100  0.584900  1
  H  H101  1  0.620200  0.160200  0.396100  1
  H  H102  1  0.379800  0.839800  0.603900  1
  H  H103  1  0.541000  0.228700  0.275100  1
  H  H104  1  0.459000  0.771300  0.724900  1
  H  H105  1  0.980500  0.180500  0.182600  1
  H  H106  1  0.019500  0.819500  0.817400  1
  H  H107  1  0.967200  0.225100  0.256700  1
  H  H108  1  0.032800  0.774900  0.743300  1
  H  H109  1  0.246500  0.102300  0.207800  1
  H  H110  1  0.753500  0.897700  0.792200  1
  H  H111  1  0.220000  0.098400  0.305500  1
  H  H112  1  0.780000  0.901600  0.694500  1
  H  H113  1  0.286000  0.339600  0.105800  1
  H  H114  1  0.714000  0.660400  0.894200  1
  H  H115  1  0.317400  0.308600  0.206600  1
  H  H116  1  0.682600  0.691400  0.793400  1
  H  H117  1  0.034800  0.407300  0.076100  1
  H  H118  1  0.965200  0.592700  0.923900  1
  H  H119  1  0.080500  0.429400  0.156500  1
  H  H120  1  0.919500  0.570600  0.843500  1
  H  H121  1  0.117300  0.148200  0.056300  1
  H  H122  1  0.882700  0.851800  0.943700  1
  H  H123  1  0.062300  0.088600  0.082300  1
  H  H124  1  0.937700  0.911400  0.917700  1
  H  H125  1  0.992200  0.093900  0.130000  1
  H  H126  1  0.007800  0.906100  0.870000  1
  H  H127  1  0.041100  0.219800  0.128100  1
  H  H128  1  0.958900  0.780200  0.871900  1
  H  H129  1  0.813300  0.155000  0.175800  1
  H  H130  1  0.186700  0.845000  0.824200  1
  H  H131  1  0.755600  0.194500  0.213700  1
  H  H132  1  0.244400  0.805500  0.786300  1
  H  H133  1  0.793300  0.225100  0.263300  1
  H  H134  1  0.206700  0.774900  0.736700  1
  H  H135  1  0.917300  0.294100  0.324000  1
  H  H136  1  0.082700  0.705900  0.676000  1
  H  H137  1  0.970800  0.330600  0.357000  1
  H  H138  1  0.029200  0.669400  0.643000  1
  H  H139  1  0.063500  0.321100  0.350800  1
  H  H140  1  0.936500  0.678900  0.649200  1
  H  H141  1  0.053200  0.239200  0.276700  1
  H  H142  1  0.946800  0.760800  0.723300  1
  H  H143  1  0.228400  0.216600  0.021700  1
  H  H144  1  0.771600  0.783400  0.978300  1
  H  H145  1  0.307100  0.159000  0.039800  1
  H  H146  1  0.692900  0.841000  0.960200  1
  H  H147  1  0.324000  0.100200  0.113000  1
  H  H148  1  0.676000  0.899800  0.887000  1
  H  H149  1  0.185900  0.162400  0.151500  1
  H  H150  1  0.814100  0.837600  0.848500  1
  H  H151  1  0.355100  0.963300  0.254700  1
  H  H152  1  0.644900  0.036700  0.745300  1
  H  H153  1  0.365000  0.921900  0.335300  1
  H  H154  1  0.635000  0.078100  0.664700  1
  H  H155  1  0.316200  0.956200  0.382500  1
  H  H156  1  0.683800  0.043800  0.617500  1
  H  H157  1  0.178400  0.063000  0.418600  1
  H  H158  1  0.821600  0.937000  0.581400  1
  H  H159  1  0.132100  0.121100  0.446900  1
  H  H160  1  0.867900  0.878900  0.553100  1
  H  H161  1  0.114900  0.205200  0.400000  1
  H  H162  1  0.885100  0.794800  0.600000  1
  H  H163  1  0.192100  0.179300  0.300200  1
  H  H164  1  0.807900  0.820700  0.699800  1
  H  H165  1  0.141400  0.328900  0.977700  1
  H  H166  1  0.858600  0.671100  0.022300  1
  H  H167  1  0.188700  0.394700  0.945900  1
  H  H168  1  0.811300  0.605300  0.054100  1
  H  H169  1  0.257600  0.405200  0.990700  1
  H  H170  1  0.742400  0.594800  0.009300  1
  H  H171  1  0.224600  0.286600  0.097000  1
  H  H172  1  0.775400  0.713400  0.903000  1
  H  H173  1  0.438600  0.388700  0.055400  1
  H  H174  1  0.561400  0.611300  0.944600  1
  H  H175  1  0.508100  0.366000  0.114800  1
  H  H176  1  0.491900  0.634000  0.885200  1
  H  H177  1  0.487000  0.321800  0.191000  1
  H  H178  1  0.513000  0.678200  0.809000  1
  H  H179  1  0.381600  0.252000  0.318600  1
  H  H180  1  0.618400  0.748000  0.681400  1
  H  H181  1  0.333400  0.225400  0.386100  1
  H  H182  1  0.666600  0.774600  0.613900  1
  H  H183  1  0.239500  0.233600  0.380500  1
  H  H184  1  0.760500  0.766400  0.619500  1
  H  H185  1  0.238700  0.296900  0.244900  1
  H  H186  1  0.761300  0.703100  0.755100  1
  H  H187  1  0.035200  0.264300  0.004400  1
  H  H188  1  0.964800  0.735700  0.995600  1
  H  H189  1  0.955200  0.318000  0.980700  1
  H  H190  1  0.044800  0.682000  0.019300  1
  H  H191  1  0.941300  0.387300  0.000800  1
  H  H192  1  0.058700  0.612700  0.999200  1
  H  H193  1  0.082400  0.335600  0.078900  1
  H  H194  1  0.917600  0.664400  0.921100  1
  H  H195  1  0.913000  0.536900  0.027400  1
  H  H196  1  0.087000  0.463100  0.972600  1
  H  H197  1  0.927800  0.596500  0.055300  1
  H  H198  1  0.072200  0.403500  0.944700  1
  H  H199  1  0.997300  0.579200  0.110800  1
  H  H200  1  0.002700  0.420800  0.889200  1
  H  H201  1  0.139700  0.485500  0.224200  1
  H  H202  1  0.860300  0.514500  0.775800  1
  H  H203  1  0.187300  0.438700  0.293900  1
  H  H204  1  0.812700  0.561300  0.706100  1
  H  H205  1  0.187600  0.354700  0.329100  1
  H  H206  1  0.812400  0.645300  0.670900  1
  H  H207  1  0.107000  0.356000  0.219400  1
  H  H208  1  0.893000  0.644000  0.780600  1
  H  H209  1  0.058200  0.444200  0.597600  1
  H  H210  1  0.941800  0.555800  0.402400  1
  H  H211  1  0.017400  0.424600  0.695500  1
  H  H212  1  0.982600  0.575400  0.304500  1
  H  H213  1  0.962100  0.240300  0.649100  1
  H  H214  1  0.037900  0.759700  0.350900  1
  H  H215  1  0.978000  0.188600  0.750800  1
  H  H216  1  0.022000  0.811400  0.249200  1
  H  H217  1  0.216700  0.117200  0.698800  1
  H  H218  1  0.783300  0.882800  0.301200  1
  H  H219  1  0.242100  0.115300  0.798900  1
  H  H220  1  0.757900  0.884700  0.201100  1
  H  H221  1  0.310000  0.326600  0.638400  1
  H  H222  1  0.690000  0.673400  0.361600  1
  H  H223  1  0.277600  0.357600  0.718600  1
  H  H224  1  0.722400  0.642400  0.281400  1
  H  H225  1  0.190000  0.369900  0.490000  1
  H  H226  1  0.810000  0.630100  0.510000  1
  H  H227  1  0.182500  0.456500  0.463700  1
  H  H228  1  0.817500  0.543500  0.536300  1
  H  H229  1  0.122900  0.499700  0.497100  1
  H  H230  1  0.877100  0.500300  0.502900  1
  H  H231  1  0.087000  0.369300  0.586500  1
  H  H232  1  0.913000  0.630700  0.413500  1
  H  H233  1  0.967000  0.588200  0.534400  1
  H  H234  1  0.033000  0.411800  0.465600  1
  H  H235  1  0.902100  0.608800  0.581100  1
  H  H236  1  0.097900  0.391200  0.418900  1
  H  H237  1  0.892000  0.548200  0.653400  1
  H  H238  1  0.108000  0.451800  0.346600  1
  H  H239  1  0.930000  0.408300  0.787800  1
  H  H240  1  0.070000  0.591700  0.212200  1
  H  H241  1  0.949600  0.343600  0.859900  1
  H  H242  1  0.050400  0.656400  0.140100  1
  H  H243  1  0.026800  0.287400  0.872800  1
  H  H244  1  0.973200  0.712600  0.127200  1
  H  H245  1  0.066100  0.351100  0.743900  1
  H  H246  1  0.933900  0.648900  0.256100  1
  H  H247  1  0.061800  0.322600  0.485200  1
  H  H248  1  0.938200  0.677400  0.514800  1
  H  H249  1  0.970200  0.324200  0.471800  1
  H  H250  1  0.029800  0.675800  0.528200  1
  H  H251  1  0.913000  0.298400  0.531100  1
  H  H252  1  0.087000  0.701600  0.468900  1
  H  H253  1  0.045500  0.259300  0.620000  1
  H  H254  1  0.954500  0.740700  0.380000  1
  H  H255  1  0.789900  0.230300  0.643400  1
  H  H256  1  0.210100  0.769700  0.356600  1
  H  H257  1  0.754000  0.193500  0.715300  1
  H  H258  1  0.246000  0.806500  0.284700  1
  H  H259  1  0.813000  0.162300  0.781700  1
  H  H260  1  0.187000  0.837700  0.218300  1
  H  H261  1  0.993600  0.104700  0.859400  1
  H  H262  1  0.006400  0.895300  0.140600  1
  H  H263  1  0.068600  0.100300  0.913300  1
  H  H264  1  0.931400  0.899700  0.086700  1
  H  H265  1  0.115400  0.163100  0.898700  1
  H  H266  1  0.884600  0.836900  0.101300  1
  H  H267  1  0.034800  0.239000  0.781100  1
  H  H268  1  0.965200  0.761000  0.218900  1
  H  H269  1  0.116900  0.211100  0.525000  1
  H  H270  1  0.883100  0.788900  0.475000  1
  H  H271  1  0.136900  0.127500  0.542800  1
  H  H272  1  0.863100  0.872500  0.457200  1
  H  H273  1  0.180300  0.075600  0.613500  1
  H  H274  1  0.819700  0.924400  0.386500  1
  H  H275  1  0.187800  0.196000  0.644300  1
  H  H276  1  0.812200  0.804000  0.355700  1
  H  H277  1  0.333200  0.985500  0.721100  1
  H  H278  1  0.666800  0.014500  0.278900  1
  H  H279  1  0.395600  0.966900  0.783000  1
  H  H280  1  0.604400  0.033100  0.217000  1
  H  H281  1  0.387000  0.016200  0.827100  1
  H  H282  1  0.613000  0.983800  0.172900  1
  H  H283  1  0.312300  0.120600  0.894900  1
  H  H284  1  0.687700  0.879400  0.105100  1
  H  H285  1  0.286100  0.180500  0.926100  1
  H  H286  1  0.713900  0.819500  0.073900  1
  H  H287  1  0.209200  0.237400  0.897000  1
  H  H288  1  0.790800  0.762600  0.103000  1
  H  H289  1  0.186500  0.187100  0.798600  1
  H  H290  1  0.813500  0.812900  0.201400  1
  H  H291  1  0.236100  0.248100  0.518200  1
  H  H292  1  0.763900  0.751900  0.481800  1
  H  H293  1  0.331000  0.242400  0.519800  1
  H  H294  1  0.669000  0.757600  0.480200  1
  H  H295  1  0.376900  0.272000  0.565300  1
  H  H296  1  0.623100  0.728000  0.434700  1
  H  H297  1  0.232500  0.310200  0.610700  1
  H  H298  1  0.767500  0.689800  0.389300  1
  H  H299  1  0.482500  0.332600  0.651900  1
  H  H300  1  0.517500  0.667400  0.348100  1
  H  H301  1  0.502700  0.375500  0.695600  1
  H  H302  1  0.497300  0.624500  0.304400  1
  H  H303  1  0.437700  0.389100  0.746700  1
  H  H304  1  0.562300  0.610900  0.253300  1
  H  H305  1  0.250700  0.423900  0.786500  1
  H  H306  1  0.749300  0.576100  0.213500  1
  H  H307  1  0.178100  0.417700  0.835900  1
  H  H308  1  0.821900  0.582300  0.164100  1
  H  H309  1  0.125900  0.352700  0.851700  1
  H  H310  1  0.874100  0.647300  0.148300  1
  H  H311  1  0.216100  0.301900  0.769500  1
  H  H312  1  0.783900  0.698100  0.230500  1
  H  H313  1  0.419400  0.563200  0.329700  1
  H  H314  1  0.580600  0.436800  0.670300  1
  H  H315  1  0.470100  0.584200  0.409700  1
  H  H316  1  0.529900  0.415800  0.590300  1
  H  H317  1  0.539300  0.767600  0.240300  1
  H  H318  1  0.460700  0.232400  0.759700  1
  H  H319  1  0.525900  0.808200  0.316800  1
  H  H320  1  0.474100  0.191800  0.683200  1
  H  H321  1  0.282500  0.895300  0.199400  1
  H  H322  1  0.717500  0.104700  0.800600  1
  H  H323  1  0.255100  0.888600  0.297300  1
  H  H324  1  0.744900  0.111400  0.702700  1
  H  H325  1  0.189800  0.686300  0.286600  1
  H  H326  1  0.810200  0.313700  0.713400  1
  H  H327  1  0.218900  0.650400  0.390800  1
  H  H328  1  0.781100  0.349600  0.609200  1
  H  H329  1  0.323600  0.648200  0.154400  1
  H  H330  1  0.676400  0.351800  0.845600  1
  H  H331  1  0.329600  0.563500  0.180700  1
  H  H332  1  0.670400  0.436500  0.819300  1
  H  H333  1  0.373200  0.515000  0.251700  1
  H  H334  1  0.626800  0.485000  0.748300  1
  H  H335  1  0.396200  0.640200  0.271100  1
  H  H336  1  0.603800  0.359800  0.728900  1
  H  H337  1  0.503400  0.413800  0.371200  1
  H  H338  1  0.496600  0.586200  0.628800  1
  H  H339  1  0.564900  0.388200  0.436200  1
  H  H340  1  0.435100  0.611800  0.563800  1
  H  H341  1  0.574700  0.445500  0.470800  1
  H  H342  1  0.425300  0.554500  0.529200  1
  H  H343  1  0.565300  0.602200  0.484000  1
  H  H344  1  0.434700  0.397800  0.516000  1
  H  H345  1  0.552800  0.664700  0.510600  1
  H  H346  1  0.447200  0.335300  0.489400  1
  H  H347  1  0.470700  0.718300  0.494500  1
  H  H348  1  0.529300  0.281700  0.505500  1
  H  H349  1  0.417900  0.650500  0.418300  1
  H  H350  1  0.582100  0.349500  0.581700  1
  H  H351  1  0.439900  0.681600  0.138800  1
  H  H352  1  0.560100  0.318400  0.861200  1
  H  H353  1  0.532000  0.674700  0.129300  1
  H  H354  1  0.468000  0.325300  0.870700  1
  H  H355  1  0.588300  0.706400  0.165400  1
  H  H356  1  0.411700  0.293600  0.834600  1
  H  H357  1  0.453100  0.757200  0.217600  1
  H  H358  1  0.546900  0.242800  0.782400  1
  H  H359  1  0.714200  0.761700  0.238900  1
  H  H360  1  0.285800  0.238300  0.761100  1
  H  H361  1  0.751100  0.794800  0.287100  1
  H  H362  1  0.248900  0.205200  0.712900  1
  H  H363  1  0.693800  0.827800  0.330700  1
  H  H364  1  0.306200  0.172200  0.669300  1
  H  H365  1  0.517300  0.887500  0.374900  1
  H  H366  1  0.482700  0.112500  0.625100  1
  H  H367  1  0.443600  0.896500  0.420600  1
  H  H368  1  0.556400  0.103500  0.579400  1
  H  H369  1  0.386600  0.835900  0.445200  1
  H  H370  1  0.613400  0.164100  0.554800  1
  H  H371  1  0.464300  0.765900  0.371700  1
  H  H372  1  0.535700  0.234100  0.628300  1
  H  H373  1  0.394200  0.801000  0.097300  1
  H  H374  1  0.605800  0.199000  0.902700  1
  H  H375  1  0.378900  0.886700  0.057200  1
  H  H376  1  0.621100  0.113300  0.942800  1
  H  H377  1  0.328000  0.938100  0.087700  1
  H  H378  1  0.672000  0.061900  0.912300  1
  H  H379  1  0.308700  0.815900  0.199300  1
  H  H380  1  0.691300  0.184100  0.800700  1
  H  H381  1  0.179400  0.033300  0.125200  1
  H  H382  1  0.820600  0.966700  0.874800  1
  H  H383  1  0.133800  0.068100  0.175700  1
  H  H384  1  0.866200  0.931900  0.824300  1
  H  H385  1  0.142500  0.023300  0.255600  1
  H  H386  1  0.857500  0.976700  0.744400  1
  H  H387  1  0.183800  0.888100  0.394400  1
  H  H388  1  0.816200  0.111900  0.605600  1
  H  H389  1  0.202600  0.830200  0.466700  1
  H  H390  1  0.797400  0.169800  0.533300  1
  H  H391  1  0.280000  0.768900  0.482600  1
  H  H392  1  0.720000  0.231100  0.517400  1
  H  H393  1  0.313800  0.825100  0.350200  1
  H  H394  1  0.686200  0.174900  0.649800  1
  H  H395  1  0.265300  0.769000  0.113900  1
  H  H396  1  0.734700  0.231000  0.886100  1
  H  H397  1  0.172600  0.776000  0.108100  1
  H  H398  1  0.827400  0.224000  0.891900  1
  H  H399  1  0.124200  0.744800  0.175400  1
  H  H400  1  0.875800  0.255200  0.824600  1
  H  H401  1  0.267600  0.698100  0.248600  1
  H  H402  1  0.732400  0.301900  0.751400  1
  H  H403  1  0.019200  0.670500  0.301600  1
  H  H404  1  0.980800  0.329500  0.698400  1
  H  H405  1  0.999600  0.622300  0.378400  1
  H  H406  1  0.000400  0.377700  0.621600  1
  H  H407  1  0.067600  0.595300  0.437400  1
  H  H408  1  0.932400  0.404700  0.562600  1
  H  H409  1  0.240900  0.583900  0.509900  1
  H  H410  1  0.759100  0.416100  0.490100  1
  H  H411  1  0.304200  0.599700  0.555400  1
  H  H412  1  0.695800  0.400300  0.444600  1
  H  H413  1  0.354500  0.664100  0.523500  1
  H  H414  1  0.645500  0.335900  0.476500  1
  H  H415  1  0.284000  0.696300  0.400900  1
  H  H416  1  0.716000  0.303700  0.599100  1
  H  H417  1  0.740000  0.503500  0.526400  1
  H  H418  1  0.260000  0.496500  0.473600  1
  H  H419  1  0.707700  0.528200  0.477200  1
  H  H420  1  0.292300  0.471800  0.522800  1
  H  H421  1  0.679400  0.492900  0.520700  1
  H  H422  1  0.320600  0.507100  0.479300  1
  H  H423  1  0.653400  0.521200  0.592600  1
  H  H424  1  0.346600  0.478800  0.407400  1
  H  H425  1  0.609900  0.526600  0.552800  1
  H  H426  1  0.390100  0.473400  0.447200  1
  H  H427  1  0.610800  0.570700  0.570800  1
  H  H428  1  0.389200  0.429300  0.429200  1
  H  H429  1  0.323700  0.249500  0.972700  1
  H  H430  1  0.676300  0.750500  0.027300  1
  H  H431  1  0.272500  0.288400  0.973500  1
  H  H432  1  0.727500  0.711600  0.026500  1
  H  H433  1  0.327900  0.283300  0.002100  1
  H  H434  1  0.672100  0.716700  0.997900  1
  H  H435  1  0.303800  0.332900  0.857600  1
  H  H436  1  0.696200  0.667100  0.142400  1
  H  H437  1  0.269400  0.299900  0.897900  1
  H  H438  1  0.730600  0.700100  0.102100  1
  H  H439  1  0.328300  0.277000  0.888700  1
  H  H440  1  0.671700  0.723000  0.111300  1
  H  H441  1  0.944200  0.178500  0.030200  1
  H  H442  1  0.055800  0.821500  0.969800  1
  H  H443  1  0.929000  0.229100  0.986300  1
  H  H444  1  0.071000  0.770900  0.013700  1
  H  H445  1  0.988700  0.198400  0.993200  1
  H  H446  1  0.011300  0.801600  0.006800  1
  H  H447  1  0.914700  0.233300  0.903200  1
  H  H448  1  0.085300  0.766700  0.096800  1
  H  H449  1  0.959600  0.192900  0.896000  1
  H  H450  1  0.040400  0.807100  0.104000  1
  H  H451  1  0.975600  0.225100  0.924200  1
  H  H452  1  0.024400  0.774900  0.075800  1
  H  H453  1  0.925500  0.949900  0.972900  1
  H  H454  1  0.074500  0.050100  0.027100  1
  H  H455  1  0.921700  0.986500  0.000200  1
  H  H456  1  0.078300  0.013500  0.999800  1
  H  H457  1  0.979600  0.958700  0.994800  1
  H  H458  1  0.020400  0.041300  0.005200  1
  H  H459  1  0.956500  0.032400  0.858000  1
  H  H460  1  0.043500  0.967600  0.142000  1
  H  H461  1  0.917900  0.992400  0.885200  1
  H  H462  1  0.082100  0.007600  0.114800  1
  H  H463  1  0.982600  0.978400  0.892800  1
  H  H464  1  0.017400  0.021600  0.107200  1
  H  H465  1  0.832200  0.422600  0.427100  1
  H  H466  1  0.167800  0.577400  0.572900  1
  H  H467  1  0.852400  0.475800  0.408600  1
  H  H468  1  0.147600  0.524200  0.591400  1
  H  H469  1  0.885300  0.430900  0.450600  1
  H  H470  1  0.114700  0.569100  0.549400  1
  H  H471  1  0.872400  0.437400  0.310600  1
  H  H472  1  0.127600  0.562600  0.689400  1
  H  H473  1  0.840700  0.475800  0.330100  1
  H  H474  1  0.159300  0.524200  0.669900  1
  H  H475  1  0.826900  0.420300  0.347200  1
  H  H476  1  0.173100  0.579700  0.652800  1
  H  H477  1  0.822700  0.120100  0.044100  1
  H  H478  1  0.177300  0.879900  0.955900  1
  H  H479  1  0.835900  0.109300  0.097200  1
  H  H480  1  0.164100  0.890700  0.902800  1
  H  H481  1  0.808900  0.070000  0.083200  1
  H  H482  1  0.191100  0.930000  0.916800  1
  H  H483  1  0.879600  0.999700  0.129200  1
  H  H484  1  0.120400  0.000300  0.870800  1
  H  H485  1  0.872100  0.048400  0.141200  1
  H  H486  1  0.127900  0.951600  0.858800  1
  H  H487  1  0.931800  0.019800  0.141900  1
  H  H488  1  0.068200  0.980200  0.858100  1
  H  H489  1  0.808900  0.291300  0.499100  1
  H  H490  1  0.191100  0.708700  0.500900  1
  H  H491  1  0.854500  0.315500  0.465000  1
  H  H492  1  0.145500  0.684500  0.535000  1
  H  H493  1  0.848700  0.258200  0.478500  1
  H  H494  1  0.151300  0.741800  0.521500  1
  H  H495  1  0.804900  0.296800  0.358900  1
  H  H496  1  0.195100  0.703200  0.641100  1
  H  H497  1  0.839400  0.254600  0.401900  1
  H  H498  1  0.160600  0.745400  0.598100  1
  H  H499  1  0.856200  0.309100  0.381200  1
  H  H500  1  0.143800  0.690900  0.618800  1
  H  H501  1  0.295500  0.467200  0.089300  1
  H  H502  1  0.704500  0.532800  0.910700  1
  H  H503  1  0.293900  0.417900  0.134200  1
  H  H504  1  0.706100  0.582100  0.865800  1
  H  H505  1  0.340000  0.452200  0.131000  1
  H  H506  1  0.660000  0.547800  0.869000  1
  H  H507  1  0.322700  0.458900  0.206900  1
  H  H508  1  0.677300  0.541100  0.793100  1
  H  H509  1  0.285100  0.417300  0.211400  1
  H  H510  1  0.714900  0.582700  0.788600  1
  H  H511  1  0.262700  0.463300  0.225100  1
  H  H512  1  0.737300  0.536700  0.774900  1
  H  H513  1  0.191800  0.590200  0.287500  1
  H  H514  1  0.808200  0.409800  0.712500  1
  H  H515  1  0.215100  0.575100  0.246400  1
  H  H516  1  0.784900  0.424900  0.753600  1
  H  H517  1  0.248400  0.606200  0.266600  1
  H  H518  1  0.751600  0.393800  0.733400  1
  H  H519  1  0.181200  0.528900  0.346700  1
  H  H520  1  0.818800  0.471100  0.653300  1
  H  H521  1  0.228600  0.537600  0.376100  1
  H  H522  1  0.771400  0.462400  0.623900  1
  H  H523  1  0.222300  0.482600  0.380200  1
  H  H524  1  0.777700  0.517400  0.619800  1
  H  H525  1  0.803100  0.435100  0.971700  1
  H  H526  1  0.196900  0.564900  0.028300  1
  H  H527  1  0.856500  0.460700  0.970500  1
  H  H528  1  0.143500  0.539300  0.029500  1
  H  H529  1  0.803700  0.491700  0.938400  1
  H  H530  1  0.196300  0.508300  0.061600  1
  H  H531  1  0.750100  0.420300  0.054600  1
  H  H532  1  0.249900  0.579700  0.945400  1
  H  H533  1  0.809200  0.416100  0.077200  1
  H  H534  1  0.190800  0.583900  0.922800  1
  H  H535  1  0.802900  0.401200  0.033600  1
  H  H536  1  0.197100  0.598800  0.966400  1
  H  H537  1  0.542000  0.222000  0.203000  1
  H  H538  1  0.458000  0.778000  0.797000  1
  H  H539  1  0.556000  0.175000  0.208000  1
  H  H540  1  0.444000  0.825000  0.792000  1
  H  H541  1  0.470000  0.753000  0.288000  1
  H  H542  1  0.530000  0.247000  0.712000  1
  H  H543  1  0.453000  0.800000  0.278000  1
  H  H544  1  0.547000  0.200000  0.722000  1
  H  H545  1  0.050000  0.225000  0.200000  1
  H  H546  1  0.950000  0.775000  0.800000  1
  H  H547  1  0.040000  0.187800  0.237000  1
  H  H548  1  0.960000  0.812200  0.763000  1
  Pd  Pd549  1  0.630451  0.257210  0.318693  1
  Pd  Pd550  1  0.369549  0.742790  0.681307  1
  Pd  Pd551  1  0.648767  0.268063  0.058300  1
  Pd  Pd552  1  0.351233  0.731937  0.941700  1
  Pd  Pd553  1  0.148570  0.272923  0.310034  1
  Pd  Pd554  1  0.851430  0.727077  0.689966  1
  Pd  Pd555  1  0.132850  0.244620  0.066516  1
  Pd  Pd556  1  0.867150  0.755380  0.933484  1
  Pd  Pd557  1  0.122310  0.265090  0.824912  1
  Pd  Pd558  1  0.877690  0.734910  0.175088  1
  Pd  Pd559  1  0.143740  0.286346  0.561319  1
  Pd  Pd560  1  0.856260  0.713654  0.438681  1
  Pd  Pd561  1  0.356687  0.726619  0.182631  1
  Pd  Pd562  1  0.643313  0.273381  0.817369  1
  Pd  Pd563  1  0.370810  0.741501  0.433139  1
  Pd  Pd564  1  0.629190  0.258499  0.566861  1
  C  C565  1  0.638400  0.169700  0.057100  1
  C  C566  1  0.361600  0.830300  0.942900  1
  C  C567  1  0.648400  0.120200  0.067600  1
  C  C568  1  0.351600  0.879800  0.932400  1
  C  C569  1  0.676600  0.091700  0.108900  1
  C  C570  1  0.323400  0.908300  0.891100  1
  C  C571  1  0.695500  0.114800  0.136800  1
  C  C572  1  0.304500  0.885200  0.863200  1
  C  C573  1  0.681800  0.165500  0.122900  1
  C  C574  1  0.318200  0.834500  0.877100  1
  C  C575  1  0.760900  0.045800  0.187700  1
  C  C576  1  0.239100  0.954200  0.812300  1
  C  C577  1  0.798200  0.032400  0.229600  1
  C  C578  1  0.201800  0.967600  0.770400  1
  C  C579  1  0.837700  0.990000  0.240400  1
  C  C580  1  0.162300  0.010000  0.759600  1
  C  C581  1  0.872600  0.978900  0.278500  1
  C  C582  1  0.127400  0.021100  0.721500  1
  C  C583  1  0.868600  0.008000  0.304000  1
  C  C584  1  0.131400  0.992000  0.696000  1
  C  C585  1  0.827300  0.047600  0.290500  1
  C  C586  1  0.172700  0.952400  0.709500  1
  C  C587  1  0.822800  0.080200  0.318500  1
  C  C588  1  0.177200  0.919800  0.681500  1
  C  C589  1  0.760300  0.139300  0.339000  1
  C  C590  1  0.239700  0.860700  0.661000  1
  C  C591  1  0.788900  0.137000  0.378100  1
  C  C592  1  0.211100  0.863000  0.621900  1
  C  C593  1  0.772100  0.170800  0.397000  1
  C  C594  1  0.227900  0.829200  0.603000  1
  C  C595  1  0.727200  0.205700  0.378800  1
  C  C596  1  0.272800  0.794300  0.621200  1
  C  C597  1  0.715500  0.174400  0.322900  1
  C  C598  1  0.284500  0.825600  0.677100  1
  C  C599  1  0.759200  0.239200  0.035000  1
  C  C600  1  0.240800  0.760800  0.965000  1
  C  C601  1  0.814400  0.235900  0.035600  1
  C  C602  1  0.185600  0.764100  0.964400  1
  C  C603  1  0.843000  0.253300  0.061500  1
  C  C604  1  0.157000  0.746700  0.938500  1
  C  C605  1  0.815000  0.275200  0.089100  1
  C  C606  1  0.185000  0.724800  0.910900  1
  C  C607  1  0.758600  0.278500  0.087600  1
  C  C608  1  0.241400  0.721500  0.912400  1
  C  C609  1  0.891900  0.296400  0.123700  1
  C  C610  1  0.108100  0.703600  0.876300  1
  C  C611  1  0.906900  0.321400  0.154300  1
  C  C612  1  0.093100  0.678600  0.845700  1
  C  C613  1  0.960200  0.331400  0.155800  1
  C  C614  1  0.039800  0.668600  0.844200  1
  C  C615  1  0.973100  0.358100  0.180900  1
  C  C616  1  0.026900  0.641900  0.819100  1
  C  C617  1  0.934500  0.370900  0.207200  1
  C  C618  1  0.065500  0.629100  0.792800  1
  C  C619  1  0.881300  0.358200  0.206100  1
  C  C620  1  0.118700  0.641800  0.793900  1
  C  C621  1  0.841400  0.368100  0.237800  1
  C  C622  1  0.158600  0.631900  0.762200  1
  C  C623  1  0.748600  0.353100  0.266400  1
  C  C624  1  0.251400  0.646900  0.733600  1
  C  C625  1  0.742500  0.387200  0.287900  1
  C  C626  1  0.257500  0.612800  0.712100  1
  C  C627  1  0.699600  0.380600  0.319500  1
  C  C628  1  0.300400  0.619400  0.680500  1
  C  C629  1  0.669900  0.344100  0.327900  1
  C  C630  1  0.330100  0.655900  0.672100  1
  C  C631  1  0.716200  0.318700  0.274600  1
  C  C632  1  0.283800  0.681300  0.725400  1
  C  C633  1  0.669800  0.365200  0.993000  1
  C  C634  1  0.330200  0.634800  0.007000  1
  C  C635  1  0.668200  0.414400  0.973400  1
  C  C636  1  0.331800  0.585600  0.026600  1
  C  C637  1  0.639300  0.445200  0.994300  1
  C  C638  1  0.360700  0.554800  0.005700  1
  C  C639  1  0.613900  0.422100  0.034600  1
  C  C640  1  0.386100  0.577900  0.965400  1
  C  C641  1  0.618400  0.371200  0.051900  1
  C  C642  1  0.381600  0.628800  0.948100  1
  C  C643  1  0.555400  0.495700  0.036500  1
  C  C644  1  0.444600  0.504300  0.963500  1
  C  C645  1  0.518000  0.510900  0.068000  1
  C  C646  1  0.482000  0.489100  0.932000  1
  C  C647  1  0.492200  0.559200  0.052800  1
  C  C648  1  0.507800  0.440800  0.947200  1
  C  C649  1  0.455400  0.572200  0.080100  1
  C  C650  1  0.544600  0.427800  0.919900  1
  C  C651  1  0.444100  0.537200  0.120800  1
  C  C652  1  0.555900  0.462800  0.879200  1
  C  C653  1  0.471900  0.490100  0.134700  1
  C  C654  1  0.528100  0.509900  0.865300  1
  C  C655  1  0.463000  0.451900  0.180400  1
  C  C656  1  0.537000  0.548100  0.819600  1
  C  C657  1  0.509300  0.379400  0.245600  1
  C  C658  1  0.490700  0.620600  0.754400  1
  C  C659  1  0.473400  0.380800  0.279400  1
  C  C660  1  0.526600  0.619200  0.720600  1
  C  C661  1  0.482700  0.344800  0.323100  1
  C  C662  1  0.517300  0.655200  0.676900  1
  C  C663  1  0.527100  0.309200  0.332700  1
  C  C664  1  0.472900  0.690800  0.667300  1
  C  C665  1  0.552400  0.343100  0.256800  1
  C  C666  1  0.447600  0.656900  0.743200  1
  C  C667  1  0.543200  0.297600  0.008700  1
  C  C668  1  0.456800  0.702400  0.991300  1
  C  C669  1  0.488700  0.301000  0.001300  1
  C  C670  1  0.511300  0.699000  0.998700  1
  C  C671  1  0.456100  0.282000  0.035700  1
  C  C672  1  0.543900  0.718000  0.964300  1
  C  C673  1  0.479000  0.258600  0.080200  1
  C  C674  1  0.521000  0.741400  0.919800  1
  C  C675  1  0.535200  0.255600  0.086700  1
  C  C676  1  0.464800  0.744400  0.913300  1
  C  C677  1  0.395000  0.233900  0.120600  1
  C  C678  1  0.605000  0.766100  0.879400  1
  C  C679  1  0.372900  0.211300  0.166300  1
  C  C680  1  0.627100  0.788700  0.833700  1
  C  C681  1  0.317400  0.208600  0.169800  1
  C  C682  1  0.682600  0.791400  0.830200  1
  C  C683  1  0.296400  0.188800  0.211500  1
  C  C684  1  0.703600  0.811200  0.788500  1
  C  C685  1  0.330800  0.171500  0.250800  1
  C  C686  1  0.669200  0.828500  0.749200  1
  C  C687  1  0.385300  0.175600  0.246100  1
  C  C688  1  0.614700  0.824400  0.753900  1
  C  C689  1  0.422600  0.161000  0.288200  1
  C  C690  1  0.577400  0.839000  0.711800  1
  C  C691  1  0.513400  0.165900  0.312800  1
  C  C692  1  0.486600  0.834100  0.687200  1
  C  C693  1  0.516600  0.125800  0.355200  1
  C  C694  1  0.483400  0.874200  0.644800  1
  C  C695  1  0.560800  0.124200  0.386400  1
  C  C696  1  0.439200  0.875800  0.613600  1
  C  C697  1  0.592000  0.161800  0.374900  1
  C  C698  1  0.408000  0.838200  0.625100  1
  C  C699  1  0.545800  0.201800  0.304100  1
  C  C700  1  0.454200  0.798200  0.695900  1
  C  C701  1  0.090000  0.150800  0.076800  1
  C  C702  1  0.910000  0.849200  0.923200  1
  C  C703  1  0.057000  0.115900  0.091700  1
  C  C704  1  0.943000  0.884100  0.908300  1
  C  C705  1  0.015800  0.118500  0.120100  1
  C  C706  1  0.984200  0.881500  0.879900  1
  C  C707  1  0.010000  0.158400  0.133800  1
  C  C708  1  0.990000  0.841600  0.866200  1
  C  C709  1  0.045100  0.192600  0.118500  1
  C  C710  1  0.954900  0.807400  0.881500  1
  C  C711  1  0.919100  0.154900  0.165600  1
  C  C712  1  0.080900  0.845100  0.834400  1
  C  C713  1  0.882900  0.174000  0.195200  1
  C  C714  1  0.117100  0.826000  0.804800  1
  C  C715  1  0.827500  0.171500  0.193200  1
  C  C716  1  0.172500  0.828500  0.806800  1
  C  C717  1  0.793900  0.193100  0.216800  1
  C  C718  1  0.206100  0.806900  0.783200  1
  C  C719  1  0.815800  0.212400  0.244600  1
  C  C720  1  0.184200  0.787600  0.755400  1
  C  C721  1  0.871300  0.213400  0.245500  1
  C  C722  1  0.128700  0.786600  0.754500  1
  C  C723  1  0.894700  0.236400  0.275800  1
  C  C724  1  0.105300  0.763600  0.724200  1
  C  C725  1  0.980000  0.262000  0.296500  1
  C  C726  1  0.020000  0.738000  0.703500  1
  C  C727  1  0.955600  0.290300  0.321200  1
  C  C728  1  0.044400  0.709700  0.678800  1
  C  C729  1  0.986800  0.311600  0.340400  1
  C  C730  1  0.013200  0.688400  0.659600  1
  C  C731  1  0.041700  0.306200  0.336300  1
  C  C732  1  0.958300  0.693800  0.663700  1
  C  C733  1  0.036000  0.258100  0.293000  1
  C  C734  1  0.964000  0.741900  0.707000  1
  C  C735  1  0.235900  0.193400  0.052500  1
  C  C736  1  0.764100  0.806600  0.947500  1
  C  C737  1  0.282400  0.158600  0.063100  1
  C  C738  1  0.717600  0.841400  0.936900  1
  C  C739  1  0.292600  0.124500  0.106200  1
  C  C740  1  0.707400  0.875500  0.893800  1
  C  C741  1  0.256800  0.124500  0.141600  1
  C  C742  1  0.743200  0.875500  0.858400  1
  C  C743  1  0.210900  0.161000  0.128900  1
  C  C744  1  0.789100  0.839000  0.871100  1
  C  C745  1  0.299500  0.049100  0.206200  1
  C  C746  1  0.700500  0.950900  0.793800  1
  C  C747  1  0.306400  0.023500  0.256600  1
  C  C748  1  0.693600  0.976500  0.743400  1
  C  C749  1  0.337400  0.977700  0.274400  1
  C  C750  1  0.662600  0.022300  0.725600  1
  C  C751  1  0.342200  0.952900  0.322100  1
  C  C752  1  0.657800  0.047100  0.677900  1
  C  C753  1  0.314300  0.972900  0.349900  1
  C  C754  1  0.685700  0.027100  0.650100  1
  C  C755  1  0.282100  0.020100  0.327600  1
  C  C756  1  0.717900  0.979900  0.672400  1
  C  C757  1  0.252800  0.041500  0.359100  1
  C  C758  1  0.747200  0.958500  0.640900  1
  C  C759  1  0.192100  0.116200  0.356200  1
  C  C760  1  0.807900  0.883800  0.643800  1
  C  C761  1  0.172800  0.097500  0.400300  1
  C  C762  1  0.827200  0.902500  0.599700  1
  C  C763  1  0.144600  0.132300  0.416500  1
  C  C764  1  0.855400  0.867700  0.583500  1
  C  C765  1  0.134700  0.182400  0.388900  1
  C  C766  1  0.865300  0.817600  0.611100  1
  C  C767  1  0.180200  0.166800  0.330700  1
  C  C768  1  0.819800  0.833200  0.669300  1
  C  C769  1  0.168900  0.333600  0.996100  1
  C  C770  1  0.831100  0.666400  0.003900  1
  C  C771  1  0.196900  0.372200  0.976900  1
  C  C772  1  0.803100  0.627800  0.023100  1
  C  C773  1  0.237500  0.378200  0.003200  1
  C  C774  1  0.762500  0.621800  0.996800  1
  C  C775  1  0.248800  0.345700  0.047200  1
  C  C776  1  0.751200  0.654300  0.952800  1
  C  C777  1  0.217700  0.308000  0.065600  1
  C  C778  1  0.782300  0.692000  0.934400  1
  C  C779  1  0.338400  0.364300  0.061700  1
  C  C780  1  0.661600  0.635700  0.938300  1
  C  C781  1  0.380700  0.355500  0.099100  1
  C  C782  1  0.619300  0.644500  0.900900  1
  C  C783  1  0.431800  0.370500  0.086700  1
  C  C784  1  0.568200  0.629500  0.913300  1
  C  C785  1  0.472600  0.357600  0.121800  1
  C  C786  1  0.527400  0.642400  0.878200  1
  C  C787  1  0.459900  0.332500  0.166600  1
  C  C788  1  0.540100  0.667500  0.833400  1
  C  C789  1  0.407100  0.323200  0.175500  1
  C  C790  1  0.592900  0.676800  0.824500  1
  C  C791  1  0.392800  0.298800  0.225300  1
  C  C792  1  0.607200  0.701200  0.774700  1
  C  C793  1  0.315800  0.278600  0.274200  1
  C  C794  1  0.684200  0.721400  0.725800  1
  C  C795  1  0.342900  0.256300  0.316600  1
  C  C796  1  0.657100  0.743700  0.683400  1
  C  C797  1  0.314500  0.239900  0.356800  1
  C  C798  1  0.685500  0.760100  0.643200  1
  C  C799  1  0.258900  0.245100  0.353200  1
  C  C800  1  0.741100  0.754900  0.646800  1
  C  C801  1  0.258800  0.282300  0.273700  1
  C  C802  1  0.741200  0.717700  0.726300  1
  C  C803  1  0.027900  0.290600  0.015100  1
  C  C804  1  0.972100  0.709400  0.984900  1
  C  C805  1  0.981500  0.323000  0.999900  1
  C  C806  1  0.018500  0.677000  0.000100  1
  C  C807  1  0.972900  0.363400  0.012400  1
  C  C808  1  0.027100  0.636600  0.987600  1
  C  C809  1  0.011000  0.368900  0.042500  1
  C  C810  1  0.989000  0.631100  0.957500  1
  C  C811  1  0.056300  0.332900  0.058200  1
  C  C812  1  0.943700  0.667100  0.941800  1
  C  C813  1  0.967000  0.446600  0.048200  1
  C  C814  1  0.033000  0.553400  0.951800  1
  C  C815  1  0.973500  0.484800  0.066800  1
  C  C816  1  0.026500  0.515200  0.933200  1
  C  C817  1  0.941300  0.530200  0.050200  1
  C  C818  1  0.058700  0.469800  0.949800  1
  C  C819  1  0.949900  0.565100  0.066500  1
  C  C820  1  0.050100  0.434900  0.933500  1
  C  C821  1  0.990800  0.554800  0.099100  1
  C  C822  1  0.009200  0.445200  0.900900  1
  C  C823  1  0.022500  0.509300  0.115200  1
  C  C824  1  0.977500  0.490700  0.884800  1
  C  C825  1  0.062900  0.496600  0.154000  1
  C  C826  1  0.937100  0.503400  0.846000  1
  C  C827  1  0.117800  0.424600  0.214200  1
  C  C828  1  0.882200  0.575400  0.785800  1
  C  C829  1  0.141900  0.450400  0.237000  1
  C  C830  1  0.858100  0.549600  0.763000  1
  C  C831  1  0.168700  0.422400  0.278600  1
  C  C832  1  0.831300  0.577600  0.721400  1
  C  C833  1  0.170200  0.372300  0.299400  1
  C  C834  1  0.829800  0.627700  0.700600  1
  C  C835  1  0.122100  0.373400  0.235400  1
  C  C836  1  0.877900  0.626600  0.764600  1
  C  C837  1  0.166500  0.387400  0.504300  1
  C  C838  1  0.833500  0.612600  0.495700  1
  C  C839  1  0.161700  0.439000  0.488500  1
  C  C840  1  0.838300  0.561000  0.511500  1
  C  C841  1  0.127300  0.464500  0.508400  1
  C  C842  1  0.872700  0.535500  0.491600  1
  C  C843  1  0.099000  0.437800  0.545700  1
  C  C844  1  0.901000  0.562200  0.454300  1
  C  C845  1  0.105800  0.387500  0.560500  1
  C  C846  1  0.894200  0.612500  0.439500  1
  C  C847  1  0.031700  0.506700  0.549300  1
  C  C848  1  0.968300  0.493300  0.450700  1
  C  C849  1  0.993000  0.518800  0.580300  1
  C  C850  1  0.007000  0.481200  0.419700  1
  C  C851  1  0.962000  0.564900  0.564300  1
  C  C852  1  0.038000  0.435100  0.435700  1
  C  C853  1  0.923800  0.577200  0.591400  1
  C  C854  1  0.076200  0.422800  0.408600  1
  C  C855  1  0.918600  0.541600  0.633900  1
  C  C856  1  0.081400  0.458400  0.366100  1
  C  C857  1  0.952300  0.495300  0.649300  1
  C  C858  1  0.047700  0.504700  0.350700  1
  C  C859  1  0.946400  0.457500  0.696500  1
  C  C860  1  0.053600  0.542500  0.303500  1
  C  C861  1  0.997300  0.385800  0.758300  1
  C  C862  1  0.002700  0.614200  0.241700  1
  C  C863  1  0.961300  0.384200  0.793100  1
  C  C864  1  0.038700  0.615800  0.206900  1
  C  C865  1  0.973400  0.346200  0.835500  1
  C  C866  1  0.026600  0.653800  0.164500  1
  C  C867  1  0.018500  0.312500  0.843000  1
  C  C868  1  0.981500  0.687500  0.157000  1
  C  C869  1  0.041800  0.350100  0.767600  1
  C  C870  1  0.958200  0.649900  0.232400  1
  C  C871  1  0.039500  0.309900  0.510500  1
  C  C872  1  0.960500  0.690100  0.489500  1
  C  C873  1  0.984800  0.311400  0.502700  1
  C  C874  1  0.015200  0.688600  0.497300  1
  C  C875  1  0.951000  0.295500  0.537100  1
  C  C876  1  0.049000  0.704500  0.462900  1
  C  C877  1  0.974800  0.274100  0.583000  1
  C  C878  1  0.025200  0.725900  0.417000  1
  C  C879  1  0.029700  0.272900  0.589500  1
  C  C880  1  0.970300  0.727100  0.410500  1
  C  C881  1  0.889700  0.249100  0.622400  1
  C  C882  1  0.110300  0.750900  0.377600  1
  C  C883  1  0.867800  0.224200  0.668300  1
  C  C884  1  0.132200  0.775800  0.331700  1
  C  C885  1  0.812700  0.218800  0.670800  1
  C  C886  1  0.187300  0.781200  0.329200  1
  C  C887  1  0.791600  0.196600  0.713000  1
  C  C888  1  0.208400  0.803400  0.287000  1
  C  C889  1  0.826300  0.178700  0.752100  1
  C  C890  1  0.173700  0.821300  0.247900  1
  C  C891  1  0.880500  0.185000  0.747400  1
  C  C892  1  0.119500  0.815000  0.252600  1
  C  C893  1  0.918600  0.168100  0.789600  1
  C  C894  1  0.081400  0.831900  0.210400  1
  C  C895  1  0.008900  0.172800  0.814400  1
  C  C896  1  0.991100  0.827200  0.185600  1
  C  C897  1  0.015400  0.130400  0.853500  1
  C  C898  1  0.984600  0.869600  0.146500  1
  C  C899  1  0.060000  0.128800  0.885800  1
  C  C900  1  0.940000  0.871200  0.114200  1
  C  C901  1  0.087400  0.165600  0.877000  1
  C  C902  1  0.912600  0.834400  0.123000  1
  C  C903  1  0.040800  0.210100  0.808500  1
  C  C904  1  0.959200  0.789900  0.191500  1
  C  C905  1  0.136000  0.190800  0.553400  1
  C  C906  1  0.864000  0.809200  0.446600  1
  C  C907  1  0.147300  0.141100  0.564100  1
  C  C908  1  0.852700  0.858900  0.435900  1
  C  C909  1  0.173600  0.110400  0.605200  1
  C  C910  1  0.826400  0.889600  0.394800  1
  C  C911  1  0.190200  0.132400  0.634700  1
  C  C912  1  0.809800  0.867600  0.365300  1
  C  C913  1  0.177900  0.181700  0.623400  1
  C  C914  1  0.822100  0.818300  0.376600  1
  C  C915  1  0.254700  0.063700  0.685200  1
  C  C916  1  0.745300  0.936300  0.314800  1
  C  C917  1  0.292000  0.047600  0.728500  1
  C  C918  1  0.708000  0.952400  0.271500  1
  C  C919  1  0.331600  0.005500  0.738900  1
  C  C920  1  0.668400  0.994500  0.261100  1
  C  C921  1  0.367500  0.994300  0.775500  1
  C  C922  1  0.632500  0.005700  0.224500  1
  C  C923  1  0.362600  0.023400  0.801400  1
  C  C924  1  0.637400  0.976600  0.198600  1
  C  C925  1  0.322400  0.062200  0.789400  1
  C  C926  1  0.677600  0.937800  0.210600  1
  C  C927  1  0.318200  0.093700  0.818100  1
  C  C928  1  0.681800  0.906300  0.181900  1
  C  C929  1  0.254400  0.151100  0.840300  1
  C  C930  1  0.745600  0.848900  0.159700  1
  C  C931  1  0.282900  0.146300  0.881200  1
  C  C932  1  0.717100  0.853700  0.118800  1
  C  C933  1  0.266000  0.180600  0.900400  1
  C  C934  1  0.734000  0.819400  0.099600  1
  C  C935  1  0.220600  0.214700  0.882700  1
  C  C936  1  0.779400  0.785300  0.117300  1
  C  C937  1  0.207500  0.185700  0.824500  1
  C  C938  1  0.792500  0.814300  0.175500  1
  C  C939  1  0.254600  0.260200  0.537300  1
  C  C940  1  0.745400  0.739800  0.462700  1
  C  C941  1  0.311000  0.257000  0.538400  1
  C  C942  1  0.689000  0.743000  0.461600  1
  C  C943  1  0.338400  0.274200  0.565700  1
  C  C944  1  0.661600  0.725800  0.434300  1
  C  C945  1  0.310300  0.295000  0.594000  1
  C  C946  1  0.689700  0.705000  0.406000  1
  C  C947  1  0.253300  0.296900  0.591600  1
  C  C948  1  0.746700  0.703100  0.408400  1
  C  C949  1  0.388000  0.312300  0.630800  1
  C  C950  1  0.612000  0.687700  0.369200  1
  C  C951  1  0.401200  0.335500  0.664400  1
  C  C952  1  0.598800  0.664500  0.335600  1
  C  C953  1  0.455100  0.343400  0.668500  1
  C  C954  1  0.544900  0.656600  0.331500  1
  C  C955  1  0.467500  0.366100  0.695600  1
  C  C956  1  0.532500  0.633900  0.304400  1
  C  C957  1  0.428700  0.376400  0.724200  1
  C  C958  1  0.571300  0.623600  0.275800  1
  C  C959  1  0.375700  0.367100  0.718300  1
  C  C960  1  0.624300  0.632900  0.281700  1
  C  C961  1  0.333500  0.375300  0.750000  1
  C  C962  1  0.666500  0.624700  0.250000  1
  C  C963  1  0.239900  0.361800  0.774600  1
  C  C964  1  0.760100  0.638200  0.225400  1
  C  C965  1  0.229400  0.397700  0.793200  1
  C  C966  1  0.770600  0.602300  0.206800  1
  C  C967  1  0.186300  0.393800  0.822200  1
  C  C968  1  0.813700  0.606200  0.177800  1
  C  C969  1  0.155100  0.355600  0.831600  1
  C  C970  1  0.844900  0.644400  0.168400  1
  C  C971  1  0.208600  0.325600  0.783300  1
  C  C972  1  0.791400  0.674400  0.216700  1
  C  C973  1  0.340300  0.628600  0.184100  1
  C  C974  1  0.659700  0.371400  0.815900  1
  C  C975  1  0.344300  0.578600  0.199200  1
  C  C976  1  0.655700  0.421400  0.800800  1
  C  C977  1  0.369500  0.550100  0.241100  1
  C  C978  1  0.630500  0.449900  0.758900  1
  C  C979  1  0.390300  0.573200  0.268700  1
  C  C980  1  0.609700  0.426800  0.731300  1
  C  C981  1  0.383700  0.624100  0.252500  1
  C  C982  1  0.616300  0.375900  0.747500  1
  C  C983  1  0.442000  0.499300  0.328400  1
  C  C984  1  0.558000  0.500700  0.671600  1
  C  C985  1  0.480600  0.483400  0.369400  1
  C  C986  1  0.519400  0.516600  0.630600  1
  C  C987  1  0.508700  0.436000  0.385900  1
  C  C988  1  0.491300  0.564000  0.614100  1
  C  C989  1  0.545100  0.420700  0.424300  1
  C  C990  1  0.454900  0.579300  0.575700  1
  C  C991  1  0.551200  0.454400  0.444200  1
  C  C992  1  0.448800  0.545600  0.555800  1
  C  C993  1  0.521900  0.502200  0.424000  1
  C  C994  1  0.478100  0.497800  0.576000  1
  C  C995  1  0.532100  0.538700  0.445200  1
  C  C996  1  0.467900  0.461300  0.554800  1
  C  C997  1  0.492600  0.618000  0.449400  1
  C  C998  1  0.507400  0.382000  0.550600  1
  C  C999  1  0.532100  0.624300  0.476300  1
  C  C1000  1  0.467900  0.375700  0.523700  1
  C  C1001  1  0.524700  0.661100  0.492000  1
  C  C1002  1  0.475300  0.338900  0.508000  1
  C  C1003  1  0.477000  0.693800  0.481500  1
  C  C1004  1  0.523000  0.306200  0.518500  1
  C  C1005  1  0.446000  0.653100  0.437500  1
  C  C1006  1  0.554000  0.346900  0.562500  1
  C  C1007  1  0.462400  0.695400  0.153800  1
  C  C1008  1  0.537600  0.304600  0.846200  1
  C  C1009  1  0.517100  0.691300  0.148300  1
  C  C1010  1  0.482900  0.308700  0.851700  1
  C  C1011  1  0.550200  0.710100  0.168900  1
  C  C1012  1  0.449800  0.289900  0.831100  1
  C  C1013  1  0.526300  0.735900  0.196200  1
  C  C1014  1  0.473700  0.264100  0.803800  1
  C  C1015  1  0.470100  0.739500  0.200200  1
  C  C1016  1  0.529900  0.260500  0.799800  1
  C  C1017  1  0.611400  0.758600  0.220500  1
  C  C1018  1  0.388600  0.241400  0.779500  1
  C  C1019  1  0.634700  0.777300  0.252700  1
  C  C1020  1  0.365300  0.222700  0.747300  1
  C  C1021  1  0.691200  0.775800  0.256200  1
  C  C1022  1  0.308800  0.224200  0.743800  1
  C  C1023  1  0.712900  0.794800  0.285000  1
  C  C1024  1  0.287100  0.205200  0.715000  1
  C  C1025  1  0.679300  0.813800  0.311000  1
  C  C1026  1  0.320700  0.186200  0.689000  1
  C  C1027  1  0.623200  0.812200  0.307900  1
  C  C1028  1  0.376800  0.187800  0.692100  1
  C  C1029  1  0.587100  0.830200  0.337600  1
  C  C1030  1  0.412900  0.169800  0.662400  1
  C  C1031  1  0.495400  0.826100  0.368100  1
  C  C1032  1  0.504600  0.173900  0.631900  1
  C  C1033  1  0.491700  0.864700  0.383200  1
  C  C1034  1  0.508300  0.135300  0.616800  1
  C  C1035  1  0.448800  0.869200  0.411200  1
  C  C1036  1  0.551200  0.130800  0.588800  1
  C  C1037  1  0.414300  0.833900  0.424800  1
  C  C1038  1  0.585700  0.166100  0.575200  1
  C  C1039  1  0.460100  0.792800  0.381900  1
  C  C1040  1  0.539900  0.207200  0.618100  1
  C  C1041  1  0.373200  0.821700  0.110100  1
  C  C1042  1  0.626800  0.178300  0.889900  1
  C  C1043  1  0.364000  0.872600  0.086400  1
  C  C1044  1  0.636000  0.127400  0.913600  1
  C  C1045  1  0.333800  0.903200  0.104300  1
  C  C1046  1  0.666200  0.096800  0.895700  1
  C  C1047  1  0.311700  0.882500  0.147000  1
  C  C1048  1  0.688300  0.117500  0.853000  1
  C  C1049  1  0.322700  0.830700  0.169800  1
  C  C1050  1  0.677300  0.169300  0.830200  1
  C  C1051  1  0.248100  0.952700  0.149000  1
  C  C1052  1  0.751900  0.047300  0.851000  1
  C  C1053  1  0.217800  0.973400  0.178700  1
  C  C1054  1  0.782200  0.026600  0.821300  1
  C  C1055  1  0.183900  0.017200  0.157800  1
  C  C1056  1  0.816100  0.982800  0.842200  1
  C  C1057  1  0.156100  0.036800  0.187900  1
  C  C1058  1  0.843900  0.963200  0.812100  1
  C  C1059  1  0.161400  0.010500  0.235300  1
  C  C1060  1  0.838600  0.989500  0.764700  1
  C  C1061  1  0.194600  0.965200  0.252500  1
  C  C1062  1  0.805400  0.034800  0.747500  1
  C  C1063  1  0.201000  0.938300  0.302700  1
  C  C1064  1  0.799000  0.061700  0.697300  1
  C  C1065  1  0.247300  0.862400  0.364700  1
  C  C1066  1  0.752700  0.137600  0.635300  1
  C  C1067  1  0.214500  0.863200  0.400400  1
  C  C1068  1  0.785500  0.136800  0.599600  1
  C  C1069  1  0.225600  0.829600  0.442600  1
  C  C1070  1  0.774400  0.170400  0.557400  1
  C  C1071  1  0.271500  0.792800  0.452200  1
  C  C1072  1  0.728500  0.207200  0.547800  1
  C  C1073  1  0.291100  0.826400  0.374200  1
  C  C1074  1  0.708900  0.173600  0.625800  1
  C  C1075  1  0.245900  0.755700  0.141000  1
  C  C1076  1  0.754100  0.244300  0.859000  1
  C  C1077  1  0.191500  0.760300  0.137400  1
  C  C1078  1  0.808500  0.239700  0.862600  1
  C  C1079  1  0.162800  0.741600  0.177500  1
  C  C1080  1  0.837200  0.258400  0.822500  1
  C  C1081  1  0.191000  0.718200  0.220400  1
  C  C1082  1  0.809000  0.281800  0.779600  1
  C  C1083  1  0.246900  0.714500  0.220200  1
  C  C1084  1  0.753100  0.285500  0.779800  1
  C  C1085  1  0.114400  0.692800  0.270000  1
  C  C1086  1  0.885600  0.307200  0.730000  1
  C  C1087  1  0.100500  0.666100  0.318000  1
  C  C1088  1  0.899500  0.333900  0.682000  1
  C  C1089  1  0.046800  0.657900  0.325800  1
  C  C1090  1  0.953200  0.342100  0.674200  1
  C  C1091  1  0.035400  0.630100  0.371600  1
  C  C1092  1  0.964600  0.369900  0.628400  1
  C  C1093  1  0.075000  0.614100  0.406400  1
  C  C1094  1  0.925000  0.385900  0.593600  1
  C  C1095  1  0.127200  0.626700  0.394200  1
  C  C1096  1  0.872800  0.373300  0.605800  1
  C  C1097  1  0.169100  0.615300  0.432300  1
  C  C1098  1  0.830900  0.384700  0.567700  1
  C  C1099  1  0.254500  0.640600  0.451200  1
  C  C1100  1  0.745500  0.359400  0.548800  1
  C  C1101  1  0.261500  0.610500  0.497000  1
  C  C1102  1  0.738500  0.389500  0.503000  1
  C  C1103  1  0.299100  0.619800  0.523500  1
  C  C1104  1  0.700900  0.380200  0.476500  1
  C  C1105  1  0.329300  0.657700  0.504300  1
  C  C1106  1  0.670700  0.342300  0.495700  1
  C  C1107  1  0.287500  0.677100  0.433000  1
  C  C1108  1  0.712500  0.322900  0.567000  1
  C  C1109  1  0.704200  0.517800  0.510500  1
  C  C1110  1  0.295800  0.482200  0.489500  1
  C  C1111  1  0.633300  0.544300  0.564300  1
  C  C1112  1  0.366700  0.455700  0.435700  1
  C  C1113  1  0.312300  0.282300  0.973800  1
  C  C1114  1  0.687700  0.717700  0.026200  1
  C  C1115  1  0.306000  0.307100  0.888600  1
  C  C1116  1  0.694000  0.692900  0.111400  1
  C  C1117  1  0.949900  0.195800  0.997400  1
  C  C1118  1  0.050100  0.804200  0.002600  1
  C  C1119  1  0.946700  0.208700  0.917400  1
  C  C1120  1  0.053300  0.791300  0.082600  1
  C  C1121  1  0.943600  0.974300  0.979700  1
  C  C1122  1  0.056400  0.025700  0.020300  1
  C  C1123  1  0.952100  0.005000  0.887100  1
  C  C1124  1  0.047900  0.995000  0.112900  1
  C  C1125  1  0.864200  0.439900  0.421500  1
  C  C1126  1  0.135800  0.560100  0.578500  1
  C  C1127  1  0.855900  0.441100  0.337700  1
  C  C1128  1  0.144100  0.558900  0.662300  1
  C  C1129  1  0.834600  0.094300  0.074300  1
  C  C1130  1  0.165400  0.905700  0.925700  1
  C  C1131  1  0.895400  0.029500  0.126500  1
  C  C1132  1  0.104600  0.970500  0.873500  1
  C  C1133  1  0.828800  0.291300  0.472000  1
  C  C1134  1  0.171200  0.708700  0.528000  1
  C  C1135  1  0.825600  0.290000  0.387700  1
  C  C1136  1  0.174400  0.710000  0.612300  1
  C  C1137  1  0.301900  0.452100  0.122900  1
  C  C1138  1  0.698100  0.547900  0.877100  1
  C  C1139  1  0.285300  0.452800  0.203900  1
  C  C1140  1  0.714700  0.547200  0.796100  1
  C  C1141  1  0.224900  0.580200  0.274300  1
  C  C1142  1  0.775100  0.419800  0.725700  1
  C  C1143  1  0.218800  0.517500  0.359200  1
  C  C1144  1  0.781200  0.482500  0.640800  1
  C  C1145  1  0.816600  0.466000  0.968400  1
  C  C1146  1  0.183400  0.534000  0.031600  1
  C  C1147  1  0.788300  0.423900  0.048300  1
  C  C1148  1  0.211700  0.576100  0.951700  1
  S  S1149  1  0.678020  0.569680  0.523650  1
  S  S1150  1  0.321980  0.430320  0.476350  1
  S  S1151  1  0.334960  0.327130  0.926520  1
  S  S1152  1  0.665040  0.672870  0.073480  1
  S  S1153  1  0.929470  0.164320  0.967760  1
  S  S1154  1  0.070530  0.835680  0.032240  1
  S  S1155  1  0.951100  0.024240  0.927980  1
  S  S1156  1  0.048900  0.975760  0.072020  1
  S  S1157  1  0.904920  0.422970  0.382190  1
  S  S1158  1  0.095080  0.577030  0.617810  1
  S  S1159  1  0.899700  0.064360  0.071090  1
  S  S1160  1  0.100300  0.935640  0.928910  1
  S  S1161  1  0.783220  0.307160  0.425450  1
  S  S1162  1  0.216780  0.692840  0.574550  1
  S  S1163  1  0.259770  0.485830  0.148100  1
  S  S1164  1  0.740230  0.514170  0.851900  1
  S  S1165  1  0.260710  0.523310  0.315730  1
  S  S1166  1  0.739290  0.476690  0.684270  1
  S  S1167  1  0.793000  0.484550  0.011600  1
  S  S1168  1  0.207000  0.515450  0.988400  1
  N  N1169  1  0.653800  0.192500  0.082370  1
  N  N1170  1  0.346200  0.807500  0.917630  1
  N  N1171  1  0.726700  0.088900  0.178000  1
  N  N1172  1  0.273300  0.911100  0.822000  1
  N  N1173  1  0.792600  0.060600  0.254100  1
  N  N1174  1  0.207400  0.939400  0.745900  1
  N  N1175  1  0.773900  0.107100  0.315800  1
  N  N1176  1  0.226100  0.892900  0.684200  1
  N  N1177  1  0.699700  0.206300  0.341600  1
  N  N1178  1  0.300300  0.793700  0.658400  1
  N  N1179  1  0.731400  0.260600  0.061600  1
  N  N1180  1  0.268600  0.739400  0.938400  1
  N  N1181  1  0.837500  0.294300  0.117700  1
  N  N1182  1  0.162500  0.705700  0.882300  1
  N  N1183  1  0.867400  0.335300  0.177800  1
  N  N1184  1  0.132600  0.664700  0.822200  1
  N  N1185  1  0.790300  0.354800  0.234300  1
  N  N1186  1  0.209700  0.645200  0.765700  1
  N  N1187  1  0.677500  0.313300  0.304380  1
  N  N1188  1  0.322500  0.686700  0.695620  1
  N  N1189  1  0.646300  0.343250  0.032360  1
  N  N1190  1  0.353700  0.656750  0.967640  1
  N  N1191  1  0.580600  0.448000  0.056600  1
  N  N1192  1  0.419400  0.552000  0.943400  1
  N  N1193  1  0.510000  0.476600  0.108920  1
  N  N1194  1  0.490000  0.523400  0.891080  1
  N  N1195  1  0.505100  0.415900  0.200300  1
  N  N1196  1  0.494900  0.584100  0.799700  1
  N  N1197  1  0.562500  0.308400  0.299610  1
  N  N1198  1  0.437500  0.691600  0.700390  1
  N  N1199  1  0.566500  0.274400  0.051130  1
  N  N1200  1  0.433500  0.725600  0.948870  1
  N  N1201  1  0.449400  0.236900  0.120000  1
  N  N1202  1  0.550600  0.763100  0.880000  1
  N  N1203  1  0.407400  0.195400  0.204600  1
  N  N1204  1  0.592600  0.804600  0.795400  1
  N  N1205  1  0.472700  0.169500  0.278700  1
  N  N1206  1  0.527300  0.830500  0.721300  1
  N  N1207  1  0.584100  0.201400  0.334100  1
  N  N1208  1  0.415900  0.798600  0.665900  1
  N  N1209  1  0.085000  0.189400  0.090400  1
  N  N1210  1  0.915000  0.810600  0.909600  1
  N  N1211  1  0.970900  0.166800  0.163800  1
  N  N1212  1  0.029100  0.833200  0.836200  1
  N  N1213  1  0.904600  0.194900  0.221000  1
  N  N1214  1  0.095400  0.805100  0.779000  1
  N  N1215  1  0.949100  0.239000  0.273800  1
  N  N1216  1  0.050900  0.761000  0.726200  1
  N  N1217  1  0.066000  0.280500  0.312260  1
  N  N1218  1  0.934000  0.719500  0.687740  1
  N  N1219  1  0.201500  0.194700  0.084700  1
  N  N1220  1  0.798500  0.805300  0.915300  1
  N  N1221  1  0.265300  0.092900  0.188000  1
  N  N1222  1  0.734700  0.907100  0.812000  1
  N  N1223  1  0.276900  0.043800  0.282500  1
  N  N1224  1  0.723100  0.956200  0.717500  1
  N  N1225  1  0.221400  0.087000  0.335800  1
  N  N1226  1  0.778600  0.913000  0.664200  1
  N  N1227  1  0.153400  0.198400  0.346500  1
  N  N1228  1  0.846600  0.801600  0.653500  1
  N  N1229  1  0.178700  0.300400  0.041500  1
  N  N1230  1  0.821300  0.699600  0.958500  1
  N  N1231  1  0.291400  0.348700  0.076200  1
  N  N1232  1  0.708600  0.651300  0.923800  1
  N  N1233  1  0.368400  0.333500  0.143000  1
  N  N1234  1  0.631600  0.666500  0.857000  1
  N  N1235  1  0.339400  0.297100  0.231500  1
  N  N1236  1  0.660600  0.702900  0.768500  1
  N  N1237  1  0.231400  0.265800  0.312730  1
  N  N1238  1  0.768600  0.734200  0.687270  1
  N  N1239  1  0.063900  0.294800  0.045230  1
  N  N1240  1  0.936100  0.705200  0.954770  1
  N  N1241  1  0.007500  0.407900  0.057900  1
  N  N1242  1  0.992500  0.592100  0.942100  1
  N  N1243  1  0.013000  0.474000  0.100200  1
  N  N1244  1  0.987000  0.526000  0.899800  1
  N  N1245  1  0.086000  0.447800  0.172200  1
  N  N1246  1  0.914000  0.552200  0.827800  1
  N  N1247  1  0.146100  0.347400  0.276780  1
  N  N1248  1  0.853900  0.652600  0.723220  1
  N  N1249  1  0.138100  0.362700  0.539790  1
  N  N1250  1  0.861900  0.637300  0.460210  1
  N  N1251  1  0.062100  0.461100  0.568160  1
  N  N1252  1  0.937900  0.538900  0.431840  1
  N  N1253  1  0.989300  0.484300  0.622400  1
  N  N1254  1  0.010700  0.515700  0.377600  1
  N  N1255  1  0.990200  0.423400  0.713700  1
  N  N1256  1  0.009800  0.576600  0.286300  1
  N  N1257  1  0.051700  0.314200  0.808770  1
  N  N1258  1  0.948300  0.685800  0.191230  1
  N  N1259  1  0.061600  0.290400  0.554020  1
  N  N1260  1  0.938400  0.709600  0.445980  1
  N  N1261  1  0.944100  0.252700  0.622100  1
  N  N1262  1  0.055900  0.747300  0.377900  1
  N  N1263  1  0.901200  0.207000  0.706200  1
  N  N1264  1  0.098800  0.793000  0.293800  1
  N  N1265  1  0.969100  0.178200  0.779800  1
  N  N1266  1  0.030900  0.821800  0.220200  1
  N  N1267  1  0.078200  0.207400  0.838500  1
  N  N1268  1  0.921800  0.792600  0.161500  1
  N  N1269  1  0.150800  0.211600  0.581600  1
  N  N1270  1  0.849200  0.788400  0.418400  1
  N  N1271  1  0.220500  0.105600  0.676700  1
  N  N1272  1  0.779500  0.894400  0.323300  1
  N  N1273  1  0.286900  0.074500  0.753500  1
  N  N1274  1  0.713100  0.925500  0.246500  1
  N  N1275  1  0.267900  0.118900  0.816100  1
  N  N1276  1  0.732100  0.881100  0.183900  1
  N  N1277  1  0.191900  0.216900  0.845600  1
  N  N1278  1  0.808100  0.783100  0.154400  1
  N  N1279  1  0.226900  0.280900  0.563870  1
  N  N1280  1  0.773100  0.719100  0.436130  1
  N  N1281  1  0.332500  0.313300  0.623200  1
  N  N1282  1  0.667500  0.686700  0.376800  1
  N  N1283  1  0.361800  0.346500  0.689000  1
  N  N1284  1  0.638200  0.653500  0.311000  1
  N  N1285  1  0.283700  0.364000  0.743300  1
  N  N1286  1  0.716300  0.636000  0.256700  1
  N  N1287  1  0.167400  0.322400  0.811000  1
  N  N1288  1  0.832600  0.677600  0.189000  1
  N  N1289  1  0.359500  0.651650  0.210160  1
  N  N1290  1  0.640500  0.348350  0.789840  1
  N  N1291  1  0.417700  0.546800  0.311400  1
  N  N1292  1  0.582300  0.453200  0.688600  1
  N  N1293  1  0.487600  0.516800  0.387000  1
  N  N1294  1  0.512400  0.483200  0.613000  1
  N  N1295  1  0.494700  0.580400  0.431400  1
  N  N1296  1  0.505300  0.419600  0.568600  1
  N  N1297  1  0.439800  0.690100  0.452520  1
  N  N1298  1  0.560200  0.309900  0.547480  1
  N  N1299  1  0.440300  0.718500  0.179900  1
  N  N1300  1  0.559700  0.281500  0.820100  1
  N  N1301  1  0.557400  0.755800  0.221700  1
  N  N1302  1  0.442600  0.244200  0.778300  1
  N  N1303  1  0.600900  0.795000  0.278700  1
  N  N1304  1  0.399100  0.205000  0.721300  1
  N  N1305  1  0.535500  0.819700  0.337400  1
  N  N1306  1  0.464500  0.180300  0.662600  1
  N  N1307  1  0.419500  0.795700  0.409200  1
  N  N1308  1  0.580500  0.204300  0.590800  1
  N  N1309  1  0.351400  0.801900  0.152100  1
  N  N1310  1  0.648600  0.198100  0.847900  1
  N  N1311  1  0.280800  0.908600  0.169100  1
  N  N1312  1  0.719200  0.091400  0.830900  1
  N  N1313  1  0.223700  0.947500  0.223800  1
  N  N1314  1  0.776300  0.052500  0.776200  1
  N  N1315  1  0.236600  0.896100  0.318200  1
  N  N1316  1  0.763400  0.103900  0.681800  1
  N  N1317  1  0.302600  0.792700  0.417520  1
  N  N1318  1  0.697400  0.207300  0.582480  1
  N  N1319  1  0.273500  0.733300  0.181040  1
  N  N1320  1  0.726500  0.266700  0.818960  1
  N  N1321  1  0.167400  0.697700  0.262000  1
  N  N1322  1  0.832600  0.302300  0.738000  1
  N  N1323  1  0.140600  0.652400  0.351420  1
  N  N1324  1  0.859400  0.347600  0.648580  1
  N  N1325  1  0.213800  0.637000  0.420400  1
  N  N1326  1  0.786200  0.363000  0.579600  1
  N  N1327  1  0.324100  0.686300  0.458640  1
  N  N1328  1  0.675900  0.313700  0.541360  1
  N  N1329  1  0.637500  0.406800  0.162300  1
  N  N1330  1  0.362500  0.593200  0.837700  1
  N  N1331  1  0.635300  0.265100  0.190700  1
  N  N1332  1  0.364700  0.734900  0.809300  1
  N  N1333  1  0.640700  0.119300  0.255300  1
  N  N1334  1  0.359300  0.880700  0.744700  1
  N  N1335  1  0.141300  0.406100  0.095100  1
  N  N1336  1  0.858700  0.593900  0.904900  1
  N  N1337  1  0.134700  0.263100  0.182800  1
  N  N1338  1  0.865300  0.736900  0.817200  1
  N  N1339  1  0.136600  0.137300  0.236200  1
  N  N1340  1  0.863400  0.862700  0.763800  1
  N  N1341  1  0.123400  0.420300  0.673000  1
  N  N1342  1  0.876600  0.579700  0.327000  1
  N  N1343  1  0.128100  0.277500  0.696100  1
  N  N1344  1  0.871900  0.722500  0.303900  1
  N  N1345  1  0.133700  0.131400  0.757500  1
  N  N1346  1  0.866300  0.868600  0.242500  1
  N  N1347  1  0.370900  0.727300  0.312500  1
  N  N1348  1  0.629100  0.272700  0.687500  1
  N  N1349  1  0.359800  0.589000  0.392100  1
  N  N1350  1  0.640200  0.411000  0.607900  1
  N  N1351  1  0.610300  0.265000  0.440700  1
  N  N1352  1  0.389700  0.735000  0.559300  1
  N  N1353  1  0.114000  0.251700  0.947000  1
  N  N1354  1  0.886000  0.748300  0.053000  1
  N  N1355  1  0.366100  0.855100  0.267700  1
  N  N1356  1  0.633900  0.144900  0.732300  1
  O  O1357  1  0.765600  0.022500  0.163800  1
  O  O1358  1  0.234400  0.977500  0.836200  1
  O  O1359  1  0.862500  0.081500  0.341400  1
  O  O1360  1  0.137500  0.918500  0.658600  1
  O  O1361  1  0.928100  0.279600  0.104700  1
  O  O1362  1  0.071900  0.720400  0.895300  1
  O  O1363  1  0.852600  0.389000  0.262200  1
  O  O1364  1  0.147400  0.611000  0.737800  1
  O  O1365  1  0.558700  0.523000  0.997180  1
  O  O1366  1  0.441300  0.477000  0.002820  1
  O  O1367  1  0.419500  0.455600  0.199000  1
  O  O1368  1  0.580500  0.544400  0.801000  1
  O  O1369  1  0.365800  0.247400  0.086200  1
  O  O1370  1  0.634200  0.752600  0.913800  1
  O  O1371  1  0.405600  0.144200  0.326500  1
  O  O1372  1  0.594400  0.855800  0.673500  1
  O  O1373  1  0.903700  0.132900  0.143400  1
  O  O1374  1  0.096300  0.867100  0.856600  1
  O  O1375  1  0.864400  0.250200  0.301900  1
  O  O1376  1  0.135600  0.749800  0.698100  1
  O  O1377  1  0.329500  0.035500  0.180800  1
  O  O1378  1  0.670500  0.964500  0.819200  1
  O  O1379  1  0.255400  0.021100  0.400300  1
  O  O1380  1  0.744600  0.978900  0.599700  1
  O  O1381  1  0.350700  0.379200  0.020000  1
  O  O1382  1  0.649300  0.620800  0.980000  1
  O  O1383  1  0.428830  0.284100  0.256020  1
  O  O1384  1  0.571170  0.715900  0.743980  1
  O  O1385  1  0.924500  0.447900  0.029200  1
  O  O1386  1  0.075500  0.552100  0.970800  1
  O  O1387  1  0.072600  0.526500  0.171100  1
  O  O1388  1  0.927400  0.473500  0.828900  1
  O  O1389  1  0.036600  0.535600  0.509010  1
  O  O1390  1  0.963400  0.464400  0.490990  1
  O  O1391  1  0.905000  0.460600  0.716300  1
  O  O1392  1  0.095000  0.539400  0.283700  1
  O  O1393  1  0.859700  0.265700  0.587800  1
  O  O1394  1  0.140300  0.734300  0.412200  1
  O  O1395  1  0.901800  0.148800  0.828000  1
  O  O1396  1  0.098200  0.851200  0.172000  1
  O  O1397  1  0.259700  0.041500  0.660100  1
  O  O1398  1  0.740300  0.958500  0.339900  1
  O  O1399  1  0.357500  0.097600  0.838500  1
  O  O1400  1  0.642500  0.902400  0.161500  1
  O  O1401  1  0.422730  0.295900  0.612500  1
  O  O1402  1  0.577270  0.704100  0.387500  1
  O  O1403  1  0.343000  0.395000  0.778100  1
  O  O1404  1  0.657000  0.605000  0.221900  1
  O  O1405  1  0.436600  0.469900  0.309100  1
  O  O1406  1  0.563400  0.530100  0.690900  1
  O  O1407  1  0.570900  0.531800  0.470100  1
  O  O1408  1  0.429100  0.468200  0.529900  1
  O  O1409  1  0.642300  0.744100  0.195500  1
  O  O1410  1  0.357700  0.255900  0.804500  1
  O  O1411  1  0.603000  0.852200  0.359600  1
  O  O1412  1  0.397000  0.147800  0.640400  1
  O  O1413  1  0.243700  0.974100  0.106000  1
  O  O1414  1  0.756300  0.025900  0.894000  1
  O  O1415  1  0.172600  0.954100  0.328100  1
  O  O1416  1  0.827400  0.045900  0.671900  1
  O  O1417  1  0.077950  0.708500  0.237400  1
  O  O1418  1  0.922050  0.291500  0.762600  1
  O  O1419  1  0.162600  0.586300  0.471500  1
  O  O1420  1  0.837400  0.413700  0.528500  1
  O  O1421  1  0.680800  0.411800  0.141900  1
  O  O1422  1  0.319200  0.588200  0.858100  1
  O  O1423  1  0.604700  0.382600  0.154400  1
  O  O1424  1  0.395300  0.617400  0.845600  1
  O  O1425  1  0.624400  0.429900  0.187900  1
  O  O1426  1  0.375600  0.570100  0.812100  1
  O  O1427  1  0.672700  0.263500  0.216800  1
  O  O1428  1  0.327300  0.736500  0.783200  1
  O  O1429  1  0.645700  0.265500  0.152000  1
  O  O1430  1  0.354300  0.734500  0.848000  1
  O  O1431  1  0.587900  0.268700  0.204000  1
  O  O1432  1  0.412100  0.731300  0.796000  1
  O  O1433  1  0.677100  0.142400  0.234800  1
  O  O1434  1  0.322900  0.857600  0.765200  1
  O  O1435  1  0.603100  0.113200  0.232500  1
  O  O1436  1  0.396900  0.886800  0.767500  1
  O  O1437  1  0.658000  0.089700  0.298200  1
  O  O1438  1  0.342000  0.910300  0.701800  1
  O  O1439  1  0.185900  0.415500  0.108000  1
  O  O1440  1  0.814100  0.584500  0.892000  1
  O  O1441  1  0.124400  0.424500  0.055600  1
  O  O1442  1  0.875600  0.575500  0.944400  1
  O  O1443  1  0.111900  0.379400  0.123800  1
  O  O1444  1  0.888100  0.620600  0.876200  1
  O  O1445  1  0.178000  0.256900  0.162100  1
  O  O1446  1  0.822000  0.743100  0.837900  1
  O  O1447  1  0.094300  0.265400  0.160700  1
  O  O1448  1  0.905700  0.734600  0.839300  1
  O  O1449  1  0.138600  0.265400  0.218400  1
  O  O1450  1  0.861400  0.734600  0.781600  1
  O  O1451  1  0.187700  0.133100  0.239690  1
  O  O1452  1  0.812300  0.866900  0.760310  1
  O  O1453  1  0.112700  0.134900  0.202800  1
  O  O1454  1  0.887300  0.865100  0.797200  1
  O  O1455  1  0.109800  0.142800  0.268200  1
  O  O1456  1  0.890200  0.857200  0.731800  1
  O  O1457  1  0.165900  0.429200  0.650100  1
  O  O1458  1  0.834100  0.570800  0.349900  1
  O  O1459  1  0.091400  0.395700  0.665700  1
  O  O1460  1  0.908600  0.604300  0.334300  1
  O  O1461  1  0.112800  0.438800  0.700900  1
  O  O1462  1  0.887200  0.561200  0.299100  1
  O  O1463  1  0.135800  0.279600  0.657900  1
  O  O1464  1  0.864200  0.720400  0.342100  1
  O  O1465  1  0.083300  0.277900  0.712000  1
  O  O1466  1  0.916700  0.722100  0.288000  1
  O  O1467  1  0.169900  0.275700  0.721400  1
  O  O1468  1  0.830100  0.724300  0.278600  1
  O  O1469  1  0.169400  0.156300  0.736400  1
  O  O1470  1  0.830600  0.843700  0.263600  1
  O  O1471  1  0.096100  0.125600  0.737400  1
  O  O1472  1  0.903900  0.874400  0.262600  1
  O  O1473  1  0.153300  0.102200  0.799600  1
  O  O1474  1  0.846700  0.897800  0.200400  1
  O  O1475  1  0.361200  0.727400  0.277300  1
  O  O1476  1  0.638800  0.272600  0.722700  1
  O  O1477  1  0.334900  0.734100  0.337400  1
  O  O1478  1  0.665100  0.265900  0.662600  1
  O  O1479  1  0.415100  0.721600  0.334200  1
  O  O1480  1  0.584900  0.278400  0.665800  1
  O  O1481  1  0.393100  0.610900  0.365000  1
  O  O1482  1  0.606900  0.389100  0.635000  1
  O  O1483  1  0.315700  0.582900  0.378100  1
  O  O1484  1  0.684300  0.417100  0.621900  1
  O  O1485  1  0.373500  0.569800  0.433800  1
  O  O1486  1  0.626500  0.430200  0.566200  1
  O  O1487  1  0.612900  0.239100  0.417300  1
  O  O1488  1  0.387100  0.760900  0.582700  1
  O  O1489  1  0.596300  0.311100  0.423300  1
  O  O1490  1  0.403700  0.688900  0.576700  1
  O  O1491  1  0.615700  0.242800  0.481900  1
  O  O1492  1  0.384300  0.757200  0.518100  1
  O  O1493  1  0.154500  0.232400  0.968200  1
  O  O1494  1  0.845500  0.767600  0.031800  1
  O  O1495  1  0.079800  0.227200  0.945300  1
  O  O1496  1  0.920200  0.772800  0.054700  1
  O  O1497  1  0.104000  0.297200  0.925600  1
  O  O1498  1  0.896000  0.702800  0.074400  1
  O  O1499  1  0.316000  0.860100  0.264240  1
  O  O1500  1  0.684000  0.139900  0.735760  1
  O  O1501  1  0.390300  0.857400  0.300600  1
  O  O1502  1  0.609700  0.142600  0.699400  1
  O  O1503  1  0.393000  0.849800  0.235400  1
  O  O1504  1  0.607000  0.150200  0.764600  1
  O  O1505  1  0.725000  0.582300  0.548500  1
  O  O1506  1  0.275000  0.417700  0.451500  1
  O  O1507  1  0.395900  0.314600  0.925400  1
  O  O1508  1  0.604100  0.685400  0.074600  1
  O  O1509  1  0.868300  0.177500  0.967200  1
  O  O1510  1  0.131700  0.822500  0.032800  1
  O  O1511  1  0.887400  0.056600  0.928900  1
  O  O1512  1  0.112600  0.943400  0.071100  1
  O  O1513  1  0.915500  0.366100  0.401300  1
  O  O1514  1  0.084500  0.633900  0.598700  1
  O  O1515  1  0.893500  0.034800  0.040700  1
  O  O1516  1  0.106500  0.965200  0.959300  1
  O  O1517  1  0.741700  0.271200  0.440000  1
  O  O1518  1  0.258300  0.728800  0.560000  1
  O  O1519  1  0.278300  0.535500  0.132500  1
  O  O1520  1  0.721700  0.464500  0.867500  1
  O  O1521  1  0.250400  0.486000  0.296200  1
  O  O1522  1  0.749600  0.514000  0.703800  1
  O  O1523  1  0.734100  0.507000  0.997400  1
  O  O1524  1  0.265900  0.493000  0.002600  1
  O  O1525  1  0.531200  0.199500  0.195600  1
  O  O1526  1  0.468800  0.800500  0.804400  1
  O  O1527  1  0.481800  0.780400  0.280900  1
  O  O1528  1  0.518200  0.219600  0.719100  1
  O  O1529  1  0.023400  0.212600  0.214800  1
  O  O1530  1  0.976600  0.787400  0.785200  1
