
#######################################################################
#
#                 Cambridge Crystallographic Data Centre
#                                CCDC 
#
#######################################################################
#
# If this CIF has been generated from an entry in the Cambridge 
# Structural Database, then it will include bibliographic, chemical, 
# crystal, experimental, refinement or atomic coordinate data resulting 
# from the CCDC's data processing and validation procedures.
#
#######################################################################

data_YAZMOD
_chemical_formula_moiety         'C62 H46 Fe2 N20 Ni2,2(C1 H4 O1),6(H2 O1)'
_chemical_name_systematic        
'bis(\m~2~-3,5-di(pyridin-2-yl)-1H-pyrazolato)-tetrakis(\m~2~-cyano)-bis(1-phenyl-N-(pyridin-2-ylmethylene)ethanamine)-tetracyano-di-iron-di-nickel methanol solvate hexahydrate'
_symmetry_cell_setting           orthorhombic
_symmetry_space_group_name_H-M   'P 21 21 2'
_symmetry_Int_Tables_number      18
_space_group_name_Hall           'P 2 2ab'
loop_
_symmetry_equiv_pos_site_id
_symmetry_equiv_pos_as_xyz
1 x,y,z
2 -x,-y,z
3 1/2+x,1/2-y,-z
4 1/2-x,1/2+y,-z
_cell_length_a                   13.319(2)
_cell_length_b                   20.390(3)
_cell_length_c                   11.9344(18)
_cell_angle_alpha                90
_cell_angle_beta                 90
_cell_angle_gamma                90
_cell_volume                     3241.08
_exptl_crystal_colour            purple
_exptl_crystal_description       plates
_cell_formula_units_Z            2
loop_
_atom_site_label
_atom_site_type_symbol
_atom_site_fract_x
_atom_site_fract_y
_atom_site_fract_z
Fe1 Fe 0.66302(4) 0.38449(3) 0.32950(5)
Ni1 Ni 0.36308(3) 0.36915(2) 0.28738(4)
C1 C 0.5438(3) 0.3672(2) 0.4126(3)
C2 C 0.6501(3) 0.47920(19) 0.3407(3)
C3 C 0.7531(3) 0.3917(2) 0.4557(4)
C4 C 0.6960(3) 0.2910(2) 0.3267(4)
C5 C 0.7342(3) 0.41495(19) 0.1091(4)
C6 C 0.7965(3) 0.4319(2) 0.0207(4)
H1 H 0.7701 0.4387 -0.0524
C7 C 0.8976(3) 0.4387(2) 0.0413(4)
H2 H 0.9415 0.4518 -0.0173
C8 C 0.9349(3) 0.4267(2) 0.1462(4)
C9 C 0.8686(3) 0.40914(19) 0.2300(4)
H3 H 0.8946 0.4008 0.3027
C10 C 0.6259(3) 0.40876(18) 0.1023(3)
C11 C 0.5516(3) 0.41975(19) 0.0243(3)
H4 H 0.5593 0.4339 -0.0511
C12 C 0.4628(3) 0.40558(18) 0.0805(3)
C13 C 0.3591(3) 0.40282(18) 0.0460(3)
C14 C 0.3259(3) 0.41495(19) -0.0631(3)
H5 H 0.3721 0.4285 -0.1191
C15 C 0.2256(3) 0.4071(2) -0.0888(4)
H6 H 0.2017 0.4151 -0.1626
C16 C 0.1602(3) 0.3874(2) -0.0046(3)
H7 H 0.0910 0.3808 -0.0201
C17 C 0.1976(3) 0.3776(2) 0.1022(3)
H8 H 0.1521 0.3648 0.1594
C18 C 0.2101(3) 0.2788(2) 0.3621(3)
C19 C 0.1207(3) 0.2523(2) 0.4002(3)
H9 H 0.1087 0.2065 0.3963
C20 C 0.0492(3) 0.2944(3) 0.4441(4)
H10 H -0.0131 0.2776 0.4704
C21 C 0.0684(3) 0.3603(2) 0.4494(4)
H11 H 0.0201 0.3898 0.4792
C22 C 0.1602(3) 0.3831(2) 0.4103(3)
H12 H 0.1739 0.4287 0.4153
C23 C 0.2902(3) 0.23942(19) 0.3119(3)
H13 H 0.2859 0.1929 0.3113
C24 C 0.4480(3) 0.23098(19) 0.2170(4)
H14 H 0.5122 0.2508 0.2441
C25 C 0.4517(3) 0.1582(2) 0.2460(4)
H15 H 0.4559 0.1530 0.3275
H16 H 0.5108 0.1383 0.2108
H17 H 0.3908 0.1367 0.2182
C26 C 0.4441(3) 0.24123(19) 0.0897(3)
C27 C 0.5307(3) 0.2556(2) 0.0302(4)
H18 H 0.5926 0.2605 0.0689
C28 C 0.5278(3) 0.2628(2) -0.0846(4)
H19 H 0.5879 0.2714 -0.1248
C29 C 0.4375(3) 0.2576(2) -0.1415(4)
H20 H 0.4351 0.2640 -0.2203
C30 C 0.3516(4) 0.2430(2) -0.0834(4)
H21 H 0.2899 0.2383 -0.1225
C31 C 0.3539(3) 0.23492(19) 0.0325(3)
H22 H 0.2939 0.2251 0.0722
N1 N 0.4626(2) 0.35611(16) 0.4437(3)
N2 N 0.6471(2) 0.53560(16) 0.3315(3)
N3 N 0.8108(3) 0.3985(2) 0.5268(4)
N4 N 0.7162(3) 0.23638(17) 0.3263(3)
N5 N 0.7702(2) 0.40333(14) 0.2137(3)
N6 N 0.5821(2) 0.38868(15) 0.1997(3)
N7 N 0.4825(2) 0.38753(15) 0.1856(3)
N8 N 0.2940(2) 0.38509(16) 0.1293(3)
N9 N 0.2299(2) 0.34385(17) 0.3662(3)
N10 N 0.3653(2) 0.26817(15) 0.2693(2)
Fe1A Fe 0.33698(4) 0.61551(3) 0.32950(5)
Ni1A Ni 0.63692(3) 0.63085(2) 0.28738(4)
C1A C 0.4562(3) 0.6328(2) 0.4126(3)
C2A C 0.3499(3) 0.52080(19) 0.3407(3)
C3A C 0.2469(3) 0.6083(2) 0.4557(4)
C4A C 0.3040(3) 0.7090(2) 0.3267(4)
C5A C 0.2658(3) 0.58505(19) 0.1091(4)
C6A C 0.2035(3) 0.5681(2) 0.0207(4)
H1A H 0.2299 0.5613 -0.0524
C7A C 0.1024(3) 0.5613(2) 0.0413(4)
H2A H 0.0585 0.5482 -0.0173
C8A C 0.0651(3) 0.5733(2) 0.1462(4)
C9A C 0.1314(3) 0.59086(19) 0.2300(4)
H3A H 0.1054 0.5992 0.3027
C10A C 0.3741(3) 0.59124(18) 0.1023(3)
C11A C 0.4484(3) 0.58025(19) 0.0243(3)
H4A H 0.4407 0.5661 -0.0511
C12A C 0.5372(3) 0.59442(18) 0.0805(3)
C13A C 0.6409(3) 0.59718(18) 0.0460(3)
C14A C 0.6741(3) 0.58505(19) -0.0631(3)
H5A H 0.6279 0.5715 -0.1191
C15A C 0.7744(3) 0.5929(2) -0.0888(4)
H6A H 0.7983 0.5849 -0.1626
C16A C 0.8398(3) 0.6126(2) -0.0046(3)
H7A H 0.9090 0.6192 -0.0201
C17A C 0.8024(3) 0.6224(2) 0.1022(3)
H8A H 0.8479 0.6352 0.1594
C18A C 0.7899(3) 0.7212(2) 0.3621(3)
C19A C 0.8793(3) 0.7477(2) 0.4002(3)
H9A H 0.8913 0.7935 0.3963
C20A C 0.9508(3) 0.7056(3) 0.4441(4)
H10A H 1.0131 0.7224 0.4704
C21A C 0.9316(3) 0.6397(2) 0.4494(4)
H11A H 0.9799 0.6102 0.4792
C22A C 0.8398(3) 0.6169(2) 0.4103(3)
H12A H 0.8261 0.5713 0.4153
C23A C 0.7098(3) 0.76058(19) 0.3119(3)
H13A H 0.7141 0.8071 0.3113
C24A C 0.5520(3) 0.76902(19) 0.2170(4)
H14A H 0.4878 0.7492 0.2441
C25A C 0.5483(3) 0.8418(2) 0.2460(4)
H15A H 0.5441 0.8470 0.3275
H16A H 0.4892 0.8617 0.2108
H17A H 0.6092 0.8633 0.2182
C26A C 0.5559(3) 0.75877(19) 0.0897(3)
C27A C 0.4693(3) 0.7444(2) 0.0302(4)
H18A H 0.4074 0.7395 0.0689
C28A C 0.4722(3) 0.7372(2) -0.0846(4)
H19A H 0.4121 0.7286 -0.1248
C29A C 0.5625(3) 0.7424(2) -0.1415(4)
H20A H 0.5649 0.7360 -0.2203
C30A C 0.6484(4) 0.7570(2) -0.0834(4)
H21A H 0.7101 0.7617 -0.1225
C31A C 0.6461(3) 0.76508(19) 0.0325(3)
H22A H 0.7061 0.7749 0.0722
N1A N 0.5374(2) 0.64389(16) 0.4437(3)
N2A N 0.3529(2) 0.46440(16) 0.3315(3)
N3A N 0.1892(3) 0.6015(2) 0.5268(4)
N4A N 0.2838(3) 0.76362(17) 0.3263(3)
N5A N 0.2298(2) 0.59667(14) 0.2137(3)
N6A N 0.4179(2) 0.61132(15) 0.1997(3)
N7A N 0.5175(2) 0.61247(15) 0.1856(3)
N8A N 0.7060(2) 0.61491(16) 0.1293(3)
N9A N 0.7701(2) 0.65615(17) 0.3662(3)
N10A N 0.6347(2) 0.73183(15) 0.2693(2)
C32 C 0.0890(9) 0.0769(8) 0.2972(14)
O1 O 0.1769(4) 0.0880(3) 0.2263(4)
O3 O 0.8131(2) 0.11305(16) 0.3705(2)
O4 O 0.6806(3) 0.0082(2) 0.3315(4)
loop_
_geom_bond_atom_site_label_1
_geom_bond_atom_site_label_2
_geom_bond_site_symmetry_1
_geom_bond_site_symmetry_2
Fe1 C1 1_555 1_555
Ni1 N1 1_555 1_555
C1 N1 1_555 1_555
C2 Fe1 1_555 1_555
C3 Fe1 1_555 1_555
C4 Fe1 1_555 1_555
C5 C6 1_555 1_555
C6 H1 1_555 1_555
C7 C6 1_555 1_555
H2 C7 1_555 1_555
C8 C7 1_555 1_555
C9 C8 1_555 1_555
H3 C9 1_555 1_555
C10 C5 1_555 1_555
C11 C10 1_555 1_555
H4 C11 1_555 1_555
C12 C11 1_555 1_555
C13 C12 1_555 1_555
C14 C13 1_555 1_555
H5 C14 1_555 1_555
C15 C14 1_555 1_555
H6 C15 1_555 1_555
C16 C15 1_555 1_555
H7 C16 1_555 1_555
C17 C16 1_555 1_555
H8 C17 1_555 1_555
C18 C19 1_555 1_555
C19 H9 1_555 1_555
C20 C19 1_555 1_555
H10 C20 1_555 1_555
C21 C20 1_555 1_555
H11 C21 1_555 1_555
C22 C21 1_555 1_555
H12 C22 1_555 1_555
C23 C18 1_555 1_555
H13 C23 1_555 1_555
C24 H14 1_555 1_555
C25 C24 1_555 1_555
H15 C25 1_555 1_555
H16 C25 1_555 1_555
H17 C25 1_555 1_555
C26 C24 1_555 1_555
C27 C26 1_555 1_555
H18 C27 1_555 1_555
C28 C27 1_555 1_555
H19 C28 1_555 1_555
C29 C28 1_555 1_555
H20 C29 1_555 1_555
C30 C29 1_555 1_555
H21 C30 1_555 1_555
C31 C26 1_555 1_555
H22 C31 1_555 1_555
N2 C2 1_555 1_555
N3 C3 1_555 1_555
N4 C4 1_555 1_555
N5 Fe1 1_555 1_555
N6 Fe1 1_555 1_555
N7 Ni1 1_555 1_555
N8 Ni1 1_555 1_555
N9 Ni1 1_555 1_555
N10 Ni1 1_555 1_555
C32 O1 1_555 1_555
Fe1A C1A 1_555 1_555
Ni1A N2 1_555 1_555
C1A N1A 1_555 1_555
C2A Fe1A 1_555 1_555
C3A Fe1A 1_555 1_555
C4A Fe1A 1_555 1_555
C5A C6A 1_555 1_555
C6A H1A 1_555 1_555
C7A C6A 1_555 1_555
H2A C7A 1_555 1_555
C8A C7A 1_555 1_555
C9A C8A 1_555 1_555
H3A C9A 1_555 1_555
C10A C5A 1_555 1_555
C11A C10A 1_555 1_555
H4A C11A 1_555 1_555
C12A C11A 1_555 1_555
C13A C12A 1_555 1_555
C14A C13A 1_555 1_555
H5A C14A 1_555 1_555
C15A C14A 1_555 1_555
H6A C15A 1_555 1_555
C16A C15A 1_555 1_555
H7A C16A 1_555 1_555
C17A C16A 1_555 1_555
H8A C17A 1_555 1_555
C18A C19A 1_555 1_555
C19A H9A 1_555 1_555
C20A C19A 1_555 1_555
H10A C20A 1_555 1_555
C21A C20A 1_555 1_555
H11A C21A 1_555 1_555
C22A C21A 1_555 1_555
H12A C22A 1_555 1_555
C23A C18A 1_555 1_555
H13A C23A 1_555 1_555
C24A H14A 1_555 1_555
C25A C24A 1_555 1_555
H15A C25A 1_555 1_555
H16A C25A 1_555 1_555
H17A C25A 1_555 1_555
C26A C24A 1_555 1_555
C27A C26A 1_555 1_555
H18A C27A 1_555 1_555
C28A C27A 1_555 1_555
H19A C28A 1_555 1_555
C29A C28A 1_555 1_555
H20A C29A 1_555 1_555
C30A C29A 1_555 1_555
H21A C30A 1_555 1_555
C31A C26A 1_555 1_555
H22A C31A 1_555 1_555
N1A Ni1A 1_555 1_555
N2A Ni1 1_555 1_555
N3A C3A 1_555 1_555
N4A C4A 1_555 1_555
N5A Fe1A 1_555 1_555
N6A Fe1A 1_555 1_555
N7A Ni1A 1_555 1_555
N8A Ni1A 1_555 1_555
N9A Ni1A 1_555 1_555
N10A Ni1A 1_555 1_555
C5 N5 1_555 1_555
C9 N5 1_555 1_555
C10 N6 1_555 1_555
C12 N7 1_555 1_555
C13 N8 1_555 1_555
C17 N8 1_555 1_555
C18 N9 1_555 1_555
C22 N9 1_555 1_555
C23 N10 1_555 1_555
C24 N10 1_555 1_555
C30 C31 1_555 1_555
N6 N7 1_555 1_555
C2A N2A 1_555 1_555
C5A N5A 1_555 1_555
C9A N5A 1_555 1_555
C10A N6A 1_555 1_555
C12A N7A 1_555 1_555
C13A N8A 1_555 1_555
C17A N8A 1_555 1_555
C18A N9A 1_555 1_555
C22A N9A 1_555 1_555
C23A N10A 1_555 1_555
C24A N10A 1_555 1_555
C30A C31A 1_555 1_555
N6A N7A 1_555 1_555

#END
