
#######################################################################
#
#                 Cambridge Crystallographic Data Centre
#                                CCDC 
#
#######################################################################
#
# If this CIF has been generated from an entry in the Cambridge 
# Structural Database, then it will include bibliographic, chemical, 
# crystal, experimental, refinement or atomic coordinate data resulting 
# from the CCDC's data processing and validation procedures.
#
#######################################################################

data_YAZMIX
_chemical_formula_moiety         'C62 H46 Fe2 N20 Ni2,2(C1 H4 O1),6(H2 O1)'
_chemical_name_systematic        
'bis(\m~2~-3,5-di(pyridin-2-yl)-1H-pyrazolato)-tetrakis(\m~2~-cyano)-bis(1-phenyl-N-(pyridin-2-ylmethylene)ethanamine)-tetracyano-di-iron-di-nickel methanol solvate hexahydrate'
_symmetry_cell_setting           orthorhombic
_symmetry_space_group_name_H-M   'P 21 21 2'
_symmetry_Int_Tables_number      18
_space_group_name_Hall           'P 2 2ab'
loop_
_symmetry_equiv_pos_site_id
_symmetry_equiv_pos_as_xyz
1 x,y,z
2 -x,-y,z
3 1/2+x,1/2-y,-z
4 1/2-x,1/2+y,-z
_cell_length_a                   13.334(2)
_cell_length_b                   20.437(3)
_cell_length_c                   11.9421(18)
_cell_angle_alpha                90
_cell_angle_beta                 90
_cell_angle_gamma                90
_cell_volume                     3254.31
_exptl_crystal_colour            purple
_exptl_crystal_description       plates
_cell_formula_units_Z            2
loop_
_atom_site_label
_atom_site_type_symbol
_atom_site_fract_x
_atom_site_fract_y
_atom_site_fract_z
Fe1 Fe 0.66332(3) 0.11487(2) 0.82986(4)
Ni1 Ni 0.36348(3) 0.130938(19) 0.78714(3)
C1 C 0.5441(2) 0.13237(16) 0.9129(3)
C2 C 0.6506(2) 0.01994(16) 0.8411(3)
C3 C 0.7527(3) 0.10767(18) 0.9574(3)
C4 C 0.6965(2) 0.20817(16) 0.8273(3)
C5 C 0.7342(3) 0.08521(16) 0.6096(3)
C6 C 0.7978(3) 0.06796(17) 0.5210(3)
H1 H 0.7716 0.0610 0.4481
C7 C 0.8985(3) 0.06127(18) 0.5411(4)
H2 H 0.9426 0.0485 0.4827
C8 C 0.9350(3) 0.07331(18) 0.6474(4)
H3 H 1.0048 0.0696 0.6623
C9 C 0.8698(3) 0.09074(17) 0.7317(3)
H4 H 0.8959 0.0993 0.8042
C10 C 0.6260(3) 0.09120(15) 0.6023(3)
C11 C 0.5531(3) 0.08015(15) 0.5239(3)
H5 H 0.5613 0.0660 0.4487
C12 C 0.4637(2) 0.09454(15) 0.5800(3)
C13 C 0.3593(3) 0.09707(14) 0.5463(3)
C14 C 0.3273(3) 0.08476(16) 0.4368(3)
H6 H 0.3736 0.0711 0.3810
C15 C 0.2260(3) 0.09287(17) 0.4111(3)
H7 H 0.2022 0.0850 0.3373
C16 C 0.1608(3) 0.11256(17) 0.4944(3)
H8 H 0.0917 0.1189 0.4788
C17 C 0.1983(2) 0.12284(16) 0.6013(3)
H9 H 0.1529 0.1361 0.6583
C18 C 0.2113(3) 0.22176(18) 0.8617(3)
C19 C 0.1217(3) 0.24822(19) 0.8993(3)
H10 H 0.1099 0.2940 0.8948
C20 C 0.0496(3) 0.2068(2) 0.9437(3)
H11 H -0.0122 0.2238 0.9708
C21 C 0.0688(3) 0.1412(2) 0.9479(3)
H12 H 0.0201 0.1119 0.9772
C22 C 0.1600(3) 0.11756(19) 0.9091(3)
H13 H 0.1731 0.0719 0.9136
C23 C 0.2916(3) 0.26086(16) 0.8123(3)
H14 H 0.2879 0.3073 0.8124
C24 C 0.4496(2) 0.26867(16) 0.7168(3)
H15 H 0.5134 0.2486 0.7440
C25 C 0.4538(3) 0.34113(17) 0.7465(3)
H16 H 0.3948 0.3634 0.7159
H17 H 0.5147 0.3605 0.7147
H18 H 0.4547 0.3461 0.8282
C26 C 0.4459(3) 0.25838(15) 0.5909(3)
C27 C 0.5332(3) 0.24431(17) 0.5309(3)
H19 H 0.5953 0.2396 0.5691
C28 C 0.5291(3) 0.23715(18) 0.4154(3)
H20 H 0.5888 0.2283 0.3747
C29 C 0.4393(3) 0.24273(18) 0.3592(3)
H21 H 0.4370 0.2365 0.2804
C30 C 0.3530(3) 0.25732(17) 0.4168(3)
H22 H 0.2914 0.2619 0.3777
C31 C 0.3557(3) 0.26552(16) 0.5328(3)
H23 H 0.2960 0.2760 0.5723
N1 N 0.4632(2) 0.14390(15) 0.9434(3)
N2 N 0.6477(2) -0.03579(13) 0.8318(2)
N3 N 0.8090(3) 0.10081(18) 1.0272(4)
N4 N 0.7173(2) 0.26259(15) 0.8274(3)
N5 N 0.7705(2) 0.09609(13) 0.7149(3)
N6 N 0.58248(18) 0.11129(12) 0.7001(2)
N7 N 0.48309(19) 0.11263(12) 0.6858(2)
N8 N 0.2946(2) 0.11517(13) 0.6284(2)
N9 N 0.2301(2) 0.15708(14) 0.8655(2)
N10 N 0.3666(2) 0.23192(13) 0.7692(2)
Fe1A Fe 0.33668(3) -0.11487(2) 0.82986(4)
Ni1A Ni 0.63652(3) -0.130938(19) 0.78714(3)
C1A C 0.4559(2) -0.13237(16) 0.9129(3)
C2A C 0.3494(2) -0.01994(16) 0.8411(3)
C3A C 0.2473(3) -0.10767(18) 0.9574(3)
C4A C 0.3035(2) -0.20817(16) 0.8273(3)
C5A C 0.2658(3) -0.08521(16) 0.6096(3)
C6A C 0.2022(3) -0.06796(17) 0.5210(3)
H1A H 0.2284 -0.0610 0.4481
C7A C 0.1015(3) -0.06127(18) 0.5411(4)
H2A H 0.0574 -0.0485 0.4827
C8A C 0.0650(3) -0.07331(18) 0.6474(4)
H3A H -0.0048 -0.0696 0.6623
C9A C 0.1302(3) -0.09074(17) 0.7317(3)
H4A H 0.1041 -0.0993 0.8042
C10A C 0.3740(3) -0.09120(15) 0.6023(3)
C11A C 0.4469(3) -0.08015(15) 0.5239(3)
H5A H 0.4387 -0.0660 0.4487
C12A C 0.5363(2) -0.09454(15) 0.5800(3)
C13A C 0.6407(3) -0.09707(14) 0.5463(3)
C14A C 0.6727(3) -0.08476(16) 0.4368(3)
H6A H 0.6264 -0.0711 0.3810
C15A C 0.7740(3) -0.09287(17) 0.4111(3)
H7A H 0.7978 -0.0850 0.3373
C16A C 0.8392(3) -0.11256(17) 0.4944(3)
H8A H 0.9083 -0.1189 0.4788
C17A C 0.8017(2) -0.12284(16) 0.6013(3)
H9A H 0.8471 -0.1361 0.6583
C18A C 0.7887(3) -0.22176(18) 0.8617(3)
C19A C 0.8783(3) -0.24822(19) 0.8993(3)
H10A H 0.8901 -0.2940 0.8948
C20A C 0.9504(3) -0.2068(2) 0.9437(3)
H11A H 1.0122 -0.2238 0.9708
C21A C 0.9312(3) -0.1412(2) 0.9479(3)
H12A H 0.9799 -0.1119 0.9772
C22A C 0.8400(3) -0.11756(19) 0.9091(3)
H13A H 0.8269 -0.0719 0.9136
C23A C 0.7084(3) -0.26086(16) 0.8123(3)
H14A H 0.7121 -0.3073 0.8124
C24A C 0.5504(2) -0.26867(16) 0.7168(3)
H15A H 0.4866 -0.2486 0.7440
C25A C 0.5462(3) -0.34113(17) 0.7465(3)
H16A H 0.6052 -0.3634 0.7159
H17A H 0.4853 -0.3605 0.7147
H18A H 0.5453 -0.3461 0.8282
C26A C 0.5541(3) -0.25838(15) 0.5909(3)
C27A C 0.4668(3) -0.24431(17) 0.5309(3)
H19A H 0.4047 -0.2396 0.5691
C28A C 0.4709(3) -0.23715(18) 0.4154(3)
H20A H 0.4112 -0.2283 0.3747
C29A C 0.5607(3) -0.24273(18) 0.3592(3)
H21A H 0.5630 -0.2365 0.2804
C30A C 0.6470(3) -0.25732(17) 0.4168(3)
H22A H 0.7086 -0.2619 0.3777
C31A C 0.6443(3) -0.26552(16) 0.5328(3)
H23A H 0.7040 -0.2760 0.5723
N1A N 0.5368(2) -0.14390(15) 0.9434(3)
N2A N 0.3523(2) 0.03579(13) 0.8318(2)
N3A N 0.1910(3) -0.10081(18) 1.0272(4)
N4A N 0.2827(2) -0.26259(15) 0.8274(3)
N5A N 0.2295(2) -0.09609(13) 0.7149(3)
N6A N 0.41752(18) -0.11129(12) 0.7001(2)
N7A N 0.51691(19) -0.11263(12) 0.6858(2)
N8A N 0.7054(2) -0.11517(13) 0.6284(2)
N9A N 0.7699(2) -0.15708(14) 0.8655(2)
N10A N 0.6334(2) -0.23192(13) 0.7692(2)
O1 O 0.6775(4) 0.0888(3) 0.2736(4)
C33 C 0.5885(10) 0.0808(10) 0.2009(16)
O3 O 0.1789(4) 0.0106(2) 0.1659(4)
O4 O 0.3132(2) 0.11419(14) 0.1287(2)
O5 O 1.0000 0.0000 0.3041(3)
loop_
_geom_bond_atom_site_label_1
_geom_bond_atom_site_label_2
_geom_bond_site_symmetry_1
_geom_bond_site_symmetry_2
Fe1 C1 1_555 1_555
Ni1 N1 1_555 1_555
C1 N1 1_555 1_555
C2 Fe1 1_555 1_555
C3 Fe1 1_555 1_555
C4 Fe1 1_555 1_555
C5 C6 1_555 1_555
C6 H1 1_555 1_555
C7 C6 1_555 1_555
H2 C7 1_555 1_555
C8 C7 1_555 1_555
H3 C8 1_555 1_555
C9 C8 1_555 1_555
H4 C9 1_555 1_555
C10 C5 1_555 1_555
C11 C10 1_555 1_555
H5 C11 1_555 1_555
C12 C11 1_555 1_555
C13 C12 1_555 1_555
C14 C13 1_555 1_555
H6 C14 1_555 1_555
C15 C14 1_555 1_555
H7 C15 1_555 1_555
C16 C15 1_555 1_555
H8 C16 1_555 1_555
C17 C16 1_555 1_555
H9 C17 1_555 1_555
C18 C19 1_555 1_555
C19 H10 1_555 1_555
C20 C19 1_555 1_555
H11 C20 1_555 1_555
C21 C20 1_555 1_555
H12 C21 1_555 1_555
C22 C21 1_555 1_555
H13 C22 1_555 1_555
C23 C18 1_555 1_555
H14 C23 1_555 1_555
C24 H15 1_555 1_555
C25 C24 1_555 1_555
H16 C25 1_555 1_555
H17 C25 1_555 1_555
H18 C25 1_555 1_555
C26 C24 1_555 1_555
C27 C26 1_555 1_555
H19 C27 1_555 1_555
C28 C27 1_555 1_555
H20 C28 1_555 1_555
C29 C28 1_555 1_555
H21 C29 1_555 1_555
C30 C29 1_555 1_555
H22 C30 1_555 1_555
C31 C26 1_555 1_555
H23 C31 1_555 1_555
N2 C2 1_555 1_555
N3 C3 1_555 1_555
N4 C4 1_555 1_555
N5 Fe1 1_555 1_555
N6 Fe1 1_555 1_555
N7 Ni1 1_555 1_555
N8 Ni1 1_555 1_555
N9 Ni1 1_555 1_555
N10 Ni1 1_555 1_555
O1 C33 1_555 1_555
Fe1A C1A 1_555 1_555
Ni1A N2 1_555 1_555
C1A N1A 1_555 1_555
C2A Fe1A 1_555 1_555
C3A Fe1A 1_555 1_555
C4A Fe1A 1_555 1_555
C5A C6A 1_555 1_555
C6A H1A 1_555 1_555
C7A C6A 1_555 1_555
H2A C7A 1_555 1_555
C8A C7A 1_555 1_555
H3A C8A 1_555 1_555
C9A C8A 1_555 1_555
H4A C9A 1_555 1_555
C10A C5A 1_555 1_555
C11A C10A 1_555 1_555
H5A C11A 1_555 1_555
C12A C11A 1_555 1_555
C13A C12A 1_555 1_555
C14A C13A 1_555 1_555
H6A C14A 1_555 1_555
C15A C14A 1_555 1_555
H7A C15A 1_555 1_555
C16A C15A 1_555 1_555
H8A C16A 1_555 1_555
C17A C16A 1_555 1_555
H9A C17A 1_555 1_555
C18A C19A 1_555 1_555
C19A H10A 1_555 1_555
C20A C19A 1_555 1_555
H11A C20A 1_555 1_555
C21A C20A 1_555 1_555
H12A C21A 1_555 1_555
C22A C21A 1_555 1_555
H13A C22A 1_555 1_555
C23A C18A 1_555 1_555
H14A C23A 1_555 1_555
C24A H15A 1_555 1_555
C25A C24A 1_555 1_555
H16A C25A 1_555 1_555
H17A C25A 1_555 1_555
H18A C25A 1_555 1_555
C26A C24A 1_555 1_555
C27A C26A 1_555 1_555
H19A C27A 1_555 1_555
C28A C27A 1_555 1_555
H20A C28A 1_555 1_555
C29A C28A 1_555 1_555
H21A C29A 1_555 1_555
C30A C29A 1_555 1_555
H22A C30A 1_555 1_555
C31A C26A 1_555 1_555
H23A C31A 1_555 1_555
N1A Ni1A 1_555 1_555
N2A Ni1 1_555 1_555
N3A C3A 1_555 1_555
N4A C4A 1_555 1_555
N5A Fe1A 1_555 1_555
N6A Fe1A 1_555 1_555
N7A Ni1A 1_555 1_555
N8A Ni1A 1_555 1_555
N9A Ni1A 1_555 1_555
N10A Ni1A 1_555 1_555
C5 N5 1_555 1_555
C9 N5 1_555 1_555
C10 N6 1_555 1_555
C12 N7 1_555 1_555
C13 N8 1_555 1_555
C17 N8 1_555 1_555
C18 N9 1_555 1_555
C22 N9 1_555 1_555
C23 N10 1_555 1_555
C24 N10 1_555 1_555
C30 C31 1_555 1_555
N6 N7 1_555 1_555
C2A N2A 1_555 1_555
C5A N5A 1_555 1_555
C9A N5A 1_555 1_555
C10A N6A 1_555 1_555
C12A N7A 1_555 1_555
C13A N8A 1_555 1_555
C17A N8A 1_555 1_555
C18A N9A 1_555 1_555
C22A N9A 1_555 1_555
C23A N10A 1_555 1_555
C24A N10A 1_555 1_555
C30A C31A 1_555 1_555
N6A N7A 1_555 1_555

#END
