
#######################################################################
#
#                 Cambridge Crystallographic Data Centre
#                                CCDC 
#
#######################################################################
#
# If this CIF has been generated from an entry in the Cambridge 
# Structural Database, then it will include bibliographic, chemical, 
# crystal, experimental, refinement or atomic coordinate data resulting 
# from the CCDC's data processing and validation procedures.
#
#######################################################################

data_YAZMUJ
_chemical_formula_moiety         
'C68 H52 N20 O8 Pd2 4+,10(C2 H6 O1 S1),4(N1 O3 1-),3(H2 O1)'
_chemical_name_systematic        
"tetrakis(\m~2~-N,N'-di(pyridin-3-yl)pyridine-2,6-dicarboxamide)-di-palladium(ii) tetranitrate dimethyl sulfoxide solvate trihydrate"
_symmetry_cell_setting           triclinic
_symmetry_space_group_name_H-M   'P -1'
_symmetry_Int_Tables_number      2
_space_group_name_Hall           '-P 1'
loop_
_symmetry_equiv_pos_site_id
_symmetry_equiv_pos_as_xyz
1 x,y,z
2 -x,-y,-z
_cell_length_a                   24.8177(8)
_cell_length_b                   29.4140(10)
_cell_length_c                   31.3524(11)
_cell_angle_alpha                67.883(2)
_cell_angle_beta                 89.927(2)
_cell_angle_gamma                82.500(2)
_cell_volume                     20992.8
_exptl_crystal_colour            yellow
_exptl_crystal_description       block
_cell_formula_units_Z            8
loop_
_atom_site_label
_atom_site_type_symbol
_atom_site_fract_x
_atom_site_fract_y
_atom_site_fract_z
Pd1 Pd 0.630451(19) 0.257210(18) 0.318693(17)
Pd2 Pd 0.648767(19) 0.268063(18) 0.058300(17)
O1 O 0.7656(3) 0.0225(2) 0.1638(2)
O2 O 0.8625(3) 0.0815(3) 0.3414(3)
O3 O 0.9281(2) 0.2796(2) 0.1047(2)
O4 O 0.8526(2) 0.3890(3) 0.2622(3)
O5 O 0.5587(3) 0.5230(2) -0.00282(19)
O6 O 0.4195(2) 0.4556(2) 0.1990(2)
O7 O 0.3658(2) 0.2474(2) 0.0862(2)
O8 O 0.4056(2) 0.1442(3) 0.3265(2)
N1 N 0.6538(2) 0.1925(2) 0.08237(19)
N2 N 0.7267(3) 0.0889(2) 0.1780(2)
H1 H 0.7239 0.1015 0.1994
N3 N 0.7926(2) 0.0606(2) 0.2541(2)
N4 N 0.7739(2) 0.1071(2) 0.3158(2)
H2 H 0.7482 0.1044 0.2979
N5 N 0.6997(2) 0.2063(2) 0.34160(19)
N6 N 0.7314(2) 0.2606(2) 0.0616(2)
N7 N 0.8375(2) 0.2943(2) 0.1177(2)
H3 H 0.8149 0.3064 0.1338
N8 N 0.8674(2) 0.3353(2) 0.1778(2)
N9 N 0.7903(2) 0.3548(2) 0.2343(2)
H4 H 0.7830 0.3469 0.2108
N10 N 0.6775(2) 0.3133(2) 0.30438(18)
N11 N 0.6463(2) 0.34325(19) 0.03236(18)
N12 N 0.5806(2) 0.4480(2) 0.0566(2)
H5 H 0.5755 0.4321 0.0860
N13 N 0.5100(2) 0.4766(2) 0.10892(19)
N14 N 0.5051(2) 0.4159(2) 0.2003(2)
H6 H 0.5330 0.4149 0.1832
N15 N 0.5625(2) 0.3084(2) 0.29961(19)
N16 N 0.5665(2) 0.2744(2) 0.05113(17)
N17 N 0.4494(2) 0.2369(2) 0.1200(2)
H7 H 0.4679 0.2243 0.1467
N18 N 0.4074(2) 0.1954(2) 0.2046(2)
N19 N 0.4727(2) 0.1695(2) 0.2787(2)
H8 H 0.4819 0.1780 0.2499
N20 N 0.5841(2) 0.2014(2) 0.3341(2)
C1 C 0.6384(3) 0.1697(3) 0.0571(3)
H9 H 0.6184 0.1894 0.0290
C2 C 0.6484(3) 0.1202(3) 0.0676(3)
H10 H 0.6366 0.1058 0.0475
C3 C 0.6766(3) 0.0917(3) 0.1089(3)
H11 H 0.6832 0.0566 0.1185
C4 C 0.6955(3) 0.1148(3) 0.1368(3)
C5 C 0.6818(3) 0.1655(3) 0.1229(3)
H12 H 0.6922 0.1816 0.1421
C6 C 0.7609(3) 0.0458(3) 0.1877(3)
C7 C 0.7982(3) 0.0324(3) 0.2296(3)
C8 C 0.8377(3) -0.0100(3) 0.2404(3)
H13 H 0.8401 -0.0299 0.2225
C9 C 0.8726(3) -0.0211(3) 0.2785(3)
H14 H 0.8998 -0.0493 0.2870
C10 C 0.8686(3) 0.0080(3) 0.3040(3)
H15 H 0.8930 0.0014 0.3297
C11 C 0.8273(3) 0.0476(3) 0.2905(3)
C12 C 0.8228(3) 0.0802(3) 0.3185(3)
C13 C 0.7603(3) 0.1393(3) 0.3390(3)
C14 C 0.7889(3) 0.1370(3) 0.3781(3)
H16 H 0.8195 0.1124 0.3912
C15 C 0.7721(3) 0.1708(3) 0.3970(3)
H17 H 0.7918 0.1702 0.4232
C16 C 0.7272(3) 0.2057(3) 0.3788(3)
H18 H 0.7157 0.2291 0.3923
C17 C 0.7155(3) 0.1744(3) 0.3229(3)
H19 H 0.6950 0.1757 0.2968
C18 C 0.7592(3) 0.2392(3) 0.0350(3)
H20 H 0.7404 0.2268 0.0163
C19 C 0.8144(3) 0.2359(3) 0.0356(3)
H21 H 0.8337 0.2208 0.0170
C20 C 0.8430(3) 0.2533(3) 0.0615(3)
H22 H 0.8816 0.2506 0.0610
C21 C 0.8150(3) 0.2752(3) 0.0891(3)
C22 C 0.7586(3) 0.2785(3) 0.0876(3)
H23 H 0.7385 0.2939 0.1055
C23 C 0.8919(3) 0.2964(3) 0.1237(3)
C24 C 0.9069(3) 0.3214(3) 0.1543(3)
C25 C 0.9602(3) 0.3314(3) 0.1558(3)
H24 H 0.9873 0.3197 0.1395
C26 C 0.9731(3) 0.3581(3) 0.1809(3)
H25 H 1.0083 0.3677 0.1800
C27 C 0.9345(3) 0.3709(3) 0.2072(3)
H26 H 0.9432 0.3881 0.2260
C28 C 0.8813(3) 0.3582(3) 0.2061(3)
C29 C 0.8414(3) 0.3681(3) 0.2378(3)
C30 C 0.7486(3) 0.3531(3) 0.2664(3)
C31 C 0.7425(3) 0.3872(3) 0.2879(3)
H27 H 0.7647 0.4126 0.2821
C32 C 0.6996(3) 0.3806(3) 0.3195(3)
H28 H 0.6924 0.4029 0.3349
C33 C 0.6699(3) 0.3441(3) 0.3279(3)
H29 H 0.6432 0.3395 0.3503
C34 C 0.7162(3) 0.3187(3) 0.2746(3)
H30 H 0.7209 0.2971 0.2584
C35 C 0.6698(3) 0.3652(3) -0.0070(3)
H31 H 0.6883 0.3452 -0.0217
C36 C 0.6682(3) 0.4144(3) -0.0266(3)
H32 H 0.6861 0.4287 -0.0542
C37 C 0.6393(3) 0.4452(3) -0.0057(3)
H33 H 0.6375 0.4802 -0.0189
C38 C 0.6139(3) 0.4221(3) 0.0346(3)
C39 C 0.6184(3) 0.3712(3) 0.0519(2)
H34 H 0.6004 0.3552 0.0792
C40 C 0.5554(3) 0.4957(3) 0.0365(3)
C41 C 0.5180(3) 0.5109(3) 0.0680(3)
C42 C 0.4922(3) 0.5592(3) 0.0528(3)
H35 H 0.4999 0.5829 0.0239
C43 C 0.4554(3) 0.5722(3) 0.0801(3)
H36 H 0.4378 0.6054 0.0708
C44 C 0.4441(3) 0.5372(3) 0.1208(3)
H37 H 0.4172 0.5452 0.1394
C45 C 0.4719(3) 0.4901(3) 0.1347(3)
C46 C 0.4630(3) 0.4519(3) 0.1804(3)
C47 C 0.5093(3) 0.3794(3) 0.2456(3)
C48 C 0.4734(3) 0.3808(3) 0.2794(3)
H38 H 0.4430 0.4062 0.2724
C49 C 0.4827(3) 0.3448(3) 0.3231(3)
H39 H 0.4583 0.3448 0.3465
C50 C 0.5271(3) 0.3092(3) 0.3327(3)
H40 H 0.5334 0.2845 0.3629
C51 C 0.5524(3) 0.3431(3) 0.2568(3)
H41 H 0.5765 0.3420 0.2335
C52 C 0.5432(3) 0.2976(3) 0.0087(3)
H42 H 0.5650 0.3118 -0.0166
C53 C 0.4887(3) 0.3010(3) 0.0013(3)
H43 H 0.4732 0.3174 -0.0293
C54 C 0.4561(3) 0.2820(3) 0.0357(2)
H44 H 0.4180 0.2845 0.0297
C55 C 0.4790(3) 0.2586(3) 0.0802(2)
C56 C 0.5352(3) 0.2556(3) 0.0867(2)
H45 H 0.5516 0.2399 0.1170
C57 C 0.3950(3) 0.2339(3) 0.1206(3)
C58 C 0.3729(3) 0.2113(3) 0.1663(3)
C59 C 0.3174(3) 0.2086(3) 0.1698(3)
H46 H 0.2942 0.2206 0.1426
C60 C 0.2964(3) 0.1888(3) 0.2115(3)
H47 H 0.2586 0.1868 0.2139
C61 C 0.3308(3) 0.1715(3) 0.2508(3)
H48 H 0.3170 0.1571 0.2805
C62 C 0.3853(3) 0.1756(3) 0.2461(3)
C63 C 0.4226(3) 0.1610(3) 0.2882(3)
C64 C 0.5134(3) 0.1659(3) 0.3128(3)
C65 C 0.5166(3) 0.1258(3) 0.3552(3)
H49 H 0.4922 0.1018 0.3628
C66 C 0.5608(3) 0.1242(3) 0.3864(3)
H50 H 0.5680 0.0969 0.4151
C67 C 0.5920(3) 0.1618(3) 0.3749(3)
H51 H 0.6202 0.1602 0.3961
C68 C 0.5458(3) 0.2018(3) 0.3041(3)
H52 H 0.5410 0.2287 0.2751
Pd3 Pd 0.148570(19) 0.272923(19) 0.310034(17)
Pd4 Pd 0.13285(2) 0.24462(2) 0.066516(18)
O9 O -0.0963(2) 0.1329(2) 0.1434(2)
O10 O -0.1356(2) 0.2502(2) 0.3019(2)
O11 O 0.3295(4) 0.0355(4) 0.1808(3)
O12 O 0.2554(3) 0.0211(3) 0.4003(2)
O13 O 0.3507(2) 0.3792(3) 0.0200(2)
O14 O 0.42883(19) 0.2841(2) 0.25602(18)
O15 O -0.0755(3) 0.4479(3) 0.0292(4)
O16 O 0.0726(3) 0.5265(2) 0.1711(3)
N21 N 0.0850(2) 0.1894(2) 0.0904(2)
N22 N -0.0291(2) 0.1668(2) 0.1638(2)
H53 H -0.0195 0.1805 0.1826
N23 N -0.0954(2) 0.1949(2) 0.2210(2)
N24 N -0.0509(2) 0.2390(2) 0.2738(2)
H54 H -0.0328 0.2251 0.2567
N25 N 0.0660(2) 0.2805(2) 0.31226(19)
N26 N 0.2015(2) 0.1947(2) 0.0847(2)
N27 N 0.2653(3) 0.0929(2) 0.1880(2)
H55 H 0.2465 0.1023 0.2078
N28 N 0.2769(3) 0.0438(3) 0.2825(3)
N29 N 0.2214(3) 0.0870(3) 0.3358(2)
H56 H 0.2200 0.0984 0.3055
N30 N 0.1534(2) 0.1984(2) 0.3465(2)
N31 N 0.1787(2) 0.3004(2) 0.0415(2)
N32 N 0.2914(2) 0.3487(2) 0.0762(2)
H57 H 0.2860 0.3396 0.1058
N33 N 0.3684(2) 0.3335(2) 0.1430(2)
N34 N 0.3394(2) 0.2971(2) 0.2315(2)
H58 H 0.3174 0.3086 0.2066
N35 N 0.2314(2) 0.2658(2) 0.31273(19)
N36 N 0.0639(2) 0.2948(3) 0.04523(19)
N37 N 0.0075(2) 0.4079(3) 0.0579(2)
H59 H 0.0348 0.4073 0.0761
N38 N 0.0130(3) 0.4740(3) 0.1002(2)
N39 N 0.0860(3) 0.4478(2) 0.1722(2)
H60 H 0.0805 0.4294 0.1565
N40 N 0.1461(2) 0.3474(2) 0.27678(19)
C69 C 0.0900(3) 0.1508(3) 0.0768(3)
H61 H 0.1173 0.1482 0.0563
C70 C 0.0570(3) 0.1159(3) 0.0917(3)
H62 H 0.0623 0.0886 0.0823
C71 C 0.0158(3) 0.1185(3) 0.1201(3)
H63 H -0.0078 0.0939 0.1300
C72 C 0.0100(3) 0.1584(3) 0.1338(3)
C73 C 0.0451(3) 0.1926(3) 0.1185(2)
H64 H 0.0411 0.2198 0.1281
C74 C -0.0809(3) 0.1549(3) 0.1656(3)
C75 C -0.1171(3) 0.1740(3) 0.1952(3)
C76 C -0.1725(3) 0.1715(3) 0.1932(3)
H65 H -0.1867 0.1550 0.1758
C77 C -0.2061(3) 0.1931(3) 0.2168(3)
H66 H -0.2444 0.1945 0.2137
C78 C -0.1842(3) 0.2124(3) 0.2446(3)
H67 H -0.2067 0.2251 0.2633
C79 C -0.1287(3) 0.2134(3) 0.2455(3)
C80 C -0.1053(3) 0.2364(3) 0.2758(3)
C81 C -0.0200(3) 0.2620(3) 0.2965(3)
C82 C -0.0444(3) 0.2903(3) 0.3212(3)
H68 H -0.0827 0.2941 0.3240
C83 C -0.0132(3) 0.3116(3) 0.3404(3)
H69 H -0.0292 0.3306 0.3570
C84 C 0.0417(3) 0.3062(3) 0.3363(3)
H70 H 0.0635 0.3211 0.3508
C85 C 0.0360(3) 0.2581(3) 0.2930(3)
H71 H 0.0532 0.2392 0.2767
C86 C 0.2359(3) 0.1934(3) 0.0525(3)
H72 H 0.2284 0.2166 0.0217
C87 C 0.2824(3) 0.1586(3) 0.0631(3)
H73 H 0.3071 0.1590 0.0398
C88 C 0.2926(3) 0.1245(3) 0.1062(3)
H74 H 0.3240 0.1002 0.1130
C89 C 0.2568(3) 0.1245(3) 0.1416(3)
C90 C 0.2109(3) 0.1610(3) 0.1289(3)
H75 H 0.1859 0.1624 0.1515
C91 C 0.2995(4) 0.0491(3) 0.2062(4)
C92 C 0.3064(4) 0.0235(3) 0.2566(4)
C93 C 0.3374(4) -0.0223(3) 0.2744(4)
H76 H 0.3551 -0.0367 0.2547
C94 C 0.3422(4) -0.0471(3) 0.3221(3)
H77 H 0.3650 -0.0781 0.3353
C95 C 0.3143(4) -0.0271(3) 0.3499(4)
H78 H 0.3162 -0.0438 0.3825
C96 C 0.2821(4) 0.0201(3) 0.3276(4)
C97 C 0.2528(4) 0.0415(3) 0.3591(4)
C98 C 0.1921(4) 0.1162(3) 0.3562(3)
C99 C 0.1728(4) 0.0975(3) 0.4003(3)
H79 H 0.1784 0.0630 0.4186
C100 C 0.1446(4) 0.1323(3) 0.4165(3)
H80 H 0.1321 0.1211 0.4469
C101 C 0.1347(4) 0.1824(3) 0.3889(3)
H81 H 0.1149 0.2052 0.4000
C102 C 0.1802(4) 0.1668(3) 0.3307(3)
H82 H 0.1921 0.1793 0.3002
C103 C 0.1689(3) 0.3336(3) -0.0039(3)
H83 H 0.1414 0.3289 -0.0223
C104 C 0.1969(3) 0.3722(3) -0.0231(3)
H84 H 0.1887 0.3947 -0.0541
C105 C 0.2375(3) 0.3782(3) 0.0032(3)
H85 H 0.2576 0.4052 -0.0093
C106 C 0.2488(3) 0.3457(3) 0.0472(3)
C107 C 0.2177(3) 0.3080(3) 0.0656(3)
H86 H 0.2246 0.2866 0.0970
C108 C 0.3384(3) 0.3643(3) 0.0617(3)
C109 C 0.3807(3) 0.3555(3) 0.0991(3)
C110 C 0.4318(3) 0.3705(3) 0.0867(3)
H87 H 0.4386 0.3887 0.0554
C111 C 0.4726(3) 0.3576(3) 0.1218(3)
H88 H 0.5081 0.3660 0.1148
C112 C 0.4599(3) 0.3325(3) 0.1666(3)
H89 H 0.4870 0.3218 0.1910
C113 C 0.4071(3) 0.3232(3) 0.1755(3)
C114 C 0.3928(3) 0.2988(3) 0.2253(3)
C115 C 0.3158(3) 0.2786(3) 0.2742(3)
C116 C 0.3429(3) 0.2563(3) 0.3166(3)
H90 H 0.3816 0.2520 0.3186
C117 C 0.3145(3) 0.2399(3) 0.3568(3)
H91 H 0.3334 0.2254 0.3861
C118 C 0.2589(3) 0.2451(3) 0.3532(3)
H92 H 0.2395 0.2336 0.3805
C119 C 0.2588(3) 0.2823(3) 0.2737(2)
H93 H 0.2387 0.2969 0.2449
C120 C 0.0279(3) 0.2906(3) 0.0151(3)
H94 H 0.0352 0.2643 0.0044
C121 C -0.0185(3) 0.3230(3) -0.0001(3)
H95 H -0.0448 0.3180 -0.0193
C122 C -0.0271(3) 0.3634(3) 0.0124(3)
H96 H -0.0587 0.3873 0.0008
C123 C 0.0110(3) 0.3689(3) 0.0425(3)
C124 C 0.0563(3) 0.3329(3) 0.0582(3)
H97 H 0.0824 0.3356 0.0789
C125 C -0.0330(4) 0.4466(4) 0.0482(3)
C126 C -0.0265(4) 0.4848(4) 0.0668(3)
C127 C -0.0587(4) 0.5302(3) 0.0502(3)
H98 H -0.0870 0.5369 0.0274
C128 C -0.0501(4) 0.5651(4) 0.0665(3)
H99 H -0.0722 0.5965 0.0553
C129 C -0.0092(4) 0.5548(3) 0.0991(3)
H100 H -0.0027 0.5792 0.1108
C130 C 0.0225(4) 0.5093(4) 0.1152(3)
C131 C 0.0629(4) 0.4966(4) 0.1540(3)
C132 C 0.1178(3) 0.4246(3) 0.2142(3)
C133 C 0.1419(3) 0.4504(3) 0.2370(3)
H101 H 0.1397 0.4855 0.2242
C134 C 0.1687(3) 0.4224(3) 0.2786(3)
H102 H 0.1873 0.4387 0.2939
C135 C 0.1702(3) 0.3723(3) 0.2994(3)
H103 H 0.1876 0.3547 0.3291
C136 C 0.1221(3) 0.3734(3) 0.2354(3)
H104 H 0.1070 0.3560 0.2194
Pd5 Pd 0.12231(2) 0.26509(2) 0.824912(18)
Pd6 Pd 0.143740(19) 0.286346(19) 0.561319(16)
O17 O 0.0366(2) 0.5356(2) 0.50901(18)
O18 O -0.0950(2) 0.4606(3) 0.7163(2)
O19 O -0.1403(2) 0.2657(2) 0.5878(2)
O20 O -0.0982(2) 0.1488(3) 0.8280(2)
O21 O 0.2597(3) 0.0415(3) 0.6601(3)
O22 O 0.3575(2) 0.0976(3) 0.8385(3)
O23 O 0.42273(19) 0.2959(2) 0.6125(2)
O24 O 0.3430(2) 0.3950(3) 0.7781(2)
N41 N 0.1381(2) 0.3627(2) 0.53979(18)
N42 N 0.0621(2) 0.4611(2) 0.56816(19)
H105 H 0.0582 0.4442 0.5976
N43 N -0.0107(2) 0.4843(2) 0.6224(2)
N44 N -0.0098(2) 0.4234(2) 0.7137(2)
H106 H 0.0174 0.4246 0.6955
N45 N 0.0517(2) 0.3142(2) 0.80877(19)
N46 N 0.0616(2) 0.2904(2) 0.55402(19)
N47 N -0.0559(2) 0.2527(2) 0.6221(2)
H107 H -0.0379 0.2403 0.6491
N48 N -0.0988(2) 0.2070(2) 0.7062(2)
N49 N -0.0309(2) 0.1782(2) 0.7798(2)
H108 H -0.0220 0.1886 0.7508
N50 N 0.0782(2) 0.2074(2) 0.8385(2)
N51 N 0.1508(2) 0.2116(2) 0.5816(2)
N52 N 0.2205(3) 0.1056(2) 0.6767(2)
H109 H 0.2167 0.1172 0.6988
N53 N 0.2869(2) 0.0745(2) 0.7535(2)
N54 N 0.2679(3) 0.1189(2) 0.8161(2)
H110 H 0.2421 0.1153 0.7989
N55 N 0.1919(3) 0.2169(3) 0.8456(2)
N56 N 0.2269(2) 0.2809(2) 0.56387(19)
N57 N 0.3325(2) 0.3133(2) 0.6232(2)
H111 H 0.3100 0.3266 0.6384
N58 N 0.3618(2) 0.3465(2) 0.6890(2)
N59 N 0.2837(2) 0.3640(2) 0.7433(2)
H112 H 0.2776 0.3576 0.7186
N60 N 0.1674(2) 0.3224(2) 0.8110(2)
C137 C 0.1665(3) 0.3874(3) 0.5043(2)
H113 H 0.1900 0.3699 0.4900
C138 C 0.1617(3) 0.4390(3) 0.4885(3)
H114 H 0.1825 0.4565 0.4637
C139 C 0.1273(3) 0.4645(3) 0.5084(2)
H115 H 0.1229 0.4997 0.4971
C140 C 0.0990(3) 0.4378(3) 0.5457(2)
C141 C 0.1058(3) 0.3875(3) 0.5605(2)
H116 H 0.0870 0.3693 0.5865
C142 C 0.0317(3) 0.5067(3) 0.5493(3)
C143 C -0.0070(3) 0.5188(3) 0.5803(3)
C144 C -0.0380(3) 0.5649(3) 0.5643(3)
H117 H -0.0330 0.5882 0.5344
C145 C -0.0762(3) 0.5772(3) 0.5914(3)
H118 H -0.0979 0.6088 0.5811
C146 C -0.0814(3) 0.5416(3) 0.6339(3)
H119 H -0.1080 0.5482 0.6534
C147 C -0.0477(3) 0.4953(3) 0.6493(3)
C148 C -0.0536(3) 0.4575(3) 0.6965(3)
C149 C -0.0027(3) 0.3858(3) 0.7583(3)
C150 C -0.0387(3) 0.3842(3) 0.7931(3)
H120 H -0.0700 0.4083 0.7878
C151 C -0.0266(3) 0.3462(3) 0.8355(3)
H121 H -0.0504 0.3436 0.8599
C152 C 0.0185(3) 0.3125(3) 0.8430(3)
H122 H 0.0268 0.2874 0.8728
C153 C 0.0418(3) 0.3501(3) 0.7676(3)
H123 H 0.0661 0.3511 0.7439
C154 C 0.0395(3) 0.3099(3) 0.5105(3)
H124 H 0.0618 0.3226 0.4852
C155 C -0.0152(3) 0.3114(3) 0.5027(3)
H125 H -0.0298 0.3242 0.4718
C156 C -0.0490(3) 0.2955(3) 0.5371(2)
H126 H -0.0870 0.2984 0.5311
C157 C -0.0252(3) 0.2741(3) 0.5830(2)
C158 C 0.0297(3) 0.2729(3) 0.5895(3)
H127 H 0.0455 0.2593 0.6200
C159 C -0.1103(3) 0.2491(3) 0.6224(3)
C160 C -0.1322(3) 0.2242(3) 0.6683(3)
C161 C -0.1873(3) 0.2188(3) 0.6708(3)
H128 H -0.2101 0.2303 0.6434
C162 C -0.2084(3) 0.1966(3) 0.7130(3)
H129 H -0.2460 0.1935 0.7153
C163 C -0.1737(3) 0.1787(3) 0.7521(3)
H130 H -0.1870 0.1623 0.7817
C164 C -0.1195(3) 0.1850(3) 0.7474(3)
C165 C -0.0814(3) 0.1681(3) 0.7896(3)
C166 C 0.0089(3) 0.1728(3) 0.8144(3)
C167 C 0.0154(3) 0.1304(3) 0.8535(3)
H131 H -0.0064 0.1047 0.8594
C168 C 0.0600(3) 0.1288(3) 0.8858(3)
H132 H 0.0686 0.1003 0.9133
C169 C 0.0874(3) 0.1656(3) 0.8770(3)
H133 H 0.1154 0.1631 0.8987
C170 C 0.0408(3) 0.2101(3) 0.8085(3)
H134 H 0.0348 0.2390 0.7811
C171 C 0.1360(3) 0.1908(3) 0.5534(3)
H135 H 0.1169 0.2111 0.5250
C172 C 0.1473(3) 0.1411(3) 0.5641(3)
H136 H 0.1369 0.1275 0.5428
C173 C 0.1736(3) 0.1104(3) 0.6052(3)
H137 H 0.1803 0.0756 0.6135
C174 C 0.1902(3) 0.1324(3) 0.6347(3)
C175 C 0.1779(3) 0.1817(3) 0.6234(3)
H138 H 0.1878 0.1960 0.6443
C176 C 0.2547(4) 0.0637(3) 0.6852(3)
C177 C 0.2920(4) 0.0476(3) 0.7285(3)
C178 C 0.3316(3) 0.0055(3) 0.7389(3)
H139 H 0.3332 -0.0145 0.7211
C179 C 0.3675(3) -0.0057(3) 0.7755(3)
H140 H 0.3956 -0.0331 0.7830
C180 C 0.3626(3) 0.0234(3) 0.8014(3)
H141 H 0.3870 0.0162 0.8271
C181 C 0.3224(3) 0.0622(3) 0.7894(3)
C182 C 0.3182(4) 0.0937(3) 0.8181(3)
C183 C 0.2544(3) 0.1511(3) 0.8403(3)
C184 C 0.2829(3) 0.1463(3) 0.8812(3)
H142 H 0.3123 0.1206 0.8949
C185 C 0.2660(3) 0.1806(3) 0.9004(3)
H143 H 0.2861 0.1805 0.9261
C186 C 0.2206(3) 0.2147(3) 0.8827(3)
H144 H 0.2092 0.2374 0.8970
C187 C 0.2075(3) 0.1857(3) 0.8245(3)
H145 H 0.1865 0.1871 0.7986
C188 C 0.2546(3) 0.2602(3) 0.5373(3)
H146 H 0.2361 0.2481 0.5182
C189 C 0.3110(3) 0.2570(3) 0.5384(3)
H147 H 0.3310 0.2424 0.5198
C190 C 0.3384(3) 0.2742(3) 0.5657(3)
H148 H 0.3769 0.2720 0.5653
C191 C 0.3103(3) 0.2950(3) 0.5940(3)
C192 C 0.2533(3) 0.2969(3) 0.5916(3)
H149 H 0.2325 0.3102 0.6107
C193 C 0.3880(3) 0.3123(3) 0.6308(3)
C194 C 0.4012(3) 0.3355(3) 0.6644(3)
C195 C 0.4551(3) 0.3434(3) 0.6685(3)
H150 H 0.4825 0.3326 0.6519
C196 C 0.4675(3) 0.3661(3) 0.6956(3)
H151 H 0.5027 0.3755 0.6956
C197 C 0.4287(3) 0.3764(3) 0.7242(3)
H152 H 0.4377 0.3891 0.7467
C198 C 0.3757(3) 0.3671(3) 0.7183(3)
C199 C 0.3335(3) 0.3753(3) 0.7500(3)
C200 C 0.2399(3) 0.3618(4) 0.7746(3)
C201 C 0.2294(3) 0.3977(4) 0.7932(3)
H153 H 0.2507 0.4239 0.7865
C202 C 0.1863(3) 0.3938(4) 0.8222(3)
H154 H 0.1781 0.4177 0.8359
C203 C 0.1551(3) 0.3556(4) 0.8316(3)
H155 H 0.1259 0.3527 0.8517
C204 C 0.2086(3) 0.3256(4) 0.7833(3)
H156 H 0.2161 0.3019 0.7695
Pd7 Pd 0.356687(19) 0.726619(19) 0.182631(17)
Pd8 Pd 0.37081(2) 0.741501(18) 0.433139(17)
O25 O 0.4366(3) 0.4699(2) 0.3091(2)
O26 O 0.5709(3) 0.5318(3) 0.4701(3)
O27 O 0.6423(2) 0.7441(2) 0.1955(2)
O28 O 0.6030(2) 0.8522(3) 0.3596(3)
O29 O 0.2437(3) 0.9741(2) 0.1060(2)
O30 O 0.1726(3) 0.9541(3) 0.3281(3)
O31 O 0.07795(19) 0.7085(2) 0.23740(19)
O32 O 0.1626(3) 0.5863(3) 0.4715(2)
N61 N 0.3595(2) 0.65165(19) 0.21016(19)
N62 N 0.4177(2) 0.5468(2) 0.3114(2)
H157 H 0.4194 0.5632 0.3297
N63 N 0.4876(2) 0.5168(2) 0.3870(2)
N64 N 0.4947(2) 0.5804(2) 0.4314(2)
H158 H 0.4701 0.5842 0.4097
N65 N 0.4398(2) 0.6901(2) 0.45252(19)
N66 N 0.4403(2) 0.7185(2) 0.1799(2)
N67 N 0.5574(2) 0.7558(2) 0.2217(2)
H159 H 0.5393 0.7676 0.2403
N68 N 0.6009(2) 0.7950(2) 0.2787(2)
N69 N 0.5355(2) 0.8197(2) 0.3374(2)
H160 H 0.5259 0.8082 0.3168
N70 N 0.4195(2) 0.7957(2) 0.4092(2)
N71 N 0.3514(2) 0.8019(2) 0.1521(2)
N72 N 0.2808(3) 0.9086(2) 0.1691(2)
H161 H 0.2825 0.8953 0.1994
N73 N 0.2237(3) 0.9475(2) 0.2238(3)
N74 N 0.2366(3) 0.8961(2) 0.3182(2)
H162 H 0.2551 0.8886 0.2973
N75 N 0.3026(2) 0.7927(2) 0.41752(19)
N76 N 0.2735(2) 0.7333(2) 0.18104(19)
N77 N 0.1674(2) 0.6977(2) 0.2620(2)
H163 H 0.1898 0.6863 0.2866
N78 N 0.1406(2) 0.6524(2) 0.35142(19)
N79 N 0.2138(3) 0.6370(2) 0.4204(2)
H164 H 0.2189 0.6504 0.3908
N80 N 0.3241(2) 0.6863(2) 0.45864(18)
C205 C 0.3403(3) 0.6286(3) 0.1841(3)
H165 H 0.3236 0.6482 0.1544
C206 C 0.3443(3) 0.5786(3) 0.1992(3)
H166 H 0.3296 0.5635 0.1807
C207 C 0.3695(3) 0.5501(3) 0.2411(2)
H167 H 0.3732 0.5150 0.2517
C208 C 0.3903(3) 0.5732(3) 0.2687(3)
C209 C 0.3837(3) 0.6241(3) 0.2525(2)
H168 H 0.3962 0.6402 0.2711
C210 C 0.4420(3) 0.4993(3) 0.3284(3)
C211 C 0.4806(3) 0.4834(3) 0.3694(3)
C212 C 0.5087(3) 0.4360(3) 0.3859(3)
H169 H 0.5034 0.4138 0.3712
C213 C 0.5451(3) 0.4207(3) 0.4243(3)
H170 H 0.5649 0.3882 0.4362
C214 C 0.5512(3) 0.4544(3) 0.4442(3)
H171 H 0.5747 0.4455 0.4708
C215 C 0.5219(3) 0.5022(3) 0.4240(3)
C216 C 0.5321(3) 0.5387(3) 0.4452(3)
C217 C 0.4926(3) 0.6180(3) 0.4494(3)
C218 C 0.5321(3) 0.6243(3) 0.4763(3)
H172 H 0.5653 0.6022 0.4840
C219 C 0.5247(3) 0.6611(3) 0.4920(3)
H173 H 0.5528 0.6647 0.5106
C220 C 0.4770(3) 0.6938(3) 0.4815(3)
H174 H 0.4707 0.7183 0.4945
C221 C 0.4460(3) 0.6531(3) 0.4375(3)
H175 H 0.4179 0.6505 0.4183
C222 C 0.4624(3) 0.6954(3) 0.1538(3)
H176 H 0.4399 0.6816 0.1388
C223 C 0.5171(3) 0.6913(3) 0.1483(3)
H177 H 0.5320 0.6747 0.1293
C224 C 0.5502(3) 0.7101(3) 0.1689(3)
H178 H 0.5883 0.7064 0.1654
C225 C 0.5263(3) 0.7359(3) 0.1962(3)
C226 C 0.4701(3) 0.7395(3) 0.2002(3)
H179 H 0.4531 0.7572 0.2176
C227 C 0.6114(3) 0.7586(3) 0.2205(3)
C228 C 0.6347(3) 0.7773(3) 0.2527(3)
C229 C 0.6912(3) 0.7758(3) 0.2562(3)
H180 H 0.7142 0.7617 0.2389
C230 C 0.7129(3) 0.7948(3) 0.2850(3)
H181 H 0.7511 0.7948 0.2871
C231 C 0.6793(3) 0.8138(3) 0.3110(3)
H182 H 0.6938 0.8278 0.3307
C232 C 0.6232(3) 0.8122(3) 0.3079(3)
C233 C 0.5871(3) 0.8302(3) 0.3376(3)
C234 C 0.4954(3) 0.8261(3) 0.3681(3)
C235 C 0.4917(3) 0.8647(3) 0.3832(3)
H183 H 0.5173 0.8875 0.3749
C236 C 0.4488(3) 0.8692(3) 0.4112(3)
H184 H 0.4436 0.8965 0.4206
C237 C 0.4143(3) 0.8339(3) 0.4248(3)
H185 H 0.3866 0.8359 0.4452
C238 C 0.4601(3) 0.7928(3) 0.3819(3)
H186 H 0.4643 0.7659 0.3717
C239 C 0.3732(4) 0.8217(3) 0.1101(3)
H187 H 0.3942 0.8010 0.0973
C240 C 0.3640(4) 0.8726(3) 0.0864(3)
H188 H 0.3789 0.8867 0.0572
C241 C 0.3338(4) 0.9032(3) 0.1043(3)
H189 H 0.3280 0.9381 0.0877
C242 C 0.3117(4) 0.8825(3) 0.1470(3)
C243 C 0.3227(4) 0.8307(3) 0.1698(3)
H190 H 0.3087 0.8159 0.1993
C244 C 0.2481(4) 0.9527(3) 0.1490(3)
C245 C 0.2178(4) 0.9734(3) 0.1787(3)
C246 C 0.1839(4) 1.0172(3) 0.1578(3)
H191 H 0.1794 1.0333 0.1252
C247 C 0.1561(4) 1.0368(3) 0.1879(3)
H192 H 0.1338 1.0681 0.1757
C248 C 0.1614(4) 1.0105(3) 0.2353(3)
H193 H 0.1425 1.0233 0.2556
C249 C 0.1946(4) 0.9652(3) 0.2525(3)
C250 C 0.2010(4) 0.9383(3) 0.3027(3)
C251 C 0.2473(4) 0.8624(3) 0.3647(3)
C252 C 0.2145(4) 0.8632(3) 0.4004(3)
H194 H 0.1838 0.8881 0.3944
C253 C 0.2256(4) 0.8296(3) 0.4426(3)
H195 H 0.2026 0.8302 0.4667
C254 C 0.2715(4) 0.7928(3) 0.4522(3)
H196 H 0.2800 0.7689 0.4826
C255 C 0.2911(3) 0.8264(3) 0.3742(3)
H197 H 0.3138 0.8251 0.3502
C256 C 0.2459(3) 0.7557(3) 0.1410(3)
H198 H 0.2653 0.7690 0.1139
C257 C 0.1915(3) 0.7603(3) 0.1374(3)
H199 H 0.1726 0.7760 0.1081
C258 C 0.1628(3) 0.7416(3) 0.1775(3)
H200 H 0.1242 0.7448 0.1754
C259 C 0.1910(3) 0.7182(3) 0.2204(3)
C260 C 0.2469(3) 0.7145(3) 0.2202(3)
H201 H 0.2676 0.6981 0.2486
C261 C 0.1144(3) 0.6928(3) 0.2700(3)
C262 C 0.1005(3) 0.6661(3) 0.3180(3)
C263 C 0.0468(3) 0.6579(3) 0.3258(3)
H202 H 0.0192 0.6705 0.3016
C264 C 0.0354(3) 0.6301(3) 0.3716(3)
H203 H -0.0004 0.6223 0.3784
C265 C 0.0750(3) 0.6141(3) 0.4064(3)
H204 H 0.0676 0.5953 0.4374
C266 C 0.1272(3) 0.6267(3) 0.3942(3)
C267 C 0.1691(3) 0.6153(3) 0.4323(3)
C268 C 0.2545(3) 0.6406(3) 0.4512(2)
C269 C 0.2615(3) 0.6105(3) 0.4970(2)
H205 H 0.2409 0.5839 0.5099
C270 C 0.2991(3) 0.6198(3) 0.5235(2)
H206 H 0.3042 0.5997 0.5554
C271 C 0.3293(3) 0.6577(3) 0.5043(2)
H207 H 0.3545 0.6641 0.5235
C272 C 0.2875(3) 0.6771(3) 0.4330(2)
H208 H 0.2840 0.6963 0.4009
N81 N 0.6375(3) 0.4068(3) 0.1623(3)
O33 O 0.6808(3) 0.4118(3) 0.1419(3)
O34 O 0.6047(3) 0.3826(2) 0.1544(2)
O35 O 0.6244(3) 0.4299(3) 0.1879(3)
N82 N 0.6353(2) 0.2651(2) 0.1907(2)
O36 O 0.6727(3) 0.2635(3) 0.2168(2)
O37 O 0.6457(3) 0.2655(2) 0.1520(2)
O38 O 0.5879(3) 0.2687(3) 0.2040(3)
N83 N 0.6407(3) 0.1193(3) 0.2553(4)
O39 O 0.6771(4) 0.1424(3) 0.2348(3)
O40 O 0.6031(4) 0.1132(4) 0.2325(5)
O41 O 0.6580(5) 0.0897(4) 0.2982(4)
N84 N 0.1413(3) 0.4061(3) 0.0951(3)
O42 O 0.1859(3) 0.4155(3) 0.1080(3)
O43 O 0.1244(3) 0.4245(3) 0.0556(3)
O44 O 0.1119(3) 0.3794(2) 0.1238(2)
N85 N 0.1347(3) 0.2631(2) 0.1828(2)
O45 O 0.1780(4) 0.2569(3) 0.1621(3)
O46 O 0.0943(4) 0.2654(4) 0.1607(3)
O47 O 0.1386(5) 0.2654(4) 0.2184(3)
N86 N 0.1366(3) 0.1373(3) 0.2362(3)
O48 O 0.1877(2) 0.1331(2) 0.23969(19)
O49 O 0.1127(2) 0.1349(3) 0.2028(2)
O50 O 0.1098(3) 0.1428(4) 0.2682(2)
N87 N 0.1234(3) 0.4203(3) 0.6730(3)
O51 O 0.1659(3) 0.4292(3) 0.6501(3)
O52 O 0.0914(3) 0.3957(2) 0.6657(2)
O53 O 0.1128(4) 0.4388(4) 0.7009(3)
N88 N 0.1281(2) 0.2775(2) 0.6961(2)
O54 O 0.1358(3) 0.2796(3) 0.6579(2)
O55 O 0.0833(3) 0.2779(3) 0.7120(3)
O56 O 0.1699(3) 0.2757(3) 0.7214(2)
N89 N 0.1337(3) 0.1314(3) 0.7575(4)
O57 O 0.1694(4) 0.1563(4) 0.7364(3)
O58 O 0.0961(4) 0.1256(4) 0.7374(5)
O59 O 0.1533(4) 0.1022(4) 0.7996(3)
N90 N 0.3709(2) 0.7273(3) 0.3125(3)
O60 O 0.3612(5) 0.7274(3) 0.2773(3)
O61 O 0.3349(5) 0.7341(3) 0.3374(3)
O62 O 0.4151(4) 0.7216(4) 0.3342(3)
N91 N 0.3598(3) 0.5890(3) 0.3921(4)
O63 O 0.3931(3) 0.6109(2) 0.3650(2)
O64 O 0.3157(3) 0.5829(3) 0.3781(3)
O65 O 0.3735(3) 0.5698(3) 0.4338(3)
N92 N 0.6103(4) 0.2650(3) 0.4407(2)
O66 O 0.6129(4) 0.2391(3) 0.4173(3)
O67 O 0.5963(3) 0.3111(2) 0.4233(3)
O68 O 0.6157(4) 0.2428(3) 0.4819(3)
N93 N 0.1140(6) 0.2517(6) 0.9470(4)
O69 O 0.1545(5) 0.2324(7) 0.9682(5)
O70 O 0.0798(6) 0.2272(4) 0.9453(3)
O71 O 0.1040(7) 0.2972(6) 0.9256(4)
N94 N 0.3661(3) 0.8551(3) 0.2677(3)
O72 O 0.3160(2) 0.8601(2) 0.26424(19)
O73 O 0.3903(2) 0.8574(3) 0.3006(2)
O74 O 0.3930(2) 0.8498(4) 0.2354(2)
S1 S 0.67802(11) 0.56968(14) 0.52365(12)
O75 O 0.7250(3) 0.5823(3) 0.5485(3)
C273 C 0.7042(4) 0.5178(5) 0.5105(5)
H209 H 0.7400 0.5035 0.5264
H210 H 0.7077 0.5282 0.4772
H211 H 0.6794 0.4929 0.5207
C274 C 0.6333(3) 0.5443(4) 0.5643(4)
H212 H 0.6534 0.5212 0.5926
H213 H 0.6099 0.5266 0.5528
H214 H 0.6108 0.5707 0.5708
S2 S 0.33496(11) 0.32713(13) 0.92652(13)
O76 O 0.3959(3) 0.3146(4) 0.9254(3)
C275 C 0.3123(5) 0.2823(5) 0.9738(4)
H215 H 0.3237 0.2495 0.9727
H216 H 0.2725 0.2884 0.9735
H217 H 0.3279 0.2833 1.0021
C276 C 0.3060(5) 0.3071(7) 0.8886(5)
H218 H 0.3038 0.3329 0.8576
H219 H 0.2694 0.2999 0.8979
H220 H 0.3283 0.2770 0.8887
S3 S 0.92947(13) 0.16432(14) 0.96776(12)
O77 O 0.8683(2) 0.1775(3) 0.9672(2)
C277 C 0.9499(5) 0.1958(5) 0.9974(5)
H221 H 0.9442 0.1785 1.0302
H222 H 0.9290 0.2291 0.9863
H223 H 0.9887 0.1984 0.9932
C278 C 0.9467(4) 0.2087(4) 0.9174(4)
H224 H 0.9147 0.2333 0.9032
H225 H 0.9596 0.1929 0.8960
H226 H 0.9756 0.2251 0.9242
S4 S 0.9511(2) 0.02424(18) 0.92798(17)
O78 O 0.8874(4) 0.0566(5) 0.9289(4)
C279 C 0.9436(9) -0.0257(6) 0.9797(4)
H227 H 0.9255 -0.0501 0.9729
H228 H 0.9217 -0.0135 1.0002
H229 H 0.9796 -0.0413 0.9948
C280 C 0.9521(6) 0.0050(6) 0.8871(4)
H230 H 0.9565 0.0324 0.8580
H231 H 0.9179 -0.0076 0.8852
H232 H 0.9826 -0.0216 0.8928
S5 S 0.90492(10) 0.42297(10) 0.38219(9)
O79 O 0.9155(3) 0.3661(3) 0.4013(3)
C281 C 0.8642(4) 0.4399(4) 0.4215(3)
H233 H 0.8322 0.4226 0.4271
H234 H 0.8524 0.4758 0.4086
H235 H 0.8853 0.4309 0.4506
C282 C 0.8559(5) 0.4411(4) 0.3377(4)
H236 H 0.8724 0.4374 0.3106
H237 H 0.8407 0.4758 0.3301
H238 H 0.8269 0.4203 0.3472
S6 S 0.8997(2) 0.06436(17) 0.07109(15)
O80 O 0.8935(5) 0.0348(5) 0.0407(4)
C283 C 0.8346(4) 0.0943(4) 0.0743(4)
H239 H 0.8227 0.1201 0.0441
H240 H 0.8359 0.1093 0.0972
H241 H 0.8089 0.0700 0.0832
C284 C 0.8954(4) 0.0295(3) 0.1265(2)
H242 H 0.8796 -0.0003 0.1292
H243 H 0.8721 0.0484 0.1412
H244 H 0.9318 0.0198 0.1419
S7 S 0.78322(10) 0.30716(11) 0.42545(9)
O81 O 0.7417(3) 0.2712(4) 0.4400(3)
C285 C 0.8288(4) 0.2913(5) 0.4720(3)
H245 H 0.8089 0.2913 0.4991
H246 H 0.8545 0.3155 0.4650
H247 H 0.8487 0.2582 0.4785
C286 C 0.8256(4) 0.2900(4) 0.3877(3)
H248 H 0.8049 0.2968 0.3589
H249 H 0.8394 0.2546 0.4019
H250 H 0.8562 0.3091 0.3812
S8 S 0.25977(8) 0.48583(8) 0.14810(8)
O82 O 0.2783(2) 0.5355(2) 0.1325(2)
C287 C 0.3019(4) 0.4521(4) 0.1229(4)
H251 H 0.2955 0.4672 0.0893
H252 H 0.2939 0.4179 0.1342
H253 H 0.3400 0.4522 0.1310
C288 C 0.2853(4) 0.4528(4) 0.2039(3)
H254 H 0.3227 0.4589 0.2069
H255 H 0.2851 0.4173 0.2114
H256 H 0.2627 0.4633 0.2251
S9 S 0.26071(9) 0.52331(9) 0.31573(10)
O83 O 0.2504(3) 0.4860(3) 0.2962(3)
C289 C 0.2249(6) 0.5802(4) 0.2743(5)
H257 H 0.1918 0.5902 0.2875
H258 H 0.2151 0.5751 0.2464
H259 H 0.2484 0.6062 0.2666
C290 C 0.2188(4) 0.5175(5) 0.3592(3)
H260 H 0.1812 0.5289 0.3467
H261 H 0.2286 0.5376 0.3761
H262 H 0.2223 0.4826 0.3802
S10 S 0.7930(2) 0.48455(18) 0.0116(2)
O84 O 0.7341(3) 0.5070(4) -0.0026(4)
C291 C 0.8166(5) 0.4660(7) -0.0316(5)
H263 H 0.8031 0.4351 -0.0283
H264 H 0.8565 0.4607 -0.0295
H265 H 0.8037 0.4917 -0.0616
C292 C 0.7883(7) 0.4239(5) 0.0483(5)
H266 H 0.7501 0.4203 0.0546
H267 H 0.8092 0.4161 0.0772
H268 H 0.8029 0.4012 0.0336
O85 O 0.5312(3) 0.1995(4) 0.1956(3)
H269 H 0.542(5) 0.222(3) 0.203(5)
H270 H 0.556(3) 0.175(3) 0.208(3)
O86 O 0.4818(3) 0.7804(4) 0.2809(4)
H271 H 0.470(5) 0.753(2) 0.288(6)
H272 H 0.453(3) 0.800(4) 0.278(5)
O87 O 0.0234(3) 0.2126(4) 0.2148(3)
H273 H 0.050(2) 0.225(4) 0.200(3)
H274 H 0.040(3) 0.1878(17) 0.2370(17)
loop_
_geom_bond_atom_site_label_1
_geom_bond_atom_site_label_2
_geom_bond_site_symmetry_1
_geom_bond_site_symmetry_2
Pd1 N5 1_555 1_555
Pd2 N1 1_555 1_555
O1 C6 1_555 1_555
O2 C12 1_555 1_555
O3 C23 1_555 1_555
O4 C29 1_555 1_555
O5 C40 1_555 1_555
O6 C46 1_555 1_555
O7 C57 1_555 1_555
O8 C63 1_555 1_555
N1 C1 1_555 1_555
N2 H1 1_555 1_555
N3 C7 1_555 1_555
N4 H2 1_555 1_555
N5 C16 1_555 1_555
N6 Pd2 1_555 1_555
N7 H3 1_555 1_555
N8 C24 1_555 1_555
N9 H4 1_555 1_555
N10 Pd1 1_555 1_555
N11 Pd2 1_555 1_555
N12 H5 1_555 1_555
N13 C41 1_555 1_555
N14 H6 1_555 1_555
N15 Pd1 1_555 1_555
N16 Pd2 1_555 1_555
N17 H7 1_555 1_555
N18 C58 1_555 1_555
N19 H8 1_555 1_555
N20 Pd1 1_555 1_555
C1 H9 1_555 1_555
C2 C1 1_555 1_555
H10 C2 1_555 1_555
C3 C2 1_555 1_555
H11 C3 1_555 1_555
C4 N2 1_555 1_555
C5 N1 1_555 1_555
H12 C5 1_555 1_555
C6 N2 1_555 1_555
C7 C6 1_555 1_555
C8 C7 1_555 1_555
H13 C8 1_555 1_555
C9 C8 1_555 1_555
H14 C9 1_555 1_555
C10 C9 1_555 1_555
H15 C10 1_555 1_555
C11 N3 1_555 1_555
C12 N4 1_555 1_555
C13 N4 1_555 1_555
C14 C13 1_555 1_555
H16 C14 1_555 1_555
C15 C14 1_555 1_555
H17 C15 1_555 1_555
C16 C15 1_555 1_555
H18 C16 1_555 1_555
C17 N5 1_555 1_555
H19 C17 1_555 1_555
C18 N6 1_555 1_555
H20 C18 1_555 1_555
C19 C18 1_555 1_555
H21 C19 1_555 1_555
C20 C19 1_555 1_555
H22 C20 1_555 1_555
C21 N7 1_555 1_555
C22 N6 1_555 1_555
H23 C22 1_555 1_555
C23 N7 1_555 1_555
C24 C23 1_555 1_555
C25 C24 1_555 1_555
H24 C25 1_555 1_555
C26 C25 1_555 1_555
H25 C26 1_555 1_555
C27 C26 1_555 1_555
H26 C27 1_555 1_555
C28 N8 1_555 1_555
C29 N9 1_555 1_555
C30 N9 1_555 1_555
C31 C30 1_555 1_555
H27 C31 1_555 1_555
C32 C31 1_555 1_555
H28 C32 1_555 1_555
C33 N10 1_555 1_555
H29 C33 1_555 1_555
C34 N10 1_555 1_555
H30 C34 1_555 1_555
C35 N11 1_555 1_555
H31 C35 1_555 1_555
C36 C35 1_555 1_555
H32 C36 1_555 1_555
C37 C36 1_555 1_555
H33 C37 1_555 1_555
C38 N12 1_555 1_555
C39 N11 1_555 1_555
H34 C39 1_555 1_555
C40 N12 1_555 1_555
C41 C40 1_555 1_555
C42 C41 1_555 1_555
H35 C42 1_555 1_555
C43 C42 1_555 1_555
H36 C43 1_555 1_555
C44 C43 1_555 1_555
H37 C44 1_555 1_555
C45 N13 1_555 1_555
C46 N14 1_555 1_555
C47 N14 1_555 1_555
C48 C47 1_555 1_555
H38 C48 1_555 1_555
C49 C48 1_555 1_555
H39 C49 1_555 1_555
C50 N15 1_555 1_555
H40 C50 1_555 1_555
C51 N15 1_555 1_555
H41 C51 1_555 1_555
C52 N16 1_555 1_555
H42 C52 1_555 1_555
C53 C52 1_555 1_555
H43 C53 1_555 1_555
C54 C53 1_555 1_555
H44 C54 1_555 1_555
C55 N17 1_555 1_555
C56 N16 1_555 1_555
H45 C56 1_555 1_555
C57 N17 1_555 1_555
C58 C57 1_555 1_555
C59 C58 1_555 1_555
H46 C59 1_555 1_555
C60 C59 1_555 1_555
H47 C60 1_555 1_555
C61 C60 1_555 1_555
H48 C61 1_555 1_555
C62 N18 1_555 1_555
C63 N19 1_555 1_555
C64 N19 1_555 1_555
C65 C64 1_555 1_555
H49 C65 1_555 1_555
C66 C65 1_555 1_555
H50 C66 1_555 1_555
C67 N20 1_555 1_555
H51 C67 1_555 1_555
C68 N20 1_555 1_555
H52 C68 1_555 1_555
Pd3 N25 1_555 1_555
Pd4 N21 1_555 1_555
O9 C74 1_555 1_555
O10 C80 1_555 1_555
O11 C91 1_555 1_555
O12 C97 1_555 1_555
O13 C108 1_555 1_555
O14 C114 1_555 1_555
O15 C125 1_555 1_555
O16 C131 1_555 1_555
N21 C69 1_555 1_555
N22 H53 1_555 1_555
N23 C75 1_555 1_555
N24 H54 1_555 1_555
N25 C84 1_555 1_555
N26 Pd4 1_555 1_555
N27 H55 1_555 1_555
N28 C92 1_555 1_555
N29 H56 1_555 1_555
N30 Pd3 1_555 1_555
N31 Pd4 1_555 1_555
N32 H57 1_555 1_555
N33 C109 1_555 1_555
N34 H58 1_555 1_555
N35 Pd3 1_555 1_555
N36 Pd4 1_555 1_555
N37 H59 1_555 1_555
N38 C126 1_555 1_555
N39 H60 1_555 1_555
N40 Pd3 1_555 1_555
C69 H61 1_555 1_555
C70 C69 1_555 1_555
H62 C70 1_555 1_555
C71 C70 1_555 1_555
H63 C71 1_555 1_555
C72 N22 1_555 1_555
C73 N21 1_555 1_555
H64 C73 1_555 1_555
C74 N22 1_555 1_555
C75 C74 1_555 1_555
C76 C75 1_555 1_555
H65 C76 1_555 1_555
C77 C76 1_555 1_555
H66 C77 1_555 1_555
C78 C77 1_555 1_555
H67 C78 1_555 1_555
C79 N23 1_555 1_555
C80 N24 1_555 1_555
C81 N24 1_555 1_555
C82 C81 1_555 1_555
H68 C82 1_555 1_555
C83 C82 1_555 1_555
H69 C83 1_555 1_555
C84 C83 1_555 1_555
H70 C84 1_555 1_555
C85 N25 1_555 1_555
H71 C85 1_555 1_555
C86 N26 1_555 1_555
H72 C86 1_555 1_555
C87 C86 1_555 1_555
H73 C87 1_555 1_555
C88 C87 1_555 1_555
H74 C88 1_555 1_555
C89 N27 1_555 1_555
C90 N26 1_555 1_555
H75 C90 1_555 1_555
C91 N27 1_555 1_555
C92 C91 1_555 1_555
C93 C92 1_555 1_555
H76 C93 1_555 1_555
C94 C93 1_555 1_555
H77 C94 1_555 1_555
C95 C94 1_555 1_555
H78 C95 1_555 1_555
C96 N28 1_555 1_555
C97 N29 1_555 1_555
C98 N29 1_555 1_555
C99 C98 1_555 1_555
H79 C99 1_555 1_555
C100 C99 1_555 1_555
H80 C100 1_555 1_555
C101 N30 1_555 1_555
H81 C101 1_555 1_555
C102 N30 1_555 1_555
H82 C102 1_555 1_555
C103 N31 1_555 1_555
H83 C103 1_555 1_555
C104 C103 1_555 1_555
H84 C104 1_555 1_555
C105 C104 1_555 1_555
H85 C105 1_555 1_555
C106 N32 1_555 1_555
C107 N31 1_555 1_555
H86 C107 1_555 1_555
C108 N32 1_555 1_555
C109 C108 1_555 1_555
C110 C109 1_555 1_555
H87 C110 1_555 1_555
C111 C110 1_555 1_555
H88 C111 1_555 1_555
C112 C111 1_555 1_555
H89 C112 1_555 1_555
C113 N33 1_555 1_555
C114 N34 1_555 1_555
C115 N34 1_555 1_555
C116 C115 1_555 1_555
H90 C116 1_555 1_555
C117 C116 1_555 1_555
H91 C117 1_555 1_555
C118 N35 1_555 1_555
H92 C118 1_555 1_555
C119 N35 1_555 1_555
H93 C119 1_555 1_555
C120 N36 1_555 1_555
H94 C120 1_555 1_555
C121 C120 1_555 1_555
H95 C121 1_555 1_555
C122 C121 1_555 1_555
H96 C122 1_555 1_555
C123 N37 1_555 1_555
C124 N36 1_555 1_555
H97 C124 1_555 1_555
C125 N37 1_555 1_555
C126 C125 1_555 1_555
C127 C126 1_555 1_555
H98 C127 1_555 1_555
C128 C127 1_555 1_555
H99 C128 1_555 1_555
C129 C128 1_555 1_555
H100 C129 1_555 1_555
C130 N38 1_555 1_555
C131 N39 1_555 1_555
C132 N39 1_555 1_555
C133 C132 1_555 1_555
H101 C133 1_555 1_555
C134 C133 1_555 1_555
H102 C134 1_555 1_555
C135 N40 1_555 1_555
H103 C135 1_555 1_555
C136 N40 1_555 1_555
H104 C136 1_555 1_555
Pd5 N45 1_555 1_555
Pd6 N41 1_555 1_555
O17 C142 1_555 1_555
O18 C148 1_555 1_555
O19 C159 1_555 1_555
O20 C165 1_555 1_555
O21 C176 1_555 1_555
O22 C182 1_555 1_555
O23 C193 1_555 1_555
O24 C199 1_555 1_555
N41 C137 1_555 1_555
N42 H105 1_555 1_555
N43 C143 1_555 1_555
N44 H106 1_555 1_555
N45 C152 1_555 1_555
N46 Pd6 1_555 1_555
N47 H107 1_555 1_555
N48 C160 1_555 1_555
N49 H108 1_555 1_555
N50 Pd5 1_555 1_555
N51 Pd6 1_555 1_555
N52 H109 1_555 1_555
N53 C177 1_555 1_555
N54 H110 1_555 1_555
N55 Pd5 1_555 1_555
N56 Pd6 1_555 1_555
N57 H111 1_555 1_555
N58 C194 1_555 1_555
N59 H112 1_555 1_555
N60 Pd5 1_555 1_555
C137 H113 1_555 1_555
C138 C137 1_555 1_555
H114 C138 1_555 1_555
C139 C138 1_555 1_555
H115 C139 1_555 1_555
C140 N42 1_555 1_555
C141 N41 1_555 1_555
H116 C141 1_555 1_555
C142 N42 1_555 1_555
C143 C142 1_555 1_555
C144 C143 1_555 1_555
H117 C144 1_555 1_555
C145 C144 1_555 1_555
H118 C145 1_555 1_555
C146 C145 1_555 1_555
H119 C146 1_555 1_555
C147 N43 1_555 1_555
C148 N44 1_555 1_555
C149 N44 1_555 1_555
C150 C149 1_555 1_555
H120 C150 1_555 1_555
C151 C150 1_555 1_555
H121 C151 1_555 1_555
C152 C151 1_555 1_555
H122 C152 1_555 1_555
C153 N45 1_555 1_555
H123 C153 1_555 1_555
C154 N46 1_555 1_555
H124 C154 1_555 1_555
C155 C154 1_555 1_555
H125 C155 1_555 1_555
C156 C155 1_555 1_555
H126 C156 1_555 1_555
C157 N47 1_555 1_555
C158 N46 1_555 1_555
H127 C158 1_555 1_555
C159 N47 1_555 1_555
C160 C159 1_555 1_555
C161 C160 1_555 1_555
H128 C161 1_555 1_555
C162 C161 1_555 1_555
H129 C162 1_555 1_555
C163 C162 1_555 1_555
H130 C163 1_555 1_555
C164 N48 1_555 1_555
C165 N49 1_555 1_555
C166 N49 1_555 1_555
C167 C166 1_555 1_555
H131 C167 1_555 1_555
C168 C167 1_555 1_555
H132 C168 1_555 1_555
C169 N50 1_555 1_555
H133 C169 1_555 1_555
C170 N50 1_555 1_555
H134 C170 1_555 1_555
C171 N51 1_555 1_555
H135 C171 1_555 1_555
C172 C171 1_555 1_555
H136 C172 1_555 1_555
C173 C172 1_555 1_555
H137 C173 1_555 1_555
C174 N52 1_555 1_555
C175 N51 1_555 1_555
H138 C175 1_555 1_555
C176 N52 1_555 1_555
C177 C176 1_555 1_555
C178 C177 1_555 1_555
H139 C178 1_555 1_555
C179 C178 1_555 1_555
H140 C179 1_555 1_555
C180 C179 1_555 1_555
H141 C180 1_555 1_555
C181 N53 1_555 1_555
C182 N54 1_555 1_555
C183 N54 1_555 1_555
C184 C183 1_555 1_555
H142 C184 1_555 1_555
C185 C184 1_555 1_555
H143 C185 1_555 1_555
C186 N55 1_555 1_555
H144 C186 1_555 1_555
C187 N55 1_555 1_555
H145 C187 1_555 1_555
C188 N56 1_555 1_555
H146 C188 1_555 1_555
C189 C188 1_555 1_555
H147 C189 1_555 1_555
C190 C189 1_555 1_555
H148 C190 1_555 1_555
C191 N57 1_555 1_555
C192 N56 1_555 1_555
H149 C192 1_555 1_555
C193 N57 1_555 1_555
C194 C193 1_555 1_555
C195 C194 1_555 1_555
H150 C195 1_555 1_555
C196 C195 1_555 1_555
H151 C196 1_555 1_555
C197 C196 1_555 1_555
H152 C197 1_555 1_555
C198 N58 1_555 1_555
C199 N59 1_555 1_555
C200 N59 1_555 1_555
C201 C200 1_555 1_555
H153 C201 1_555 1_555
C202 C201 1_555 1_555
H154 C202 1_555 1_555
C203 N60 1_555 1_555
H155 C203 1_555 1_555
C204 N60 1_555 1_555
H156 C204 1_555 1_555
Pd7 N61 1_555 1_555
Pd8 N65 1_555 1_555
O25 C210 1_555 1_555
O26 C216 1_555 1_555
O27 C227 1_555 1_555
O28 C233 1_555 1_555
O29 C244 1_555 1_555
O30 C250 1_555 1_555
O31 C261 1_555 1_555
O32 C267 1_555 1_555
N61 C205 1_555 1_555
N62 H157 1_555 1_555
N63 C211 1_555 1_555
N64 H158 1_555 1_555
N65 C220 1_555 1_555
N66 Pd7 1_555 1_555
N67 H159 1_555 1_555
N68 C228 1_555 1_555
N69 H160 1_555 1_555
N70 Pd8 1_555 1_555
N71 Pd7 1_555 1_555
N72 H161 1_555 1_555
N73 C245 1_555 1_555
N74 H162 1_555 1_555
N75 Pd8 1_555 1_555
N76 Pd7 1_555 1_555
N77 H163 1_555 1_555
N78 C262 1_555 1_555
N79 H164 1_555 1_555
N80 Pd8 1_555 1_555
C205 H165 1_555 1_555
C206 C205 1_555 1_555
H166 C206 1_555 1_555
C207 C206 1_555 1_555
H167 C207 1_555 1_555
C208 N62 1_555 1_555
C209 N61 1_555 1_555
H168 C209 1_555 1_555
C210 N62 1_555 1_555
C211 C210 1_555 1_555
C212 C211 1_555 1_555
H169 C212 1_555 1_555
C213 C212 1_555 1_555
H170 C213 1_555 1_555
C214 C213 1_555 1_555
H171 C214 1_555 1_555
C215 N63 1_555 1_555
C216 N64 1_555 1_555
C217 N64 1_555 1_555
C218 C217 1_555 1_555
H172 C218 1_555 1_555
C219 C218 1_555 1_555
H173 C219 1_555 1_555
C220 C219 1_555 1_555
H174 C220 1_555 1_555
C221 N65 1_555 1_555
H175 C221 1_555 1_555
C222 N66 1_555 1_555
H176 C222 1_555 1_555
C223 C222 1_555 1_555
H177 C223 1_555 1_555
C224 C223 1_555 1_555
H178 C224 1_555 1_555
C225 N67 1_555 1_555
C226 N66 1_555 1_555
H179 C226 1_555 1_555
C227 N67 1_555 1_555
C228 C227 1_555 1_555
C229 C228 1_555 1_555
H180 C229 1_555 1_555
C230 C229 1_555 1_555
H181 C230 1_555 1_555
C231 C230 1_555 1_555
H182 C231 1_555 1_555
C232 N68 1_555 1_555
C233 N69 1_555 1_555
C234 N69 1_555 1_555
C235 C234 1_555 1_555
H183 C235 1_555 1_555
C236 C235 1_555 1_555
H184 C236 1_555 1_555
C237 N70 1_555 1_555
H185 C237 1_555 1_555
C238 N70 1_555 1_555
H186 C238 1_555 1_555
C239 N71 1_555 1_555
H187 C239 1_555 1_555
C240 C239 1_555 1_555
H188 C240 1_555 1_555
C241 C240 1_555 1_555
H189 C241 1_555 1_555
C242 N72 1_555 1_555
C243 N71 1_555 1_555
H190 C243 1_555 1_555
C244 N72 1_555 1_555
C245 C244 1_555 1_555
C246 C245 1_555 1_555
H191 C246 1_555 1_555
C247 C246 1_555 1_555
H192 C247 1_555 1_555
C248 C247 1_555 1_555
H193 C248 1_555 1_555
C249 N73 1_555 1_555
C250 N74 1_555 1_555
C251 N74 1_555 1_555
C252 C251 1_555 1_555
H194 C252 1_555 1_555
C253 C252 1_555 1_555
H195 C253 1_555 1_555
C254 N75 1_555 1_555
H196 C254 1_555 1_555
C255 N75 1_555 1_555
H197 C255 1_555 1_555
C256 N76 1_555 1_555
H198 C256 1_555 1_555
C257 C256 1_555 1_555
H199 C257 1_555 1_555
C258 C257 1_555 1_555
H200 C258 1_555 1_555
C259 N77 1_555 1_555
C260 N76 1_555 1_555
H201 C260 1_555 1_555
C261 N77 1_555 1_555
C262 C261 1_555 1_555
C263 C262 1_555 1_555
H202 C263 1_555 1_555
C264 C263 1_555 1_555
H203 C264 1_555 1_555
C265 C264 1_555 1_555
H204 C265 1_555 1_555
C266 N78 1_555 1_555
C267 N79 1_555 1_555
C268 N79 1_555 1_555
C269 C268 1_555 1_555
H205 C269 1_555 1_555
C270 C269 1_555 1_555
H206 C270 1_555 1_555
C271 N80 1_555 1_555
H207 C271 1_555 1_555
C272 N80 1_555 1_555
H208 C272 1_555 1_555
N81 O33 1_555 1_555
O34 N81 1_555 1_555
O35 N81 1_555 1_555
N82 O36 1_555 1_555
O37 N82 1_555 1_555
O38 N82 1_555 1_555
N83 O39 1_555 1_555
O40 N83 1_555 1_555
O41 N83 1_555 1_555
N84 O42 1_555 1_555
O43 N84 1_555 1_555
O44 N84 1_555 1_555
N85 O45 1_555 1_555
O46 N85 1_555 1_555
O47 N85 1_555 1_555
N86 O48 1_555 1_555
O49 N86 1_555 1_555
O50 N86 1_555 1_555
N87 O51 1_555 1_555
O52 N87 1_555 1_555
O53 N87 1_555 1_555
N88 O54 1_555 1_555
O55 N88 1_555 1_555
O56 N88 1_555 1_555
N89 O57 1_555 1_555
O58 N89 1_555 1_555
O59 N89 1_555 1_555
N90 O60 1_555 1_555
O61 N90 1_555 1_555
O62 N90 1_555 1_555
N91 O63 1_555 1_555
O64 N91 1_555 1_555
O65 N91 1_555 1_555
N92 O66 1_555 1_555
O67 N92 1_555 1_555
O68 N92 1_555 1_555
N93 O69 1_555 1_555
O70 N93 1_555 1_555
O71 N93 1_555 1_555
N94 O72 1_555 1_555
O73 N94 1_555 1_555
O74 N94 1_555 1_555
S1 O75 1_555 1_555
C273 S1 1_555 1_555
H209 C273 1_555 1_555
H210 C273 1_555 1_555
H211 C273 1_555 1_555
C274 S1 1_555 1_555
H212 C274 1_555 1_555
H213 C274 1_555 1_555
H214 C274 1_555 1_555
S2 O76 1_555 1_555
C275 S2 1_555 1_555
H215 C275 1_555 1_555
H216 C275 1_555 1_555
H217 C275 1_555 1_555
C276 S2 1_555 1_555
H218 C276 1_555 1_555
H219 C276 1_555 1_555
H220 C276 1_555 1_555
S3 O77 1_555 1_555
C277 S3 1_555 1_555
H221 C277 1_555 1_555
H222 C277 1_555 1_555
H223 C277 1_555 1_555
C278 S3 1_555 1_555
H224 C278 1_555 1_555
H225 C278 1_555 1_555
H226 C278 1_555 1_555
S4 O78 1_555 1_555
C279 S4 1_555 1_555
H227 C279 1_555 1_555
H228 C279 1_555 1_555
H229 C279 1_555 1_555
C280 S4 1_555 1_555
H230 C280 1_555 1_555
H231 C280 1_555 1_555
H232 C280 1_555 1_555
S5 O79 1_555 1_555
C281 S5 1_555 1_555
H233 C281 1_555 1_555
H234 C281 1_555 1_555
H235 C281 1_555 1_555
C282 S5 1_555 1_555
H236 C282 1_555 1_555
H237 C282 1_555 1_555
H238 C282 1_555 1_555
S6 O80 1_555 1_555
C283 S6 1_555 1_555
H239 C283 1_555 1_555
H240 C283 1_555 1_555
H241 C283 1_555 1_555
C284 S6 1_555 1_555
H242 C284 1_555 1_555
H243 C284 1_555 1_555
H244 C284 1_555 1_555
S7 O81 1_555 1_555
C285 S7 1_555 1_555
H245 C285 1_555 1_555
H246 C285 1_555 1_555
H247 C285 1_555 1_555
C286 S7 1_555 1_555
H248 C286 1_555 1_555
H249 C286 1_555 1_555
H250 C286 1_555 1_555
S8 O82 1_555 1_555
C287 S8 1_555 1_555
H251 C287 1_555 1_555
H252 C287 1_555 1_555
H253 C287 1_555 1_555
C288 S8 1_555 1_555
H254 C288 1_555 1_555
H255 C288 1_555 1_555
H256 C288 1_555 1_555
S9 O83 1_555 1_555
C289 S9 1_555 1_555
H257 C289 1_555 1_555
H258 C289 1_555 1_555
H259 C289 1_555 1_555
C290 S9 1_555 1_555
H260 C290 1_555 1_555
H261 C290 1_555 1_555
H262 C290 1_555 1_555
S10 O84 1_555 1_555
C291 S10 1_555 1_555
H263 C291 1_555 1_555
H264 C291 1_555 1_555
H265 C291 1_555 1_555
C292 S10 1_555 1_555
H266 C292 1_555 1_555
H267 C292 1_555 1_555
H268 C292 1_555 1_555
O85 H269 1_555 1_555
H270 O85 1_555 1_555
O86 H271 1_555 1_555
H272 O86 1_555 1_555
O87 H273 1_555 1_555
H274 O87 1_555 1_555
C3 C4 1_555 1_555
C4 C5 1_555 1_555
C10 C11 1_555 1_555
C11 C12 1_555 1_555
C13 C17 1_555 1_555
C20 C21 1_555 1_555
C21 C22 1_555 1_555
C27 C28 1_555 1_555
C28 C29 1_555 1_555
C30 C34 1_555 1_555
C32 C33 1_555 1_555
C37 C38 1_555 1_555
C38 C39 1_555 1_555
C44 C45 1_555 1_555
C45 C46 1_555 1_555
C47 C51 1_555 1_555
C49 C50 1_555 1_555
C54 C55 1_555 1_555
C55 C56 1_555 1_555
C61 C62 1_555 1_555
C62 C63 1_555 1_555
C64 C68 1_555 1_555
C66 C67 1_555 1_555
C71 C72 1_555 1_555
C72 C73 1_555 1_555
C78 C79 1_555 1_555
C79 C80 1_555 1_555
C81 C85 1_555 1_555
C88 C89 1_555 1_555
C89 C90 1_555 1_555
C95 C96 1_555 1_555
C96 C97 1_555 1_555
C98 C102 1_555 1_555
C100 C101 1_555 1_555
C105 C106 1_555 1_555
C106 C107 1_555 1_555
C112 C113 1_555 1_555
C113 C114 1_555 1_555
C115 C119 1_555 1_555
C117 C118 1_555 1_555
C122 C123 1_555 1_555
C123 C124 1_555 1_555
C129 C130 1_555 1_555
C130 C131 1_555 1_555
C132 C136 1_555 1_555
C134 C135 1_555 1_555
C139 C140 1_555 1_555
C140 C141 1_555 1_555
C146 C147 1_555 1_555
C147 C148 1_555 1_555
C149 C153 1_555 1_555
C156 C157 1_555 1_555
C157 C158 1_555 1_555
C163 C164 1_555 1_555
C164 C165 1_555 1_555
C166 C170 1_555 1_555
C168 C169 1_555 1_555
C173 C174 1_555 1_555
C174 C175 1_555 1_555
C180 C181 1_555 1_555
C181 C182 1_555 1_555
C183 C187 1_555 1_555
C185 C186 1_555 1_555
C190 C191 1_555 1_555
C191 C192 1_555 1_555
C197 C198 1_555 1_555
C198 C199 1_555 1_555
C200 C204 1_555 1_555
C202 C203 1_555 1_555
C207 C208 1_555 1_555
C208 C209 1_555 1_555
C214 C215 1_555 1_555
C215 C216 1_555 1_555
C217 C221 1_555 1_555
C224 C225 1_555 1_555
C225 C226 1_555 1_555
C231 C232 1_555 1_555
C232 C233 1_555 1_555
C234 C238 1_555 1_555
C236 C237 1_555 1_555
C241 C242 1_555 1_555
C242 C243 1_555 1_555
C248 C249 1_555 1_555
C249 C250 1_555 1_555
C251 C255 1_555 1_555
C253 C254 1_555 1_555
C258 C259 1_555 1_555
C259 C260 1_555 1_555
C265 C266 1_555 1_555
C266 C267 1_555 1_555
C268 C272 1_555 1_555
C270 C271 1_555 1_555

#END
