# generated using pymatgen
data_Cu4B4H108C122N26OF25
_symmetry_space_group_name_H-M   'P 1'
_cell_length_a   20.18100000
_cell_length_b   20.46400000
_cell_length_c   29.46400000
_cell_angle_alpha   90.00000000
_cell_angle_beta   90.00000000
_cell_angle_gamma   90.51400000
_symmetry_Int_Tables_number   1
_chemical_formula_structural   Cu4B4H108C122N26OF25
_chemical_formula_sum   'Cu16 B16 H432 C488 N104 O4 F100'
_cell_volume   12167.67046898
_cell_formula_units_Z   4
loop_
 _symmetry_equiv_pos_site_id
 _symmetry_equiv_pos_as_xyz
  1  'x, y, z'
loop_
 _atom_site_type_symbol
 _atom_site_label
 _atom_site_symmetry_multiplicity
 _atom_site_fract_x
 _atom_site_fract_y
 _atom_site_fract_z
 _atom_site_occupancy
  Cu  Cu1  1  0.956060  0.734410  0.846960  1
  Cu  Cu2  1  0.543940  0.765590  0.346960  1
  Cu  Cu3  1  0.043940  0.265590  0.153040  1
  Cu  Cu4  1  0.456060  0.234410  0.653040  1
  Cu  Cu5  1  0.322290  0.906580  0.857400  1
  Cu  Cu6  1  0.177710  0.593420  0.357400  1
  Cu  Cu7  1  0.677710  0.093420  0.142600  1
  Cu  Cu8  1  0.822290  0.406580  0.642600  1
  Cu  Cu9  1  0.498520  0.564270  0.840030  1
  Cu  Cu10  1  0.001480  0.935730  0.340030  1
  Cu  Cu11  1  0.501480  0.435730  0.159970  1
  Cu  Cu12  1  0.998520  0.064270  0.659970  1
  Cu  Cu13  1  0.145740  0.389000  0.828160  1
  Cu  Cu14  1  0.354260  0.111000  0.328160  1
  Cu  Cu15  1  0.854260  0.611000  0.171840  1
  Cu  Cu16  1  0.645740  0.889000  0.671840  1
  B  B17  1  0.228200  0.646000  0.847600  1
  B  B18  1  0.271800  0.854000  0.347600  1
  B  B19  1  0.771800  0.354000  0.152400  1
  B  B20  1  0.728200  0.146000  0.652400  1
  B  B21  1  0.248300  0.624800  0.044000  1
  B  B22  1  0.251700  0.875200  0.544000  1
  B  B23  1  0.751700  0.375200  0.956000  1
  B  B24  1  0.748300  0.124800  0.456000  1
  B  B25  1  0.451500  0.843000  0.097900  1
  B  B26  1  0.048500  0.657000  0.597900  1
  B  B27  1  0.548500  0.157000  0.902100  1
  B  B28  1  0.951500  0.343000  0.402100  1
  B  B29  1  0.918200  0.127600  0.920500  1
  B  B30  1  0.581800  0.372400  0.420500  1
  B  B31  1  0.081800  0.872400  0.079500  1
  B  B32  1  0.418200  0.627600  0.579500  1
  H  H33  1  0.945500  0.627200  0.697400  1
  H  H34  1  0.554500  0.872800  0.197400  1
  H  H35  1  0.054500  0.372800  0.302600  1
  H  H36  1  0.445500  0.127200  0.802600  1
  H  H37  1  0.847300  0.566800  0.708900  1
  H  H38  1  0.652700  0.933200  0.208900  1
  H  H39  1  0.152700  0.433200  0.291100  1
  H  H40  1  0.347300  0.066800  0.791100  1
  H  H41  1  0.791500  0.576000  0.777900  1
  H  H42  1  0.708500  0.924000  0.277900  1
  H  H43  1  0.208500  0.424000  0.222100  1
  H  H44  1  0.291500  0.076000  0.722100  1
  H  H45  1  0.832600  0.643000  0.833900  1
  H  H46  1  0.667400  0.857000  0.333900  1
  H  H47  1  0.167400  0.357000  0.166100  1
  H  H48  1  0.332600  0.143000  0.666100  1
  H  H49  1  0.148600  0.755400  0.730900  1
  H  H50  1  0.351400  0.744600  0.230900  1
  H  H51  1  0.851400  0.244600  0.269100  1
  H  H52  1  0.648600  0.255400  0.769100  1
  H  H53  1  0.057000  0.688800  0.695700  1
  H  H54  1  0.443000  0.811200  0.195700  1
  H  H55  1  0.943000  0.311200  0.304300  1
  H  H56  1  0.557000  0.188800  0.804300  1
  H  H57  1  0.170000  0.801400  0.813400  1
  H  H58  1  0.330000  0.698600  0.313400  1
  H  H59  1  0.830000  0.198600  0.186600  1
  H  H60  1  0.670000  0.301400  0.686600  1
  H  H61  1  0.120200  0.771800  0.850400  1
  H  H62  1  0.379800  0.728200  0.350400  1
  H  H63  1  0.879800  0.228200  0.149600  1
  H  H64  1  0.620200  0.271800  0.649600  1
  H  H65  1  0.055300  0.875200  0.768700  1
  H  H66  1  0.444700  0.624800  0.268700  1
  H  H67  1  0.944700  0.124800  0.231300  1
  H  H68  1  0.555300  0.375200  0.731300  1
  H  H69  1  0.006500  0.978200  0.780700  1
  H  H70  1  0.493500  0.521800  0.280700  1
  H  H71  1  0.993500  0.021800  0.219300  1
  H  H72  1  0.506500  0.478200  0.719300  1
  H  H73  1  0.015800  0.028400  0.849500  1
  H  H74  1  0.484200  0.471600  0.349500  1
  H  H75  1  0.984200  0.971600  0.150500  1
  H  H76  1  0.515800  0.528400  0.650500  1
  H  H77  1  0.060300  0.036400  0.924200  1
  H  H78  1  0.439700  0.463600  0.424200  1
  H  H79  1  0.939700  0.963600  0.075800  1
  H  H80  1  0.560300  0.536400  0.575800  1
  H  H81  1  0.118600  0.992000  0.984000  1
  H  H82  1  0.381400  0.508000  0.484000  1
  H  H83  1  0.881400  0.008000  0.016000  1
  H  H84  1  0.618600  0.492000  0.516000  1
  H  H85  1  0.175400  0.891600  0.974700  1
  H  H86  1  0.324600  0.608400  0.474700  1
  H  H87  1  0.824600  0.108400  0.025300  1
  H  H88  1  0.675400  0.391600  0.525300  1
  H  H89  1  0.166000  0.776500  0.920600  1
  H  H90  1  0.334000  0.723500  0.420600  1
  H  H91  1  0.834000  0.223500  0.079400  1
  H  H92  1  0.666000  0.276500  0.579400  1
  H  H93  1  0.201400  0.805100  0.876100  1
  H  H94  1  0.298600  0.694900  0.376100  1
  H  H95  1  0.798600  0.194900  0.123900  1
  H  H96  1  0.701400  0.305100  0.623900  1
  H  H97  1  0.249300  0.765800  0.990700  1
  H  H98  1  0.250700  0.734200  0.490700  1
  H  H99  1  0.750700  0.234200  0.009300  1
  H  H100  1  0.749300  0.265800  0.509300  1
  H  H101  1  0.361900  0.809200  0.007700  1
  H  H102  1  0.138100  0.690800  0.507700  1
  H  H103  1  0.638100  0.190800  0.992300  1
  H  H104  1  0.861900  0.309200  0.492300  1
  H  H105  1  0.461000  0.891200  0.992600  1
  H  H106  1  0.039000  0.608800  0.492600  1
  H  H107  1  0.539000  0.108800  0.007400  1
  H  H108  1  0.961000  0.391200  0.507400  1
  H  H109  1  0.550100  0.956300  0.970200  1
  H  H110  1  0.949900  0.543700  0.470200  1
  H  H111  1  0.449900  0.043700  0.029800  1
  H  H112  1  0.050100  0.456300  0.529800  1
  H  H113  1  0.549400  0.001200  0.897400  1
  H  H114  1  0.950600  0.498800  0.397400  1
  H  H115  1  0.450600  0.998800  0.102600  1
  H  H116  1  0.049400  0.501200  0.602600  1
  H  H117  1  0.457200  0.985600  0.851000  1
  H  H118  1  0.042800  0.514400  0.351000  1
  H  H119  1  0.542800  0.014400  0.149000  1
  H  H120  1  0.957200  0.485600  0.649000  1
  H  H121  1  0.203700  0.934500  0.713400  1
  H  H122  1  0.296300  0.565500  0.213400  1
  H  H123  1  0.796300  0.065500  0.286600  1
  H  H124  1  0.703700  0.434500  0.786600  1
  H  H125  1  0.147200  0.029800  0.730700  1
  H  H126  1  0.352800  0.470200  0.230700  1
  H  H127  1  0.852800  0.970200  0.269300  1
  H  H128  1  0.647200  0.529800  0.769300  1
  H  H129  1  0.161900  0.079400  0.800600  1
  H  H130  1  0.338100  0.420600  0.300600  1
  H  H131  1  0.838100  0.920600  0.199400  1
  H  H132  1  0.661900  0.579400  0.699400  1
  H  H133  1  0.233300  0.030100  0.854100  1
  H  H134  1  0.266700  0.469900  0.354100  1
  H  H135  1  0.766700  0.969900  0.145900  1
  H  H136  1  0.733300  0.530100  0.645900  1
  H  H137  1  0.330900  0.729300  0.732800  1
  H  H138  1  0.169100  0.770700  0.232800  1
  H  H139  1  0.669100  0.270700  0.267200  1
  H  H140  1  0.830900  0.229300  0.767200  1
  H  H141  1  0.261200  0.820800  0.704300  1
  H  H142  1  0.238800  0.679200  0.204300  1
  H  H143  1  0.738800  0.179200  0.295700  1
  H  H144  1  0.761200  0.320800  0.795700  1
  H  H145  1  0.383300  0.700200  0.811600  1
  H  H146  1  0.116700  0.799800  0.311600  1
  H  H147  1  0.616700  0.299800  0.188400  1
  H  H148  1  0.883300  0.200200  0.688400  1
  H  H149  1  0.355500  0.744700  0.851800  1
  H  H150  1  0.144500  0.755300  0.351800  1
  H  H151  1  0.644500  0.255300  0.148200  1
  H  H152  1  0.855500  0.244700  0.648200  1
  H  H153  1  0.459500  0.810400  0.770100  1
  H  H154  1  0.040500  0.689600  0.270100  1
  H  H155  1  0.540500  0.189600  0.229900  1
  H  H156  1  0.959500  0.310400  0.729900  1
  H  H157  1  0.562100  0.860400  0.780900  1
  H  H158  1  0.937900  0.639600  0.280900  1
  H  H159  1  0.437900  0.139600  0.219100  1
  H  H160  1  0.062100  0.360400  0.719100  1
  H  H161  1  0.613800  0.856000  0.850300  1
  H  H162  1  0.886200  0.644000  0.350300  1
  H  H163  1  0.386200  0.144000  0.149700  1
  H  H164  1  0.113800  0.356000  0.649700  1
  H  H165  1  0.616100  0.820300  0.928500  1
  H  H166  1  0.883900  0.679700  0.428500  1
  H  H167  1  0.383900  0.179700  0.071500  1
  H  H168  1  0.116100  0.320300  0.571500  1
  H  H169  1  0.572500  0.762700  0.987500  1
  H  H170  1  0.927500  0.737300  0.487500  1
  H  H171  1  0.427500  0.237300  0.012500  1
  H  H172  1  0.072500  0.262700  0.512500  1
  H  H173  1  0.476300  0.700400  0.977800  1
  H  H174  1  0.023700  0.799600  0.477800  1
  H  H175  1  0.523700  0.299600  0.022200  1
  H  H176  1  0.976300  0.200400  0.522200  1
  H  H177  1  0.364100  0.691100  0.925000  1
  H  H178  1  0.135900  0.808900  0.425000  1
  H  H179  1  0.635900  0.308900  0.075000  1
  H  H180  1  0.864100  0.191100  0.575000  1
  H  H181  1  0.389500  0.668700  0.875900  1
  H  H182  1  0.110500  0.831300  0.375900  1
  H  H183  1  0.610500  0.331300  0.124100  1
  H  H184  1  0.889500  0.168700  0.624100  1
  H  H185  1  0.368800  0.595500  0.986500  1
  H  H186  1  0.131200  0.904500  0.486500  1
  H  H187  1  0.631200  0.404500  0.013500  1
  H  H188  1  0.868800  0.095500  0.513500  1
  H  H189  1  0.422500  0.484900  0.988100  1
  H  H190  1  0.077500  0.015100  0.488100  1
  H  H191  1  0.577500  0.515100  0.011900  1
  H  H192  1  0.922500  0.984900  0.511900  1
  H  H193  1  0.504600  0.396500  0.960100  1
  H  H194  1  0.995400  0.103500  0.460100  1
  H  H195  1  0.495400  0.603500  0.039900  1
  H  H196  1  0.004600  0.896500  0.539900  1
  H  H197  1  0.573300  0.320300  0.924500  1
  H  H198  1  0.926700  0.179700  0.424500  1
  H  H199  1  0.426700  0.679700  0.075500  1
  H  H200  1  0.073300  0.820300  0.575500  1
  H  H201  1  0.609400  0.339900  0.851500  1
  H  H202  1  0.890600  0.160100  0.351500  1
  H  H203  1  0.390600  0.660100  0.148500  1
  H  H204  1  0.109400  0.839900  0.648500  1
  H  H205  1  0.582200  0.436700  0.815200  1
  H  H206  1  0.917800  0.063300  0.315200  1
  H  H207  1  0.417800  0.563300  0.184800  1
  H  H208  1  0.082200  0.936700  0.684800  1
  H  H209  1  0.520300  0.669900  0.691600  1
  H  H210  1  0.979700  0.830100  0.191600  1
  H  H211  1  0.479700  0.330100  0.308400  1
  H  H212  1  0.020300  0.169900  0.808400  1
  H  H213  1  0.619700  0.727000  0.704700  1
  H  H214  1  0.880300  0.773000  0.204700  1
  H  H215  1  0.380300  0.273000  0.295300  1
  H  H216  1  0.119700  0.227000  0.795300  1
  H  H217  1  0.669900  0.721500  0.776200  1
  H  H218  1  0.830100  0.778500  0.276200  1
  H  H219  1  0.330100  0.278500  0.223800  1
  H  H220  1  0.169900  0.221500  0.723800  1
  H  H221  1  0.620800  0.658900  0.832400  1
  H  H222  1  0.879200  0.841100  0.332400  1
  H  H223  1  0.379200  0.341100  0.167600  1
  H  H224  1  0.120800  0.158900  0.667600  1
  H  H225  1  0.312700  0.546300  0.719600  1
  H  H226  1  0.187300  0.953700  0.219600  1
  H  H227  1  0.687300  0.453700  0.280400  1
  H  H228  1  0.812700  0.046300  0.780400  1
  H  H229  1  0.404800  0.614100  0.688400  1
  H  H230  1  0.095200  0.885900  0.188400  1
  H  H231  1  0.595200  0.385900  0.311600  1
  H  H232  1  0.904800  0.114100  0.811600  1
  H  H233  1  0.287300  0.496400  0.801400  1
  H  H234  1  0.212700  0.003600  0.301400  1
  H  H235  1  0.712700  0.503600  0.198600  1
  H  H236  1  0.787300  0.996400  0.698600  1
  H  H237  1  0.335000  0.525400  0.839900  1
  H  H238  1  0.165000  0.974600  0.339900  1
  H  H239  1  0.665000  0.474600  0.160100  1
  H  H240  1  0.835000  0.025400  0.660100  1
  H  H241  1  0.404000  0.426100  0.756900  1
  H  H242  1  0.096000  0.073900  0.256900  1
  H  H243  1  0.596000  0.573900  0.243100  1
  H  H244  1  0.904000  0.926100  0.743100  1
  H  H245  1  0.458000  0.327000  0.766700  1
  H  H246  1  0.042000  0.173000  0.266700  1
  H  H247  1  0.542000  0.673000  0.233300  1
  H  H248  1  0.958000  0.827000  0.733300  1
  H  H249  1  0.451900  0.273200  0.835600  1
  H  H250  1  0.048100  0.226800  0.335600  1
  H  H251  1  0.548100  0.726800  0.164400  1
  H  H252  1  0.951900  0.773200  0.664400  1
  H  H253  1  0.408100  0.262800  0.910400  1
  H  H254  1  0.091900  0.237200  0.410400  1
  H  H255  1  0.591900  0.737200  0.089600  1
  H  H256  1  0.908100  0.762800  0.589600  1
  H  H257  1  0.340000  0.297400  0.968600  1
  H  H258  1  0.160000  0.202600  0.468600  1
  H  H259  1  0.660000  0.702600  0.031400  1
  H  H260  1  0.840000  0.797400  0.531400  1
  H  H261  1  0.278500  0.394100  0.959500  1
  H  H262  1  0.221500  0.105900  0.459500  1
  H  H263  1  0.721500  0.605900  0.040500  1
  H  H264  1  0.778500  0.894100  0.540500  1
  H  H265  1  0.284600  0.511800  0.913200  1
  H  H266  1  0.215400  0.988200  0.413200  1
  H  H267  1  0.715400  0.488200  0.086800  1
  H  H268  1  0.784600  0.011800  0.586800  1
  H  H269  1  0.258000  0.489600  0.864300  1
  H  H270  1  0.242000  0.010400  0.364300  1
  H  H271  1  0.742000  0.510400  0.135700  1
  H  H272  1  0.758000  0.989600  0.635700  1
  H  H273  1  0.192400  0.506900  0.977600  1
  H  H274  1  0.307600  0.993100  0.477600  1
  H  H275  1  0.807600  0.493100  0.022400  1
  H  H276  1  0.692400  0.006900  0.522400  1
  H  H277  1  0.078400  0.458600  0.980900  1
  H  H278  1  0.421600  0.041400  0.480900  1
  H  H279  1  0.921600  0.541400  0.019100  1
  H  H280  1  0.578400  0.958600  0.519100  1
  H  H281  1  0.984900  0.377900  0.953100  1
  H  H282  1  0.515100  0.122100  0.453100  1
  H  H283  1  0.015100  0.622100  0.046900  1
  H  H284  1  0.484900  0.877900  0.546900  1
  H  H285  1  0.903700  0.312900  0.918800  1
  H  H286  1  0.596300  0.187100  0.418800  1
  H  H287  1  0.096300  0.687100  0.081200  1
  H  H288  1  0.403700  0.812900  0.581200  1
  H  H289  1  0.920100  0.275600  0.844700  1
  H  H290  1  0.579900  0.224400  0.344700  1
  H  H291  1  0.079900  0.724400  0.155300  1
  H  H292  1  0.420100  0.775600  0.655300  1
  H  H293  1  0.014600  0.307600  0.805900  1
  H  H294  1  0.485400  0.192400  0.305900  1
  H  H295  1  0.985400  0.692400  0.194100  1
  H  H296  1  0.514600  0.807600  0.694100  1
  H  H297  1  0.264300  0.371100  0.683500  1
  H  H298  1  0.235700  0.128900  0.183500  1
  H  H299  1  0.735700  0.628900  0.316500  1
  H  H300  1  0.764300  0.871100  0.816500  1
  H  H301  1  0.326300  0.277300  0.700200  1
  H  H302  1  0.173700  0.222700  0.200200  1
  H  H303  1  0.673700  0.722700  0.299800  1
  H  H304  1  0.826300  0.777300  0.799800  1
  H  H305  1  0.317300  0.228700  0.770800  1
  H  H306  1  0.182700  0.271300  0.270800  1
  H  H307  1  0.682700  0.771300  0.229200  1
  H  H308  1  0.817300  0.728700  0.729200  1
  H  H309  1  0.244300  0.271300  0.823600  1
  H  H310  1  0.255700  0.228700  0.323600  1
  H  H311  1  0.755700  0.728700  0.176400  1
  H  H312  1  0.744300  0.771300  0.676400  1
  H  H313  1  0.129500  0.570900  0.707100  1
  H  H314  1  0.370500  0.929100  0.207100  1
  H  H315  1  0.870500  0.429100  0.292900  1
  H  H316  1  0.629500  0.070900  0.792900  1
  H  H317  1  0.199300  0.478800  0.676000  1
  H  H318  1  0.300700  0.021200  0.176000  1
  H  H319  1  0.800700  0.521200  0.324000  1
  H  H320  1  0.699300  0.978800  0.824000  1
  H  H321  1  0.077000  0.593300  0.788500  1
  H  H322  1  0.423000  0.906700  0.288500  1
  H  H323  1  0.923000  0.406700  0.211500  1
  H  H324  1  0.577000  0.093300  0.711500  1
  H  H325  1  0.104500  0.546400  0.827600  1
  H  H326  1  0.395500  0.953600  0.327600  1
  H  H327  1  0.895500  0.453600  0.172400  1
  H  H328  1  0.604500  0.046400  0.672400  1
  H  H329  1  0.012700  0.482600  0.738700  1
  H  H330  1  0.487300  0.017400  0.238700  1
  H  H331  1  0.987300  0.517400  0.261300  1
  H  H332  1  0.512700  0.982600  0.761300  1
  H  H333  1  0.913200  0.424200  0.742900  1
  H  H334  1  0.586800  0.075800  0.242900  1
  H  H335  1  0.086800  0.575800  0.257100  1
  H  H336  1  0.413200  0.924200  0.757100  1
  H  H337  1  0.852200  0.422700  0.808800  1
  H  H338  1  0.647800  0.077300  0.308800  1
  H  H339  1  0.147800  0.577300  0.191200  1
  H  H340  1  0.352200  0.922700  0.691200  1
  H  H341  1  0.837000  0.453800  0.885100  1
  H  H342  1  0.663000  0.046200  0.385100  1
  H  H343  1  0.163000  0.546200  0.114900  1
  H  H344  1  0.337000  0.953800  0.614900  1
  H  H345  1  0.869000  0.510100  0.949300  1
  H  H346  1  0.631000  0.989900  0.449300  1
  H  H347  1  0.131000  0.489900  0.050700  1
  H  H348  1  0.369000  0.010100  0.550700  1
  H  H349  1  0.963000  0.576900  0.947400  1
  H  H350  1  0.537000  0.923100  0.447400  1
  H  H351  1  0.037000  0.423100  0.052600  1
  H  H352  1  0.463000  0.076900  0.552600  1
  H  H353  1  0.091200  0.576500  0.897200  1
  H  H354  1  0.408800  0.923500  0.397200  1
  H  H355  1  0.908800  0.423500  0.102800  1
  H  H356  1  0.591200  0.076500  0.602800  1
  H  H357  1  0.061800  0.619000  0.856500  1
  H  H358  1  0.438200  0.881000  0.356500  1
  H  H359  1  0.938200  0.381000  0.143500  1
  H  H360  1  0.561800  0.119000  0.643500  1
  H  H361  1  0.102900  0.644700  0.974100  1
  H  H362  1  0.397100  0.855300  0.474100  1
  H  H363  1  0.897100  0.355300  0.025900  1
  H  H364  1  0.602900  0.144700  0.525900  1
  H  H365  1  0.062700  0.753400  0.997800  1
  H  H366  1  0.437300  0.746600  0.497800  1
  H  H367  1  0.937300  0.246600  0.002200  1
  H  H368  1  0.562700  0.253400  0.502200  1
  H  H369  1  0.990900  0.859600  0.986200  1
  H  H370  1  0.509100  0.640400  0.486200  1
  H  H371  1  0.009100  0.140400  0.013800  1
  H  H372  1  0.490900  0.359600  0.513800  1
  H  H373  1  0.937800  0.956000  0.965300  1
  H  H374  1  0.562200  0.544000  0.465300  1
  H  H375  1  0.062200  0.044000  0.034700  1
  H  H376  1  0.437800  0.456000  0.534700  1
  H  H377  1  0.881000  0.959900  0.898000  1
  H  H378  1  0.619000  0.540100  0.398000  1
  H  H379  1  0.119000  0.040100  0.102000  1
  H  H380  1  0.381000  0.459900  0.602000  1
  H  H381  1  0.888200  0.873200  0.847400  1
  H  H382  1  0.611800  0.626800  0.347400  1
  H  H383  1  0.111800  0.126800  0.152600  1
  H  H384  1  0.388200  0.373200  0.652600  1
  H  H385  1  0.648700  0.614600  0.960700  1
  H  H386  1  0.851300  0.885400  0.460700  1
  H  H387  1  0.351300  0.385400  0.039300  1
  H  H388  1  0.148700  0.114600  0.539300  1
  H  H389  1  0.631800  0.541700  0.944600  1
  H  H390  1  0.868200  0.958300  0.444600  1
  H  H391  1  0.368200  0.458300  0.055400  1
  H  H392  1  0.131800  0.041700  0.555400  1
  H  H393  1  0.611300  0.602500  0.913500  1
  H  H394  1  0.888700  0.897500  0.413500  1
  H  H395  1  0.388700  0.397500  0.086500  1
  H  H396  1  0.111300  0.102500  0.586500  1
  H  H397  1  0.802900  0.646000  0.971500  1
  H  H398  1  0.697100  0.854000  0.471500  1
  H  H399  1  0.197100  0.354000  0.028500  1
  H  H400  1  0.302900  0.146000  0.528500  1
  H  H401  1  0.825600  0.720800  0.966200  1
  H  H402  1  0.674400  0.779200  0.466200  1
  H  H403  1  0.174400  0.279200  0.033800  1
  H  H404  1  0.325600  0.220800  0.533800  1
  H  H405  1  0.846100  0.668300  0.928600  1
  H  H406  1  0.653900  0.831700  0.428600  1
  H  H407  1  0.153900  0.331700  0.071400  1
  H  H408  1  0.346100  0.168300  0.571400  1
  H  H409  1  0.792500  0.756600  0.877400  1
  H  H410  1  0.707500  0.743400  0.377400  1
  H  H411  1  0.207500  0.243400  0.122600  1
  H  H412  1  0.292500  0.256600  0.622600  1
  H  H413  1  0.760700  0.794900  0.919300  1
  H  H414  1  0.739300  0.705100  0.419300  1
  H  H415  1  0.239300  0.205100  0.080700  1
  H  H416  1  0.260700  0.294900  0.580700  1
  H  H417  1  0.713900  0.765300  0.880400  1
  H  H418  1  0.786100  0.734700  0.380400  1
  H  H419  1  0.286100  0.234700  0.119600  1
  H  H420  1  0.213900  0.265300  0.619600  1
  H  H421  1  0.711800  0.699800  0.946300  1
  H  H422  1  0.788200  0.800200  0.446300  1
  H  H423  1  0.288200  0.300200  0.053700  1
  H  H424  1  0.211800  0.199800  0.553700  1
  H  H425  1  0.677500  0.550900  0.848200  1
  H  H426  1  0.822500  0.949100  0.348200  1
  H  H427  1  0.322500  0.449100  0.151800  1
  H  H428  1  0.177500  0.050900  0.651800  1
  H  H429  1  0.695500  0.492100  0.881700  1
  H  H430  1  0.804500  0.007900  0.381700  1
  H  H431  1  0.304500  0.507900  0.118300  1
  H  H432  1  0.195500  0.992100  0.618300  1
  H  H433  1  0.753400  0.532900  0.857300  1
  H  H434  1  0.746600  0.967100  0.357300  1
  H  H435  1  0.246600  0.467100  0.142700  1
  H  H436  1  0.253400  0.032900  0.642700  1
  H  H437  1  0.745400  0.567600  0.932400  1
  H  H438  1  0.754600  0.932400  0.432400  1
  H  H439  1  0.254600  0.432400  0.067600  1
  H  H440  1  0.245400  0.067600  0.567600  1
  H  H441  1  0.274800  0.745700  0.102900  1
  H  H442  1  0.225200  0.754300  0.602900  1
  H  H443  1  0.725200  0.254300  0.897100  1
  H  H444  1  0.774800  0.245700  0.397100  1
  H  H445  1  0.287700  0.816200  0.080900  1
  H  H446  1  0.212300  0.683800  0.580900  1
  H  H447  1  0.712300  0.183800  0.919100  1
  H  H448  1  0.787700  0.316200  0.419100  1
  H  H449  1  0.213500  0.791200  0.090100  1
  H  H450  1  0.286500  0.708800  0.590100  1
  H  H451  1  0.786500  0.208800  0.909900  1
  H  H452  1  0.713500  0.291200  0.409900  1
  H  H453  1  0.696000  0.027500  0.979000  1
  H  H454  1  0.804000  0.472500  0.479000  1
  H  H455  1  0.304000  0.972500  0.021000  1
  H  H456  1  0.196000  0.527500  0.521000  1
  H  H457  1  0.716800  0.070800  0.935900  1
  H  H458  1  0.783200  0.429200  0.435900  1
  H  H459  1  0.283200  0.929200  0.064100  1
  H  H460  1  0.216800  0.570800  0.564100  1
  H  H461  1  0.772500  0.035000  0.965300  1
  H  H462  1  0.727500  0.465000  0.465300  1
  H  H463  1  0.227500  0.965000  0.034700  1
  H  H464  1  0.272500  0.535000  0.534700  1
  C  C465  1  0.945200  0.669100  0.760720  1
  C  C466  1  0.554800  0.830900  0.260720  1
  C  C467  1  0.054800  0.330900  0.239280  1
  C  C468  1  0.445200  0.169100  0.739280  1
  C  C469  1  0.922100  0.629700  0.725300  1
  C  C470  1  0.577900  0.870300  0.225300  1
  C  C471  1  0.077900  0.370300  0.274700  1
  C  C472  1  0.422100  0.129700  0.774700  1
  C  C473  1  0.864200  0.594500  0.732100  1
  C  C474  1  0.635800  0.905500  0.232100  1
  C  C475  1  0.135800  0.405500  0.267900  1
  C  C476  1  0.364200  0.094500  0.767900  1
  C  C477  1  0.831400  0.600000  0.772900  1
  C  C478  1  0.668600  0.900000  0.272900  1
  C  C479  1  0.168600  0.400000  0.227100  1
  C  C480  1  0.331400  0.100000  0.727100  1
  C  C481  1  0.856100  0.640100  0.806000  1
  C  C482  1  0.643900  0.859900  0.306000  1
  C  C483  1  0.143900  0.359900  0.194000  1
  C  C484  1  0.356100  0.140100  0.694000  1
  C  C485  1  0.107200  0.744700  0.744470  1
  C  C486  1  0.392800  0.755300  0.244470  1
  C  C487  1  0.892800  0.255300  0.255530  1
  C  C488  1  0.607200  0.244700  0.755530  1
  C  C489  1  0.057600  0.708000  0.725110  1
  C  C490  1  0.442400  0.792000  0.225110  1
  C  C491  1  0.942400  0.292000  0.274890  1
  C  C492  1  0.557600  0.208000  0.774890  1
  C  C493  1  0.007900  0.704900  0.758250  1
  C  C494  1  0.492100  0.795100  0.258250  1
  C  C495  1  0.992100  0.295100  0.241750  1
  C  C496  1  0.507900  0.204900  0.741750  1
  C  C497  1  0.122800  0.797800  0.822100  1
  C  C498  1  0.377200  0.702200  0.322100  1
  C  C499  1  0.877200  0.202200  0.177900  1
  C  C500  1  0.622800  0.297800  0.677900  1
  C  C501  1  0.096500  0.865800  0.831450  1
  C  C502  1  0.403500  0.634200  0.331450  1
  C  C503  1  0.903500  0.134200  0.168550  1
  C  C504  1  0.596500  0.365800  0.668550  1
  C  C505  1  0.060300  0.896200  0.797300  1
  C  C506  1  0.439700  0.603800  0.297300  1
  C  C507  1  0.939700  0.103800  0.202700  1
  C  C508  1  0.560300  0.396200  0.702700  1
  C  C509  1  0.030800  0.958000  0.804400  1
  C  C510  1  0.469200  0.542000  0.304400  1
  C  C511  1  0.969200  0.042000  0.195600  1
  C  C512  1  0.530800  0.458000  0.695600  1
  C  C513  1  0.037300  0.987900  0.844600  1
  C  C514  1  0.462700  0.512100  0.344600  1
  C  C515  1  0.962700  0.012100  0.155400  1
  C  C516  1  0.537300  0.487900  0.655400  1
  C  C517  1  0.075100  0.960600  0.879700  1
  C  C518  1  0.424900  0.539400  0.379700  1
  C  C519  1  0.924900  0.039400  0.120300  1
  C  C520  1  0.575100  0.460600  0.620300  1
  C  C521  1  0.081000  0.995200  0.920900  1
  C  C522  1  0.419000  0.504800  0.420900  1
  C  C523  1  0.919000  0.004800  0.079100  1
  C  C524  1  0.581000  0.495200  0.579100  1
  C  C525  1  0.116400  0.969600  0.955800  1
  C  C526  1  0.383600  0.530400  0.455800  1
  C  C527  1  0.883600  0.030400  0.044200  1
  C  C528  1  0.616400  0.469600  0.544200  1
  C  C529  1  0.150500  0.908500  0.950100  1
  C  C530  1  0.349500  0.591500  0.450100  1
  C  C531  1  0.849500  0.091500  0.049900  1
  C  C532  1  0.650500  0.408500  0.549900  1
  C  C533  1  0.148000  0.874600  0.910900  1
  C  C534  1  0.352000  0.625400  0.410900  1
  C  C535  1  0.852000  0.125400  0.089100  1
  C  C536  1  0.648000  0.374600  0.589100  1
  C  C537  1  0.108000  0.898000  0.873360  1
  C  C538  1  0.392000  0.602000  0.373360  1
  C  C539  1  0.892000  0.102000  0.126640  1
  C  C540  1  0.608000  0.398000  0.626640  1
  C  C541  1  0.191000  0.814400  0.908310  1
  C  C542  1  0.309000  0.685600  0.408310  1
  C  C543  1  0.809000  0.185600  0.091690  1
  C  C544  1  0.691000  0.314400  0.591690  1
  C  C545  1  0.273700  0.796000  0.972640  1
  C  C546  1  0.226300  0.704000  0.472640  1
  C  C547  1  0.726300  0.204000  0.027360  1
  C  C548  1  0.773700  0.296000  0.527360  1
  C  C549  1  0.335000  0.819300  0.982230  1
  C  C550  1  0.165000  0.680700  0.482230  1
  C  C551  1  0.665000  0.180700  0.017770  1
  C  C552  1  0.835000  0.319300  0.517770  1
  C  C553  1  0.350000  0.861500  0.946170  1
  C  C554  1  0.150000  0.638500  0.446170  1
  C  C555  1  0.650000  0.138500  0.053830  1
  C  C556  1  0.850000  0.361500  0.553830  1
  C  C557  1  0.407800  0.901300  0.934660  1
  C  C558  1  0.092200  0.598700  0.434660  1
  C  C559  1  0.592200  0.098700  0.065340  1
  C  C560  1  0.907800  0.401300  0.565340  1
  C  C561  1  0.461100  0.911000  0.963500  1
  C  C562  1  0.038900  0.589000  0.463500  1
  C  C563  1  0.538900  0.089000  0.036500  1
  C  C564  1  0.961100  0.411000  0.536500  1
  C  C565  1  0.513800  0.948800  0.950300  1
  C  C566  1  0.986200  0.551200  0.450300  1
  C  C567  1  0.486200  0.051200  0.049700  1
  C  C568  1  0.013800  0.448800  0.549700  1
  C  C569  1  0.512900  0.975700  0.907800  1
  C  C570  1  0.987100  0.524300  0.407800  1
  C  C571  1  0.487100  0.024300  0.092200  1
  C  C572  1  0.012900  0.475700  0.592200  1
  C  C573  1  0.457800  0.965300  0.880000  1
  C  C574  1  0.042200  0.534700  0.380000  1
  C  C575  1  0.542200  0.034700  0.120000  1
  C  C576  1  0.957800  0.465300  0.620000  1
  C  C577  1  0.250300  0.927300  0.775000  1
  C  C578  1  0.249700  0.572700  0.275000  1
  C  C579  1  0.749700  0.072700  0.225000  1
  C  C580  1  0.750300  0.427300  0.725000  1
  C  C581  1  0.208900  0.954600  0.742200  1
  C  C582  1  0.291100  0.545400  0.242200  1
  C  C583  1  0.791100  0.045400  0.257800  1
  C  C584  1  0.708900  0.454600  0.757800  1
  C  C585  1  0.176100  0.011000  0.752500  1
  C  C586  1  0.323900  0.489000  0.252500  1
  C  C587  1  0.823900  0.989000  0.247500  1
  C  C588  1  0.676100  0.511000  0.747500  1
  C  C589  1  0.184300  0.040100  0.793400  1
  C  C590  1  0.315700  0.459900  0.293400  1
  C  C591  1  0.815700  0.959900  0.206600  1
  C  C592  1  0.684300  0.540100  0.706600  1
  C  C593  1  0.227500  0.010300  0.825200  1
  C  C594  1  0.272500  0.489700  0.325200  1
  C  C595  1  0.772500  0.989700  0.174800  1
  C  C596  1  0.727500  0.510300  0.674800  1
  C  C597  1  0.321500  0.768700  0.748590  1
  C  C598  1  0.178500  0.731300  0.248590  1
  C  C599  1  0.678500  0.231300  0.251410  1
  C  C600  1  0.821500  0.268700  0.751410  1
  C  C601  1  0.283300  0.818200  0.732730  1
  C  C602  1  0.216700  0.681800  0.232730  1
  C  C603  1  0.716700  0.181800  0.267270  1
  C  C604  1  0.783300  0.318200  0.767270  1
  C  C605  1  0.283600  0.864600  0.767780  1
  C  C606  1  0.216400  0.635400  0.267780  1
  C  C607  1  0.716400  0.135400  0.232220  1
  C  C608  1  0.783600  0.364600  0.732220  1
  C  C609  1  0.380500  0.745600  0.822880  1
  C  C610  1  0.119500  0.754400  0.322880  1
  C  C611  1  0.619500  0.254400  0.177120  1
  C  C612  1  0.880500  0.245600  0.677120  1
  C  C613  1  0.450000  0.770900  0.832200  1
  C  C614  1  0.050000  0.729100  0.332200  1
  C  C615  1  0.550000  0.229100  0.167800  1
  C  C616  1  0.950000  0.270900  0.667800  1
  C  C617  1  0.480700  0.806500  0.798740  1
  C  C618  1  0.019300  0.693500  0.298740  1
  C  C619  1  0.519300  0.193500  0.201260  1
  C  C620  1  0.980700  0.306500  0.701260  1
  C  C621  1  0.541900  0.837100  0.805200  1
  C  C622  1  0.958100  0.662900  0.305200  1
  C  C623  1  0.458100  0.162900  0.194800  1
  C  C624  1  0.041900  0.337100  0.694800  1
  C  C625  1  0.572700  0.833900  0.845800  1
  C  C626  1  0.927300  0.666100  0.345800  1
  C  C627  1  0.427300  0.166100  0.154200  1
  C  C628  1  0.072700  0.333900  0.654200  1
  C  C629  1  0.543900  0.797700  0.881600  1
  C  C630  1  0.956100  0.702300  0.381600  1
  C  C631  1  0.456100  0.202300  0.118400  1
  C  C632  1  0.043900  0.297700  0.618400  1
  C  C633  1  0.576000  0.796200  0.924400  1
  C  C634  1  0.924000  0.703800  0.424400  1
  C  C635  1  0.424000  0.203800  0.075600  1
  C  C636  1  0.076000  0.296200  0.575600  1
  C  C637  1  0.551100  0.761900  0.958800  1
  C  C638  1  0.948900  0.738100  0.458800  1
  C  C639  1  0.448900  0.238100  0.041200  1
  C  C640  1  0.051100  0.261900  0.541200  1
  C  C641  1  0.493400  0.724500  0.952700  1
  C  C642  1  0.006600  0.775500  0.452700  1
  C  C643  1  0.506600  0.275500  0.047300  1
  C  C644  1  0.993400  0.224500  0.547300  1
  C  C645  1  0.460200  0.721400  0.911670  1
  C  C646  1  0.039800  0.778600  0.411670  1
  C  C647  1  0.539800  0.278600  0.088330  1
  C  C648  1  0.960200  0.221400  0.588330  1
  C  C649  1  0.483000  0.761700  0.874690  1
  C  C650  1  0.017000  0.738300  0.374690  1
  C  C651  1  0.517000  0.238300  0.125310  1
  C  C652  1  0.983000  0.261700  0.625310  1
  C  C653  1  0.402500  0.673700  0.908160  1
  C  C654  1  0.097500  0.826300  0.408160  1
  C  C655  1  0.597500  0.326300  0.091840  1
  C  C656  1  0.902500  0.173700  0.591840  1
  C  C657  1  0.398500  0.578500  0.964560  1
  C  C658  1  0.101500  0.921500  0.464560  1
  C  C659  1  0.601500  0.421500  0.035440  1
  C  C660  1  0.898500  0.078500  0.535440  1
  C  C661  1  0.427600  0.517600  0.965420  1
  C  C662  1  0.072400  0.982400  0.465420  1
  C  C663  1  0.572400  0.482400  0.034580  1
  C  C664  1  0.927600  0.017600  0.534580  1
  C  C665  1  0.465300  0.514100  0.926540  1
  C  C666  1  0.034700  0.985900  0.426540  1
  C  C667  1  0.534700  0.485900  0.073460  1
  C  C668  1  0.965300  0.014100  0.573460  1
  C  C669  1  0.507200  0.462500  0.907150  1
  C  C670  1  0.992800  0.037500  0.407150  1
  C  C671  1  0.492800  0.537500  0.092850  1
  C  C672  1  0.007200  0.962500  0.592850  1
  C  C673  1  0.521700  0.404400  0.930500  1
  C  C674  1  0.978300  0.095600  0.430500  1
  C  C675  1  0.478300  0.595600  0.069500  1
  C  C676  1  0.021700  0.904400  0.569500  1
  C  C677  1  0.561300  0.359400  0.909300  1
  C  C678  1  0.938700  0.140600  0.409300  1
  C  C679  1  0.438700  0.640600  0.090700  1
  C  C680  1  0.061300  0.859400  0.590700  1
  C  C681  1  0.582900  0.371200  0.866700  1
  C  C682  1  0.917100  0.128800  0.366700  1
  C  C683  1  0.417100  0.628800  0.133300  1
  C  C684  1  0.082900  0.871200  0.633300  1
  C  C685  1  0.566400  0.429300  0.845100  1
  C  C686  1  0.933600  0.070700  0.345100  1
  C  C687  1  0.433600  0.570700  0.154900  1
  C  C688  1  0.066400  0.929300  0.654900  1
  C  C689  1  0.513900  0.632100  0.755960  1
  C  C690  1  0.986100  0.867900  0.255960  1
  C  C691  1  0.486100  0.367900  0.244040  1
  C  C692  1  0.013900  0.132100  0.744040  1
  C  C693  1  0.541400  0.668300  0.720440  1
  C  C694  1  0.958600  0.831700  0.220440  1
  C  C695  1  0.458600  0.331700  0.279560  1
  C  C696  1  0.041400  0.168300  0.779560  1
  C  C697  1  0.600000  0.701700  0.728240  1
  C  C698  1  0.900000  0.798300  0.228240  1
  C  C699  1  0.400000  0.298300  0.271760  1
  C  C700  1  0.100000  0.201700  0.771760  1
  C  C701  1  0.629800  0.698400  0.770200  1
  C  C702  1  0.870200  0.801600  0.270200  1
  C  C703  1  0.370200  0.301600  0.229800  1
  C  C704  1  0.129800  0.198400  0.729800  1
  C  C705  1  0.600100  0.660600  0.803450  1
  C  C706  1  0.899900  0.839400  0.303450  1
  C  C707  1  0.399900  0.339400  0.196550  1
  C  C708  1  0.100100  0.160600  0.696550  1
  C  C709  1  0.353000  0.556900  0.734560  1
  C  C710  1  0.147000  0.943100  0.234560  1
  C  C711  1  0.647000  0.443100  0.265440  1
  C  C712  1  0.853000  0.056900  0.765440  1
  C  C713  1  0.402900  0.594200  0.717500  1
  C  C714  1  0.097100  0.905800  0.217500  1
  C  C715  1  0.597100  0.405800  0.282500  1
  C  C716  1  0.902900  0.094200  0.782500  1
  C  C717  1  0.450800  0.597500  0.751440  1
  C  C718  1  0.049200  0.902500  0.251440  1
  C  C719  1  0.549200  0.402500  0.248560  1
  C  C720  1  0.950800  0.097500  0.748560  1
  C  C721  1  0.334100  0.500800  0.811030  1
  C  C722  1  0.165900  0.999200  0.311030  1
  C  C723  1  0.665900  0.499200  0.188970  1
  C  C724  1  0.834100  0.000800  0.688970  1
  C  C725  1  0.362500  0.433000  0.818950  1
  C  C726  1  0.137500  0.067000  0.318950  1
  C  C727  1  0.637500  0.567000  0.181050  1
  C  C728  1  0.862500  0.933000  0.681050  1
  C  C729  1  0.400100  0.404300  0.785300  1
  C  C730  1  0.099900  0.095700  0.285300  1
  C  C731  1  0.599900  0.595700  0.214700  1
  C  C732  1  0.900100  0.904300  0.714700  1
  C  C733  1  0.432800  0.344800  0.790900  1
  C  C734  1  0.067200  0.155200  0.290900  1
  C  C735  1  0.567200  0.655200  0.209100  1
  C  C736  1  0.932800  0.844800  0.709100  1
  C  C737  1  0.428300  0.312600  0.831200  1
  C  C738  1  0.071700  0.187400  0.331200  1
  C  C739  1  0.571700  0.687400  0.168800  1
  C  C740  1  0.928300  0.812600  0.668800  1
  C  C741  1  0.388400  0.337800  0.866400  1
  C  C742  1  0.111600  0.162200  0.366400  1
  C  C743  1  0.611600  0.662200  0.133600  1
  C  C744  1  0.888400  0.837800  0.633600  1
  C  C745  1  0.383200  0.301800  0.906900  1
  C  C746  1  0.116800  0.198200  0.406900  1
  C  C747  1  0.616800  0.698200  0.093100  1
  C  C748  1  0.883200  0.801800  0.593100  1
  C  C749  1  0.343300  0.321900  0.941200  1
  C  C750  1  0.156700  0.178100  0.441200  1
  C  C751  1  0.656700  0.678100  0.058800  1
  C  C752  1  0.843300  0.821900  0.558800  1
  C  C753  1  0.306400  0.380200  0.935400  1
  C  C754  1  0.193600  0.119800  0.435400  1
  C  C755  1  0.693600  0.619800  0.064600  1
  C  C756  1  0.806400  0.880200  0.564600  1
  C  C757  1  0.309200  0.416400  0.897390  1
  C  C758  1  0.190800  0.083600  0.397390  1
  C  C759  1  0.690800  0.583600  0.102610  1
  C  C760  1  0.809200  0.916400  0.602610  1
  C  C761  1  0.351500  0.397400  0.860620  1
  C  C762  1  0.148500  0.102600  0.360620  1
  C  C763  1  0.648500  0.602600  0.139380  1
  C  C764  1  0.851500  0.897400  0.639380  1
  C  C765  1  0.263800  0.475300  0.896150  1
  C  C766  1  0.236200  0.024700  0.396150  1
  C  C767  1  0.736200  0.524700  0.103850  1
  C  C768  1  0.763800  0.975300  0.603850  1
  C  C769  1  0.171900  0.479900  0.955300  1
  C  C770  1  0.328100  0.020100  0.455300  1
  C  C771  1  0.828100  0.520100  0.044700  1
  C  C772  1  0.671900  0.979900  0.544700  1
  C  C773  1  0.109900  0.453500  0.957320  1
  C  C774  1  0.390100  0.046500  0.457320  1
  C  C775  1  0.890100  0.546500  0.042680  1
  C  C776  1  0.609900  0.953500  0.542680  1
  C  C777  1  0.102300  0.417400  0.917540  1
  C  C778  1  0.397700  0.082600  0.417540  1
  C  C779  1  0.897700  0.582600  0.082460  1
  C  C780  1  0.602300  0.917400  0.582460  1
  C  C781  1  0.047700  0.378000  0.898460  1
  C  C782  1  0.452300  0.122000  0.398460  1
  C  C783  1  0.952300  0.622000  0.101540  1
  C  C784  1  0.547700  0.878000  0.601540  1
  C  C785  1  0.990600  0.362400  0.923000  1
  C  C786  1  0.509400  0.137600  0.423000  1
  C  C787  1  0.009400  0.637600  0.077000  1
  C  C788  1  0.490600  0.862400  0.577000  1
  C  C789  1  0.942900  0.324400  0.902700  1
  C  C790  1  0.557100  0.175600  0.402700  1
  C  C791  1  0.057100  0.675600  0.097300  1
  C  C792  1  0.442900  0.824400  0.597300  1
  C  C793  1  0.952200  0.302800  0.859000  1
  C  C794  1  0.547800  0.197200  0.359000  1
  C  C795  1  0.047800  0.697200  0.141000  1
  C  C796  1  0.452200  0.802800  0.641000  1
  C  C797  1  0.009300  0.321400  0.836480  1
  C  C798  1  0.490700  0.178600  0.336480  1
  C  C799  1  0.990700  0.678600  0.163520  1
  C  C800  1  0.509300  0.821400  0.663520  1
  C  C801  1  0.219900  0.374400  0.746170  1
  C  C802  1  0.280100  0.125600  0.246170  1
  C  C803  1  0.780100  0.625600  0.253830  1
  C  C804  1  0.719900  0.874400  0.753830  1
  C  C805  1  0.261200  0.350400  0.712290  1
  C  C806  1  0.238800  0.149600  0.212290  1
  C  C807  1  0.738800  0.649600  0.287710  1
  C  C808  1  0.761200  0.850400  0.787710  1
  C  C809  1  0.297400  0.295100  0.722400  1
  C  C810  1  0.202600  0.204900  0.222400  1
  C  C811  1  0.702600  0.704900  0.277600  1
  C  C812  1  0.797400  0.795100  0.777600  1
  C  C813  1  0.291900  0.266100  0.763600  1
  C  C814  1  0.208100  0.233900  0.263600  1
  C  C815  1  0.708100  0.733900  0.236400  1
  C  C816  1  0.791900  0.766100  0.736400  1
  C  C817  1  0.248500  0.292000  0.794910  1
  C  C818  1  0.251500  0.208000  0.294910  1
  C  C819  1  0.751500  0.708000  0.205090  1
  C  C820  1  0.748500  0.792000  0.705090  1
  C  C821  1  0.140600  0.531500  0.722100  1
  C  C822  1  0.359400  0.968500  0.222100  1
  C  C823  1  0.859400  0.468500  0.277900  1
  C  C824  1  0.640600  0.031500  0.777900  1
  C  C825  1  0.179200  0.481300  0.705070  1
  C  C826  1  0.320800  0.018700  0.205070  1
  C  C827  1  0.820800  0.518700  0.294930  1
  C  C828  1  0.679200  0.981300  0.794930  1
  C  C829  1  0.182100  0.436000  0.739510  1
  C  C830  1  0.317900  0.064000  0.239510  1
  C  C831  1  0.817900  0.564000  0.260490  1
  C  C832  1  0.682100  0.936000  0.760490  1
  C  C833  1  0.081700  0.547100  0.797810  1
  C  C834  1  0.418300  0.952900  0.297810  1
  C  C835  1  0.918300  0.452900  0.202190  1
  C  C836  1  0.581700  0.047100  0.702190  1
  C  C837  1  0.012900  0.515900  0.802730  1
  C  C838  1  0.487100  0.984100  0.302730  1
  C  C839  1  0.987100  0.484100  0.197270  1
  C  C840  1  0.512900  0.015900  0.697270  1
  C  C841  1  0.988500  0.482300  0.766380  1
  C  C842  1  0.511500  0.017700  0.266380  1
  C  C843  1  0.011500  0.517700  0.233620  1
  C  C844  1  0.488500  0.982300  0.733620  1
  C  C845  1  0.928700  0.447600  0.768800  1
  C  C846  1  0.571300  0.052400  0.268800  1
  C  C847  1  0.071300  0.552400  0.231200  1
  C  C848  1  0.428700  0.947600  0.731200  1
  C  C849  1  0.892600  0.446700  0.807400  1
  C  C850  1  0.607400  0.053300  0.307400  1
  C  C851  1  0.107400  0.553300  0.192600  1
  C  C852  1  0.392600  0.946700  0.692600  1
  C  C853  1  0.915300  0.481500  0.845430  1
  C  C854  1  0.584700  0.018500  0.345430  1
  C  C855  1  0.084700  0.518500  0.154570  1
  C  C856  1  0.415300  0.981500  0.654570  1
  C  C857  1  0.876600  0.479200  0.884800  1
  C  C858  1  0.623400  0.020800  0.384800  1
  C  C859  1  0.123400  0.520800  0.115200  1
  C  C860  1  0.376600  0.979200  0.615200  1
  C  C861  1  0.894800  0.512900  0.922400  1
  C  C862  1  0.605200  0.987100  0.422400  1
  C  C863  1  0.105200  0.487100  0.077600  1
  C  C864  1  0.394800  0.012900  0.577600  1
  C  C865  1  0.951800  0.551900  0.921200  1
  C  C866  1  0.548200  0.948100  0.421200  1
  C  C867  1  0.048200  0.448100  0.078800  1
  C  C868  1  0.451800  0.051900  0.578800  1
  C  C869  1  0.992200  0.555700  0.884430  1
  C  C870  1  0.507800  0.944300  0.384430  1
  C  C871  1  0.007800  0.444300  0.115570  1
  C  C872  1  0.492200  0.055700  0.615570  1
  C  C873  1  0.975900  0.518900  0.844120  1
  C  C874  1  0.524100  0.981100  0.344120  1
  C  C875  1  0.024100  0.481100  0.155880  1
  C  C876  1  0.475900  0.018900  0.655880  1
  C  C877  1  0.052200  0.601700  0.887230  1
  C  C878  1  0.447800  0.898300  0.387230  1
  C  C879  1  0.947800  0.398300  0.112770  1
  C  C880  1  0.552200  0.101700  0.612770  1
  C  C881  1  0.072300  0.671100  0.957940  1
  C  C882  1  0.427700  0.828900  0.457940  1
  C  C883  1  0.927700  0.328900  0.042060  1
  C  C884  1  0.572300  0.171100  0.542060  1
  C  C885  1  0.050700  0.730200  0.970990  1
  C  C886  1  0.449300  0.769800  0.470990  1
  C  C887  1  0.949300  0.269800  0.029010  1
  C  C888  1  0.550700  0.230200  0.529010  1
  C  C889  1  0.006500  0.750900  0.936760  1
  C  C890  1  0.493500  0.749100  0.436760  1
  C  C891  1  0.993500  0.249100  0.063240  1
  C  C892  1  0.506500  0.250900  0.563240  1
  C  C893  1  0.970400  0.811300  0.927900  1
  C  C894  1  0.529600  0.688700  0.427900  1
  C  C895  1  0.029600  0.188700  0.072100  1
  C  C896  1  0.470400  0.311300  0.572100  1
  C  C897  1  0.969500  0.862800  0.957600  1
  C  C898  1  0.530500  0.637200  0.457600  1
  C  C899  1  0.030500  0.137200  0.042400  1
  C  C900  1  0.469500  0.362800  0.542400  1
  C  C901  1  0.937400  0.919400  0.945500  1
  C  C902  1  0.562600  0.580600  0.445500  1
  C  C903  1  0.062600  0.080600  0.054500  1
  C  C904  1  0.437400  0.419400  0.554500  1
  C  C905  1  0.905600  0.922200  0.905900  1
  C  C906  1  0.594400  0.577800  0.405900  1
  C  C907  1  0.094400  0.077800  0.094100  1
  C  C908  1  0.405600  0.422200  0.594100  1
  C  C909  1  0.908800  0.869400  0.876300  1
  C  C910  1  0.591200  0.630600  0.376300  1
  C  C911  1  0.091200  0.130600  0.123700  1
  C  C912  1  0.408800  0.369400  0.623700  1
  C  C913  1  0.644900  0.585600  0.934400  1
  C  C914  1  0.855100  0.914400  0.434400  1
  C  C915  1  0.355100  0.414400  0.065600  1
  C  C916  1  0.144900  0.085600  0.565600  1
  C  C917  1  0.811300  0.681500  0.949800  1
  C  C918  1  0.688700  0.818500  0.449800  1
  C  C919  1  0.188700  0.318500  0.050200  1
  C  C920  1  0.311300  0.181500  0.550200  1
  C  C921  1  0.754500  0.758600  0.898000  1
  C  C922  1  0.745500  0.741400  0.398000  1
  C  C923  1  0.245500  0.241400  0.102000  1
  C  C924  1  0.254500  0.258600  0.602000  1
  C  C925  1  0.748800  0.695600  0.924000  1
  C  C926  1  0.751200  0.804400  0.424000  1
  C  C927  1  0.251200  0.304400  0.076000  1
  C  C928  1  0.248800  0.195600  0.576000  1
  C  C929  1  0.709200  0.535500  0.871000  1
  C  C930  1  0.790800  0.964500  0.371000  1
  C  C931  1  0.290800  0.464500  0.129000  1
  C  C932  1  0.209200  0.035500  0.629000  1
  C  C933  1  0.711000  0.582300  0.910300  1
  C  C934  1  0.789000  0.917700  0.410300  1
  C  C935  1  0.289000  0.417700  0.089700  1
  C  C936  1  0.211000  0.082300  0.589700  1
  C  C937  1  0.261200  0.819000  0.145200  1
  C  C938  1  0.238800  0.681000  0.645200  1
  C  C939  1  0.738800  0.181000  0.854800  1
  C  C940  1  0.761200  0.319000  0.354800  1
  C  C941  1  0.259200  0.790900  0.101400  1
  C  C942  1  0.240800  0.709100  0.601400  1
  C  C943  1  0.740800  0.209100  0.898600  1
  C  C944  1  0.759200  0.290900  0.398600  1
  C  C945  1  0.721400  0.973300  0.924100  1
  C  C946  1  0.778600  0.526700  0.424100  1
  C  C947  1  0.278600  0.026700  0.075900  1
  C  C948  1  0.221400  0.473300  0.575900  1
  C  C949  1  0.727200  0.031600  0.953600  1
  C  C950  1  0.772800  0.468400  0.453600  1
  C  C951  1  0.272800  0.968400  0.046400  1
  C  C952  1  0.227200  0.531600  0.546400  1
  N  N953  1  0.912200  0.675800  0.801110  1
  N  N954  1  0.587800  0.824200  0.301110  1
  N  N955  1  0.087800  0.324200  0.198890  1
  N  N956  1  0.412200  0.175800  0.698890  1
  N  N957  1  0.025500  0.738900  0.795490  1
  N  N958  1  0.474500  0.761100  0.295490  1
  N  N959  1  0.974500  0.261100  0.204510  1
  N  N960  1  0.525500  0.238900  0.704510  1
  N  N961  1  0.086800  0.763200  0.786350  1
  N  N962  1  0.413200  0.736800  0.286350  1
  N  N963  1  0.913200  0.236800  0.213650  1
  N  N964  1  0.586800  0.263200  0.713650  1
  N  N965  1  0.299500  0.862800  0.916680  1
  N  N966  1  0.200500  0.637200  0.416680  1
  N  N967  1  0.700500  0.137200  0.083320  1
  N  N968  1  0.799500  0.362800  0.583320  1
  N  N969  1  0.253000  0.822300  0.933750  1
  N  N970  1  0.247000  0.677700  0.433750  1
  N  N971  1  0.747000  0.177700  0.066250  1
  N  N972  1  0.753000  0.322300  0.566250  1
  N  N973  1  0.405600  0.928100  0.892280  1
  N  N974  1  0.094400  0.571900  0.392280  1
  N  N975  1  0.594400  0.071900  0.107720  1
  N  N976  1  0.905600  0.428100  0.607720  1
  N  N977  1  0.260700  0.954700  0.815670  1
  N  N978  1  0.239300  0.545300  0.315670  1
  N  N979  1  0.739300  0.045300  0.184330  1
  N  N980  1  0.760700  0.454700  0.684330  1
  N  N981  1  0.321190  0.843900  0.803530  1
  N  N982  1  0.178810  0.656100  0.303530  1
  N  N983  1  0.678810  0.156100  0.196470  1
  N  N984  1  0.821190  0.343900  0.696470  1
  N  N985  1  0.343700  0.784500  0.789890  1
  N  N986  1  0.156300  0.715500  0.289890  1
  N  N987  1  0.656300  0.215500  0.210110  1
  N  N988  1  0.843700  0.284500  0.710110  1
  N  N989  1  0.461190  0.570200  0.902010  1
  N  N990  1  0.038810  0.929800  0.402010  1
  N  N991  1  0.538810  0.429800  0.097990  1
  N  N992  1  0.961190  0.070200  0.597990  1
  N  N993  1  0.420100  0.609300  0.926760  1
  N  N994  1  0.079900  0.890700  0.426760  1
  N  N995  1  0.579900  0.390700  0.073240  1
  N  N996  1  0.920100  0.109300  0.573240  1
  N  N997  1  0.528800  0.475500  0.864970  1
  N  N998  1  0.971200  0.024500  0.364970  1
  N  N999  1  0.471200  0.524500  0.135030  1
  N  N1000  1  0.028800  0.975500  0.635030  1
  N  N1001  1  0.543900  0.626400  0.797510  1
  N  N1002  1  0.956100  0.873600  0.297510  1
  N  N1003  1  0.456100  0.373600  0.202490  1
  N  N1004  1  0.043900  0.126400  0.702490  1
  N  N1005  1  0.431200  0.562900  0.787930  1
  N  N1006  1  0.068800  0.937100  0.287930  1
  N  N1007  1  0.568800  0.437100  0.212070  1
  N  N1008  1  0.931200  0.062900  0.712070  1
  N  N1009  1  0.370800  0.537600  0.776620  1
  N  N1010  1  0.129200  0.962400  0.276620  1
  N  N1011  1  0.629200  0.462400  0.223380  1
  N  N1012  1  0.870800  0.037600  0.723380  1
  N  N1013  1  0.156900  0.422800  0.891830  1
  N  N1014  1  0.343100  0.077200  0.391830  1
  N  N1015  1  0.843100  0.577200  0.108170  1
  N  N1016  1  0.656900  0.922800  0.608170  1
  N  N1017  1  0.198700  0.460600  0.915820  1
  N  N1018  1  0.301300  0.039400  0.415820  1
  N  N1019  1  0.801300  0.539400  0.084180  1
  N  N1020  1  0.698700  0.960600  0.584180  1
  N  N1021  1  0.058500  0.358500  0.855440  1
  N  N1022  1  0.441500  0.141500  0.355440  1
  N  N1023  1  0.941500  0.641500  0.144560  1
  N  N1024  1  0.558500  0.858500  0.644560  1
  N  N1025  1  0.211750  0.345800  0.786350  1
  N  N1026  1  0.288250  0.154200  0.286350  1
  N  N1027  1  0.788250  0.654200  0.213650  1
  N  N1028  1  0.711750  0.845800  0.713650  1
  N  N1029  1  0.147000  0.454300  0.776510  1
  N  N1030  1  0.353000  0.045700  0.276510  1
  N  N1031  1  0.853000  0.545700  0.223490  1
  N  N1032  1  0.647000  0.954300  0.723490  1
  N  N1033  1  0.121800  0.512900  0.764470  1
  N  N1034  1  0.378200  0.987100  0.264470  1
  N  N1035  1  0.878200  0.487100  0.235530  1
  N  N1036  1  0.621800  0.012900  0.735530  1
  N  N1037  1  0.002100  0.704300  0.904340  1
  N  N1038  1  0.497900  0.795700  0.404340  1
  N  N1039  1  0.997900  0.295700  0.095660  1
  N  N1040  1  0.502100  0.204300  0.595660  1
  N  N1041  1  0.043100  0.655600  0.917680  1
  N  N1042  1  0.456900  0.844400  0.417680  1
  N  N1043  1  0.956900  0.344400  0.082320  1
  N  N1044  1  0.543100  0.155600  0.582320  1
  N  N1045  1  0.939800  0.813000  0.886500  1
  N  N1046  1  0.560200  0.687000  0.386500  1
  N  N1047  1  0.060200  0.187000  0.113500  1
  N  N1048  1  0.439800  0.313000  0.613500  1
  N  N1049  1  0.262900  0.837800  0.180700  1
  N  N1050  1  0.237100  0.662200  0.680700  1
  N  N1051  1  0.737100  0.162200  0.819300  1
  N  N1052  1  0.762900  0.337800  0.319300  1
  N  N1053  1  0.715900  0.929100  0.902300  1
  N  N1054  1  0.784100  0.570900  0.402300  1
  N  N1055  1  0.284100  0.070900  0.097700  1
  N  N1056  1  0.215900  0.429100  0.597700  1
  O  O1057  1  0.731090  0.644100  0.891590  1
  O  O1058  1  0.768910  0.855900  0.391590  1
  O  O1059  1  0.268910  0.355900  0.108410  1
  O  O1060  1  0.231090  0.144100  0.608410  1
  F  F1061  1  0.280500  0.628100  0.822000  1
  F  F1062  1  0.219500  0.871900  0.322000  1
  F  F1063  1  0.719500  0.371900  0.178000  1
  F  F1064  1  0.780500  0.128100  0.678000  1
  F  F1065  1  0.206100  0.594200  0.873900  1
  F  F1066  1  0.293900  0.905800  0.373900  1
  F  F1067  1  0.793900  0.405800  0.126100  1
  F  F1068  1  0.706100  0.094200  0.626100  1
  F  F1069  1  0.174900  0.668000  0.822100  1
  F  F1070  1  0.325100  0.832000  0.322100  1
  F  F1071  1  0.825100  0.332000  0.177900  1
  F  F1072  1  0.674900  0.168000  0.677900  1
  F  F1073  1  0.247400  0.697200  0.875800  1
  F  F1074  1  0.252600  0.802800  0.375800  1
  F  F1075  1  0.752600  0.302800  0.124200  1
  F  F1076  1  0.747400  0.197200  0.624200  1
  F  F1077  1  0.258700  0.560170  0.030640  1
  F  F1078  1  0.241300  0.939830  0.530640  1
  F  F1079  1  0.741300  0.439830  0.969360  1
  F  F1080  1  0.758700  0.060170  0.469360  1
  F  F1081  1  0.183800  0.623700  0.026300  1
  F  F1082  1  0.316200  0.876300  0.526300  1
  F  F1083  1  0.816200  0.376300  0.973700  1
  F  F1084  1  0.683800  0.123700  0.473700  1
  F  F1085  1  0.299070  0.662690  0.028400  1
  F  F1086  1  0.200930  0.837310  0.528400  1
  F  F1087  1  0.700930  0.337310  0.971600  1
  F  F1088  1  0.799070  0.162690  0.471600  1
  F  F1089  1  0.246140  0.626910  0.091530  1
  F  F1090  1  0.253860  0.873090  0.591530  1
  F  F1091  1  0.753860  0.373090  0.908470  1
  F  F1092  1  0.746140  0.126910  0.408470  1
  F  F1093  1  0.502400  0.862300  0.127300  1
  F  F1094  1  0.997600  0.637700  0.627300  1
  F  F1095  1  0.497600  0.137700  0.872700  1
  F  F1096  1  0.002400  0.362300  0.372700  1
  F  F1097  1  0.485000  0.809600  0.062900  1
  F  F1098  1  0.015000  0.690400  0.562900  1
  F  F1099  1  0.515000  0.190400  0.937100  1
  F  F1100  1  0.985000  0.309600  0.437100  1
  F  F1101  1  0.409100  0.884600  0.077080  1
  F  F1102  1  0.090900  0.615400  0.577080  1
  F  F1103  1  0.590900  0.115400  0.922920  1
  F  F1104  1  0.909100  0.384600  0.422920  1
  F  F1105  1  0.421000  0.789170  0.113430  1
  F  F1106  1  0.079000  0.710830  0.613430  1
  F  F1107  1  0.579000  0.210830  0.886570  1
  F  F1108  1  0.921000  0.289170  0.386570  1
  F  F1109  1  0.872600  0.081900  0.912000  1
  F  F1110  1  0.627400  0.418100  0.412000  1
  F  F1111  1  0.127400  0.918100  0.088000  1
  F  F1112  1  0.372600  0.581900  0.588000  1
  F  F1113  1  0.890400  0.177100  0.944530  1
  F  F1114  1  0.609600  0.322900  0.444530  1
  F  F1115  1  0.109600  0.822900  0.055470  1
  F  F1116  1  0.390400  0.677100  0.555470  1
  F  F1117  1  0.975800  0.131200  0.946300  1
  F  F1118  1  0.524200  0.368800  0.446300  1
  F  F1119  1  0.024200  0.868800  0.053700  1
  F  F1120  1  0.475800  0.631200  0.553700  1
  F  F1121  1  0.913200  0.157500  0.878600  1
  F  F1122  1  0.586800  0.342500  0.378600  1
  F  F1123  1  0.086800  0.842500  0.121400  1
  F  F1124  1  0.413200  0.657500  0.621400  1
  F  F1125  1  0.284700  0.627800  0.871800  1
  F  F1126  1  0.215300  0.872200  0.371800  1
  F  F1127  1  0.715300  0.372200  0.128200  1
  F  F1128  1  0.784700  0.127800  0.628200  1
  F  F1129  1  0.209700  0.594100  0.821100  1
  F  F1130  1  0.290300  0.905900  0.321100  1
  F  F1131  1  0.790300  0.405900  0.178900  1
  F  F1132  1  0.709700  0.094100  0.678900  1
  F  F1133  1  0.178400  0.660800  0.876800  1
  F  F1134  1  0.321600  0.839200  0.376800  1
  F  F1135  1  0.821600  0.339200  0.123200  1
  F  F1136  1  0.678400  0.160800  0.623200  1
  F  F1137  1  0.243200  0.700700  0.822100  1
  F  F1138  1  0.256800  0.799300  0.322100  1
  F  F1139  1  0.756800  0.299300  0.177900  1
  F  F1140  1  0.743200  0.200700  0.677900  1
  F  F1141  1  0.193200  0.660200  0.028700  1
  F  F1142  1  0.306800  0.839800  0.528700  1
  F  F1143  1  0.806800  0.339800  0.971300  1
  F  F1144  1  0.693200  0.160200  0.471300  1
  F  F1145  1  0.472400  0.881400  0.135370  1
  F  F1146  1  0.027600  0.618600  0.635370  1
  F  F1147  1  0.527600  0.118600  0.864630  1
  F  F1148  1  0.972400  0.381400  0.364630  1
  F  F1149  1  0.505600  0.842500  0.068000  1
  F  F1150  1  0.994400  0.657500  0.568000  1
  F  F1151  1  0.494400  0.157500  0.932000  1
  F  F1152  1  0.005600  0.342500  0.432000  1
  F  F1153  1  0.955800  0.085400  0.946300  1
  F  F1154  1  0.544200  0.414600  0.446300  1
  F  F1155  1  0.044200  0.914600  0.053700  1
  F  F1156  1  0.455800  0.585400  0.553700  1
  F  F1157  1  0.958000  0.142700  0.883410  1
  F  F1158  1  0.542000  0.357300  0.383410  1
  F  F1159  1  0.042000  0.857300  0.116590  1
  F  F1160  1  0.458000  0.642700  0.616590  1
