
#######################################################################
#
#                 Cambridge Crystallographic Data Centre
#                                CCDC 
#
#######################################################################
#
# If this CIF has been generated from an entry in the Cambridge 
# Structural Database, then it will include bibliographic, chemical, 
# crystal, experimental, refinement or atomic coordinate data resulting 
# from the CCDC's data processing and validation procedures.
#
#######################################################################

data_YEGNEE
_chemical_formula_moiety         
'C112 H88 Cu4 N24 4+,4(B1 F4 1-),2(C2 H3 N1),C6 H14 O1'
_chemical_name_systematic        
"tetrakis(\m~2~-1,8-bis(3-(2-Pyridyl)pyrazolylmethyl)naphthalene-N,N',N'',N''')-tetra-copper(i) tetrakis(tetrafluoroborate) acetonitrile di-isopropyl ether solvate"
_symmetry_cell_setting           monoclinic
_symmetry_space_group_name_H-M   'P 21/n'
_symmetry_Int_Tables_number      14
_space_group_name_Hall           '-P 2yn'
loop_
_symmetry_equiv_pos_site_id
_symmetry_equiv_pos_as_xyz
1 x,y,z
2 1/2-x,1/2+y,1/2-z
3 -x,-y,-z
4 1/2+x,1/2-y,1/2+z
_cell_length_a                   20.181(4)
_cell_length_b                   29.464(5)
_cell_length_c                   20.464(4)
_cell_angle_alpha                90
_cell_angle_beta                 90.514(3)
_cell_angle_gamma                90
_cell_volume                     12167.7
_exptl_crystal_colour            yellow
_exptl_crystal_description       plate
_cell_formula_units_Z            4
loop_
_atom_site_label
_atom_site_type_symbol
_atom_site_fract_x
_atom_site_fract_y
_atom_site_fract_z
Cu1 Cu 1.04394(3) 0.15304(2) 0.26559(3)
Cu2 Cu 0.67771(3) 0.14260(2) 0.09342(3)
Cu3 Cu 0.50148(3) 0.15997(2) 0.43573(3)
Cu4 Cu 0.85426(3) 0.17184(2) 0.61100(3)
N1 N 1.0878(2) 0.19889(16) 0.3242(2)
C1 C 1.0548(3) 0.23928(19) 0.3309(2)
C2 C 1.0779(3) 0.2747(2) 0.3703(3)
H1 H 1.0545 0.3026 0.3728
C3 C 1.1358(3) 0.2679(2) 0.4055(3)
H2 H 1.1527 0.2911 0.4332
C4 C 1.1686(3) 0.2271(2) 0.4000(3)
H3 H 1.2085 0.2221 0.4240
C5 C 1.1439(3) 0.1940(2) 0.3599(3)
H4 H 1.1674 0.1661 0.3570
N2 N 0.9745(2) 0.20451(14) 0.2611(2)
N3 N 0.9132(2) 0.21365(15) 0.2368(2)
C6 C 0.8928(3) 0.25553(19) 0.2553(3)
H5 H 0.8514 0.2691 0.2446
C7 C 0.9424(3) 0.27489(19) 0.2920(3)
H6 H 0.9430 0.3043 0.3112
C8 C 0.9921(2) 0.24175(18) 0.2951(2)
C9 C 0.8772(2) 0.17790(17) 0.2022(2)
H7 H 0.8300 0.1866 0.1986
H8 H 0.8798 0.1496 0.2282
C10 C 0.9035(2) 0.16855(19) 0.1342(3)
C11 C 0.9397(3) 0.2027(2) 0.1038(3)
H9 H 0.9447 0.2313 0.1248
C12 C 0.9692(3) 0.1956(2) 0.0420(3)
H10 H 0.9935 0.2193 0.0218
C13 C 0.9627(3) 0.1554(2) 0.0121(3)
H11 H 0.9842 0.1505 -0.0284
C14 C 0.9249(3) 0.1203(2) 0.0394(3)
C15 C 0.9190(4) 0.0791(3) 0.0048(4)
H12 H 0.9397 0.0758 -0.0364
C16 C 0.8836(4) 0.0442(3) 0.0304(4)
H13 H 0.8814 0.0160 0.0080
C17 C 0.8495(4) 0.0499(2) 0.0915(4)
H14 H 0.8246 0.0253 0.1084
C18 C 0.8520(3) 0.0891(2) 0.1254(3)
C19 C 0.8920(3) 0.12664(19) 0.1020(3)
C20 C 0.8090(2) 0.09169(18) 0.1856(3)
H15 H 0.8340 0.0794 0.2235
H16 H 0.7986 0.1239 0.1949
N4 N 0.7005(2) 0.08332(14) 0.1372(2)
N5 N 0.7470(2) 0.06625(14) 0.1777(2)
C21 C 0.7263(3) 0.02736(18) 0.2040(3)
H17 H 0.7507 0.0093 0.2342
C22 C 0.6650(3) 0.01777(18) 0.1807(3)
H18 H 0.6381 -0.0077 0.1908
C23 C 0.6500(3) 0.05383(16) 0.1385(2)
N6 N 0.5944(2) 0.10772(16) 0.0719(2)
C24 C 0.5922(3) 0.06534(19) 0.0987(3)
C25 C 0.5389(3) 0.0365(2) 0.0890(3)
H19 H 0.5390 0.0074 0.1088
C26 C 0.4862(3) 0.0497(3) 0.0512(3)
H20 H 0.4499 0.0298 0.0437
C27 C 0.4871(3) 0.0922(3) 0.0243(3)
H21 H 0.4506 0.1026 -0.0012
C28 C 0.5422(3) 0.1200(2) 0.0347(3)
H22 H 0.5428 0.1490 0.0144
N7 N 0.7393(2) 0.18433(16) 0.0453(2)
C29 C 0.7497(2) 0.2250(2) 0.0727(3)
C30 C 0.7911(3) 0.2578(2) 0.0454(3)
H23 H 0.7963 0.2866 0.0655
C31 C 0.8239(3) 0.2475(2) -0.0110(3)
H24 H 0.8528 0.2693 -0.0298
C32 C 0.8157(3) 0.2066(3) -0.0401(3)
H25 H 0.8381 0.1994 -0.0794
C33 C 0.7725(3) 0.1748(2) -0.0103(3)
H26 H 0.7667 0.1459 -0.0301
N8 N 0.67881(19) 0.19647(14) 0.1561(2)
N9 N 0.6563(2) 0.21011(14) 0.2155(2)
C34 C 0.6785(3) 0.25141(18) 0.2313(3)
H27 H 0.6691 0.2672 0.2707
C35 C 0.7167(3) 0.26727(19) 0.1818(3)
H28 H 0.7388 0.2957 0.1792
C36 C 0.7164(2) 0.23222(18) 0.1354(3)
C37 C 0.6195(2) 0.17712(18) 0.2544(2)
H29 H 0.6167 0.1884 0.2998
H30 H 0.6445 0.1482 0.2553
C38 C 0.5500(2) 0.16780(17) 0.2291(2)
C39 C 0.5193(3) 0.20126(19) 0.1935(3)
H31 H 0.5405 0.2299 0.1896
C40 C 0.4581(3) 0.1948(2) 0.1629(3)
H32 H 0.4379 0.2191 0.1396
C41 C 0.4273(3) 0.1542(2) 0.1661(3)
H33 H 0.3862 0.1497 0.1440
C42 C 0.4561(3) 0.1184(2) 0.2023(3)
C43 C 0.4240(3) 0.0756(2) 0.2038(3)
H34 H 0.3839 0.0715 0.1797
C44 C 0.4489(3) 0.0412(2) 0.2381(3)
H35 H 0.4275 0.0125 0.2373
C45 C 0.5066(3) 0.0473(2) 0.2755(3)
H36 H 0.5237 0.0222 0.2996
C46 C 0.5398(3) 0.08833(19) 0.2786(3)
C47 C 0.5170(3) 0.12531(19) 0.2383(3)
C48 C 0.5975(3) 0.09184(18) 0.3263(3)
H37 H 0.6359 0.0750 0.3089
H38 H 0.6105 0.1241 0.3313
N10 N 0.53881(19) 0.09799(13) 0.4298(2)
N11 N 0.5799(2) 0.07324(13) 0.3907(2)
C49 C 0.6015(3) 0.03544(17) 0.4215(3)
H39 H 0.6312 0.0135 0.4045
C50 C 0.5724(3) 0.03458(18) 0.4824(3)
H40 H 0.5775 0.0119 0.5151
C51 C 0.5347(2) 0.07346(17) 0.4859(2)
N12 N 0.4712(2) 0.13503(15) 0.5245(2)
C52 C 0.4928(3) 0.09285(18) 0.5375(2)
C53 C 0.4783(3) 0.0695(2) 0.5956(3)
H41 H 0.4954 0.0399 0.6035
C54 C 0.4387(4) 0.0907(3) 0.6406(3)
H42 H 0.4267 0.0755 0.6797
C55 C 0.4171(3) 0.1333(3) 0.6288(3)
H43 H 0.3906 0.1485 0.6601
C56 C 0.4336(3) 0.1549(2) 0.5707(3)
H44 H 0.4178 0.1848 0.5633
N13 N 0.4561(2) 0.20249(14) 0.3736(2)
C57 C 0.4861(3) 0.24404(18) 0.3679(2)
C58 C 0.4586(3) 0.27956(18) 0.3317(2)
H45 H 0.4797 0.3084 0.3301
C59 C 0.4000(3) 0.27176(19) 0.2983(3)
H46 H 0.3803 0.2953 0.2730
C60 C 0.3702(3) 0.2298(2) 0.3016(3)
H47 H 0.3301 0.2238 0.2785
C61 C 0.3999(2) 0.19655(18) 0.3394(2)
H48 H 0.3792 0.1676 0.3411
N14 N 0.5688(2) 0.21207(13) 0.4371(2)
N15 N 0.6292(2) 0.22338(14) 0.4624(2)
C62 C 0.6470(3) 0.26544(19) 0.4431(3)
H49 H 0.6873 0.2804 0.4537
C63 C 0.5971(3) 0.28250(18) 0.4058(3)
H50 H 0.5952 0.3116 0.3859
C64 C 0.5492(2) 0.24856(16) 0.4025(2)
C65 C 0.6659(2) 0.18897(17) 0.4992(2)
H51 H 0.7127 0.1986 0.5036
H52 H 0.6650 0.1601 0.4746
C66 C 0.6375(2) 0.18105(18) 0.5670(3)
C67 C 0.5999(3) 0.2147(2) 0.5957(3)
H53 H 0.5960 0.2431 0.5739
C68 C 0.5672(3) 0.2091(2) 0.6552(3)
H54 H 0.5420 0.2333 0.6730
C69 C 0.5717(3) 0.1688(2) 0.6874(3)
H55 H 0.5481 0.1644 0.7268
C70 C 0.6116(3) 0.1336(2) 0.6622(3)
C71 C 0.6168(3) 0.0931(2) 0.6982(3)
H56 H 0.5919 0.0896 0.7372
C72 C 0.6567(4) 0.0588(2) 0.6781(4)
H57 H 0.6600 0.0314 0.7026
C73 C 0.6936(3) 0.0646(2) 0.6198(3)
H58 H 0.7215 0.0405 0.6059
C74 C 0.6908(3) 0.10261(18) 0.5836(3)
C75 C 0.6485(2) 0.13938(17) 0.6026(3)
C76 C 0.7362(2) 0.10385(18) 0.5247(3)
H59 H 0.7154 0.0868 0.4882
H60 H 0.7420 0.1357 0.5104
N16 N 0.8431(2) 0.10817(14) 0.5772(2)
N17 N 0.8013(2) 0.08418(14) 0.5394(2)
C77 C 0.8281(3) 0.04470(19) 0.5201(3)
H61 H 0.8076 0.0224 0.4931
C78 C 0.8901(3) 0.04268(19) 0.5465(3)
H62 H 0.9216 0.0191 0.5414
C79 C 0.8977(3) 0.08246(18) 0.5826(3)
N18 N 0.9415(2) 0.14456(15) 0.6415(2)
C80 C 0.9523(3) 0.10154(19) 0.6220(3)
C81 C 1.0094(3) 0.0770(2) 0.6376(3)
H63 H 1.0151 0.0469 0.6221
C82 C 1.0571(3) 0.0973(2) 0.6756(3)
H64 H 1.0963 0.0812 0.6871
C83 C 1.0478(3) 0.1410(2) 0.6972(3)
H65 H 1.0799 0.1553 0.7244
C84 C 0.9907(3) 0.16352(19) 0.6786(3)
H66 H 0.9854 0.1941 0.6924
N19 N 0.78825(19) 0.21365(14) 0.6542(2)
C85 C 0.7801(2) 0.25383(18) 0.6256(2)
C86 C 0.7388(2) 0.28771(18) 0.6496(3)
H67 H 0.7357 0.3165 0.6289
C87 C 0.7026(3) 0.2776(2) 0.7049(3)
H68 H 0.6737 0.2998 0.7227
C88 C 0.7081(3) 0.2364(2) 0.7339(3)
H69 H 0.6827 0.2292 0.7713
C89 C 0.7515(2) 0.20509(18) 0.7080(2)
H70 H 0.7557 0.1764 0.7287
N20 N 0.8530(2) 0.22349(14) 0.5457(2)
N21 N 0.8782(2) 0.23553(15) 0.4871(2)
C90 C 0.8594(3) 0.27790(19) 0.4685(3)
H71 H 0.8705 0.2929 0.4291
C91 C 0.8208(3) 0.29493(19) 0.5187(3)
H72 H 0.8007 0.3240 0.5212
C92 C 0.8179(2) 0.26049(18) 0.5640(3)
C93 C 0.9183(2) 0.20219(17) 0.4529(2)
H73 H 0.9230 0.2115 0.4067
H74 H 0.8955 0.1724 0.4536
C94 C 0.9871(2) 0.19727(18) 0.4841(2)
C95 C 1.0115(3) 0.23362(19) 0.5177(3)
H75 H 0.9873 0.2613 0.5174
C96 C 1.0713(3) 0.2312(2) 0.5524(3)
H76 H 1.0868 0.2571 0.5758
C97 C 1.1074(3) 0.1926(2) 0.5533(3)
H77 H 1.1478 0.1912 0.5773
C98 C 1.0847(3) 0.15457(19) 0.5185(3)
C99 C 1.1234(3) 0.1152(2) 0.5208(3)
H78 H 1.1630 0.1149 0.5462
C100 C 1.1052(3) 0.0776(2) 0.4871(3)
H79 H 1.1310 0.0507 0.4899
C101 C 1.0482(3) 0.0788(2) 0.4481(3)
H80 H 1.0370 0.0526 0.4231
C102 C 1.0078(3) 0.11557(18) 0.4443(3)
C103 C 1.0241(3) 0.15588(18) 0.4811(2)
C104 C 0.9478(3) 0.11277(17) 0.3983(3)
H81 H 0.9088 0.1028 0.4235
H82 H 0.9382 0.1435 0.3810
N22 N 0.9979(2) 0.09566(14) 0.2957(2)
N23 N 0.9569(2) 0.08232(14) 0.3444(2)
C105 C 0.9277(3) 0.04206(19) 0.3289(3)
H83 H 0.8971 0.0259 0.3553
C106 C 0.9493(3) 0.02901(19) 0.2698(3)
H84 H 0.9373 0.0022 0.2466
C107 C 0.9935(3) 0.06324(19) 0.2491(3)
N24 N 1.0602(2) 0.1135(2) 0.1870(2)
C108 C 1.0296(3) 0.0721(2) 0.1887(3)
C109 C 1.0305(4) 0.0424(3) 0.1372(4)
H85 H 1.0091 0.0138 0.1404
C110 C 1.0626(6) 0.0545(4) 0.0806(5)
H86 H 1.0622 0.0347 0.0440
C111 C 1.0944(5) 0.0941(4) 0.0778(5)
H87 H 1.1190 0.1020 0.0401
C112 C 1.0912(3) 0.1237(3) 0.1306(3)
H88 H 1.1118 0.1526 0.1268
B1 B 0.7718(4) 0.1524(3) 0.3540(4)
F1 F 0.7195(4) 0.1780(3) 0.3719(3)
F2 F 0.7939(3) 0.1261(4) 0.4058(4)
F3 F 0.8251(4) 0.1779(3) 0.3320(3)
F4 F 0.7526(4) 0.1242(3) 0.3028(4)
B2 B 0.7517(4) 0.9560(3) 0.3752(4)
F9 F 0.7413(2) 0.96936(12) 0.43983(17)
F10 F 0.8162(3) 0.9737(3) 0.3763(7)
F12 F 0.70093(18) 0.97160(11) 0.33731(16)
F13 F 0.75386(17) 0.90847(11) 0.37309(16)
B3 B 0.5485(5) 0.9021(2) 0.1570(4)
F14 F 0.4976(5) 0.8727(3) 0.1377(5)
F16 F 0.5150(6) 0.9371(3) 0.1904(7)
F18 F 0.5909(2) 0.92292(15) 0.1154(2)
F19 F 0.5790(2) 0.88657(15) 0.21083(19)
B4 B 0.0818(4) 0.0795(2) 0.8724(4)
F20 F 0.1274(3) 0.0880(2) 0.9181(2)
F21 F 0.1096(2) 0.05547(14) 0.8229(2)
F22 F 0.0242(5) 0.0537(4) 0.8688(8)
F24 F 0.0868(7) 0.1214(3) 0.8425(6)
O1 O 0.26891(18) 0.10841(13) 0.3559(2)
C113 C 0.3551(3) 0.0656(2) 0.4144(4)
H89 H 0.3513 0.0393 0.3854
H90 H 0.3682 0.0554 0.4583
H91 H 0.3887 0.0865 0.3975
C114 C 0.1887(4) 0.0502(3) 0.3185(4)
H92 H 0.1971 0.0285 0.3540
H93 H 0.1744 0.0338 0.2792
H94 H 0.1539 0.0714 0.3317
C115 C 0.2455(3) 0.1020(2) 0.2414(3)
H95 H 0.2075 0.1226 0.2434
H96 H 0.2393 0.0807 0.2051
H97 H 0.2861 0.1196 0.2347
C116 C 0.2512(3) 0.0760(2) 0.3044(4)
H98 H 0.2882 0.0537 0.3002
C117 C 0.2908(3) 0.1290(2) 0.4645(3)
H99 H 0.3225 0.1518 0.4491
H100 H 0.3045 0.1183 0.5079
H101 H 0.2466 0.1427 0.4671
C118 C 0.2890(3) 0.0897(2) 0.4177(3)
H102 H 0.2546 0.0676 0.4324
N25 N 0.7371(4) 0.8193(3) 0.1622(4)
C119 C 0.7388(4) 0.8548(3) 0.1810(4)
C120 C 0.7408(4) 0.8986(2) 0.2091(4)
H103 H 0.7252 0.8971 0.2543
H104 H 0.7123 0.9191 0.1838
H105 H 0.7865 0.9099 0.2088
N26 N 0.2841(4) 0.0977(3) 1.0709(3)
C121 C 0.2786(4) 0.0759(3) 1.0267(4)
C122 C 0.2728(4) 0.0464(3) 0.9684(4)
H106 H 0.3040 0.0210 0.9725
H107 H 0.2832 0.0641 0.9292
H108 H 0.2275 0.0347 0.9650
loop_
_geom_bond_atom_site_label_1
_geom_bond_atom_site_label_2
_geom_bond_site_symmetry_1
_geom_bond_site_symmetry_2
Cu1 N1 1_555 1_555
Cu2 N4 1_555 1_555
Cu3 N10 1_555 1_555
Cu4 N16 1_555 1_555
N1 C1 1_555 1_555
C1 C2 1_555 1_555
C2 H1 1_555 1_555
C3 C2 1_555 1_555
H2 C3 1_555 1_555
C4 C3 1_555 1_555
H3 C4 1_555 1_555
C5 N1 1_555 1_555
H4 C5 1_555 1_555
N2 Cu1 1_555 1_555
N3 N2 1_555 1_555
C6 N3 1_555 1_555
H5 C6 1_555 1_555
C7 C6 1_555 1_555
H6 C7 1_555 1_555
C8 C1 1_555 1_555
C9 N3 1_555 1_555
H7 C9 1_555 1_555
H8 C9 1_555 1_555
C10 C9 1_555 1_555
C11 C10 1_555 1_555
H9 C11 1_555 1_555
C12 C11 1_555 1_555
H10 C12 1_555 1_555
C13 C12 1_555 1_555
H11 C13 1_555 1_555
C14 C13 1_555 1_555
C15 C14 1_555 1_555
H12 C15 1_555 1_555
C16 C15 1_555 1_555
H13 C16 1_555 1_555
C17 C16 1_555 1_555
H14 C17 1_555 1_555
C18 C17 1_555 1_555
C19 C10 1_555 1_555
C20 C18 1_555 1_555
H15 C20 1_555 1_555
H16 C20 1_555 1_555
N4 N5 1_555 1_555
N5 C20 1_555 1_555
C21 N5 1_555 1_555
H17 C21 1_555 1_555
C22 C21 1_555 1_555
H18 C22 1_555 1_555
C23 N4 1_555 1_555
N6 Cu2 1_555 1_555
C24 C23 1_555 1_555
C25 C24 1_555 1_555
H19 C25 1_555 1_555
C26 C25 1_555 1_555
H20 C26 1_555 1_555
C27 C26 1_555 1_555
H21 C27 1_555 1_555
C28 N6 1_555 1_555
H22 C28 1_555 1_555
N7 Cu2 1_555 1_555
C29 N7 1_555 1_555
C30 C29 1_555 1_555
H23 C30 1_555 1_555
C31 C30 1_555 1_555
H24 C31 1_555 1_555
C32 C31 1_555 1_555
H25 C32 1_555 1_555
C33 N7 1_555 1_555
H26 C33 1_555 1_555
N8 Cu2 1_555 1_555
N9 N8 1_555 1_555
C34 N9 1_555 1_555
H27 C34 1_555 1_555
C35 C34 1_555 1_555
H28 C35 1_555 1_555
C36 C29 1_555 1_555
C37 N9 1_555 1_555
H29 C37 1_555 1_555
H30 C37 1_555 1_555
C38 C37 1_555 1_555
C39 C38 1_555 1_555
H31 C39 1_555 1_555
C40 C39 1_555 1_555
H32 C40 1_555 1_555
C41 C40 1_555 1_555
H33 C41 1_555 1_555
C42 C41 1_555 1_555
C43 C42 1_555 1_555
H34 C43 1_555 1_555
C44 C43 1_555 1_555
H35 C44 1_555 1_555
C45 C44 1_555 1_555
H36 C45 1_555 1_555
C46 C45 1_555 1_555
C47 C38 1_555 1_555
C48 C46 1_555 1_555
H37 C48 1_555 1_555
H38 C48 1_555 1_555
N10 N11 1_555 1_555
N11 C48 1_555 1_555
C49 N11 1_555 1_555
H39 C49 1_555 1_555
C50 C49 1_555 1_555
H40 C50 1_555 1_555
C51 N10 1_555 1_555
N12 Cu3 1_555 1_555
C52 C51 1_555 1_555
C53 C52 1_555 1_555
H41 C53 1_555 1_555
C54 C53 1_555 1_555
H42 C54 1_555 1_555
C55 C54 1_555 1_555
H43 C55 1_555 1_555
C56 N12 1_555 1_555
H44 C56 1_555 1_555
N13 Cu3 1_555 1_555
C57 N13 1_555 1_555
C58 C57 1_555 1_555
H45 C58 1_555 1_555
C59 C58 1_555 1_555
H46 C59 1_555 1_555
C60 C59 1_555 1_555
H47 C60 1_555 1_555
C61 N13 1_555 1_555
H48 C61 1_555 1_555
N14 Cu3 1_555 1_555
N15 N14 1_555 1_555
C62 N15 1_555 1_555
H49 C62 1_555 1_555
C63 C62 1_555 1_555
H50 C63 1_555 1_555
C64 C57 1_555 1_555
C65 N15 1_555 1_555
H51 C65 1_555 1_555
H52 C65 1_555 1_555
C66 C65 1_555 1_555
C67 C66 1_555 1_555
H53 C67 1_555 1_555
C68 C67 1_555 1_555
H54 C68 1_555 1_555
C69 C68 1_555 1_555
H55 C69 1_555 1_555
C70 C69 1_555 1_555
C71 C70 1_555 1_555
H56 C71 1_555 1_555
C72 C71 1_555 1_555
H57 C72 1_555 1_555
C73 C72 1_555 1_555
H58 C73 1_555 1_555
C74 C73 1_555 1_555
C75 C66 1_555 1_555
C76 C74 1_555 1_555
H59 C76 1_555 1_555
H60 C76 1_555 1_555
N16 N17 1_555 1_555
N17 C76 1_555 1_555
C77 N17 1_555 1_555
H61 C77 1_555 1_555
C78 C77 1_555 1_555
H62 C78 1_555 1_555
C79 N16 1_555 1_555
N18 Cu4 1_555 1_555
C80 C79 1_555 1_555
C81 C80 1_555 1_555
H63 C81 1_555 1_555
C82 C81 1_555 1_555
H64 C82 1_555 1_555
C83 C82 1_555 1_555
H65 C83 1_555 1_555
C84 N18 1_555 1_555
H66 C84 1_555 1_555
N19 Cu4 1_555 1_555
C85 N19 1_555 1_555
C86 C85 1_555 1_555
H67 C86 1_555 1_555
C87 C86 1_555 1_555
H68 C87 1_555 1_555
C88 C87 1_555 1_555
H69 C88 1_555 1_555
C89 N19 1_555 1_555
H70 C89 1_555 1_555
N20 Cu4 1_555 1_555
N21 N20 1_555 1_555
C90 N21 1_555 1_555
H71 C90 1_555 1_555
C91 C90 1_555 1_555
H72 C91 1_555 1_555
C92 C85 1_555 1_555
C93 N21 1_555 1_555
H73 C93 1_555 1_555
H74 C93 1_555 1_555
C94 C93 1_555 1_555
C95 C94 1_555 1_555
H75 C95 1_555 1_555
C96 C95 1_555 1_555
H76 C96 1_555 1_555
C97 C96 1_555 1_555
H77 C97 1_555 1_555
C98 C97 1_555 1_555
C99 C98 1_555 1_555
H78 C99 1_555 1_555
C100 C99 1_555 1_555
H79 C100 1_555 1_555
C101 C100 1_555 1_555
H80 C101 1_555 1_555
C102 C101 1_555 1_555
C103 C94 1_555 1_555
C104 C102 1_555 1_555
H81 C104 1_555 1_555
H82 C104 1_555 1_555
N22 Cu1 1_555 1_555
N23 C104 1_555 1_555
C105 N23 1_555 1_555
H83 C105 1_555 1_555
C106 C105 1_555 1_555
H84 C106 1_555 1_555
C107 N22 1_555 1_555
N24 Cu1 1_555 1_555
C108 C107 1_555 1_555
C109 C108 1_555 1_555
H85 C109 1_555 1_555
C110 C109 1_555 1_555
H86 C110 1_555 1_555
C111 C110 1_555 1_555
H87 C111 1_555 1_555
C112 N24 1_555 1_555
H88 C112 1_555 1_555
B1 F1 1_555 1_555
F2 B1 1_555 1_555
F3 B1 1_555 1_555
F4 B1 1_555 1_555
B2 F9 1_555 1_555
F10 B2 1_555 1_555
F12 B2 1_555 1_555
F13 B2 1_555 1_555
B3 F14 1_555 1_555
F16 B3 1_555 1_555
F18 B3 1_555 1_555
F19 B3 1_555 1_555
B4 F20 1_555 1_555
F21 B4 1_555 1_555
F22 B4 1_555 1_555
F24 B4 1_555 1_555
O1 C116 1_555 1_555
C113 H89 1_555 1_555
H90 C113 1_555 1_555
H91 C113 1_555 1_555
C114 H92 1_555 1_555
H93 C114 1_555 1_555
H94 C114 1_555 1_555
C115 H95 1_555 1_555
H96 C115 1_555 1_555
H97 C115 1_555 1_555
C116 C114 1_555 1_555
H98 C116 1_555 1_555
C117 H99 1_555 1_555
H100 C117 1_555 1_555
H101 C117 1_555 1_555
C118 O1 1_555 1_555
H102 C118 1_555 1_555
N25 C119 1_555 1_555
C119 C120 1_555 1_555
C120 H103 1_555 1_555
H104 C120 1_555 1_555
H105 C120 1_555 1_555
N26 C121 1_555 1_555
C121 C122 1_555 1_555
C122 H106 1_555 1_555
H107 C122 1_555 1_555
H108 C122 1_555 1_555
C4 C5 1_555 1_555
N2 C8 1_555 1_555
C7 C8 1_555 1_555
C14 C19 1_555 1_555
C18 C19 1_555 1_555
C22 C23 1_555 1_555
N6 C24 1_555 1_555
C27 C28 1_555 1_555
C32 C33 1_555 1_555
N8 C36 1_555 1_555
C35 C36 1_555 1_555
C42 C47 1_555 1_555
C46 C47 1_555 1_555
C50 C51 1_555 1_555
N12 C52 1_555 1_555
C55 C56 1_555 1_555
C60 C61 1_555 1_555
N14 C64 1_555 1_555
C63 C64 1_555 1_555
C70 C75 1_555 1_555
C74 C75 1_555 1_555
C78 C79 1_555 1_555
N18 C80 1_555 1_555
C83 C84 1_555 1_555
C88 C89 1_555 1_555
N20 C92 1_555 1_555
C91 C92 1_555 1_555
C98 C103 1_555 1_555
C102 C103 1_555 1_555
N22 N23 1_555 1_555
C106 C107 1_555 1_555
N24 C108 1_555 1_555
C111 C112 1_555 1_555
C113 C118 1_555 1_555
C115 C116 1_555 1_555
C117 C118 1_555 1_555

#END
