
#######################################################################
#
#                 Cambridge Crystallographic Data Centre
#                                CCDC 
#
#######################################################################
#
# If this CIF has been generated from an entry in the Cambridge 
# Structural Database, then it will include bibliographic, chemical, 
# crystal, experimental, refinement or atomic coordinate data resulting 
# from the CCDC's data processing and validation procedures.
#
#######################################################################

data_YEGPIK
_chemical_formula_moiety         'C252 H252 N36 Zn4 8+,8(Cl1 O4 1-)'
_chemical_name_systematic        
"hexakis(\m~2~-1,8-bis(3-(4,5-Pinenopyridin-2-yl)pyrazolylmethyl)naphthalene-N,N',N'',N''')-tetra-zinc(ii) octaperchlorate"
_symmetry_cell_setting           cubic
_symmetry_space_group_name_H-M   'F 41 3 2'
_symmetry_Int_Tables_number      210
_space_group_name_Hall           'F 4d 2 3'
loop_
_symmetry_equiv_pos_site_id
_symmetry_equiv_pos_as_xyz
1 x,y,z
2 -x,1/2-y,1/2+z
3 1/2-x,1/2+y,-z
4 1/2+x,-y,1/2-z
5 z,x,y
6 1/2+z,-x,1/2-y
7 -z,1/2-x,1/2+y
8 1/2-z,1/2+x,-y
9 y,z,x
10 1/2-y,1/2+z,-x
11 1/2+y,-z,1/2-x
12 -y,1/2-z,1/2+x
13 3/4+y,1/4+x,3/4-z
14 1/4-y,1/4-x,1/4-z
15 1/4+y,3/4-x,3/4+z
16 3/4-y,3/4+x,1/4+z
17 3/4+x,1/4+z,3/4-y
18 3/4-x,3/4+z,1/4+y
19 1/4-x,1/4-z,1/4-y
20 1/4+x,3/4-z,3/4+y
21 3/4+z,1/4+y,3/4-x
22 1/4+z,3/4-y,3/4+x
23 3/4-z,3/4+y,1/4+x
24 1/4-z,1/4-y,1/4-x
25 x,1/2+y,1/2+z
26 -x,-y,z
27 1/2-x,y,1/2-z
28 1/2+x,1/2-y,-z
29 z,1/2+x,1/2+y
30 1/2+z,1/2-x,-y
31 -z,-x,y
32 1/2-z,x,1/2-y
33 y,1/2+z,1/2+x
34 1/2-y,z,1/2-x
35 1/2+y,1/2-z,-x
36 -y,-z,x
37 3/4+y,3/4+x,1/4-z
38 1/4-y,3/4-x,3/4-z
39 1/4+y,1/4-x,1/4+z
40 3/4-y,1/4+x,3/4+z
41 3/4+x,3/4+z,1/4-y
42 3/4-x,1/4+z,3/4+y
43 1/4-x,3/4-z,3/4-y
44 1/4+x,1/4-z,1/4+y
45 3/4+z,3/4+y,1/4-x
46 1/4+z,1/4-y,1/4+x
47 3/4-z,1/4+y,3/4+x
48 1/4-z,3/4-y,3/4-x
49 1/2+x,y,1/2+z
50 1/2-x,1/2-y,z
51 -x,1/2+y,1/2-z
52 x,-y,-z
53 1/2+z,x,1/2+y
54 z,-x,-y
55 1/2-z,1/2-x,y
56 -z,1/2+x,1/2-y
57 1/2+y,z,1/2+x
58 -y,1/2+z,1/2-x
59 y,-z,-x
60 1/2-y,1/2-z,x
61 1/4+y,1/4+x,1/4-z
62 3/4-y,1/4-x,3/4-z
63 3/4+y,3/4-x,1/4+z
64 1/4-y,3/4+x,3/4+z
65 1/4+x,1/4+z,1/4-y
66 1/4-x,3/4+z,3/4+y
67 3/4-x,1/4-z,3/4-y
68 3/4+x,3/4-z,1/4+y
69 1/4+z,1/4+y,1/4-x
70 3/4+z,3/4-y,1/4+x
71 1/4-z,3/4+y,3/4+x
72 3/4-z,1/4-y,3/4-x
73 1/2+x,1/2+y,z
74 1/2-x,-y,1/2+z
75 -x,y,-z
76 x,1/2-y,1/2-z
77 1/2+z,1/2+x,y
78 z,1/2-x,1/2-y
79 1/2-z,-x,1/2+y
80 -z,x,-y
81 1/2+y,1/2+z,x
82 -y,z,-x
83 y,1/2-z,1/2-x
84 1/2-y,-z,1/2+x
85 1/4+y,3/4+x,3/4-z
86 3/4-y,3/4-x,1/4-z
87 3/4+y,1/4-x,3/4+z
88 1/4-y,1/4+x,1/4+z
89 1/4+x,3/4+z,3/4-y
90 1/4-x,1/4+z,1/4+y
91 3/4-x,3/4-z,1/4-y
92 3/4+x,1/4-z,3/4+y
93 1/4+z,3/4+y,3/4-x
94 3/4+z,1/4-y,3/4+x
95 1/4-z,1/4+y,1/4+x
96 3/4-z,3/4-y,1/4-x
_cell_length_a                   38.238(5)
_cell_length_b                   38.238(5)
_cell_length_c                   38.238(5)
_cell_angle_alpha                90
_cell_angle_beta                 90
_cell_angle_gamma                90
_cell_volume                     55909.5
_exptl_crystal_colour            colorless
_exptl_crystal_description       block
_cell_formula_units_Z            8
loop_
_atom_site_label
_atom_site_type_symbol
_atom_site_fract_x
_atom_site_fract_y
_atom_site_fract_z
Zn1 Zn 0.65935(4) 0.84065(4) 0.65935(4)
N1 N 0.6578(3) 0.8950(3) 0.6669(4)
C1 C 0.6595(3) 0.9047(4) 0.7022(4)
C2 C 0.6615(4) 0.9394(4) 0.7093(5)
H1 H 0.6643 0.9464 0.7330
C3 C 0.6596(4) 0.9652(4) 0.6839(5)
C4 C 0.6557(4) 0.9531(4) 0.6490(5)
C5 C 0.6547(4) 0.9179(4) 0.6433(5)
H2 H 0.6513 0.9100 0.6200
N2 N 0.6574(3) 0.8445(3) 0.7173(3)
N3 N 0.6553(3) 0.8260(3) 0.7474(3)
C6 C 0.6568(4) 0.8477(5) 0.7759(4)
H3 H 0.6563 0.8406 0.7997
C7 C 0.6592(4) 0.8814(5) 0.7641(4)
H4 H 0.6603 0.9023 0.7776
C8 C 0.6595(3) 0.8781(4) 0.7278(4)
C9 C 0.6471(3) 0.7881(4) 0.7473(4)
H5 H 0.6583 0.7766 0.7676
H6 H 0.6563 0.7772 0.7257
C10 C 0.6061(4) 0.7833(4) 0.7492(4)
C11 C 0.5874(4) 0.8129(4) 0.7488(4)
H7 H 0.5993 0.8346 0.7473
C12 C 0.5494(4) 0.8130(5) 0.7507(5)
H8 H 0.5361 0.8339 0.7527
C13 C 0.5351(5) 0.7821(5) 0.7495(5)
H9 H 0.5103 0.7815 0.7481
C14 C 0.5519(5) 0.7500 0.7500
C15 C 0.5899(5) 0.7500 0.7500
C16 C 0.5981(6) 1.0019(6) 0.6513(6)
H10 H 0.5936 0.9771 0.6464
H11 H 0.5780 1.0159 0.6438
H12 H 0.6018 1.0050 0.6765
C17 C 0.6297(6) 1.0133(4) 0.6320(7)
C18 C 0.6213(5) 1.0335(6) 0.5991(6)
H13 H 0.6348 1.0240 0.5795
H14 H 0.6272 1.0582 0.6024
H15 H 0.5962 1.0313 0.5939
C19 C 0.6537(5) 0.9818(4) 0.6238(6)
H16 H 0.6507 0.9732 0.5993
C20 C 0.6849(5) 1.0063(4) 0.6273(5)
H17 H 0.6895 1.0214 0.6067
H18 H 0.7066 0.9954 0.6363
C21 C 0.6589(7) 1.0237(5) 0.6576(8)
H19 H 0.6617 1.0496 0.6593
C22 C 0.6651(6) 1.0064(4) 0.6905(6)
H20 H 0.6485 1.0149 0.7084
H21 H 0.6892 1.0111 0.6988
Zn1Z Zn 0.84065(4) 0.84065(4) 0.84065(4)
Zn1D Zn 0.65935(4) 0.65935(4) 0.84065(4)
Zn1H Zn 0.84065(4) 0.65935(4) 0.65935(4)
N1GB N 0.6050(3) 0.8331(4) 0.6578(3)
N1YB N 0.6669(4) 0.8422(3) 0.6050(3)
N1BB N 0.8331(4) 0.8422(3) 0.8950(3)
N1Z N 0.8422(3) 0.8950(3) 0.8331(4)
N1DC N 0.8950(3) 0.8331(4) 0.8422(3)
N1GA N 0.6050(3) 0.6669(4) 0.8422(3)
N1D N 0.6669(4) 0.6578(3) 0.8950(3)
N1WB N 0.6578(3) 0.6050(3) 0.8331(4)
N1EA N 0.8331(4) 0.6578(3) 0.6050(3)
N1WA N 0.8422(3) 0.6050(3) 0.6669(4)
N1H N 0.8950(3) 0.6669(4) 0.6578(3)
C1GB C 0.5953(4) 0.7978(4) 0.6595(3)
C1YB C 0.7022(4) 0.8405(3) 0.5953(4)
C1BB C 0.7978(4) 0.8405(3) 0.9047(4)
C1Z C 0.8405(3) 0.9047(4) 0.7978(4)
C1DC C 0.9047(4) 0.7978(4) 0.8405(3)
C1GA C 0.5953(4) 0.7022(4) 0.8405(3)
C1D C 0.7022(4) 0.6595(3) 0.9047(4)
C1WB C 0.6595(3) 0.5953(4) 0.7978(4)
C1EA C 0.7978(4) 0.6595(3) 0.5953(4)
C1WA C 0.8405(3) 0.5953(4) 0.7022(4)
C1H C 0.9047(4) 0.7022(4) 0.6595(3)
C2GB C 0.5606(4) 0.7907(5) 0.6615(4)
C2YB C 0.7093(5) 0.8385(4) 0.5606(4)
C2BB C 0.7907(5) 0.8385(4) 0.9394(4)
C2Z C 0.8385(4) 0.9394(4) 0.7907(5)
C2DC C 0.9394(4) 0.7907(5) 0.8385(4)
C2GA C 0.5606(4) 0.7093(5) 0.8385(4)
C2D C 0.7093(5) 0.6615(4) 0.9394(4)
C2WB C 0.6615(4) 0.5606(4) 0.7907(5)
C2EA C 0.7907(5) 0.6615(4) 0.5606(4)
C2WA C 0.8385(4) 0.5606(4) 0.7093(5)
C2H C 0.9394(4) 0.7093(5) 0.6615(4)
H1GB H 0.5536 0.7670 0.6643
H1YB H 0.7330 0.8357 0.5536
H1BB H 0.7670 0.8357 0.9464
H1Z H 0.8357 0.9464 0.7670
H1DC H 0.9464 0.7670 0.8357
H1GA H 0.5536 0.7330 0.8357
H1D H 0.7330 0.6643 0.9464
H1WB H 0.6643 0.5536 0.7670
H1EA H 0.7670 0.6643 0.5536
H1WA H 0.8357 0.5536 0.7330
H1H H 0.9464 0.7330 0.6643
C3GB C 0.5348(4) 0.8161(5) 0.6596(4)
C3YB C 0.6839(5) 0.8404(4) 0.5348(4)
C3BB C 0.8161(5) 0.8404(4) 0.9652(4)
C3Z C 0.8404(4) 0.9652(4) 0.8161(5)
C3DC C 0.9652(4) 0.8161(5) 0.8404(4)
C3GA C 0.5348(4) 0.6839(5) 0.8404(4)
C3D C 0.6839(5) 0.6596(4) 0.9652(4)
C3WB C 0.6596(4) 0.5348(4) 0.8161(5)
C3EA C 0.8161(5) 0.6596(4) 0.5348(4)
C3WA C 0.8404(4) 0.5348(4) 0.6839(5)
C3H C 0.9652(4) 0.6839(5) 0.6596(4)
C4GB C 0.5469(4) 0.8510(5) 0.6557(4)
C4YB C 0.6490(5) 0.8443(4) 0.5469(4)
C4BB C 0.8510(5) 0.8443(4) 0.9531(4)
C4Z C 0.8443(4) 0.9531(4) 0.8510(5)
C4DC C 0.9531(4) 0.8510(5) 0.8443(4)
C4GA C 0.5469(4) 0.6490(5) 0.8443(4)
C4D C 0.6490(5) 0.6557(4) 0.9531(4)
C4WB C 0.6557(4) 0.5469(4) 0.8510(5)
C4EA C 0.8510(5) 0.6557(4) 0.5469(4)
C4WA C 0.8443(4) 0.5469(4) 0.6490(5)
C4H C 0.9531(4) 0.6490(5) 0.6557(4)
C5GB C 0.5821(4) 0.8567(5) 0.6547(4)
C5YB C 0.6433(5) 0.8453(4) 0.5821(4)
C5BB C 0.8567(5) 0.8453(4) 0.9179(4)
C5Z C 0.8453(4) 0.9179(4) 0.8567(5)
C5DC C 0.9179(4) 0.8567(5) 0.8453(4)
C5GA C 0.5821(4) 0.6433(5) 0.8453(4)
C5D C 0.6433(5) 0.6547(4) 0.9179(4)
C5WB C 0.6547(4) 0.5821(4) 0.8567(5)
C5EA C 0.8567(5) 0.6547(4) 0.5821(4)
C5WA C 0.8453(4) 0.5821(4) 0.6433(5)
C5H C 0.9179(4) 0.6433(5) 0.6547(4)
H2GB H 0.5900 0.8800 0.6513
H2YB H 0.6200 0.8487 0.5900
H2BB H 0.8800 0.8487 0.9100
H2Z H 0.8487 0.9100 0.8800
H2DC H 0.9100 0.8800 0.8487
H2GA H 0.5900 0.6200 0.8487
H2D H 0.6200 0.6513 0.9100
H2WB H 0.6513 0.5900 0.8800
H2EA H 0.8800 0.6513 0.5900
H2WA H 0.8487 0.5900 0.6200
H2H H 0.9100 0.6200 0.6513
N2GB N 0.6555(3) 0.7827(3) 0.6574(3)
N2YB N 0.7173(3) 0.8426(3) 0.6555(3)
N2BB N 0.7827(3) 0.8426(3) 0.8445(3)
N2Z N 0.8426(3) 0.8445(3) 0.7827(3)
N2DC N 0.8445(3) 0.7827(3) 0.8426(3)
N2GA N 0.6555(3) 0.7173(3) 0.8426(3)
N2D N 0.7173(3) 0.6574(3) 0.8445(3)
N2WB N 0.6574(3) 0.6555(3) 0.7827(3)
N2EA N 0.7827(3) 0.6574(3) 0.6555(3)
N2WA N 0.8426(3) 0.6555(3) 0.7173(3)
N2H N 0.8445(3) 0.7173(3) 0.6574(3)
N3YB N 0.7474(3) 0.8447(3) 0.6740(3)
N3BB N 0.7526(3) 0.8447(3) 0.8260(3)
N3DC N 0.8260(3) 0.7526(3) 0.8447(3)
N3GA N 0.6740(3) 0.7474(3) 0.8447(3)
N3WB N 0.6553(3) 0.6740(3) 0.7526(3)
N3D N 0.7474(3) 0.6553(3) 0.8260(3)
N3EA N 0.7526(3) 0.6553(3) 0.6740(3)
N3H N 0.8260(3) 0.7474(3) 0.6553(3)
N3GB N 0.6740(3) 0.7526(3) 0.6553(3)
N3WA N 0.8447(3) 0.6740(3) 0.7474(3)
N3Z N 0.8447(3) 0.8260(3) 0.7526(3)
C6YB C 0.7759(4) 0.8432(4) 0.6523(5)
C6BB C 0.7241(4) 0.8432(4) 0.8477(5)
C6DC C 0.8477(5) 0.7241(4) 0.8432(4)
C6GA C 0.6523(5) 0.7759(4) 0.8432(4)
C6WB C 0.6568(4) 0.6523(5) 0.7241(4)
C6D C 0.7759(4) 0.6568(4) 0.8477(5)
C6EA C 0.7241(4) 0.6568(4) 0.6523(5)
C6H C 0.8477(5) 0.7759(4) 0.6568(4)
C6GB C 0.6523(5) 0.7241(4) 0.6568(4)
C6WA C 0.8432(4) 0.6523(5) 0.7759(4)
C6Z C 0.8432(4) 0.8477(5) 0.7241(4)
H3YB H 0.7997 0.8437 0.6594
H3BB H 0.7003 0.8437 0.8406
H3DC H 0.8406 0.7003 0.8437
H3GA H 0.6594 0.7997 0.8437
H3WB H 0.6563 0.6594 0.7003
H3D H 0.7997 0.6563 0.8406
H3EA H 0.7003 0.6563 0.6594
H3H H 0.8406 0.7997 0.6563
H3GB H 0.6594 0.7003 0.6563
H3WA H 0.8437 0.6594 0.7997
H3Z H 0.8437 0.8406 0.7003
C7YB C 0.7641(4) 0.8408(4) 0.6186(5)
C7BB C 0.7359(4) 0.8408(4) 0.8814(5)
C7DC C 0.8814(5) 0.7359(4) 0.8408(4)
C7GA C 0.6186(5) 0.7641(4) 0.8408(4)
C7WB C 0.6592(4) 0.6186(5) 0.7359(4)
C7D C 0.7641(4) 0.6592(4) 0.8814(5)
C7EA C 0.7359(4) 0.6592(4) 0.6186(5)
C7H C 0.8814(5) 0.7641(4) 0.6592(4)
C7GB C 0.6186(5) 0.7359(4) 0.6592(4)
C7WA C 0.8408(4) 0.6186(5) 0.7641(4)
C7Z C 0.8408(4) 0.8814(5) 0.7359(4)
H4YB H 0.7776 0.8397 0.5977
H4BB H 0.7224 0.8397 0.9023
H4DC H 0.9023 0.7224 0.8397
H4GA H 0.5977 0.7776 0.8397
H4WB H 0.6603 0.5977 0.7224
H4D H 0.7776 0.6603 0.9023
H4EA H 0.7224 0.6603 0.5977
H4H H 0.9023 0.7776 0.6603
H4GB H 0.5977 0.7224 0.6603
H4WA H 0.8397 0.5977 0.7776
H4Z H 0.8397 0.9023 0.7224
C8GB C 0.6219(4) 0.7722(4) 0.6595(3)
C8YB C 0.7278(4) 0.8405(3) 0.6219(4)
C8BB C 0.7722(4) 0.8405(3) 0.8781(4)
C8Z C 0.8405(3) 0.8781(4) 0.7722(4)
C8DC C 0.8781(4) 0.7722(4) 0.8405(3)
C8GA C 0.6219(4) 0.7278(4) 0.8405(3)
C8D C 0.7278(4) 0.6595(3) 0.8781(4)
C8WB C 0.6595(3) 0.6219(4) 0.7722(4)
C8EA C 0.7722(4) 0.6595(3) 0.6219(4)
C8WA C 0.8405(3) 0.6219(4) 0.7278(4)
C8H C 0.8781(4) 0.7278(4) 0.6595(3)
C9YB C 0.7473(4) 0.8529(3) 0.7119(4)
C9BB C 0.7527(4) 0.8529(3) 0.7881(4)
C9DC C 0.7881(4) 0.7527(4) 0.8529(3)
C9GA C 0.7119(4) 0.7473(4) 0.8529(3)
C9WB C 0.6471(3) 0.7119(4) 0.7527(4)
C9D C 0.7473(4) 0.6471(3) 0.7881(4)
C9EA C 0.7527(4) 0.6471(3) 0.7119(4)
C9H C 0.7881(4) 0.7473(4) 0.6471(3)
C9GB C 0.7119(4) 0.7527(4) 0.6471(3)
C9WA C 0.8529(3) 0.7119(4) 0.7473(4)
C9Z C 0.8529(3) 0.7881(4) 0.7527(4)
H5YB H 0.7676 0.8417 0.7234
H5DC H 0.7766 0.7324 0.8417
H5WB H 0.6583 0.7234 0.7324
H5D H 0.7676 0.6583 0.7766
H5H H 0.7766 0.7676 0.6583
H5GB H 0.7234 0.7324 0.6583
H5WA H 0.8417 0.7234 0.7676
H5Z H 0.8417 0.7766 0.7324
H5EA H 0.7324 0.6583 0.7234
H5GA H 0.7234 0.7676 0.8417
H5BB H 0.7324 0.8417 0.7766
H6YB H 0.7257 0.8437 0.7228
H6DC H 0.7772 0.7743 0.8437
H6WB H 0.6563 0.7228 0.7743
H6D H 0.7257 0.6563 0.7772
H6H H 0.7772 0.7257 0.6563
H6GB H 0.7228 0.7743 0.6563
H6WA H 0.8437 0.7228 0.7257
H6Z H 0.8437 0.7772 0.7743
H6EA H 0.7743 0.6563 0.7228
H6GA H 0.7228 0.7257 0.8437
H6BB H 0.7743 0.8437 0.7772
C10YB C 0.7492(4) 0.8939(4) 0.7167(4)
C10BB C 0.7508(4) 0.8939(4) 0.7833(4)
C10DC C 0.7833(4) 0.7508(4) 0.8939(4)
C10GA C 0.7167(4) 0.7492(4) 0.8939(4)
C10WB C 0.6061(4) 0.7167(4) 0.7508(4)
C10D C 0.7492(4) 0.6061(4) 0.7833(4)
C10EA C 0.7508(4) 0.6061(4) 0.7167(4)
C10H C 0.7833(4) 0.7492(4) 0.6061(4)
C10GB C 0.7167(4) 0.7508(4) 0.6061(4)
C10WA C 0.8939(4) 0.7167(4) 0.7492(4)
C10Z C 0.8939(4) 0.7833(4) 0.7508(4)
C11YB C 0.7488(4) 0.9126(4) 0.6871(4)
C11BB C 0.7512(4) 0.9126(4) 0.8129(4)
C11DC C 0.8129(4) 0.7512(4) 0.9126(4)
C11GA C 0.6871(4) 0.7488(4) 0.9126(4)
C11WB C 0.5874(4) 0.6871(4) 0.7512(4)
C11D C 0.7488(4) 0.5874(4) 0.8129(4)
C11EA C 0.7512(4) 0.5874(4) 0.6871(4)
C11H C 0.8129(4) 0.7488(4) 0.5874(4)
C11GB C 0.6871(4) 0.7512(4) 0.5874(4)
C11WA C 0.9126(4) 0.6871(4) 0.7488(4)
C11Z C 0.9126(4) 0.8129(4) 0.7512(4)
H7YB H 0.7473 0.9007 0.6654
H7DC H 0.8346 0.7527 0.9007
H7WB H 0.5993 0.6654 0.7527
H7D H 0.7473 0.5993 0.8346
H7H H 0.8346 0.7473 0.5993
H7GB H 0.6654 0.7527 0.5993
H7WA H 0.9007 0.6654 0.7473
H7Z H 0.9007 0.8346 0.7527
H7EA H 0.7527 0.5993 0.6654
H7GA H 0.6654 0.7473 0.9007
H7BB H 0.7527 0.9007 0.8346
C12YB C 0.7507(5) 0.9506(4) 0.6870(5)
C12BB C 0.7493(5) 0.9506(4) 0.8130(5)
C12DC C 0.8130(5) 0.7493(5) 0.9506(4)
C12GA C 0.6870(5) 0.7507(5) 0.9506(4)
C12WB C 0.5494(4) 0.6870(5) 0.7493(5)
C12D C 0.7507(5) 0.5494(4) 0.8130(5)
C12EA C 0.7493(5) 0.5494(4) 0.6870(5)
C12H C 0.8130(5) 0.7507(5) 0.5494(4)
C12GB C 0.6870(5) 0.7493(5) 0.5494(4)
C12WA C 0.9506(4) 0.6870(5) 0.7507(5)
C12Z C 0.9506(4) 0.8130(5) 0.7493(5)
H8YB H 0.7527 0.9639 0.6661
H8DC H 0.8339 0.7473 0.9639
H8WB H 0.5361 0.6661 0.7473
H8D H 0.7527 0.5361 0.8339
H8H H 0.8339 0.7527 0.5361
H8GB H 0.6661 0.7473 0.5361
H8WA H 0.9639 0.6661 0.7527
H8Z H 0.9639 0.8339 0.7473
H8EA H 0.7473 0.5361 0.6661
H8GA H 0.6661 0.7527 0.9639
H8BB H 0.7473 0.9639 0.8339
C13YB C 0.7495(5) 0.9649(5) 0.7179(5)
C13BB C 0.7505(5) 0.9649(5) 0.7821(5)
C13DC C 0.7821(5) 0.7505(5) 0.9649(5)
C13GA C 0.7179(5) 0.7495(5) 0.9649(5)
C13WB C 0.5351(5) 0.7179(5) 0.7505(5)
C13D C 0.7495(5) 0.5351(5) 0.7821(5)
C13EA C 0.7505(5) 0.5351(5) 0.7179(5)
C13H C 0.7821(5) 0.7495(5) 0.5351(5)
C13GB C 0.7179(5) 0.7505(5) 0.5351(5)
C13WA C 0.9649(5) 0.7179(5) 0.7495(5)
C13Z C 0.9649(5) 0.7821(5) 0.7505(5)
H9YB H 0.7481 0.9897 0.7185
H9DC H 0.7815 0.7519 0.9897
H9WB H 0.5103 0.7185 0.7519
H9D H 0.7481 0.5103 0.7815
H9H H 0.7815 0.7481 0.5103
H9GB H 0.7185 0.7519 0.5103
H9WA H 0.9897 0.7185 0.7481
H9Z H 0.9897 0.7815 0.7519
H9EA H 0.7519 0.5103 0.7185
H9GA H 0.7185 0.7481 0.9897
H9BB H 0.7519 0.9897 0.7815
C14BB C 0.7500 0.9481(5) 0.7500
C14GA C 0.7500 0.7500 0.9481(5)
C14D C 0.7500 0.5519(5) 0.7500
C14H C 0.7500 0.7500 0.5519(5)
C14Z C 0.9481(5) 0.7500 0.7500
C15H C 0.7500 0.7500 0.5899(5)
C15Z C 0.9101(5) 0.7500 0.7500
C15D C 0.7500 0.5899(5) 0.7500
C15GA C 0.7500 0.7500 0.9101(5)
C15BB C 0.7500 0.9101(5) 0.7500
C16GB C 0.4981(6) 0.8487(6) 0.5981(6)
C16YB C 0.6513(6) 0.9019(6) 0.4981(6)
C16BB C 0.8487(6) 0.9019(6) 1.0019(6)
C16Z C 0.9019(6) 1.0019(6) 0.8487(6)
C16DC C 1.0019(6) 0.8487(6) 0.9019(6)
C16GA C 0.4981(6) 0.6513(6) 0.9019(6)
C16D C 0.6513(6) 0.5981(6) 1.0019(6)
C16WB C 0.5981(6) 0.4981(6) 0.8487(6)
C16EA C 0.8487(6) 0.5981(6) 0.4981(6)
C16WA C 0.9019(6) 0.4981(6) 0.6513(6)
C16H C 1.0019(6) 0.6513(6) 0.5981(6)
H10GB H 0.5229 0.8536 0.5936
H10YB H 0.6464 0.9064 0.5229
H10BB H 0.8536 0.9064 0.9771
H10Z H 0.9064 0.9771 0.8536
H10DC H 0.9771 0.8536 0.9064
H10GA H 0.5229 0.6464 0.9064
H10D H 0.6464 0.5936 0.9771
H10WB H 0.5936 0.5229 0.8536
H10EA H 0.8536 0.5936 0.5229
H10WA H 0.9064 0.5229 0.6464
H10H H 0.9771 0.6464 0.5936
H11GB H 0.4841 0.8562 0.5780
H11YB H 0.6438 0.9220 0.4841
H11BB H 0.8562 0.9220 1.0159
H11Z H 0.9220 1.0159 0.8562
H11DC H 1.0159 0.8562 0.9220
H11GA H 0.4841 0.6438 0.9220
H11D H 0.6438 0.5780 1.0159
H11WB H 0.5780 0.4841 0.8562
H11EA H 0.8562 0.5780 0.4841
H11WA H 0.9220 0.4841 0.6438
H11H H 1.0159 0.6438 0.5780
H12GB H 0.4950 0.8235 0.6018
H12YB H 0.6765 0.8982 0.4950
H12BB H 0.8235 0.8982 1.0050
H12Z H 0.8982 1.0050 0.8235
H12DC H 1.0050 0.8235 0.8982
H12GA H 0.4950 0.6765 0.8982
H12D H 0.6765 0.6018 1.0050
H12WB H 0.6018 0.4950 0.8235
H12EA H 0.8235 0.6018 0.4950
H12WA H 0.8982 0.4950 0.6765
H12H H 1.0050 0.6765 0.6018
C17GB C 0.4867(4) 0.8680(7) 0.6297(6)
C17YB C 0.6320(7) 0.8703(6) 0.4867(4)
C17BB C 0.8680(7) 0.8703(6) 1.0133(4)
C17Z C 0.8703(6) 1.0133(4) 0.8680(7)
C17DC C 1.0133(4) 0.8680(7) 0.8703(6)
C17GA C 0.4867(4) 0.6320(7) 0.8703(6)
C17D C 0.6320(7) 0.6297(6) 1.0133(4)
C17WB C 0.6297(6) 0.4867(4) 0.8680(7)
C17EA C 0.8680(7) 0.6297(6) 0.4867(4)
C17WA C 0.8703(6) 0.4867(4) 0.6320(7)
C17H C 1.0133(4) 0.6320(7) 0.6297(6)
C18GB C 0.4665(6) 0.9009(6) 0.6213(5)
C18YB C 0.5991(6) 0.8787(5) 0.4665(6)
C18BB C 0.9009(6) 0.8787(5) 1.0335(6)
C18Z C 0.8787(5) 1.0335(6) 0.9009(6)
C18DC C 1.0335(6) 0.9009(6) 0.8787(5)
C18GA C 0.4665(6) 0.5991(6) 0.8787(5)
C18D C 0.5991(6) 0.6213(5) 1.0335(6)
C18WB C 0.6213(5) 0.4665(6) 0.9009(6)
C18EA C 0.9009(6) 0.6213(5) 0.4665(6)
C18WA C 0.8787(5) 0.4665(6) 0.5991(6)
C18H C 1.0335(6) 0.5991(6) 0.6213(5)
H13GB H 0.4760 0.9205 0.6348
H13YB H 0.5795 0.8652 0.4760
H13BB H 0.9205 0.8652 1.0240
H13Z H 0.8652 1.0240 0.9205
H13DC H 1.0240 0.9205 0.8652
H13GA H 0.4760 0.5795 0.8652
H13D H 0.5795 0.6348 1.0240
H13WB H 0.6348 0.4760 0.9205
H13EA H 0.9205 0.6348 0.4760
H13WA H 0.8652 0.4760 0.5795
H13H H 1.0240 0.5795 0.6348
H14GB H 0.4418 0.8976 0.6272
H14YB H 0.6024 0.8728 0.4418
H14BB H 0.8976 0.8728 1.0582
H14Z H 0.8728 1.0582 0.8976
H14DC H 1.0582 0.8976 0.8728
H14GA H 0.4418 0.6024 0.8728
H14D H 0.6024 0.6272 1.0582
H14WB H 0.6272 0.4418 0.8976
H14EA H 0.8976 0.6272 0.4418
H14WA H 0.8728 0.4418 0.6024
H14H H 1.0582 0.6024 0.6272
H15GB H 0.4687 0.9061 0.5962
H15YB H 0.5939 0.9038 0.4687
H15BB H 0.9061 0.9038 1.0313
H15Z H 0.9038 1.0313 0.9061
H15DC H 1.0313 0.9061 0.9038
H15GA H 0.4687 0.5939 0.9038
H15D H 0.5939 0.5962 1.0313
H15WB H 0.5962 0.4687 0.9061
H15EA H 0.9061 0.5962 0.4687
H15WA H 0.9038 0.4687 0.5939
H15H H 1.0313 0.5939 0.5962
C19GB C 0.5182(4) 0.8762(6) 0.6537(5)
C19YB C 0.6238(6) 0.8463(5) 0.5182(4)
C19BB C 0.8762(6) 0.8463(5) 0.9818(4)
C19Z C 0.8463(5) 0.9818(4) 0.8762(6)
C19DC C 0.9818(4) 0.8762(6) 0.8463(5)
C19GA C 0.5182(4) 0.6238(6) 0.8463(5)
C19D C 0.6238(6) 0.6537(5) 0.9818(4)
C19WB C 0.6537(5) 0.5182(4) 0.8762(6)
C19EA C 0.8762(6) 0.6537(5) 0.5182(4)
C19WA C 0.8463(5) 0.5182(4) 0.6238(6)
C19H C 0.9818(4) 0.6238(6) 0.6537(5)
H16GB H 0.5268 0.9007 0.6507
H16YB H 0.5993 0.8493 0.5268
H16BB H 0.9007 0.8493 0.9732
H16Z H 0.8493 0.9732 0.9007
H16DC H 0.9732 0.9007 0.8493
H16GA H 0.5268 0.5993 0.8493
H16D H 0.5993 0.6507 0.9732
H16WB H 0.6507 0.5268 0.9007
H16EA H 0.9007 0.6507 0.5268
H16WA H 0.8493 0.5268 0.5993
H16H H 0.9732 0.5993 0.6507
C20GB C 0.4937(4) 0.8727(5) 0.6849(5)
C20YB C 0.6273(5) 0.8151(5) 0.4937(4)
C20BB C 0.8727(5) 0.8151(5) 1.0063(4)
C20Z C 0.8151(5) 1.0063(4) 0.8727(5)
C20DC C 1.0063(4) 0.8727(5) 0.8151(5)
C20GA C 0.4937(4) 0.6273(5) 0.8151(5)
C20D C 0.6273(5) 0.6849(5) 1.0063(4)
C20WB C 0.6849(5) 0.4937(4) 0.8727(5)
C20EA C 0.8727(5) 0.6849(5) 0.4937(4)
C20WA C 0.8151(5) 0.4937(4) 0.6273(5)
C20H C 1.0063(4) 0.6273(5) 0.6849(5)
H17GB H 0.4786 0.8933 0.6895
H17YB H 0.6067 0.8105 0.4786
H17BB H 0.8933 0.8105 1.0214
H17Z H 0.8105 1.0214 0.8933
H17DC H 1.0214 0.8933 0.8105
H17GA H 0.4786 0.6067 0.8105
H17D H 0.6067 0.6895 1.0214
H17WB H 0.6895 0.4786 0.8933
H17EA H 0.8933 0.6895 0.4786
H17WA H 0.8105 0.4786 0.6067
H17H H 1.0214 0.6067 0.6895
H18GB H 0.5046 0.8637 0.7066
H18YB H 0.6363 0.7934 0.5046
H18BB H 0.8637 0.7934 0.9954
H18Z H 0.7934 0.9954 0.8637
H18DC H 0.9954 0.8637 0.7934
H18GA H 0.5046 0.6363 0.7934
H18D H 0.6363 0.7066 0.9954
H18WB H 0.7066 0.5046 0.8637
H18EA H 0.8637 0.7066 0.5046
H18WA H 0.7934 0.5046 0.6363
H18H H 0.9954 0.6363 0.7066
C21GB C 0.4763(5) 0.8424(8) 0.6589(7)
C21YB C 0.6576(8) 0.8411(7) 0.4763(5)
C21BB C 0.8424(8) 0.8411(7) 1.0237(5)
C21Z C 0.8411(7) 1.0237(5) 0.8424(8)
C21DC C 1.0237(5) 0.8424(8) 0.8411(7)
C21GA C 0.4763(5) 0.6576(8) 0.8411(7)
C21D C 0.6576(8) 0.6589(7) 1.0237(5)
C21WB C 0.6589(7) 0.4763(5) 0.8424(8)
C21EA C 0.8424(8) 0.6589(7) 0.4763(5)
C21WA C 0.8411(7) 0.4763(5) 0.6576(8)
C21H C 1.0237(5) 0.6576(8) 0.6589(7)
H19GB H 0.4504 0.8407 0.6617
H19YB H 0.6593 0.8383 0.4504
H19BB H 0.8407 0.8383 1.0496
H19Z H 0.8383 1.0496 0.8407
H19DC H 1.0496 0.8407 0.8383
H19GA H 0.4504 0.6593 0.8383
H19D H 0.6593 0.6617 1.0496
H19WB H 0.6617 0.4504 0.8407
H19EA H 0.8407 0.6617 0.4504
H19WA H 0.8383 0.4504 0.6593
H19H H 1.0496 0.6593 0.6617
C22GB C 0.4936(4) 0.8095(6) 0.6651(6)
C22YB C 0.6905(6) 0.8349(6) 0.4936(4)
C22BB C 0.8095(6) 0.8349(6) 1.0064(4)
C22Z C 0.8349(6) 1.0064(4) 0.8095(6)
C22DC C 1.0064(4) 0.8095(6) 0.8349(6)
C22GA C 0.4936(4) 0.6905(6) 0.8349(6)
C22D C 0.6905(6) 0.6651(6) 1.0064(4)
C22WB C 0.6651(6) 0.4936(4) 0.8095(6)
C22EA C 0.8095(6) 0.6651(6) 0.4936(4)
C22WA C 0.8349(6) 0.4936(4) 0.6905(6)
C22H C 1.0064(4) 0.6905(6) 0.6651(6)
H20GB H 0.4851 0.7916 0.6485
H20YB H 0.7084 0.8515 0.4851
H20BB H 0.7916 0.8515 1.0149
H20Z H 0.8515 1.0149 0.7916
H20DC H 1.0149 0.7916 0.8515
H20GA H 0.4851 0.7084 0.8515
H20D H 0.7084 0.6485 1.0149
H20WB H 0.6485 0.4851 0.7916
H20EA H 0.7916 0.6485 0.4851
H20WA H 0.8515 0.4851 0.7084
H20H H 1.0149 0.7084 0.6485
H21GB H 0.4889 0.8012 0.6892
H21YB H 0.6988 0.8108 0.4889
H21BB H 0.8012 0.8108 1.0111
H21Z H 0.8108 1.0111 0.8012
H21DC H 1.0111 0.8012 0.8108
H21GA H 0.4889 0.6988 0.8108
H21D H 0.6988 0.6892 1.0111
H21WB H 0.6892 0.4889 0.8012
H21EA H 0.8012 0.6892 0.4889
H21WA H 0.8108 0.4889 0.6988
H21H H 1.0111 0.6988 0.6892
Cl1 Cl 0.7500 0.7500 0.7500
O1 O 0.7718(2) 0.7718(2) 0.7282(2)
O1D O 0.7282(2) 0.7718(2) 0.7718(2)
O1H O 0.7718(2) 0.7282(2) 0.7718(2)
O1GA O 0.7282(2) 0.7282(2) 0.7282(2)
Cl2 Cl 0.5712(3) 0.9288(3) 0.5712(3)
O2 O 0.5918(3) 0.9082(3) 0.5918(3)
O3 O 0.5582(7) 0.9158(7) 0.5401(6)
O3GB O 0.5842(7) 0.9599(6) 0.5582(7)
O3YB O 0.5401(6) 0.9418(7) 0.5842(7)
loop_
_geom_bond_atom_site_label_1
_geom_bond_atom_site_label_2
_geom_bond_site_symmetry_1
_geom_bond_site_symmetry_2
Zn1 N1 1_555 1_555
N1 C1 1_555 1_555
C1 C2 1_555 1_555
C2 H1 1_555 1_555
C3 C2 1_555 1_555
C4 C3 1_555 1_555
C5 N1 1_555 1_555
H2 C5 1_555 1_555
N2 Zn1 1_555 1_555
N3 N2 1_555 1_555
C6 N3 1_555 1_555
H3 C6 1_555 1_555
C7 C6 1_555 1_555
H4 C7 1_555 1_555
C8 C1 1_555 1_555
C9 N3 1_555 1_555
H5 C9 1_555 1_555
H6 C9 1_555 1_555
C10 C9 1_555 1_555
C11 C10 1_555 1_555
H7 C11 1_555 1_555
C12 C11 1_555 1_555
H8 C12 1_555 1_555
C13 C12 1_555 1_555
H9 C13 1_555 1_555
C14 C13 1_555 1_555
C15 C10 1_555 1_555
C16 H10 1_555 1_555
H11 C16 1_555 1_555
H12 C16 1_555 1_555
C17 C16 1_555 1_555
C18 C17 1_555 1_555
H13 C18 1_555 1_555
H14 C18 1_555 1_555
H15 C18 1_555 1_555
C19 C4 1_555 1_555
H16 C19 1_555 1_555
C20 C19 1_555 1_555
H17 C20 1_555 1_555
H18 C20 1_555 1_555
C21 C17 1_555 1_555
H19 C21 1_555 1_555
C22 C3 1_555 1_555
H20 C22 1_555 1_555
H21 C22 1_555 1_555
Cl1 O1 1_555 1_555
Cl2 O2 1_555 1_555
O3 Cl2 1_555 1_555
Zn1Z N1BB 1_555 1_555
Zn1D N1GA 1_555 1_555
Zn1H N1EA 1_555 1_555
N1GB Zn1 1_555 1_555
N1YB Zn1 1_555 1_555
N1BB C1BB 1_555 1_555
N1Z Zn1Z 1_555 1_555
N1DC Zn1Z 1_555 1_555
N1GA C1GA 1_555 1_555
N1D Zn1D 1_555 1_555
N1WB Zn1D 1_555 1_555
N1EA C1EA 1_555 1_555
N1WA Zn1H 1_555 1_555
N1H Zn1H 1_555 1_555
C1GB N1GB 1_555 1_555
C1YB N1YB 1_555 1_555
C1BB C2BB 1_555 1_555
C1Z N1Z 1_555 1_555
C1DC N1DC 1_555 1_555
C1GA C2GA 1_555 1_555
C1D N1D 1_555 1_555
C1WB N1WB 1_555 1_555
C1EA C2EA 1_555 1_555
C1WA N1WA 1_555 1_555
C1H N1H 1_555 1_555
C2GB C1GB 1_555 1_555
C2YB C1YB 1_555 1_555
C2BB H1BB 1_555 1_555
C2Z C1Z 1_555 1_555
C2DC C1DC 1_555 1_555
C2GA H1GA 1_555 1_555
C2D C1D 1_555 1_555
C2WB C1WB 1_555 1_555
C2EA H1EA 1_555 1_555
C2WA C1WA 1_555 1_555
C2H C1H 1_555 1_555
H1GB C2GB 1_555 1_555
H1YB C2YB 1_555 1_555
H1Z C2Z 1_555 1_555
H1DC C2DC 1_555 1_555
H1D C2D 1_555 1_555
H1WB C2WB 1_555 1_555
H1WA C2WA 1_555 1_555
H1H C2H 1_555 1_555
C3GB C2GB 1_555 1_555
C3YB C2YB 1_555 1_555
C3BB C2BB 1_555 1_555
C3Z C2Z 1_555 1_555
C3DC C2DC 1_555 1_555
C3GA C2GA 1_555 1_555
C3D C2D 1_555 1_555
C3WB C2WB 1_555 1_555
C3EA C2EA 1_555 1_555
C3WA C2WA 1_555 1_555
C3H C2H 1_555 1_555
C4GB C3GB 1_555 1_555
C4YB C3YB 1_555 1_555
C4BB C3BB 1_555 1_555
C4Z C3Z 1_555 1_555
C4DC C3DC 1_555 1_555
C4GA C3GA 1_555 1_555
C4D C3D 1_555 1_555
C4WB C3WB 1_555 1_555
C4EA C3EA 1_555 1_555
C4WA C3WA 1_555 1_555
C4H C3H 1_555 1_555
C5GB N1GB 1_555 1_555
C5YB N1YB 1_555 1_555
C5BB N1BB 1_555 1_555
C5Z N1Z 1_555 1_555
C5DC N1DC 1_555 1_555
C5GA N1GA 1_555 1_555
C5D N1D 1_555 1_555
C5WB N1WB 1_555 1_555
C5EA N1EA 1_555 1_555
C5WA N1WA 1_555 1_555
C5H N1H 1_555 1_555
H2GB C5GB 1_555 1_555
H2YB C5YB 1_555 1_555
H2BB C5BB 1_555 1_555
H2Z C5Z 1_555 1_555
H2DC C5DC 1_555 1_555
H2GA C5GA 1_555 1_555
H2D C5D 1_555 1_555
H2WB C5WB 1_555 1_555
H2EA C5EA 1_555 1_555
H2WA C5WA 1_555 1_555
H2H C5H 1_555 1_555
N2GB Zn1 1_555 1_555
N2YB Zn1 1_555 1_555
N2BB Zn1Z 1_555 1_555
N2Z Zn1Z 1_555 1_555
N2DC Zn1Z 1_555 1_555
N2GA Zn1D 1_555 1_555
N2D Zn1D 1_555 1_555
N2WB Zn1D 1_555 1_555
N2EA Zn1H 1_555 1_555
N2WA Zn1H 1_555 1_555
N2H Zn1H 1_555 1_555
N3YB N2YB 1_555 1_555
N3BB N2BB 1_555 1_555
N3DC N2DC 1_555 1_555
N3GA N2GA 1_555 1_555
N3WB N2WB 1_555 1_555
N3D N2D 1_555 1_555
N3EA N2EA 1_555 1_555
N3H N2H 1_555 1_555
N3GB N2GB 1_555 1_555
N3WA N2WA 1_555 1_555
N3Z N2Z 1_555 1_555
C6YB N3YB 1_555 1_555
C6BB N3BB 1_555 1_555
C6DC N3DC 1_555 1_555
C6GA N3GA 1_555 1_555
C6WB N3WB 1_555 1_555
C6D N3D 1_555 1_555
C6EA N3EA 1_555 1_555
C6H N3H 1_555 1_555
C6GB N3GB 1_555 1_555
C6WA N3WA 1_555 1_555
C6Z N3Z 1_555 1_555
H3YB C6YB 1_555 1_555
H3BB C6BB 1_555 1_555
H3DC C6DC 1_555 1_555
H3GA C6GA 1_555 1_555
H3WB C6WB 1_555 1_555
H3D C6D 1_555 1_555
H3EA C6EA 1_555 1_555
H3H C6H 1_555 1_555
H3GB C6GB 1_555 1_555
H3WA C6WA 1_555 1_555
H3Z C6Z 1_555 1_555
C7YB C6YB 1_555 1_555
C7BB C6BB 1_555 1_555
C7DC C6DC 1_555 1_555
C7GA C6GA 1_555 1_555
C7WB C6WB 1_555 1_555
C7D C6D 1_555 1_555
C7EA C6EA 1_555 1_555
C7H C6H 1_555 1_555
C7GB C6GB 1_555 1_555
C7WA C6WA 1_555 1_555
C7Z C6Z 1_555 1_555
H4YB C7YB 1_555 1_555
H4BB C7BB 1_555 1_555
H4DC C7DC 1_555 1_555
H4GA C7GA 1_555 1_555
H4WB C7WB 1_555 1_555
H4D C7D 1_555 1_555
H4EA C7EA 1_555 1_555
H4H C7H 1_555 1_555
H4GB C7GB 1_555 1_555
H4WA C7WA 1_555 1_555
H4Z C7Z 1_555 1_555
C8GB C1GB 1_555 1_555
C8YB C1YB 1_555 1_555
C8BB C1BB 1_555 1_555
C8Z C1Z 1_555 1_555
C8DC C1DC 1_555 1_555
C8GA C1GA 1_555 1_555
C8D C1D 1_555 1_555
C8WB C1WB 1_555 1_555
C8EA C1EA 1_555 1_555
C8WA C1WA 1_555 1_555
C8H C1H 1_555 1_555
C9YB N3YB 1_555 1_555
C9BB N3BB 1_555 1_555
C9DC N3DC 1_555 1_555
C9GA N3GA 1_555 1_555
C9WB N3WB 1_555 1_555
C9D N3D 1_555 1_555
C9EA N3EA 1_555 1_555
C9H N3H 1_555 1_555
C9GB N3GB 1_555 1_555
C9WA N3WA 1_555 1_555
C9Z N3Z 1_555 1_555
H5YB C9YB 1_555 1_555
H5DC C9DC 1_555 1_555
H5WB C9WB 1_555 1_555
H5D C9D 1_555 1_555
H5H C9H 1_555 1_555
H5GB C9GB 1_555 1_555
H5WA C9WA 1_555 1_555
H5Z C9Z 1_555 1_555
H5EA C9EA 1_555 1_555
H5GA C9GA 1_555 1_555
H5BB C9BB 1_555 1_555
H6YB C9YB 1_555 1_555
H6DC C9DC 1_555 1_555
H6WB C9WB 1_555 1_555
H6D C9D 1_555 1_555
H6H C9H 1_555 1_555
H6GB C9GB 1_555 1_555
H6WA C9WA 1_555 1_555
H6Z C9Z 1_555 1_555
H6EA C9EA 1_555 1_555
H6GA C9GA 1_555 1_555
H6BB C9BB 1_555 1_555
C10YB C9YB 1_555 1_555
C10BB C9BB 1_555 1_555
C10DC C9DC 1_555 1_555
C10GA C9GA 1_555 1_555
C10WB C15 1_555 1_555
C10D C9D 1_555 1_555
C10EA C9EA 1_555 1_555
C10H C9H 1_555 1_555
C10GB C9GB 1_555 1_555
C10WA C9WA 1_555 1_555
C10Z C9Z 1_555 1_555
C11YB C10YB 1_555 1_555
C11BB C10BB 1_555 1_555
C11DC C10DC 1_555 1_555
C11GA C10GA 1_555 1_555
C11WB C10WB 1_555 1_555
C11D C10D 1_555 1_555
C11EA C10EA 1_555 1_555
C11H C10H 1_555 1_555
C11GB C10GB 1_555 1_555
C11WA C10WA 1_555 1_555
C11Z C10Z 1_555 1_555
H7YB C11YB 1_555 1_555
H7DC C11DC 1_555 1_555
H7WB C11WB 1_555 1_555
H7D C11D 1_555 1_555
H7H C11H 1_555 1_555
H7GB C11GB 1_555 1_555
H7WA C11WA 1_555 1_555
H7Z C11Z 1_555 1_555
H7EA C11EA 1_555 1_555
H7GA C11GA 1_555 1_555
H7BB C11BB 1_555 1_555
C12YB C11YB 1_555 1_555
C12BB C11BB 1_555 1_555
C12DC C11DC 1_555 1_555
C12GA C11GA 1_555 1_555
C12WB C11WB 1_555 1_555
C12D C11D 1_555 1_555
C12EA C11EA 1_555 1_555
C12H C11H 1_555 1_555
C12GB C11GB 1_555 1_555
C12WA C11WA 1_555 1_555
C12Z C11Z 1_555 1_555
H8YB C12YB 1_555 1_555
H8DC C12DC 1_555 1_555
H8WB C12WB 1_555 1_555
H8D C12D 1_555 1_555
H8H C12H 1_555 1_555
H8GB C12GB 1_555 1_555
H8WA C12WA 1_555 1_555
H8Z C12Z 1_555 1_555
H8EA C12EA 1_555 1_555
H8GA C12GA 1_555 1_555
H8BB C12BB 1_555 1_555
C13YB C12YB 1_555 1_555
C13BB C12BB 1_555 1_555
C13DC C12DC 1_555 1_555
C13GA C12GA 1_555 1_555
C13WB C14 1_555 1_555
C13D C12D 1_555 1_555
C13EA C12EA 1_555 1_555
C13H C12H 1_555 1_555
C13GB C12GB 1_555 1_555
C13WA C12WA 1_555 1_555
C13Z C12Z 1_555 1_555
H9YB C13YB 1_555 1_555
H9DC C13DC 1_555 1_555
H9WB C13WB 1_555 1_555
H9D C13D 1_555 1_555
H9H C13H 1_555 1_555
H9GB C13GB 1_555 1_555
H9WA C13WA 1_555 1_555
H9Z C13Z 1_555 1_555
H9EA C13EA 1_555 1_555
H9GA C13GA 1_555 1_555
H9BB C13BB 1_555 1_555
C14BB C13YB 1_555 1_555
C14GA C13DC 1_555 1_555
C14D C13D 1_555 1_555
C14H C13H 1_555 1_555
C14Z C13WA 1_555 1_555
C15H C10H 1_555 1_555
C15Z C10WA 1_555 1_555
C15D C10D 1_555 1_555
C15GA C10DC 1_555 1_555
C15BB C10YB 1_555 1_555
C16GB H10GB 1_555 1_555
C16YB H10YB 1_555 1_555
C16BB H10BB 1_555 1_555
C16Z H10Z 1_555 1_555
C16DC H10DC 1_555 1_555
C16GA H10GA 1_555 1_555
C16D H10D 1_555 1_555
C16WB H10WB 1_555 1_555
C16EA H10EA 1_555 1_555
C16WA H10WA 1_555 1_555
C16H H10H 1_555 1_555
H11GB C16GB 1_555 1_555
H11YB C16YB 1_555 1_555
H11BB C16BB 1_555 1_555
H11Z C16Z 1_555 1_555
H11DC C16DC 1_555 1_555
H11GA C16GA 1_555 1_555
H11D C16D 1_555 1_555
H11WB C16WB 1_555 1_555
H11EA C16EA 1_555 1_555
H11WA C16WA 1_555 1_555
H11H C16H 1_555 1_555
H12GB C16GB 1_555 1_555
H12YB C16YB 1_555 1_555
H12BB C16BB 1_555 1_555
H12Z C16Z 1_555 1_555
H12DC C16DC 1_555 1_555
H12GA C16GA 1_555 1_555
H12D C16D 1_555 1_555
H12WB C16WB 1_555 1_555
H12EA C16EA 1_555 1_555
H12WA C16WA 1_555 1_555
H12H C16H 1_555 1_555
C17GB C16GB 1_555 1_555
C17YB C16YB 1_555 1_555
C17BB C16BB 1_555 1_555
C17Z C16Z 1_555 1_555
C17DC C16DC 1_555 1_555
C17GA C16GA 1_555 1_555
C17D C16D 1_555 1_555
C17WB C16WB 1_555 1_555
C17EA C16EA 1_555 1_555
C17WA C16WA 1_555 1_555
C17H C16H 1_555 1_555
C18GB C17GB 1_555 1_555
C18YB C17YB 1_555 1_555
C18BB C17BB 1_555 1_555
C18Z C17Z 1_555 1_555
C18DC C17DC 1_555 1_555
C18GA C17GA 1_555 1_555
C18D C17D 1_555 1_555
C18WB C17WB 1_555 1_555
C18EA C17EA 1_555 1_555
C18WA C17WA 1_555 1_555
C18H C17H 1_555 1_555
H13GB C18GB 1_555 1_555
H13YB C18YB 1_555 1_555
H13BB C18BB 1_555 1_555
H13Z C18Z 1_555 1_555
H13DC C18DC 1_555 1_555
H13GA C18GA 1_555 1_555
H13D C18D 1_555 1_555
H13WB C18WB 1_555 1_555
H13EA C18EA 1_555 1_555
H13WA C18WA 1_555 1_555
H13H C18H 1_555 1_555
H14GB C18GB 1_555 1_555
H14YB C18YB 1_555 1_555
H14BB C18BB 1_555 1_555
H14Z C18Z 1_555 1_555
H14DC C18DC 1_555 1_555
H14GA C18GA 1_555 1_555
H14D C18D 1_555 1_555
H14WB C18WB 1_555 1_555
H14EA C18EA 1_555 1_555
H14WA C18WA 1_555 1_555
H14H C18H 1_555 1_555
H15GB C18GB 1_555 1_555
H15YB C18YB 1_555 1_555
H15BB C18BB 1_555 1_555
H15Z C18Z 1_555 1_555
H15DC C18DC 1_555 1_555
H15GA C18GA 1_555 1_555
H15D C18D 1_555 1_555
H15WB C18WB 1_555 1_555
H15EA C18EA 1_555 1_555
H15WA C18WA 1_555 1_555
H15H C18H 1_555 1_555
C19GB C4GB 1_555 1_555
C19YB C4YB 1_555 1_555
C19BB C4BB 1_555 1_555
C19Z C4Z 1_555 1_555
C19DC C4DC 1_555 1_555
C19GA C4GA 1_555 1_555
C19D C4D 1_555 1_555
C19WB C4WB 1_555 1_555
C19EA C4EA 1_555 1_555
C19WA C4WA 1_555 1_555
C19H C4H 1_555 1_555
H16GB C19GB 1_555 1_555
H16YB C19YB 1_555 1_555
H16BB C19BB 1_555 1_555
H16Z C19Z 1_555 1_555
H16DC C19DC 1_555 1_555
H16GA C19GA 1_555 1_555
H16D C19D 1_555 1_555
H16WB C19WB 1_555 1_555
H16EA C19EA 1_555 1_555
H16WA C19WA 1_555 1_555
H16H C19H 1_555 1_555
C20GB C19GB 1_555 1_555
C20YB C19YB 1_555 1_555
C20BB C19BB 1_555 1_555
C20Z C19Z 1_555 1_555
C20DC C19DC 1_555 1_555
C20GA C19GA 1_555 1_555
C20D C19D 1_555 1_555
C20WB C19WB 1_555 1_555
C20EA C19EA 1_555 1_555
C20WA C19WA 1_555 1_555
C20H C19H 1_555 1_555
H17GB C20GB 1_555 1_555
H17YB C20YB 1_555 1_555
H17BB C20BB 1_555 1_555
H17Z C20Z 1_555 1_555
H17DC C20DC 1_555 1_555
H17GA C20GA 1_555 1_555
H17D C20D 1_555 1_555
H17WB C20WB 1_555 1_555
H17EA C20EA 1_555 1_555
H17WA C20WA 1_555 1_555
H17H C20H 1_555 1_555
H18GB C20GB 1_555 1_555
H18YB C20YB 1_555 1_555
H18BB C20BB 1_555 1_555
H18Z C20Z 1_555 1_555
H18DC C20DC 1_555 1_555
H18GA C20GA 1_555 1_555
H18D C20D 1_555 1_555
H18WB C20WB 1_555 1_555
H18EA C20EA 1_555 1_555
H18WA C20WA 1_555 1_555
H18H C20H 1_555 1_555
C21GB C17GB 1_555 1_555
C21YB C17YB 1_555 1_555
C21BB C17BB 1_555 1_555
C21Z C17Z 1_555 1_555
C21DC C17DC 1_555 1_555
C21GA C17GA 1_555 1_555
C21D C17D 1_555 1_555
C21WB C17WB 1_555 1_555
C21EA C17EA 1_555 1_555
C21WA C17WA 1_555 1_555
C21H C17H 1_555 1_555
H19GB C21GB 1_555 1_555
H19YB C21YB 1_555 1_555
H19BB C21BB 1_555 1_555
H19Z C21Z 1_555 1_555
H19DC C21DC 1_555 1_555
H19GA C21GA 1_555 1_555
H19D C21D 1_555 1_555
H19WB C21WB 1_555 1_555
H19EA C21EA 1_555 1_555
H19WA C21WA 1_555 1_555
H19H C21H 1_555 1_555
C22GB C3GB 1_555 1_555
C22YB C3YB 1_555 1_555
C22BB C3BB 1_555 1_555
C22Z C3Z 1_555 1_555
C22DC C3DC 1_555 1_555
C22GA C3GA 1_555 1_555
C22D C3D 1_555 1_555
C22WB C3WB 1_555 1_555
C22EA C3EA 1_555 1_555
C22WA C3WA 1_555 1_555
C22H C3H 1_555 1_555
H20GB C22GB 1_555 1_555
H20YB C22YB 1_555 1_555
H20BB C22BB 1_555 1_555
H20Z C22Z 1_555 1_555
H20DC C22DC 1_555 1_555
H20GA C22GA 1_555 1_555
H20D C22D 1_555 1_555
H20WB C22WB 1_555 1_555
H20EA C22EA 1_555 1_555
H20WA C22WA 1_555 1_555
H20H C22H 1_555 1_555
H21GB C22GB 1_555 1_555
H21YB C22YB 1_555 1_555
H21BB C22BB 1_555 1_555
H21Z C22Z 1_555 1_555
H21DC C22DC 1_555 1_555
H21GA C22GA 1_555 1_555
H21D C22D 1_555 1_555
H21WB C22WB 1_555 1_555
H21EA C22EA 1_555 1_555
H21WA C22WA 1_555 1_555
H21H C22H 1_555 1_555
O1D Cl1 1_555 1_555
O1H Cl1 1_555 1_555
O1GA Cl1 1_555 1_555
O3GB Cl2 1_555 1_555
O3YB Cl2 1_555 1_555
C4 C5 1_555 1_555
N2 C8 1_555 1_555
C7 C8 1_555 1_555
C14 C15 1_555 1_555
C17 C19 1_555 1_555
C20 C21 1_555 1_555
C21 C22 1_555 1_555
C4GB C5GB 1_555 1_555
C4YB C5YB 1_555 1_555
C4BB C5BB 1_555 1_555
C4Z C5Z 1_555 1_555
C4DC C5DC 1_555 1_555
C4GA C5GA 1_555 1_555
C4D C5D 1_555 1_555
C4WB C5WB 1_555 1_555
C4EA C5EA 1_555 1_555
C4WA C5WA 1_555 1_555
C4H C5H 1_555 1_555
N2GB C8GB 1_555 1_555
N2YB C8YB 1_555 1_555
N2BB C8BB 1_555 1_555
N2Z C8Z 1_555 1_555
N2DC C8DC 1_555 1_555
N2GA C8GA 1_555 1_555
N2D C8D 1_555 1_555
N2WB C8WB 1_555 1_555
N2EA C8EA 1_555 1_555
N2WA C8WA 1_555 1_555
N2H C8H 1_555 1_555
C7YB C8YB 1_555 1_555
C7BB C8BB 1_555 1_555
C7DC C8DC 1_555 1_555
C7GA C8GA 1_555 1_555
C7WB C8WB 1_555 1_555
C7D C8D 1_555 1_555
C7EA C8EA 1_555 1_555
C7H C8H 1_555 1_555
C7GB C8GB 1_555 1_555
C7WA C8WA 1_555 1_555
C7Z C8Z 1_555 1_555
C9WB C10WB 1_555 1_555
C10BB C15BB 1_555 1_555
C10GA C15GA 1_555 1_555
C10EA C15D 1_555 1_555
C10GB C15H 1_555 1_555
C10Z C15Z 1_555 1_555
C12WB C13WB 1_555 1_555
C13BB C14BB 1_555 1_555
C13GA C14GA 1_555 1_555
C13EA C14D 1_555 1_555
C13GB C14H 1_555 1_555
C13Z C14Z 1_555 1_555
C14BB C15BB 1_555 1_555
C14GA C15GA 1_555 1_555
C14D C15D 1_555 1_555
C14H C15H 1_555 1_555
C14Z C15Z 1_555 1_555
C17GB C19GB 1_555 1_555
C17YB C19YB 1_555 1_555
C17BB C19BB 1_555 1_555
C17Z C19Z 1_555 1_555
C17DC C19DC 1_555 1_555
C17GA C19GA 1_555 1_555
C17D C19D 1_555 1_555
C17WB C19WB 1_555 1_555
C17EA C19EA 1_555 1_555
C17WA C19WA 1_555 1_555
C17H C19H 1_555 1_555
C20GB C21GB 1_555 1_555
C20YB C21YB 1_555 1_555
C20BB C21BB 1_555 1_555
C20Z C21Z 1_555 1_555
C20DC C21DC 1_555 1_555
C20GA C21GA 1_555 1_555
C20D C21D 1_555 1_555
C20WB C21WB 1_555 1_555
C20EA C21EA 1_555 1_555
C20WA C21WA 1_555 1_555
C20H C21H 1_555 1_555
C21GB C22GB 1_555 1_555
C21YB C22YB 1_555 1_555
C21BB C22BB 1_555 1_555
C21Z C22Z 1_555 1_555
C21DC C22DC 1_555 1_555
C21GA C22GA 1_555 1_555
C21D C22D 1_555 1_555
C21WB C22WB 1_555 1_555
C21EA C22EA 1_555 1_555
C21WA C22WA 1_555 1_555
C21H C22H 1_555 1_555

#END
