# generated using pymatgen
data_Zn4H252C252N36(ClO4)5
_symmetry_space_group_name_H-M   'P 1'
_cell_length_a   27.03834910
_cell_length_b   27.03834910
_cell_length_c   27.03834910
_cell_angle_alpha   60.00000000
_cell_angle_beta   60.00000000
_cell_angle_gamma   60.00000000
_symmetry_Int_Tables_number   1
_chemical_formula_structural   Zn4H252C252N36(ClO4)5
_chemical_formula_sum   'Zn8 H504 C504 N72 Cl10 O40'
_cell_volume   13977.37172432
_cell_formula_units_Z   2
loop_
 _symmetry_equiv_pos_site_id
 _symmetry_equiv_pos_as_xyz
  1  'x, y, z'
loop_
 _atom_site_type_symbol
 _atom_site_label
 _atom_site_symmetry_multiplicity
 _atom_site_fract_x
 _atom_site_fract_y
 _atom_site_fract_z
 _atom_site_occupancy
  C  C1  1  0.448100  0.448100  0.051900  1.0
  C  C2  1  0.051900  0.051900  0.448100  1.0
  C  C3  1  0.448100  0.051900  0.448100  1.0
  C  C4  1  0.051900  0.448100  0.051900  1.0
  C  C5  1  0.051900  0.448100  0.448100  1.0
  C  C6  1  0.448100  0.051900  0.051900  1.0
  C  C7  1  0.698100  0.301900  0.698100  1.0
  C  C8  1  0.301900  0.698100  0.301900  1.0
  C  C9  1  0.698100  0.698100  0.301900  1.0
  C  C10  1  0.301900  0.301900  0.698100  1.0
  C  C11  1  0.698100  0.301900  0.301900  1.0
  C  C12  1  0.301900  0.698100  0.698100  1.0
  C  C13  1  0.410100  0.410100  0.089900  1.0
  C  C14  1  0.089900  0.089900  0.410100  1.0
  C  C15  1  0.410100  0.089900  0.410100  1.0
  C  C16  1  0.089900  0.410100  0.089900  1.0
  C  C17  1  0.089900  0.410100  0.410100  1.0
  C  C18  1  0.410100  0.089900  0.089900  1.0
  C  C19  1  0.660100  0.339900  0.660100  1.0
  C  C20  1  0.339900  0.660100  0.339900  1.0
  C  C21  1  0.660100  0.660100  0.339900  1.0
  C  C22  1  0.339900  0.339900  0.660100  1.0
  C  C23  1  0.660100  0.339900  0.339900  1.0
  C  C24  1  0.339900  0.660100  0.660100  1.0
  C  C25  1  0.138000  0.543000  0.052600  1.0
  C  C26  1  0.266400  0.052600  0.543000  1.0
  C  C27  1  0.052600  0.266400  0.138000  1.0
  C  C28  1  0.543000  0.138000  0.266400  1.0
  C  C29  1  0.543000  0.052600  0.138000  1.0
  C  C30  1  0.052600  0.543000  0.266400  1.0
  C  C31  1  0.266400  0.138000  0.052600  1.0
  C  C32  1  0.138000  0.266400  0.543000  1.0
  C  C33  1  0.052600  0.138000  0.543000  1.0
  C  C34  1  0.543000  0.266400  0.052600  1.0
  C  C35  1  0.138000  0.052600  0.266400  1.0
  C  C36  1  0.266400  0.543000  0.138000  1.0
  C  C37  1  0.483600  0.207000  0.697400  1.0
  C  C38  1  0.612000  0.697400  0.207000  1.0
  C  C39  1  0.207000  0.483600  0.612000  1.0
  C  C40  1  0.697400  0.612000  0.483600  1.0
  C  C41  1  0.483600  0.697400  0.612000  1.0
  C  C42  1  0.612000  0.207000  0.483600  1.0
  C  C43  1  0.207000  0.612000  0.697400  1.0
  C  C44  1  0.697400  0.483600  0.207000  1.0
  C  C45  1  0.483600  0.612000  0.207000  1.0
  C  C46  1  0.612000  0.483600  0.697400  1.0
  C  C47  1  0.207000  0.697400  0.483600  1.0
  C  C48  1  0.697400  0.207000  0.612000  1.0
  C  C49  1  0.108400  0.568600  0.012800  1.0
  C  C50  1  0.310200  0.012800  0.568600  1.0
  C  C51  1  0.012800  0.310200  0.108400  1.0
  C  C52  1  0.568600  0.108400  0.310200  1.0
  C  C53  1  0.568600  0.012800  0.108400  1.0
  C  C54  1  0.012800  0.568600  0.310200  1.0
  C  C55  1  0.310200  0.108400  0.012800  1.0
  C  C56  1  0.108400  0.310200  0.568600  1.0
  C  C57  1  0.012800  0.108400  0.568600  1.0
  C  C58  1  0.568600  0.310200  0.012800  1.0
  C  C59  1  0.108400  0.012800  0.310200  1.0
  C  C60  1  0.310200  0.568600  0.108400  1.0
  C  C61  1  0.439800  0.181400  0.737200  1.0
  C  C62  1  0.641600  0.737200  0.181400  1.0
  C  C63  1  0.181400  0.439800  0.641600  1.0
  C  C64  1  0.737200  0.641600  0.439800  1.0
  C  C65  1  0.439800  0.737200  0.641600  1.0
  C  C66  1  0.641600  0.181400  0.439800  1.0
  C  C67  1  0.181400  0.641600  0.737200  1.0
  C  C68  1  0.737200  0.439800  0.181400  1.0
  C  C69  1  0.439800  0.641600  0.181400  1.0
  C  C70  1  0.641600  0.439800  0.737200  1.0
  C  C71  1  0.181400  0.737200  0.439800  1.0
  C  C72  1  0.737200  0.181400  0.641600  1.0
  C  C73  1  0.059100  0.621700  0.010500  1.0
  C  C74  1  0.308700  0.010500  0.621700  1.0
  C  C75  1  0.010500  0.308700  0.059100  1.0
  C  C76  1  0.621700  0.059100  0.308700  1.0
  C  C77  1  0.621700  0.010500  0.059100  1.0
  C  C78  1  0.010500  0.621700  0.308700  1.0
  C  C79  1  0.308700  0.059100  0.010500  1.0
  C  C80  1  0.059100  0.308700  0.621700  1.0
  C  C81  1  0.010500  0.059100  0.621700  1.0
  C  C82  1  0.621700  0.308700  0.010500  1.0
  C  C83  1  0.059100  0.010500  0.308700  1.0
  C  C84  1  0.308700  0.621700  0.059100  1.0
  C  C85  1  0.441300  0.128300  0.739500  1.0
  C  C86  1  0.690900  0.739500  0.128300  1.0
  C  C87  1  0.128300  0.441300  0.690900  1.0
  C  C88  1  0.739500  0.690900  0.441300  1.0
  C  C89  1  0.441300  0.739500  0.690900  1.0
  C  C90  1  0.690900  0.128300  0.441300  1.0
  C  C91  1  0.128300  0.690900  0.739500  1.0
  C  C92  1  0.739500  0.441300  0.128300  1.0
  C  C93  1  0.441300  0.690900  0.128300  1.0
  C  C94  1  0.690900  0.441300  0.739500  1.0
  C  C95  1  0.128300  0.739500  0.441300  1.0
  C  C96  1  0.739500  0.128300  0.690900  1.0
  C  C97  1  0.040200  0.648400  0.053600  1.0
  C  C98  1  0.257800  0.053600  0.648400  1.0
  C  C99  1  0.053600  0.257800  0.040200  1.0
  C  C100  1  0.648400  0.040200  0.257800  1.0
  C  C101  1  0.648400  0.053600  0.040200  1.0
  C  C102  1  0.053600  0.648400  0.257800  1.0
  C  C103  1  0.257800  0.040200  0.053600  1.0
  C  C104  1  0.040200  0.257800  0.648400  1.0
  C  C105  1  0.053600  0.040200  0.648400  1.0
  C  C106  1  0.648400  0.257800  0.053600  1.0
  C  C107  1  0.040200  0.053600  0.257800  1.0
  C  C108  1  0.257800  0.648400  0.040200  1.0
  C  C109  1  0.492200  0.101600  0.696400  1.0
  C  C110  1  0.709800  0.696400  0.101600  1.0
  C  C111  1  0.101600  0.492200  0.709800  1.0
  C  C112  1  0.696400  0.709800  0.492200  1.0
  C  C113  1  0.492200  0.696400  0.709800  1.0
  C  C114  1  0.709800  0.101600  0.492200  1.0
  C  C115  1  0.101600  0.709800  0.696400  1.0
  C  C116  1  0.696400  0.492200  0.101600  1.0
  C  C117  1  0.492200  0.709800  0.101600  1.0
  C  C118  1  0.709800  0.492200  0.696400  1.0
  C  C119  1  0.101600  0.696400  0.492200  1.0
  C  C120  1  0.696400  0.101600  0.709800  1.0
  C  C121  1  0.070700  0.619900  0.093500  1.0
  C  C122  1  0.215900  0.093500  0.619900  1.0
  C  C123  1  0.093500  0.215900  0.070700  1.0
  C  C124  1  0.619900  0.070700  0.215900  1.0
  C  C125  1  0.619900  0.093500  0.070700  1.0
  C  C126  1  0.093500  0.619900  0.215900  1.0
  C  C127  1  0.215900  0.070700  0.093500  1.0
  C  C128  1  0.070700  0.215900  0.619900  1.0
  C  C129  1  0.093500  0.070700  0.619900  1.0
  C  C130  1  0.619900  0.215900  0.093500  1.0
  C  C131  1  0.070700  0.093500  0.215900  1.0
  C  C132  1  0.215900  0.619900  0.070700  1.0
  C  C133  1  0.534100  0.130100  0.656500  1.0
  C  C134  1  0.679300  0.656500  0.130100  1.0
  C  C135  1  0.130100  0.534100  0.679300  1.0
  C  C136  1  0.656500  0.679300  0.534100  1.0
  C  C137  1  0.534100  0.656500  0.679300  1.0
  C  C138  1  0.679300  0.130100  0.534100  1.0
  C  C139  1  0.130100  0.679300  0.656500  1.0
  C  C140  1  0.656500  0.534100  0.130100  1.0
  C  C141  1  0.534100  0.679300  0.130100  1.0
  C  C142  1  0.679300  0.534100  0.656500  1.0
  C  C143  1  0.130100  0.656500  0.534100  1.0
  C  C144  1  0.656500  0.130100  0.679300  1.0
  C  C145  1  0.271400  0.415000  0.033200  1.0
  C  C146  1  0.280400  0.033200  0.415000  1.0
  C  C147  1  0.033200  0.280400  0.271400  1.0
  C  C148  1  0.415000  0.271400  0.280400  1.0
  C  C149  1  0.415000  0.033200  0.271400  1.0
  C  C150  1  0.033200  0.415000  0.280400  1.0
  C  C151  1  0.280400  0.271400  0.033200  1.0
  C  C152  1  0.271400  0.280400  0.415000  1.0
  C  C153  1  0.033200  0.271400  0.415000  1.0
  C  C154  1  0.415000  0.280400  0.033200  1.0
  C  C155  1  0.271400  0.033200  0.280400  1.0
  C  C156  1  0.280400  0.415000  0.271400  1.0
  C  C157  1  0.469600  0.335000  0.716800  1.0
  C  C158  1  0.478600  0.716800  0.335000  1.0
  C  C159  1  0.335000  0.469600  0.478600  1.0
  C  C160  1  0.716800  0.478600  0.469600  1.0
  C  C161  1  0.469600  0.716800  0.478600  1.0
  C  C162  1  0.478600  0.335000  0.469600  1.0
  C  C163  1  0.335000  0.478600  0.716800  1.0
  C  C164  1  0.716800  0.469600  0.335000  1.0
  C  C165  1  0.469600  0.478600  0.335000  1.0
  C  C166  1  0.478600  0.469600  0.716800  1.0
  C  C167  1  0.335000  0.716800  0.469600  1.0
  C  C168  1  0.716800  0.335000  0.478600  1.0
  C  C169  1  0.223500  0.458100  0.013700  1.0
  C  C170  1  0.304700  0.013700  0.458100  1.0
  C  C171  1  0.013700  0.304700  0.223500  1.0
  C  C172  1  0.458100  0.223500  0.304700  1.0
  C  C173  1  0.458100  0.013700  0.223500  1.0
  C  C174  1  0.013700  0.458100  0.304700  1.0
  C  C175  1  0.304700  0.223500  0.013700  1.0
  C  C176  1  0.223500  0.304700  0.458100  1.0
  C  C177  1  0.013700  0.223500  0.458100  1.0
  C  C178  1  0.458100  0.304700  0.013700  1.0
  C  C179  1  0.223500  0.013700  0.304700  1.0
  C  C180  1  0.304700  0.458100  0.223500  1.0
  C  C181  1  0.445300  0.291900  0.736300  1.0
  C  C182  1  0.526500  0.736300  0.291900  1.0
  C  C183  1  0.291900  0.445300  0.526500  1.0
  C  C184  1  0.736300  0.526500  0.445300  1.0
  C  C185  1  0.445300  0.736300  0.526500  1.0
  C  C186  1  0.526500  0.291900  0.445300  1.0
  C  C187  1  0.291900  0.526500  0.736300  1.0
  C  C188  1  0.736300  0.445300  0.291900  1.0
  C  C189  1  0.445300  0.526500  0.291900  1.0
  C  C190  1  0.526500  0.445300  0.736300  1.0
  C  C191  1  0.291900  0.736300  0.445300  1.0
  C  C192  1  0.736300  0.291900  0.526500  1.0
  C  C193  1  0.190200  0.490800  0.053600  1.0
  C  C194  1  0.265400  0.053600  0.490800  1.0
  C  C195  1  0.053600  0.265400  0.190200  1.0
  C  C196  1  0.490800  0.190200  0.265400  1.0
  C  C197  1  0.490800  0.053600  0.190200  1.0
  C  C198  1  0.053600  0.490800  0.265400  1.0
  C  C199  1  0.265400  0.190200  0.053600  1.0
  C  C200  1  0.190200  0.265400  0.490800  1.0
  C  C201  1  0.053600  0.190200  0.490800  1.0
  C  C202  1  0.490800  0.265400  0.053600  1.0
  C  C203  1  0.190200  0.053600  0.265400  1.0
  C  C204  1  0.265400  0.490800  0.190200  1.0
  C  C205  1  0.484600  0.259200  0.696400  1.0
  C  C206  1  0.559800  0.696400  0.259200  1.0
  C  C207  1  0.259200  0.484600  0.559800  1.0
  C  C208  1  0.696400  0.559800  0.484600  1.0
  C  C209  1  0.484600  0.696400  0.559800  1.0
  C  C210  1  0.559800  0.259200  0.484600  1.0
  C  C211  1  0.259200  0.559800  0.696400  1.0
  C  C212  1  0.696400  0.484600  0.259200  1.0
  C  C213  1  0.484600  0.559800  0.259200  1.0
  C  C214  1  0.559800  0.484600  0.696400  1.0
  C  C215  1  0.259200  0.696400  0.484600  1.0
  C  C216  1  0.696400  0.259200  0.559800  1.0
  C  C217  1  0.312100  0.393700  0.111700  1.0
  C  C218  1  0.182500  0.111700  0.393700  1.0
  C  C219  1  0.111700  0.182500  0.312100  1.0
  C  C220  1  0.393700  0.312100  0.182500  1.0
  C  C221  1  0.393700  0.111700  0.312100  1.0
  C  C222  1  0.111700  0.393700  0.182500  1.0
  C  C223  1  0.182500  0.312100  0.111700  1.0
  C  C224  1  0.312100  0.182500  0.393700  1.0
  C  C225  1  0.111700  0.312100  0.393700  1.0
  C  C226  1  0.393700  0.182500  0.111700  1.0
  C  C227  1  0.312100  0.111700  0.182500  1.0
  C  C228  1  0.182500  0.393700  0.312100  1.0
  C  C229  1  0.567500  0.356300  0.638300  1.0
  C  C230  1  0.437900  0.638300  0.356300  1.0
  C  C231  1  0.356300  0.567500  0.437900  1.0
  C  C232  1  0.638300  0.437900  0.567500  1.0
  C  C233  1  0.567500  0.638300  0.437900  1.0
  C  C234  1  0.437900  0.356300  0.567500  1.0
  C  C235  1  0.356300  0.437900  0.638300  1.0
  C  C236  1  0.638300  0.567500  0.356300  1.0
  C  C237  1  0.567500  0.437900  0.356300  1.0
  C  C238  1  0.437900  0.567500  0.638300  1.0
  C  C239  1  0.356300  0.638300  0.567500  1.0
  C  C240  1  0.638300  0.356300  0.437900  1.0
  C  C241  1  0.359800  0.428000  0.073600  1.0
  C  C242  1  0.138600  0.073600  0.428000  1.0
  C  C243  1  0.073600  0.138600  0.359800  1.0
  C  C244  1  0.428000  0.359800  0.138600  1.0
  C  C245  1  0.428000  0.073600  0.359800  1.0
  C  C246  1  0.073600  0.428000  0.138600  1.0
  C  C247  1  0.138600  0.359800  0.073600  1.0
  C  C248  1  0.359800  0.138600  0.428000  1.0
  C  C249  1  0.073600  0.359800  0.428000  1.0
  C  C250  1  0.428000  0.138600  0.073600  1.0
  C  C251  1  0.359800  0.073600  0.138600  1.0
  C  C252  1  0.138600  0.428000  0.359800  1.0
  C  C253  1  0.611400  0.322000  0.676400  1.0
  C  C254  1  0.390200  0.676400  0.322000  1.0
  C  C255  1  0.322000  0.611400  0.390200  1.0
  C  C256  1  0.676400  0.390200  0.611400  1.0
  C  C257  1  0.611400  0.676400  0.390200  1.0
  C  C258  1  0.390200  0.322000  0.611400  1.0
  C  C259  1  0.322000  0.390200  0.676400  1.0
  C  C260  1  0.676400  0.611400  0.322000  1.0
  C  C261  1  0.611400  0.390200  0.322000  1.0
  C  C262  1  0.390200  0.611400  0.676400  1.0
  C  C263  1  0.322000  0.676400  0.611400  1.0
  C  C264  1  0.676400  0.322000  0.390200  1.0
  C  C265  1  0.348500  0.476700  0.025700  1.0
  C  C266  1  0.149100  0.025700  0.476700  1.0
  C  C267  1  0.025700  0.149100  0.348500  1.0
  C  C268  1  0.476700  0.348500  0.149100  1.0
  C  C269  1  0.476700  0.025700  0.348500  1.0
  C  C270  1  0.025700  0.476700  0.149100  1.0
  C  C271  1  0.149100  0.348500  0.025700  1.0
  C  C272  1  0.348500  0.149100  0.476700  1.0
  C  C273  1  0.025700  0.348500  0.476700  1.0
  C  C274  1  0.476700  0.149100  0.025700  1.0
  C  C275  1  0.348500  0.025700  0.149100  1.0
  C  C276  1  0.149100  0.476700  0.348500  1.0
  C  C277  1  0.600900  0.273300  0.724300  1.0
  C  C278  1  0.401500  0.724300  0.273300  1.0
  C  C279  1  0.273300  0.600900  0.401500  1.0
  C  C280  1  0.724300  0.401500  0.600900  1.0
  C  C281  1  0.600900  0.724300  0.401500  1.0
  C  C282  1  0.401500  0.273300  0.600900  1.0
  C  C283  1  0.273300  0.401500  0.724300  1.0
  C  C284  1  0.724300  0.600900  0.273300  1.0
  C  C285  1  0.600900  0.401500  0.273300  1.0
  C  C286  1  0.401500  0.600900  0.724300  1.0
  C  C287  1  0.273300  0.724300  0.600900  1.0
  C  C288  1  0.724300  0.273300  0.401500  1.0
  C  C289  1  0.388300  0.512900  0.985700  1.0
  C  C290  1  0.113100  0.985700  0.512900  1.0
  C  C291  1  0.985700  0.113100  0.388300  1.0
  C  C292  1  0.512900  0.388300  0.113100  1.0
  C  C293  1  0.512900  0.985700  0.388300  1.0
  C  C294  1  0.985700  0.512900  0.113100  1.0
  C  C295  1  0.113100  0.388300  0.985700  1.0
  C  C296  1  0.388300  0.113100  0.512900  1.0
  C  C297  1  0.985700  0.388300  0.512900  1.0
  C  C298  1  0.512900  0.113100  0.985700  1.0
  C  C299  1  0.388300  0.985700  0.113100  1.0
  C  C300  1  0.113100  0.512900  0.388300  1.0
  C  C301  1  0.636900  0.237100  0.764300  1.0
  C  C302  1  0.361700  0.764300  0.237100  1.0
  C  C303  1  0.237100  0.636900  0.361700  1.0
  C  C304  1  0.764300  0.361700  0.636900  1.0
  C  C305  1  0.636900  0.764300  0.361700  1.0
  C  C306  1  0.361700  0.237100  0.636900  1.0
  C  C307  1  0.237100  0.361700  0.764300  1.0
  C  C308  1  0.764300  0.636900  0.237100  1.0
  C  C309  1  0.636900  0.361700  0.237100  1.0
  C  C310  1  0.361700  0.636900  0.764300  1.0
  C  C311  1  0.237100  0.764300  0.636900  1.0
  C  C312  1  0.764300  0.237100  0.361700  1.0
  C  C313  1  0.432300  0.497500  0.003500  1.0
  C  C314  1  0.066700  0.003500  0.497500  1.0
  C  C315  1  0.003500  0.066700  0.432300  1.0
  C  C316  1  0.497500  0.432300  0.066700  1.0
  C  C317  1  0.497500  0.003500  0.432300  1.0
  C  C318  1  0.003500  0.497500  0.066700  1.0
  C  C319  1  0.066700  0.432300  0.003500  1.0
  C  C320  1  0.432300  0.066700  0.497500  1.0
  C  C321  1  0.003500  0.432300  0.497500  1.0
  C  C322  1  0.497500  0.066700  0.003500  1.0
  C  C323  1  0.432300  0.003500  0.066700  1.0
  C  C324  1  0.066700  0.497500  0.432300  1.0
  C  C325  1  0.683300  0.252500  0.746500  1.0
  C  C326  1  0.317700  0.746500  0.252500  1.0
  C  C327  1  0.252500  0.683300  0.317700  1.0
  C  C328  1  0.746500  0.317700  0.683300  1.0
  C  C329  1  0.683300  0.746500  0.317700  1.0
  C  C330  1  0.317700  0.252500  0.683300  1.0
  C  C331  1  0.252500  0.317700  0.746500  1.0
  C  C332  1  0.746500  0.683300  0.252500  1.0
  C  C333  1  0.683300  0.317700  0.252500  1.0
  C  C334  1  0.317700  0.683300  0.746500  1.0
  C  C335  1  0.252500  0.746500  0.683300  1.0
  C  C336  1  0.746500  0.252500  0.317700  1.0
  C  C337  1  0.051300  0.752500  0.944900  1.0
  C  C338  1  0.251300  0.944900  0.752500  1.0
  C  C339  1  0.944900  0.251300  0.051300  1.0
  C  C340  1  0.752500  0.051300  0.251300  1.0
  C  C341  1  0.752500  0.944900  0.051300  1.0
  C  C342  1  0.944900  0.752500  0.251300  1.0
  C  C343  1  0.251300  0.051300  0.944900  1.0
  C  C344  1  0.051300  0.251300  0.752500  1.0
  C  C345  1  0.944900  0.051300  0.752500  1.0
  C  C346  1  0.752500  0.251300  0.944900  1.0
  C  C347  1  0.051300  0.944900  0.251300  1.0
  C  C348  1  0.251300  0.752500  0.051300  1.0
  C  C349  1  0.498700  0.997500  0.805100  1.0
  C  C350  1  0.698700  0.805100  0.997500  1.0
  C  C351  1  0.997500  0.498700  0.698700  1.0
  C  C352  1  0.805100  0.698700  0.498700  1.0
  C  C353  1  0.498700  0.805100  0.698700  1.0
  C  C354  1  0.698700  0.997500  0.498700  1.0
  C  C355  1  0.997500  0.698700  0.805100  1.0
  C  C356  1  0.805100  0.498700  0.997500  1.0
  C  C357  1  0.498700  0.698700  0.997500  1.0
  C  C358  1  0.698700  0.498700  0.805100  1.0
  C  C359  1  0.997500  0.805100  0.498700  1.0
  C  C360  1  0.805100  0.997500  0.698700  1.0
  C  C361  1  0.989000  0.751600  0.984400  1.0
  C  C362  1  0.275000  0.984400  0.751600  1.0
  C  C363  1  0.984400  0.275000  0.989000  1.0
  C  C364  1  0.751600  0.989000  0.275000  1.0
  C  C365  1  0.751600  0.984400  0.989000  1.0
  C  C366  1  0.984400  0.751600  0.275000  1.0
  C  C367  1  0.275000  0.989000  0.984400  1.0
  C  C368  1  0.989000  0.275000  0.751600  1.0
  C  C369  1  0.984400  0.989000  0.751600  1.0
  C  C370  1  0.751600  0.275000  0.984400  1.0
  C  C371  1  0.989000  0.984400  0.275000  1.0
  C  C372  1  0.275000  0.751600  0.989000  1.0
  C  C373  1  0.475000  0.998400  0.765600  1.0
  C  C374  1  0.761000  0.765600  0.998400  1.0
  C  C375  1  0.998400  0.475000  0.761000  1.0
  C  C376  1  0.765600  0.761000  0.475000  1.0
  C  C377  1  0.475000  0.765600  0.761000  1.0
  C  C378  1  0.761000  0.998400  0.475000  1.0
  C  C379  1  0.998400  0.761000  0.765600  1.0
  C  C380  1  0.765600  0.475000  0.998400  1.0
  C  C381  1  0.475000  0.761000  0.998400  1.0
  C  C382  1  0.761000  0.475000  0.765600  1.0
  C  C383  1  0.998400  0.765600  0.475000  1.0
  C  C384  1  0.765600  0.998400  0.761000  1.0
  C  C385  1  0.944300  0.813100  0.988700  1.0
  C  C386  1  0.253900  0.988700  0.813100  1.0
  C  C387  1  0.988700  0.253900  0.944300  1.0
  C  C388  1  0.813100  0.944300  0.253900  1.0
  C  C389  1  0.813100  0.988700  0.944300  1.0
  C  C390  1  0.988700  0.813100  0.253900  1.0
  C  C391  1  0.253900  0.944300  0.988700  1.0
  C  C392  1  0.944300  0.253900  0.813100  1.0
  C  C393  1  0.988700  0.944300  0.813100  1.0
  C  C394  1  0.813100  0.253900  0.988700  1.0
  C  C395  1  0.944300  0.988700  0.253900  1.0
  C  C396  1  0.253900  0.813100  0.944300  1.0
  C  C397  1  0.496100  0.936900  0.761300  1.0
  C  C398  1  0.805700  0.761300  0.936900  1.0
  C  C399  1  0.936900  0.496100  0.805700  1.0
  C  C400  1  0.761300  0.805700  0.496100  1.0
  C  C401  1  0.496100  0.761300  0.805700  1.0
  C  C402  1  0.805700  0.936900  0.496100  1.0
  C  C403  1  0.936900  0.805700  0.761300  1.0
  C  C404  1  0.761300  0.496100  0.936900  1.0
  C  C405  1  0.496100  0.805700  0.936900  1.0
  C  C406  1  0.805700  0.496100  0.761300  1.0
  C  C407  1  0.936900  0.761300  0.496100  1.0
  C  C408  1  0.761300  0.936900  0.805700  1.0
  C  C409  1  0.988300  0.704300  0.048100  1.0
  C  C410  1  0.259300  0.048100  0.704300  1.0
  C  C411  1  0.048100  0.259300  0.988300  1.0
  C  C412  1  0.704300  0.988300  0.259300  1.0
  C  C413  1  0.704300  0.048100  0.988300  1.0
  C  C414  1  0.048100  0.704300  0.259300  1.0
  C  C415  1  0.259300  0.988300  0.048100  1.0
  C  C416  1  0.988300  0.259300  0.704300  1.0
  C  C417  1  0.048100  0.988300  0.704300  1.0
  C  C418  1  0.704300  0.259300  0.048100  1.0
  C  C419  1  0.988300  0.048100  0.259300  1.0
  C  C420  1  0.259300  0.704300  0.988300  1.0
  C  C421  1  0.490700  0.045700  0.701900  1.0
  C  C422  1  0.761700  0.701900  0.045700  1.0
  C  C423  1  0.045700  0.490700  0.761700  1.0
  C  C424  1  0.701900  0.761700  0.490700  1.0
  C  C425  1  0.490700  0.701900  0.761700  1.0
  C  C426  1  0.761700  0.045700  0.490700  1.0
  C  C427  1  0.045700  0.761700  0.701900  1.0
  C  C428  1  0.701900  0.490700  0.045700  1.0
  C  C429  1  0.490700  0.761700  0.045700  1.0
  C  C430  1  0.761700  0.490700  0.701900  1.0
  C  C431  1  0.045700  0.701900  0.490700  1.0
  C  C432  1  0.701900  0.045700  0.761700  1.0
  C  C433  1  0.936100  0.694100  0.051300  1.0
  C  C434  1  0.318500  0.051300  0.694100  1.0
  C  C435  1  0.051300  0.318500  0.936100  1.0
  C  C436  1  0.694100  0.936100  0.318500  1.0
  C  C437  1  0.694100  0.051300  0.936100  1.0
  C  C438  1  0.051300  0.694100  0.318500  1.0
  C  C439  1  0.318500  0.936100  0.051300  1.0
  C  C440  1  0.936100  0.318500  0.694100  1.0
  C  C441  1  0.051300  0.936100  0.694100  1.0
  C  C442  1  0.694100  0.318500  0.051300  1.0
  C  C443  1  0.936100  0.051300  0.318500  1.0
  C  C444  1  0.318500  0.694100  0.936100  1.0
  C  C445  1  0.431500  0.055900  0.698700  1.0
  C  C446  1  0.813900  0.698700  0.055900  1.0
  C  C447  1  0.055900  0.431500  0.813900  1.0
  C  C448  1  0.698700  0.813900  0.431500  1.0
  C  C449  1  0.431500  0.698700  0.813900  1.0
  C  C450  1  0.813900  0.055900  0.431500  1.0
  C  C451  1  0.055900  0.813900  0.698700  1.0
  C  C452  1  0.698700  0.431500  0.055900  1.0
  C  C453  1  0.431500  0.813900  0.055900  1.0
  C  C454  1  0.813900  0.431500  0.698700  1.0
  C  C455  1  0.055900  0.698700  0.431500  1.0
  C  C456  1  0.698700  0.055900  0.813900  1.0
  C  C457  1  0.975000  0.707200  0.977600  1.0
  C  C458  1  0.340200  0.977600  0.707200  1.0
  C  C459  1  0.977600  0.340200  0.975000  1.0
  C  C460  1  0.707200  0.975000  0.340200  1.0
  C  C461  1  0.707200  0.977600  0.975000  1.0
  C  C462  1  0.977600  0.707200  0.340200  1.0
  C  C463  1  0.340200  0.975000  0.977600  1.0
  C  C464  1  0.975000  0.340200  0.707200  1.0
  C  C465  1  0.977600  0.975000  0.707200  1.0
  C  C466  1  0.707200  0.340200  0.977600  1.0
  C  C467  1  0.975000  0.977600  0.340200  1.0
  C  C468  1  0.340200  0.707200  0.975000  1.0
  C  C469  1  0.409800  0.042800  0.772400  1.0
  C  C470  1  0.775000  0.772400  0.042800  1.0
  C  C471  1  0.042800  0.409800  0.775000  1.0
  C  C472  1  0.772400  0.775000  0.409800  1.0
  C  C473  1  0.409800  0.772400  0.775000  1.0
  C  C474  1  0.775000  0.042800  0.409800  1.0
  C  C475  1  0.042800  0.775000  0.772400  1.0
  C  C476  1  0.772400  0.409800  0.042800  1.0
  C  C477  1  0.409800  0.775000  0.042800  1.0
  C  C478  1  0.775000  0.409800  0.772400  1.0
  C  C479  1  0.042800  0.772400  0.409800  1.0
  C  C480  1  0.772400  0.042800  0.775000  1.0
  C  C481  1  0.019000  0.650800  0.968200  1.0
  C  C482  1  0.362000  0.968200  0.650800  1.0
  C  C483  1  0.968200  0.362000  0.019000  1.0
  C  C484  1  0.650800  0.019000  0.362000  1.0
  C  C485  1  0.650800  0.968200  0.019000  1.0
  C  C486  1  0.968200  0.650800  0.362000  1.0
  C  C487  1  0.362000  0.019000  0.968200  1.0
  C  C488  1  0.019000  0.362000  0.650800  1.0
  C  C489  1  0.968200  0.019000  0.650800  1.0
  C  C490  1  0.650800  0.362000  0.968200  1.0
  C  C491  1  0.019000  0.968200  0.362000  1.0
  C  C492  1  0.362000  0.650800  0.019000  1.0
  C  C493  1  0.388000  0.099200  0.781800  1.0
  C  C494  1  0.731000  0.781800  0.099200  1.0
  C  C495  1  0.099200  0.388000  0.731000  1.0
  C  C496  1  0.781800  0.731000  0.388000  1.0
  C  C497  1  0.388000  0.781800  0.731000  1.0
  C  C498  1  0.731000  0.099200  0.388000  1.0
  C  C499  1  0.099200  0.731000  0.781800  1.0
  C  C500  1  0.781800  0.388000  0.099200  1.0
  C  C501  1  0.388000  0.731000  0.099200  1.0
  C  C502  1  0.731000  0.388000  0.781800  1.0
  C  C503  1  0.099200  0.781800  0.388000  1.0
  C  C504  1  0.781800  0.099200  0.731000  1.0
  Cl  Cl505  1  0.250000  0.250000  0.250000  1
  Cl  Cl506  1  0.500000  0.500000  0.500000  1
  Cl  Cl507  1  0.071200  0.786400  0.071200  1
  Cl  Cl508  1  0.071200  0.071200  0.786400  1
  Cl  Cl509  1  0.071200  0.071200  0.071200  1
  Cl  Cl510  1  0.786400  0.071200  0.071200  1
  Cl  Cl511  1  0.678800  0.963600  0.678800  1
  Cl  Cl512  1  0.678800  0.678800  0.963600  1
  Cl  Cl513  1  0.963600  0.678800  0.678800  1
  Cl  Cl514  1  0.678800  0.678800  0.678800  1
  H  H515  1  0.122300  0.549100  0.984900  1.0
  H  H516  1  0.343700  0.984900  0.549100  1.0
  H  H517  1  0.984900  0.343700  0.122300  1.0
  H  H518  1  0.549100  0.122300  0.343700  1.0
  H  H519  1  0.549100  0.984900  0.122300  1.0
  H  H520  1  0.984900  0.549100  0.343700  1.0
  H  H521  1  0.343700  0.122300  0.984900  1.0
  H  H522  1  0.122300  0.343700  0.549100  1.0
  H  H523  1  0.984900  0.122300  0.549100  1.0
  H  H524  1  0.549100  0.343700  0.984900  1.0
  H  H525  1  0.122300  0.984900  0.343700  1.0
  H  H526  1  0.343700  0.549100  0.122300  1.0
  H  H527  1  0.406300  0.200900  0.765100  1.0
  H  H528  1  0.627700  0.765100  0.200900  1.0
  H  H529  1  0.200900  0.406300  0.627700  1.0
  H  H530  1  0.765100  0.627700  0.406300  1.0
  H  H531  1  0.406300  0.765100  0.627700  1.0
  H  H532  1  0.627700  0.200900  0.406300  1.0
  H  H533  1  0.200900  0.627700  0.765100  1.0
  H  H534  1  0.765100  0.406300  0.200900  1.0
  H  H535  1  0.406300  0.627700  0.200900  1.0
  H  H536  1  0.627700  0.406300  0.765100  1.0
  H  H537  1  0.200900  0.765100  0.406300  1.0
  H  H538  1  0.765100  0.200900  0.627700  1.0
  H  H539  1  0.058700  0.638700  0.121300  1.0
  H  H540  1  0.181300  0.121300  0.638700  1.0
  H  H541  1  0.121300  0.181300  0.058700  1.0
  H  H542  1  0.638700  0.058700  0.181300  1.0
  H  H543  1  0.638700  0.121300  0.058700  1.0
  H  H544  1  0.121300  0.638700  0.181300  1.0
  H  H545  1  0.181300  0.058700  0.121300  1.0
  H  H546  1  0.058700  0.181300  0.638700  1.0
  H  H547  1  0.121300  0.058700  0.638700  1.0
  H  H548  1  0.638700  0.181300  0.121300  1.0
  H  H549  1  0.058700  0.121300  0.181300  1.0
  H  H550  1  0.181300  0.638700  0.058700  1.0
  H  H551  1  0.568700  0.111300  0.628700  1.0
  H  H552  1  0.691300  0.628700  0.111300  1.0
  H  H553  1  0.111300  0.568700  0.691300  1.0
  H  H554  1  0.628700  0.691300  0.568700  1.0
  H  H555  1  0.568700  0.628700  0.691300  1.0
  H  H556  1  0.691300  0.111300  0.568700  1.0
  H  H557  1  0.111300  0.691300  0.628700  1.0
  H  H558  1  0.628700  0.568700  0.111300  1.0
  H  H559  1  0.568700  0.691300  0.111300  1.0
  H  H560  1  0.691300  0.568700  0.628700  1.0
  H  H561  1  0.111300  0.628700  0.568700  1.0
  H  H562  1  0.628700  0.111300  0.691300  1.0
  H  H563  1  0.302800  0.384600  0.016000  1.0
  H  H564  1  0.296600  0.016000  0.384600  1.0
  H  H565  1  0.016000  0.296600  0.302800  1.0
  H  H566  1  0.384600  0.302800  0.296600  1.0
  H  H567  1  0.384600  0.016000  0.302800  1.0
  H  H568  1  0.016000  0.384600  0.296600  1.0
  H  H569  1  0.296600  0.302800  0.016000  1.0
  H  H570  1  0.302800  0.296600  0.384600  1.0
  H  H571  1  0.016000  0.302800  0.384600  1.0
  H  H572  1  0.384600  0.296600  0.016000  1.0
  H  H573  1  0.302800  0.016000  0.296600  1.0
  H  H574  1  0.296600  0.384600  0.302800  1.0
  H  H575  1  0.453400  0.365400  0.734000  1.0
  H  H576  1  0.447200  0.734000  0.365400  1.0
  H  H577  1  0.365400  0.453400  0.447200  1.0
  H  H578  1  0.734000  0.447200  0.453400  1.0
  H  H579  1  0.453400  0.734000  0.447200  1.0
  H  H580  1  0.447200  0.365400  0.453400  1.0
  H  H581  1  0.365400  0.447200  0.734000  1.0
  H  H582  1  0.734000  0.453400  0.365400  1.0
  H  H583  1  0.453400  0.447200  0.365400  1.0
  H  H584  1  0.447200  0.453400  0.734000  1.0
  H  H585  1  0.365400  0.734000  0.453400  1.0
  H  H586  1  0.734000  0.365400  0.447200  1.0
  H  H587  1  0.215000  0.464400  0.980400  1.0
  H  H588  1  0.340200  0.980400  0.464400  1.0
  H  H589  1  0.980400  0.340200  0.215000  1.0
  H  H590  1  0.464400  0.215000  0.340200  1.0
  H  H591  1  0.464400  0.980400  0.215000  1.0
  H  H592  1  0.980400  0.464400  0.340200  1.0
  H  H593  1  0.340200  0.215000  0.980400  1.0
  H  H594  1  0.215000  0.340200  0.464400  1.0
  H  H595  1  0.980400  0.215000  0.464400  1.0
  H  H596  1  0.464400  0.340200  0.980400  1.0
  H  H597  1  0.215000  0.980400  0.340200  1.0
  H  H598  1  0.340200  0.464400  0.215000  1.0
  H  H599  1  0.409800  0.285600  0.769600  1.0
  H  H600  1  0.535000  0.769600  0.285600  1.0
  H  H601  1  0.285600  0.409800  0.535000  1.0
  H  H602  1  0.769600  0.535000  0.409800  1.0
  H  H603  1  0.409800  0.769600  0.535000  1.0
  H  H604  1  0.535000  0.285600  0.409800  1.0
  H  H605  1  0.285600  0.535000  0.769600  1.0
  H  H606  1  0.769600  0.409800  0.285600  1.0
  H  H607  1  0.409800  0.535000  0.285600  1.0
  H  H608  1  0.535000  0.409800  0.769600  1.0
  H  H609  1  0.285600  0.769600  0.409800  1.0
  H  H610  1  0.769600  0.285600  0.535000  1.0
  H  H611  1  0.332700  0.350700  0.114100  1.0
  H  H612  1  0.202500  0.114100  0.350700  1.0
  H  H613  1  0.114100  0.202500  0.332700  1.0
  H  H614  1  0.350700  0.332700  0.202500  1.0
  H  H615  1  0.350700  0.114100  0.332700  1.0
  H  H616  1  0.114100  0.350700  0.202500  1.0
  H  H617  1  0.202500  0.332700  0.114100  1.0
  H  H618  1  0.332700  0.202500  0.350700  1.0
  H  H619  1  0.114100  0.332700  0.350700  1.0
  H  H620  1  0.350700  0.202500  0.114100  1.0
  H  H621  1  0.332700  0.114100  0.202500  1.0
  H  H622  1  0.202500  0.350700  0.332700  1.0
  H  H623  1  0.547500  0.399300  0.635900  1.0
  H  H624  1  0.417300  0.635900  0.399300  1.0
  H  H625  1  0.399300  0.547500  0.417300  1.0
  H  H626  1  0.635900  0.417300  0.547500  1.0
  H  H627  1  0.547500  0.635900  0.417300  1.0
  H  H628  1  0.417300  0.399300  0.547500  1.0
  H  H629  1  0.399300  0.417300  0.635900  1.0
  H  H630  1  0.635900  0.547500  0.399300  1.0
  H  H631  1  0.547500  0.417300  0.399300  1.0
  H  H632  1  0.417300  0.547500  0.635900  1.0
  H  H633  1  0.399300  0.635900  0.547500  1.0
  H  H634  1  0.635900  0.399300  0.417300  1.0
  H  H635  1  0.292200  0.395200  0.153400  1.0
  H  H636  1  0.159200  0.153400  0.395200  1.0
  H  H637  1  0.153400  0.159200  0.292200  1.0
  H  H638  1  0.395200  0.292200  0.159200  1.0
  H  H639  1  0.395200  0.153400  0.292200  1.0
  H  H640  1  0.153400  0.395200  0.159200  1.0
  H  H641  1  0.159200  0.292200  0.153400  1.0
  H  H642  1  0.292200  0.159200  0.395200  1.0
  H  H643  1  0.153400  0.292200  0.395200  1.0
  H  H644  1  0.395200  0.159200  0.153400  1.0
  H  H645  1  0.292200  0.153400  0.159200  1.0
  H  H646  1  0.159200  0.395200  0.292200  1.0
  H  H647  1  0.590800  0.354800  0.596600  1.0
  H  H648  1  0.457800  0.596600  0.354800  1.0
  H  H649  1  0.354800  0.590800  0.457800  1.0
  H  H650  1  0.596600  0.457800  0.590800  1.0
  H  H651  1  0.590800  0.596600  0.457800  1.0
  H  H652  1  0.457800  0.354800  0.590800  1.0
  H  H653  1  0.354800  0.457800  0.596600  1.0
  H  H654  1  0.596600  0.590800  0.354800  1.0
  H  H655  1  0.590800  0.457800  0.354800  1.0
  H  H656  1  0.457800  0.590800  0.596600  1.0
  H  H657  1  0.354800  0.596600  0.590800  1.0
  H  H658  1  0.596600  0.354800  0.457800  1.0
  H  H659  1  0.313400  0.488000  0.017400  1.0
  H  H660  1  0.181200  0.017400  0.488000  1.0
  H  H661  1  0.017400  0.181200  0.313400  1.0
  H  H662  1  0.488000  0.313400  0.181200  1.0
  H  H663  1  0.488000  0.017400  0.313400  1.0
  H  H664  1  0.017400  0.488000  0.181200  1.0
  H  H665  1  0.181200  0.313400  0.017400  1.0
  H  H666  1  0.313400  0.181200  0.488000  1.0
  H  H667  1  0.017400  0.313400  0.488000  1.0
  H  H668  1  0.488000  0.181200  0.017400  1.0
  H  H669  1  0.313400  0.017400  0.181200  1.0
  H  H670  1  0.181200  0.488000  0.313400  1.0
  H  H671  1  0.568800  0.262000  0.732600  1.0
  H  H672  1  0.436600  0.732600  0.262000  1.0
  H  H673  1  0.262000  0.568800  0.436600  1.0
  H  H674  1  0.732600  0.436600  0.568800  1.0
  H  H675  1  0.568800  0.732600  0.436600  1.0
  H  H676  1  0.436600  0.262000  0.568800  1.0
  H  H677  1  0.262000  0.436600  0.732600  1.0
  H  H678  1  0.732600  0.568800  0.262000  1.0
  H  H679  1  0.568800  0.436600  0.262000  1.0
  H  H680  1  0.436600  0.568800  0.732600  1.0
  H  H681  1  0.262000  0.732600  0.568800  1.0
  H  H682  1  0.732600  0.262000  0.436600  1.0
  H  H683  1  0.382700  0.545100  0.949500  1.0
  H  H684  1  0.122700  0.949500  0.545100  1.0
  H  H685  1  0.949500  0.122700  0.382700  1.0
  H  H686  1  0.545100  0.382700  0.122700  1.0
  H  H687  1  0.545100  0.949500  0.382700  1.0
  H  H688  1  0.949500  0.545100  0.122700  1.0
  H  H689  1  0.122700  0.382700  0.949500  1.0
  H  H690  1  0.382700  0.122700  0.545100  1.0
  H  H691  1  0.949500  0.382700  0.545100  1.0
  H  H692  1  0.545100  0.122700  0.949500  1.0
  H  H693  1  0.382700  0.949500  0.122700  1.0
  H  H694  1  0.122700  0.545100  0.382700  1.0
  H  H695  1  0.627300  0.204900  0.800500  1.0
  H  H696  1  0.367300  0.800500  0.204900  1.0
  H  H697  1  0.204900  0.627300  0.367300  1.0
  H  H698  1  0.800500  0.367300  0.627300  1.0
  H  H699  1  0.627300  0.800500  0.367300  1.0
  H  H700  1  0.367300  0.204900  0.627300  1.0
  H  H701  1  0.204900  0.367300  0.800500  1.0
  H  H702  1  0.800500  0.627300  0.204900  1.0
  H  H703  1  0.627300  0.367300  0.204900  1.0
  H  H704  1  0.367300  0.627300  0.800500  1.0
  H  H705  1  0.204900  0.800500  0.627300  1.0
  H  H706  1  0.800500  0.204900  0.367300  1.0
  H  H707  1  0.456300  0.523100  0.980700  1.0
  H  H708  1  0.039900  0.980700  0.523100  1.0
  H  H709  1  0.980700  0.039900  0.456300  1.0
  H  H710  1  0.523100  0.456300  0.039900  1.0
  H  H711  1  0.523100  0.980700  0.456300  1.0
  H  H712  1  0.980700  0.523100  0.039900  1.0
  H  H713  1  0.039900  0.456300  0.980700  1.0
  H  H714  1  0.456300  0.039900  0.523100  1.0
  H  H715  1  0.980700  0.456300  0.523100  1.0
  H  H716  1  0.523100  0.039900  0.980700  1.0
  H  H717  1  0.456300  0.980700  0.039900  1.0
  H  H718  1  0.039900  0.523100  0.456300  1.0
  H  H719  1  0.710100  0.226900  0.769300  1.0
  H  H720  1  0.293700  0.769300  0.226900  1.0
  H  H721  1  0.226900  0.710100  0.293700  1.0
  H  H722  1  0.769300  0.293700  0.710100  1.0
  H  H723  1  0.710100  0.769300  0.293700  1.0
  H  H724  1  0.293700  0.226900  0.710100  1.0
  H  H725  1  0.226900  0.293700  0.769300  1.0
  H  H726  1  0.769300  0.710100  0.226900  1.0
  H  H727  1  0.710100  0.293700  0.226900  1.0
  H  H728  1  0.293700  0.710100  0.769300  1.0
  H  H729  1  0.226900  0.769300  0.710100  1.0
  H  H730  1  0.769300  0.226900  0.293700  1.0
  H  H731  1  0.075700  0.737100  0.970100  1.0
  H  H732  1  0.217100  0.970100  0.737100  1.0
  H  H733  1  0.970100  0.217100  0.075700  1.0
  H  H734  1  0.737100  0.075700  0.217100  1.0
  H  H735  1  0.737100  0.970100  0.075700  1.0
  H  H736  1  0.970100  0.737100  0.217100  1.0
  H  H737  1  0.217100  0.075700  0.970100  1.0
  H  H738  1  0.075700  0.217100  0.737100  1.0
  H  H739  1  0.970100  0.075700  0.737100  1.0
  H  H740  1  0.737100  0.217100  0.970100  1.0
  H  H741  1  0.075700  0.970100  0.217100  1.0
  H  H742  1  0.217100  0.737100  0.075700  1.0
  H  H743  1  0.532900  0.012900  0.779900  1.0
  H  H744  1  0.674300  0.779900  0.012900  1.0
  H  H745  1  0.012900  0.532900  0.674300  1.0
  H  H746  1  0.779900  0.674300  0.532900  1.0
  H  H747  1  0.532900  0.779900  0.674300  1.0
  H  H748  1  0.674300  0.012900  0.532900  1.0
  H  H749  1  0.012900  0.674300  0.779900  1.0
  H  H750  1  0.779900  0.532900  0.012900  1.0
  H  H751  1  0.532900  0.674300  0.012900  1.0
  H  H752  1  0.674300  0.532900  0.779900  1.0
  H  H753  1  0.012900  0.779900  0.532900  1.0
  H  H754  1  0.779900  0.012900  0.674300  1.0
  H  H755  1  0.049900  0.794100  0.918300  1.0
  H  H756  1  0.237700  0.918300  0.794100  1.0
  H  H757  1  0.918300  0.237700  0.049900  1.0
  H  H758  1  0.794100  0.049900  0.237700  1.0
  H  H759  1  0.794100  0.918300  0.049900  1.0
  H  H760  1  0.918300  0.794100  0.237700  1.0
  H  H761  1  0.237700  0.049900  0.918300  1.0
  H  H762  1  0.049900  0.237700  0.794100  1.0
  H  H763  1  0.918300  0.049900  0.794100  1.0
  H  H764  1  0.794100  0.237700  0.918300  1.0
  H  H765  1  0.049900  0.918300  0.237700  1.0
  H  H766  1  0.237700  0.794100  0.049900  1.0
  H  H767  1  0.512300  0.955900  0.831700  1.0
  H  H768  1  0.700100  0.831700  0.955900  1.0
  H  H769  1  0.955900  0.512300  0.700100  1.0
  H  H770  1  0.831700  0.700100  0.512300  1.0
  H  H771  1  0.512300  0.831700  0.700100  1.0
  H  H772  1  0.700100  0.955900  0.512300  1.0
  H  H773  1  0.955900  0.700100  0.831700  1.0
  H  H774  1  0.831700  0.512300  0.955900  1.0
  H  H775  1  0.512300  0.700100  0.955900  1.0
  H  H776  1  0.700100  0.512300  0.831700  1.0
  H  H777  1  0.955900  0.831700  0.512300  1.0
  H  H778  1  0.831700  0.955900  0.700100  1.0
  H  H779  1  0.069700  0.726700  0.920300  1.0
  H  H780  1  0.283300  0.920300  0.726700  1.0
  H  H781  1  0.920300  0.283300  0.069700  1.0
  H  H782  1  0.726700  0.069700  0.283300  1.0
  H  H783  1  0.726700  0.920300  0.069700  1.0
  H  H784  1  0.920300  0.726700  0.283300  1.0
  H  H785  1  0.283300  0.069700  0.920300  1.0
  H  H786  1  0.069700  0.283300  0.726700  1.0
  H  H787  1  0.920300  0.069700  0.726700  1.0
  H  H788  1  0.726700  0.283300  0.920300  1.0
  H  H789  1  0.069700  0.920300  0.283300  1.0
  H  H790  1  0.283300  0.726700  0.069700  1.0
  H  H791  1  0.466700  0.023300  0.829700  1.0
  H  H792  1  0.680300  0.829700  0.023300  1.0
  H  H793  1  0.023300  0.466700  0.680300  1.0
  H  H794  1  0.829700  0.680300  0.466700  1.0
  H  H795  1  0.466700  0.829700  0.680300  1.0
  H  H796  1  0.680300  0.023300  0.466700  1.0
  H  H797  1  0.023300  0.680300  0.829700  1.0
  H  H798  1  0.829700  0.466700  0.023300  1.0
  H  H799  1  0.466700  0.680300  0.023300  1.0
  H  H800  1  0.680300  0.466700  0.829700  1.0
  H  H801  1  0.023300  0.829700  0.466700  1.0
  H  H802  1  0.829700  0.023300  0.680300  1.0
  H  H803  1  0.920700  0.809700  0.031300  1.0
  H  H804  1  0.238300  0.031300  0.809700  1.0
  H  H805  1  0.031300  0.238300  0.920700  1.0
  H  H806  1  0.809700  0.920700  0.238300  1.0
  H  H807  1  0.809700  0.031300  0.920700  1.0
  H  H808  1  0.031300  0.809700  0.238300  1.0
  H  H809  1  0.238300  0.920700  0.031300  1.0
  H  H810  1  0.920700  0.238300  0.809700  1.0
  H  H811  1  0.031300  0.920700  0.809700  1.0
  H  H812  1  0.809700  0.238300  0.031300  1.0
  H  H813  1  0.920700  0.031300  0.238300  1.0
  H  H814  1  0.238300  0.809700  0.920700  1.0
  H  H815  1  0.511700  0.940300  0.718700  1.0
  H  H816  1  0.829300  0.718700  0.940300  1.0
  H  H817  1  0.940300  0.511700  0.829300  1.0
  H  H818  1  0.718700  0.829300  0.511700  1.0
  H  H819  1  0.511700  0.718700  0.829300  1.0
  H  H820  1  0.829300  0.940300  0.511700  1.0
  H  H821  1  0.940300  0.829300  0.718700  1.0
  H  H822  1  0.718700  0.511700  0.940300  1.0
  H  H823  1  0.511700  0.829300  0.940300  1.0
  H  H824  1  0.829300  0.511700  0.718700  1.0
  H  H825  1  0.940300  0.718700  0.511700  1.0
  H  H826  1  0.718700  0.940300  0.829300  1.0
  H  H827  1  0.917000  0.828600  0.966600  1.0
  H  H828  1  0.287800  0.966600  0.828600  1.0
  H  H829  1  0.966600  0.287800  0.917000  1.0
  H  H830  1  0.828600  0.917000  0.287800  1.0
  H  H831  1  0.828600  0.966600  0.917000  1.0
  H  H832  1  0.966600  0.828600  0.287800  1.0
  H  H833  1  0.287800  0.917000  0.966600  1.0
  H  H834  1  0.917000  0.287800  0.828600  1.0
  H  H835  1  0.966600  0.917000  0.828600  1.0
  H  H836  1  0.828600  0.287800  0.966600  1.0
  H  H837  1  0.917000  0.966600  0.287800  1.0
  H  H838  1  0.287800  0.828600  0.917000  1.0
  H  H839  1  0.462200  0.921400  0.783400  1.0
  H  H840  1  0.833000  0.783400  0.921400  1.0
  H  H841  1  0.921400  0.462200  0.833000  1.0
  H  H842  1  0.783400  0.833000  0.462200  1.0
  H  H843  1  0.462200  0.783400  0.833000  1.0
  H  H844  1  0.833000  0.921400  0.462200  1.0
  H  H845  1  0.921400  0.833000  0.783400  1.0
  H  H846  1  0.783400  0.462200  0.921400  1.0
  H  H847  1  0.462200  0.833000  0.921400  1.0
  H  H848  1  0.833000  0.462200  0.783400  1.0
  H  H849  1  0.921400  0.783400  0.462200  1.0
  H  H850  1  0.783400  0.921400  0.833000  1.0
  H  H851  1  0.966400  0.841200  0.971000  1.0
  H  H852  1  0.221400  0.971000  0.841200  1.0
  H  H853  1  0.971000  0.221400  0.966400  1.0
  H  H854  1  0.841200  0.966400  0.221400  1.0
  H  H855  1  0.841200  0.971000  0.966400  1.0
  H  H856  1  0.971000  0.841200  0.221400  1.0
  H  H857  1  0.221400  0.966400  0.971000  1.0
  H  H858  1  0.966400  0.221400  0.841200  1.0
  H  H859  1  0.971000  0.966400  0.841200  1.0
  H  H860  1  0.841200  0.221400  0.971000  1.0
  H  H861  1  0.966400  0.971000  0.221400  1.0
  H  H862  1  0.221400  0.841200  0.966400  1.0
  H  H863  1  0.528600  0.908800  0.779000  1.0
  H  H864  1  0.783600  0.779000  0.908800  1.0
  H  H865  1  0.908800  0.528600  0.783600  1.0
  H  H866  1  0.779000  0.783600  0.528600  1.0
  H  H867  1  0.528600  0.779000  0.783600  1.0
  H  H868  1  0.783600  0.908800  0.528600  1.0
  H  H869  1  0.908800  0.783600  0.779000  1.0
  H  H870  1  0.779000  0.528600  0.908800  1.0
  H  H871  1  0.528600  0.783600  0.908800  1.0
  H  H872  1  0.783600  0.528600  0.779000  1.0
  H  H873  1  0.908800  0.779000  0.528600  1.0
  H  H874  1  0.779000  0.908800  0.783600  1.0
  H  H875  1  0.975400  0.723200  0.078200  1.0
  H  H876  1  0.223200  0.078200  0.723200  1.0
  H  H877  1  0.078200  0.223200  0.975400  1.0
  H  H878  1  0.723200  0.975400  0.223200  1.0
  H  H879  1  0.723200  0.078200  0.975400  1.0
  H  H880  1  0.078200  0.723200  0.223200  1.0
  H  H881  1  0.223200  0.975400  0.078200  1.0
  H  H882  1  0.975400  0.223200  0.723200  1.0
  H  H883  1  0.078200  0.975400  0.723200  1.0
  H  H884  1  0.723200  0.223200  0.078200  1.0
  H  H885  1  0.975400  0.078200  0.223200  1.0
  H  H886  1  0.223200  0.723200  0.975400  1.0
  H  H887  1  0.526800  0.026800  0.671800  1.0
  H  H888  1  0.774600  0.671800  0.026800  1.0
  H  H889  1  0.026800  0.526800  0.774600  1.0
  H  H890  1  0.671800  0.774600  0.526800  1.0
  H  H891  1  0.526800  0.671800  0.774600  1.0
  H  H892  1  0.774600  0.026800  0.526800  1.0
  H  H893  1  0.026800  0.774600  0.671800  1.0
  H  H894  1  0.671800  0.526800  0.026800  1.0
  H  H895  1  0.526800  0.774600  0.026800  1.0
  H  H896  1  0.774600  0.526800  0.671800  1.0
  H  H897  1  0.026800  0.671800  0.526800  1.0
  H  H898  1  0.671800  0.026800  0.774600  1.0
  H  H899  1  0.895800  0.725200  0.061400  1.0
  H  H900  1  0.317600  0.061400  0.725200  1.0
  H  H901  1  0.061400  0.317600  0.895800  1.0
  H  H902  1  0.725200  0.895800  0.317600  1.0
  H  H903  1  0.725200  0.061400  0.895800  1.0
  H  H904  1  0.061400  0.725200  0.317600  1.0
  H  H905  1  0.317600  0.895800  0.061400  1.0
  H  H906  1  0.895800  0.317600  0.725200  1.0
  H  H907  1  0.061400  0.895800  0.725200  1.0
  H  H908  1  0.725200  0.317600  0.061400  1.0
  H  H909  1  0.895800  0.061400  0.317600  1.0
  H  H910  1  0.317600  0.725200  0.895800  1.0
  H  H911  1  0.432400  0.024800  0.688600  1.0
  H  H912  1  0.854200  0.688600  0.024800  1.0
  H  H913  1  0.024800  0.432400  0.854200  1.0
  H  H914  1  0.688600  0.854200  0.432400  1.0
  H  H915  1  0.432400  0.688600  0.854200  1.0
  H  H916  1  0.854200  0.024800  0.432400  1.0
  H  H917  1  0.024800  0.854200  0.688600  1.0
  H  H918  1  0.688600  0.432400  0.024800  1.0
  H  H919  1  0.432400  0.854200  0.024800  1.0
  H  H920  1  0.854200  0.432400  0.688600  1.0
  H  H921  1  0.024800  0.688600  0.432400  1.0
  H  H922  1  0.688600  0.024800  0.854200  1.0
  H  H923  1  0.934300  0.652500  0.074900  1.0
  H  H924  1  0.338300  0.074900  0.652500  1.0
  H  H925  1  0.074900  0.338300  0.934300  1.0
  H  H926  1  0.652500  0.934300  0.338300  1.0
  H  H927  1  0.652500  0.074900  0.934300  1.0
  H  H928  1  0.074900  0.652500  0.338300  1.0
  H  H929  1  0.338300  0.934300  0.074900  1.0
  H  H930  1  0.934300  0.338300  0.652500  1.0
  H  H931  1  0.074900  0.934300  0.652500  1.0
  H  H932  1  0.652500  0.338300  0.074900  1.0
  H  H933  1  0.934300  0.074900  0.338300  1.0
  H  H934  1  0.338300  0.652500  0.934300  1.0
  H  H935  1  0.411700  0.097500  0.675100  1.0
  H  H936  1  0.815700  0.675100  0.097500  1.0
  H  H937  1  0.097500  0.411700  0.815700  1.0
  H  H938  1  0.675100  0.815700  0.411700  1.0
  H  H939  1  0.411700  0.675100  0.815700  1.0
  H  H940  1  0.815700  0.097500  0.411700  1.0
  H  H941  1  0.097500  0.815700  0.675100  1.0
  H  H942  1  0.675100  0.411700  0.097500  1.0
  H  H943  1  0.411700  0.815700  0.097500  1.0
  H  H944  1  0.815700  0.411700  0.675100  1.0
  H  H945  1  0.097500  0.675100  0.411700  1.0
  H  H946  1  0.675100  0.097500  0.815700  1.0
  H  H947  1  0.948000  0.728600  0.952800  1.0
  H  H948  1  0.370600  0.952800  0.728600  1.0
  H  H949  1  0.952800  0.370600  0.948000  1.0
  H  H950  1  0.728600  0.948000  0.370600  1.0
  H  H951  1  0.728600  0.952800  0.948000  1.0
  H  H952  1  0.952800  0.728600  0.370600  1.0
  H  H953  1  0.370600  0.948000  0.952800  1.0
  H  H954  1  0.948000  0.370600  0.728600  1.0
  H  H955  1  0.952800  0.948000  0.728600  1.0
  H  H956  1  0.728600  0.370600  0.952800  1.0
  H  H957  1  0.948000  0.952800  0.370600  1.0
  H  H958  1  0.370600  0.728600  0.948000  1.0
  H  H959  1  0.379400  0.021400  0.797200  1.0
  H  H960  1  0.802000  0.797200  0.021400  1.0
  H  H961  1  0.021400  0.379400  0.802000  1.0
  H  H962  1  0.797200  0.802000  0.379400  1.0
  H  H963  1  0.379400  0.797200  0.802000  1.0
  H  H964  1  0.802000  0.021400  0.379400  1.0
  H  H965  1  0.021400  0.802000  0.797200  1.0
  H  H966  1  0.797200  0.379400  0.021400  1.0
  H  H967  1  0.379400  0.802000  0.021400  1.0
  H  H968  1  0.802000  0.379400  0.797200  1.0
  H  H969  1  0.021400  0.797200  0.379400  1.0
  H  H970  1  0.797200  0.021400  0.802000  1.0
  H  H971  1  0.045000  0.658000  0.925200  1.0
  H  H972  1  0.371800  0.925200  0.658000  1.0
  H  H973  1  0.925200  0.371800  0.045000  1.0
  H  H974  1  0.658000  0.045000  0.371800  1.0
  H  H975  1  0.658000  0.925200  0.045000  1.0
  H  H976  1  0.925200  0.658000  0.371800  1.0
  H  H977  1  0.371800  0.045000  0.925200  1.0
  H  H978  1  0.045000  0.371800  0.658000  1.0
  H  H979  1  0.925200  0.045000  0.658000  1.0
  H  H980  1  0.658000  0.371800  0.925200  1.0
  H  H981  1  0.045000  0.925200  0.371800  1.0
  H  H982  1  0.371800  0.658000  0.045000  1.0
  H  H983  1  0.378200  0.092000  0.824800  1.0
  H  H984  1  0.705000  0.824800  0.092000  1.0
  H  H985  1  0.092000  0.378200  0.705000  1.0
  H  H986  1  0.824800  0.705000  0.378200  1.0
  H  H987  1  0.378200  0.824800  0.705000  1.0
  H  H988  1  0.705000  0.092000  0.378200  1.0
  H  H989  1  0.092000  0.705000  0.824800  1.0
  H  H990  1  0.824800  0.378200  0.092000  1.0
  H  H991  1  0.378200  0.705000  0.092000  1.0
  H  H992  1  0.705000  0.378200  0.824800  1.0
  H  H993  1  0.092000  0.824800  0.378200  1.0
  H  H994  1  0.824800  0.092000  0.705000  1.0
  H  H995  1  0.998500  0.623100  0.979300  1.0
  H  H996  1  0.399100  0.979300  0.623100  1.0
  H  H997  1  0.979300  0.399100  0.998500  1.0
  H  H998  1  0.623100  0.998500  0.399100  1.0
  H  H999  1  0.623100  0.979300  0.998500  1.0
  H  H1000  1  0.979300  0.623100  0.399100  1.0
  H  H1001  1  0.399100  0.998500  0.979300  1.0
  H  H1002  1  0.998500  0.399100  0.623100  1.0
  H  H1003  1  0.979300  0.998500  0.623100  1.0
  H  H1004  1  0.623100  0.399100  0.979300  1.0
  H  H1005  1  0.998500  0.979300  0.399100  1.0
  H  H1006  1  0.399100  0.623100  0.998500  1.0
  H  H1007  1  0.350900  0.126900  0.770700  1.0
  H  H1008  1  0.751500  0.770700  0.126900  1.0
  H  H1009  1  0.126900  0.350900  0.751500  1.0
  H  H1010  1  0.770700  0.751500  0.350900  1.0
  H  H1011  1  0.350900  0.770700  0.751500  1.0
  H  H1012  1  0.751500  0.126900  0.350900  1.0
  H  H1013  1  0.126900  0.751500  0.770700  1.0
  H  H1014  1  0.770700  0.350900  0.126900  1.0
  H  H1015  1  0.350900  0.751500  0.126900  1.0
  H  H1016  1  0.751500  0.350900  0.770700  1.0
  H  H1017  1  0.126900  0.770700  0.350900  1.0
  H  H1018  1  0.770700  0.126900  0.751500  1.0
  N  N1019  1  0.114100  0.570300  0.095900  1.0
  N  N1020  1  0.219700  0.095900  0.570300  1.0
  N  N1021  1  0.095900  0.219700  0.114100  1.0
  N  N1022  1  0.570300  0.114100  0.219700  1.0
  N  N1023  1  0.570300  0.095900  0.114100  1.0
  N  N1024  1  0.095900  0.570300  0.219700  1.0
  N  N1025  1  0.219700  0.114100  0.095900  1.0
  N  N1026  1  0.114100  0.219700  0.570300  1.0
  N  N1027  1  0.095900  0.114100  0.570300  1.0
  N  N1028  1  0.570300  0.219700  0.095900  1.0
  N  N1029  1  0.114100  0.095900  0.219700  1.0
  N  N1030  1  0.219700  0.570300  0.114100  1.0
  N  N1031  1  0.530300  0.179700  0.654100  1.0
  N  N1032  1  0.635900  0.654100  0.179700  1.0
  N  N1033  1  0.179700  0.530300  0.635900  1.0
  N  N1034  1  0.654100  0.635900  0.530300  1.0
  N  N1035  1  0.530300  0.654100  0.635900  1.0
  N  N1036  1  0.635900  0.179700  0.530300  1.0
  N  N1037  1  0.179700  0.635900  0.654100  1.0
  N  N1038  1  0.654100  0.530300  0.179700  1.0
  N  N1039  1  0.530300  0.635900  0.179700  1.0
  N  N1040  1  0.635900  0.530300  0.654100  1.0
  N  N1041  1  0.179700  0.654100  0.530300  1.0
  N  N1042  1  0.654100  0.179700  0.635900  1.0
  N  N1043  1  0.215400  0.469800  0.095600  1.0
  N  N1044  1  0.219200  0.095600  0.469800  1.0
  N  N1045  1  0.095600  0.219200  0.215400  1.0
  N  N1046  1  0.469800  0.215400  0.219200  1.0
  N  N1047  1  0.469800  0.095600  0.215400  1.0
  N  N1048  1  0.095600  0.469800  0.219200  1.0
  N  N1049  1  0.219200  0.215400  0.095600  1.0
  N  N1050  1  0.215400  0.219200  0.469800  1.0
  N  N1051  1  0.095600  0.215400  0.469800  1.0
  N  N1052  1  0.469800  0.219200  0.095600  1.0
  N  N1053  1  0.215400  0.095600  0.219200  1.0
  N  N1054  1  0.219200  0.469800  0.215400  1.0
  N  N1055  1  0.530800  0.280200  0.654400  1.0
  N  N1056  1  0.534600  0.654400  0.280200  1.0
  N  N1057  1  0.280200  0.530800  0.534600  1.0
  N  N1058  1  0.654400  0.534600  0.530800  1.0
  N  N1059  1  0.530800  0.654400  0.534600  1.0
  N  N1060  1  0.534600  0.280200  0.530800  1.0
  N  N1061  1  0.280200  0.534600  0.654400  1.0
  N  N1062  1  0.654400  0.530800  0.280200  1.0
  N  N1063  1  0.530800  0.534600  0.280200  1.0
  N  N1064  1  0.534600  0.530800  0.654400  1.0
  N  N1065  1  0.280200  0.654400  0.530800  1.0
  N  N1066  1  0.654400  0.280200  0.534600  1.0
  N  N1067  1  0.266100  0.423300  0.081900  1.0
  N  N1068  1  0.228700  0.081900  0.423300  1.0
  N  N1069  1  0.081900  0.228700  0.266100  1.0
  N  N1070  1  0.423300  0.266100  0.228700  1.0
  N  N1071  1  0.423300  0.081900  0.266100  1.0
  N  N1072  1  0.081900  0.423300  0.228700  1.0
  N  N1073  1  0.228700  0.266100  0.081900  1.0
  N  N1074  1  0.266100  0.228700  0.423300  1.0
  N  N1075  1  0.081900  0.266100  0.423300  1.0
  N  N1076  1  0.423300  0.228700  0.081900  1.0
  N  N1077  1  0.266100  0.081900  0.228700  1.0
  N  N1078  1  0.228700  0.423300  0.266100  1.0
  N  N1079  1  0.521300  0.326700  0.668100  1.0
  N  N1080  1  0.483900  0.668100  0.326700  1.0
  N  N1081  1  0.326700  0.521300  0.483900  1.0
  N  N1082  1  0.668100  0.483900  0.521300  1.0
  N  N1083  1  0.521300  0.668100  0.483900  1.0
  N  N1084  1  0.483900  0.326700  0.521300  1.0
  N  N1085  1  0.326700  0.483900  0.668100  1.0
  N  N1086  1  0.668100  0.521300  0.326700  1.0
  N  N1087  1  0.521300  0.483900  0.326700  1.0
  N  N1088  1  0.483900  0.521300  0.668100  1.0
  N  N1089  1  0.326700  0.668100  0.521300  1.0
  N  N1090  1  0.668100  0.326700  0.483900  1.0
  O  O1091  1  0.091800  0.724600  0.091800  1
  O  O1092  1  0.091800  0.091800  0.724600  1
  O  O1093  1  0.091800  0.091800  0.091800  1
  O  O1094  1  0.724600  0.091800  0.091800  1
  O  O1095  1  0.658200  0.025400  0.658200  1
  O  O1096  1  0.658200  0.658200  0.025400  1
  O  O1097  1  0.025400  0.658200  0.658200  1
  O  O1098  1  0.658200  0.658200  0.658200  1
  O  O1099  1  0.066100  0.817500  0.102300  1.0
  O  O1100  1  0.014100  0.102300  0.817500  1.0
  O  O1101  1  0.102300  0.014100  0.066100  1.0
  O  O1102  1  0.817500  0.066100  0.014100  1.0
  O  O1103  1  0.817500  0.102300  0.066100  1.0
  O  O1104  1  0.102300  0.817500  0.014100  1.0
  O  O1105  1  0.014100  0.066100  0.102300  1.0
  O  O1106  1  0.066100  0.014100  0.817500  1.0
  O  O1107  1  0.102300  0.066100  0.817500  1.0
  O  O1108  1  0.817500  0.014100  0.102300  1.0
  O  O1109  1  0.066100  0.102300  0.014100  1.0
  O  O1110  1  0.014100  0.817500  0.066100  1.0
  O  O1111  1  0.735900  0.932500  0.647700  1.0
  O  O1112  1  0.683900  0.647700  0.932500  1.0
  O  O1113  1  0.932500  0.735900  0.683900  1.0
  O  O1114  1  0.647700  0.683900  0.735900  1.0
  O  O1115  1  0.735900  0.647700  0.683900  1.0
  O  O1116  1  0.683900  0.932500  0.735900  1.0
  O  O1117  1  0.932500  0.683900  0.647700  1.0
  O  O1118  1  0.647700  0.735900  0.932500  1.0
  O  O1119  1  0.735900  0.683900  0.932500  1.0
  O  O1120  1  0.683900  0.735900  0.647700  1.0
  O  O1121  1  0.932500  0.647700  0.735900  1.0
  O  O1122  1  0.647700  0.932500  0.683900  1.0
  O  O1123  1  0.184600  0.271800  0.271800  1.0
  O  O1124  1  0.271800  0.271800  0.271800  1.0
  O  O1125  1  0.271800  0.271800  0.184600  1.0
  O  O1126  1  0.271800  0.184600  0.271800  1.0
  O  O1127  1  0.478200  0.478200  0.478200  1.0
  O  O1128  1  0.565400  0.478200  0.478200  1.0
  O  O1129  1  0.478200  0.478200  0.565400  1.0
  O  O1130  1  0.478200  0.565400  0.478200  1.0
  Zn  Zn1131  1  0.159350  0.521950  0.159350  1.0
  Zn  Zn1132  1  0.159350  0.159350  0.521950  1.0
  Zn  Zn1133  1  0.159350  0.159350  0.159350  1.0
  Zn  Zn1134  1  0.521950  0.159350  0.159350  1.0
  Zn  Zn1135  1  0.590650  0.228050  0.590650  1.0
  Zn  Zn1136  1  0.590650  0.590650  0.228050  1.0
  Zn  Zn1137  1  0.228050  0.590650  0.590650  1.0
  Zn  Zn1138  1  0.590650  0.590650  0.590650  1.0
