
#######################################################################
#
#                 Cambridge Crystallographic Data Centre
#                                CCDC 
#
#######################################################################
#
# If this CIF has been generated from an entry in the Cambridge 
# Structural Database, then it will include bibliographic, chemical, 
# crystal, experimental, refinement or atomic coordinate data resulting 
# from the CCDC's data processing and validation procedures.
#
#######################################################################

data_YEGPEG
_chemical_formula_moiety         'C168 H168 Ag4 N24 4+,4(B1 F4 1-),0.5(H2 O1)'
_chemical_name_systematic        
"tetrakis(\m~2~-1,8-bis(3-(5,6-Pinenopyridin-2-yl)pyrazolylmethyl)naphthalene-N,N',N'',N''')-tetra-silver(i) tetrafluoroborate hemihydrate"
_symmetry_cell_setting           tetragonal
_symmetry_space_group_name_H-M   'P 4'
_symmetry_Int_Tables_number      75
_space_group_name_Hall           'P 4'
loop_
_symmetry_equiv_pos_site_id
_symmetry_equiv_pos_as_xyz
1 x,y,z
2 -x,-y,z
3 -y,x,z
4 y,-x,z
_cell_length_a                   24.3896(7)
_cell_length_b                   24.3896(7)
_cell_length_c                   13.3039(9)
_cell_angle_alpha                90
_cell_angle_beta                 90
_cell_angle_gamma                90
_cell_volume                     7913.86
_exptl_crystal_colour            colorless
_exptl_crystal_description       block
_cell_formula_units_Z            2
loop_
_atom_site_label
_atom_site_type_symbol
_atom_site_fract_x
_atom_site_fract_y
_atom_site_fract_z
Ag1 Ag 1.00206(3) 0.76018(3) 0.83323(7)
N1 N 1.0650(3) 0.7335(3) 0.9532(5)
C1 C 1.0658(4) 0.7645(4) 1.0392(6)
C2 C 1.1067(5) 0.7536(4) 1.1108(8)
H1 H 1.1080 0.7759 1.1693
C3 C 1.1422(5) 0.7152(5) 1.1016(8)
H2 H 1.1683 0.7090 1.1535
C4 C 1.1428(5) 0.6815(4) 1.0126(8)
C5 C 1.1030(4) 0.6925(4) 0.9418(6)
N2 N 0.9907(3) 0.8154(3) 0.9741(5)
N3 N 0.9584(3) 0.8556(4) 1.0043(7)
C6 C 0.9704(4) 0.8741(4) 1.0945(8)
H3 H 0.9530 0.9034 1.1291
C7 C 1.0129(4) 0.8427(5) 1.1287(8)
H4 H 1.0300 0.8441 1.1928
C8 C 1.0261(3) 0.8070(3) 1.0454(6)
C9 C 0.9150(4) 0.8744(4) 0.9373(8)
H5 H 0.9321 0.8838 0.8721
H6 H 0.9000 0.9088 0.9656
C10 C 0.88203(13) 0.91363(13) 0.7370(2)
H7 H 0.8830 0.9301 0.8050
H8 H 0.9203 0.9048 0.7180
C11 C 0.86686(13) 0.83635(13) 0.9159(2)
C12 C 0.85722(13) 0.80331(13) 0.9992(2)
H9 H 0.8759 0.8103 1.0605
C13 C 0.82027(13) 0.76007(13) 0.9927(2)
H10 H 0.8137 0.7375 1.0496
C14 C 0.79297(13) 0.74986(13) 0.9029(2)
H11 H 0.7677 0.7203 0.8984
C15 C 0.80262(13) 0.78290(13) 0.8196(2)
C16 C 0.83956(13) 0.82614(13) 0.8261(2)
C17 C 0.84921(13) 0.85919(13) 0.7429(2)
C18 C 0.82191(13) 0.84898(13) 0.6531(2)
H12 H 0.8285 0.8716 0.5962
C19 C 0.78497(13) 0.80573(13) 0.6466(2)
H13 H 0.7663 0.7988 0.5852
C20 C 0.77532(13) 0.77269(13) 0.7298(2)
H14 H 0.7501 0.7431 0.7254
N4 N 1.0173(3) 0.8158(3) 0.6914(6)
N5 N 0.8614(3) 0.9546(3) 0.6671(6)
C21 C 0.8823(5) 0.9701(5) 0.5814(9)
H15 H 0.9148 0.9560 0.5519
C22 C 0.8490(4) 1.0108(4) 0.5402(7)
H16 H 0.8534 1.0298 0.4784
C23 C 0.9829(4) 0.8060(3) 0.6150(6)
N6 N 0.9463(3) 0.7300(3) 0.7046(5)
C24 C 0.9466(4) 0.7583(3) 0.6173(6)
C25 C 0.9175(4) 0.7451(4) 0.5367(7)
H17 H 0.9172 0.7682 0.4792
C26 C 0.8866(5) 0.6954(5) 0.5381(7)
H18 H 0.8653 0.6842 0.4819
C27 C 0.8890(4) 0.6633(4) 0.6273(6)
C28 C 0.9185(4) 0.6827(4) 0.7074(6)
C29 C 1.0905(4) 0.5712(4) 1.0048(9)
H19 H 1.0952 0.5660 1.0773
H20 H 1.0762 0.5374 0.9748
H21 H 1.0646 0.6012 0.9928
C30 C 1.1448(4) 0.5849(3) 0.9582(6)
C31 C 1.1785(6) 0.5309(4) 0.9558(10)
H22 H 1.1650 0.5060 1.0081
H23 H 1.2173 0.5392 0.9680
H24 H 1.1745 0.5135 0.8899
C32 C 1.0998(4) 0.6580(4) 0.8502(7)
H25 H 1.1039 0.6813 0.7897
H26 H 1.0635 0.6398 0.8469
C33 C 1.1457(3) 0.6140(3) 0.8517(6)
H27 H 1.1476 0.5892 0.7919
C34 C 1.2012(4) 0.6423(4) 0.8842(7)
H28 H 1.2047 0.6810 0.8627
H29 H 1.2345 0.6210 0.8675
C35 C 1.1801(4) 0.6346(4) 0.9977(6)
H30 H 1.2081 0.6270 1.0509
C36 C 0.9572(4) 0.5672(5) 0.6553(10)
H31 H 0.9591 0.5483 0.5904
H32 H 0.9786 0.5468 0.7052
H33 H 0.9721 0.6043 0.6483
C37 C 0.8988(4) 0.5705(3) 0.6888(7)
C38 C 0.8765(6) 0.5103(4) 0.6878(10)
H34 H 0.8381 0.5102 0.7099
H35 H 0.8984 0.4877 0.7334
H36 H 0.8789 0.4955 0.6194
C39 C 0.9179(4) 0.6514(4) 0.8051(6)
H37 H 0.9017 0.6744 0.8587
H38 H 0.9558 0.6419 0.8249
C40 C 0.8840(4) 0.5989(3) 0.7923(6)
H39 H 0.8829 0.5740 0.8521
C41 C 0.8264(3) 0.6140(4) 0.7452(7)
H40 H 0.8129 0.6509 0.7633
H41 H 0.7978 0.5857 0.7549
C42 C 0.8569(4) 0.6110(4) 0.6389(6)
H42 H 0.8355 0.5977 0.5797
Ag1B Ag 1.23982(3) 1.00206(3) 0.83323(7)
Ag1A Ag 0.99794(3) 1.23982(3) 0.83323(7)
Ag1C Ag 0.76018(3) 0.99794(3) 0.83323(7)
N1B N 1.2665(3) 1.0650(3) 0.9532(5)
N1A N 0.9350(3) 1.2665(3) 0.9532(5)
N1C N 0.7335(3) 0.9350(3) 0.9532(5)
C1B C 1.2355(4) 1.0658(4) 1.0392(6)
C1A C 0.9342(4) 1.2355(4) 1.0392(6)
C1C C 0.7645(4) 0.9342(4) 1.0392(6)
C2B C 1.2464(4) 1.1067(5) 1.1108(8)
C2A C 0.8933(5) 1.2464(4) 1.1108(8)
C2C C 0.7536(4) 0.8933(5) 1.1108(8)
H1B H 1.2241 1.1080 1.1693
H1A H 0.8920 1.2241 1.1693
H1C H 0.7759 0.8920 1.1693
C3B C 1.2848(5) 1.1422(5) 1.1016(8)
C3A C 0.8578(5) 1.2848(5) 1.1016(8)
C3C C 0.7152(5) 0.8578(5) 1.1016(8)
H2B H 1.2910 1.1683 1.1535
H2A H 0.8317 1.2910 1.1535
H2C H 0.7090 0.8317 1.1535
C4B C 1.3185(4) 1.1428(5) 1.0126(8)
C4A C 0.8572(5) 1.3185(4) 1.0126(8)
C4C C 0.6815(4) 0.8572(5) 1.0126(8)
C5B C 1.3075(4) 1.1030(4) 0.9418(6)
C5A C 0.8970(4) 1.3075(4) 0.9418(6)
C5C C 0.6925(4) 0.8970(4) 0.9418(6)
N2B N 1.1846(3) 0.9907(3) 0.9741(5)
N2A N 1.0093(3) 1.1846(3) 0.9741(5)
N2C N 0.8154(3) 1.0093(3) 0.9741(5)
N3B N 1.1444(4) 0.9584(3) 1.0043(7)
N3A N 1.0416(3) 1.1444(4) 1.0043(7)
N3C N 0.8556(4) 1.0416(3) 1.0043(7)
C6B C 1.1259(4) 0.9704(4) 1.0945(8)
C6A C 1.0296(4) 1.1259(4) 1.0945(8)
C6C C 0.8741(4) 1.0296(4) 1.0945(8)
H3B H 1.0966 0.9530 1.1291
H3A H 1.0470 1.0966 1.1291
H3C H 0.9034 1.0470 1.1291
C7B C 1.1573(5) 1.0129(4) 1.1287(8)
C7A C 0.9871(4) 1.1573(5) 1.1287(8)
C7C C 0.8427(5) 0.9871(4) 1.1287(8)
H4B H 1.1559 1.0300 1.1928
H4A H 0.9700 1.1559 1.1928
H4C H 0.8441 0.9700 1.1928
C8B C 1.1930(3) 1.0261(3) 1.0454(6)
C8A C 0.9739(3) 1.1930(3) 1.0454(6)
C8C C 0.8070(3) 0.9739(3) 1.0454(6)
C9B C 1.1256(4) 0.9150(4) 0.9373(8)
C9A C 1.0850(4) 1.1256(4) 0.9373(8)
C9C C 0.8744(4) 1.0850(4) 0.9373(8)
H5C H 0.8838 1.0679 0.8721
H5A H 1.0679 1.1162 0.8721
H5B H 1.1162 0.9321 0.8721
H6C H 0.9088 1.1000 0.9656
H6A H 1.1000 1.0912 0.9656
H6B H 1.0912 0.9000 0.9656
C10B C 1.08637(13) 0.88203(13) 0.7370(2)
C10A C 1.11797(13) 1.08637(13) 0.7370(2)
C10C C 0.91363(13) 1.11797(13) 0.7370(2)
H7B H 1.0699 0.8830 0.8050
H7A H 1.1170 1.0699 0.8050
H7C H 0.9301 1.1170 0.8050
H8B H 1.0952 0.9203 0.7180
H8A H 1.0797 1.0952 0.7180
H8C H 0.9048 1.0797 0.7180
C11B C 1.16365(13) 0.86686(13) 0.9159(2)
C11A C 1.13314(13) 1.16365(13) 0.9159(2)
C11C C 0.83635(13) 1.13314(13) 0.9159(2)
C12C C 0.80331(13) 1.14278(13) 0.9992(2)
C12A C 1.14278(13) 1.19669(13) 0.9992(2)
C12B C 1.19669(13) 0.85722(13) 0.9992(2)
H9C H 0.8103 1.1241 1.0605
H9A H 1.1241 1.1897 1.0605
H9B H 1.1897 0.8759 1.0605
C13C C 0.76007(13) 1.17973(13) 0.9927(2)
C13A C 1.17973(13) 1.23993(13) 0.9927(2)
C13B C 1.23993(13) 0.82027(13) 0.9927(2)
H10C H 0.7375 1.1863 1.0496
H10A H 1.1863 1.2625 1.0496
H10B H 1.2625 0.8137 1.0496
C14C C 0.74986(13) 1.20703(13) 0.9029(2)
C14A C 1.20703(13) 1.25014(13) 0.9029(2)
C14B C 1.25014(13) 0.79297(13) 0.9029(2)
H11C H 0.7203 1.2323 0.8984
H11A H 1.2323 1.2797 0.8984
H11B H 1.2797 0.7677 0.8984
C15C C 0.78290(13) 1.19738(13) 0.8196(2)
C15A C 1.19738(13) 1.21710(13) 0.8196(2)
C15B C 1.21710(13) 0.80262(13) 0.8196(2)
C16B C 1.17386(13) 0.83956(13) 0.8261(2)
C16A C 1.16044(13) 1.17386(13) 0.8261(2)
C16C C 0.82614(13) 1.16044(13) 0.8261(2)
C17B C 1.14081(13) 0.84921(13) 0.7429(2)
C17A C 1.15079(13) 1.14081(13) 0.7429(2)
C17C C 0.85919(13) 1.15079(13) 0.7429(2)
C18C C 0.84898(13) 1.17809(13) 0.6531(2)
C18A C 1.17809(13) 1.15102(13) 0.6531(2)
C18B C 1.15102(13) 0.82191(13) 0.6531(2)
H12C H 0.8716 1.1715 0.5962
H12A H 1.1715 1.1284 0.5962
H12B H 1.1284 0.8285 0.5962
C19C C 0.80573(13) 1.21503(13) 0.6466(2)
C19A C 1.21503(13) 1.19427(13) 0.6466(2)
C19B C 1.19427(13) 0.78497(13) 0.6466(2)
H13C H 0.7988 1.2337 0.5852
H13A H 1.2337 1.2012 0.5852
H13B H 1.2012 0.7663 0.5852
C20C C 0.77269(13) 1.22468(13) 0.7298(2)
C20A C 1.22468(13) 1.22731(13) 0.7298(2)
C20B C 1.22731(13) 0.77532(13) 0.7298(2)
H14C H 0.7431 1.2499 0.7254
H14A H 1.2499 1.2569 0.7254
H14B H 1.2569 0.7501 0.7254
N4B N 1.1842(3) 1.0173(3) 0.6914(6)
N4A N 0.9827(3) 1.1842(3) 0.6914(6)
N4C N 0.8158(3) 0.9827(3) 0.6914(6)
N5B N 1.0454(3) 0.8614(3) 0.6671(6)
N5A N 1.1386(3) 1.0454(3) 0.6671(6)
N5C N 0.9546(3) 1.1386(3) 0.6671(6)
C21C C 0.9701(5) 1.1177(5) 0.5814(9)
C21A C 1.1177(5) 1.0299(5) 0.5814(9)
C21B C 1.0299(5) 0.8823(5) 0.5814(9)
H15C H 0.9560 1.0852 0.5519
H15A H 1.0852 1.0440 0.5519
H15B H 1.0440 0.9148 0.5519
C22C C 1.0108(4) 1.1510(4) 0.5402(7)
C22A C 1.1510(4) 0.9892(4) 0.5402(7)
C22B C 0.9892(4) 0.8490(4) 0.5402(7)
H16C H 1.0298 1.1466 0.4784
H16A H 1.1466 0.9702 0.4784
H16B H 0.9702 0.8534 0.4784
C23C C 0.8060(3) 1.0171(4) 0.6150(6)
C23A C 1.0171(4) 1.1940(3) 0.6150(6)
C23B C 1.1940(3) 0.9829(4) 0.6150(6)
N6C N 0.7300(3) 1.0537(3) 0.7046(5)
N6A N 1.0537(3) 1.2700(3) 0.7046(5)
N6B N 1.2700(3) 0.9463(3) 0.7046(5)
C24C C 0.7583(3) 1.0534(4) 0.6173(6)
C24A C 1.0534(4) 1.2417(3) 0.6173(6)
C24B C 1.2417(3) 0.9466(4) 0.6173(6)
C25C C 0.7451(4) 1.0825(4) 0.5367(7)
C25A C 1.0825(4) 1.2549(4) 0.5367(7)
C25B C 1.2549(4) 0.9175(4) 0.5367(7)
H17C H 0.7682 1.0828 0.4792
H17A H 1.0828 1.2318 0.4792
H17B H 1.2318 0.9172 0.4792
C26C C 0.6954(5) 1.1134(5) 0.5381(7)
C26A C 1.1134(5) 1.3046(5) 0.5381(7)
C26B C 1.3046(5) 0.8866(5) 0.5381(7)
H18C H 0.6842 1.1347 0.4819
H18A H 1.1347 1.3158 0.4819
H18B H 1.3158 0.8653 0.4819
C27C C 0.6633(4) 1.1110(4) 0.6273(6)
C27A C 1.1110(4) 1.3367(4) 0.6273(6)
C27B C 1.3367(4) 0.8890(4) 0.6273(6)
C28C C 0.6827(4) 1.0815(4) 0.7074(6)
C28A C 1.0815(4) 1.3173(4) 0.7074(6)
C28B C 1.3173(4) 0.9185(4) 0.7074(6)
C29B C 1.4288(4) 1.0905(4) 1.0048(9)
C29A C 0.9095(4) 1.4288(4) 1.0048(9)
C29C C 0.5712(4) 0.9095(4) 1.0048(9)
H19B H 1.4340 1.0952 1.0773
H19A H 0.9048 1.4340 1.0773
H19C H 0.5660 0.9048 1.0773
H20B H 1.4626 1.0762 0.9748
H20A H 0.9238 1.4626 0.9748
H20C H 0.5374 0.9238 0.9748
H21B H 1.3988 1.0646 0.9928
H21A H 0.9354 1.3988 0.9928
H21C H 0.6012 0.9354 0.9928
C30B C 1.4151(3) 1.1448(4) 0.9582(6)
C30A C 0.8552(4) 1.4151(3) 0.9582(6)
C30C C 0.5849(3) 0.8552(4) 0.9582(6)
C31B C 1.4691(4) 1.1785(6) 0.9558(10)
C31A C 0.8215(6) 1.4691(4) 0.9558(10)
C31C C 0.5309(4) 0.8215(6) 0.9558(10)
H22B H 1.4940 1.1650 1.0081
H22A H 0.8350 1.4940 1.0081
H22C H 0.5060 0.8350 1.0081
H23B H 1.4608 1.2173 0.9680
H23A H 0.7827 1.4608 0.9680
H23C H 0.5392 0.7827 0.9680
H24B H 1.4865 1.1745 0.8899
H24A H 0.8255 1.4865 0.8899
H24C H 0.5135 0.8255 0.8899
C32B C 1.3420(4) 1.0998(4) 0.8502(7)
C32A C 0.9002(4) 1.3420(4) 0.8502(7)
C32C C 0.6580(4) 0.9002(4) 0.8502(7)
H25B H 1.3187 1.1039 0.7897
H25A H 0.8961 1.3187 0.7897
H25C H 0.6813 0.8961 0.7897
H26B H 1.3602 1.0635 0.8469
H26A H 0.9365 1.3602 0.8469
H26C H 0.6398 0.9365 0.8469
C33B C 1.3860(3) 1.1457(3) 0.8517(6)
C33A C 0.8543(3) 1.3860(3) 0.8517(6)
C33C C 0.6140(3) 0.8543(3) 0.8517(6)
H27B H 1.4108 1.1476 0.7919
H27A H 0.8524 1.4108 0.7919
H27C H 0.5892 0.8524 0.7919
C34B C 1.3577(4) 1.2012(4) 0.8842(7)
C34A C 0.7988(4) 1.3577(4) 0.8842(7)
C34C C 0.6423(4) 0.7988(4) 0.8842(7)
H28B H 1.3190 1.2047 0.8627
H28A H 0.7953 1.3190 0.8627
H28C H 0.6810 0.7953 0.8627
H29B H 1.3790 1.2345 0.8675
H29A H 0.7655 1.3790 0.8675
H29C H 0.6210 0.7655 0.8675
C35B C 1.3654(4) 1.1801(4) 0.9977(6)
C35A C 0.8199(4) 1.3654(4) 0.9977(6)
C35C C 0.6346(4) 0.8199(4) 0.9977(6)
H30B H 1.3730 1.2081 1.0509
H30A H 0.7919 1.3730 1.0509
H30C H 0.6270 0.7919 1.0509
C36C C 0.5672(5) 1.0428(4) 0.6553(10)
C36A C 1.0428(4) 1.4328(5) 0.6553(10)
C36B C 1.4328(5) 0.9572(4) 0.6553(10)
H31C H 0.5483 1.0409 0.5904
H31A H 1.0409 1.4517 0.5904
H31B H 1.4517 0.9591 0.5904
H32C H 0.5468 1.0214 0.7052
H32A H 1.0214 1.4532 0.7052
H32B H 1.4532 0.9786 0.7052
H33C H 0.6043 1.0279 0.6483
H33A H 1.0279 1.3957 0.6483
H33B H 1.3957 0.9721 0.6483
C37C C 0.5705(3) 1.1012(4) 0.6888(7)
C37A C 1.1012(4) 1.4295(3) 0.6888(7)
C37B C 1.4295(3) 0.8988(4) 0.6888(7)
C38C C 0.5103(4) 1.1235(6) 0.6878(10)
C38A C 1.1235(6) 1.4897(4) 0.6878(10)
C38B C 1.4897(4) 0.8765(6) 0.6878(10)
H34C H 0.5102 1.1619 0.7099
H34A H 1.1619 1.4898 0.7099
H34B H 1.4898 0.8381 0.7099
H35C H 0.4877 1.1016 0.7334
H35A H 1.1016 1.5123 0.7334
H35B H 1.5123 0.8984 0.7334
H36C H 0.4955 1.1211 0.6194
H36A H 1.1211 1.5045 0.6194
H36B H 1.5045 0.8789 0.6194
C39C C 0.6514(4) 1.0821(4) 0.8051(6)
C39A C 1.0821(4) 1.3486(4) 0.8051(6)
C39B C 1.3486(4) 0.9179(4) 0.8051(6)
H37C H 0.6744 1.0983 0.8587
H37A H 1.0983 1.3256 0.8587
H37B H 1.3256 0.9017 0.8587
H38C H 0.6419 1.0442 0.8249
H38A H 1.0442 1.3581 0.8249
H38B H 1.3581 0.9558 0.8249
C40C C 0.5989(3) 1.1160(4) 0.7923(6)
C40A C 1.1160(4) 1.4011(3) 0.7923(6)
C40B C 1.4011(3) 0.8840(4) 0.7923(6)
H39C H 0.5740 1.1171 0.8521
H39A H 1.1171 1.4260 0.8521
H39B H 1.4260 0.8829 0.8521
C41C C 0.6140(4) 1.1736(3) 0.7452(7)
C41A C 1.1736(3) 1.3860(4) 0.7452(7)
C41B C 1.3860(4) 0.8264(3) 0.7452(7)
H40C H 0.6509 1.1871 0.7633
H40A H 1.1871 1.3491 0.7633
H40B H 1.3491 0.8129 0.7633
H41C H 0.5857 1.2022 0.7549
H41A H 1.2022 1.4143 0.7549
H41B H 1.4143 0.7978 0.7549
C42C C 0.6110(4) 1.1431(4) 0.6389(6)
C42A C 1.1431(4) 1.3890(4) 0.6389(6)
C42B C 1.3890(4) 0.8569(4) 0.6389(6)
H42C H 0.5977 1.1645 0.5797
H42A H 1.1645 1.4023 0.5797
H42B H 1.4023 0.8355 0.5797
Ag2 Ag 0.75792(4) 0.49569(4) 0.33736(9)
N7 N 0.7831(3) 0.5508(4) 0.2032(7)
C43 C 0.7483(5) 0.5560(4) 0.1263(9)
C44 C 0.7586(5) 0.5847(4) 0.0395(10)
H43 H 0.7323 0.5870 -0.0130
C45 C 0.8071(5) 0.6091(5) 0.0324(8)
H44 H 0.8163 0.6288 -0.0268
C46 C 0.8444(5) 0.6059(4) 0.1104(8)
C47 C 0.8293(5) 0.5790(5) 0.1941(8)
N8 N 0.6879(4) 0.4872(4) 0.2103(9)
N9 N 0.6380(4) 0.4614(4) 0.1951(11)
C48 C 0.6153(6) 0.4855(6) 0.1171(15)
H45 H 0.5791 0.4785 0.0938
C49 C 0.6504(6) 0.5213(7) 0.0747(14)
H46 H 0.6443 0.5432 0.0167
C50 C 0.6939(5) 0.5196(5) 0.1290(12)
C51 C 0.6170(5) 0.4215(5) 0.2657(12)
H47 H 0.5771 0.4174 0.2551
H48 H 0.6228 0.4354 0.3348
C52 C 0.57375(16) 0.36995(18) 0.4375(3)
H49 H 0.5840 0.4076 0.4580
H50 H 0.5573 0.3726 0.3697
C53 C 0.64560(16) 0.36241(18) 0.2554(3)
C54 C 0.67162(16) 0.35466(18) 0.1635(3)
H51 H 0.6643 0.3788 0.1091
C55 C 0.70834(16) 0.31159(18) 0.1513(3)
H52 H 0.7261 0.3063 0.0885
C56 C 0.71903(16) 0.27626(18) 0.2309(3)
H53 H 0.7441 0.2468 0.2225
C57 C 0.69300(16) 0.28400(18) 0.3228(3)
C58 C 0.65628(16) 0.32708(18) 0.3350(3)
C59 C 0.63026(16) 0.33482(18) 0.4269(3)
C60 C 0.64095(16) 0.29949(18) 0.5065(3)
H54 H 0.6232 0.3048 0.5693
C61 C 0.67766(16) 0.25642(18) 0.4942(3)
H55 H 0.6850 0.2323 0.5486
C62 C 0.70369(16) 0.24867(18) 0.4024(3)
H56 H 0.7288 0.2192 0.3940
N10 N 0.7001(4) 0.5055(5) 0.4805(9)
N11 N 0.5344(7) 0.3527(7) 0.5005(13)
C63 C 0.5242(11) 0.3641(10) 0.6011(19)
H57 H 0.5405 0.3924 0.6398
C64 C 0.4842(10) 0.3246(9) 0.6360(17)
H58 H 0.4693 0.3209 0.7016
C65 C 0.7058(6) 0.4728(5) 0.5538(12)
N12 N 0.7855(4) 0.4341(4) 0.4598(8)
C66 C 0.7517(6) 0.4342(5) 0.5403(9)
C67 C 0.7650(6) 0.3954(5) 0.6202(9)
H59 H 0.7415 0.3922 0.6768
C68 C 0.8113(8) 0.3634(6) 0.6146(9)
H60 H 0.8201 0.3386 0.6673
C69 C 0.8440(6) 0.3678(5) 0.5331(10)
C70 C 0.8297(5) 0.4020(5) 0.4559(9)
C71 C 0.8727(6) 0.6941(4) 0.2460(9)
H61 H 0.8386 0.6736 0.2566
H62 H 0.8654 0.7257 0.2024
H63 H 0.8868 0.7069 0.3108
C72 C 0.9144(4) 0.6574(3) 0.1970(8)
C73 C 0.9679(5) 0.6916(5) 0.1879(12)
H64 H 0.9722 0.7146 0.2478
H65 H 0.9659 0.7150 0.1280
H66 H 0.9994 0.6668 0.1820
C74 C 0.8710(4) 0.5738(5) 0.2790(9)
H67 H 0.8763 0.5346 0.2961
H68 H 0.8572 0.5929 0.3396
C75 C 0.9264(4) 0.5991(4) 0.2461(7)
H69 H 0.9570 0.5975 0.2962
C76 C 0.9398(5) 0.5777(5) 0.1359(9)
H70 H 0.9258 0.5405 0.1213
H71 H 0.9788 0.5814 0.1163
C77 C 0.9012(5) 0.6263(4) 0.0964(6)
H72 H 0.9108 0.6445 0.0313
C78 C 0.8399(4) 0.2811(4) 0.3764(8)
H73 H 0.8111 0.3091 0.3796
H74 H 0.8296 0.2498 0.4187
H75 H 0.8443 0.2687 0.3067
C79 C 0.8929(4) 0.3048(3) 0.4133(7)
C80 C 0.9373(5) 0.2600(4) 0.3995(10)
H76 H 0.9419 0.2521 0.3277
H77 H 0.9260 0.2265 0.4346
H78 H 0.9722 0.2730 0.4274
C81 C 0.8637(4) 0.4003(5) 0.3574(10)
H79 H 0.8400 0.3878 0.3015
H80 H 0.8768 0.4376 0.3412
C82 C 0.9135(4) 0.3613(4) 0.3666(8)
H81 H 0.9383 0.3588 0.3068
C83 C 0.9419(5) 0.3733(5) 0.4720(11)
H82 H 0.9388 0.4118 0.4947
H83 H 0.9801 0.3598 0.4773
C84 C 0.8967(5) 0.3327(5) 0.5195(6)
H84 H 0.9083 0.3092 0.5773
Ag2B Ag 0.50431(4) 0.75792(4) 0.33736(9)
Ag2A Ag 0.24208(4) 0.50431(4) 0.33736(9)
Ag2C Ag 0.49569(4) 0.24208(4) 0.33736(9)
N7B N 0.4492(4) 0.7831(3) 0.2032(7)
N7A N 0.2169(3) 0.4492(4) 0.2032(7)
N7C N 0.5508(4) 0.2169(3) 0.2032(7)
C43B C 0.4440(4) 0.7483(5) 0.1263(9)
C43A C 0.2517(5) 0.4440(4) 0.1263(9)
C43C C 0.5560(4) 0.2517(5) 0.1263(9)
C44B C 0.4153(4) 0.7586(5) 0.0395(10)
C44A C 0.2414(5) 0.4153(4) 0.0395(10)
C44C C 0.5847(4) 0.2414(5) 0.0395(10)
H43B H 0.4130 0.7323 -0.0130
H43A H 0.2677 0.4130 -0.0130
H43C H 0.5870 0.2677 -0.0130
C45B C 0.3909(5) 0.8071(5) 0.0324(8)
C45A C 0.1929(5) 0.3909(5) 0.0324(8)
C45C C 0.6091(5) 0.1929(5) 0.0324(8)
H44B H 0.3712 0.8163 -0.0268
H44A H 0.1837 0.3712 -0.0268
H44C H 0.6288 0.1837 -0.0268
C46B C 0.3941(4) 0.8444(5) 0.1104(8)
C46A C 0.1556(5) 0.3941(4) 0.1104(8)
C46C C 0.6059(4) 0.1556(5) 0.1104(8)
C47B C 0.4210(5) 0.8293(5) 0.1941(8)
C47A C 0.1707(5) 0.4210(5) 0.1941(8)
C47C C 0.5790(5) 0.1707(5) 0.1941(8)
N8B N 0.5128(4) 0.6879(4) 0.2103(9)
N8A N 0.3121(4) 0.5128(4) 0.2103(9)
N8C N 0.4872(4) 0.3121(4) 0.2103(9)
N9B N 0.5386(4) 0.6380(4) 0.1951(11)
N9A N 0.3620(4) 0.5386(4) 0.1951(11)
N9C N 0.4614(4) 0.3620(4) 0.1951(11)
C48B C 0.5145(6) 0.6153(6) 0.1171(15)
C48A C 0.3847(6) 0.5145(6) 0.1171(15)
C48C C 0.4855(6) 0.3847(6) 0.1171(15)
H45B H 0.5215 0.5791 0.0938
H45A H 0.4209 0.5215 0.0938
H45C H 0.4785 0.4209 0.0938
C49B C 0.4787(7) 0.6504(6) 0.0747(14)
C49A C 0.3496(6) 0.4787(7) 0.0747(14)
C49C C 0.5213(7) 0.3496(6) 0.0747(14)
H46B H 0.4568 0.6443 0.0167
H46A H 0.3557 0.4568 0.0167
H46C H 0.5432 0.3557 0.0167
C50B C 0.4804(5) 0.6939(5) 0.1290(12)
C50A C 0.3061(5) 0.4804(5) 0.1290(12)
C50C C 0.5196(5) 0.3061(5) 0.1290(12)
C51B C 0.5785(5) 0.6170(5) 0.2657(12)
C51A C 0.3830(5) 0.5785(5) 0.2657(12)
C51C C 0.4215(5) 0.3830(5) 0.2657(12)
H47C H 0.4174 0.4229 0.2551
H47A H 0.4229 0.5826 0.2551
H47B H 0.5826 0.5771 0.2551
H48C H 0.4354 0.3772 0.3348
H48A H 0.3772 0.5646 0.3348
H48B H 0.5646 0.6228 0.3348
C52B C 0.63005(18) 0.57375(16) 0.4375(3)
C52A C 0.42625(16) 0.63005(18) 0.4375(3)
C52C C 0.36995(18) 0.42625(16) 0.4375(3)
H49B H 0.5924 0.5840 0.4580
H49A H 0.4160 0.5924 0.4580
H49C H 0.4076 0.4160 0.4580
H50B H 0.6274 0.5573 0.3697
H50A H 0.4427 0.6274 0.3697
H50C H 0.3726 0.4427 0.3697
C53B C 0.63759(18) 0.64560(16) 0.2554(3)
C53A C 0.35440(16) 0.63759(18) 0.2554(3)
C53C C 0.36241(18) 0.35440(16) 0.2554(3)
C54C C 0.35466(18) 0.32838(16) 0.1635(3)
C54A C 0.32838(16) 0.64534(18) 0.1635(3)
C54B C 0.64534(18) 0.67162(16) 0.1635(3)
H51C H 0.3788 0.3357 0.1091
H51A H 0.3357 0.6212 0.1091
H51B H 0.6212 0.6643 0.1091
C55C C 0.31159(18) 0.29166(16) 0.1513(3)
C55A C 0.29166(16) 0.68841(18) 0.1513(3)
C55B C 0.68841(18) 0.70834(16) 0.1513(3)
H52C H 0.3063 0.2739 0.0885
H52A H 0.2739 0.6937 0.0885
H52B H 0.6937 0.7261 0.0885
C56C C 0.27626(18) 0.28097(16) 0.2309(3)
C56A C 0.28097(16) 0.72374(18) 0.2309(3)
C56B C 0.72374(18) 0.71903(16) 0.2309(3)
H53C H 0.2468 0.2559 0.2225
H53A H 0.2559 0.7532 0.2225
H53B H 0.7532 0.7441 0.2225
C57C C 0.28400(18) 0.30700(16) 0.3228(3)
C57A C 0.30700(16) 0.71600(18) 0.3228(3)
C57B C 0.71600(18) 0.69300(16) 0.3228(3)
C58B C 0.67292(18) 0.65628(16) 0.3350(3)
C58A C 0.34372(16) 0.67292(18) 0.3350(3)
C58C C 0.32708(18) 0.34372(16) 0.3350(3)
C59B C 0.66518(18) 0.63026(16) 0.4269(3)
C59A C 0.36974(16) 0.66518(18) 0.4269(3)
C59C C 0.33482(18) 0.36974(16) 0.4269(3)
C60C C 0.29949(18) 0.35905(16) 0.5065(3)
C60A C 0.35905(16) 0.70051(18) 0.5065(3)
C60B C 0.70051(18) 0.64095(16) 0.5065(3)
H54C H 0.3048 0.3768 0.5693
H54A H 0.3768 0.6952 0.5693
H54B H 0.6952 0.6232 0.5693
C61C C 0.25642(18) 0.32234(16) 0.4942(3)
C61A C 0.32234(16) 0.74358(18) 0.4942(3)
C61B C 0.74358(18) 0.67766(16) 0.4942(3)
H55C H 0.2323 0.3150 0.5486
H55A H 0.3150 0.7677 0.5486
H55B H 0.7677 0.6850 0.5486
C62C C 0.24867(18) 0.29631(16) 0.4024(3)
C62A C 0.29631(16) 0.75133(18) 0.4024(3)
C62B C 0.75133(18) 0.70369(16) 0.4024(3)
H56C H 0.2192 0.2712 0.3940
H56A H 0.2712 0.7808 0.3940
H56B H 0.7808 0.7288 0.3940
N10B N 0.4945(5) 0.7001(4) 0.4805(9)
N10A N 0.2999(4) 0.4945(5) 0.4805(9)
N10C N 0.5055(5) 0.2999(4) 0.4805(9)
N11B N 0.6473(7) 0.5344(7) 0.5005(13)
N11A N 0.4656(7) 0.6473(7) 0.5005(13)
N11C N 0.3527(7) 0.4656(7) 0.5005(13)
C63C C 0.3641(10) 0.4758(11) 0.6011(19)
C63A C 0.4758(11) 0.6359(10) 0.6011(19)
C63B C 0.6359(10) 0.5242(11) 0.6011(19)
H57C H 0.3924 0.4595 0.6398
H57A H 0.4595 0.6076 0.6398
H57B H 0.6076 0.5405 0.6398
C64C C 0.3246(9) 0.5158(10) 0.6360(17)
C64A C 0.5158(10) 0.6754(9) 0.6360(17)
C64B C 0.6754(9) 0.4842(10) 0.6360(17)
H58C H 0.3209 0.5307 0.7016
H58A H 0.5307 0.6791 0.7016
H58B H 0.6791 0.4693 0.7016
C65C C 0.4728(5) 0.2942(6) 0.5538(12)
C65A C 0.2942(6) 0.5272(5) 0.5538(12)
C65B C 0.5272(5) 0.7058(6) 0.5538(12)
N12C N 0.4341(4) 0.2145(4) 0.4598(8)
N12A N 0.2145(4) 0.5659(4) 0.4598(8)
N12B N 0.5659(4) 0.7855(4) 0.4598(8)
C66C C 0.4342(5) 0.2483(6) 0.5403(9)
C66A C 0.2483(6) 0.5658(5) 0.5403(9)
C66B C 0.5658(5) 0.7517(6) 0.5403(9)
C67C C 0.3954(5) 0.2350(6) 0.6202(9)
C67A C 0.2350(6) 0.6046(5) 0.6202(9)
C67B C 0.6046(5) 0.7650(6) 0.6202(9)
H59C H 0.3922 0.2585 0.6768
H59A H 0.2585 0.6078 0.6768
H59B H 0.6078 0.7415 0.6768
C68C C 0.3634(6) 0.1887(8) 0.6146(9)
C68A C 0.1887(8) 0.6366(6) 0.6146(9)
C68B C 0.6366(6) 0.8113(8) 0.6146(9)
H60C H 0.3386 0.1799 0.6673
H60A H 0.1799 0.6614 0.6673
H60B H 0.6614 0.8201 0.6673
C69C C 0.3678(5) 0.1560(6) 0.5331(10)
C69A C 0.1560(6) 0.6322(5) 0.5331(10)
C69B C 0.6322(5) 0.8440(6) 0.5331(10)
C70C C 0.4020(5) 0.1703(5) 0.4559(9)
C70A C 0.1703(5) 0.5980(5) 0.4559(9)
C70B C 0.5980(5) 0.8297(5) 0.4559(9)
C71B C 0.3059(4) 0.8727(6) 0.2460(9)
C71A C 0.1273(6) 0.3059(4) 0.2460(9)
C71C C 0.6941(4) 0.1273(6) 0.2460(9)
H61B H 0.3264 0.8386 0.2566
H61A H 0.1614 0.3264 0.2566
H61C H 0.6736 0.1614 0.2566
H62B H 0.2743 0.8654 0.2024
H62A H 0.1346 0.2743 0.2024
H62C H 0.7257 0.1346 0.2024
H63B H 0.2931 0.8868 0.3108
H63A H 0.1132 0.2931 0.3108
H63C H 0.7069 0.1132 0.3108
C72B C 0.3426(3) 0.9144(4) 0.1970(8)
C72A C 0.0856(4) 0.3426(3) 0.1970(8)
C72C C 0.6574(3) 0.0856(4) 0.1970(8)
C73B C 0.3084(5) 0.9679(5) 0.1879(12)
C73A C 0.0321(5) 0.3084(5) 0.1879(12)
C73C C 0.6916(5) 0.0321(5) 0.1879(12)
H64B H 0.2854 0.9722 0.2478
H64A H 0.0278 0.2854 0.2478
H64C H 0.7146 0.0278 0.2478
H65B H 0.2850 0.9659 0.1280
H65A H 0.0341 0.2850 0.1280
H65C H 0.7150 0.0341 0.1280
H66B H 0.3332 0.9994 0.1820
H66A H 0.0006 0.3332 0.1820
H66C H 0.6668 0.0006 0.1820
C74B C 0.4262(5) 0.8710(4) 0.2790(9)
C74A C 0.1290(4) 0.4262(5) 0.2790(9)
C74C C 0.5738(5) 0.1290(4) 0.2790(9)
H67B H 0.4654 0.8763 0.2961
H67A H 0.1237 0.4654 0.2961
H67C H 0.5346 0.1237 0.2961
H68B H 0.4071 0.8572 0.3396
H68A H 0.1428 0.4071 0.3396
H68C H 0.5929 0.1428 0.3396
C75B C 0.4009(4) 0.9264(4) 0.2461(7)
C75A C 0.0736(4) 0.4009(4) 0.2461(7)
C75C C 0.5991(4) 0.0736(4) 0.2461(7)
H69B H 0.4025 0.9570 0.2962
H69A H 0.0430 0.4025 0.2962
H69C H 0.5975 0.0430 0.2962
C76B C 0.4223(5) 0.9398(5) 0.1359(9)
C76A C 0.0602(5) 0.4223(5) 0.1359(9)
C76C C 0.5777(5) 0.0602(5) 0.1359(9)
H70B H 0.4595 0.9258 0.1213
H70A H 0.0742 0.4595 0.1213
H70C H 0.5405 0.0742 0.1213
H71B H 0.4186 0.9788 0.1163
H71A H 0.0212 0.4186 0.1163
H71C H 0.5814 0.0212 0.1163
C77B C 0.3737(4) 0.9012(5) 0.0964(6)
C77A C 0.0988(5) 0.3737(4) 0.0964(6)
C77C C 0.6263(4) 0.0988(5) 0.0964(6)
H72B H 0.3555 0.9108 0.0313
H72A H 0.0892 0.3555 0.0313
H72C H 0.6445 0.0892 0.0313
C78C C 0.2811(4) 0.1601(4) 0.3764(8)
C78A C 0.1601(4) 0.7189(4) 0.3764(8)
C78B C 0.7189(4) 0.8399(4) 0.3764(8)
H73C H 0.3091 0.1889 0.3796
H73A H 0.1889 0.6909 0.3796
H73B H 0.6909 0.8111 0.3796
H74C H 0.2498 0.1704 0.4187
H74A H 0.1704 0.7502 0.4187
H74B H 0.7502 0.8296 0.4187
H75C H 0.2687 0.1557 0.3067
H75A H 0.1557 0.7313 0.3067
H75B H 0.7313 0.8443 0.3067
C79C C 0.3048(3) 0.1071(4) 0.4133(7)
C79A C 0.1071(4) 0.6952(3) 0.4133(7)
C79B C 0.6952(3) 0.8929(4) 0.4133(7)
C80C C 0.2600(4) 0.0627(5) 0.3995(10)
C80A C 0.0627(5) 0.7400(4) 0.3995(10)
C80B C 0.7400(4) 0.9373(5) 0.3995(10)
H76C H 0.2521 0.0581 0.3277
H76A H 0.0581 0.7479 0.3277
H76B H 0.7479 0.9419 0.3277
H77C H 0.2265 0.0740 0.4346
H77A H 0.0740 0.7735 0.4346
H77B H 0.7735 0.9260 0.4346
H78C H 0.2730 0.0278 0.4274
H78A H 0.0278 0.7270 0.4274
H78B H 0.7270 0.9722 0.4274
C81C C 0.4003(5) 0.1363(4) 0.3574(10)
C81A C 0.1363(4) 0.5997(5) 0.3574(10)
C81B C 0.5997(5) 0.8637(4) 0.3574(10)
H79C H 0.3878 0.1600 0.3015
H79A H 0.1600 0.6122 0.3015
H79B H 0.6122 0.8400 0.3015
H80C H 0.4376 0.1232 0.3412
H80A H 0.1232 0.5624 0.3412
H80B H 0.5624 0.8768 0.3412
C82C C 0.3613(4) 0.0865(4) 0.3666(8)
C82A C 0.0865(4) 0.6387(4) 0.3666(8)
C82B C 0.6387(4) 0.9135(4) 0.3666(8)
H81C H 0.3588 0.0617 0.3068
H81A H 0.0617 0.6412 0.3068
H81B H 0.6412 0.9383 0.3068
C83C C 0.3733(5) 0.0581(5) 0.4720(11)
C83A C 0.0581(5) 0.6267(5) 0.4720(11)
C83B C 0.6267(5) 0.9419(5) 0.4720(11)
H82C H 0.4118 0.0612 0.4947
H82A H 0.0612 0.5882 0.4947
H82B H 0.5882 0.9388 0.4947
H83C H 0.3598 0.0199 0.4773
H83A H 0.0199 0.6402 0.4773
H83B H 0.6402 0.9801 0.4773
C84C C 0.3327(5) 0.1033(5) 0.5195(6)
C84A C 0.1033(5) 0.6673(5) 0.5195(6)
C84B C 0.6673(5) 0.8967(5) 0.5195(6)
H84C H 0.3092 0.0917 0.5773
H84A H 0.0917 0.6908 0.5773
H84B H 0.6908 0.9083 0.5773
B1 B 1.0000 1.0000 0.858(2)
F1 F 0.9998(7) 0.9487(6) 0.8106(12)
F1A F 1.0002(7) 1.0513(6) 0.8106(12)
F1B F 1.0513(6) 0.9998(7) 0.8106(12)
F1C F 0.9487(6) 1.0002(7) 0.8106(12)
B2 B 0.5000 0.5000 0.387(3)
F3 F 0.5462(12) 0.4933(19) 0.445(2)
F3A F 0.4538(12) 0.5067(19) 0.445(2)
F3B F 0.5067(19) 0.5462(12) 0.445(2)
F3C F 0.4933(19) 0.4538(12) 0.445(2)
B3 B 1.1457(7) 0.8821(6) 1.3264(11)
F5 F 1.0913(6) 0.8944(10) 1.3177(13)
F6 F 1.1775(5) 0.9283(4) 1.3247(8)
F7 F 1.1586(9) 0.8518(6) 1.2449(8)
F8 F 1.1570(7) 0.8548(6) 1.4114(8)
B4 B 0.6433(7) 0.3516(8) 0.8435(11)
F9 F 0.5897(6) 0.3417(12) 0.8402(15)
F10 F 0.6698(8) 0.3999(6) 0.8442(16)
F11 F 0.6577(8) 0.3418(11) 0.7498(10)
F12 F 0.6664(7) 0.3206(7) 0.9151(11)
O1 O 0.5000 0.5000 -0.040(3)
loop_
_geom_bond_atom_site_label_1
_geom_bond_atom_site_label_2
_geom_bond_site_symmetry_1
_geom_bond_site_symmetry_2
Ag1 N1 1_555 1_555
Ag2 N7 1_555 1_555
N1 C1 1_555 1_555
C1 C2 1_555 1_555
C2 H1 1_555 1_555
C3 C2 1_555 1_555
H2 C3 1_555 1_555
C4 C3 1_555 1_555
C5 N1 1_555 1_555
N2 Ag1 1_555 1_555
N3 N2 1_555 1_555
C6 N3 1_555 1_555
H3 C6 1_555 1_555
C7 C6 1_555 1_555
H4 C7 1_555 1_555
C8 C1 1_555 1_555
C9 N3 1_555 1_555
H5 C9 1_555 1_555
H6 C9 1_555 1_555
C10 H7 1_555 1_555
H8 C10 1_555 1_555
C11 C9 1_555 1_555
C12 C11 1_555 1_555
H9 C12 1_555 1_555
C13 C12 1_555 1_555
H10 C13 1_555 1_555
C14 C13 1_555 1_555
H11 C14 1_555 1_555
C15 C14 1_555 1_555
C16 C11 1_555 1_555
C17 C10 1_555 1_555
C18 C17 1_555 1_555
H12 C18 1_555 1_555
C19 C18 1_555 1_555
H13 C19 1_555 1_555
C20 C15 1_555 1_555
H14 C20 1_555 1_555
N4 Ag1 1_555 1_555
N5 C10 1_555 1_555
C21 N5 1_555 1_555
H15 C21 1_555 1_555
C22 C21 1_555 1_555
H16 C22 1_555 1_555
C23 N4 1_555 1_555
N6 Ag1 1_555 1_555
C24 C23 1_555 1_555
C25 C24 1_555 1_555
H17 C25 1_555 1_555
C26 C25 1_555 1_555
H18 C26 1_555 1_555
C27 C26 1_555 1_555
C28 N6 1_555 1_555
C29 H19 1_555 1_555
H20 C29 1_555 1_555
H21 C29 1_555 1_555
C30 C29 1_555 1_555
C31 C30 1_555 1_555
H22 C31 1_555 1_555
H23 C31 1_555 1_555
H24 C31 1_555 1_555
C32 C5 1_555 1_555
H25 C32 1_555 1_555
H26 C32 1_555 1_555
C33 C30 1_555 1_555
H27 C33 1_555 1_555
C34 C33 1_555 1_555
H28 C34 1_555 1_555
H29 C34 1_555 1_555
C35 C4 1_555 1_555
H30 C35 1_555 1_555
C36 H31 1_555 1_555
H32 C36 1_555 1_555
H33 C36 1_555 1_555
C37 C36 1_555 1_555
C38 C37 1_555 1_555
H34 C38 1_555 1_555
H35 C38 1_555 1_555
H36 C38 1_555 1_555
C39 C28 1_555 1_555
H37 C39 1_555 1_555
H38 C39 1_555 1_555
C40 C37 1_555 1_555
H39 C40 1_555 1_555
C41 C40 1_555 1_555
H40 C41 1_555 1_555
H41 C41 1_555 1_555
C42 C27 1_555 1_555
H42 C42 1_555 1_555
N7 C43 1_555 1_555
C43 C44 1_555 1_555
C44 H43 1_555 1_555
C45 C44 1_555 1_555
H44 C45 1_555 1_555
C46 C45 1_555 1_555
C47 N7 1_555 1_555
N8 Ag2 1_555 1_555
N9 N8 1_555 1_555
C48 N9 1_555 1_555
H45 C48 1_555 1_555
C49 C48 1_555 1_555
H46 C49 1_555 1_555
C50 C43 1_555 1_555
C51 N9 1_555 1_555
H47 C51 1_555 1_555
H48 C51 1_555 1_555
C52 H49 1_555 1_555
H50 C52 1_555 1_555
C53 C51 1_555 1_555
C54 C53 1_555 1_555
H51 C54 1_555 1_555
C55 C54 1_555 1_555
H52 C55 1_555 1_555
C56 C55 1_555 1_555
H53 C56 1_555 1_555
C57 C56 1_555 1_555
C58 C53 1_555 1_555
C59 C52 1_555 1_555
C60 C59 1_555 1_555
H54 C60 1_555 1_555
C61 C60 1_555 1_555
H55 C61 1_555 1_555
C62 C57 1_555 1_555
H56 C62 1_555 1_555
N10 Ag2 1_555 1_555
N11 C52 1_555 1_555
C63 N11 1_555 1_555
H57 C63 1_555 1_555
C64 C63 1_555 1_555
H58 C64 1_555 1_555
C65 N10 1_555 1_555
N12 Ag2 1_555 1_555
C66 C65 1_555 1_555
C67 C66 1_555 1_555
H59 C67 1_555 1_555
C68 C67 1_555 1_555
H60 C68 1_555 1_555
C69 C68 1_555 1_555
C70 N12 1_555 1_555
C71 H61 1_555 1_555
H62 C71 1_555 1_555
H63 C71 1_555 1_555
C72 C71 1_555 1_555
C73 C72 1_555 1_555
H64 C73 1_555 1_555
H65 C73 1_555 1_555
H66 C73 1_555 1_555
C74 C47 1_555 1_555
H67 C74 1_555 1_555
H68 C74 1_555 1_555
C75 C72 1_555 1_555
H69 C75 1_555 1_555
C76 C75 1_555 1_555
H70 C76 1_555 1_555
H71 C76 1_555 1_555
C77 C46 1_555 1_555
H72 C77 1_555 1_555
C78 H73 1_555 1_555
H74 C78 1_555 1_555
H75 C78 1_555 1_555
C79 C78 1_555 1_555
C80 C79 1_555 1_555
H76 C80 1_555 1_555
H77 C80 1_555 1_555
H78 C80 1_555 1_555
C81 C70 1_555 1_555
H79 C81 1_555 1_555
H80 C81 1_555 1_555
C82 C79 1_555 1_555
H81 C82 1_555 1_555
C83 C82 1_555 1_555
H82 C83 1_555 1_555
H83 C83 1_555 1_555
C84 C69 1_555 1_555
H84 C84 1_555 1_555
B1 F1 1_555 1_555
B2 F3 1_555 1_555
B3 F5 1_555 1_555
F6 B3 1_555 1_555
F7 B3 1_555 1_555
F8 B3 1_555 1_555
B4 F9 1_555 1_555
F10 B4 1_555 1_555
F11 B4 1_555 1_555
F12 B4 1_555 1_555
Ag1B N1B 1_555 1_555
Ag1A N1A 1_555 1_555
Ag1C N1C 1_555 1_555
Ag2B N7B 1_555 1_555
Ag2A N7A 1_555 1_555
Ag2C N7C 1_555 1_555
N1B C1B 1_555 1_555
N1A C1A 1_555 1_555
N1C C1C 1_555 1_555
C1B C2B 1_555 1_555
C1A C2A 1_555 1_555
C1C C2C 1_555 1_555
C2B H1B 1_555 1_555
C2A H1A 1_555 1_555
C2C H1C 1_555 1_555
C3B C2B 1_555 1_555
C3A C2A 1_555 1_555
C3C C2C 1_555 1_555
H2B C3B 1_555 1_555
H2A C3A 1_555 1_555
H2C C3C 1_555 1_555
C4B C3B 1_555 1_555
C4A C3A 1_555 1_555
C4C C3C 1_555 1_555
C5B N1B 1_555 1_555
C5A N1A 1_555 1_555
C5C N1C 1_555 1_555
N2B Ag1B 1_555 1_555
N2A Ag1A 1_555 1_555
N2C Ag1C 1_555 1_555
N3B N2B 1_555 1_555
N3A N2A 1_555 1_555
N3C N2C 1_555 1_555
C6B N3B 1_555 1_555
C6A N3A 1_555 1_555
C6C N3C 1_555 1_555
H3B C6B 1_555 1_555
H3A C6A 1_555 1_555
H3C C6C 1_555 1_555
C7B C6B 1_555 1_555
C7A C6A 1_555 1_555
C7C C6C 1_555 1_555
H4B C7B 1_555 1_555
H4A C7A 1_555 1_555
H4C C7C 1_555 1_555
C8B C1B 1_555 1_555
C8A C1A 1_555 1_555
C8C C1C 1_555 1_555
C9B N3B 1_555 1_555
C9A N3A 1_555 1_555
C9C N3C 1_555 1_555
H5C C9C 1_555 1_555
H5A C9A 1_555 1_555
H5B C9B 1_555 1_555
H6C C9C 1_555 1_555
H6A C9A 1_555 1_555
H6B C9B 1_555 1_555
C10B H7B 1_555 1_555
C10A H7A 1_555 1_555
C10C H7C 1_555 1_555
H8B C10B 1_555 1_555
H8A C10A 1_555 1_555
H8C C10C 1_555 1_555
C11B C9B 1_555 1_555
C11A C9A 1_555 1_555
C11C C9C 1_555 1_555
C12C C11C 1_555 1_555
C12A C11A 1_555 1_555
C12B C11B 1_555 1_555
H9C C12C 1_555 1_555
H9A C12A 1_555 1_555
H9B C12B 1_555 1_555
C13C C12C 1_555 1_555
C13A C12A 1_555 1_555
C13B C12B 1_555 1_555
H10C C13C 1_555 1_555
H10A C13A 1_555 1_555
H10B C13B 1_555 1_555
C14C C13C 1_555 1_555
C14A C13A 1_555 1_555
C14B C13B 1_555 1_555
H11C C14C 1_555 1_555
H11A C14A 1_555 1_555
H11B C14B 1_555 1_555
C15C C14C 1_555 1_555
C15A C14A 1_555 1_555
C15B C14B 1_555 1_555
C16B C11B 1_555 1_555
C16A C11A 1_555 1_555
C16C C11C 1_555 1_555
C17B C10B 1_555 1_555
C17A C10A 1_555 1_555
C17C C10C 1_555 1_555
C18C C17C 1_555 1_555
C18A C17A 1_555 1_555
C18B C17B 1_555 1_555
H12C C18C 1_555 1_555
H12A C18A 1_555 1_555
H12B C18B 1_555 1_555
C19C C18C 1_555 1_555
C19A C18A 1_555 1_555
C19B C18B 1_555 1_555
H13C C19C 1_555 1_555
H13A C19A 1_555 1_555
H13B C19B 1_555 1_555
C20C C15C 1_555 1_555
C20A C15A 1_555 1_555
C20B C15B 1_555 1_555
H14C C20C 1_555 1_555
H14A C20A 1_555 1_555
H14B C20B 1_555 1_555
N4B Ag1B 1_555 1_555
N4A Ag1A 1_555 1_555
N4C N5 1_555 1_555
N5B N4 1_555 1_555
N5A C10A 1_555 1_555
N5C C10C 1_555 1_555
C21C N5C 1_555 1_555
C21A N5A 1_555 1_555
C21B N5B 1_555 1_555
H15C C21C 1_555 1_555
H15A C21A 1_555 1_555
H15B C21B 1_555 1_555
C22C C21C 1_555 1_555
C22A C21A 1_555 1_555
C22B C23 1_555 1_555
H16C C22C 1_555 1_555
H16A C22A 1_555 1_555
H16B C22B 1_555 1_555
C23C C22 1_555 1_555
C23A N4A 1_555 1_555
C23B N4B 1_555 1_555
N6C Ag1C 1_555 1_555
N6A Ag1A 1_555 1_555
N6B Ag1B 1_555 1_555
C24C C23C 1_555 1_555
C24A C23A 1_555 1_555
C24B C23B 1_555 1_555
C25C C24C 1_555 1_555
C25A C24A 1_555 1_555
C25B C24B 1_555 1_555
H17C C25C 1_555 1_555
H17A C25A 1_555 1_555
H17B C25B 1_555 1_555
C26C C25C 1_555 1_555
C26A C25A 1_555 1_555
C26B C25B 1_555 1_555
H18C C26C 1_555 1_555
H18A C26A 1_555 1_555
H18B C26B 1_555 1_555
C27C C26C 1_555 1_555
C27A C26A 1_555 1_555
C27B C26B 1_555 1_555
C28C N6C 1_555 1_555
C28A N6A 1_555 1_555
C28B N6B 1_555 1_555
C29B H19B 1_555 1_555
C29A H19A 1_555 1_555
C29C H19C 1_555 1_555
H20B C29B 1_555 1_555
H20A C29A 1_555 1_555
H20C C29C 1_555 1_555
H21B C29B 1_555 1_555
H21A C29A 1_555 1_555
H21C C29C 1_555 1_555
C30B C29B 1_555 1_555
C30A C29A 1_555 1_555
C30C C29C 1_555 1_555
C31B C30B 1_555 1_555
C31A C30A 1_555 1_555
C31C C30C 1_555 1_555
H22B C31B 1_555 1_555
H22A C31A 1_555 1_555
H22C C31C 1_555 1_555
H23B C31B 1_555 1_555
H23A C31A 1_555 1_555
H23C C31C 1_555 1_555
H24B C31B 1_555 1_555
H24A C31A 1_555 1_555
H24C C31C 1_555 1_555
C32B C5B 1_555 1_555
C32A C5A 1_555 1_555
C32C C5C 1_555 1_555
H25B C32B 1_555 1_555
H25A C32A 1_555 1_555
H25C C32C 1_555 1_555
H26B C32B 1_555 1_555
H26A C32A 1_555 1_555
H26C C32C 1_555 1_555
C33B C30B 1_555 1_555
C33A C30A 1_555 1_555
C33C C30C 1_555 1_555
H27B C33B 1_555 1_555
H27A C33A 1_555 1_555
H27C C33C 1_555 1_555
C34B C33B 1_555 1_555
C34A C33A 1_555 1_555
C34C C33C 1_555 1_555
H28B C34B 1_555 1_555
H28A C34A 1_555 1_555
H28C C34C 1_555 1_555
H29B C34B 1_555 1_555
H29A C34A 1_555 1_555
H29C C34C 1_555 1_555
C35B C4B 1_555 1_555
C35A C4A 1_555 1_555
C35C C4C 1_555 1_555
H30B C35B 1_555 1_555
H30A C35A 1_555 1_555
H30C C35C 1_555 1_555
C36C H31C 1_555 1_555
C36A H31A 1_555 1_555
C36B H31B 1_555 1_555
H32C C36C 1_555 1_555
H32A C36A 1_555 1_555
H32B C36B 1_555 1_555
H33C C36C 1_555 1_555
H33A C36A 1_555 1_555
H33B C36B 1_555 1_555
C37C C36C 1_555 1_555
C37A C36A 1_555 1_555
C37B C36B 1_555 1_555
C38C C37C 1_555 1_555
C38A C37A 1_555 1_555
C38B C37B 1_555 1_555
H34C C38C 1_555 1_555
H34A C38A 1_555 1_555
H34B C38B 1_555 1_555
H35C C38C 1_555 1_555
H35A C38A 1_555 1_555
H35B C38B 1_555 1_555
H36C C38C 1_555 1_555
H36A C38A 1_555 1_555
H36B C38B 1_555 1_555
C39C C28C 1_555 1_555
C39A C28A 1_555 1_555
C39B C28B 1_555 1_555
H37C C39C 1_555 1_555
H37A C39A 1_555 1_555
H37B C39B 1_555 1_555
H38C C39C 1_555 1_555
H38A C39A 1_555 1_555
H38B C39B 1_555 1_555
C40C C37C 1_555 1_555
C40A C37A 1_555 1_555
C40B C37B 1_555 1_555
H39C C40C 1_555 1_555
H39A C40A 1_555 1_555
H39B C40B 1_555 1_555
C41C C40C 1_555 1_555
C41A C40A 1_555 1_555
C41B C40B 1_555 1_555
H40C C41C 1_555 1_555
H40A C41A 1_555 1_555
H40B C41B 1_555 1_555
H41C C41C 1_555 1_555
H41A C41A 1_555 1_555
H41B C41B 1_555 1_555
C42C C27C 1_555 1_555
C42A C27A 1_555 1_555
C42B C27B 1_555 1_555
H42C C42C 1_555 1_555
H42A C42A 1_555 1_555
H42B C42B 1_555 1_555
N7B C43B 1_555 1_555
N7A C43A 1_555 1_555
N7C C43C 1_555 1_555
C43B C44B 1_555 1_555
C43A C44A 1_555 1_555
C43C C44C 1_555 1_555
C44B H43B 1_555 1_555
C44A H43A 1_555 1_555
C44C H43C 1_555 1_555
C45B C44B 1_555 1_555
C45A C44A 1_555 1_555
C45C C44C 1_555 1_555
H44B C45B 1_555 1_555
H44A C45A 1_555 1_555
H44C C45C 1_555 1_555
C46B C45B 1_555 1_555
C46A C45A 1_555 1_555
C46C C45C 1_555 1_555
C47B N7B 1_555 1_555
C47A N7A 1_555 1_555
C47C N7C 1_555 1_555
N8B Ag2B 1_555 1_555
N8A Ag2A 1_555 1_555
N8C Ag2C 1_555 1_555
N9B N8B 1_555 1_555
N9A N8A 1_555 1_555
N9C N8C 1_555 1_555
C48B N9B 1_555 1_555
C48A N9A 1_555 1_555
C48C N9C 1_555 1_555
H45B C48B 1_555 1_555
H45A C48A 1_555 1_555
H45C C48C 1_555 1_555
C49B C48B 1_555 1_555
C49A C48A 1_555 1_555
C49C C48C 1_555 1_555
H46B C49B 1_555 1_555
H46A C49A 1_555 1_555
H46C C49C 1_555 1_555
C50B C43B 1_555 1_555
C50A C43A 1_555 1_555
C50C C43C 1_555 1_555
C51B N9B 1_555 1_555
C51A N9A 1_555 1_555
C51C N9C 1_555 1_555
H47C C51C 1_555 1_555
H47A C51A 1_555 1_555
H47B C51B 1_555 1_555
H48C C51C 1_555 1_555
H48A C51A 1_555 1_555
H48B C51B 1_555 1_555
C52B H49B 1_555 1_555
C52A H49A 1_555 1_555
C52C H49C 1_555 1_555
H50B C52B 1_555 1_555
H50A C52A 1_555 1_555
H50C C52C 1_555 1_555
C53B C51B 1_555 1_555
C53A C51A 1_555 1_555
C53C C51C 1_555 1_555
C54C C53C 1_555 1_555
C54A C53A 1_555 1_555
C54B C53B 1_555 1_555
H51C C54C 1_555 1_555
H51A C54A 1_555 1_555
H51B C54B 1_555 1_555
C55C C54C 1_555 1_555
C55A C54A 1_555 1_555
C55B C54B 1_555 1_555
H52C C55C 1_555 1_555
H52A C55A 1_555 1_555
H52B C55B 1_555 1_555
C56C C55C 1_555 1_555
C56A C55A 1_555 1_555
C56B C55B 1_555 1_555
H53C C56C 1_555 1_555
H53A C56A 1_555 1_555
H53B C56B 1_555 1_555
C57C C56C 1_555 1_555
C57A C56A 1_555 1_555
C57B C56B 1_555 1_555
C58B C53B 1_555 1_555
C58A C53A 1_555 1_555
C58C C53C 1_555 1_555
C59B C52B 1_555 1_555
C59A C52A 1_555 1_555
C59C C52C 1_555 1_555
C60C C59C 1_555 1_555
C60A C59A 1_555 1_555
C60B C59B 1_555 1_555
H54C C60C 1_555 1_555
H54A C60A 1_555 1_555
H54B C60B 1_555 1_555
C61C C60C 1_555 1_555
C61A C60A 1_555 1_555
C61B C60B 1_555 1_555
H55C C61C 1_555 1_555
H55A C61A 1_555 1_555
H55B C61B 1_555 1_555
C62C C57C 1_555 1_555
C62A C57A 1_555 1_555
C62B C57B 1_555 1_555
H56C C62C 1_555 1_555
H56A C62A 1_555 1_555
H56B C62B 1_555 1_555
N10B Ag2B 1_555 1_555
N10A Ag2A 1_555 1_555
N10C N11 1_555 1_555
N11B N10 1_555 1_555
N11A C52A 1_555 1_555
N11C C52C 1_555 1_555
C63C N11C 1_555 1_555
C63A N11A 1_555 1_555
C63B N11B 1_555 1_555
H57C C63C 1_555 1_555
H57A C63A 1_555 1_555
H57B C63B 1_555 1_555
C64C C63C 1_555 1_555
C64A C63A 1_555 1_555
C64B C65 1_555 1_555
H58C C64C 1_555 1_555
H58A C64A 1_555 1_555
H58B C64B 1_555 1_555
C65C C64 1_555 1_555
C65A N10A 1_555 1_555
C65B N10B 1_555 1_555
N12C Ag2C 1_555 1_555
N12A Ag2A 1_555 1_555
N12B Ag2B 1_555 1_555
C66C C65C 1_555 1_555
C66A C65A 1_555 1_555
C66B C65B 1_555 1_555
C67C C66C 1_555 1_555
C67A C66A 1_555 1_555
C67B C66B 1_555 1_555
H59C C67C 1_555 1_555
H59A C67A 1_555 1_555
H59B C67B 1_555 1_555
C68C C67C 1_555 1_555
C68A C67A 1_555 1_555
C68B C67B 1_555 1_555
H60C C68C 1_555 1_555
H60A C68A 1_555 1_555
H60B C68B 1_555 1_555
C69C C68C 1_555 1_555
C69A C68A 1_555 1_555
C69B C68B 1_555 1_555
C70C N12C 1_555 1_555
C70A N12A 1_555 1_555
C70B N12B 1_555 1_555
C71B H61B 1_555 1_555
C71A H61A 1_555 1_555
C71C H61C 1_555 1_555
H62B C71B 1_555 1_555
H62A C71A 1_555 1_555
H62C C71C 1_555 1_555
H63B C71B 1_555 1_555
H63A C71A 1_555 1_555
H63C C71C 1_555 1_555
C72B C71B 1_555 1_555
C72A C71A 1_555 1_555
C72C C71C 1_555 1_555
C73B C72B 1_555 1_555
C73A C72A 1_555 1_555
C73C C72C 1_555 1_555
H64B C73B 1_555 1_555
H64A C73A 1_555 1_555
H64C C73C 1_555 1_555
H65B C73B 1_555 1_555
H65A C73A 1_555 1_555
H65C C73C 1_555 1_555
H66B C73B 1_555 1_555
H66A C73A 1_555 1_555
H66C C73C 1_555 1_555
C74B C47B 1_555 1_555
C74A C47A 1_555 1_555
C74C C47C 1_555 1_555
H67B C74B 1_555 1_555
H67A C74A 1_555 1_555
H67C C74C 1_555 1_555
H68B C74B 1_555 1_555
H68A C74A 1_555 1_555
H68C C74C 1_555 1_555
C75B C72B 1_555 1_555
C75A C72A 1_555 1_555
C75C C72C 1_555 1_555
H69B C75B 1_555 1_555
H69A C75A 1_555 1_555
H69C C75C 1_555 1_555
C76B C75B 1_555 1_555
C76A C75A 1_555 1_555
C76C C75C 1_555 1_555
H70B C76B 1_555 1_555
H70A C76A 1_555 1_555
H70C C76C 1_555 1_555
H71B C76B 1_555 1_555
H71A C76A 1_555 1_555
H71C C76C 1_555 1_555
C77B C46B 1_555 1_555
C77A C46A 1_555 1_555
C77C C46C 1_555 1_555
H72B C77B 1_555 1_555
H72A C77A 1_555 1_555
H72C C77C 1_555 1_555
C78C H73C 1_555 1_555
C78A H73A 1_555 1_555
C78B H73B 1_555 1_555
H74C C78C 1_555 1_555
H74A C78A 1_555 1_555
H74B C78B 1_555 1_555
H75C C78C 1_555 1_555
H75A C78A 1_555 1_555
H75B C78B 1_555 1_555
C79C C78C 1_555 1_555
C79A C78A 1_555 1_555
C79B C78B 1_555 1_555
C80C C79C 1_555 1_555
C80A C79A 1_555 1_555
C80B C79B 1_555 1_555
H76C C80C 1_555 1_555
H76A C80A 1_555 1_555
H76B C80B 1_555 1_555
H77C C80C 1_555 1_555
H77A C80A 1_555 1_555
H77B C80B 1_555 1_555
H78C C80C 1_555 1_555
H78A C80A 1_555 1_555
H78B C80B 1_555 1_555
C81C C70C 1_555 1_555
C81A C70A 1_555 1_555
C81B C70B 1_555 1_555
H79C C81C 1_555 1_555
H79A C81A 1_555 1_555
H79B C81B 1_555 1_555
H80C C81C 1_555 1_555
H80A C81A 1_555 1_555
H80B C81B 1_555 1_555
C82C C79C 1_555 1_555
C82A C79A 1_555 1_555
C82B C79B 1_555 1_555
H81C C82C 1_555 1_555
H81A C82A 1_555 1_555
H81B C82B 1_555 1_555
C83C C82C 1_555 1_555
C83A C82A 1_555 1_555
C83B C82B 1_555 1_555
H82C C83C 1_555 1_555
H82A C83A 1_555 1_555
H82B C83B 1_555 1_555
H83C C83C 1_555 1_555
H83A C83A 1_555 1_555
H83B C83B 1_555 1_555
C84C C69C 1_555 1_555
C84A C69A 1_555 1_555
C84B C69B 1_555 1_555
H84C C84C 1_555 1_555
H84A C84A 1_555 1_555
H84B C84B 1_555 1_555
F1A B1 1_555 1_555
F1B B1 1_555 1_555
F1C B1 1_555 1_555
F3A B2 1_555 1_555
F3B B2 1_555 1_555
F3C B2 1_555 1_555
C4 C5 1_555 1_555
N2 C8 1_555 1_555
C7 C8 1_555 1_555
C15 C16 1_555 1_555
C16 C17 1_555 1_555
C19 C20 1_555 1_555
N6 C24 1_555 1_555
C27 C28 1_555 1_555
C30 C35 1_555 1_555
C32 C33 1_555 1_555
C34 C35 1_555 1_555
C37 C42 1_555 1_555
C39 C40 1_555 1_555
C41 C42 1_555 1_555
C46 C47 1_555 1_555
N8 C50 1_555 1_555
C49 C50 1_555 1_555
C57 C58 1_555 1_555
C58 C59 1_555 1_555
C61 C62 1_555 1_555
N12 C66 1_555 1_555
C69 C70 1_555 1_555
C72 C77 1_555 1_555
C74 C75 1_555 1_555
C76 C77 1_555 1_555
C79 C84 1_555 1_555
C81 C82 1_555 1_555
C83 C84 1_555 1_555
Ag1C N4C 1_555 1_555
Ag2C N10C 1_555 1_555
C4B C5B 1_555 1_555
C4A C5A 1_555 1_555
C4C C5C 1_555 1_555
N2B C8B 1_555 1_555
N2A C8A 1_555 1_555
N2C C8C 1_555 1_555
C7B C8B 1_555 1_555
C7A C8A 1_555 1_555
C7C C8C 1_555 1_555
C10B N5B 1_555 1_555
C15C C16C 1_555 1_555
C15A C16A 1_555 1_555
C15B C16B 1_555 1_555
C16B C17B 1_555 1_555
C16A C17A 1_555 1_555
C16C C17C 1_555 1_555
C19C C20C 1_555 1_555
C19A C20A 1_555 1_555
C19B C20B 1_555 1_555
N4B N5A 1_555 1_555
N4A N5C 1_555 1_555
N4C C23C 1_555 1_555
C21B C22B 1_555 1_555
C22C C23A 1_555 1_555
C22A C23B 1_555 1_555
N6C C24C 1_555 1_555
N6A C24A 1_555 1_555
N6B C24B 1_555 1_555
C27C C28C 1_555 1_555
C27A C28A 1_555 1_555
C27B C28B 1_555 1_555
C30B C35B 1_555 1_555
C30A C35A 1_555 1_555
C30C C35C 1_555 1_555
C32B C33B 1_555 1_555
C32A C33A 1_555 1_555
C32C C33C 1_555 1_555
C34B C35B 1_555 1_555
C34A C35A 1_555 1_555
C34C C35C 1_555 1_555
C37C C42C 1_555 1_555
C37A C42A 1_555 1_555
C37B C42B 1_555 1_555
C39C C40C 1_555 1_555
C39A C40A 1_555 1_555
C39B C40B 1_555 1_555
C41C C42C 1_555 1_555
C41A C42A 1_555 1_555
C41B C42B 1_555 1_555
C46B C47B 1_555 1_555
C46A C47A 1_555 1_555
C46C C47C 1_555 1_555
N8B C50B 1_555 1_555
N8A C50A 1_555 1_555
N8C C50C 1_555 1_555
C49B C50B 1_555 1_555
C49A C50A 1_555 1_555
C49C C50C 1_555 1_555
C52B N11B 1_555 1_555
C57C C58C 1_555 1_555
C57A C58A 1_555 1_555
C57B C58B 1_555 1_555
C58B C59B 1_555 1_555
C58A C59A 1_555 1_555
C58C C59C 1_555 1_555
C61C C62C 1_555 1_555
C61A C62A 1_555 1_555
C61B C62B 1_555 1_555
N10B N11A 1_555 1_555
N10A N11C 1_555 1_555
N10C C65C 1_555 1_555
C63B C64B 1_555 1_555
C64C C65A 1_555 1_555
C64A C65B 1_555 1_555
N12C C66C 1_555 1_555
N12A C66A 1_555 1_555
N12B C66B 1_555 1_555
C69C C70C 1_555 1_555
C69A C70A 1_555 1_555
C69B C70B 1_555 1_555
C72B C77B 1_555 1_555
C72A C77A 1_555 1_555
C72C C77C 1_555 1_555
C74B C75B 1_555 1_555
C74A C75A 1_555 1_555
C74C C75C 1_555 1_555
C76B C77B 1_555 1_555
C76A C77A 1_555 1_555
C76C C77C 1_555 1_555
C79C C84C 1_555 1_555
C79A C84A 1_555 1_555
C79B C84B 1_555 1_555
C81C C82C 1_555 1_555
C81A C82A 1_555 1_555
C81B C82B 1_555 1_555
C83C C84C 1_555 1_555
C83A C84A 1_555 1_555
C83B C84B 1_555 1_555

#END
