
#######################################################################
#
#                 Cambridge Crystallographic Data Centre
#                                CCDC 
#
#######################################################################
#
# If this CIF has been generated from an entry in the Cambridge 
# Structural Database, then it will include bibliographic, chemical, 
# crystal, experimental, refinement or atomic coordinate data resulting 
# from the CCDC's data processing and validation procedures.
#
#######################################################################

data_YEVBOT
_chemical_formula_moiety         'C80 H84 Ag2 Fe2 N16 2+,2(F6 P1 1-)'
_chemical_name_systematic        
"bis(\m-1,1'-bis([6-(1-hexyl-1H-1,2,3-triazol-4-yl)pyridin-3-yl]ethynyl)ferrocene)-di-silver bis(hexafluorophosphate)"
_symmetry_cell_setting           monoclinic
_symmetry_space_group_name_H-M   'P 21/c'
_symmetry_Int_Tables_number      14
_space_group_name_Hall           '-P 2ybc'
loop_
_symmetry_equiv_pos_site_id
_symmetry_equiv_pos_as_xyz
1 x,y,z
2 -x,1/2+y,1/2-z
3 -x,-y,-z
4 x,1/2-y,1/2+z
_cell_length_a                   15.9435(2)
_cell_length_b                   14.2100(2)
_cell_length_c                   17.2153(3)
_cell_angle_alpha                90
_cell_angle_beta                 101.890(2)
_cell_angle_gamma                90
_cell_volume                     3816.57
_exptl_crystal_colour            orange
_exptl_crystal_description       rectangle
_cell_formula_units_Z            2
loop_
_atom_site_label
_atom_site_type_symbol
_atom_site_fract_x
_atom_site_fract_y
_atom_site_fract_z
Ag1 Ag 0.52175(2) 0.63575(2) 0.49340(2)
Fe1 Fe 0.30511(3) 0.57235(3) -0.05882(3)
N1 N 0.61204(18) 0.41562(19) 0.52603(18)
N2 N 0.65242(18) 0.69279(19) 0.50455(18)
N3 N 0.78494(19) 0.7247(2) 0.54256(19)
N4 N 0.50617(19) 0.44270(19) 0.38050(19)
N5 N 0.67191(19) 0.4160(2) 0.59163(19)
N6 N 0.74339(19) 0.4484(2) 0.57146(19)
N7 N 0.54481(19) 0.69468(19) 0.35492(19)
N8 N 0.7143(2) 0.6982(2) 0.56777(19)
C1 C 0.3960(2) 0.6683(2) -0.0770(2)
H1 H 0.4533 0.6544 -0.0806
C2 C 0.6450(2) 0.4471(2) 0.4638(2)
C3 C 0.6830(2) 0.7154(2) 0.4386(2)
C4 C 0.3237(2) 0.6712(2) -0.1410(2)
H2 H 0.3247 0.6599 -0.1952
C5 C 0.4636(2) 0.7023(2) 0.1371(2)
C6 C 0.5207(2) 0.7080(2) 0.2123(2)
C7 C 0.4818(2) 0.4639(2) 0.2387(2)
C8 C 0.3583(2) 0.4396(2) -0.0508(2)
H3 H 0.4156 0.4244 -0.0538
C9 C 0.6078(2) 0.7283(2) 0.2175(2)
H4 H 0.6294 0.7398 0.1709
C10 C 0.3279(2) 0.4624(2) 0.0203(2)
C11 C 0.7302(2) 0.4684(2) 0.4932(2)
H5 H 0.7707 0.4920 0.4646
C12 C 0.3789(2) 0.4644(2) 0.0982(2)
C13 C 0.3662(2) 0.6904(2) -0.0055(2)
C14 C 0.5698(2) 0.4781(2) 0.2443(2)
H6 H 0.5914 0.4902 0.1978
C15 C 0.4238(2) 0.4648(2) 0.1635(2)
C16 C 0.7682(2) 0.7358(2) 0.4633(2)
H7 H 0.8073 0.7540 0.4312
C17 C 0.4929(2) 0.6925(2) 0.2836(2)
H8 H 0.4339 0.6798 0.2808
C18 C 0.4537(2) 0.4472(2) 0.3097(2)
H9 H 0.3941 0.4385 0.3069
C19 C 0.2127(2) 0.4707(2) -0.0858(2)
H10 H 0.1565 0.4793 -0.1165
C20 C 0.4185(2) 0.6966(2) 0.0715(2)
C21 C 0.2864(2) 0.4442(2) -0.1158(2)
H11 H 0.2875 0.4318 -0.1698
C22 C 0.6281(2) 0.7141(2) 0.3591(2)
C23 C 0.2379(2) 0.4822(2) -0.0020(2)
H12 H 0.2016 0.4998 0.0329
C24 C 0.2750(2) 0.7050(2) -0.0272(2)
H13 H 0.2383 0.7196 0.0082
C25 C 0.2494(2) 0.6938(2) -0.1107(2)
H14 H 0.1927 0.7002 -0.1410
C26 C 0.8718(2) 0.5880(3) 0.8347(2)
H15 H 0.8183 0.5659 0.8494
H16 H 0.8634 0.6547 0.8181
C27 C 0.5908(2) 0.4548(2) 0.3845(2)
C28 C 0.8057(2) 0.5157(2) 0.7021(2)
H17 H 0.7627 0.4833 0.7266
H18 H 0.7821 0.5778 0.6828
C29 C 0.6614(2) 0.7315(2) 0.2914(2)
H19 H 0.7205 0.7454 0.2963
C30 C 0.6246(2) 0.4745(2) 0.3170(2)
H20 H 0.6843 0.4851 0.3217
C31 C 0.8879(2) 0.5300(2) 0.7647(2)
H21 H 0.9116 0.4679 0.7841
H22 H 0.9310 0.5623 0.7402
C32 C 0.8661(2) 0.7400(3) 0.6003(2)
H23 H 0.8629 0.7086 0.6510
H24 H 0.8741 0.8082 0.6109
C33 C 1.0265(2) 0.7201(3) 0.6299(2)
H25 H 1.0274 0.6824 0.6784
H26 H 1.0299 0.7874 0.6450
C34 C 0.8219(2) 0.4579(2) 0.6322(2)
H27 H 0.8666 0.4888 0.6089
H28 H 0.8430 0.3946 0.6510
C35 C 1.1902(2) 0.7030(3) 0.6530(2)
H29 H 1.1894 0.6615 0.6990
H30 H 1.2364 0.6807 0.6270
C36 C 0.9427(2) 0.7019(3) 0.5702(2)
H31 H 0.9453 0.7323 0.5191
H32 H 0.9355 0.6334 0.5608
C37 C 1.1046(2) 0.6941(3) 0.5944(2)
H33 H 1.0980 0.6285 0.5748
H34 H 1.1055 0.7354 0.5483
C38 C 1.0278(3) 0.6260(3) 0.8944(3)
H35 H 1.0417 0.6001 0.8459
H36 H 1.0745 0.6121 0.9396
H37 H 1.0205 0.6943 0.8889
C39 C 1.2110(3) 0.8030(3) 0.6831(3)
H38 H 1.2088 0.8454 0.6378
H39 H 1.2686 0.8045 0.7168
H40 H 1.1691 0.8233 0.7140
C40 C 0.9454(3) 0.5821(3) 0.9081(3)
H41 H 0.9278 0.6143 0.9531
H42 H 0.9562 0.5151 0.9228
Ag1B Ag 0.47825(2) 0.36425(2) 0.50660(2)
Fe1B Fe 0.69489(3) 0.42765(3) 1.05882(3)
N1B N 0.38796(18) 0.58438(19) 0.47397(18)
N2B N 0.34758(18) 0.30721(19) 0.49545(18)
N3B N 0.21506(19) 0.2753(2) 0.45744(19)
N4B N 0.49383(19) 0.55730(19) 0.61950(19)
N5B N 0.32809(19) 0.5840(2) 0.40837(19)
N6B N 0.25661(19) 0.5516(2) 0.42854(19)
N7B N 0.45519(19) 0.30532(19) 0.64508(19)
N8B N 0.2857(2) 0.3018(2) 0.43223(19)
C1B C 0.6040(2) 0.3317(2) 1.0770(2)
H1B H 0.5467 0.3456 1.0806
C2B C 0.3550(2) 0.5529(2) 0.5362(2)
C3B C 0.3170(2) 0.2846(2) 0.5614(2)
C4B C 0.6763(2) 0.3288(2) 1.1410(2)
H2B H 0.6753 0.3401 1.1952
C5B C 0.5364(2) 0.2977(2) 0.8629(2)
C6B C 0.4793(2) 0.2920(2) 0.7877(2)
C7B C 0.5182(2) 0.5361(2) 0.7613(2)
C8B C 0.6417(2) 0.5604(2) 1.0508(2)
H3B H 0.5844 0.5756 1.0538
C9B C 0.3922(2) 0.2717(2) 0.7825(2)
H4B H 0.3706 0.2602 0.8291
C10B C 0.6721(2) 0.5376(2) 0.9797(2)
C11B C 0.2698(2) 0.5316(2) 0.5068(2)
H5B H 0.2293 0.5080 0.5354
C12B C 0.6211(2) 0.5356(2) 0.9018(2)
C13B C 0.6338(2) 0.3096(2) 1.0055(2)
C14B C 0.4302(2) 0.5219(2) 0.7557(2)
H6B H 0.4086 0.5098 0.8022
C15B C 0.5762(2) 0.5352(2) 0.8365(2)
C16B C 0.2318(2) 0.2642(2) 0.5367(2)
H7B H 0.1927 0.2460 0.5688
C17B C 0.5071(2) 0.3075(2) 0.7164(2)
H8B H 0.5661 0.3202 0.7192
C18B C 0.5463(2) 0.5528(2) 0.6903(2)
H9B H 0.6059 0.5615 0.6931
C19B C 0.7873(2) 0.5293(2) 1.0858(2)
H10B H 0.8435 0.5207 1.1165
C20B C 0.5815(2) 0.3034(2) 0.9285(2)
C21B C 0.7136(2) 0.5558(2) 1.1158(2)
H11B H 0.7125 0.5682 1.1698
C22B C 0.3719(2) 0.2859(2) 0.6409(2)
C23B C 0.7621(2) 0.5178(2) 1.0020(2)
H12B H 0.7984 0.5002 0.9671
C24B C 0.7250(2) 0.2950(2) 1.0272(2)
H13B H 0.7617 0.2804 0.9918
C25B C 0.7506(2) 0.3062(2) 1.1107(2)
H14B H 0.8073 0.2998 1.1410
C26B C 0.1282(2) 0.4120(3) 0.1653(2)
H15B H 0.1817 0.4341 0.1506
H16B H 0.1366 0.3453 0.1819
C27B C 0.4092(2) 0.5452(2) 0.6155(2)
C28B C 0.1943(2) 0.4843(2) 0.2979(2)
H17B H 0.2373 0.5167 0.2734
H18B H 0.2179 0.4222 0.3172
C29B C 0.3386(2) 0.2685(2) 0.7086(2)
H19B H 0.2795 0.2546 0.7037
C30B C 0.3754(2) 0.5255(2) 0.6830(2)
H20B H 0.3157 0.5149 0.6783
C31B C 0.1121(2) 0.4700(2) 0.2353(2)
H21B H 0.0884 0.5321 0.2159
H22B H 0.0690 0.4377 0.2598
C32B C 0.1339(2) 0.2600(3) 0.3997(2)
H23B H 0.1371 0.2914 0.3490
H24B H 0.1259 0.1918 0.3891
C33B C -0.0265(2) 0.2799(3) 0.3701(2)
H25B H -0.0274 0.3176 0.3216
H26B H -0.0299 0.2126 0.3550
C34B C 0.1781(2) 0.5421(2) 0.3678(2)
H27B H 0.1334 0.5112 0.3911
H28B H 0.1570 0.6054 0.3490
C35B C -0.1902(2) 0.2970(3) 0.3470(2)
H29B H -0.1894 0.3385 0.3010
H30B H -0.2364 0.3193 0.3730
C36B C 0.0573(2) 0.2981(3) 0.4298(2)
H31B H 0.0547 0.2677 0.4809
H32B H 0.0645 0.3666 0.4392
C37B C -0.1046(2) 0.3059(3) 0.4056(2)
H33B H -0.0980 0.3715 0.4252
H34B H -0.1055 0.2646 0.4517
C38B C -0.0278(3) 0.3740(3) 0.1056(3)
H35B H -0.0417 0.3999 0.1541
H36B H -0.0745 0.3879 0.0604
H37B H -0.0205 0.3057 0.1111
C39B C -0.2110(3) 0.1970(3) 0.3169(3)
H38B H -0.2088 0.1546 0.3622
H39B H -0.2686 0.1955 0.2832
H40B H -0.1691 0.1767 0.2860
C40B C 0.0546(3) 0.4179(3) 0.0919(3)
H41B H 0.0722 0.3857 0.0469
H42B H 0.0438 0.4849 0.0772
P1 P 0.90718(6) 0.58804(6) 0.32411(6)
F1 F 0.8401(2) 0.6477(2) 0.2616(2)
F2 F 0.8323(2) 0.5503(2) 0.3638(2)
F3 F 0.9182(2) 0.6777(2) 0.3810(2)
F4 F 0.9824(2) 0.6286(2) 0.2834(2)
F5 F 0.8974(2) 0.5016(2) 0.2653(2)
F6 F 0.9769(2) 0.5314(3) 0.3858(2)
loop_
_geom_bond_atom_site_label_1
_geom_bond_atom_site_label_2
_geom_bond_site_symmetry_1
_geom_bond_site_symmetry_2
Ag1 N2 1_555 1_555
Fe1 C1 1_555 1_555
N1 N5 1_555 1_555
N2 N8 1_555 1_555
N3 N8 1_555 1_555
N4 C18 1_555 1_555
N5 N6 1_555 1_555
N6 C11 1_555 1_555
N7 Ag1 1_555 1_555
C1 H1 1_555 1_555
C2 N1 1_555 1_555
C3 N2 1_555 1_555
C4 Fe1 1_555 1_555
H2 C4 1_555 1_555
C5 C6 1_555 1_555
C6 C9 1_555 1_555
C7 C14 1_555 1_555
C8 Fe1 1_555 1_555
H3 C8 1_555 1_555
C9 H4 1_555 1_555
C10 Fe1 1_555 1_555
C11 C2 1_555 1_555
H5 C11 1_555 1_555
C12 C10 1_555 1_555
C13 Fe1 1_555 1_555
C14 H6 1_555 1_555
C15 C7 1_555 1_555
C16 N3 1_555 1_555
H7 C16 1_555 1_555
C17 N7 1_555 1_555
H8 C17 1_555 1_555
C18 C7 1_555 1_555
H9 C18 1_555 1_555
C19 Fe1 1_555 1_555
H10 C19 1_555 1_555
C20 C5 1_555 1_555
C21 Fe1 1_555 1_555
H11 C21 1_555 1_555
C22 N7 1_555 1_555
C23 Fe1 1_555 1_555
H12 C23 1_555 1_555
C24 Fe1 1_555 1_555
H13 C24 1_555 1_555
C25 Fe1 1_555 1_555
H14 C25 1_555 1_555
C26 H15 1_555 1_555
H16 C26 1_555 1_555
C27 N4 1_555 1_555
C28 H17 1_555 1_555
H18 C28 1_555 1_555
C29 C9 1_555 1_555
H19 C29 1_555 1_555
C30 C14 1_555 1_555
H20 C30 1_555 1_555
C31 C26 1_555 1_555
H21 C31 1_555 1_555
H22 C31 1_555 1_555
C32 N3 1_555 1_555
H23 C32 1_555 1_555
H24 C32 1_555 1_555
C33 H25 1_555 1_555
H26 C33 1_555 1_555
C34 N6 1_555 1_555
H27 C34 1_555 1_555
H28 C34 1_555 1_555
C35 H29 1_555 1_555
H30 C35 1_555 1_555
C36 C32 1_555 1_555
H31 C36 1_555 1_555
H32 C36 1_555 1_555
C37 C33 1_555 1_555
H33 C37 1_555 1_555
H34 C37 1_555 1_555
C38 H35 1_555 1_555
H36 C38 1_555 1_555
H37 C38 1_555 1_555
C39 C35 1_555 1_555
H38 C39 1_555 1_555
H39 C39 1_555 1_555
H40 C39 1_555 1_555
C40 C26 1_555 1_555
H41 C40 1_555 1_555
H42 C40 1_555 1_555
P1 F1 1_555 1_555
F2 P1 1_555 1_555
F3 P1 1_555 1_555
F4 P1 1_555 1_555
F5 P1 1_555 1_555
F6 P1 1_555 1_555
Ag1B N1 1_555 1_555
Fe1B C1B 1_555 1_555
N1B Ag1 1_555 1_555
N2B Ag1B 1_555 1_555
N3B N8B 1_555 1_555
N4B Ag1 1_555 1_555
N5B N1B 1_555 1_555
N6B N5B 1_555 1_555
N7B Ag1B 1_555 1_555
N8B N2B 1_555 1_555
C1B H1B 1_555 1_555
C2B N1B 1_555 1_555
C3B N2B 1_555 1_555
C4B Fe1B 1_555 1_555
H2B C4B 1_555 1_555
C5B C6B 1_555 1_555
C6B C9B 1_555 1_555
C7B C14B 1_555 1_555
C8B Fe1B 1_555 1_555
H3B C8B 1_555 1_555
C9B H4B 1_555 1_555
C10B Fe1B 1_555 1_555
C11B N6B 1_555 1_555
H5B C11B 1_555 1_555
C12B C10B 1_555 1_555
C13B Fe1B 1_555 1_555
C14B H6B 1_555 1_555
C15B C7B 1_555 1_555
C16B N3B 1_555 1_555
H7B C16B 1_555 1_555
C17B N7B 1_555 1_555
H8B C17B 1_555 1_555
C18B N4B 1_555 1_555
H9B C18B 1_555 1_555
C19B Fe1B 1_555 1_555
H10B C19B 1_555 1_555
C20B C5B 1_555 1_555
C21B Fe1B 1_555 1_555
H11B C21B 1_555 1_555
C22B N7B 1_555 1_555
C23B Fe1B 1_555 1_555
H12B C23B 1_555 1_555
C24B Fe1B 1_555 1_555
H13B C24B 1_555 1_555
C25B Fe1B 1_555 1_555
H14B C25B 1_555 1_555
C26B H15B 1_555 1_555
H16B C26B 1_555 1_555
C27B N4B 1_555 1_555
C28B H17B 1_555 1_555
H18B C28B 1_555 1_555
C29B C9B 1_555 1_555
H19B C29B 1_555 1_555
C30B C14B 1_555 1_555
H20B C30B 1_555 1_555
C31B C26B 1_555 1_555
H21B C31B 1_555 1_555
H22B C31B 1_555 1_555
C32B N3B 1_555 1_555
H23B C32B 1_555 1_555
H24B C32B 1_555 1_555
C33B H25B 1_555 1_555
H26B C33B 1_555 1_555
C34B N6B 1_555 1_555
H27B C34B 1_555 1_555
H28B C34B 1_555 1_555
C35B H29B 1_555 1_555
H30B C35B 1_555 1_555
C36B C32B 1_555 1_555
H31B C36B 1_555 1_555
H32B C36B 1_555 1_555
C37B C33B 1_555 1_555
H33B C37B 1_555 1_555
H34B C37B 1_555 1_555
C38B H35B 1_555 1_555
H36B C38B 1_555 1_555
H37B C38B 1_555 1_555
C39B C35B 1_555 1_555
H38B C39B 1_555 1_555
H39B C39B 1_555 1_555
H40B C39B 1_555 1_555
C40B C26B 1_555 1_555
H41B C40B 1_555 1_555
H42B C40B 1_555 1_555
N4 Ag1B 1_555 1_555
C1 C4 1_555 1_555
C1 C13 1_555 1_555
C2 C27 1_555 1_555
C3 C16 1_555 1_555
C3 C22 1_555 1_555
C4 C25 1_555 1_555
C6 C17 1_555 1_555
C8 C10 1_555 1_555
C8 C21 1_555 1_555
C10 C23 1_555 1_555
C12 C15 1_555 1_555
C13 C20 1_555 1_555
C13 C24 1_555 1_555
C19 C21 1_555 1_555
C19 C23 1_555 1_555
C22 C29 1_555 1_555
C24 C25 1_555 1_555
C27 C30 1_555 1_555
C28 C31 1_555 1_555
C28 C34 1_555 1_555
C33 C36 1_555 1_555
C35 C37 1_555 1_555
C38 C40 1_555 1_555
C1B C4B 1_555 1_555
C1B C13B 1_555 1_555
C2B C11B 1_555 1_555
C2B C27B 1_555 1_555
C3B C16B 1_555 1_555
C3B C22B 1_555 1_555
C4B C25B 1_555 1_555
C6B C17B 1_555 1_555
C7B C18B 1_555 1_555
C8B C10B 1_555 1_555
C8B C21B 1_555 1_555
C10B C23B 1_555 1_555
C12B C15B 1_555 1_555
C13B C20B 1_555 1_555
C13B C24B 1_555 1_555
C19B C21B 1_555 1_555
C19B C23B 1_555 1_555
C22B C29B 1_555 1_555
C24B C25B 1_555 1_555
C27B C30B 1_555 1_555
C28B C31B 1_555 1_555
C28B C34B 1_555 1_555
C33B C36B 1_555 1_555
C35B C37B 1_555 1_555
C38B C40B 1_555 1_555

#END
