
#######################################################################
#
#                 Cambridge Crystallographic Data Centre
#                                CCDC 
#
#######################################################################
#
# If this CIF has been generated from an entry in the Cambridge 
# Structural Database, then it will include bibliographic, chemical, 
# crystal, experimental, refinement or atomic coordinate data resulting 
# from the CCDC's data processing and validation procedures.
#
#######################################################################

data_YEZQUQ
_chemical_formula_moiety         
'C120 H72 N12 Pd3 6+,6(N1 O3 1-),4(C2 H3 N1),2.5(C4 H8 O1),11(H2 O1)'
_chemical_name_systematic        
'hexakis(\m~2~-1,2-bis(2-(Pyridin-4-yl)ethynyl)benzene)-tri-palladium(ii) hexanitrate acetonitrile tetrahydrofuran solvate undecahydrate'
_symmetry_cell_setting           trigonal
_symmetry_space_group_name_H-M   'P -3'
_symmetry_Int_Tables_number      147
_space_group_name_Hall           '-P 3'
loop_
_symmetry_equiv_pos_site_id
_symmetry_equiv_pos_as_xyz
1 x,y,z
2 -y,x-y,z
3 -x+y,-x,z
4 -x,-y,-z
5 y,-x+y,-z
6 x-y,x,-z
_cell_length_a                   19.841(5)
_cell_length_b                   19.841(5)
_cell_length_c                   27.850(12)
_cell_angle_alpha                90
_cell_angle_beta                 90
_cell_angle_gamma                120
_cell_volume                     9494.74
_exptl_crystal_colour            'pale yellow'
_exptl_crystal_description       needle
_chemical_melting_point          'above 198deg.C(dec)'
_cell_formula_units_Z            3
loop_
_atom_site_label
_atom_site_type_symbol
_atom_site_fract_x
_atom_site_fract_y
_atom_site_fract_z
Pd1 Pd 1.20180(4) 0.82731(4) 0.750006(18)
C1 C 0.8884(4) 0.4223(7) 0.5239(2)
C2 C 0.9053(5) 0.5015(5) 0.5236(3)
C3 C 0.8330(5) 0.3681(6) 0.4913(3)
H1 H 0.8202 0.3151 0.4920
C4 C 0.9579(5) 0.5546(6) 0.5580(3)
C5 C 0.9633(6) 0.3881(7) 0.5881(3)
C6 C 0.8674(6) 0.5228(6) 0.4888(3)
H2 H 0.8781 0.5751 0.4874
C7 C 0.9263(5) 0.3996(6) 0.5589(3)
C8 C 0.7993(5) 0.3915(5) 0.4597(3)
H3 H 0.7627 0.3545 0.4379
C9 C 0.8156(5) 0.4692(6) 0.4571(3)
H4 H 0.7908 0.4841 0.4337
C10 C 1.0078(5) 0.3821(7) 0.6260(3)
C11 C 1.0632(8) 0.4395(8) 0.6451(4)
H5 H 1.0718 0.4888 0.6346
C12 C 0.9896(8) 0.3037(9) 0.6449(5)
H6 H 0.9479 0.2553 0.6342
C13 C 1.0015(6) 0.6020(7) 0.5866(3)
C14 C 1.0465(5) 0.6535(7) 0.6238(3)
C15 C 1.1157(6) 0.6563(7) 0.6399(3)
H7 H 1.1336 0.6243 0.6261
C16 C 1.1566(6) 0.7090(8) 0.6775(3)
H8 H 1.2038 0.7126 0.6882
C17 C 1.0227(6) 0.6998(7) 0.6473(3)
H9 H 0.9765 0.6996 0.6380
C18 C 0.8891(4) 0.4233(6) 0.9762(2)
C19 C 0.9052(5) 0.5008(5) 0.9768(3)
C20 C 1.0442(6) 0.6526(6) 0.8760(3)
C21 C 0.8347(5) 0.3693(6) 1.0083(3)
H10 H 0.8224 0.3165 1.0071
C22 C 0.7990(5) 0.3919(5) 1.0414(3)
H11 H 0.7624 0.3551 1.0633
C23 C 1.0017(6) 0.6013(6) 0.9130(3)
C24 C 0.8690(5) 0.5236(6) 1.0107(3)
H12 H 0.8797 0.5759 1.0124
C25 C 0.9574(5) 0.5573(6) 0.9420(3)
C26 C 1.0688(6) 0.7481(6) 0.8148(3)
H13 H 1.0522 0.7799 0.7992
C27 C 0.9276(5) 0.3999(6) 0.9407(3)
C28 C 1.1588(6) 0.7076(7) 0.8231(3)
H14 H 1.2060 0.7113 0.8124
C29 C 1.1165(6) 0.6549(6) 0.8604(3)
H15 H 1.1337 0.6226 0.8747
C30 C 0.8159(5) 0.4661(7) 1.0427(3)
H16 H 0.7911 0.4809 1.0662
C31 C 1.0213(6) 0.6953(7) 0.8526(3)
H17 H 0.9730 0.6915 0.8606
C32 C 0.9613(6) 0.3863(7) 0.9118(3)
C33 C 1.0695(6) 0.7473(6) 0.6855(3)
H18 H 1.0518 0.7769 0.7027
C34 C 1.0445(7) 0.3127(8) 0.6818(4)
H19 H 1.0369 0.2656 0.6956
C35 C 1.1156(8) 0.4413(9) 0.6806(3)
H20 H 1.1590 0.4887 0.6912
C36 C 1.0059(6) 0.3773(7) 0.8735(3)
C37 C 1.0433(7) 0.3119(7) 0.8192(4)
H21 H 1.0337 0.2632 0.8069
C38 C 0.9932(7) 0.3098(8) 0.8543(4)
H22 H 0.9505 0.2617 0.8646
C39 C 1.1158(8) 0.4436(9) 0.8192(3)
H23 H 1.1570 0.4908 0.8066
C40 C 1.0680(7) 0.4437(8) 0.8562(4)
H24 H 1.0792 0.4922 0.8698
N1 N 1.1339(4) 0.7528(4) 0.6983(2)
N2 N 1.1342(4) 0.7524(4) 0.8022(2)
N3 N 1.2727(5) 0.8997(6) 0.69804(19)
N4 N 1.2714(4) 0.8996(6) 0.8019(2)
Pd1A Pd 1.17269(4) 0.37449(6) 0.750006(18)
Pd1B Pd 1.62551(6) 0.79820(4) 0.750006(18)
C1A C 1.5777(7) 0.4661(8) 0.5239(2)
C1B C 1.5339(8) 1.1116(4) 0.5239(2)
C2A C 1.4985(5) 0.4038(7) 0.5236(3)
C2B C 1.5962(7) 1.0947(5) 0.5236(3)
C3A C 1.6319(6) 0.4649(8) 0.4913(3)
C3B C 1.5351(8) 1.1670(5) 0.4913(3)
H1A H 1.6849 0.5051 0.4920
H1B H 1.4949 1.1798 0.4920
C4A C 1.4454(6) 0.4033(8) 0.5580(3)
C4B C 1.5967(8) 1.0421(5) 0.5580(3)
C5A C 1.6119(7) 0.5752(9) 0.5881(3)
C5B C 1.4248(9) 1.0367(6) 0.5881(3)
C6A C 1.4772(6) 0.3446(8) 0.4888(3)
C6B C 1.6554(8) 1.1326(6) 0.4888(3)
H2A H 1.4249 0.3030 0.4874
H2B H 1.6970 1.1219 0.4874
C7A C 1.6004(6) 0.5267(8) 0.5589(3)
C7B C 1.4733(8) 1.0737(5) 0.5589(3)
C8A C 1.6085(5) 0.4078(7) 0.4597(3)
C8B C 1.5922(7) 1.2007(5) 0.4597(3)
H3A H 1.6455 0.4082 0.4379
H3B H 1.5918 1.2373 0.4379
C9A C 1.5308(6) 0.3464(8) 0.4571(3)
C9B C 1.6536(8) 1.1844(5) 0.4571(3)
H4A H 1.5159 0.3067 0.4337
H4B H 1.6933 1.2092 0.4337
C10A C 1.6179(7) 0.6257(9) 0.6260(3)
C10B C 1.3743(9) 0.9922(5) 0.6260(3)
C11A C 1.5605(8) 0.6237(11) 0.6451(4)
C11B C 1.3763(11) 0.9368(8) 0.6451(4)
H5A H 1.5112 0.5830 0.6346
H5B H 1.4170 0.9282 0.6346
C12B C 1.3141(12) 1.0104(8) 0.6449(5)
C12A C 1.6963(9) 0.6859(12) 0.6449(5)
H6B H 1.3074 1.0521 0.6342
H6A H 1.7447 0.6926 0.6342
C13A C 1.3980(7) 0.3995(9) 0.5866(3)
C13B C 1.6005(9) 0.9985(6) 0.5866(3)
C14A C 1.3465(7) 0.3930(9) 0.6238(3)
C14B C 1.6070(9) 0.9535(5) 0.6238(3)
C15A C 1.3437(7) 0.4594(9) 0.6399(3)
C15B C 1.5406(9) 0.8843(6) 0.6399(3)
H7B H 1.4907 0.8664 0.6261
H7A H 1.3757 0.5093 0.6261
C16A C 1.2910(8) 0.4476(10) 0.6775(3)
C16B C 1.5524(10) 0.8434(6) 0.6775(3)
H8B H 1.5088 0.7962 0.6882
H8A H 1.2874 0.4912 0.6882
C17B C 1.6771(9) 0.9773(6) 0.6473(3)
C17A C 1.3002(7) 0.3229(9) 0.6473(3)
H9B H 1.7231 1.0235 0.6380
H9A H 1.3004 0.2769 0.6380
C18A C 1.5767(6) 0.4658(7) 0.9762(2)
C18B C 1.5342(7) 1.1109(4) 0.9762(2)
C19A C 1.4992(5) 0.4044(7) 0.9768(3)
C19B C 1.5956(7) 1.0948(5) 0.9768(3)
C20A C 1.3474(6) 0.3916(8) 0.8760(3)
C20B C 1.6084(8) 0.9558(6) 0.8760(3)
C21A C 1.6307(6) 0.4654(8) 1.0083(3)
C21B C 1.5346(8) 1.1653(5) 1.0083(3)
H10A H 1.6835 0.5059 1.0071
H10B H 1.4941 1.1776 1.0071
C22A C 1.6081(5) 0.4071(7) 1.0414(3)
C22B C 1.5929(7) 1.2010(5) 1.0414(3)
H11A H 1.6449 0.4073 1.0633
H11B H 1.5927 1.2376 1.0633
C23A C 1.3987(6) 0.4004(8) 0.9130(3)
C23B C 1.5996(8) 0.9983(6) 0.9130(3)
C24A C 1.4764(6) 0.3454(8) 1.0107(3)
C24B C 1.6546(8) 1.1310(5) 1.0107(3)
H12A H 1.4241 0.3038 1.0124
H12B H 1.6962 1.1203 1.0124
C25A C 1.4427(6) 0.4001(8) 0.9420(3)
C25B C 1.5999(8) 1.0426(5) 0.9420(3)
C26A C 1.2519(6) 0.3207(8) 0.8148(3)
C26B C 1.6793(8) 0.9312(6) 0.8148(3)
H13A H 1.2201 0.2723 0.7992
H13B H 1.7277 0.9478 0.7992
C27A C 1.6001(6) 0.5277(8) 0.9407(3)
C27B C 1.4723(8) 1.0724(5) 0.9407(3)
C28B C 1.5488(9) 0.8412(6) 0.8231(3)
C28A C 1.2924(7) 0.4512(9) 0.8231(3)
H14B H 1.5053 0.7940 0.8124
H14A H 1.2887 0.4947 0.8124
C29B C 1.5384(8) 0.8835(6) 0.8604(3)
C29A C 1.3451(6) 0.4616(8) 0.8604(3)
H15B H 1.4889 0.8663 0.8747
H15A H 1.3774 0.5111 0.8747
C30A C 1.5339(7) 0.3498(9) 1.0427(3)
C30B C 1.6502(9) 1.1841(5) 1.0427(3)
H16A H 1.5191 0.3102 1.0662
H16B H 1.6898 1.2089 1.0662
C31A C 1.3047(7) 0.3260(9) 0.8526(3)
C31B C 1.6740(9) 0.9787(6) 0.8526(3)
H17B H 1.7185 1.0270 0.8606
H17A H 1.3085 0.2815 0.8606
C32A C 1.6137(7) 0.5750(9) 0.9118(3)
C32B C 1.4250(9) 1.0387(6) 0.9118(3)
C33B C 1.6778(8) 0.9305(6) 0.6855(3)
C33A C 1.2527(6) 0.3222(8) 0.6855(3)
H18B H 1.7251 0.9482 0.7027
H18A H 1.2231 0.2749 0.7027
C34B C 1.2682(11) 0.9555(7) 0.6818(4)
C34A C 1.6873(8) 0.7318(11) 0.6818(4)
H19B H 1.2287 0.9631 0.6956
H19A H 1.7344 0.7713 0.6956
C35A C 1.5587(9) 0.6743(12) 0.6806(3)
C35B C 1.3257(12) 0.8844(8) 0.6806(3)
H20A H 1.5113 0.6703 0.6912
H20B H 1.3297 0.8410 0.6912
C36A C 1.6227(7) 0.6286(9) 0.8735(3)
C36B C 1.3714(9) 0.9941(6) 0.8735(3)
C37A C 1.6881(7) 0.7314(10) 0.8192(4)
C37B C 1.2686(10) 0.9567(7) 0.8192(4)
H21A H 1.7368 0.7705 0.8069
H21B H 1.2295 0.9663 0.8069
C38A C 1.6902(8) 0.6834(11) 0.8543(4)
C38B C 1.3166(11) 1.0068(7) 0.8543(4)
H22B H 1.3112 1.0495 0.8646
H22A H 1.7383 0.6888 0.8646
C39B C 1.3278(12) 0.8842(8) 0.8192(3)
C39A C 1.5564(9) 0.6722(12) 0.8192(3)
H23B H 1.3338 0.8430 0.8066
H23A H 1.5092 0.6662 0.8066
C40B C 1.3757(11) 0.9320(7) 0.8562(4)
C40A C 1.5563(8) 0.6243(11) 0.8562(4)
H24B H 1.4130 0.9208 0.8698
H24A H 1.5078 0.5870 0.8698
N1A N 1.2472(4) 0.3811(6) 0.6983(2)
N1B N 1.6189(6) 0.8661(4) 0.6983(2)
N2A N 1.2476(4) 0.3818(6) 0.8022(2)
N2B N 1.6182(6) 0.8658(4) 0.8022(2)
N3A N 1.1003(6) 0.3730(8) 0.69804(19)
N3B N 1.6270(8) 0.7273(5) 0.69804(19)
N4A N 1.1004(6) 0.3718(7) 0.8019(2)
N4B N 1.6282(7) 0.7286(4) 0.8019(2)
N5 N 0.3333 0.6667 0.8509(4)
O1 O 0.2673(5) 0.6135(6) 0.8500(3)
O1A O 0.3865(6) 0.6538(8) 0.8500(3)
O1B O 0.3462(8) 0.7327(5) 0.8500(3)
N6 N 0.3333 0.6667 0.6487(4)
O2 O 0.2656(6) 0.6121(6) 0.6508(3)
O2A O 0.3879(6) 0.6535(8) 0.6508(3)
O2B O 0.3465(8) 0.7344(6) 0.6508(3)
N7 N 0.7555(15) 0.2246(15) 0.6329(8)
O3 O 0.7740(14) 0.2070(14) 0.6721(7)
O4 O 0.7756(18) 0.2091(19) 0.5943(8)
O5 O 0.719(4) 0.261(4) 0.6320(12)
N8 N 0.854(2) 0.684(2) 1.0298(11)
O6 O 0.904(3) 0.714(4) 0.9971(16)
O7 O 0.7844(19) 0.657(2) 1.0183(11)
O8 O 0.863(2) 0.677(2) 1.0737(11)
N9 N 0.829(2) 0.6728(19) 0.4729(11)
O9 O 0.764(3) 0.662(4) 0.4853(15)
O10 O 0.838(2) 0.662(2) 0.4300(11)
O11 O 0.889(3) 0.698(5) 0.4986(18)
O12 O 0.9759(10) 0.5565(7) 0.7504(7)
C41 C 0.9393(14) 0.5114(11) 0.7082(6)
H25 H 0.9784 0.5230 0.6827
H26 H 0.8999 0.5237 0.6958
C42 C 0.9010(18) 0.4265(9) 0.7227(8)
H27 H 0.9330 0.4035 0.7125
H28 H 0.8487 0.3963 0.7080
C43 C 0.8950(18) 0.4267(10) 0.7781(8)
H29 H 0.8399 0.3995 0.7885
H30 H 0.9215 0.4009 0.7930
C44 C 0.9346(16) 0.5112(12) 0.7914(7)
H31 H 0.8956 0.5252 0.8019
H32 H 0.9713 0.5216 0.8183
O13 O 0.8202(18) 0.6208(13) 0.8599(11)
C45 C 0.809(2) 0.5763(18) 0.9031(10)
H33 H 0.7797 0.5883 0.9270
H34 H 0.8605 0.5905 0.9172
C46 C 0.764(2) 0.4888(16) 0.8914(12)
H35 H 0.7099 0.4645 0.9027
H36 H 0.7895 0.4618 0.9066
C47 C 0.768(4) 0.4853(18) 0.8357(13)
H37 H 0.8040 0.4672 0.8253
H38 H 0.7158 0.4506 0.8219
C48 C 0.798(2) 0.5680(18) 0.8214(9)
H39 H 0.8429 0.5845 0.7998
H40 H 0.7566 0.5709 0.8028
C49 C 1.145(3) 0.587(4) 0.7623(18)
C50 C 1.2141(16) 0.5805(18) 0.7516(9)
N10 N 1.2605(13) 0.5655(11) 0.7500(5)
O15 O 1.0989(8) 0.9179(8) 0.7503(3)
loop_
_geom_bond_atom_site_label_1
_geom_bond_atom_site_label_2
_geom_bond_site_symmetry_1
_geom_bond_site_symmetry_2
Pd1 N1 1_555 1_555
C1 C2 1_555 1_555
C2 C4 1_555 1_555
C3 C1 1_555 1_555
H1 C3 1_555 1_555
C4 C13 1_555 1_555
C5 C7 1_555 1_555
C6 C2 1_555 1_555
H2 C6 1_555 1_555
C7 C1 1_555 1_555
C8 C3 1_555 1_555
H3 C8 1_555 1_555
C9 C6 1_555 1_555
H4 C9 1_555 1_555
C10 C5 1_555 1_555
C11 C10 1_555 1_555
H5 C11 1_555 1_555
C12 C10 1_555 1_555
H6 C12 1_555 1_555
C13 C14 1_555 1_555
C14 C15 1_555 1_555
C15 H7 1_555 1_555
C16 C15 1_555 1_555
H8 C16 1_555 1_555
C17 C14 1_555 1_555
H9 C17 1_555 1_555
C18 C19 1_555 1_555
C19 C24 1_555 1_555
C20 C23 1_555 1_555
C21 C18 1_555 1_555
H10 C21 1_555 1_555
C22 C21 1_555 1_555
H11 C22 1_555 1_555
C23 C25 1_555 1_555
C24 H12 1_555 1_555
C25 C19 1_555 1_555
C26 H13 1_555 1_555
C27 C18 1_555 1_555
C28 H14 1_555 1_555
C29 C20 1_555 1_555
H15 C29 1_555 1_555
C30 C22 1_555 1_555
H16 C30 1_555 1_555
C31 C20 1_555 1_555
H17 C31 1_555 1_555
C32 C27 1_555 1_555
C33 C17 1_555 1_555
H18 C33 1_555 1_555
C34 C12 1_555 1_555
H19 C34 1_555 1_555
C35 C11 1_555 1_555
H20 C35 1_555 1_555
C36 C32 1_555 1_555
C37 H21 1_555 1_555
C38 C36 1_555 1_555
H22 C38 1_555 1_555
C39 H23 1_555 1_555
C40 C36 1_555 1_555
H24 C40 1_555 1_555
N1 C16 1_555 1_555
N2 Pd1 1_555 1_555
N3 Pd1 1_555 1_555
N4 Pd1 1_555 1_555
N5 O1 1_555 1_555
N6 O2 1_555 1_555
N7 O3 1_555 1_555
O4 N7 1_555 1_555
O5 N7 1_555 1_555
N8 O6 1_555 1_555
O7 N8 1_555 1_555
O8 N8 1_555 1_555
N9 O9 1_555 1_555
O10 N9 1_555 1_555
O11 N9 1_555 1_555
O12 C41 1_555 1_555
C41 H25 1_555 1_555
H26 C41 1_555 1_555
C42 C41 1_555 1_555
H27 C42 1_555 1_555
H28 C42 1_555 1_555
C43 C42 1_555 1_555
H29 C43 1_555 1_555
H30 C43 1_555 1_555
C44 O12 1_555 1_555
H31 C44 1_555 1_555
H32 C44 1_555 1_555
O13 C45 1_555 1_555
C45 H33 1_555 1_555
H34 C45 1_555 1_555
C46 C45 1_555 1_555
H35 C46 1_555 1_555
H36 C46 1_555 1_555
C47 C46 1_555 1_555
H37 C47 1_555 1_555
H38 C47 1_555 1_555
C48 O13 1_555 1_555
H39 C48 1_555 1_555
H40 C48 1_555 1_555
C49 C50 1_555 1_555
C50 N10 1_555 1_555
Pd1A N1A 1_555 1_555
Pd1B N1B 1_555 1_555
C1A C2A 1_555 1_555
C1B C2B 1_555 1_555
C2A C4A 1_555 1_555
C2B C4B 1_555 1_555
C3A C1A 1_555 1_555
C3B C1B 1_555 1_555
H1A C3A 1_555 1_555
H1B C3B 1_555 1_555
C4A C13A 1_555 1_555
C4B C13B 1_555 1_555
C5A C7A 1_555 1_555
C5B C7B 1_555 1_555
C6A C2A 1_555 1_555
C6B C2B 1_555 1_555
H2A C6A 1_555 1_555
H2B C6B 1_555 1_555
C7A C1A 1_555 1_555
C7B C1B 1_555 1_555
C8A C3A 1_555 1_555
C8B C3B 1_555 1_555
H3A C8A 1_555 1_555
H3B C8B 1_555 1_555
C9A C6A 1_555 1_555
C9B C6B 1_555 1_555
H4A C9A 1_555 1_555
H4B C9B 1_555 1_555
C10A C5A 1_555 1_555
C10B C5B 1_555 1_555
C11A C10A 1_555 1_555
C11B C10B 1_555 1_555
H5A C11A 1_555 1_555
H5B C11B 1_555 1_555
C12B C10B 1_555 1_555
C12A C10A 1_555 1_555
H6B C12B 1_555 1_555
H6A C12A 1_555 1_555
C13A C14A 1_555 1_555
C13B C14B 1_555 1_555
C14A C15A 1_555 1_555
C14B C15B 1_555 1_555
C15A H7A 1_555 1_555
C15B H7B 1_555 1_555
C16A C15A 1_555 1_555
C16B C15B 1_555 1_555
H8B C16B 1_555 1_555
H8A C16A 1_555 1_555
C17B C14B 1_555 1_555
C17A C14A 1_555 1_555
H9B C17B 1_555 1_555
H9A C17A 1_555 1_555
C18A C19A 1_555 1_555
C18B C19B 1_555 1_555
C19A C24A 1_555 1_555
C19B C24B 1_555 1_555
C20A C23A 1_555 1_555
C20B C23B 1_555 1_555
C21A C18A 1_555 1_555
C21B C18B 1_555 1_555
H10A C21A 1_555 1_555
H10B C21B 1_555 1_555
C22A C21A 1_555 1_555
C22B C21B 1_555 1_555
H11A C22A 1_555 1_555
H11B C22B 1_555 1_555
C23A C25A 1_555 1_555
C23B C25B 1_555 1_555
C24A H12A 1_555 1_555
C24B H12B 1_555 1_555
C25A C19A 1_555 1_555
C25B C19B 1_555 1_555
C26A H13A 1_555 1_555
C26B H13B 1_555 1_555
C27A C18A 1_555 1_555
C27B C18B 1_555 1_555
C28B H14B 1_555 1_555
C28A H14A 1_555 1_555
C29B C20B 1_555 1_555
C29A C20A 1_555 1_555
H15B C29B 1_555 1_555
H15A C29A 1_555 1_555
C30A C22A 1_555 1_555
C30B C22B 1_555 1_555
H16A C30A 1_555 1_555
H16B C30B 1_555 1_555
C31A C20A 1_555 1_555
C31B C20B 1_555 1_555
H17B C31B 1_555 1_555
H17A C31A 1_555 1_555
C32A C27A 1_555 1_555
C32B C27B 1_555 1_555
C33B C17B 1_555 1_555
C33A C17A 1_555 1_555
H18B C33B 1_555 1_555
H18A C33A 1_555 1_555
C34B N3 1_555 1_555
C34A C12A 1_555 1_555
H19B C34B 1_555 1_555
H19A C34A 1_555 1_555
C35A C11A 1_555 1_555
C35B N3 1_555 1_555
H20A C35A 1_555 1_555
H20B C35B 1_555 1_555
C36A C32A 1_555 1_555
C36B C32B 1_555 1_555
C37A H21A 1_555 1_555
C37B N4 1_555 1_555
H21B C37B 1_555 1_555
C38A C36A 1_555 1_555
C38B C36B 1_555 1_555
H22B C38B 1_555 1_555
H22A C38A 1_555 1_555
C39B N4 1_555 1_555
C39A H23A 1_555 1_555
H23B C39B 1_555 1_555
C40B C36B 1_555 1_555
C40A C36A 1_555 1_555
H24B C40B 1_555 1_555
H24A C40A 1_555 1_555
N1A C16A 1_555 1_555
N1B C16B 1_555 1_555
N2A Pd1A 1_555 1_555
N2B Pd1B 1_555 1_555
N3A C34 1_555 1_555
N3B Pd1B 1_555 1_555
N4A C37 1_555 1_555
N4B Pd1B 1_555 1_555
O1A N5 1_555 1_555
O1B N5 1_555 1_555
O2A N6 1_555 1_555
O2B N6 1_555 1_555
C8 C9 1_555 1_555
C24 C30 1_555 1_555
C26 C31 1_555 1_555
C26 N2 1_555 1_555
C28 C29 1_555 1_555
C28 N2 1_555 1_555
C33 N1 1_555 1_555
C35 N3A 1_555 1_555
C37 C38 1_555 1_555
C39 C40 1_555 1_555
C39 N4A 1_555 1_555
C43 C44 1_555 1_555
C47 C48 1_555 1_555
Pd1A N3A 1_555 1_555
Pd1A N4A 1_555 1_555
C8A C9A 1_555 1_555
C8B C9B 1_555 1_555
C11B C35B 1_555 1_555
C12B C34B 1_555 1_555
C24A C30A 1_555 1_555
C24B C30B 1_555 1_555
C26A C31A 1_555 1_555
C26A N2A 1_555 1_555
C26B C31B 1_555 1_555
C26B N2B 1_555 1_555
C28B C29B 1_555 1_555
C28B N2B 1_555 1_555
C28A C29A 1_555 1_555
C28A N2A 1_555 1_555
C33B N1B 1_555 1_555
C33A N1A 1_555 1_555
C34A N3B 1_555 1_555
C35A N3B 1_555 1_555
C37A C38A 1_555 1_555
C37A N4B 1_555 1_555
C37B C38B 1_555 1_555
C39B C40B 1_555 1_555
C39A C40A 1_555 1_555
C39A N4B 1_555 1_555

#END
