# generated using pymatgen
data_H48Pd2C107S13N14O51
_symmetry_space_group_name_H-M   'P 1'
_cell_length_a   15.52400000
_cell_length_b   21.23200000
_cell_length_c   35.48100000
_cell_angle_alpha   97.13900000
_cell_angle_beta   90.00000000
_cell_angle_gamma   90.00000000
_symmetry_Int_Tables_number   1
_chemical_formula_structural   H48Pd2C107S13N14O51
_chemical_formula_sum   'H192 Pd8 C428 S52 N56 O204'
_cell_volume   11604.07260276
_cell_formula_units_Z   4
loop_
 _symmetry_equiv_pos_site_id
 _symmetry_equiv_pos_as_xyz
  1  'x, y, z'
loop_
 _atom_site_type_symbol
 _atom_site_label
 _atom_site_symmetry_multiplicity
 _atom_site_fract_x
 _atom_site_fract_y
 _atom_site_fract_z
 _atom_site_occupancy
  H  H1  1  0.369000  0.824800  0.243700  1.0
  H  H2  1  0.869000  0.175200  0.256300  1.0
  H  H3  1  0.631000  0.175200  0.756300  1.0
  H  H4  1  0.131000  0.824800  0.743700  1.0
  H  H5  1  0.415600  0.747600  0.280200  1.0
  H  H6  1  0.915600  0.252400  0.219800  1.0
  H  H7  1  0.584400  0.252400  0.719800  1.0
  H  H8  1  0.084400  0.747600  0.780200  1.0
  H  H9  1  0.575400  0.815600  0.395300  1.0
  H  H10  1  0.075400  0.184400  0.104700  1.0
  H  H11  1  0.424600  0.184400  0.604700  1.0
  H  H12  1  0.924600  0.815600  0.895300  1.0
  H  H13  1  0.348500  0.948400  0.339800  1.0
  H  H14  1  0.848500  0.051600  0.160200  1.0
  H  H15  1  0.651500  0.051600  0.660200  1.0
  H  H16  1  0.151500  0.948400  0.839800  1.0
  H  H17  1  0.401300  0.870400  0.373600  1.0
  H  H18  1  0.901300  0.129600  0.126400  1.0
  H  H19  1  0.598700  0.129600  0.626400  1.0
  H  H20  1  0.098700  0.870400  0.873600  1.0
  H  H21  1  0.553400  0.519800  0.381000  1.0
  H  H22  1  0.053400  0.480200  0.119000  1.0
  H  H23  1  0.446600  0.480200  0.619000  1.0
  H  H24  1  0.946600  0.519800  0.881000  1.0
  H  H25  1  0.491700  0.596400  0.347400  1.0
  H  H26  1  0.991700  0.403600  0.152600  1.0
  H  H27  1  0.508300  0.403600  0.652600  1.0
  H  H28  1  0.008300  0.596400  0.847400  1.0
  H  H29  1  0.295000  0.642200  0.332900  1.0
  H  H30  1  0.795000  0.357800  0.167100  1.0
  H  H31  1  0.705000  0.357800  0.667100  1.0
  H  H32  1  0.205000  0.642200  0.832900  1.0
  H  H33  1  0.450200  0.710900  0.442100  1.0
  H  H34  1  0.950200  0.289100  0.057900  1.0
  H  H35  1  0.549800  0.289100  0.557900  1.0
  H  H36  1  0.049800  0.710900  0.942100  1.0
  H  H37  1  0.578100  0.677700  0.309400  1.0
  H  H38  1  0.078100  0.322300  0.190600  1.0
  H  H39  1  0.421900  0.322300  0.690600  1.0
  H  H40  1  0.921900  0.677700  0.809400  1.0
  H  H41  1  0.612700  0.218000  0.312900  1.0
  H  H42  1  0.112700  0.782000  0.187100  1.0
  H  H43  1  0.387300  0.782000  0.687100  1.0
  H  H44  1  0.887300  0.218000  0.812900  1.0
  H  H45  1  0.722700  0.696800  0.298500  1.0
  H  H46  1  0.222700  0.303200  0.201500  1.0
  H  H47  1  0.277300  0.303200  0.701500  1.0
  H  H48  1  0.777300  0.696800  0.798500  1.0
  H  H49  1  0.152800  0.784500  0.419900  1.0
  H  H50  1  0.652800  0.215500  0.080100  1.0
  H  H51  1  0.847200  0.215500  0.580100  1.0
  H  H52  1  0.347200  0.784500  0.919900  1.0
  H  H53  1  0.827500  0.163300  0.338300  1.0
  H  H54  1  0.327500  0.836700  0.161700  1.0
  H  H55  1  0.172500  0.836700  0.661700  1.0
  H  H56  1  0.672500  0.163300  0.838300  1.0
  H  H57  1  0.526500  0.099900  0.381500  1.0
  H  H58  1  0.026500  0.900100  0.118500  1.0
  H  H59  1  0.473500  0.900100  0.618500  1.0
  H  H60  1  0.973500  0.099900  0.881500  1.0
  H  H61  1  0.123700  0.951400  0.209000  1.0
  H  H62  1  0.623700  0.048600  0.291000  1.0
  H  H63  1  0.876300  0.048600  0.791000  1.0
  H  H64  1  0.376300  0.951400  0.709000  1.0
  H  H65  1  0.192000  0.167300  0.223300  1.0
  H  H66  1  0.692000  0.832700  0.276700  1.0
  H  H67  1  0.808000  0.832700  0.776700  1.0
  H  H68  1  0.308000  0.167300  0.723300  1.0
  H  H69  1  0.149400  0.627000  0.343300  1.0
  H  H70  1  0.649400  0.373000  0.156700  1.0
  H  H71  1  0.850600  0.373000  0.656700  1.0
  H  H72  1  0.350600  0.627000  0.843300  1.0
  H  H73  1  0.495400  0.196800  0.273200  1.0
  H  H74  1  0.995400  0.803200  0.226800  1.0
  H  H75  1  0.504600  0.803200  0.726800  1.0
  H  H76  1  0.004600  0.196800  0.773200  1.0
  H  H77  1  0.407300  0.075000  0.342500  1.0
  H  H78  1  0.907300  0.925000  0.157500  1.0
  H  H79  1  0.592700  0.925000  0.657500  1.0
  H  H80  1  0.092700  0.075000  0.842500  1.0
  H  H81  1  0.504900  0.635800  0.478300  1.0
  H  H82  1  0.004900  0.364200  0.021700  1.0
  H  H83  1  0.495100  0.364200  0.521700  1.0
  H  H84  1  0.995100  0.635800  0.978300  1.0
  H  H85  1  0.719700  0.837800  0.386200  1.0
  H  H86  1  0.219700  0.162200  0.113800  1.0
  H  H87  1  0.280300  0.162200  0.613800  1.0
  H  H88  1  0.780300  0.837800  0.886200  1.0
  H  H89  1  0.919700  0.081100  0.315800  1.0
  H  H90  1  0.419700  0.918900  0.184200  1.0
  H  H91  1  0.080300  0.918900  0.684200  1.0
  H  H92  1  0.580300  0.081100  0.815800  1.0
  H  H93  1  0.565100  0.702000  0.537700  1.0
  H  H94  1  0.065100  0.298000  0.962300  1.0
  H  H95  1  0.434900  0.298000  0.462300  1.0
  H  H96  1  0.934900  0.702000  0.037700  1.0
  H  H97  1  0.298800  0.794600  0.408100  1.0
  H  H98  1  0.798800  0.205400  0.091900  1.0
  H  H99  1  0.701200  0.205400  0.591900  1.0
  H  H100  1  0.201200  0.794600  0.908100  1.0
  H  H101  1  0.036600  0.023100  0.181700  1.0
  H  H102  1  0.536600  0.976900  0.318300  1.0
  H  H103  1  0.963400  0.976900  0.818300  1.0
  H  H104  1  0.463400  0.023100  0.681700  1.0
  H  H105  1  0.153600  0.722200  0.278000  1.0
  H  H106  1  0.653600  0.277800  0.222000  1.0
  H  H107  1  0.846400  0.277800  0.722000  1.0
  H  H108  1  0.346400  0.722200  0.778000  1.0
  H  H109  1  0.463800  0.781300  0.555300  1.0
  H  H110  1  0.963800  0.218700  0.944700  1.0
  H  H111  1  0.536200  0.218700  0.444700  1.0
  H  H112  1  0.036200  0.781300  0.055300  1.0
  H  H113  1  0.687100  0.049600  0.392200  1.0
  H  H114  1  0.187100  0.950400  0.107800  1.0
  H  H115  1  0.312900  0.950400  0.607800  1.0
  H  H116  1  0.812900  0.049600  0.892200  1.0
  H  H117  1  0.824000  0.657900  0.372300  1.0
  H  H118  1  0.324000  0.342100  0.127700  1.0
  H  H119  1  0.176000  0.342100  0.627700  1.0
  H  H120  1  0.676000  0.657900  0.872300  1.0
  H  H121  1  0.775900  0.964500  0.371600  1.0
  H  H122  1  0.275900  0.035500  0.128400  1.0
  H  H123  1  0.224100  0.035500  0.628400  1.0
  H  H124  1  0.724100  0.964500  0.871600  1.0
  H  H125  1  0.016700  0.707800  0.302200  1.0
  H  H126  1  0.516700  0.292200  0.197800  1.0
  H  H127  1  0.983300  0.292200  0.697800  1.0
  H  H128  1  0.483300  0.707800  0.802200  1.0
  H  H129  1  0.688500  0.382300  0.463200  1.0
  H  H130  1  0.188500  0.617700  0.036800  1.0
  H  H131  1  0.311500  0.617700  0.536800  1.0
  H  H132  1  0.811500  0.382300  0.963200  1.0
  H  H133  1  0.356100  0.680300  0.628600  1.0
  H  H134  1  0.856100  0.319700  0.871400  1.0
  H  H135  1  0.643900  0.319700  0.371400  1.0
  H  H136  1  0.143900  0.680300  0.128600  1.0
  H  H137  1  0.115600  0.912200  0.289500  1.0
  H  H138  1  0.615600  0.087800  0.210500  1.0
  H  H139  1  0.884400  0.087800  0.710500  1.0
  H  H140  1  0.384400  0.912200  0.789500  1.0
  H  H141  1  0.701500  0.462000  0.592000  1.0
  H  H142  1  0.201500  0.538000  0.908000  1.0
  H  H143  1  0.298500  0.538000  0.408000  1.0
  H  H144  1  0.798500  0.462000  0.092000  1.0
  H  H145  1  0.072100  0.130300  0.188000  1.0
  H  H146  1  0.572100  0.869700  0.312000  1.0
  H  H147  1  0.927900  0.869700  0.812000  1.0
  H  H148  1  0.427900  0.130300  0.688000  1.0
  H  H149  1  0.691700  0.648300  0.401300  1.0
  H  H150  1  0.191700  0.351700  0.098700  1.0
  H  H151  1  0.308300  0.351700  0.598700  1.0
  H  H152  1  0.808300  0.648300  0.901300  1.0
  H  H153  1  0.751400  0.322000  0.506600  1.0
  H  H154  1  0.251400  0.678000  0.993400  1.0
  H  H155  1  0.248600  0.678000  0.493400  1.0
  H  H156  1  0.748600  0.322000  0.006600  1.0
  H  H157  1  0.452900  0.598400  0.612600  1.0
  H  H158  1  0.952900  0.401600  0.887400  1.0
  H  H159  1  0.547100  0.401600  0.387400  1.0
  H  H160  1  0.047100  0.598400  0.112600  1.0
  H  H161  1  0.200800  0.824200  0.270600  1.0
  H  H162  1  0.700800  0.175800  0.229400  1.0
  H  H163  1  0.799200  0.175800  0.729400  1.0
  H  H164  1  0.299200  0.824200  0.770600  1.0
  H  H165  1  0.758800  0.361900  0.569600  1.0
  H  H166  1  0.258800  0.638100  0.930400  1.0
  H  H167  1  0.241200  0.638100  0.430400  1.0
  H  H168  1  0.741200  0.361900  0.069600  1.0
  H  H169  1  0.679100  0.663000  0.467200  1.0
  H  H170  1  0.179100  0.337000  0.032800  1.0
  H  H171  1  0.320900  0.337000  0.532800  1.0
  H  H172  1  0.820900  0.663000  0.967200  1.0
  H  H173  1  0.800200  0.689200  0.504300  1.0
  H  H174  1  0.300200  0.310800  0.995700  1.0
  H  H175  1  0.199800  0.310800  0.495700  1.0
  H  H176  1  0.699800  0.689200  0.004300  1.0
  H  H177  1  0.254700  0.840900  0.538700  1.0
  H  H178  1  0.754700  0.159100  0.961300  1.0
  H  H179  1  0.745300  0.159100  0.461300  1.0
  H  H180  1  0.245300  0.840900  0.038700  1.0
  H  H181  1  0.187400  0.715200  0.605400  1.0
  H  H182  1  0.687400  0.284800  0.894600  1.0
  H  H183  1  0.812600  0.284800  0.394600  1.0
  H  H184  1  0.312600  0.715200  0.105400  1.0
  H  H185  1  0.139500  0.812100  0.498100  1.0
  H  H186  1  0.639500  0.187900  0.001900  1.0
  H  H187  1  0.860500  0.187900  0.501900  1.0
  H  H188  1  0.360500  0.812100  0.998100  1.0
  H  H189  1  0.073400  0.680100  0.565400  1.0
  H  H190  1  0.573400  0.319900  0.934600  1.0
  H  H191  1  0.926600  0.319900  0.434600  1.0
  H  H192  1  0.426600  0.680100  0.065400  1.0
  Pd  Pd193  1  0.437230  0.731043  0.361103  1.0
  Pd  Pd194  1  0.937230  0.268957  0.138897  1.0
  Pd  Pd195  1  0.562770  0.268957  0.638897  1.0
  Pd  Pd196  1  0.062770  0.731043  0.861103  1.0
  Pd  Pd197  1  0.675190  0.188680  0.387551  1.0
  Pd  Pd198  1  0.175190  0.811320  0.112449  1.0
  Pd  Pd199  1  0.324810  0.811320  0.612449  1.0
  Pd  Pd200  1  0.824810  0.188680  0.887551  1.0
  C  C201  1  0.006800  0.703900  0.680100  1
  C  C202  1  0.506800  0.296100  0.819900  1
  C  C203  1  0.993200  0.296100  0.319900  1
  C  C204  1  0.493200  0.703900  0.180100  1
  C  C205  1  0.004800  0.822300  0.688400  1
  C  C206  1  0.504800  0.177700  0.811600  1
  C  C207  1  0.995200  0.177700  0.311600  1
  C  C208  1  0.495200  0.822300  0.188400  1
  C  C209  1  0.972000  0.650400  0.217600  1
  C  C210  1  0.472000  0.349600  0.282400  1
  C  C211  1  0.028000  0.349600  0.782400  1
  C  C212  1  0.528000  0.650400  0.717600  1
  C  C213  1  0.840000  0.695000  0.150200  1
  C  C214  1  0.340000  0.305000  0.349800  1
  C  C215  1  0.160000  0.305000  0.849800  1
  C  C216  1  0.660000  0.695000  0.650200  1
  C  C217  1  0.545000  0.977700  0.408300  1
  C  C218  1  0.045000  0.022300  0.091700  1
  C  C219  1  0.455000  0.022300  0.591700  1
  C  C220  1  0.955000  0.977700  0.908300  1
  C  C221  1  0.440700  0.048000  0.451200  1
  C  C222  1  0.940700  0.952000  0.048800  1
  C  C223  1  0.559300  0.952000  0.548800  1
  C  C224  1  0.059300  0.048000  0.951200  1
  C  C225  1  0.463700  0.607100  0.220700  1
  C  C226  1  0.963700  0.392900  0.279300  1
  C  C227  1  0.536300  0.392900  0.779300  1
  C  C228  1  0.036300  0.607100  0.720700  1
  C  C229  1  0.453000  0.515100  0.276200  1
  C  C230  1  0.953000  0.484900  0.223800  1
  C  C231  1  0.547000  0.484900  0.723800  1
  C  C232  1  0.047000  0.515100  0.776200  1
  C  C233  1  0.822700  0.503600  0.414100  1
  C  C234  1  0.322700  0.496400  0.085900  1
  C  C235  1  0.177300  0.496400  0.585900  1
  C  C236  1  0.677300  0.503600  0.914100  1
  C  C237  1  0.850200  0.414500  0.363300  1
  C  C238  1  0.350200  0.585500  0.136700  1
  C  C239  1  0.149800  0.585500  0.636700  1
  C  C240  1  0.649800  0.414500  0.863300  1
  C  C241  1  0.924000  0.878000  0.501700  1
  C  C242  1  0.424000  0.122000  0.998300  1
  C  C243  1  0.076000  0.122000  0.498300  1
  C  C244  1  0.576000  0.878000  0.001700  1
  C  C245  1  0.882500  0.854500  0.434500  1
  C  C246  1  0.382500  0.145500  0.065500  1
  C  C247  1  0.117500  0.145500  0.565500  1
  C  C248  1  0.617500  0.854500  0.934500  1
  C  C249  1  0.670000  0.828500  0.478000  1
  C  C250  1  0.170000  0.171500  0.022000  1
  C  C251  1  0.330000  0.171500  0.522000  1
  C  C252  1  0.830000  0.828500  0.978000  1
  C  C253  1  0.628000  0.945500  0.500700  1
  C  C254  1  0.128000  0.054500  0.999300  1
  C  C255  1  0.372000  0.054500  0.499300  1
  C  C256  1  0.872000  0.945500  0.000700  1
  C  C257  1  0.071000  0.521400  0.406300  1
  C  C258  1  0.571000  0.478600  0.093700  1
  C  C259  1  0.929000  0.478600  0.593700  1
  C  C260  1  0.429000  0.521400  0.906300  1
  C  C261  1  0.049000  0.543100  0.476500  1
  C  C262  1  0.549000  0.456900  0.023500  1
  C  C263  1  0.951000  0.456900  0.523500  1
  C  C264  1  0.451000  0.543100  0.976500  1
  C  C265  1  0.147400  0.069500  0.339900  1
  C  C266  1  0.647400  0.930500  0.160100  1
  C  C267  1  0.852600  0.930500  0.660100  1
  C  C268  1  0.352600  0.069500  0.839900  1
  C  C269  1  0.135000  0.991500  0.386600  1
  C  C270  1  0.635000  0.008500  0.113400  1
  C  C271  1  0.865000  0.008500  0.613400  1
  C  C272  1  0.365000  0.991500  0.886600  1
  C  C273  1  0.080400  0.558400  0.216200  1
  C  C274  1  0.580400  0.441600  0.283800  1
  C  C275  1  0.919600  0.441600  0.783800  1
  C  C276  1  0.419600  0.558400  0.716200  1
  C  C277  1  0.317700  0.566900  0.250800  1
  C  C278  1  0.817700  0.433100  0.249200  1
  C  C279  1  0.682300  0.433100  0.749200  1
  C  C280  1  0.182300  0.566900  0.750800  1
  C  C281  1  0.895000  0.425000  0.454500  1
  C  C282  1  0.395000  0.575000  0.045500  1
  C  C283  1  0.105000  0.575000  0.545500  1
  C  C284  1  0.605000  0.425000  0.954500  1
  C  C285  1  0.808000  0.505000  0.423900  1
  C  C286  1  0.308000  0.495000  0.076100  1
  C  C287  1  0.192000  0.495000  0.576100  1
  C  C288  1  0.692000  0.505000  0.923900  1
  C  C289  1  0.581000  0.773000  0.499800  1
  C  C290  1  0.081000  0.227000  0.000200  1
  C  C291  1  0.419000  0.227000  0.500200  1
  C  C292  1  0.919000  0.773000  0.999800  1
  C  C293  1  0.682000  0.739000  0.552000  1
  C  C294  1  0.182000  0.261000  0.948000  1
  C  C295  1  0.318000  0.261000  0.448000  1
  C  C296  1  0.818000  0.739000  0.052000  1
  C  C297  1  0.959700  0.066500  0.424100  1
  C  C298  1  0.459700  0.933500  0.075900  1
  C  C299  1  0.040300  0.933500  0.575900  1
  C  C300  1  0.540300  0.066500  0.924100  1
  C  C301  1  0.087500  0.061300  0.373600  1
  C  C302  1  0.587500  0.938700  0.126400  1
  C  C303  1  0.912500  0.938700  0.626400  1
  C  C304  1  0.412500  0.061300  0.873600  1
  C  C305  1  0.852800  0.702400  0.220600  1
  C  C306  1  0.352800  0.297600  0.279400  1
  C  C307  1  0.147200  0.297600  0.779400  1
  C  C308  1  0.647200  0.702400  0.720600  1
  C  C309  1  0.208700  0.016800  0.233730  1.0
  C  C310  1  0.708700  0.983200  0.266270  1.0
  C  C311  1  0.791300  0.983200  0.766270  1.0
  C  C312  1  0.291300  0.016800  0.733730  1.0
  C  C313  1  0.305000  0.938100  0.267480  1.0
  C  C314  1  0.805000  0.061900  0.232520  1.0
  C  C315  1  0.695000  0.061900  0.732520  1.0
  C  C316  1  0.195000  0.938100  0.767480  1.0
  C  C317  1  0.135600  0.703400  0.383300  1.0
  C  C318  1  0.635600  0.296600  0.116700  1.0
  C  C319  1  0.864400  0.296600  0.616700  1.0
  C  C320  1  0.364400  0.703400  0.883300  1.0
  C  C321  1  0.348000  0.894000  0.288220  1.0
  C  C322  1  0.848000  0.106000  0.211780  1.0
  C  C323  1  0.652000  0.106000  0.711780  1.0
  C  C324  1  0.152000  0.894000  0.788220  1.0
  C  C325  1  0.538800  0.570800  0.433430  1.0
  C  C326  1  0.038800  0.429200  0.066570  1.0
  C  C327  1  0.461200  0.429200  0.566570  1.0
  C  C328  1  0.961200  0.570800  0.933430  1.0
  C  C329  1  0.261700  0.973600  0.251650  1.0
  C  C330  1  0.761700  0.026400  0.248350  1.0
  C  C331  1  0.738300  0.026400  0.748350  1.0
  C  C332  1  0.238300  0.973600  0.751650  1.0
  C  C333  1  0.372300  0.834200  0.270570  1.0
  C  C334  1  0.872300  0.165800  0.229430  1.0
  C  C335  1  0.627700  0.165800  0.729430  1.0
  C  C336  1  0.127700  0.834200  0.770570  1.0
  C  C337  1  0.229400  0.081800  0.237900  1.0
  C  C338  1  0.729400  0.918200  0.262100  1.0
  C  C339  1  0.770600  0.918200  0.762100  1.0
  C  C340  1  0.270600  0.081800  0.737900  1.0
  C  C341  1  0.401100  0.788700  0.292270  1.0
  C  C342  1  0.901100  0.211300  0.207730  1.0
  C  C343  1  0.598900  0.211300  0.707730  1.0
  C  C344  1  0.098900  0.788700  0.792270  1.0
  C  C345  1  0.974900  0.688900  0.404620  1.0
  C  C346  1  0.474900  0.311100  0.095380  1.0
  C  C347  1  0.025100  0.311100  0.595380  1.0
  C  C348  1  0.525100  0.688900  0.904620  1.0
  C  C349  1  0.606100  0.791500  0.375300  1.0
  C  C350  1  0.106100  0.208500  0.124700  1.0
  C  C351  1  0.393900  0.208500  0.624700  1.0
  C  C352  1  0.893900  0.791500  0.875300  1.0
  C  C353  1  0.615100  0.494000  0.475350  1.0
  C  C354  1  0.115100  0.506000  0.024650  1.0
  C  C355  1  0.384900  0.506000  0.524650  1.0
  C  C356  1  0.884900  0.494000  0.975350  1.0
  C  C357  1  0.824700  0.782000  0.333333  1.0
  C  C358  1  0.324700  0.218000  0.166667  1.0
  C  C359  1  0.175300  0.218000  0.666667  1.0
  C  C360  1  0.675300  0.782000  0.833333  1.0
  C  C361  1  0.655500  0.457900  0.501860  1.0
  C  C362  1  0.155500  0.542100  0.998140  1.0
  C  C363  1  0.344500  0.542100  0.498140  1.0
  C  C364  1  0.844500  0.457900  0.001860  1.0
  C  C365  1  0.360900  0.907400  0.327060  1.0
  C  C366  1  0.860900  0.092600  0.172940  1.0
  C  C367  1  0.639100  0.092600  0.672940  1.0
  C  C368  1  0.139100  0.907400  0.827060  1.0
  C  C369  1  0.438400  0.133200  0.303520  1.0
  C  C370  1  0.938400  0.866800  0.196480  1.0
  C  C371  1  0.561600  0.866800  0.696480  1.0
  C  C372  1  0.061600  0.133200  0.803520  1.0
  C  C373  1  0.737100  0.768700  0.341060  1.0
  C  C374  1  0.237100  0.231300  0.158940  1.0
  C  C375  1  0.262900  0.231300  0.658940  1.0
  C  C376  1  0.762900  0.768700  0.841060  1.0
  C  C377  1  0.580200  0.526900  0.455330  1.0
  C  C378  1  0.080200  0.473100  0.044670  1.0
  C  C379  1  0.419800  0.473100  0.544670  1.0
  C  C380  1  0.919800  0.526900  0.955330  1.0
  C  C381  1  0.303500  0.103400  0.260050  1.0
  C  C382  1  0.803500  0.896600  0.239950  1.0
  C  C383  1  0.696500  0.896600  0.739950  1.0
  C  C384  1  0.196500  0.103400  0.760050  1.0
  C  C385  1  0.365600  0.118400  0.279430  1.0
  C  C386  1  0.865600  0.881600  0.220570  1.0
  C  C387  1  0.634400  0.881600  0.720570  1.0
  C  C388  1  0.134400  0.118400  0.779430  1.0
  C  C389  1  0.391700  0.860700  0.347020  1.0
  C  C390  1  0.891700  0.139300  0.152980  1.0
  C  C391  1  0.608300  0.139300  0.652980  1.0
  C  C392  1  0.108300  0.860700  0.847020  1.0
  C  C393  1  0.533000  0.558700  0.394090  1.0
  C  C394  1  0.033000  0.441300  0.105910  1.0
  C  C395  1  0.467000  0.441300  0.605910  1.0
  C  C396  1  0.967000  0.558700  0.894090  1.0
  C  C397  1  0.496700  0.604800  0.374270  1.0
  C  C398  1  0.996700  0.395200  0.125730  1.0
  C  C399  1  0.503300  0.395200  0.625730  1.0
  C  C400  1  0.003300  0.604800  0.874270  1.0
  C  C401  1  0.265600  0.671000  0.351110  1.0
  C  C402  1  0.765600  0.329000  0.148890  1.0
  C  C403  1  0.734400  0.329000  0.648890  1.0
  C  C404  1  0.234400  0.671000  0.851110  1.0
  C  C405  1  0.471500  0.671700  0.429760  1.0
  C  C406  1  0.971500  0.328300  0.070240  1.0
  C  C407  1  0.528500  0.328300  0.570240  1.0
  C  C408  1  0.028500  0.671700  0.929760  1.0
  C  C409  1  0.607400  0.710600  0.324990  1.0
  C  C410  1  0.107400  0.289400  0.175010  1.0
  C  C411  1  0.392600  0.289400  0.675010  1.0
  C  C412  1  0.892600  0.710600  0.824990  1.0
  C  C413  1  0.570300  0.188700  0.319040  1.0
  C  C414  1  0.070300  0.811300  0.180960  1.0
  C  C415  1  0.429700  0.811300  0.680960  1.0
  C  C416  1  0.929700  0.188700  0.819040  1.0
  C  C417  1  0.693400  0.721800  0.318610  1.0
  C  C418  1  0.193400  0.278200  0.181390  1.0
  C  C419  1  0.306600  0.278200  0.681390  1.0
  C  C420  1  0.806600  0.721800  0.818610  1.0
  C  C421  1  0.046400  0.694600  0.392980  1.0
  C  C422  1  0.546400  0.305400  0.107020  1.0
  C  C423  1  0.953600  0.305400  0.607020  1.0
  C  C424  1  0.453600  0.694600  0.892980  1.0
  C  C425  1  0.181100  0.754200  0.402200  1.0
  C  C426  1  0.681100  0.245800  0.097800  1.0
  C  C427  1  0.818900  0.245800  0.597800  1.0
  C  C428  1  0.318900  0.754200  0.902200  1.0
  C  C429  1  0.892200  0.682400  0.421730  1.0
  C  C430  1  0.392200  0.317600  0.078270  1.0
  C  C431  1  0.107800  0.317600  0.578270  1.0
  C  C432  1  0.607800  0.682400  0.921730  1.0
  C  C433  1  0.983600  0.801300  0.310700  1.0
  C  C434  1  0.483600  0.198700  0.189300  1.0
  C  C435  1  0.016400  0.198700  0.689300  1.0
  C  C436  1  0.516400  0.801300  0.810700  1.0
  C  C437  1  0.617000  0.541100  0.553000  1.0
  C  C438  1  0.117000  0.458900  0.947000  1.0
  C  C439  1  0.383000  0.458900  0.447000  1.0
  C  C440  1  0.883000  0.541100  0.053000  1.0
  C  C441  1  0.518500  0.639900  0.572850  1.0
  C  C442  1  0.018500  0.360100  0.927150  1.0
  C  C443  1  0.481500  0.360100  0.427150  1.0
  C  C444  1  0.981500  0.639900  0.072850  1.0
  C  C445  1  0.817100  0.122000  0.345100  1.0
  C  C446  1  0.317100  0.878000  0.154900  1.0
  C  C447  1  0.182900  0.878000  0.654900  1.0
  C  C448  1  0.682900  0.122000  0.845100  1.0
  C  C449  1  0.520100  0.119600  0.359070  1.0
  C  C450  1  0.020100  0.880400  0.140930  1.0
  C  C451  1  0.479900  0.880400  0.640930  1.0
  C  C452  1  0.979900  0.119600  0.859070  1.0
  C  C453  1  0.137500  0.995400  0.212360  1.0
  C  C454  1  0.637500  0.004600  0.287640  1.0
  C  C455  1  0.862500  0.004600  0.787640  1.0
  C  C456  1  0.362500  0.995400  0.712360  1.0
  C  C457  1  0.178100  0.123400  0.220700  1.0
  C  C458  1  0.678100  0.876600  0.279300  1.0
  C  C459  1  0.821900  0.876600  0.779300  1.0
  C  C460  1  0.321900  0.123400  0.720700  1.0
  C  C461  1  0.913000  0.960700  0.328200  1.0
  C  C462  1  0.413000  0.039300  0.171800  1.0
  C  C463  1  0.087000  0.039300  0.671800  1.0
  C  C464  1  0.587000  0.960700  0.828200  1.0
  C  C465  1  0.178900  0.661700  0.357100  1.0
  C  C466  1  0.678900  0.338300  0.142900  1.0
  C  C467  1  0.821100  0.338300  0.642900  1.0
  C  C468  1  0.321100  0.661700  0.857100  1.0
  C  C469  1  0.500700  0.176100  0.295320  1.0
  C  C470  1  0.000700  0.823900  0.204680  1.0
  C  C471  1  0.499300  0.823900  0.704680  1.0
  C  C472  1  0.999300  0.176100  0.795320  1.0
  C  C473  1  0.856700  0.013300  0.341580  1.0
  C  C474  1  0.356700  0.986700  0.158420  1.0
  C  C475  1  0.143300  0.986700  0.658420  1.0
  C  C476  1  0.643300  0.013300  0.841580  1.0
  C  C477  1  0.448700  0.104700  0.335930  1.0
  C  C478  1  0.948700  0.895300  0.164070  1.0
  C  C479  1  0.551300  0.895300  0.664070  1.0
  C  C480  1  0.051300  0.104700  0.835930  1.0
  C  C481  1  0.958500  0.917600  0.318300  1.0
  C  C482  1  0.458500  0.082400  0.181700  1.0
  C  C483  1  0.041500  0.082400  0.681700  1.0
  C  C484  1  0.541500  0.917600  0.818300  1.0
  C  C485  1  0.505000  0.627500  0.451370  1.0
  C  C486  1  0.005000  0.372500  0.048630  1.0
  C  C487  1  0.495000  0.372500  0.548630  1.0
  C  C488  1  0.995000  0.627500  0.951370  1.0
  C  C489  1  0.898000  0.791500  0.323730  1.0
  C  C490  1  0.398000  0.208500  0.176270  1.0
  C  C491  1  0.102000  0.208500  0.676270  1.0
  C  C492  1  0.602000  0.791500  0.823730  1.0
  C  C493  1  0.013100  0.863000  0.307400  1.0
  C  C494  1  0.513100  0.137000  0.192600  1.0
  C  C495  1  0.986900  0.137000  0.692600  1.0
  C  C496  1  0.486900  0.863000  0.807400  1.0
  C  C497  1  0.691800  0.804700  0.370160  1.0
  C  C498  1  0.191800  0.195300  0.129840  1.0
  C  C499  1  0.308200  0.195300  0.629840  1.0
  C  C500  1  0.808200  0.804700  0.870160  1.0
  C  C501  1  0.872300  0.073600  0.331540  1.0
  C  C502  1  0.372300  0.926400  0.168460  1.0
  C  C503  1  0.127700  0.926400  0.668460  1.0
  C  C504  1  0.627700  0.073600  0.831540  1.0
  C  C505  1  0.522200  0.696200  0.556100  1.0
  C  C506  1  0.022200  0.303800  0.943900  1.0
  C  C507  1  0.477800  0.303800  0.443900  1.0
  C  C508  1  0.977800  0.696200  0.056100  1.0
  C  C509  1  0.267800  0.760100  0.394960  1.0
  C  C510  1  0.767800  0.239900  0.105040  1.0
  C  C511  1  0.732200  0.239900  0.605040  1.0
  C  C512  1  0.232200  0.760100  0.894960  1.0
  C  C513  1  0.086200  0.037900  0.195820  1.0
  C  C514  1  0.586200  0.962100  0.304180  1.0
  C  C515  1  0.913800  0.962100  0.804180  1.0
  C  C516  1  0.413800  0.037900  0.695820  1.0
  C  C517  1  0.885300  0.690900  0.460950  1.0
  C  C518  1  0.385300  0.309100  0.039050  1.0
  C  C519  1  0.114700  0.309100  0.539050  1.0
  C  C520  1  0.614700  0.690900  0.960950  1.0
  C  C521  1  0.117400  0.757700  0.285200  1.0
  C  C522  1  0.617400  0.242300  0.214800  1.0
  C  C523  1  0.882600  0.242300  0.714800  1.0
  C  C524  1  0.382600  0.757700  0.785200  1.0
  C  C525  1  0.461900  0.743300  0.566830  1.0
  C  C526  1  0.961900  0.256700  0.933170  1.0
  C  C527  1  0.538100  0.256700  0.433170  1.0
  C  C528  1  0.038100  0.743300  0.066830  1.0
  C  C529  1  0.959100  0.709100  0.484000  1.0
  C  C530  1  0.459100  0.290900  0.016000  1.0
  C  C531  1  0.040900  0.290900  0.516000  1.0
  C  C532  1  0.540900  0.709100  0.984000  1.0
  C  C533  1  0.735200  0.056000  0.376600  1.0
  C  C534  1  0.235200  0.944000  0.123400  1.0
  C  C535  1  0.264800  0.944000  0.623400  1.0
  C  C536  1  0.764800  0.056000  0.876600  1.0
  C  C537  1  0.659000  0.481500  0.539740  1.0
  C  C538  1  0.159000  0.518500  0.960260  1.0
  C  C539  1  0.341000  0.518500  0.460260  1.0
  C  C540  1  0.841000  0.481500  0.039740  1.0
  C  C541  1  0.819200  0.665200  0.399200  1.0
  C  C542  1  0.319200  0.334800  0.100800  1.0
  C  C543  1  0.180800  0.334800  0.600800  1.0
  C  C544  1  0.680800  0.665200  0.899200  1.0
  C  C545  1  0.787800  0.005200  0.364300  1.0
  C  C546  1  0.287800  0.994800  0.135700  1.0
  C  C547  1  0.212200  0.994800  0.635700  1.0
  C  C548  1  0.712200  0.005200  0.864300  1.0
  C  C549  1  0.576400  0.588600  0.562300  1.0
  C  C550  1  0.076400  0.411400  0.937700  1.0
  C  C551  1  0.423600  0.411400  0.437700  1.0
  C  C552  1  0.923600  0.588600  0.062300  1.0
  C  C553  1  0.036600  0.749400  0.299670  1.0
  C  C554  1  0.536600  0.250600  0.200330  1.0
  C  C555  1  0.963400  0.250600  0.700330  1.0
  C  C556  1  0.463400  0.749400  0.799670  1.0
  C  C557  1  0.690600  0.398400  0.489400  1.0
  C  C558  1  0.190600  0.601600  0.010600  1.0
  C  C559  1  0.309400  0.601600  0.510600  1.0
  C  C560  1  0.809400  0.398400  0.989400  1.0
  C  C561  1  0.398500  0.684200  0.609700  1.0
  C  C562  1  0.898500  0.315800  0.890300  1.0
  C  C563  1  0.601500  0.315800  0.390300  1.0
  C  C564  1  0.101500  0.684200  0.109700  1.0
  C  C565  1  0.095000  0.870900  0.292200  1.0
  C  C566  1  0.595000  0.129100  0.207800  1.0
  C  C567  1  0.905000  0.129100  0.707800  1.0
  C  C568  1  0.405000  0.870900  0.792200  1.0
  C  C569  1  0.698200  0.446000  0.565800  1.0
  C  C570  1  0.198200  0.554000  0.934200  1.0
  C  C571  1  0.301800  0.554000  0.434200  1.0
  C  C572  1  0.801800  0.446000  0.065800  1.0
  C  C573  1  0.106900  0.101500  0.199800  1.0
  C  C574  1  0.606900  0.898500  0.300200  1.0
  C  C575  1  0.893100  0.898500  0.800200  1.0
  C  C576  1  0.393100  0.101500  0.699800  1.0
  C  C577  1  0.741200  0.658900  0.416400  1.0
  C  C578  1  0.241200  0.341100  0.083600  1.0
  C  C579  1  0.258800  0.341100  0.583600  1.0
  C  C580  1  0.758800  0.658900  0.916400  1.0
  C  C581  1  0.728300  0.362800  0.515000  1.0
  C  C582  1  0.228300  0.637200  0.985000  1.0
  C  C583  1  0.271700  0.637200  0.485000  1.0
  C  C584  1  0.771700  0.362800  0.015000  1.0
  C  C585  1  0.456100  0.635500  0.600200  1.0
  C  C586  1  0.956100  0.364500  0.899800  1.0
  C  C587  1  0.543900  0.364500  0.399800  1.0
  C  C588  1  0.043900  0.635500  0.100200  1.0
  C  C589  1  0.020400  0.724000  0.503800  1.0
  C  C590  1  0.520400  0.276000  0.996200  1.0
  C  C591  1  0.979600  0.276000  0.496200  1.0
  C  C592  1  0.479600  0.724000  0.003800  1.0
  C  C593  1  0.145600  0.818500  0.281200  1.0
  C  C594  1  0.645600  0.181500  0.218800  1.0
  C  C595  1  0.854400  0.181500  0.718800  1.0
  C  C596  1  0.354400  0.818500  0.781200  1.0
  C  C597  1  0.732200  0.386400  0.552200  1.0
  C  C598  1  0.232200  0.613600  0.947800  1.0
  C  C599  1  0.267800  0.613600  0.447800  1.0
  C  C600  1  0.767800  0.386400  0.052200  1.0
  C  C601  1  0.733400  0.667700  0.455500  1.0
  C  C602  1  0.233400  0.332300  0.044500  1.0
  C  C603  1  0.266600  0.332300  0.544500  1.0
  C  C604  1  0.766600  0.667700  0.955500  1.0
  C  C605  1  0.805400  0.683400  0.477400  1.0
  C  C606  1  0.305400  0.316600  0.022600  1.0
  C  C607  1  0.194600  0.316600  0.522600  1.0
  C  C608  1  0.694600  0.683400  0.977400  1.0
  C  C609  1  0.092600  0.743000  0.527900  1.0
  C  C610  1  0.592600  0.257000  0.972100  1.0
  C  C611  1  0.907400  0.257000  0.472100  1.0
  C  C612  1  0.407400  0.743000  0.027900  1.0
  C  C613  1  0.216300  0.808600  0.544500  1.0
  C  C614  1  0.716300  0.191400  0.955500  1.0
  C  C615  1  0.783700  0.191400  0.455500  1.0
  C  C616  1  0.283700  0.808600  0.044500  1.0
  C  C617  1  0.177500  0.734900  0.583100  1.0
  C  C618  1  0.677500  0.265100  0.916900  1.0
  C  C619  1  0.822500  0.265100  0.416900  1.0
  C  C620  1  0.322500  0.734900  0.083100  1.0
  C  C621  1  0.148200  0.791300  0.520000  1.0
  C  C622  1  0.648200  0.208700  0.980000  1.0
  C  C623  1  0.851800  0.208700  0.480000  1.0
  C  C624  1  0.351800  0.791300  0.020000  1.0
  C  C625  1  0.108700  0.714100  0.559600  1.0
  C  C626  1  0.608700  0.285900  0.940400  1.0
  C  C627  1  0.891300  0.285900  0.440400  1.0
  C  C628  1  0.391300  0.714100  0.059600  1.0
  S  S629  1  0.953400  0.768600  0.706800  1
  S  S630  1  0.453400  0.231400  0.793200  1
  S  S631  1  0.046600  0.231400  0.293200  1
  S  S632  1  0.546600  0.768600  0.206800  1
  S  S633  1  0.909100  0.667600  0.180300  1
  S  S634  1  0.409100  0.332400  0.319700  1
  S  S635  1  0.090900  0.332400  0.819700  1
  S  S636  1  0.590900  0.667600  0.680300  1
  S  S637  1  0.548600  0.040900  0.445000  1
  S  S638  1  0.048600  0.959100  0.055000  1
  S  S639  1  0.451400  0.959100  0.555000  1
  S  S640  1  0.951400  0.040900  0.945000  1
  S  S641  1  0.425990  0.582020  0.261340  1
  S  S642  1  0.925990  0.417980  0.238660  1
  S  S643  1  0.574010  0.417980  0.738660  1
  S  S644  1  0.074010  0.582020  0.761340  1
  S  S645  1  0.762300  0.438000  0.391870  1
  S  S646  1  0.262300  0.562000  0.108130  1
  S  S647  1  0.237700  0.562000  0.608130  1
  S  S648  1  0.737700  0.438000  0.891870  1
  S  S649  1  0.975200  0.867500  0.456200  1
  S  S650  1  0.475200  0.132500  0.043800  1
  S  S651  1  0.024800  0.132500  0.543800  1
  S  S652  1  0.524800  0.867500  0.956200  1
  S  S653  1  0.675400  0.904200  0.464200  1
  S  S654  1  0.175400  0.095800  0.035800  1
  S  S655  1  0.324600  0.095800  0.535800  1
  S  S656  1  0.824600  0.904200  0.964200  1
  S  S657  1  0.061700  0.477400  0.445800  1
  S  S658  1  0.561700  0.522600  0.054200  1
  S  S659  1  0.938300  0.522600  0.554200  1
  S  S660  1  0.438300  0.477400  0.945800  1
  S  S661  1  0.198400  0.054800  0.382900  1
  S  S662  1  0.698400  0.945200  0.117100  1
  S  S663  1  0.801600  0.945200  0.617100  1
  S  S664  1  0.301600  0.054800  0.882900  1
  S  S665  1  0.967900  0.569100  0.210800  1
  S  S666  1  0.467900  0.430900  0.289200  1
  S  S667  1  0.032100  0.430900  0.789200  1
  S  S668  1  0.532100  0.569100  0.710800  1
  S  S669  1  0.834600  0.427700  0.412300  1
  S  S670  1  0.334600  0.572300  0.087700  1
  S  S671  1  0.165400  0.572300  0.587700  1
  S  S672  1  0.665400  0.427700  0.912300  1
  S  S673  1  0.658000  0.806000  0.533400  1
  S  S674  1  0.158000  0.194000  0.966600  1
  S  S675  1  0.342000  0.194000  0.466600  1
  S  S676  1  0.842000  0.806000  0.033400  1
  S  S677  1  0.033700  0.113300  0.403600  1
  S  S678  1  0.533700  0.886700  0.096400  1
  S  S679  1  0.966300  0.886700  0.596400  1
  S  S680  1  0.466300  0.113300  0.903600  1
  N  N681  1  0.424800  0.840100  0.465900  1
  N  N682  1  0.924800  0.159900  0.034100  1
  N  N683  1  0.575200  0.159900  0.534100  1
  N  N684  1  0.075200  0.840100  0.965900  1
  N  N685  1  0.944800  0.585400  0.315900  1
  N  N686  1  0.444800  0.414600  0.184100  1
  N  N687  1  0.055200  0.414600  0.684100  1
  N  N688  1  0.555200  0.585400  0.815900  1
  N  N689  1  0.245600  0.707400  0.697700  1
  N  N690  1  0.745600  0.292600  0.802300  1
  N  N691  1  0.754400  0.292600  0.302300  1
  N  N692  1  0.254400  0.707400  0.197700  1
  N  N693  1  0.212000  0.928700  0.438900  1
  N  N694  1  0.712000  0.071300  0.061100  1
  N  N695  1  0.788000  0.071300  0.561100  1
  N  N696  1  0.288000  0.928700  0.938900  1
  N  N697  1  0.294200  0.726300  0.192600  1
  N  N698  1  0.794200  0.273700  0.307400  1
  N  N699  1  0.705800  0.273700  0.807400  1
  N  N700  1  0.205800  0.726300  0.692600  1
  N  N701  1  0.695700  0.792100  0.586700  1
  N  N702  1  0.195700  0.207900  0.913300  1
  N  N703  1  0.304300  0.207900  0.413300  1
  N  N704  1  0.804300  0.792100  0.086700  1
  N  N705  1  0.309400  0.718800  0.370040  1.0
  N  N706  1  0.809400  0.281200  0.129960  1.0
  N  N707  1  0.690600  0.281200  0.629960  1.0
  N  N708  1  0.190600  0.718800  0.870040  1.0
  N  N709  1  0.564600  0.746000  0.353030  1.0
  N  N710  1  0.064600  0.254000  0.146970  1.0
  N  N711  1  0.435400  0.254000  0.646970  1.0
  N  N712  1  0.935400  0.746000  0.853030  1.0
  N  N713  1  0.579600  0.160800  0.350560  1.0
  N  N714  1  0.079600  0.839200  0.149440  1.0
  N  N715  1  0.420400  0.839200  0.649440  1.0
  N  N716  1  0.920400  0.160800  0.850560  1.0
  N  N717  1  0.750300  0.113900  0.367120  1.0
  N  N718  1  0.250300  0.886100  0.132880  1.0
  N  N719  1  0.249700  0.886100  0.632880  1.0
  N  N720  1  0.749700  0.113900  0.867120  1.0
  N  N721  1  0.401600  0.736900  0.592840  1.0
  N  N722  1  0.901600  0.263100  0.907160  1.0
  N  N723  1  0.598400  0.263100  0.407160  1.0
  N  N724  1  0.098400  0.736900  0.092840  1.0
  N  N725  1  0.408800  0.801700  0.330280  1.0
  N  N726  1  0.908800  0.198300  0.169720  1.0
  N  N727  1  0.591200  0.198300  0.669720  1.0
  N  N728  1  0.091200  0.801700  0.830280  1.0
  N  N729  1  0.468600  0.660200  0.391770  1.0
  N  N730  1  0.968600  0.339800  0.108230  1.0
  N  N731  1  0.531400  0.339800  0.608230  1.0
  N  N732  1  0.031400  0.660200  0.891770  1.0
  N  N733  1  0.229400  0.781300  0.575640  1.0
  N  N734  1  0.729400  0.218700  0.924360  1.0
  N  N735  1  0.770600  0.218700  0.424360  1.0
  N  N736  1  0.270600  0.781300  0.075640  1.0
  O  O737  1  0.442900  0.827600  0.432640  1
  O  O738  1  0.942900  0.172400  0.067360  1
  O  O739  1  0.557100  0.172400  0.567360  1
  O  O740  1  0.057100  0.827600  0.932640  1
  O  O741  1  0.404100  0.800900  0.485500  1
  O  O742  1  0.904100  0.199100  0.014500  1
  O  O743  1  0.595900  0.199100  0.514500  1
  O  O744  1  0.095900  0.800900  0.985500  1
  O  O745  1  0.427400  0.896700  0.479100  1
  O  O746  1  0.927400  0.103300  0.020900  1
  O  O747  1  0.572600  0.103300  0.520900  1
  O  O748  1  0.072600  0.896700  0.979100  1
  O  O749  1  0.020800  0.589200  0.305700  1
  O  O750  1  0.520800  0.410800  0.194300  1
  O  O751  1  0.979200  0.410800  0.694300  1
  O  O752  1  0.479200  0.589200  0.805700  1
  O  O753  1  0.892200  0.617900  0.304300  1
  O  O754  1  0.392200  0.382100  0.195700  1
  O  O755  1  0.107800  0.382100  0.695700  1
  O  O756  1  0.607800  0.617900  0.804300  1
  O  O757  1  0.925600  0.543800  0.336000  1
  O  O758  1  0.425600  0.456200  0.164000  1
  O  O759  1  0.074400  0.456200  0.664000  1
  O  O760  1  0.574400  0.543800  0.836000  1
  O  O761  1  0.860900  0.761100  0.693900  1
  O  O762  1  0.360900  0.238900  0.806100  1
  O  O763  1  0.139100  0.238900  0.306100  1
  O  O764  1  0.639100  0.761100  0.193900  1
  O  O765  1  0.940900  0.557700  0.169700  1
  O  O766  1  0.440900  0.442300  0.330300  1
  O  O767  1  0.059100  0.442300  0.830300  1
  O  O768  1  0.559100  0.557700  0.669700  1
  O  O769  1  0.998700  0.690000  0.177000  1
  O  O770  1  0.498700  0.310000  0.323000  1
  O  O771  1  0.001300  0.310000  0.823000  1
  O  O772  1  0.501300  0.690000  0.677000  1
  O  O773  1  0.234300  0.742200  0.674600  1
  O  O774  1  0.734300  0.257800  0.825400  1
  O  O775  1  0.765700  0.257800  0.325400  1
  O  O776  1  0.265700  0.742200  0.174600  1
  O  O777  1  0.200300  0.709200  0.725700  1
  O  O778  1  0.700300  0.290800  0.774300  1
  O  O779  1  0.799700  0.290800  0.274300  1
  O  O780  1  0.299700  0.709200  0.225700  1
  O  O781  1  0.318300  0.683000  0.701300  1
  O  O782  1  0.818300  0.317000  0.798700  1
  O  O783  1  0.681700  0.317000  0.298700  1
  O  O784  1  0.181700  0.683000  0.201300  1
  O  O785  1  0.592500  0.097900  0.441900  1
  O  O786  1  0.092500  0.902100  0.058100  1
  O  O787  1  0.407500  0.902100  0.558100  1
  O  O788  1  0.907500  0.097900  0.941900  1
  O  O789  1  0.193000  0.893600  0.462000  1
  O  O790  1  0.693000  0.106400  0.038000  1
  O  O791  1  0.807000  0.106400  0.538000  1
  O  O792  1  0.307000  0.893600  0.962000  1
  O  O793  1  0.262000  0.917600  0.413900  1
  O  O794  1  0.762000  0.082400  0.086100  1
  O  O795  1  0.738000  0.082400  0.586100  1
  O  O796  1  0.238000  0.917600  0.913900  1
  O  O797  1  0.212000  0.985100  0.453400  1
  O  O798  1  0.712000  0.014900  0.046600  1
  O  O799  1  0.788000  0.014900  0.546600  1
  O  O800  1  0.288000  0.985100  0.953400  1
  O  O801  1  0.429400  0.635700  0.292830  1
  O  O802  1  0.929400  0.364300  0.207170  1
  O  O803  1  0.570600  0.364300  0.707170  1
  O  O804  1  0.070600  0.635700  0.792830  1
  O  O805  1  0.695300  0.462700  0.365500  1
  O  O806  1  0.195300  0.537300  0.134500  1
  O  O807  1  0.304700  0.537300  0.634500  1
  O  O808  1  0.804700  0.462700  0.865500  1
  O  O809  1  0.022200  0.921100  0.450300  1
  O  O810  1  0.522200  0.078900  0.049700  1
  O  O811  1  0.977800  0.078900  0.549700  1
  O  O812  1  0.477800  0.921100  0.950300  1
  O  O813  1  0.729000  0.927900  0.436200  1
  O  O814  1  0.229000  0.072100  0.063800  1
  O  O815  1  0.271000  0.072100  0.563800  1
  O  O816  1  0.771000  0.927900  0.936200  1
  O  O817  1  0.987200  0.433100  0.440400  1
  O  O818  1  0.487200  0.566900  0.059600  1
  O  O819  1  0.012800  0.566900  0.559600  1
  O  O820  1  0.512800  0.433100  0.940400  1
  O  O821  1  0.291800  0.034300  0.376100  1
  O  O822  1  0.791800  0.965700  0.123900  1
  O  O823  1  0.708200  0.965700  0.623900  1
  O  O824  1  0.208200  0.034300  0.876100  1
  O  O825  1  0.716200  0.563400  0.322600  1
  O  O826  1  0.216200  0.436600  0.177400  1
  O  O827  1  0.283800  0.436600  0.677400  1
  O  O828  1  0.783800  0.563400  0.822600  1
  O  O829  1  0.710300  0.484600  0.657500  1
  O  O830  1  0.210300  0.515400  0.842500  1
  O  O831  1  0.289700  0.515400  0.342500  1
  O  O832  1  0.789700  0.484600  0.157500  1
  O  O833  1  0.638400  0.516400  0.187900  1
  O  O834  1  0.138400  0.483600  0.312100  1
  O  O835  1  0.361600  0.483600  0.812100  1
  O  O836  1  0.861600  0.516400  0.687900  1
  O  O837  1  0.845000  0.564000  0.734000  1
  O  O838  1  0.345000  0.436000  0.766000  1
  O  O839  1  0.155000  0.436000  0.266000  1
  O  O840  1  0.655000  0.564000  0.234000  1
  O  O841  1  0.809800  0.038200  0.463500  1
  O  O842  1  0.309800  0.961800  0.036500  1
  O  O843  1  0.190200  0.961800  0.536500  1
  O  O844  1  0.690200  0.038200  0.963500  1
  O  O845  1  0.864000  0.747000  0.582100  1
  O  O846  1  0.364000  0.253000  0.917900  1
  O  O847  1  0.136000  0.253000  0.417900  1
  O  O848  1  0.636000  0.747000  0.082100  1
  O  O849  1  0.880000  0.637000  0.576800  1
  O  O850  1  0.380000  0.363000  0.923200  1
  O  O851  1  0.120000  0.363000  0.423200  1
  O  O852  1  0.620000  0.637000  0.076800  1
  O  O853  1  0.091100  0.586600  0.275100  1
  O  O854  1  0.591100  0.413400  0.224900  1
  O  O855  1  0.908900  0.413400  0.724900  1
  O  O856  1  0.408900  0.586600  0.775100  1
  O  O857  1  0.248900  0.728000  0.165600  1
  O  O858  1  0.748900  0.272000  0.334400  1
  O  O859  1  0.751100  0.272000  0.834400  1
  O  O860  1  0.251100  0.728000  0.665600  1
  O  O861  1  0.272000  0.711000  0.222500  1
  O  O862  1  0.772000  0.289000  0.277500  1
  O  O863  1  0.728000  0.289000  0.777500  1
  O  O864  1  0.228000  0.711000  0.722500  1
  O  O865  1  0.372000  0.740000  0.188900  1
  O  O866  1  0.872000  0.260000  0.311100  1
  O  O867  1  0.628000  0.260000  0.811100  1
  O  O868  1  0.128000  0.740000  0.688900  1
  O  O869  1  0.392000  0.638000  0.709200  1
  O  O870  1  0.892000  0.362000  0.790800  1
  O  O871  1  0.608000  0.362000  0.290800  1
  O  O872  1  0.108000  0.638000  0.209200  1
  O  O873  1  0.594000  0.107000  0.443500  1
  O  O874  1  0.094000  0.893000  0.056500  1
  O  O875  1  0.406000  0.893000  0.556500  1
  O  O876  1  0.906000  0.107000  0.943500  1
  O  O877  1  0.479000  0.980000  0.413000  1
  O  O878  1  0.979000  0.020000  0.087000  1
  O  O879  1  0.521000  0.020000  0.587000  1
  O  O880  1  0.021000  0.980000  0.913000  1
  O  O881  1  0.692000  0.790000  0.620800  1
  O  O882  1  0.192000  0.210000  0.879200  1
  O  O883  1  0.308000  0.210000  0.379200  1
  O  O884  1  0.808000  0.790000  0.120800  1
  O  O885  1  0.719000  0.744800  0.566300  1
  O  O886  1  0.219000  0.255200  0.933700  1
  O  O887  1  0.281000  0.255200  0.433700  1
  O  O888  1  0.781000  0.744800  0.066300  1
  O  O889  1  0.651000  0.831400  0.573100  1
  O  O890  1  0.151000  0.168600  0.926900  1
  O  O891  1  0.349000  0.168600  0.426900  1
  O  O892  1  0.849000  0.831400  0.073100  1
  O  O893  1  0.829000  0.658000  0.231800  1
  O  O894  1  0.329000  0.342000  0.268200  1
  O  O895  1  0.171000  0.342000  0.768200  1
  O  O896  1  0.671000  0.658000  0.731800  1
  O  O897  1  0.893000  0.426000  0.378100  1
  O  O898  1  0.393000  0.574000  0.121900  1
  O  O899  1  0.107000  0.574000  0.621900  1
  O  O900  1  0.607000  0.426000  0.878100  1
  O  O901  1  0.915000  0.128300  0.546700  1
  O  O902  1  0.415000  0.871700  0.953300  1
  O  O903  1  0.085000  0.871700  0.453300  1
  O  O904  1  0.585000  0.128300  0.046700  1
  O  O905  1  0.951000  0.887900  0.418100  1
  O  O906  1  0.451000  0.112100  0.081900  1
  O  O907  1  0.049000  0.112100  0.581900  1
  O  O908  1  0.549000  0.887900  0.918100  1
  O  O909  1  0.613000  0.851300  0.563500  1
  O  O910  1  0.113000  0.148700  0.936500  1
  O  O911  1  0.387000  0.148700  0.436500  1
  O  O912  1  0.887000  0.851300  0.063500  1
  O  O913  1  0.688000  0.811000  0.508600  1
  O  O914  1  0.188000  0.189000  0.991400  1
  O  O915  1  0.312000  0.189000  0.491400  1
  O  O916  1  0.812000  0.811000  0.008600  1
  O  O917  1  0.002600  0.171300  0.388900  1
  O  O918  1  0.502600  0.828700  0.111100  1
  O  O919  1  0.997400  0.828700  0.611100  1
  O  O920  1  0.497400  0.171300  0.888900  1
  O  O921  1  0.664200  0.601400  0.248300  1
  O  O922  1  0.164200  0.398600  0.251700  1
  O  O923  1  0.335800  0.398600  0.751700  1
  O  O924  1  0.835800  0.601400  0.748300  1
  O  O925  1  0.878300  0.502500  0.370300  1
  O  O926  1  0.378300  0.497500  0.129700  1
  O  O927  1  0.121700  0.497500  0.629700  1
  O  O928  1  0.621700  0.502500  0.870300  1
  O  O929  1  0.632600  0.449100  0.337900  1
  O  O930  1  0.132600  0.550900  0.162100  1
  O  O931  1  0.367400  0.550900  0.662100  1
  O  O932  1  0.867400  0.449100  0.837900  1
  O  O933  1  0.351000  0.029600  0.396500  1
  O  O934  1  0.851000  0.970400  0.103500  1
  O  O935  1  0.649000  0.970400  0.603500  1
  O  O936  1  0.149000  0.029600  0.896500  1
  O  O937  1  0.003000  0.526200  0.515900  1
  O  O938  1  0.503000  0.473800  0.984100  1
  O  O939  1  0.997000  0.473800  0.484100  1
  O  O940  1  0.497000  0.526200  0.015900  1
