
#######################################################################
#
#                 Cambridge Crystallographic Data Centre
#                                CCDC 
#
#######################################################################
#
# If this CIF has been generated from an entry in the Cambridge 
# Structural Database, then it will include bibliographic, chemical, 
# crystal, experimental, refinement or atomic coordinate data resulting 
# from the CCDC's data processing and validation procedures.
#
#######################################################################

data_YEZREB
_chemical_formula_moiety         
'C160 H96 N16 Pd4 7+,7(N1 O3 1-),14(C2 H6 O1 S1),21(H2 O1)'
_chemical_name_systematic        
'octakis(\m~2~-1,2-bis(2-(Pyridin-4-yl)ethynyl)benzene)-tetra-palladium(ii) heptanitrate dimethylsulfoxide solvate hydrate'
_symmetry_cell_setting           monoclinic
_symmetry_space_group_name_H-M   'P 21/c'
_symmetry_Int_Tables_number      14
_space_group_name_Hall           '-P 2ybc'
loop_
_symmetry_equiv_pos_site_id
_symmetry_equiv_pos_as_xyz
1 x,y,z
2 -x,1/2+y,1/2-z
3 -x,-y,-z
4 x,1/2-y,1/2+z
_cell_length_a                   21.232(3)
_cell_length_b                   15.524(2)
_cell_length_c                   35.481(5)
_cell_angle_alpha                90
_cell_angle_beta                 97.139(2)
_cell_angle_gamma                90
_cell_volume                     11604.1
_exptl_crystal_colour            'pale yellow'
_exptl_crystal_description       block
_chemical_melting_point          'above 176deg.C(dec)'
_cell_formula_units_Z            2
_exptl_crystal_recrystallization_method 'ethyl acetate/dmso'
loop_
_atom_site_label
_atom_site_type_symbol
_atom_site_fract_x
_atom_site_fract_y
_atom_site_fract_z
C1 C -0.0168(2) 0.7913(3) 0.76627(15)
C2 C 0.0619(2) 0.6950(3) 0.73252(15)
C3 C 0.2966(3) 0.8644(3) 0.61670(16)
C4 C 0.1060(2) 0.6520(3) 0.71178(15)
C5 C 0.4292(3) 0.4612(3) 0.56657(17)
C6 C 0.0264(2) 0.7383(3) 0.74835(15)
C7 C 0.1658(3) 0.6277(3) 0.72943(16)
H1 H 0.1752 0.6310 0.7563
C8 C -0.0818(3) 0.7706(4) 0.76210(16)
C9 C 0.2113(3) 0.5989(3) 0.70773(16)
H2 H 0.2524 0.5844 0.7198
C10 C 0.3111(3) 1.0251(3) 0.59538(18)
C11 C 0.2085(3) 0.3939(4) 0.62470(17)
H3 H 0.1844 0.4246 0.6047
C12 C 0.5060(3) 0.3849(4) 0.52465(18)
C13 C 0.2180(3) 0.1753(4) 0.66671(19)
C14 C 0.5421(3) 0.3445(4) 0.49814(17)
C15 C 0.0926(3) 0.6391(4) 0.67294(17)
H4 H 0.0516 0.6515 0.6602
C16 C -0.1332(2) 0.5616(4) 0.69648(17)
C17 C 0.2313(3) 0.2629(3) 0.65894(17)
C18 C 0.4731(3) 0.4198(3) 0.54467(18)
C19 C -0.1034(3) 0.6965(4) 0.73995(18)
C20 C -0.1184(3) 0.6344(4) 0.72057(18)
C21 C 0.1393(3) 0.6083(4) 0.65298(16)
H5 H 0.1296 0.5987 0.6264
C22 C 0.4413(3) 0.4670(4) 0.60591(17)
H6 H 0.4802 0.4466 0.6190
C23 C 0.3952(3) 0.5033(4) 0.62573(17)
H7 H 0.4036 0.5083 0.6526
C24 C 0.3290(3) 0.7344(4) 0.64889(17)
H8 H 0.3578 0.7050 0.6671
C25 C 0.3283(3) 0.5285(4) 0.57024(17)
H9 H 0.2891 0.5498 0.5579
C26 C 0.2894(3) 0.3926(4) 0.67501(17)
H10 H 0.3223 0.4219 0.6906
C27 C -0.1887(3) 0.4297(4) 0.68096(18)
H11 H -0.2180 0.3873 0.6871
C28 C 0.2782(3) 0.3066(4) 0.68139(18)
H12 H 0.3032 0.2773 0.7015
C29 C 0.3054(3) 0.9536(4) 0.60702(18)
C30 C 0.2458(3) 0.8189(4) 0.5978(2)
H13 H 0.2155 0.8472 0.5801
C31 C 0.3176(3) 1.1078(3) 0.57827(18)
C32 C 0.1987(3) 0.0164(4) 0.68930(17)
C33 C 0.4589(3) 0.3830(4) 0.4470(2)
C34 C 0.3601(3) 0.4815(4) 0.42715(19)
C35 C -0.1220(3) 0.1829(4) 0.65490(19)
H14 H -0.1633 0.1725 0.6617
C36 C -0.1196(3) 0.4799(4) 0.64093(17)
H15 H -0.0999 0.4735 0.6185
C37 C 0.0046(3) 0.8625(4) 0.78764(17)
H16 H 0.0486 0.8763 0.7910
C38 C -0.1234(3) 0.8219(4) 0.7793(2)
H17 H -0.1673 0.8080 0.7767
C39 C 0.0393(3) 0.0870(4) 0.6718(2)
C40 C 0.3383(3) 0.8211(4) 0.64290(19)
H18 H 0.3730 0.8506 0.6567
C41 C -0.1761(3) 0.4993(4) 0.70468(18)
H19 H -0.1968 0.5046 0.7268
C42 C -0.0133(3) 0.1433(4) 0.65842(18)
C43 C -0.1047(3) 0.5513(4) 0.66407(17)
H20 H -0.0750 0.5927 0.6575
C44 C 0.0824(3) 0.0415(4) 0.6817(2)
C45 C 0.3725(3) 0.4950(4) 0.54863(18)
H21 H 0.3642 0.4951 0.5217
C46 C 0.2085(3) 0.1020(4) 0.67627(18)
C47 C 0.1370(3) -0.0131(4) 0.69260(19)
C48 C 0.1953(3) 0.3082(4) 0.62984(18)
H22 H 0.1622 0.2803 0.6138
C49 C -0.0736(3) 0.1277(4) 0.66846(18)
H23 H -0.0811 0.0803 0.6842
C50 C 0.3038(3) 0.4778(5) 0.4439(2)
H24 H 0.2980 0.4349 0.4623
C51 C 0.2399(3) 0.7322(4) 0.60504(19)
H25 H 0.2054 0.7012 0.5919
C52 C -0.0379(3) 0.9138(4) 0.80418(19)
H26 H -0.0231 0.9634 0.8183
C53 C 0.3091(4) 1.1147(4) 0.53905(19)
C54 C 0.2423(3) -0.1174(4) 0.7148(2)
H27 H 0.2778 -0.1536 0.7220
C55 C 0.2567(3) 0.5381(5) 0.43317(19)
H28 H 0.2187 0.5362 0.4447
C56 C 0.2909(4) 1.0409(4) 0.5160(2)
C57 C -0.0560(3) 0.2648(4) 0.6234(2)
H29 H -0.0496 0.3129 0.6078
C58 C 0.5185(3) 0.3410(4) 0.46026(18)
C59 C 0.3348(3) 1.1808(4) 0.6008(2)
H30 H 0.3421 1.1760 0.6277
C60 C -0.0052(3) 0.2122(4) 0.6357(2)
H31 H 0.0355 0.2241 0.6284
C61 C 0.4114(3) 0.4236(4) 0.4377(2)
C62 C 0.2506(3) -0.0366(4) 0.70033(18)
H32 H 0.2922 -0.0167 0.6978
C63 C 0.6016(3) 0.3094(5) 0.5106(2)
H33 H 0.6177 0.3115 0.5368
C64 C 0.3158(3) 0.6015(4) 0.3903(2)
H34 H 0.3197 0.6439 0.3714
C65 C 0.1291(3) -0.0950(4) 0.7078(2)
H35 H 0.0878 -0.1156 0.7105
C66 C 0.5540(4) 0.3018(5) 0.4342(2)
H36 H 0.5380 0.2985 0.4080
C67 C -0.1015(3) 0.8931(4) 0.8002(2)
H37 H -0.1303 0.9279 0.8120
C68 C 0.3411(4) 1.2588(4) 0.5836(2)
H38 H 0.3517 1.3083 0.5987
C69 C 0.6372(4) 0.2717(6) 0.4850(3)
H39 H 0.6780 0.2486 0.4934
C70 C 0.3645(3) 0.5439(5) 0.3998(2)
H40 H 0.4016 0.5471 0.3874
C71 C 0.2760(4) 0.9796(4) 0.4962(2)
C72 C 0.1815(4) -0.1456(4) 0.7188(3)
H41 H 0.1758 -0.2008 0.7294
C73 C 0.6136(5) 0.2678(6) 0.4478(2)
H42 H 0.6381 0.2412 0.4304
C74 C 0.3323(6) 1.2666(5) 0.5445(3)
H43 H 0.3370 1.3209 0.5328
C75 C 0.3166(6) 1.1946(5) 0.5226(3)
H44 H 0.3108 1.1998 0.4957
C76 C 0.2570(3) 0.9074(4) 0.4721(2)
C77 C 0.1914(3) 0.7837(5) 0.4555(2)
H45 H 0.1591 0.7453 0.4613
C78 C 0.2651(4) 0.8225(5) 0.4169(2)
H46 H 0.2848 0.8126 0.3946
C79 C 0.2087(3) 0.8518(5) 0.4800(2)
H47 H 0.1879 0.8605 0.5019
C80 C 0.2859(4) 0.8913(5) 0.4404(2)
H48 H 0.3199 0.9266 0.4346
N1 N 0.2812(2) 0.6906(3) 0.62996(13)
N2 N 0.2540(2) 0.4354(3) 0.64697(14)
N3 N -0.1608(2) 0.4204(3) 0.64944(13)
N4 N -0.1139(2) 0.2497(3) 0.63288(13)
N5 N 0.2631(2) 0.5984(3) 0.40716(14)
N6 N 0.1983(2) 0.5912(3) 0.66972(13)
N7 N 0.3398(2) 0.5314(3) 0.60823(13)
N8 N 0.2187(2) 0.7706(3) 0.42436(15)
Pd1 Pd 0.268957(19) 0.56277(2) 0.638897(11)
Pd2 Pd -0.18868(2) 0.32481(3) 0.612449(13)
C1B C 0.0168(2) 0.2087(3) 0.23373(15)
C2B C -0.0619(2) 0.3050(3) 0.26748(15)
C3B C -0.2966(3) 0.1356(3) 0.38330(16)
C4B C -0.1060(2) 0.3480(3) 0.28822(15)
C5B C -0.4292(3) 0.5388(3) 0.43343(17)
C6B C -0.0264(2) 0.2617(3) 0.25165(15)
C7B C -0.1658(3) 0.3723(3) 0.27057(16)
H1B H -0.1752 0.3690 0.2437
C8B C 0.0818(3) 0.2294(4) 0.23790(16)
C9B C -0.2113(3) 0.4011(3) 0.29227(16)
H2B H -0.2524 0.4156 0.2802
C10B C -0.3111(3) -0.0251(3) 0.40462(18)
C11B C -0.2085(3) 0.6061(4) 0.37530(17)
H3B H -0.1844 0.5754 0.3953
C12B C -0.5060(3) 0.6151(4) 0.47535(18)
C13B C -0.2180(3) 0.8247(4) 0.33329(19)
C14B C -0.5421(3) 0.6555(4) 0.50186(17)
C15B C -0.0926(3) 0.3609(4) 0.32706(17)
H4B H -0.0516 0.3485 0.3398
C16B C 0.1332(2) 0.4384(4) 0.30352(17)
C17B C -0.2313(3) 0.7371(3) 0.34106(17)
C18B C -0.4731(3) 0.5802(3) 0.45533(18)
C19B C 0.1034(3) 0.3035(4) 0.26005(18)
C20B C 0.1184(3) 0.3656(4) 0.27943(18)
C21B C -0.1393(3) 0.3917(4) 0.34702(16)
H5B H -0.1296 0.4013 0.3736
C22B C -0.4413(3) 0.5330(4) 0.39409(17)
H6B H -0.4802 0.5534 0.3810
C23B C -0.3952(3) 0.4967(4) 0.37427(17)
H7B H -0.4036 0.4917 0.3474
C24B C -0.3290(3) 0.2656(4) 0.35111(17)
H8B H -0.3578 0.2950 0.3329
C25B C -0.3283(3) 0.4715(4) 0.42976(17)
H9B H -0.2891 0.4502 0.4421
C26B C -0.2894(3) 0.6074(4) 0.32499(17)
H10B H -0.3223 0.5781 0.3094
C27B C 0.1887(3) 0.5703(4) 0.31904(18)
H11B H 0.2180 0.6127 0.3129
C28B C -0.2782(3) 0.6934(4) 0.31861(18)
H12B H -0.3032 0.7227 0.2985
C29B C -0.3054(3) 0.0464(4) 0.39298(18)
C30B C -0.2458(3) 0.1811(4) 0.4022(2)
H13B H -0.2155 0.1528 0.4199
C31B C -0.3176(3) -0.1078(3) 0.42173(18)
C32B C -0.1987(3) 0.9836(4) 0.31070(17)
C33B C -0.4589(3) 0.6170(4) 0.5530(2)
C34B C -0.3601(3) 0.5185(4) 0.57285(19)
C35B C 0.1220(3) 0.8171(4) 0.34510(19)
H14B H 0.1633 0.8275 0.3383
C36B C 0.1196(3) 0.5201(4) 0.35907(17)
H15B H 0.0999 0.5265 0.3815
C37B C -0.0046(3) 0.1375(4) 0.21236(17)
H16B H -0.0486 0.1237 0.2090
C38B C 0.1234(3) 0.1781(4) 0.2207(2)
H17B H 0.1673 0.1920 0.2233
C39B C -0.0393(3) 0.9130(4) 0.3282(2)
C40B C -0.3383(3) 0.1789(4) 0.35710(19)
H18B H -0.3730 0.1494 0.3433
C41B C 0.1761(3) 0.5007(4) 0.29532(18)
H19B H 0.1968 0.4954 0.2732
C42B C 0.0133(3) 0.8567(4) 0.34158(18)
C43B C 0.1047(3) 0.4487(4) 0.33593(17)
H20B H 0.0750 0.4073 0.3425
C44B C -0.0824(3) 0.9585(4) 0.3183(2)
C45B C -0.3725(3) 0.5050(4) 0.45137(18)
H21B H -0.3642 0.5049 0.4783
C46B C -0.2085(3) 0.8980(4) 0.32373(18)
C47B C -0.1370(3) 1.0131(4) 0.30740(19)
C48B C -0.1953(3) 0.6918(4) 0.37016(18)
H22B H -0.1622 0.7197 0.3862
C49B C 0.0736(3) 0.8723(4) 0.33154(18)
H23B H 0.0811 0.9197 0.3158
C50B C -0.3038(3) 0.5222(5) 0.5561(2)
H24B H -0.2980 0.5651 0.5377
C51B C -0.2399(3) 0.2678(4) 0.39496(19)
H25B H -0.2054 0.2988 0.4081
C52B C 0.0379(3) 0.0862(4) 0.19582(19)
H26B H 0.0231 0.0366 0.1817
C53B C -0.3091(4) -0.1147(4) 0.46095(19)
C54B C -0.2423(3) 1.1174(4) 0.2852(2)
H27B H -0.2778 1.1536 0.2780
C55B C -0.2567(3) 0.4619(5) 0.56683(19)
H28B H -0.2187 0.4638 0.5553
C56B C -0.2909(4) -0.0409(4) 0.4840(2)
C57B C 0.0560(3) 0.7352(4) 0.3766(2)
H29B H 0.0496 0.6871 0.3922
C58B C -0.5185(3) 0.6590(4) 0.53974(18)
C59B C -0.3348(3) -0.1808(4) 0.3992(2)
H30B H -0.3421 -0.1760 0.3723
C60B C 0.0052(3) 0.7878(4) 0.3643(2)
H31B H -0.0355 0.7759 0.3716
C61B C -0.4114(3) 0.5764(4) 0.5623(2)
C62B C -0.2506(3) 1.0366(4) 0.29967(18)
H32B H -0.2922 1.0167 0.3022
C63B C -0.6016(3) 0.6906(5) 0.4894(2)
H33B H -0.6177 0.6885 0.4632
C64B C -0.3158(3) 0.3985(4) 0.6097(2)
H34B H -0.3197 0.3561 0.6286
C65B C -0.1291(3) 1.0950(4) 0.2922(2)
H35B H -0.0878 1.1156 0.2895
C66B C -0.5540(4) 0.6982(5) 0.5658(2)
H36B H -0.5380 0.7015 0.5920
C67B C 0.1015(3) 0.1069(4) 0.1998(2)
H37B H 0.1303 0.0721 0.1880
C68B C -0.3411(4) -0.2588(4) 0.4164(2)
H38B H -0.3517 -0.3083 0.4013
C69B C -0.6372(4) 0.7283(6) 0.5150(3)
H39B H -0.6780 0.7514 0.5066
C70B C -0.3645(3) 0.4561(5) 0.6002(2)
H40B H -0.4016 0.4529 0.6126
C71B C -0.2760(4) 0.0204(4) 0.5038(2)
C72B C -0.1815(4) 1.1456(4) 0.2812(3)
H41B H -0.1758 1.2008 0.2706
C73B C -0.6136(5) 0.7322(6) 0.5522(2)
H42B H -0.6381 0.7588 0.5696
C74B C -0.3323(6) -0.2666(5) 0.4555(3)
H43B H -0.3370 -0.3209 0.4672
C75B C -0.3166(6) -0.1946(5) 0.4774(3)
H44B H -0.3108 -0.1998 0.5043
C76B C -0.2570(3) 0.0926(4) 0.5279(2)
C77B C -0.1914(3) 0.2163(5) 0.5445(2)
H45B H -0.1591 0.2547 0.5387
C78B C -0.2651(4) 0.1775(5) 0.5831(2)
H46B H -0.2848 0.1874 0.6054
C79B C -0.2087(3) 0.1482(5) 0.5200(2)
H47B H -0.1879 0.1395 0.4981
C80B C -0.2859(4) 0.1087(5) 0.5596(2)
H48B H -0.3199 0.0734 0.5654
N1B N -0.2812(2) 0.3094(3) 0.37004(13)
N2B N -0.2540(2) 0.5646(3) 0.35303(14)
N3B N 0.1608(2) 0.5796(3) 0.35056(13)
N4B N 0.1139(2) 0.7503(3) 0.36712(13)
N5B N -0.2631(2) 0.4016(3) 0.59284(14)
N6B N -0.1983(2) 0.4088(3) 0.33028(13)
N7B N -0.3398(2) 0.4686(3) 0.39177(13)
N8B N -0.2187(2) 0.2294(3) 0.57564(15)
Pd1B Pd -0.268957(19) 0.43723(2) 0.361103(11)
Pd2B Pd 0.18868(2) 0.67519(3) 0.387551(13)
N9 N 0.1599(4) 0.5752(7) 0.53410(19)
O1 O 0.1724(3) 0.5571(4) 0.56736(14)
O2 O 0.1991(4) 0.5959(12) 0.5145(3)
O3 O 0.1033(4) 0.5726(16) 0.5209(3)
N10 N 0.4146(5) 0.0552(8) 0.6841(3)
O4 O 0.4108(4) -0.0208(7) 0.6943(3)
O5 O 0.3821(5) 0.1078(8) 0.6957(3)
O6 O 0.4562(5) 0.0744(10) 0.6640(4)
S1 S 0.2314(4) 0.0466(5) 0.2932(3)
O7 O 0.2389(16) 0.1391(11) 0.3061(10)
C81 C 0.2961(15) -0.0068(18) 0.3199(12)
C82 C 0.1777(10) -0.0048(15) 0.3116(6)
O9 O 0.4423(14) 0.0591(16) 0.8303(4)
C84 C 0.3496(8) 0.028(3) 0.7824(11)
S13 S 0.3324(6) 0.0909(8) 0.8197(3)
O39 O 0.310(3) 0.0013(14) 0.8230(13)
C107 C 0.305(3) 0.160(2) 0.8498(8)
N11 N 0.2926(5) 0.7544(8) 0.3023(4)
O10 O 0.2578(10) 0.7657(14) 0.3254(6)
O11 O 0.2908(10) 0.7997(11) 0.2743(4)
O12 O 0.3170(5) 0.6817(6) 0.2987(4)
S3 S -0.0409(8) 0.4514(11) 0.5550(5)
O17 O -0.0979(7) 0.4075(11) 0.5581(3)
C85 C 0.0223(14) 0.455(3) 0.5917(10)
C86 C -0.048(2) 0.5593(16) 0.5488(17)
N13 N 0.0713(8) 0.788(2) 0.5611(7)
O20 O 0.1064(9) 0.807(2) 0.5380(6)
O21 O 0.0824(9) 0.738(2) 0.5861(7)
O22 O 0.0149(9) 0.788(3) 0.5466(11)
S4 S 0.41798(13) 0.57401(19) 0.73866(7)
O26 O 0.3643(2) 0.5706(3) 0.70717(12)
C88 C 0.3929(8) 0.5363(10) 0.7793(3)
C89 C 0.4849(10) 0.547(2) 0.7238(10)
S5 S 0.5620(2) 0.2377(3) 0.60813(16)
O28 O 0.5373(9) 0.3047(8) 0.6345(5)
C90 C 0.4964(9) 0.1773(17) 0.5859(7)
C91 C 0.5855(7) 0.1498(10) 0.6367(5)
S7 S 0.1325(5) 1.0248(7) 0.5438(3)
O30 O 0.0789(8) 0.9778(11) 0.5497(5)
C94 C 0.122(3) 1.076(3) 0.4983(7)
C95 C 0.1455(16) 1.1175(15) 0.5655(9)
S8 S 0.0958(8) 0.3246(12) 0.5358(6)
O33 O 0.0721(8) 0.271(2) 0.5638(5)
C96 C 0.1715(9) 0.330(3) 0.5220(9)
C97 C 0.0545(16) 0.372(3) 0.4993(9)
S10 S 0.5226(14) -0.0617(18) 0.5542(9)
O36 O 0.5669(10) 0.0128(15) 0.5596(6)
C100 C 0.4786(19) -0.071(3) 0.5937(10)
C101 C 0.4569(19) -0.049(3) 0.5235(11)
S12 S -0.0548(8) 0.8016(10) 0.6171(4)
O38 O -0.0343(10) 0.7082(11) 0.6239(6)
C104 C -0.0695(16) 0.8526(19) 0.6601(7)
C105 C 0.0085(17) 0.865(2) 0.6134(13)
O40 O 0.4366(4) 0.2838(8) 0.6774(3)
O42 O 0.5154(9) 0.2897(16) 0.3425(4)
O43 O 0.4836(10) 0.3616(12) 0.8121(5)
O44 O 0.436(5) 0.155(5) 0.266(4)
O45 O -0.0382(7) 0.1902(16) 0.5365(4)
O48 O 0.253(3) 1.136(2) 0.4179(8)
O50 O 0.363(2) 0.120(3) 0.4232(10)
loop_
_geom_bond_atom_site_label_1
_geom_bond_atom_site_label_2
_geom_bond_site_symmetry_1
_geom_bond_site_symmetry_2
C1 C6 1_555 1_555
C2 C4 1_555 1_555
C3 C29 1_555 1_555
C4 C7 1_555 1_555
C5 C18 1_555 1_555
C6 C2 1_555 1_555
C7 H1 1_555 1_555
C8 C1 1_555 1_555
C9 C7 1_555 1_555
H2 C9 1_555 1_555
C10 C29 1_555 1_555
C11 H3 1_555 1_555
C12 C14 1_555 1_555
C13 C17 1_555 1_555
C14 C58 1_555 1_555
C15 C4 1_555 1_555
H4 C15 1_555 1_555
C16 C20 1_555 1_555
C17 C28 1_555 1_555
C18 C12 1_555 1_555
C19 C8 1_555 1_555
C20 C19 1_555 1_555
C21 C15 1_555 1_555
H5 C21 1_555 1_555
C22 C5 1_555 1_555
H6 C22 1_555 1_555
C23 C22 1_555 1_555
H7 C23 1_555 1_555
C24 H8 1_555 1_555
C25 H9 1_555 1_555
C26 H10 1_555 1_555
C27 H11 1_555 1_555
C28 C26 1_555 1_555
H12 C28 1_555 1_555
C30 C3 1_555 1_555
H13 C30 1_555 1_555
C31 C10 1_555 1_555
C32 C46 1_555 1_555
C33 C58 1_555 1_555
C34 C50 1_555 1_555
C35 H14 1_555 1_555
C36 H15 1_555 1_555
C37 C1 1_555 1_555
H16 C37 1_555 1_555
C38 C8 1_555 1_555
H17 C38 1_555 1_555
C39 C42 1_555 1_555
C40 C3 1_555 1_555
H18 C40 1_555 1_555
C41 C16 1_555 1_555
H19 C41 1_555 1_555
C42 C49 1_555 1_555
C43 C16 1_555 1_555
H20 C43 1_555 1_555
C44 C39 1_555 1_555
C45 C5 1_555 1_555
H21 C45 1_555 1_555
C46 C13 1_555 1_555
C47 C32 1_555 1_555
C48 C11 1_555 1_555
H22 C48 1_555 1_555
C49 C35 1_555 1_555
H23 C49 1_555 1_555
C50 H24 1_555 1_555
C51 C30 1_555 1_555
H25 C51 1_555 1_555
C52 C37 1_555 1_555
H26 C52 1_555 1_555
C53 C31 1_555 1_555
C54 H27 1_555 1_555
C55 C50 1_555 1_555
H28 C55 1_555 1_555
C56 C53 1_555 1_555
C57 H29 1_555 1_555
C58 C66 1_555 1_555
C59 C31 1_555 1_555
H30 C59 1_555 1_555
C60 C42 1_555 1_555
H31 C60 1_555 1_555
C61 C33 1_555 1_555
C62 C32 1_555 1_555
H32 C62 1_555 1_555
C63 C14 1_555 1_555
H33 C63 1_555 1_555
C64 H34 1_555 1_555
C65 C47 1_555 1_555
H35 C65 1_555 1_555
C66 H36 1_555 1_555
C67 C38 1_555 1_555
H37 C67 1_555 1_555
C68 C59 1_555 1_555
H38 C68 1_555 1_555
C69 C63 1_555 1_555
H39 C69 1_555 1_555
C70 C34 1_555 1_555
H40 C70 1_555 1_555
C71 C56 1_555 1_555
C72 C54 1_555 1_555
H41 C72 1_555 1_555
C73 C66 1_555 1_555
H42 C73 1_555 1_555
C74 C68 1_555 1_555
H43 C74 1_555 1_555
C75 C53 1_555 1_555
H44 C75 1_555 1_555
C76 C71 1_555 1_555
C77 H45 1_555 1_555
C78 H46 1_555 1_555
C79 C76 1_555 1_555
H47 C79 1_555 1_555
C80 C76 1_555 1_555
H48 C80 1_555 1_555
N1 C24 1_555 1_555
N2 C11 1_555 1_555
N3 C27 1_555 1_555
N4 C35 1_555 1_555
N5 C55 1_555 1_555
N6 C9 1_555 1_555
N7 C23 1_555 1_555
N8 C77 1_555 1_555
Pd1 N1 1_555 1_555
Pd2 N3 1_555 1_555
N9 O1 1_555 1_555
O2 N9 1_555 1_555
O3 N9 1_555 1_555
N10 O4 1_555 1_555
O5 N10 1_555 1_555
O6 N10 1_555 1_555
S1 O7 1_555 1_555
C81 S1 1_555 1_555
C82 S1 1_555 1_555
C84 S13 1_555 1_555
N11 O10 1_555 1_555
O11 N11 1_555 1_555
O12 N11 1_555 1_555
S3 O17 1_555 1_555
C85 S3 1_555 1_555
C86 S3 1_555 1_555
N13 O20 1_555 1_555
O21 N13 1_555 1_555
O22 N13 1_555 1_555
S4 O26 1_555 1_555
C88 S4 1_555 1_555
C89 S4 1_555 1_555
S5 O28 1_555 1_555
C90 S5 1_555 1_555
C91 S5 1_555 1_555
S7 O30 1_555 1_555
C94 S7 1_555 1_555
C95 S7 1_555 1_555
S8 O33 1_555 1_555
C96 S8 1_555 1_555
C97 S8 1_555 1_555
S10 O36 1_555 1_555
C100 S10 1_555 1_555
C101 S10 1_555 1_555
S12 O38 1_555 1_555
C104 S12 1_555 1_555
C105 S12 1_555 1_555
S13 O39 1_555 1_555
C107 S13 1_555 1_555
C1B C6B 1_555 1_555
C2B C4B 1_555 1_555
C3B C29B 1_555 1_555
C4B C7B 1_555 1_555
C5B C18B 1_555 1_555
C6B C2B 1_555 1_555
C7B H1B 1_555 1_555
C8B C1B 1_555 1_555
C9B C7B 1_555 1_555
H2B C9B 1_555 1_555
C10B C29B 1_555 1_555
C11B H3B 1_555 1_555
C12B C14B 1_555 1_555
C13B C17B 1_555 1_555
C14B C58B 1_555 1_555
C15B C4B 1_555 1_555
H4B C15B 1_555 1_555
C16B C20B 1_555 1_555
C17B C28B 1_555 1_555
C18B C12B 1_555 1_555
C19B C8B 1_555 1_555
C20B C19B 1_555 1_555
C21B C15B 1_555 1_555
H5B C21B 1_555 1_555
C22B C5B 1_555 1_555
H6B C22B 1_555 1_555
C23B C22B 1_555 1_555
H7B C23B 1_555 1_555
C24B H8B 1_555 1_555
C25B H9B 1_555 1_555
C26B H10B 1_555 1_555
C27B H11B 1_555 1_555
C28B C26B 1_555 1_555
H12B C28B 1_555 1_555
C30B C3B 1_555 1_555
H13B C30B 1_555 1_555
C31B C10B 1_555 1_555
C32B C46B 1_555 1_555
C33B C58B 1_555 1_555
C34B C50B 1_555 1_555
C35B H14B 1_555 1_555
C36B H15B 1_555 1_555
C37B C1B 1_555 1_555
H16B C37B 1_555 1_555
C38B C8B 1_555 1_555
H17B C38B 1_555 1_555
C39B C42B 1_555 1_555
C40B C3B 1_555 1_555
H18B C40B 1_555 1_555
C41B C16B 1_555 1_555
H19B C41B 1_555 1_555
C42B C49B 1_555 1_555
C43B C16B 1_555 1_555
H20B C43B 1_555 1_555
C44B C39B 1_555 1_555
C45B C5B 1_555 1_555
H21B C45B 1_555 1_555
C46B C13B 1_555 1_555
C47B C32B 1_555 1_555
C48B C11B 1_555 1_555
H22B C48B 1_555 1_555
C49B C35B 1_555 1_555
H23B C49B 1_555 1_555
C50B H24B 1_555 1_555
C51B C30B 1_555 1_555
H25B C51B 1_555 1_555
C52B C37B 1_555 1_555
H26B C52B 1_555 1_555
C53B C31B 1_555 1_555
C54B H27B 1_555 1_555
C55B C50B 1_555 1_555
H28B C55B 1_555 1_555
C56B C53B 1_555 1_555
C57B H29B 1_555 1_555
C58B C66B 1_555 1_555
C59B C31B 1_555 1_555
H30B C59B 1_555 1_555
C60B C42B 1_555 1_555
H31B C60B 1_555 1_555
C61B C33B 1_555 1_555
C62B C32B 1_555 1_555
H32B C62B 1_555 1_555
C63B C14B 1_555 1_555
H33B C63B 1_555 1_555
C64B H34B 1_555 1_555
C65B C47B 1_555 1_555
H35B C65B 1_555 1_555
C66B H36B 1_555 1_555
C67B C38B 1_555 1_555
H37B C67B 1_555 1_555
C68B C59B 1_555 1_555
H38B C68B 1_555 1_555
C69B C63B 1_555 1_555
H39B C69B 1_555 1_555
C70B C34B 1_555 1_555
H40B C70B 1_555 1_555
C71B C56B 1_555 1_555
C72B C54B 1_555 1_555
H41B C72B 1_555 1_555
C73B C66B 1_555 1_555
H42B C73B 1_555 1_555
C74B C68B 1_555 1_555
H43B C74B 1_555 1_555
C75B C53B 1_555 1_555
H44B C75B 1_555 1_555
C76B C71B 1_555 1_555
C77B H45B 1_555 1_555
C78B H46B 1_555 1_555
C79B C76B 1_555 1_555
H47B C79B 1_555 1_555
C80B C76B 1_555 1_555
H48B C80B 1_555 1_555
N1B C24B 1_555 1_555
N2B C11B 1_555 1_555
N3B C27B 1_555 1_555
N4B C35B 1_555 1_555
N5B Pd2 1_555 1_555
N6B C9B 1_555 1_555
N7B C23B 1_555 1_555
N8B Pd2 1_555 1_555
Pd1B N1B 1_555 1_555
Pd2B N5 1_555 1_555
C17 C48 1_555 1_555
C21 N6 1_555 1_555
C24 C40 1_555 1_555
C25 C45 1_555 1_555
C25 N7 1_555 1_555
C26 N2 1_555 1_555
C27 C41 1_555 1_555
C34 C61 1_555 1_555
C36 C43 1_555 1_555
C36 N3 1_555 1_555
C44 C47 1_555 1_555
C51 N1 1_555 1_555
C52 C67 1_555 1_555
C54 C62 1_555 1_555
C57 C60 1_555 1_555
C57 N4 1_555 1_555
C64 C70 1_555 1_555
C64 N5 1_555 1_555
C65 C72 1_555 1_555
C69 C73 1_555 1_555
C74 C75 1_555 1_555
C77 C79 1_555 1_555
C78 C80 1_555 1_555
C78 N8 1_555 1_555
N2 Pd1 1_555 1_555
N4 Pd2 1_555 1_555
N6 Pd1 1_555 1_555
N7 Pd1 1_555 1_555
N8 Pd2B 1_555 1_555
C17B C48B 1_555 1_555
C21B N6B 1_555 1_555
C24B C40B 1_555 1_555
C25B C45B 1_555 1_555
C25B N7B 1_555 1_555
C26B N2B 1_555 1_555
C27B C41B 1_555 1_555
C34B C61B 1_555 1_555
C36B C43B 1_555 1_555
C36B N3B 1_555 1_555
C44B C47B 1_555 1_555
C51B N1B 1_555 1_555
C52B C67B 1_555 1_555
C54B C62B 1_555 1_555
C55B N5B 1_555 1_555
C57B C60B 1_555 1_555
C57B N4B 1_555 1_555
C64B C70B 1_555 1_555
C64B N5B 1_555 1_555
C65B C72B 1_555 1_555
C69B C73B 1_555 1_555
C74B C75B 1_555 1_555
C77B C79B 1_555 1_555
C77B N8B 1_555 1_555
C78B C80B 1_555 1_555
C78B N8B 1_555 1_555
N2B Pd1B 1_555 1_555
N3B Pd2B 1_555 1_555
N4B Pd2B 1_555 1_555
N6B Pd1B 1_555 1_555
N7B Pd1B 1_555 1_555

#END
