
#######################################################################
#
#                 Cambridge Crystallographic Data Centre
#                                CCDC 
#
#######################################################################
#
# If this CIF has been generated from an entry in the Cambridge 
# Structural Database, then it will include bibliographic, chemical, 
# crystal, experimental, refinement or atomic coordinate data resulting 
# from the CCDC's data processing and validation procedures.
#
#######################################################################

data_YIHGEC
_chemical_formula_moiety         
'C108 H144 N36 Pd6 12+,12(N1 O3 1-),2(C14 H10 O2),82.25(H2 O1)'
_chemical_name_systematic        
"tetrakis(\m~3~-2,4,6-tris(4-Pyridyl)-1,3,5-triazine)-hexakis(N,N,N',N'-tetramethylethylenediamine)-hexa-palladium dodecanitrate bis(diphenylethanedione) clathrate hydrate"
_symmetry_cell_setting           tetragonal
_symmetry_space_group_name_H-M   'I 41/a'
_symmetry_Int_Tables_number      88
_space_group_name_Hall           '-I 4ad'
loop_
_symmetry_equiv_pos_site_id
_symmetry_equiv_pos_as_xyz
1 x,y,z
2 3/4-y,1/4+x,1/4+z
3 1/2+x,1/2+y,1/2+z
4 1/4-y,3/4+x,3/4+z
5 1/4+y,1/4-x,1/4+z
6 1/2-x,-y,1/2+z
7 3/4+y,3/4-x,3/4+z
8 -x,1/2-y,z
9 -x,-y,-z
10 1/4+y,3/4-x,3/4-z
11 1/2-x,1/2-y,1/2-z
12 3/4+y,1/4-x,1/4-z
13 3/4-y,3/4+x,3/4-z
14 1/2+x,y,1/2-z
15 1/4-y,1/4+x,1/4-z
16 x,1/2+y,-z
_cell_length_a                   26.3040(15)
_cell_length_b                   26.3040(15)
_cell_length_c                   31.582(4)
_cell_angle_alpha                90
_cell_angle_beta                 90
_cell_angle_gamma                90
_cell_volume                     21851.6
_exptl_crystal_colour            colorless
_exptl_crystal_description       block
_cell_formula_units_Z            4
loop_
_atom_site_label
_atom_site_type_symbol
_atom_site_fract_x
_atom_site_fract_y
_atom_site_fract_z
C1 C 0.9529(3) 0.3005(3) 0.6881(3)
C2 C 0.9872(4) 0.3261(3) 0.6615(3)
H1 H 1.0224 0.3183 0.6610
C3 C 0.9657(5) 0.3641(4) 0.6355(3)
H2 H 0.9874 0.3829 0.6172
C4 C 0.9140(4) 0.3749(4) 0.6357(4)
H3 H 0.9002 0.3997 0.6171
C5 C 0.8828(4) 0.3487(4) 0.6636(4)
H4 H 0.8474 0.3560 0.6639
C6 C 0.9016(4) 0.3122(4) 0.6908(4)
H5 H 0.8801 0.2957 0.7107
C7 C 0.9725(4) 0.2565(5) 0.7142(4)
O1 O 0.9446(4) 0.2293(4) 0.7348(4)
C1G C 1.0471(3) 0.1995(3) 0.6881(3)
C2G C 1.0128(4) 0.1739(3) 0.6615(3)
H1G H 0.9776 0.1817 0.6610
C3G C 1.0343(5) 0.1359(4) 0.6355(3)
H2G H 1.0126 0.1171 0.6172
C4G C 1.0860(4) 0.1251(4) 0.6357(4)
H3G H 1.0998 0.1003 0.6171
C5G C 1.1172(4) 0.1513(4) 0.6636(4)
H4G H 1.1526 0.1440 0.6639
C6G C 1.0984(4) 0.1878(4) 0.6908(4)
H5G H 1.1199 0.2043 0.7107
C7G C 1.0275(4) 0.2435(5) 0.7142(4)
O1G O 1.0554(4) 0.2707(4) 0.7348(4)
Pd1 Pd 1.0000 0.7500 0.08732(2)
Pd2 Pd 0.714438(15) 0.537643(15) 0.372826(12)
N1 N 0.93323(18) 0.5927(2) 0.25723(17)
N2 N 1.02225(17) 0.57748(19) 0.25610(16)
N3 N 0.97027(18) 0.5394(2) 0.30920(17)
N4 N 0.99320(18) 0.69783(19) 0.13474(16)
N5 N 0.78426(16) 0.54040(17) 0.34455(14)
N6 N 0.73548(17) 0.60202(17) 0.40317(14)
N7 N 0.6431(2) 0.5358(2) 0.39967(18)
N8 N 0.6929(2) 0.4722(2) 0.34234(16)
N9 N 1.0082(2) 0.8026(3) 0.03930(18)
C8 C 0.9798(2) 0.5989(2) 0.24148(19)
C9 C 0.9313(2) 0.5620(2) 0.29098(19)
C10 C 1.0148(2) 0.5481(2) 0.29041(18)
C11 C 1.0348(2) 0.6783(3) 0.1533(2)
H6 H 1.0674 0.6869 0.1424
C12 C 1.0317(2) 0.6460(2) 0.1878(2)
H7 H 1.0618 0.6330 0.2005
C13 C 0.9847(2) 0.6328(2) 0.20363(19)
C14 C 0.9420(2) 0.6533(3) 0.1848(2)
H8 H 0.9091 0.6456 0.1955
C15 C 0.9474(2) 0.6850(2) 0.1505(2)
H9 H 0.9177 0.6984 0.1375
C16 C 0.7899(2) 0.5654(3) 0.30828(19)
H10 H 0.7606 0.5782 0.2943
C17 C 0.8370(2) 0.5734(3) 0.2902(2)
H11 H 0.8401 0.5922 0.2647
C18 C 0.8797(2) 0.5537(2) 0.30984(19)
C19 C 0.8735(2) 0.5264(3) 0.3471(2)
H12 H 0.9021 0.5117 0.3608
C20 C 0.8250(2) 0.5208(2) 0.3640(2)
H13 H 0.8207 0.5027 0.3898
C21 C 0.7616(2) 0.5992(2) 0.43989(18)
H14 H 0.7662 0.5669 0.4527
C22 C 0.7818(2) 0.6417(2) 0.45949(18)
H15 H 0.8002 0.6386 0.4852
C23 C 1.0608(2) 0.5246(2) 0.30908(19)
C24 C 1.0580(2) 0.4972(2) 0.34666(19)
H16 H 1.0261 0.4919 0.3600
C25 C 0.7279(2) 0.6480(2) 0.3855(2)
H17 H 0.7088 0.6504 0.3601
C26 C 0.6417(5) 0.4611(6) 0.3580(4)
H18 H 0.6195 0.4582 0.3329
H19 H 0.6432 0.4269 0.3710
C27 C 0.6191(4) 0.4892(4) 0.3838(5)
H20 H 0.6105 0.4680 0.4087
H21 H 0.5865 0.4992 0.3705
C28 C 0.6127(3) 0.5800(3) 0.3869(3)
H22 H 0.5797 0.5790 0.4013
H23 H 0.6075 0.5792 0.3562
H24 H 0.6307 0.6113 0.3946
C29 C 0.6457(4) 0.5363(7) 0.4469(3)
H25 H 0.6111 0.5374 0.4586
H26 H 0.6646 0.5664 0.4563
H27 H 0.6629 0.5055 0.4569
C30 C 0.7262(6) 0.4294(3) 0.3529(5)
H28 H 0.7145 0.3988 0.3381
H29 H 0.7254 0.4235 0.3835
H30 H 0.7611 0.4372 0.3441
C31 C 0.6915(4) 0.4781(3) 0.2962(2)
H31 H 0.6793 0.4465 0.2832
H32 H 0.7257 0.4857 0.2857
H33 H 0.6685 0.5060 0.2887
C32 C 0.9763(3) 0.8489(3) 0.0458(2)
H34 H 0.9791 0.8711 0.0210
H35 H 0.9881 0.8671 0.0710
H36 H 0.9407 0.8387 0.0497
C33 C 0.9903(5) 0.7768(4) -0.0007(2)
H37 H 0.9527 0.7768 -0.0019
H38 H 1.0032 0.7952 -0.0258
C34 C 1.0620(3) 0.8183(4) 0.0361(3)
H39 H 1.0661 0.8421 0.0125
H40 H 1.0833 0.7883 0.0313
H41 H 1.0724 0.8349 0.0625
Pd1I Pd 1.0000 0.7500 0.66268(2)
Pd2L Pd 1.212357(15) 0.464438(15) 0.377174(12)
Pd2G Pd 1.285562(15) 0.962357(15) 0.372826(12)
Pd2I Pd 0.787643(15) 1.035562(15) 0.377174(12)
N1L N 1.1573(2) 0.68323(18) 0.49277(17)
N1G N 1.06677(18) 0.9073(2) 0.25723(17)
N1I N 0.8427(2) 0.81677(18) 0.49277(17)
N2L N 1.17252(19) 0.77225(17) 0.49390(16)
N2G N 0.97775(17) 0.92252(19) 0.25610(16)
N2I N 0.82748(19) 0.72775(17) 0.49390(16)
N3L N 1.2106(2) 0.72027(18) 0.44080(17)
N3G N 1.02973(18) 0.9606(2) 0.30920(17)
N3I N 0.7894(2) 0.77973(18) 0.44080(17)
N4I N 0.94783(19) 0.75680(18) 0.61526(16)
N4L N 1.05217(19) 0.74320(18) 0.61526(16)
N4G N 1.00680(18) 0.80217(19) 0.13474(16)
N5L N 1.20960(17) 0.53426(16) 0.40545(14)
N5G N 1.21574(16) 0.95960(17) 0.34455(14)
N5I N 0.79040(17) 0.96574(16) 0.40545(14)
N6L N 1.14798(17) 0.48548(17) 0.34683(14)
N6G N 1.26452(17) 0.89798(17) 0.40317(14)
N6I N 0.85202(17) 1.01452(17) 0.34683(14)
N7I N 0.7858(2) 1.1069(2) 0.35033(18)
N7G N 1.3569(2) 0.9642(2) 0.39967(18)
N7L N 1.2142(2) 0.3931(2) 0.35033(18)
N8I N 0.7222(2) 1.0571(2) 0.40766(16)
N8G N 1.3071(2) 1.0278(2) 0.34234(16)
N8L N 1.2778(2) 0.4429(2) 0.40766(16)
N9I N 1.0526(3) 0.7418(2) 0.71070(18)
N9L N 0.9474(3) 0.7582(2) 0.71070(18)
N9G N 0.9918(2) 0.6974(3) 0.03930(18)
C8L C 1.1511(2) 0.7298(2) 0.50852(19)
C8G C 1.0202(2) 0.9011(2) 0.24148(19)
C8I C 0.8489(2) 0.7702(2) 0.50852(19)
C9L C 1.1880(2) 0.6813(2) 0.45902(19)
C9G C 1.0687(2) 0.9380(2) 0.29098(19)
C9I C 0.8120(2) 0.8187(2) 0.45902(19)
C10L C 1.2019(2) 0.7648(2) 0.45959(18)
C10G C 0.9852(2) 0.9519(2) 0.29041(18)
C10I C 0.7981(2) 0.7352(2) 0.45959(18)
C11I C 0.9283(3) 0.7152(2) 0.5967(2)
C11L C 1.0717(3) 0.7848(2) 0.5967(2)
C11G C 0.9652(2) 0.8217(3) 0.1533(2)
H6L H 1.0631 0.8174 0.6076
H6I H 0.9369 0.6826 0.6076
H6G H 0.9326 0.8131 0.1424
C12I C 0.8960(2) 0.7183(2) 0.5622(2)
C12L C 1.1040(2) 0.7817(2) 0.5622(2)
C12G C 0.9683(2) 0.8540(2) 0.1878(2)
H7L H 1.1170 0.8118 0.5495
H7I H 0.8830 0.6882 0.5495
H7G H 0.9382 0.8670 0.2005
C13I C 0.8828(2) 0.7653(2) 0.54637(19)
C13L C 1.1172(2) 0.7347(2) 0.54637(19)
C13G C 1.0153(2) 0.8672(2) 0.20363(19)
C14L C 1.0967(3) 0.6920(2) 0.5652(2)
C14I C 0.9033(3) 0.8080(2) 0.5652(2)
C14G C 1.0580(2) 0.8467(3) 0.1848(2)
H8L H 1.1044 0.6591 0.5545
H8I H 0.8956 0.8409 0.5545
H8G H 1.0909 0.8544 0.1955
C15L C 1.0650(2) 0.6974(2) 0.5995(2)
C15I C 0.9350(2) 0.8026(2) 0.5995(2)
C15G C 1.0526(2) 0.8150(2) 0.1505(2)
H9L H 1.0516 0.6677 0.6125
H9I H 0.9484 0.8323 0.6125
H9G H 1.0823 0.8016 0.1375
C16L C 1.1846(3) 0.5399(2) 0.44172(19)
C16G C 1.2101(2) 0.9346(3) 0.30828(19)
C16I C 0.8154(3) 0.9601(2) 0.44172(19)
H10L H 1.1718 0.5106 0.4557
H10G H 1.2394 0.9218 0.2943
H10I H 0.8282 0.9894 0.4557
C17L C 1.1766(3) 0.5870(2) 0.4598(2)
C17G C 1.1630(2) 0.9266(3) 0.2902(2)
C17I C 0.8234(3) 0.9130(2) 0.4598(2)
H11L H 1.1578 0.5901 0.4853
H11G H 1.1599 0.9078 0.2647
H11I H 0.8422 0.9099 0.4853
C18L C 1.1963(2) 0.6297(2) 0.44016(19)
C18G C 1.1203(2) 0.9463(2) 0.30984(19)
C18I C 0.8037(2) 0.8703(2) 0.44016(19)
C19I C 0.7764(3) 0.8765(2) 0.4029(2)
C19G C 1.1265(2) 0.9736(3) 0.3471(2)
C19L C 1.2236(3) 0.6235(2) 0.4029(2)
H12I H 0.7617 0.8479 0.3892
H12G H 1.0979 0.9883 0.3608
H12L H 1.2383 0.6521 0.3892
C20I C 0.7708(2) 0.9250(2) 0.3860(2)
C20G C 1.1750(2) 0.9792(2) 0.3640(2)
C20L C 1.2292(2) 0.5750(2) 0.3860(2)
H13I H 0.7527 0.9293 0.3602
H13G H 1.1793 0.9973 0.3898
H13L H 1.2473 0.5707 0.3602
C21L C 1.1508(2) 0.5116(2) 0.31011(18)
C21G C 1.2384(2) 0.9008(2) 0.43989(18)
C21I C 0.8492(2) 0.9884(2) 0.31011(18)
H14I H 0.8169 0.9838 0.2973
H14G H 1.2338 0.9331 0.4527
H14L H 1.1831 0.5162 0.2973
C22L C 1.1083(2) 0.5318(2) 0.29051(18)
C22G C 1.2182(2) 0.8583(2) 0.45949(18)
C22I C 0.8917(2) 0.9682(2) 0.29051(18)
H15I H 0.8886 0.9498 0.2648
H15G H 1.1998 0.8614 0.4852
H15L H 1.1114 0.5502 0.2648
C23L C 1.2254(2) 0.8108(2) 0.44092(19)
C23G C 0.9392(2) 0.9754(2) 0.30908(19)
C23I C 0.7746(2) 0.6892(2) 0.44092(19)
C24I C 0.7472(2) 0.6920(2) 0.40334(19)
C24G C 0.9420(2) 1.0028(2) 0.34666(19)
C24L C 1.2528(2) 0.8080(2) 0.40334(19)
H16I H 0.7419 0.7239 0.3900
H16G H 0.9739 1.0081 0.3600
H16L H 1.2581 0.7761 0.3900
C25I C 0.8980(2) 1.0221(2) 0.3645(2)
C25G C 1.2721(2) 0.8520(2) 0.3855(2)
C25L C 1.1020(2) 0.4779(2) 0.3645(2)
H17I H 0.9004 1.0412 0.3899
H17G H 1.2912 0.8496 0.3601
H17L H 1.0996 0.4588 0.3899
C26I C 0.7111(6) 1.1083(5) 0.3920(4)
C26G C 1.3583(5) 1.0389(6) 0.3580(4)
C26L C 1.2889(6) 0.3917(5) 0.3920(4)
H18I H 0.7082 1.1305 0.4171
H18G H 1.3805 1.0418 0.3329
H18L H 1.2918 0.3695 0.4171
H19I H 0.6769 1.1068 0.3790
H19G H 1.3568 1.0731 0.3710
H19L H 1.3231 0.3932 0.3790
C27I C 0.7392(4) 1.1309(4) 0.3662(5)
C27G C 1.3809(4) 1.0108(4) 0.3838(5)
C27L C 1.2608(4) 0.3691(4) 0.3662(5)
H20I H 0.7180 1.1395 0.3413
H20G H 1.3895 1.0320 0.4087
H20L H 1.2820 0.3605 0.3413
H21I H 0.7492 1.1635 0.3795
H21G H 1.4135 1.0008 0.3705
H21L H 1.2508 0.3365 0.3795
C28I C 0.8300(3) 1.1373(3) 0.3631(3)
C28G C 1.3873(3) 0.9200(3) 0.3869(3)
C28L C 1.1700(3) 0.3627(3) 0.3631(3)
H22I H 0.8290 1.1703 0.3487
H22G H 1.4203 0.9210 0.4013
H22L H 1.1710 0.3297 0.3487
H23I H 0.8292 1.1425 0.3938
H23G H 1.3925 0.9208 0.3562
H23L H 1.1708 0.3575 0.3938
H24I H 0.8613 1.1193 0.3554
H24G H 1.3693 0.8887 0.3946
H24L H 1.1387 0.3807 0.3554
C29I C 0.7863(7) 1.1043(4) 0.3031(3)
C29G C 1.3543(4) 0.9637(7) 0.4469(3)
C29L C 1.2137(7) 0.3957(4) 0.3031(3)
H25I H 0.7874 1.1389 0.2914
H25G H 1.3889 0.9626 0.4586
H25L H 1.2126 0.3611 0.2914
H26I H 0.8164 1.0854 0.2937
H26G H 1.3354 0.9336 0.4563
H26L H 1.1836 0.4146 0.2937
H27I H 0.7555 1.0871 0.2931
H27G H 1.3371 0.9945 0.4569
H27L H 1.2445 0.4129 0.2931
C30I C 0.6794(3) 1.0238(6) 0.3971(5)
C30G C 1.2738(6) 1.0706(3) 0.3529(5)
C30L C 1.3206(3) 0.4762(6) 0.3971(5)
H28I H 0.6488 1.0355 0.4119
H28G H 1.2855 1.1012 0.3381
H28L H 1.3512 0.4645 0.4119
H29I H 0.6735 1.0246 0.3665
H29G H 1.2746 1.0765 0.3835
H29L H 1.3265 0.4754 0.3665
H30I H 0.6872 0.9889 0.4059
H30G H 1.2389 1.0628 0.3441
H30L H 1.3128 0.5111 0.4059
C31I C 0.7281(3) 1.0585(4) 0.4538(2)
C31G C 1.3085(4) 1.0219(3) 0.2962(2)
C31L C 1.2719(3) 0.4415(4) 0.4538(2)
H31I H 0.6965 1.0707 0.4668
H31G H 1.3207 1.0535 0.2832
H31L H 1.3035 0.4293 0.4668
H32I H 0.7357 1.0243 0.4643
H32G H 1.2743 1.0143 0.2857
H32L H 1.2643 0.4757 0.4643
H33I H 0.7560 1.0815 0.4613
H33G H 1.3315 0.9940 0.2887
H33L H 1.2440 0.4185 0.4613
C32I C 1.0989(3) 0.7737(3) 0.7042(2)
C32L C 0.9011(3) 0.7263(3) 0.7042(2)
C32G C 1.0237(3) 0.6511(3) 0.0458(2)
H34I H 1.1211 0.7709 0.7290
H34L H 0.8789 0.7291 0.7290
H34G H 1.0209 0.6289 0.0210
H35I H 1.1171 0.7619 0.6790
H35L H 0.8829 0.7381 0.6790
H35G H 1.0119 0.6329 0.0710
H36I H 1.0887 0.8093 0.7003
H36L H 0.9113 0.6907 0.7003
H36G H 1.0593 0.6613 0.0497
C33I C 1.0268(4) 0.7597(5) 0.7507(2)
C33L C 0.9732(4) 0.7403(5) 0.7507(2)
C33G C 1.0097(5) 0.7232(4) -0.0007(2)
H37L H 0.9732 0.7027 0.7519
H37I H 1.0268 0.7973 0.7519
H37G H 1.0473 0.7232 -0.0019
H38L H 0.9548 0.7532 0.7758
H38I H 1.0452 0.7468 0.7758
H38G H 0.9968 0.7048 -0.0258
C34L C 0.9317(4) 0.8120(3) 0.7139(3)
C34I C 1.0683(4) 0.6880(3) 0.7139(3)
C34G C 0.9380(3) 0.6817(4) 0.0361(3)
H39L H 0.9079 0.8161 0.7375
H39I H 1.0921 0.6839 0.7375
H39G H 0.9339 0.6579 0.0125
H40L H 0.9617 0.8333 0.7187
H40I H 1.0383 0.6667 0.7187
H40G H 0.9167 0.7117 0.0313
H41L H 0.9151 0.8224 0.6875
H41I H 1.0849 0.6776 0.6875
H41G H 0.9276 0.6651 0.0625
N10 N 1.1820(4) 0.6312(3) 0.2342(3)
O2 O 1.1909(7) 0.6770(4) 0.2370(5)
O3 O 1.2040(4) 0.6053(4) 0.2636(3)
O4 O 1.1619(2) 0.6093(3) 0.2071(2)
N11 N 1.2464(8) 0.9364(7) -0.0330(7)
O5 O 1.2138(10) 0.9460(11) -0.0043(9)
O6 O 1.2690(6) 0.9729(5) -0.0501(4)
O7 O 1.2548(7) 0.8932(6) -0.0430(5)
N12 N 0.5443(8) 0.4289(9) 0.2545(6)
O8 O 0.5036(8) 0.4326(10) 0.2336(8)
O9 O 0.5799(9) 0.4041(9) 0.2363(9)
O10 O 0.5538(8) 0.4493(9) 0.2875(5)
O11 O 0.5814(7) 0.3792(8) 0.2910(4)
N14 N 0.4672(11) 0.5012(19) 0.3301(13)
O18 O 0.4600(18) 0.4799(18) 0.2954(11)
O19 O 0.4291(10) 0.5268(12) 0.3452(13)
O20 O 0.5059(8) 0.5084(12) 0.3501(11)
O24 O 0.409(4) 0.418(3) 0.161(3)
O26 O 0.5841(9) 0.2534(10) 0.4209(8)
O27 O 0.6020(7) 0.3649(7) 0.4302(6)
O28 O 0.6561(14) 0.2987(15) 0.3903(12)
O35 O 0.9013(12) 0.4543(11) 0.4514(9)
O36 O 0.6596(17) 0.7281(19) 0.3214(15)
O38 O 0.4083(11) 0.4163(10) 0.4665(9)
O40 O 0.683(4) 0.339(4) 0.513(3)
O43 O 1.1674(9) 0.9273(9) 0.0413(7)
O44 O 1.1306(15) 0.8962(12) 0.0999(13)
O46 O 1.1259(4) 0.7321(4) 0.0995(3)
O47 O 0.5000 0.2500 0.3750
O48 O 1.0239(10) 0.9451(10) 0.1055(8)
O52 O 0.5399(9) 0.4340(10) 0.4633(8)
O58 O 0.9708(7) 0.5277(7) 0.4337(6)
O59 O 0.9513(9) 0.4063(9) 0.4893(8)
O60 O 1.2851(13) 0.7092(12) 0.2024(10)
loop_
_geom_bond_atom_site_label_1
_geom_bond_atom_site_label_2
_geom_bond_site_symmetry_1
_geom_bond_site_symmetry_2
C1 C2 1_555 1_555
C2 H1 1_555 1_555
C3 C2 1_555 1_555
H2 C3 1_555 1_555
C4 C3 1_555 1_555
H3 C4 1_555 1_555
C5 C4 1_555 1_555
H4 C5 1_555 1_555
C6 C1 1_555 1_555
H5 C6 1_555 1_555
C7 C1 1_555 1_555
O1 C7 1_555 1_555
Pd1 N4 1_555 1_555
Pd2 N5 1_555 1_555
N1 C8 1_555 1_555
N2 C8 1_555 1_555
N3 C9 1_555 1_555
N4 C11 1_555 1_555
N5 C16 1_555 1_555
N6 Pd2 1_555 1_555
N7 Pd2 1_555 1_555
N8 Pd2 1_555 1_555
N9 Pd1 1_555 1_555
C8 C13 1_555 1_555
C9 N1 1_555 1_555
C10 N2 1_555 1_555
C11 H6 1_555 1_555
C12 C11 1_555 1_555
H7 C12 1_555 1_555
C13 C12 1_555 1_555
C14 C13 1_555 1_555
H8 C14 1_555 1_555
C15 N4 1_555 1_555
H9 C15 1_555 1_555
C16 H10 1_555 1_555
C17 C16 1_555 1_555
H11 C17 1_555 1_555
C18 C9 1_555 1_555
C19 C18 1_555 1_555
H12 C19 1_555 1_555
C20 N5 1_555 1_555
H13 C20 1_555 1_555
C21 N6 1_555 1_555
H14 C21 1_555 1_555
C22 C21 1_555 1_555
H15 C22 1_555 1_555
C23 C10 1_555 1_555
C24 C23 1_555 1_555
H16 C24 1_555 1_555
C25 N6 1_555 1_555
H17 C25 1_555 1_555
C26 N8 1_555 1_555
H18 C26 1_555 1_555
H19 C26 1_555 1_555
C27 N7 1_555 1_555
H20 C27 1_555 1_555
H21 C27 1_555 1_555
C28 N7 1_555 1_555
H22 C28 1_555 1_555
H23 C28 1_555 1_555
H24 C28 1_555 1_555
C29 N7 1_555 1_555
H25 C29 1_555 1_555
H26 C29 1_555 1_555
H27 C29 1_555 1_555
C30 N8 1_555 1_555
H28 C30 1_555 1_555
H29 C30 1_555 1_555
H30 C30 1_555 1_555
C31 N8 1_555 1_555
H31 C31 1_555 1_555
H32 C31 1_555 1_555
H33 C31 1_555 1_555
C32 N9 1_555 1_555
H34 C32 1_555 1_555
H35 C32 1_555 1_555
H36 C32 1_555 1_555
C33 N9 1_555 1_555
H37 C33 1_555 1_555
H38 C33 1_555 1_555
C34 N9 1_555 1_555
H39 C34 1_555 1_555
H40 C34 1_555 1_555
H41 C34 1_555 1_555
N10 O2 1_555 1_555
O3 N10 1_555 1_555
O4 N10 1_555 1_555
N11 O5 1_555 1_555
O6 N11 1_555 1_555
O7 N11 1_555 1_555
N12 O8 1_555 1_555
O9 N12 1_555 1_555
O10 N12 1_555 1_555
N14 O18 1_555 1_555
O19 N14 1_555 1_555
O20 N14 1_555 1_555
C1G C2G 1_555 1_555
C2G H1G 1_555 1_555
C3G C2G 1_555 1_555
H2G C3G 1_555 1_555
C4G C3G 1_555 1_555
H3G C4G 1_555 1_555
C5G C4G 1_555 1_555
H4G C5G 1_555 1_555
C6G C1G 1_555 1_555
H5G C6G 1_555 1_555
C7G C7 1_555 1_555
O1G C7G 1_555 1_555
Pd1I N4I 1_555 1_555
Pd2L N5L 1_555 1_555
Pd2G N5G 1_555 1_555
Pd2I N5I 1_555 1_555
N1L C8L 1_555 1_555
N1G C8G 1_555 1_555
N1I C8I 1_555 1_555
N2L C8L 1_555 1_555
N2G C8G 1_555 1_555
N2I C8I 1_555 1_555
N3L C9L 1_555 1_555
N3G C9G 1_555 1_555
N3I C9I 1_555 1_555
N4I C11I 1_555 1_555
N4L Pd1I 1_555 1_555
N4G Pd1 1_555 1_555
N5L C16L 1_555 1_555
N5G C16G 1_555 1_555
N5I C16I 1_555 1_555
N6L Pd2L 1_555 1_555
N6G Pd2G 1_555 1_555
N6I Pd2I 1_555 1_555
N7I Pd2I 1_555 1_555
N7G Pd2G 1_555 1_555
N7L Pd2L 1_555 1_555
N8I Pd2I 1_555 1_555
N8G Pd2G 1_555 1_555
N8L Pd2L 1_555 1_555
N9I Pd1I 1_555 1_555
N9L Pd1I 1_555 1_555
N9G Pd1 1_555 1_555
C8L C13L 1_555 1_555
C8G C13G 1_555 1_555
C8I C13I 1_555 1_555
C9L N1L 1_555 1_555
C9G N1G 1_555 1_555
C9I N1I 1_555 1_555
C10L N2L 1_555 1_555
C10G N2G 1_555 1_555
C10I N2I 1_555 1_555
C11I H6I 1_555 1_555
C11L N4L 1_555 1_555
C11G N4G 1_555 1_555
H6L C11L 1_555 1_555
H6G C11G 1_555 1_555
C12I C11I 1_555 1_555
C12L C11L 1_555 1_555
C12G C11G 1_555 1_555
H7L C12L 1_555 1_555
H7I C12I 1_555 1_555
H7G C12G 1_555 1_555
C13I C12I 1_555 1_555
C13L C12L 1_555 1_555
C13G C12G 1_555 1_555
C14L C13L 1_555 1_555
C14I C13I 1_555 1_555
C14G C13G 1_555 1_555
H8L C14L 1_555 1_555
H8I C14I 1_555 1_555
H8G C14G 1_555 1_555
C15L N4L 1_555 1_555
C15I N4I 1_555 1_555
C15G N4G 1_555 1_555
H9L C15L 1_555 1_555
H9I C15I 1_555 1_555
H9G C15G 1_555 1_555
C16L H10L 1_555 1_555
C16G H10G 1_555 1_555
C16I H10I 1_555 1_555
C17L C16L 1_555 1_555
C17G C16G 1_555 1_555
C17I C16I 1_555 1_555
H11L C17L 1_555 1_555
H11G C17G 1_555 1_555
H11I C17I 1_555 1_555
C18L C9L 1_555 1_555
C18G C9G 1_555 1_555
C18I C9I 1_555 1_555
C19I C18I 1_555 1_555
C19G C18G 1_555 1_555
C19L C18L 1_555 1_555
H12I C19I 1_555 1_555
H12G C19G 1_555 1_555
H12L C19L 1_555 1_555
C20I N5I 1_555 1_555
C20G N5G 1_555 1_555
C20L N5L 1_555 1_555
H13I C20I 1_555 1_555
H13G C20G 1_555 1_555
H13L C20L 1_555 1_555
C21L N6L 1_555 1_555
C21G N6G 1_555 1_555
C21I N6I 1_555 1_555
H14I C21I 1_555 1_555
H14G C21G 1_555 1_555
H14L C21L 1_555 1_555
C22L C23 1_555 1_555
C22G C21G 1_555 1_555
C22I C21I 1_555 1_555
H15I C22I 1_555 1_555
H15G C22G 1_555 1_555
H15L C22L 1_555 1_555
C23L C10L 1_555 1_555
C23G C10G 1_555 1_555
C23I C22 1_555 1_555
C24I C25 1_555 1_555
C24G C23G 1_555 1_555
C24L C23L 1_555 1_555
H16I C24I 1_555 1_555
H16G C24G 1_555 1_555
H16L C24L 1_555 1_555
C25I N6I 1_555 1_555
C25G N6G 1_555 1_555
C25L C24 1_555 1_555
H17I C25I 1_555 1_555
H17G C25G 1_555 1_555
H17L C25L 1_555 1_555
C26I N8I 1_555 1_555
C26G N8G 1_555 1_555
C26L N8L 1_555 1_555
H18I C26I 1_555 1_555
H18G C26G 1_555 1_555
H18L C26L 1_555 1_555
H19I C26I 1_555 1_555
H19G C26G 1_555 1_555
H19L C26L 1_555 1_555
C27I N7I 1_555 1_555
C27G N7G 1_555 1_555
C27L N7L 1_555 1_555
H20I C27I 1_555 1_555
H20G C27G 1_555 1_555
H20L C27L 1_555 1_555
H21I C27I 1_555 1_555
H21G C27G 1_555 1_555
H21L C27L 1_555 1_555
C28I N7I 1_555 1_555
C28G N7G 1_555 1_555
C28L N7L 1_555 1_555
H22I C28I 1_555 1_555
H22G C28G 1_555 1_555
H22L C28L 1_555 1_555
H23I C28I 1_555 1_555
H23G C28G 1_555 1_555
H23L C28L 1_555 1_555
H24I C28I 1_555 1_555
H24G C28G 1_555 1_555
H24L C28L 1_555 1_555
C29I N7I 1_555 1_555
C29G N7G 1_555 1_555
C29L N7L 1_555 1_555
H25I C29I 1_555 1_555
H25G C29G 1_555 1_555
H25L C29L 1_555 1_555
H26I C29I 1_555 1_555
H26G C29G 1_555 1_555
H26L C29L 1_555 1_555
H27I C29I 1_555 1_555
H27G C29G 1_555 1_555
H27L C29L 1_555 1_555
C30I N8I 1_555 1_555
C30G N8G 1_555 1_555
C30L N8L 1_555 1_555
H28I C30I 1_555 1_555
H28G C30G 1_555 1_555
H28L C30L 1_555 1_555
H29I C30I 1_555 1_555
H29G C30G 1_555 1_555
H29L C30L 1_555 1_555
H30I C30I 1_555 1_555
H30G C30G 1_555 1_555
H30L C30L 1_555 1_555
C31I N8I 1_555 1_555
C31G N8G 1_555 1_555
C31L N8L 1_555 1_555
H31I C31I 1_555 1_555
H31G C31G 1_555 1_555
H31L C31L 1_555 1_555
H32I C31I 1_555 1_555
H32G C31G 1_555 1_555
H32L C31L 1_555 1_555
H33I C31I 1_555 1_555
H33G C31G 1_555 1_555
H33L C31L 1_555 1_555
C32I N9I 1_555 1_555
C32L N9L 1_555 1_555
C32G N9G 1_555 1_555
H34I C32I 1_555 1_555
H34L C32L 1_555 1_555
H34G C32G 1_555 1_555
H35I C32I 1_555 1_555
H35L C32L 1_555 1_555
H35G C32G 1_555 1_555
H36I C32I 1_555 1_555
H36L C32L 1_555 1_555
H36G C32G 1_555 1_555
C33I N9I 1_555 1_555
C33L N9L 1_555 1_555
C33G C33 1_555 1_555
H37L C33L 1_555 1_555
H37I C33I 1_555 1_555
H37G C33G 1_555 1_555
H38L C33L 1_555 1_555
H38I C33I 1_555 1_555
H38G C33G 1_555 1_555
C34L N9L 1_555 1_555
C34I N9I 1_555 1_555
C34G N9G 1_555 1_555
H39L C34L 1_555 1_555
H39I C34I 1_555 1_555
H39G C34G 1_555 1_555
H40L C34L 1_555 1_555
H40I C34I 1_555 1_555
H40G C34G 1_555 1_555
H41L C34L 1_555 1_555
H41I C34I 1_555 1_555
H41G C34G 1_555 1_555
C5 C6 1_555 1_555
N3 C10 1_555 1_555
C14 C15 1_555 1_555
C17 C18 1_555 1_555
C19 C20 1_555 1_555
C26 C27 1_555 1_555
C1G C7G 1_555 1_555
C5G C6G 1_555 1_555
N3L C10L 1_555 1_555
N3G C10G 1_555 1_555
N3I C10I 1_555 1_555
N6L C25L 1_555 1_555
N9G C33G 1_555 1_555
C10I C23I 1_555 1_555
C14L C15L 1_555 1_555
C14I C15I 1_555 1_555
C14G C15G 1_555 1_555
C17L C18L 1_555 1_555
C17G C18G 1_555 1_555
C17I C18I 1_555 1_555
C19I C20I 1_555 1_555
C19G C20G 1_555 1_555
C19L C20L 1_555 1_555
C21L C22L 1_555 1_555
C22G C23L 1_555 1_555
C22I C23G 1_555 1_555
C23I C24I 1_555 1_555
C24G C25I 1_555 1_555
C24L C25G 1_555 1_555
C26I C27I 1_555 1_555
C26G C27G 1_555 1_555
C26L C27L 1_555 1_555
C33I C33L 1_555 1_555

#END
