# generated using pymatgen
data_H164Pd6C136N56O261
_symmetry_space_group_name_H-M   'P 1'
_cell_length_a   24.39889114
_cell_length_b   24.39889114
_cell_length_c   24.39889114
_cell_angle_alpha   99.33811799
_cell_angle_beta   114.76325615
_cell_angle_gamma   114.76325615
_symmetry_Int_Tables_number   1
_chemical_formula_structural   H164Pd6C136N56O261
_chemical_formula_sum   'H328 Pd12 C272 N112 O522'
_cell_volume   10925.79946906
_cell_formula_units_Z   2
loop_
 _symmetry_equiv_pos_site_id
 _symmetry_equiv_pos_as_xyz
  1  'x, y, z'
loop_
 _atom_site_type_symbol
 _atom_site_label
 _atom_site_symmetry_multiplicity
 _atom_site_fract_x
 _atom_site_fract_y
 _atom_site_fract_z
 _atom_site_occupancy
  C  C1  1  0.746600  0.359000  0.011400  1.0
  C  C2  1  0.347600  0.612400  0.859000  1.0
  C  C3  1  0.152400  0.511400  0.764800  1.0
  C  C4  1  0.753400  0.264800  0.112400  1.0
  C  C5  1  0.253400  0.641000  0.988600  1.0
  C  C6  1  0.652400  0.387600  0.141000  1.0
  C  C7  1  0.847600  0.488600  0.235200  1.0
  C  C8  1  0.246600  0.735200  0.887600  1.0
  C  C9  1  0.686700  0.351300  0.012400  1.0
  C  C10  1  0.338900  0.664600  0.851300  1.0
  C  C11  1  0.161100  0.512400  0.825700  1.0
  C  C12  1  0.813300  0.325700  0.164600  1.0
  C  C13  1  0.313300  0.648700  0.987600  1.0
  C  C14  1  0.661100  0.335400  0.148700  1.0
  C  C15  1  0.838900  0.487600  0.174300  1.0
  C  C16  1  0.186700  0.674300  0.835400  1.0
  C  C17  1  0.670200  0.398800  0.000400  1.0
  C  C18  1  0.398400  0.728600  0.898800  1.0
  C  C19  1  0.101600  0.500400  0.830200  1.0
  C  C20  1  0.829800  0.330200  0.228600  1.0
  C  C21  1  0.329800  0.601200  0.999600  1.0
  C  C22  1  0.601600  0.271400  0.101200  1.0
  C  C23  1  0.898400  0.499600  0.169800  1.0
  C  C24  1  0.170200  0.669800  0.771400  1.0
  C  C25  1  0.711100  0.450300  0.989400  1.0
  C  C26  1  0.460900  0.739200  0.950300  1.0
  C  C27  1  0.039100  0.489400  0.778300  1.0
  C  C28  1  0.788900  0.278300  0.239200  1.0
  C  C29  1  0.288900  0.549700  0.010600  1.0
  C  C30  1  0.539100  0.260800  0.049700  1.0
  C  C31  1  0.960900  0.510600  0.221700  1.0
  C  C32  1  0.211100  0.721700  0.760800  1.0
  C  C33  1  0.768500  0.453600  0.987700  1.0
  C  C34  1  0.465900  0.685100  0.953600  1.0
  C  C35  1  0.034100  0.487700  0.719200  1.0
  C  C36  1  0.731500  0.219200  0.185100  1.0
  C  C37  1  0.231500  0.546400  0.012300  1.0
  C  C38  1  0.534100  0.314900  0.046400  1.0
  C  C39  1  0.965900  0.512300  0.280800  1.0
  C  C40  1  0.268500  0.780800  0.814900  1.0
  C  C41  1  0.786200  0.407600  0.997000  1.0
  C  C42  1  0.410600  0.621400  0.907600  1.0
  C  C43  1  0.089400  0.497000  0.710800  1.0
  C  C44  1  0.713800  0.210800  0.121400  1.0
  C  C45  1  0.213800  0.592400  0.003000  1.0
  C  C46  1  0.589400  0.378600  0.092400  1.0
  C  C47  1  0.910600  0.503000  0.289200  1.0
  C  C48  1  0.286200  0.789200  0.878600  1.0
  C  C49  1  0.771000  0.313300  0.029300  1.0
  C  C50  1  0.284000  0.542300  0.813300  1.0
  C  C51  1  0.216000  0.529300  0.758300  1.0
  C  C52  1  0.729000  0.258300  0.042300  1.0
  C  C53  1  0.229000  0.686700  0.970700  1.0
  C  C54  1  0.716000  0.457700  0.186700  1.0
  C  C55  1  0.784000  0.470700  0.241700  1.0
  C  C56  1  0.271000  0.741700  0.957700  1.0
  C  C57  1  0.421300  0.778720  0.159620  1.0
  C  C58  1  0.619100  0.357420  0.278720  1.0
  C  C59  1  0.880900  0.659620  0.238320  1.0
  C  C60  1  0.078700  0.738320  0.857420  1.0
  C  C61  1  0.578700  0.221280  0.840380  1.0
  C  C62  1  0.380900  0.642580  0.721280  1.0
  C  C63  1  0.119100  0.340380  0.761680  1.0
  C  C64  1  0.921300  0.261680  0.142580  1.0
  C  C65  1  0.506700  0.777720  0.147020  1.0
  C  C66  1  0.630700  0.271020  0.277720  1.0
  C  C67  1  0.869300  0.647020  0.140320  1.0
  C  C68  1  0.993300  0.640320  0.771020  1.0
  C  C69  1  0.493300  0.222280  0.852980  1.0
  C  C70  1  0.369300  0.728980  0.722280  1.0
  C  C71  1  0.130700  0.352980  0.859680  1.0
  C  C72  1  0.006700  0.359680  0.228980  1.0
  C  C73  1  0.437100  0.694790  0.161490  1.0
  C  C74  1  0.533300  0.257690  0.194790  1.0
  C  C75  1  0.966700  0.661490  0.224390  1.0
  C  C76  1  0.062900  0.724390  0.757690  1.0
  C  C77  1  0.562900  0.305210  0.838510  1.0
  C  C78  1  0.466700  0.742310  0.805210  1.0
  C  C79  1  0.033300  0.338510  0.775610  1.0
  C  C80  1  0.937100  0.275610  0.242310  1.0
  C  C81  1  0.286900  0.811900  0.168400  1.0
  C  C82  1  0.643500  0.525000  0.311900  1.0
  C  C83  1  0.856500  0.668400  0.381500  1.0
  C  C84  1  0.213100  0.881500  0.025000  1.0
  C  C85  1  0.713100  0.188100  0.831600  1.0
  C  C86  1  0.356500  0.475000  0.688100  1.0
  C  C87  1  0.143500  0.331600  0.618500  1.0
  C  C88  1  0.786900  0.118500  0.975000  1.0
  C  C89  1  0.322300  0.780500  0.166200  1.0
  C  C90  1  0.614300  0.458200  0.280500  1.0
  C  C91  1  0.885700  0.666200  0.343900  1.0
  C  C92  1  0.177700  0.843900  0.958200  1.0
  C  C93  1  0.677700  0.219500  0.833800  1.0
  C  C94  1  0.385700  0.541800  0.719500  1.0
  C  C95  1  0.114300  0.333800  0.656100  1.0
  C  C96  1  0.822300  0.156100  0.041800  1.0
  C  C97  1  0.382500  0.811670  0.163570  1.0
  C  C98  1  0.648100  0.429170  0.311670  1.0
  C  C99  1  0.851900  0.663570  0.281070  1.0
  C  C100  1  0.117500  0.781070  0.929170  1.0
  C  C101  1  0.617500  0.188330  0.836430  1.0
  C  C102  1  0.351900  0.570830  0.688330  1.0
  C  C103  1  0.148100  0.336430  0.718930  1.0
  C  C104  1  0.882500  0.218930  0.070830  1.0
  C  C105  1  0.404700  0.873200  0.161900  1.0
  C  C106  1  0.711300  0.468500  0.373200  1.0
  C  C107  1  0.788700  0.661900  0.257200  1.0
  C  C108  1  0.095300  0.757200  0.968500  1.0
  C  C109  1  0.595300  0.126800  0.838100  1.0
  C  C110  1  0.288700  0.531500  0.626800  1.0
  C  C111  1  0.211300  0.338100  0.742800  1.0
  C  C112  1  0.904700  0.242800  0.031500  1.0
  C  C113  1  0.367600  0.902100  0.164500  1.0
  C  C114  1  0.737600  0.534500  0.402100  1.0
  C  C115  1  0.762400  0.664500  0.296900  1.0
  C  C116  1  0.132400  0.796900  0.034500  1.0
  C  C117  1  0.632400  0.097900  0.835500  1.0
  C  C118  1  0.262400  0.465500  0.597900  1.0
  C  C119  1  0.237600  0.335500  0.703100  1.0
  C  C120  1  0.867600  0.203100  0.965500  1.0
  C  C121  1  0.644700  0.901820  0.126320  1.0
  C  C122  1  0.775500  0.257120  0.401820  1.0
  C  C123  1  0.724500  0.626320  0.981620  1.0
  C  C124  1  0.855300  0.481620  0.757120  1.0
  C  C125  1  0.355300  0.098180  0.873680  1.0
  C  C126  1  0.224500  0.742880  0.598180  1.0
  C  C127  1  0.275500  0.373680  0.018380  1.0
  C  C128  1  0.144700  0.518380  0.242880  1.0
  C  C129  1  0.589600  0.872800  0.136400  1.0
  C  C130  1  0.736400  0.283200  0.372800  1.0
  C  C131  1  0.763600  0.636400  0.046800  1.0
  C  C132  1  0.910400  0.546800  0.783200  1.0
  C  C133  1  0.410400  0.127200  0.863600  1.0
  C  C134  1  0.263600  0.716800  0.627200  1.0
  C  C135  1  0.236400  0.363600  0.953200  1.0
  C  C136  1  0.089600  0.453200  0.216800  1.0
  C  C137  1  0.566600  0.810460  0.136460  1.0
  C  C138  1  0.674000  0.243860  0.310460  1.0
  C  C139  1  0.826000  0.636460  0.069860  1.0
  C  C140  1  0.933400  0.569860  0.743860  1.0
  C  C141  1  0.433400  0.189540  0.863540  1.0
  C  C142  1  0.326000  0.756140  0.689540  1.0
  C  C143  1  0.174000  0.363540  0.930140  1.0
  C  C144  1  0.066600  0.430140  0.256140  1.0
  C  C145  1  0.600100  0.779400  0.126500  1.0
  C  C146  1  0.652900  0.179300  0.279400  1.0
  C  C147  1  0.847100  0.626500  0.026400  1.0
  C  C148  1  0.899900  0.526400  0.679300  1.0
  C  C149  1  0.399900  0.220600  0.873500  1.0
  C  C150  1  0.347100  0.820700  0.720600  1.0
  C  C151  1  0.152900  0.373500  0.973600  1.0
  C  C152  1  0.100100  0.473600  0.320700  1.0
  C  C153  1  0.654200  0.811000  0.115200  1.0
  C  C154  1  0.695800  0.156800  0.311000  1.0
  C  C155  1  0.804200  0.615200  0.961000  1.0
  C  C156  1  0.845800  0.461000  0.656800  1.0
  C  C157  1  0.345800  0.189000  0.884800  1.0
  C  C158  1  0.304200  0.843200  0.689000  1.0
  C  C159  1  0.195800  0.384800  0.039000  1.0
  C  C160  1  0.154200  0.539000  0.343200  1.0
  C  C161  1  0.639200  0.798510  0.960910  1.0
  C  C162  1  0.837600  0.159310  0.298510  1.0
  C  C163  1  0.662400  0.460910  0.821710  1.0
  C  C164  1  0.860800  0.321710  0.659310  1.0
  C  C165  1  0.360800  0.201490  0.039090  1.0
  C  C166  1  0.162400  0.840690  0.701490  1.0
  C  C167  1  0.337600  0.539090  0.178290  1.0
  C  C168  1  0.139200  0.678290  0.340690  1.0
  C  C169  1  0.576500  0.758710  0.898810  1.0
  C  C170  1  0.859900  0.182210  0.258710  1.0
  C  C171  1  0.640100  0.398810  0.822310  1.0
  C  C172  1  0.923500  0.322310  0.682210  1.0
  C  C173  1  0.423500  0.241290  0.101190  1.0
  C  C174  1  0.140100  0.817790  0.741290  1.0
  C  C175  1  0.359900  0.601190  0.177690  1.0
  C  C176  1  0.076500  0.677690  0.317790  1.0
  C  C177  1  0.414600  0.630120  0.166320  1.0
  C  C178  1  0.463800  0.215520  0.130120  1.0
  C  C179  1  0.036200  0.666320  0.251720  1.0
  C  C180  1  0.085400  0.751720  0.715520  1.0
  C  C181  1  0.585400  0.369880  0.833680  1.0
  C  C182  1  0.536200  0.784480  0.869880  1.0
  C  C183  1  0.963800  0.333680  0.748280  1.0
  C  C184  1  0.914600  0.248280  0.284480  1.0
  C  C185  1  0.444800  0.595340  0.156140  1.0
  C  C186  1  0.439200  0.150540  0.095340  1.0
  C  C187  1  0.060800  0.656140  0.211340  1.0
  C  C188  1  0.055200  0.711340  0.650540  1.0
  C  C189  1  0.555200  0.404660  0.843860  1.0
  C  C190  1  0.560800  0.849460  0.904660  1.0
  C  C191  1  0.939200  0.343860  0.788660  1.0
  C  C192  1  0.944800  0.288660  0.349460  1.0
  C  C193  1  0.624100  0.886600  0.966500  1.0
  C  C194  1  0.920100  0.262500  0.386600  1.0
  C  C195  1  0.579900  0.466500  0.842400  1.0
  C  C196  1  0.875900  0.342400  0.762500  1.0
  C  C197  1  0.375900  0.113400  0.033500  1.0
  C  C198  1  0.079900  0.737500  0.613400  1.0
  C  C199  1  0.420100  0.533500  0.157600  1.0
  C  C200  1  0.124100  0.657600  0.237500  1.0
  C  C201  1  0.897200  0.000300  0.180900  1.0
  C  C202  1  0.819400  0.103100  0.500300  1.0
  C  C203  1  0.680600  0.680900  0.783700  1.0
  C  C204  1  0.602800  0.283700  0.603100  1.0
  C  C205  1  0.102800  0.999700  0.819100  1.0
  C  C206  1  0.180600  0.896900  0.499700  1.0
  C  C207  1  0.319400  0.319100  0.216300  1.0
  C  C208  1  0.397200  0.716300  0.396900  1.0
  C  C209  1  0.891700  0.997100  0.127000  1.0
  C  C210  1  0.870100  0.105400  0.497100  1.0
  C  C211  1  0.629900  0.627000  0.735300  1.0
  C  C212  1  0.608300  0.235300  0.605400  1.0
  C  C213  1  0.108300  0.002900  0.873000  1.0
  C  C214  1  0.129900  0.894600  0.502900  1.0
  C  C215  1  0.370100  0.373000  0.264700  1.0
  C  C216  1  0.391700  0.764700  0.394600  1.0
  C  C217  1  0.807300  0.000400  0.033100  1.0
  C  C218  1  0.967300  0.193100  0.500400  1.0
  C  C219  1  0.532700  0.533100  0.725800  1.0
  C  C220  1  0.692700  0.225800  0.693100  1.0
  C  C221  1  0.192700  0.999600  0.966900  1.0
  C  C222  1  0.032700  0.806900  0.499600  1.0
  C  C223  1  0.467300  0.466900  0.274200  1.0
  C  C224  1  0.307300  0.774200  0.306900  1.0
  C  C225  1  0.818000  0.907400  0.016800  1.0
  C  C226  1  0.890600  0.089400  0.407400  1.0
  C  C227  1  0.609400  0.516800  0.698800  1.0
  C  C228  1  0.682000  0.198800  0.589400  1.0
  C  C229  1  0.182000  0.092600  0.983200  1.0
  C  C230  1  0.109400  0.910600  0.592600  1.0
  C  C231  1  0.390600  0.483200  0.301200  1.0
  C  C232  1  0.318000  0.801200  0.410600  1.0
  C  C233  1  0.844400  0.920900  0.217700  1.0
  C  C234  1  0.703200  0.076500  0.420900  1.0
  C  C235  1  0.796800  0.717700  0.873300  1.0
  C  C236  1  0.655600  0.373300  0.576500  1.0
  C  C237  1  0.155600  0.079100  0.782300  1.0
  C  C238  1  0.296800  0.923500  0.579100  1.0
  C  C239  1  0.203200  0.282300  0.126700  1.0
  C  C240  1  0.344400  0.626700  0.423500  1.0
  C  C241  1  0.830400  0.012300  0.225700  1.0
  C  C242  1  0.786600  0.181900  0.512300  1.0
  C  C243  1  0.713400  0.725700  0.895300  1.0
  C  C244  1  0.669600  0.395300  0.681900  1.0
  C  C245  1  0.169600  0.987700  0.774300  1.0
  C  C246  1  0.213400  0.818100  0.487700  1.0
  C  C247  1  0.286600  0.274300  0.104700  1.0
  C  C248  1  0.330400  0.604700  0.318100  1.0
  C  C249  1  0.174800  0.977900  0.105300  1.0
  C  C250  1  0.872600  0.803100  0.477900  1.0
  C  C251  1  0.627400  0.605300  0.430500  1.0
  C  C252  1  0.325200  0.930500  0.303100  1.0
  C  C253  1  0.825200  0.022100  0.894700  1.0
  C  C254  1  0.127400  0.196900  0.522100  1.0
  C  C255  1  0.372600  0.394700  0.569500  1.0
  C  C256  1  0.674800  0.069500  0.696900  1.0
  C  C257  1  0.232900  0.010400  0.223900  1.0
  C  C258  1  0.786500  0.777500  0.510400  1.0
  C  C259  1  0.713500  0.723900  0.491000  1.0
  C  C260  1  0.267100  0.991000  0.277500  1.0
  C  C261  1  0.767100  0.989600  0.776100  1.0
  C  C262  1  0.213500  0.222500  0.489600  1.0
  C  C263  1  0.286500  0.276100  0.509000  1.0
  C  C264  1  0.732900  0.009000  0.722500  1.0
  C  C265  1  0.119700  0.901900  0.145600  1.0
  C  C266  1  0.756300  0.782200  0.401900  1.0
  C  C267  1  0.743700  0.645600  0.525900  1.0
  C  C268  1  0.380300  0.025900  0.282200  1.0
  C  C269  1  0.880300  0.098100  0.854400  1.0
  C  C270  1  0.243700  0.217800  0.598100  1.0
  C  C271  1  0.256300  0.354400  0.474100  1.0
  C  C272  1  0.619700  0.974100  0.717800  1.0
  H  H273  1  0.659300  0.316600  0.020700  1.0
  H  H274  1  0.295900  0.657300  0.816600  1.0
  H  H275  1  0.204100  0.520700  0.861400  1.0
  H  H276  1  0.840700  0.361400  0.157300  1.0
  H  H277  1  0.340700  0.683400  0.979300  1.0
  H  H278  1  0.704100  0.342700  0.183400  1.0
  H  H279  1  0.795900  0.479300  0.138600  1.0
  H  H280  1  0.159300  0.638600  0.842700  1.0
  H  H281  1  0.629700  0.395400  0.999900  1.0
  H  H282  1  0.395500  0.765700  0.895400  1.0
  H  H283  1  0.104500  0.499900  0.870200  1.0
  H  H284  1  0.870300  0.370200  0.265700  1.0
  H  H285  1  0.370300  0.604600  0.000100  1.0
  H  H286  1  0.604500  0.234300  0.104600  1.0
  H  H287  1  0.895500  0.500100  0.129800  1.0
  H  H288  1  0.129700  0.629800  0.734300  1.0
  H  H289  1  0.700100  0.482700  0.983200  1.0
  H  H290  1  0.499500  0.782600  0.982700  1.0
  H  H291  1  0.000500  0.483200  0.783100  1.0
  H  H292  1  0.799900  0.283100  0.282600  1.0
  H  H293  1  0.299900  0.517300  0.016800  1.0
  H  H294  1  0.500500  0.217400  0.017300  1.0
  H  H295  1  0.999500  0.516800  0.216900  1.0
  H  H296  1  0.200100  0.716900  0.717400  1.0
  H  H297  1  0.796600  0.488700  0.980100  1.0
  H  H298  1  0.508600  0.692100  0.988700  1.0
  H  H299  1  0.991400  0.480100  0.683500  1.0
  H  H300  1  0.703400  0.183500  0.192100  1.0
  H  H301  1  0.203400  0.511300  0.019900  1.0
  H  H302  1  0.491400  0.307900  0.011300  1.0
  H  H303  1  0.008600  0.519900  0.316500  1.0
  H  H304  1  0.296600  0.816500  0.807900  1.0
  H  H305  1  0.824200  0.409200  0.993600  1.0
  H  H306  1  0.415600  0.585000  0.909200  1.0
  H  H307  1  0.084400  0.493600  0.669400  1.0
  H  H308  1  0.675800  0.169400  0.085000  1.0
  H  H309  1  0.175800  0.590800  0.006400  1.0
  H  H310  1  0.584400  0.415000  0.090800  1.0
  H  H311  1  0.915600  0.506400  0.330600  1.0
  H  H312  1  0.324200  0.830600  0.915000  1.0
  H  H313  1  0.245700  0.790200  0.170700  1.0
  H  H314  1  0.619500  0.544500  0.290200  1.0
  H  H315  1  0.880500  0.670700  0.425000  1.0
  H  H316  1  0.254300  0.925000  0.044500  1.0
  H  H317  1  0.754300  0.209800  0.829300  1.0
  H  H318  1  0.380500  0.455500  0.709800  1.0
  H  H319  1  0.119500  0.329300  0.575000  1.0
  H  H320  1  0.745700  0.075000  0.955500  1.0
  H  H321  1  0.305200  0.737700  0.166500  1.0
  H  H322  1  0.571200  0.432500  0.237700  1.0
  H  H323  1  0.928800  0.666500  0.361300  1.0
  H  H324  1  0.194800  0.861300  0.932500  1.0
  H  H325  1  0.694800  0.262300  0.833500  1.0
  H  H326  1  0.428800  0.567500  0.762300  1.0
  H  H327  1  0.071200  0.333500  0.638700  1.0
  H  H328  1  0.805200  0.138700  0.067500  1.0
  H  H329  1  0.445300  0.895400  0.158900  1.0
  H  H330  1  0.736500  0.450100  0.395400  1.0
  H  H331  1  0.763500  0.658900  0.213600  1.0
  H  H332  1  0.054700  0.713600  0.950100  1.0
  H  H333  1  0.554700  0.104600  0.841100  1.0
  H  H334  1  0.263500  0.549900  0.604600  1.0
  H  H335  1  0.236500  0.341100  0.786400  1.0
  H  H336  1  0.945300  0.286400  0.049900  1.0
  H  H337  1  0.383900  0.944800  0.164100  1.0
  H  H338  1  0.780700  0.560900  0.444800  1.0
  H  H339  1  0.719300  0.664100  0.280200  1.0
  H  H340  1  0.116100  0.780200  0.060900  1.0
  H  H341  1  0.616100  0.055200  0.835900  1.0
  H  H342  1  0.219300  0.439100  0.555200  1.0
  H  H343  1  0.280700  0.335900  0.719800  1.0
  H  H344  1  0.883900  0.219800  0.939100  1.0
  H  H345  1  0.661200  0.945100  0.127500  1.0
  H  H346  1  0.817600  0.283900  0.445100  1.0
  H  H347  1  0.682400  0.627500  0.966300  1.0
  H  H348  1  0.838800  0.466300  0.783900  1.0
  H  H349  1  0.338800  0.054900  0.872500  1.0
  H  H350  1  0.182400  0.716100  0.554900  1.0
  H  H351  1  0.317600  0.372500  0.033700  1.0
  H  H352  1  0.161200  0.533700  0.216100  1.0
  H  H353  1  0.567700  0.895200  0.143100  1.0
  H  H354  1  0.752100  0.327500  0.395200  1.0
  H  H355  1  0.747900  0.643100  0.075400  1.0
  H  H356  1  0.932300  0.575400  0.827500  1.0
  H  H357  1  0.432300  0.104800  0.856900  1.0
  H  H358  1  0.247900  0.672500  0.604800  1.0
  H  H359  1  0.252100  0.356900  0.924600  1.0
  H  H360  1  0.067700  0.424600  0.172500  1.0
  H  H361  1  0.586200  0.737100  0.127500  1.0
  H  H362  1  0.609600  0.150900  0.237100  1.0
  H  H363  1  0.890400  0.627500  0.041300  1.0
  H  H364  1  0.913800  0.541300  0.650900  1.0
  H  H365  1  0.413800  0.262900  0.872500  1.0
  H  H366  1  0.390400  0.849100  0.762900  1.0
  H  H367  1  0.109600  0.372500  0.958700  1.0
  H  H368  1  0.086200  0.458700  0.349100  1.0
  H  H369  1  0.676600  0.789500  0.107500  1.0
  H  H370  1  0.682000  0.112900  0.289500  1.0
  H  H371  1  0.818000  0.607500  0.930900  1.0
  H  H372  1  0.823400  0.430900  0.612900  1.0
  H  H373  1  0.323400  0.210500  0.892500  1.0
  H  H374  1  0.318000  0.887100  0.710500  1.0
  H  H375  1  0.182000  0.392500  0.069100  1.0
  H  H376  1  0.176600  0.569100  0.387100  1.0
  H  H377  1  0.666900  0.781100  0.980400  1.0
  H  H378  1  0.800700  0.114200  0.281100  1.0
  H  H379  1  0.699300  0.480400  0.813500  1.0
  H  H380  1  0.833100  0.313500  0.614200  1.0
  H  H381  1  0.333100  0.218900  0.019600  1.0
  H  H382  1  0.199300  0.885800  0.718900  1.0
  H  H383  1  0.300700  0.519600  0.186500  1.0
  H  H384  1  0.166900  0.686500  0.385800  1.0
  H  H385  1  0.561200  0.714600  0.876200  1.0
  H  H386  1  0.838400  0.153400  0.214600  1.0
  H  H387  1  0.661600  0.376200  0.815000  1.0
  H  H388  1  0.938800  0.315000  0.653400  1.0
  H  H389  1  0.438800  0.285400  0.123800  1.0
  H  H390  1  0.161600  0.846600  0.785400  1.0
  H  H391  1  0.338400  0.623800  0.185000  1.0
  H  H392  1  0.061200  0.685000  0.346600  1.0
  H  H393  1  0.482000  0.613900  0.148100  1.0
  H  H394  1  0.465800  0.131900  0.113900  1.0
  H  H395  1  0.034200  0.648100  0.166100  1.0
  H  H396  1  0.018000  0.666100  0.631900  1.0
  H  H397  1  0.518000  0.386100  0.851900  1.0
  H  H398  1  0.534200  0.868100  0.886100  1.0
  H  H399  1  0.965800  0.351900  0.833900  1.0
  H  H400  1  0.982000  0.333900  0.368100  1.0
  H  H401  1  0.640800  0.931100  0.989500  1.0
  H  H402  1  0.941600  0.290300  0.431100  1.0
  H  H403  1  0.558400  0.489500  0.848700  1.0
  H  H404  1  0.859200  0.348700  0.790300  1.0
  H  H405  1  0.359200  0.068900  0.010500  1.0
  H  H406  1  0.058400  0.709700  0.568900  1.0
  H  H407  1  0.441600  0.510500  0.151300  1.0
  H  H408  1  0.140800  0.651300  0.209700  1.0
  H  H409  1  0.922300  0.047600  0.208900  1.0
  H  H410  1  0.838700  0.125300  0.547600  1.0
  H  H411  1  0.661300  0.708900  0.786600  1.0
  H  H412  1  0.577700  0.286600  0.625300  1.0
  H  H413  1  0.077700  0.952400  0.791100  1.0
  H  H414  1  0.161300  0.874700  0.452400  1.0
  H  H415  1  0.338700  0.291100  0.213400  1.0
  H  H416  1  0.422300  0.713400  0.374700  1.0
  H  H417  1  0.929900  0.985800  0.202100  1.0
  H  H418  1  0.783700  0.055900  0.485800  1.0
  H  H419  1  0.716300  0.702100  0.772200  1.0
  H  H420  1  0.570100  0.272200  0.555900  1.0
  H  H421  1  0.070100  0.014200  0.797900  1.0
  H  H422  1  0.216300  0.944100  0.514200  1.0
  H  H423  1  0.283700  0.297900  0.227800  1.0
  H  H424  1  0.429900  0.727800  0.444100  1.0
  H  H425  1  0.921500  0.980800  0.123300  1.0
  H  H426  1  0.857500  0.059300  0.480800  1.0
  H  H427  1  0.642500  0.623300  0.701800  1.0
  H  H428  1  0.578500  0.201800  0.559300  1.0
  H  H429  1  0.078500  0.019200  0.876700  1.0
  H  H430  1  0.142500  0.940700  0.519200  1.0
  H  H431  1  0.357500  0.376700  0.298200  1.0
  H  H432  1  0.421500  0.798200  0.440700  1.0
  H  H433  1  0.914300  0.043000  0.130300  1.0
  H  H434  1  0.912700  0.128700  0.543000  1.0
  H  H435  1  0.587300  0.630300  0.716000  1.0
  H  H436  1  0.585700  0.216000  0.628700  1.0
  H  H437  1  0.085700  0.957000  0.869700  1.0
  H  H438  1  0.087300  0.871300  0.457000  1.0
  H  H439  1  0.412700  0.369700  0.284000  1.0
  H  H440  1  0.414300  0.784000  0.371300  1.0
  H  H441  1  0.841300  0.019000  0.019700  1.0
  H  H442  1  0.999300  0.177700  0.519000  1.0
  H  H443  1  0.500700  0.519700  0.678400  1.0
  H  H444  1  0.658700  0.178400  0.677700  1.0
  H  H445  1  0.158700  0.981000  0.980300  1.0
  H  H446  1  0.000700  0.822300  0.481000  1.0
  H  H447  1  0.499300  0.480300  0.321600  1.0
  H  H448  1  0.341300  0.821600  0.322300  1.0
  H  H449  1  0.813300  0.036300  0.064600  1.0
  H  H450  1  0.971700  0.223000  0.536300  1.0
  H  H451  1  0.528300  0.564600  0.751300  1.0
  H  H452  1  0.686700  0.251300  0.723000  1.0
  H  H453  1  0.186700  0.963700  0.935400  1.0
  H  H454  1  0.028300  0.777000  0.463700  1.0
  H  H455  1  0.471700  0.435400  0.248700  1.0
  H  H456  1  0.313300  0.748700  0.277000  1.0
  H  H457  1  0.758000  0.974700  0.994100  1.0
  H  H458  1  0.980600  0.216700  0.474700  1.0
  H  H459  1  0.519400  0.494100  0.736100  1.0
  H  H460  1  0.742000  0.236100  0.716700  1.0
  H  H461  1  0.242000  0.025300  0.005900  1.0
  H  H462  1  0.019400  0.783300  0.525300  1.0
  H  H463  1  0.480600  0.505900  0.263900  1.0
  H  H464  1  0.258000  0.763900  0.283300  1.0
  H  H465  1  0.851500  0.930300  0.004000  1.0
  H  H466  1  0.926300  0.078800  0.430300  1.0
  H  H467  1  0.573700  0.504000  0.652500  1.0
  H  H468  1  0.648500  0.152500  0.578800  1.0
  H  H469  1  0.148500  0.069700  0.996000  1.0
  H  H470  1  0.073700  0.921200  0.569700  1.0
  H  H471  1  0.426300  0.496000  0.347500  1.0
  H  H472  1  0.351500  0.847500  0.421200  1.0
  H  H473  1  0.769000  0.879100  0.977300  1.0
  H  H474  1  0.901800  0.110100  0.379100  1.0
  H  H475  1  0.598200  0.477300  0.708300  1.0
  H  H476  1  0.731000  0.208300  0.610100  1.0
  H  H477  1  0.231000  0.120900  0.022700  1.0
  H  H478  1  0.098200  0.889900  0.620900  1.0
  H  H479  1  0.401800  0.522700  0.291700  1.0
  H  H480  1  0.269000  0.791700  0.389900  1.0
  H  H481  1  0.831600  0.880200  0.037600  1.0
  H  H482  1  0.842600  0.048600  0.380200  1.0
  H  H483  1  0.657400  0.537600  0.706000  1.0
  H  H484  1  0.668400  0.206000  0.548600  1.0
  H  H485  1  0.168400  0.119800  0.962400  1.0
  H  H486  1  0.157400  0.951400  0.619800  1.0
  H  H487  1  0.342600  0.462400  0.294000  1.0
  H  H488  1  0.331600  0.794000  0.451400  1.0
  H  H489  1  0.886700  0.947400  0.263100  1.0
  H  H490  1  0.684300  0.060700  0.447400  1.0
  H  H491  1  0.815700  0.763100  0.876400  1.0
  H  H492  1  0.613300  0.376400  0.560700  1.0
  H  H493  1  0.113300  0.052600  0.736900  1.0
  H  H494  1  0.315700  0.939300  0.552600  1.0
  H  H495  1  0.184300  0.236900  0.123600  1.0
  H  H496  1  0.386700  0.623600  0.439300  1.0
  H  H497  1  0.851100  0.891100  0.193000  1.0
  H  H498  1  0.698100  0.040000  0.391100  1.0
  H  H499  1  0.801900  0.693000  0.841900  1.0
  H  H500  1  0.648900  0.341900  0.540000  1.0
  H  H501  1  0.148900  0.108900  0.807000  1.0
  H  H502  1  0.301900  0.960000  0.608900  1.0
  H  H503  1  0.198100  0.307000  0.158100  1.0
  H  H504  1  0.351100  0.658100  0.460000  1.0
  H  H505  1  0.801700  0.894800  0.218700  1.0
  H  H506  1  0.676100  0.093100  0.394800  1.0
  H  H507  1  0.823900  0.718700  0.917000  1.0
  H  H508  1  0.698300  0.417000  0.593100  1.0
  H  H509  1  0.198300  0.105200  0.781300  1.0
  H  H510  1  0.323900  0.906900  0.605200  1.0
  H  H511  1  0.176100  0.281300  0.083000  1.0
  H  H512  1  0.301700  0.583000  0.406900  1.0
  H  H513  1  0.874200  0.037500  0.270300  1.0
  H  H514  1  0.767200  0.163300  0.537500  1.0
  H  H515  1  0.732800  0.770300  0.896100  1.0
  H  H516  1  0.625800  0.396100  0.663300  1.0
  H  H517  1  0.125800  0.962500  0.729700  1.0
  H  H518  1  0.232800  0.836700  0.462500  1.0
  H  H519  1  0.267200  0.229700  0.103900  1.0
  H  H520  1  0.374200  0.603900  0.336700  1.0
  H  H521  1  0.788600  0.988600  0.228600  1.0
  H  H522  1  0.760000  0.200000  0.488600  1.0
  H  H523  1  0.740000  0.728600  0.940000  1.0
  H  H524  1  0.711400  0.440000  0.700000  1.0
  H  H525  1  0.211400  0.011400  0.771400  1.0
  H  H526  1  0.240000  0.800000  0.511400  1.0
  H  H527  1  0.260000  0.271400  0.060000  1.0
  H  H528  1  0.288600  0.560000  0.300000  1.0
  H  H529  1  0.825500  0.042800  0.205300  1.0
  H  H530  1  0.837500  0.217300  0.542800  1.0
  H  H531  1  0.662500  0.705300  0.879800  1.0
  H  H532  1  0.674500  0.379800  0.717300  1.0
  H  H533  1  0.174500  0.957200  0.794700  1.0
  H  H534  1  0.162500  0.782700  0.457200  1.0
  H  H535  1  0.337500  0.294700  0.120200  1.0
  H  H536  1  0.325500  0.620200  0.282700  1.0
  H  H537  1  0.149800  0.999900  0.107900  1.0
  H  H538  1  0.892000  0.850100  0.499900  1.0
  H  H539  1  0.608000  0.607900  0.458100  1.0
  H  H540  1  0.350200  0.958100  0.350100  1.0
  H  H541  1  0.850200  0.000100  0.892100  1.0
  H  H542  1  0.108000  0.149900  0.500100  1.0
  H  H543  1  0.392000  0.392100  0.541900  1.0
  H  H544  1  0.649800  0.041900  0.649900  1.0
  H  H545  1  0.144800  0.940900  0.061900  1.0
  H  H546  1  0.879000  0.796100  0.440900  1.0
  H  H547  1  0.621000  0.561900  0.417100  1.0
  H  H548  1  0.355200  0.917100  0.296100  1.0
  H  H549  1  0.855200  0.059100  0.938100  1.0
  H  H550  1  0.121000  0.203900  0.559100  1.0
  H  H551  1  0.379000  0.438100  0.582900  1.0
  H  H552  1  0.644800  0.082900  0.703900  1.0
  H  H553  1  0.220600  0.009600  0.111600  1.0
  H  H554  1  0.898000  0.789000  0.509600  1.0
  H  H555  1  0.602000  0.611600  0.391000  1.0
  H  H556  1  0.279400  0.891000  0.289000  1.0
  H  H557  1  0.779400  0.990400  0.888400  1.0
  H  H558  1  0.102000  0.211000  0.490400  1.0
  H  H559  1  0.398000  0.388400  0.609000  1.0
  H  H560  1  0.720600  0.109000  0.711000  1.0
  H  H561  1  0.270500  0.049200  0.225100  1.0
  H  H562  1  0.824100  0.778700  0.549200  1.0
  H  H563  1  0.675900  0.725100  0.454600  1.0
  H  H564  1  0.229500  0.954600  0.278700  1.0
  H  H565  1  0.729500  0.950800  0.774900  1.0
  H  H566  1  0.175900  0.221300  0.450800  1.0
  H  H567  1  0.324100  0.274900  0.545400  1.0
  H  H568  1  0.770500  0.045400  0.721300  1.0
  H  H569  1  0.201600  0.022600  0.230600  1.0
  H  H570  1  0.792000  0.821000  0.522600  1.0
  H  H571  1  0.708000  0.730600  0.529000  1.0
  H  H572  1  0.298400  0.029000  0.321000  1.0
  H  H573  1  0.798400  0.977400  0.769400  1.0
  H  H574  1  0.208000  0.179000  0.477400  1.0
  H  H575  1  0.292000  0.269400  0.471000  1.0
  H  H576  1  0.701600  0.971000  0.679000  1.0
  H  H577  1  0.091800  0.921400  0.145400  1.0
  H  H578  1  0.776000  0.829600  0.421400  1.0
  H  H579  1  0.724000  0.645400  0.553600  1.0
  H  H580  1  0.408200  0.053600  0.329600  1.0
  H  H581  1  0.908200  0.078600  0.854600  1.0
  H  H582  1  0.224000  0.170400  0.578600  1.0
  H  H583  1  0.276000  0.354600  0.446400  1.0
  H  H584  1  0.591800  0.946400  0.670400  1.0
  H  H585  1  0.128400  0.885400  0.180400  1.0
  H  H586  1  0.705000  0.757000  0.385400  1.0
  H  H587  1  0.795000  0.680400  0.552000  1.0
  H  H588  1  0.371600  0.052000  0.257000  1.0
  H  H589  1  0.871600  0.114600  0.819600  1.0
  H  H590  1  0.295000  0.243000  0.614600  1.0
  H  H591  1  0.205000  0.319600  0.448000  1.0
  H  H592  1  0.628400  0.948000  0.743000  1.0
  H  H593  1  0.092700  0.865100  0.102600  1.0
  H  H594  1  0.762500  0.772400  0.365100  1.0
  H  H595  1  0.737500  0.602600  0.509900  1.0
  H  H596  1  0.407300  0.009900  0.272400  1.0
  H  H597  1  0.907300  0.134900  0.897400  1.0
  H  H598  1  0.237500  0.227600  0.634900  1.0
  H  H599  1  0.262500  0.397400  0.490100  1.0
  H  H600  1  0.592700  0.990100  0.727600  1.0
  N  N601  1  0.186800  0.583800  0.134600  1
  N  N602  1  0.449200  0.397000  0.083800  1
  N  N603  1  0.050800  0.634600  0.447800  1
  N  N604  1  0.313200  0.947800  0.897000  1
  N  N605  1  0.813200  0.416200  0.865400  1
  N  N606  1  0.550800  0.603000  0.916200  1
  N  N607  1  0.949200  0.365400  0.552200  1
  N  N608  1  0.686800  0.052200  0.103000  1
  N  N609  1  0.817200  0.786600  0.096600  1
  N  N610  1  0.690000  0.969400  0.286600  1
  N  N611  1  0.810000  0.596600  0.779400  1
  N  N612  1  0.682800  0.279400  0.469400  1
  N  N613  1  0.182800  0.213400  0.903400  1
  N  N614  1  0.310000  0.030600  0.713400  1
  N  N615  1  0.190000  0.403400  0.220600  1
  N  N616  1  0.317200  0.720600  0.530600  1
  N  N617  1  0.026800  0.201200  0.316600  1
  N  N618  1  0.884600  0.174400  0.701200  1
  N  N619  1  0.615400  0.816600  0.789800  1
  N  N620  1  0.473200  0.289800  0.674400  1
  N  N621  1  0.973200  0.798800  0.683400  1
  N  N622  1  0.115400  0.825600  0.298800  1
  N  N623  1  0.384600  0.183400  0.210200  1
  N  N624  1  0.526800  0.710200  0.325600  1
  N  N625  1  0.031600  0.202700  0.168700  1
  N  N626  1  0.034000  0.171100  0.702700  1
  N  N627  1  0.466000  0.668700  0.637100  1
  N  N628  1  0.468400  0.137100  0.671100  1
  N  N629  1  0.968400  0.797300  0.831300  1
  N  N630  1  0.966000  0.828900  0.297300  1
  N  N631  1  0.534000  0.331300  0.362900  1
  N  N632  1  0.531600  0.862900  0.328900  1
  N  N633  1  0.033500  0.174600  0.350700  1
  N  N634  1  0.823900  0.141100  0.674600  1
  N  N635  1  0.676100  0.850700  0.817200  1
  N  N636  1  0.466500  0.317200  0.641100  1
  N  N637  1  0.966500  0.825400  0.649300  1
  N  N638  1  0.176100  0.858900  0.325400  1
  N  N639  1  0.323900  0.149300  0.182800  1
  N  N640  1  0.533500  0.682800  0.358900  1
  N  N641  1  0.474070  0.809540  0.150070  1.0
  N  N642  1  0.659470  0.335470  0.309540  1.0
  N  N643  1  0.840530  0.650070  0.176000  1.0
  N  N644  1  0.025930  0.676000  0.835470  1.0
  N  N645  1  0.525930  0.190460  0.849930  1.0
  N  N646  1  0.340530  0.664530  0.690460  1.0
  N  N647  1  0.159470  0.349930  0.824000  1.0
  N  N648  1  0.974070  0.324000  0.164530  1.0
  N  N649  1  0.400270  0.721650  0.166420  1.0
  N  N650  1  0.555230  0.321380  0.221650  1.0
  N  N651  1  0.944770  0.666420  0.266150  1.0
  N  N652  1  0.099730  0.766150  0.821380  1.0
  N  N653  1  0.599730  0.278350  0.833580  1.0
  N  N654  1  0.444770  0.678620  0.778350  1.0
  N  N655  1  0.055230  0.333580  0.733850  1.0
  N  N656  1  0.900270  0.233850  0.178620  1.0
  N  N657  1  0.490330  0.720530  0.151400  1.0
  N  N658  1  0.569130  0.230200  0.220530  1.0
  N  N659  1  0.930870  0.651400  0.161070  1.0
  N  N660  1  0.009670  0.661070  0.730200  1.0
  N  N661  1  0.509670  0.279470  0.848600  1.0
  N  N662  1  0.430870  0.769800  0.779470  1.0
  N  N663  1  0.069130  0.348600  0.838930  1.0
  N  N664  1  0.990330  0.338930  0.269800  1.0
  N  N665  1  0.308970  0.872060  0.167430  1.0
  N  N666  1  0.704630  0.563090  0.372060  1.0
  N  N667  1  0.795370  0.667430  0.358460  1.0
  N  N668  1  0.191030  0.858460  0.063090  1.0
  N  N669  1  0.691030  0.127940  0.832570  1.0
  N  N670  1  0.295370  0.436910  0.627940  1.0
  N  N671  1  0.204630  0.332570  0.641540  1.0
  N  N672  1  0.808970  0.141540  0.936910  1.0
  N  N673  1  0.675340  0.871190  0.115050  1.0
  N  N674  1  0.756140  0.195850  0.371190  1.0
  N  N675  1  0.743860  0.615050  0.939710  1.0
  N  N676  1  0.824660  0.439710  0.695850  1.0
  N  N677  1  0.324660  0.128810  0.884950  1.0
  N  N678  1  0.243860  0.804150  0.628810  1.0
  N  N679  1  0.256140  0.384950  0.060290  1.0
  N  N680  1  0.175340  0.560290  0.304150  1.0
  N  N681  1  0.662500  0.861350  0.994810  1.0
  N  N682  1  0.866540  0.198850  0.361350  1.0
  N  N683  1  0.633460  0.494810  0.832310  1.0
  N  N684  1  0.837500  0.332310  0.698850  1.0
  N  N685  1  0.337500  0.138650  0.005190  1.0
  N  N686  1  0.133460  0.801150  0.638650  1.0
  N  N687  1  0.366540  0.505190  0.167690  1.0
  N  N688  1  0.162500  0.667690  0.301150  1.0
  N  N689  1  0.821100  0.957230  0.064530  1.0
  N  N690  1  0.892700  0.136130  0.457230  1.0
  N  N691  1  0.607300  0.564530  0.743430  1.0
  N  N692  1  0.678900  0.243430  0.636130  1.0
  N  N693  1  0.178900  0.042770  0.935470  1.0
  N  N694  1  0.107300  0.863870  0.542770  1.0
  N  N695  1  0.392700  0.435470  0.256570  1.0
  N  N696  1  0.321100  0.756570  0.363870  1.0
  N  N697  1  0.834900  0.964760  0.185460  1.0
  N  N698  1  0.779300  0.129860  0.464760  1.0
  N  N699  1  0.720700  0.685460  0.850560  1.0
  N  N700  1  0.665100  0.350560  0.629860  1.0
  N  N701  1  0.165100  0.035240  0.814540  1.0
  N  N702  1  0.220700  0.870140  0.535240  1.0
  N  N703  1  0.279300  0.314540  0.149440  1.0
  N  N704  1  0.334900  0.649440  0.370140  1.0
  N  N705  1  0.189200  0.952500  0.158100  1.0
  N  N706  1  0.794400  0.763300  0.452500  1.0
  N  N707  1  0.705600  0.658100  0.468900  1.0
  N  N708  1  0.310800  0.968900  0.263300  1.0
  N  N709  1  0.810800  0.047500  0.841900  1.0
  N  N710  1  0.205600  0.236700  0.547500  1.0
  N  N711  1  0.294400  0.341900  0.531100  1.0
  N  N712  1  0.689200  0.031100  0.736700  1.0
  O  O713  1  0.132100  0.572100  0.086000  1
  O  O714  1  0.486100  0.440000  0.072100  1
  O  O715  1  0.013900  0.586000  0.453900  1
  O  O716  1  0.367900  0.953900  0.940000  1
  O  O717  1  0.867900  0.427900  0.914000  1
  O  O718  1  0.513900  0.560000  0.927900  1
  O  O719  1  0.986100  0.414000  0.546100  1
  O  O720  1  0.632100  0.046100  0.060000  1
  O  O721  1  0.190700  0.532400  0.131100  1
  O  O722  1  0.401300  0.341700  0.032400  1
  O  O723  1  0.098700  0.631100  0.440400  1
  O  O724  1  0.309300  0.940400  0.841700  1
  O  O725  1  0.809300  0.467600  0.868900  1
  O  O726  1  0.598700  0.658300  0.967600  1
  O  O727  1  0.901300  0.368900  0.559600  1
  O  O728  1  0.690700  0.059600  0.158300  1
  O  O729  1  0.228800  0.631000  0.183600  1
  O  O730  1  0.447400  0.402200  0.131000  1
  O  O731  1  0.052600  0.683600  0.454800  1
  O  O732  1  0.271200  0.954800  0.902200  1
  O  O733  1  0.771200  0.369000  0.816400  1
  O  O734  1  0.552600  0.597800  0.869000  1
  O  O735  1  0.947400  0.316400  0.545200  1
  O  O736  1  0.728800  0.045200  0.097800  1
  O  O737  1  0.840200  0.790500  0.058300  1
  O  O738  1  0.732200  0.950300  0.290500  1
  O  O739  1  0.767800  0.558300  0.718100  1
  O  O740  1  0.659800  0.218100  0.450300  1
  O  O741  1  0.159800  0.209500  0.941700  1
  O  O742  1  0.267800  0.049700  0.709500  1
  O  O743  1  0.232200  0.441700  0.281900  1
  O  O744  1  0.340200  0.781900  0.549700  1
  O  O745  1  0.758100  0.781100  0.077200  1
  O  O746  1  0.703900  0.023000  0.281100  1
  O  O747  1  0.796100  0.577200  0.819100  1
  O  O748  1  0.741900  0.319100  0.523000  1
  O  O749  1  0.241900  0.218900  0.922800  1
  O  O750  1  0.296100  0.977000  0.718900  1
  O  O751  1  0.203900  0.422800  0.180900  1
  O  O752  1  0.258100  0.680900  0.477000  1
  O  O753  1  0.852000  0.788200  0.149800  1
  O  O754  1  0.638400  0.936200  0.288200  1
  O  O755  1  0.861600  0.649800  0.797800  1
  O  O756  1  0.648000  0.297800  0.436200  1
  O  O757  1  0.148000  0.211800  0.850200  1
  O  O758  1  0.361600  0.063800  0.711800  1
  O  O759  1  0.138400  0.350200  0.202200  1
  O  O760  1  0.352000  0.702200  0.563800  1
  O  O761  1  0.063800  0.262800  0.333800  1
  O  O762  1  0.929000  0.199000  0.762800  1
  O  O763  1  0.571000  0.833800  0.770000  1
  O  O764  1  0.436200  0.270000  0.699000  1
  O  O765  1  0.936200  0.737200  0.666200  1
  O  O766  1  0.071000  0.801000  0.237200  1
  O  O767  1  0.429000  0.166200  0.230000  1
  O  O768  1  0.563800  0.730000  0.301000  1
  O  O769  1  0.016000  0.183800  0.359600  1
  O  O770  1  0.824200  0.167800  0.683800  1
  O  O771  1  0.675800  0.859600  0.843600  1
  O  O772  1  0.484000  0.343600  0.667800  1
  O  O773  1  0.984000  0.816200  0.640400  1
  O  O774  1  0.175800  0.832200  0.316200  1
  O  O775  1  0.324200  0.140400  0.156400  1
  O  O776  1  0.516000  0.656400  0.332200  1
  O  O777  1  0.996900  0.158700  0.263200  1
  O  O778  1  0.895500  0.161800  0.658700  1
  O  O779  1  0.604500  0.763200  0.766300  1
  O  O780  1  0.503100  0.266300  0.661800  1
  O  O781  1  0.003100  0.841300  0.736800  1
  O  O782  1  0.104500  0.838200  0.341300  1
  O  O783  1  0.395500  0.236800  0.233700  1
  O  O784  1  0.496900  0.733700  0.338200  1
  O  O785  1  0.039400  0.127600  0.329800  1
  O  O786  1  0.797800  0.088200  0.627600  1
  O  O787  1  0.702200  0.829800  0.790400  1
  O  O788  1  0.460600  0.290400  0.588200  1
  O  O789  1  0.960600  0.872400  0.670200  1
  O  O790  1  0.202200  0.911800  0.372400  1
  O  O791  1  0.297800  0.170200  0.209600  1
  O  O792  1  0.539400  0.709600  0.411800  1
  O  O793  1  0.060100  0.244600  0.224700  1
  O  O794  1  0.019900  0.184500  0.744600  1
  O  O795  1  0.480100  0.724700  0.664600  1
  O  O796  1  0.439900  0.164600  0.684500  1
  O  O797  1  0.939900  0.755400  0.775300  1
  O  O798  1  0.980100  0.815500  0.255400  1
  O  O799  1  0.519900  0.275300  0.335400  1
  O  O800  1  0.560100  0.835400  0.315500  1
  O  O801  1  0.044100  0.225700  0.128000  1
  O  O802  1  0.097700  0.181600  0.725700  1
  O  O803  1  0.402300  0.628000  0.583900  1
  O  O804  1  0.455900  0.083900  0.681600  1
  O  O805  1  0.955900  0.774300  0.872000  1
  O  O806  1  0.902300  0.818400  0.274300  1
  O  O807  1  0.597700  0.372000  0.416100  1
  O  O808  1  0.544100  0.916100  0.318400  1
  O  O809  1  0.985700  0.144000  0.141500  1
  O  O810  1  0.002500  0.158300  0.644000  1
  O  O811  1  0.497500  0.641500  0.655800  1
  O  O812  1  0.514300  0.155800  0.658300  1
  O  O813  1  0.014300  0.856000  0.858500  1
  O  O814  1  0.997500  0.841700  0.356000  1
  O  O815  1  0.502500  0.358500  0.344200  1
  O  O816  1  0.485700  0.844200  0.341700  1
  O  O817  1  0.173000  0.430000  0.421000  1
  O  O818  1  0.009000  0.257000  0.930000  1
  O  O819  1  0.491000  0.921000  0.748000  1
  O  O820  1  0.327000  0.248000  0.757000  1
  O  O821  1  0.827000  0.570000  0.579000  1
  O  O822  1  0.991000  0.743000  0.070000  1
  O  O823  1  0.509000  0.079000  0.252000  1
  O  O824  1  0.673000  0.752000  0.243000  1
  O  O825  1  0.162500  0.995000  0.325700  1
  O  O826  1  0.669300  0.832500  0.495000  1
  O  O827  1  0.830700  0.825700  0.663200  1
  O  O828  1  0.337500  0.163200  0.332500  1
  O  O829  1  0.837500  0.005000  0.674300  1
  O  O830  1  0.330700  0.167500  0.505000  1
  O  O831  1  0.169300  0.174300  0.336800  1
  O  O832  1  0.662500  0.836800  0.667500  1
  O  O833  1  0.033100  0.967800  0.204900  1
  O  O834  1  0.762900  0.934700  0.467800  1
  O  O835  1  0.737100  0.704900  0.671800  1
  O  O836  1  0.466900  0.171800  0.434700  1
  O  O837  1  0.966900  0.032200  0.795100  1
  O  O838  1  0.237100  0.065300  0.532200  1
  O  O839  1  0.262900  0.295100  0.328200  1
  O  O840  1  0.533100  0.828200  0.565300  1
  O  O841  1  0.045200  0.953600  0.311000  1
  O  O842  1  0.642600  0.908400  0.453600  1
  O  O843  1  0.857400  0.811000  0.765800  1
  O  O844  1  0.454800  0.265800  0.408400  1
  O  O845  1  0.954800  0.046400  0.689000  1
  O  O846  1  0.357400  0.091600  0.546400  1
  O  O847  1  0.142600  0.189000  0.234200  1
  O  O848  1  0.545200  0.734200  0.591600  1
  O  O849  1  0.644400  0.647300  0.094300  1
  O  O850  1  0.553000  0.002900  0.147300  1
  O  O851  1  0.947000  0.594300  0.949900  1
  O  O852  1  0.855600  0.449900  0.502900  1
  O  O853  1  0.355600  0.352700  0.905700  1
  O  O854  1  0.447000  0.997100  0.852700  1
  O  O855  1  0.053000  0.405700  0.050100  1
  O  O856  1  0.144400  0.550100  0.497100  1
  O  O857  1  0.612300  0.019000  0.950500  1
  O  O858  1  0.068500  0.406700  0.519000  1
  O  O859  1  0.431500  0.450500  0.838200  1
  O  O860  1  0.887700  0.338200  0.906700  1
  O  O861  1  0.387700  0.981000  0.049500  1
  O  O862  1  0.931500  0.593300  0.481000  1
  O  O863  1  0.568500  0.549500  0.161800  1
  O  O864  1  0.112300  0.661800  0.093300  1
  O  O865  1  0.175400  0.125200  0.117200  1
  O  O866  1  0.008000  0.949800  0.625200  1
  O  O867  1  0.492000  0.617200  0.441800  1
  O  O868  1  0.324600  0.941800  0.449800  1
  O  O869  1  0.824600  0.874800  0.882800  1
  O  O870  1  0.992000  0.050200  0.374800  1
  O  O871  1  0.508000  0.382800  0.558200  1
  O  O872  1  0.675400  0.058200  0.550200  1
  O  O873  1  0.978000  0.804000  0.148000  1
  O  O874  1  0.656000  0.826000  0.304000  1
  O  O875  1  0.844000  0.648000  0.670000  1
  O  O876  1  0.522000  0.170000  0.326000  1
  O  O877  1  0.022000  0.196000  0.852000  1
  O  O878  1  0.344000  0.174000  0.696000  1
  O  O879  1  0.156000  0.352000  0.330000  1
  O  O880  1  0.478000  0.830000  0.674000  1
  O  O881  1  0.905300  0.791300  0.031400  1
  O  O882  1  0.759900  0.886000  0.291300  1
  O  O883  1  0.740100  0.531400  0.626100  1
  O  O884  1  0.594700  0.126100  0.386000  1
  O  O885  1  0.094700  0.208700  0.968600  1
  O  O886  1  0.240100  0.114000  0.708700  1
  O  O887  1  0.259900  0.468600  0.373900  1
  O  O888  1  0.405300  0.873900  0.614000  1
  O  O889  1  0.973200  0.769500  0.003900  1
  O  O890  1  0.765600  0.796300  0.269500  1
  O  O891  1  0.734400  0.503900  0.530700  1
  O  O892  1  0.526800  0.030700  0.296300  1
  O  O893  1  0.026800  0.230500  0.996100  1
  O  O894  1  0.234400  0.203700  0.730500  1
  O  O895  1  0.265600  0.496100  0.469300  1
  O  O896  1  0.473200  0.969300  0.703700  1
  O  O897  1  0.142000  0.774600  0.168400  1
  O  O898  1  0.606200  0.632600  0.274600  1
  O  O899  1  0.893800  0.668400  0.526400  1
  O  O900  1  0.358000  0.026400  0.132600  1
  O  O901  1  0.858000  0.225400  0.831600  1
  O  O902  1  0.393800  0.367400  0.725400  1
  O  O903  1  0.106200  0.331600  0.473600  1
  O  O904  1  0.642000  0.973600  0.867400  1
  O  O905  1  0.250000  0.125000  0.375000  1
  O  O906  1  0.750000  0.875000  0.625000  1
  O  O907  1  0.031000  0.870600  0.949400  1
  O  O908  1  0.921200  0.839600  0.370600  1
  O  O909  1  0.578800  0.449400  0.418400  1
  O  O910  1  0.469000  0.918400  0.339600  1
  O  O911  1  0.969000  0.129400  0.050600  1
  O  O912  1  0.078800  0.160400  0.629400  1
  O  O913  1  0.421200  0.550600  0.581600  1
  O  O914  1  0.531000  0.081600  0.660400  1
  O  O915  1  0.026100  0.996800  0.102700  1
  O  O916  1  0.894100  0.970700  0.496800  1
  O  O917  1  0.605900  0.602700  0.576600  1
  O  O918  1  0.473900  0.076600  0.470700  1
  O  O919  1  0.973900  0.003200  0.897300  1
  O  O920  1  0.105900  0.029300  0.503200  1
  O  O921  1  0.394100  0.397300  0.423400  1
  O  O922  1  0.526100  0.923400  0.529300  1
  O  O923  1  0.501500  0.595500  0.038600  1
  O  O924  1  0.556900  0.094000  0.095500  1
  O  O925  1  0.943100  0.538600  0.037100  1
  O  O926  1  0.998500  0.537100  0.594000  1
  O  O927  1  0.498500  0.404500  0.961400  1
  O  O928  1  0.443100  0.906000  0.904500  1
  O  O929  1  0.056900  0.461400  0.962900  1
  O  O930  1  0.001500  0.462900  0.406000  1
  O  O931  1  0.642400  0.559400  0.104400  1
  O  O932  1  0.455000  0.917000  0.059400  1
  O  O933  1  0.045000  0.604400  0.962000  1
  O  O934  1  0.857600  0.462000  0.417000  1
  O  O935  1  0.357600  0.440600  0.895600  1
  O  O936  1  0.545000  0.083000  0.940600  1
  O  O937  1  0.955000  0.395600  0.038000  1
  O  O938  1  0.142400  0.538000  0.583000  1
  O  O939  1  0.005700  0.512500  0.088400  1
  O  O940  1  0.424100  0.506800  0.012500  1
  O  O941  1  0.075900  0.588400  0.582700  1
  O  O942  1  0.494300  0.082700  0.006800  1
  O  O943  1  0.994300  0.487500  0.911600  1
  O  O944  1  0.575900  0.493200  0.987500  1
  O  O945  1  0.924100  0.411600  0.417300  1
  O  O946  1  0.505700  0.917300  0.993200  1
  O  O947  1  0.989000  0.159800  0.368400  1
  O  O948  1  0.791400  0.170800  0.659800  1
  O  O949  1  0.708600  0.868400  0.879400  1
  O  O950  1  0.511000  0.379400  0.670800  1
  O  O951  1  0.011000  0.840200  0.631600  1
  O  O952  1  0.208600  0.829200  0.340200  1
  O  O953  1  0.291400  0.131600  0.120600  1
  O  O954  1  0.489000  0.620600  0.329200  1
  O  O955  1  0.064500  0.230800  0.355900  1
  O  O956  1  0.874900  0.166300  0.730800  1
  O  O957  1  0.625100  0.855900  0.791400  1
  O  O958  1  0.435500  0.291400  0.666300  1
  O  O959  1  0.935500  0.769200  0.644100  1
  O  O960  1  0.125100  0.833700  0.269200  1
  O  O961  1  0.374900  0.144100  0.208600  1
  O  O962  1  0.564500  0.708600  0.333700  1
  O  O963  1  0.154000  0.148000  0.214000  1
  O  O964  1  0.934000  0.994000  0.648000  1
  O  O965  1  0.566000  0.714000  0.560000  1
  O  O966  1  0.346000  0.060000  0.494000  1
  O  O967  1  0.846000  0.852000  0.786000  1
  O  O968  1  0.066000  0.006000  0.352000  1
  O  O969  1  0.434000  0.286000  0.440000  1
  O  O970  1  0.654000  0.940000  0.506000  1
  O  O971  1  0.031200  0.077300  0.351300  1
  O  O972  1  0.726000  0.046100  0.577300  1
  O  O973  1  0.774000  0.851300  0.820100  1
  O  O974  1  0.468800  0.320100  0.546100  1
  O  O975  1  0.968800  0.922700  0.648700  1
  O  O976  1  0.274000  0.953900  0.422700  1
  O  O977  1  0.226000  0.148700  0.179900  1
  O  O978  1  0.531200  0.679900  0.453900  1
  O  O979  1  0.162300  0.790400  0.194300  1
  O  O980  1  0.596100  0.628100  0.290400  1
  O  O981  1  0.903900  0.694300  0.532000  1
  O  O982  1  0.337700  0.032000  0.128100  1
  O  O983  1  0.837700  0.209600  0.805700  1
  O  O984  1  0.403900  0.371900  0.709600  1
  O  O985  1  0.096100  0.305700  0.468000  1
  O  O986  1  0.662300  0.968000  0.871900  1
  O  O987  1  0.162000  0.806000  0.254000  1
  O  O988  1  0.552000  0.644000  0.306000  1
  O  O989  1  0.948000  0.754000  0.592000  1
  O  O990  1  0.338000  0.092000  0.144000  1
  O  O991  1  0.838000  0.194000  0.746000  1
  O  O992  1  0.448000  0.356000  0.694000  1
  O  O993  1  0.052000  0.246000  0.408000  1
  O  O994  1  0.662000  0.908000  0.856000  1
  O  O995  1  0.069900  0.268100  0.254800  1
  O  O996  1  0.013300  0.198200  0.768100  1
  O  O997  1  0.486700  0.754800  0.684900  1
  O  O998  1  0.430100  0.184900  0.698200  1
  O  O999  1  0.930100  0.731900  0.745200  1
  O  O1000  1  0.986700  0.801800  0.231900  1
  O  O1001  1  0.513300  0.245200  0.315100  1
  O  O1002  1  0.569900  0.815100  0.301800  1
  O  O1003  1  0.994900  0.165700  0.094200  1
  O  O1004  1  0.071500  0.170800  0.665700  1
  O  O1005  1  0.428500  0.594200  0.599300  1
  O  O1006  1  0.505100  0.099300  0.670800  1
  O  O1007  1  0.005100  0.834300  0.905800  1
  O  O1008  1  0.928500  0.829200  0.334300  1
  O  O1009  1  0.571500  0.405800  0.400700  1
  O  O1010  1  0.494900  0.900700  0.329200  1
  O  O1011  1  0.190900  0.356300  0.269000  1
  O  O1012  1  0.087300  0.165400  0.856300  1
  O  O1013  1  0.412700  0.769000  0.578100  1
  O  O1014  1  0.309100  0.078100  0.665400  1
  O  O1015  1  0.809100  0.643700  0.731000  1
  O  O1016  1  0.912700  0.834600  0.143700  1
  O  O1017  1  0.587300  0.231000  0.421900  1
  O  O1018  1  0.690900  0.921900  0.334600  1
  O  O1019  1  0.948600  0.889100  0.990100  1
  O  O1020  1  0.899000  0.940500  0.389100  1
  O  O1021  1  0.601000  0.490100  0.541500  1
  O  O1022  1  0.551400  0.041500  0.440500  1
  O  O1023  1  0.051400  0.110900  0.009900  1
  O  O1024  1  0.101000  0.059500  0.610900  1
  O  O1025  1  0.399000  0.509900  0.458500  1
  O  O1026  1  0.448600  0.958500  0.559500  1
  O  O1027  1  0.051000  0.977000  0.274000  1
  O  O1028  1  0.703000  0.926000  0.477000  1
  O  O1029  1  0.797000  0.774000  0.723000  1
  O  O1030  1  0.449000  0.223000  0.426000  1
  O  O1031  1  0.949000  0.023000  0.726000  1
  O  O1032  1  0.297000  0.074000  0.523000  1
  O  O1033  1  0.203000  0.226000  0.277000  1
  O  O1034  1  0.551000  0.777000  0.574000  1
  O  O1035  1  0.123000  0.120000  0.307000  1
  O  O1036  1  0.813000  0.997000  0.620000  1
  O  O1037  1  0.687000  0.807000  0.684000  1
  O  O1038  1  0.377000  0.184000  0.497000  1
  O  O1039  1  0.877000  0.880000  0.693000  1
  O  O1040  1  0.187000  0.003000  0.380000  1
  O  O1041  1  0.313000  0.193000  0.316000  1
  O  O1042  1  0.623000  0.816000  0.503000  1
  O  O1043  1  0.096000  0.939000  0.349000  1
  O  O1044  1  0.590000  0.843000  0.439000  1
  O  O1045  1  0.910000  0.849000  0.753000  1
  O  O1046  1  0.404000  0.253000  0.343000  1
  O  O1047  1  0.904000  0.061000  0.651000  1
  O  O1048  1  0.410000  0.157000  0.561000  1
  O  O1049  1  0.090000  0.151000  0.247000  1
  O  O1050  1  0.596000  0.747000  0.657000  1
  O  O1051  1  0.021000  0.975000  0.478000  1
  O  O1052  1  0.497000  0.954000  0.475000  1
  O  O1053  1  0.003000  0.978000  0.957000  1
  O  O1054  1  0.479000  0.457000  0.454000  1
  O  O1055  1  0.979000  0.025000  0.522000  1
  O  O1056  1  0.503000  0.046000  0.525000  1
  O  O1057  1  0.997000  0.022000  0.043000  1
  O  O1058  1  0.521000  0.543000  0.546000  1
  O  O1059  1  0.076000  0.028000  0.212000  1
  O  O1060  1  0.816000  0.952000  0.528000  1
  O  O1061  1  0.684000  0.712000  0.636000  1
  O  O1062  1  0.424000  0.136000  0.452000  1
  O  O1063  1  0.924000  0.972000  0.788000  1
  O  O1064  1  0.184000  0.048000  0.472000  1
  O  O1065  1  0.316000  0.288000  0.364000  1
  O  O1066  1  0.576000  0.864000  0.548000  1
  O  O1067  1  0.180000  0.638300  0.130300  1
  O  O1068  1  0.508000  0.458300  0.138300  1
  O  O1069  1  0.992000  0.630300  0.450300  1
  O  O1070  1  0.320000  0.950300  0.958300  1
  O  O1071  1  0.820000  0.361700  0.869700  1
  O  O1072  1  0.492000  0.541700  0.861700  1
  O  O1073  1  0.008000  0.369700  0.549700  1
  O  O1074  1  0.680000  0.049700  0.041700  1
  O  O1075  1  0.075000  0.073100  0.062100  1
  O  O1076  1  0.011000  0.998100  0.573100  1
  O  O1077  1  0.489000  0.562100  0.487100  1
  O  O1078  1  0.425000  0.987100  0.498100  1
  O  O1079  1  0.925000  0.926900  0.937900  1
  O  O1080  1  0.989000  0.001900  0.426900  1
  O  O1081  1  0.511000  0.437900  0.512900  1
  O  O1082  1  0.575000  0.012900  0.501900  1
  O  O1083  1  0.016000  0.027100  0.380300  1
  O  O1084  1  0.646800  0.011100  0.527100  1
  O  O1085  1  0.853200  0.880300  0.864300  1
  O  O1086  1  0.484000  0.364300  0.511100  1
  O  O1087  1  0.984000  0.972900  0.619700  1
  O  O1088  1  0.353200  0.988900  0.472900  1
  O  O1089  1  0.146800  0.119700  0.135700  1
  O  O1090  1  0.516000  0.635700  0.488900  1
  O  O1091  1  0.974400  0.803500  0.120100  1
  O  O1092  1  0.683400  0.829100  0.303500  1
  O  O1093  1  0.816600  0.620100  0.645700  1
  O  O1094  1  0.525600  0.145700  0.329100  1
  O  O1095  1  0.025600  0.196500  0.879900  1
  O  O1096  1  0.316600  0.170900  0.696500  1
  O  O1097  1  0.183400  0.379900  0.354300  1
  O  O1098  1  0.474400  0.854300  0.670900  1
  O  O1099  1  0.205100  0.378500  0.299600  1
  O  O1100  1  0.078900  0.173400  0.878500  1
  O  O1101  1  0.421100  0.799600  0.594500  1
  O  O1102  1  0.294900  0.094500  0.673400  1
  O  O1103  1  0.794900  0.621500  0.700400  1
  O  O1104  1  0.921100  0.826600  0.121500  1
  O  O1105  1  0.578900  0.200400  0.405500  1
  O  O1106  1  0.705100  0.905500  0.326600  1
  O  O1107  1  0.087000  0.775000  0.186000  1
  O  O1108  1  0.589000  0.688000  0.275000  1
  O  O1109  1  0.911000  0.686000  0.599000  1
  O  O1110  1  0.413000  0.099000  0.188000  1
  O  O1111  1  0.913000  0.225000  0.814000  1
  O  O1112  1  0.411000  0.312000  0.725000  1
  O  O1113  1  0.089000  0.314000  0.401000  1
  O  O1114  1  0.587000  0.901000  0.812000  1
  O  O1115  1  0.026000  0.067100  0.997100  1
  O  O1116  1  0.070000  0.041100  0.567100  1
  O  O1117  1  0.430000  0.497100  0.471100  1
  O  O1118  1  0.474000  0.971100  0.541100  1
  O  O1119  1  0.974000  0.932900  0.002900  1
  O  O1120  1  0.930000  0.958900  0.432900  1
  O  O1121  1  0.570000  0.502900  0.528900  1
  O  O1122  1  0.526000  0.028900  0.458900  1
  O  O1123  1  0.964000  0.902000  0.064000  1
  O  O1124  1  0.838000  0.938000  0.402000  1
  O  O1125  1  0.662000  0.564000  0.600000  1
  O  O1126  1  0.536000  0.100000  0.438000  1
  O  O1127  1  0.036000  0.098000  0.936000  1
  O  O1128  1  0.162000  0.062000  0.598000  1
  O  O1129  1  0.338000  0.436000  0.400000  1
  O  O1130  1  0.464000  0.900000  0.562000  1
  O  O1131  1  0.067000  0.025000  0.156000  1
  O  O1132  1  0.869000  0.958000  0.525000  1
  O  O1133  1  0.631000  0.656000  0.589000  1
  O  O1134  1  0.433000  0.089000  0.458000  1
  O  O1135  1  0.933000  0.975000  0.844000  1
  O  O1136  1  0.131000  0.042000  0.475000  1
  O  O1137  1  0.369000  0.344000  0.411000  1
  O  O1138  1  0.567000  0.911000  0.542000  1
  O  O1139  1  0.964500  0.733400  0.997100  1
  O  O1140  1  0.736300  0.768900  0.233400  1
  O  O1141  1  0.763700  0.497100  0.532600  1
  O  O1142  1  0.535500  0.032600  0.268900  1
  O  O1143  1  0.035500  0.266600  0.002900  1
  O  O1144  1  0.263700  0.231100  0.766600  1
  O  O1145  1  0.236300  0.502900  0.467400  1
  O  O1146  1  0.464500  0.967400  0.731100  1
  O  O1147  1  0.074400  0.081500  0.181900  1
  O  O1148  1  0.899600  0.007100  0.581500  1
  O  O1149  1  0.600400  0.681900  0.607500  1
  O  O1150  1  0.425600  0.107500  0.507100  1
  O  O1151  1  0.925600  0.918500  0.818100  1
  O  O1152  1  0.100400  0.992900  0.418500  1
  O  O1153  1  0.399600  0.318100  0.392500  1
  O  O1154  1  0.574400  0.892500  0.492900  1
  O  O1155  1  0.998600  0.944000  0.129200  1
  O  O1156  1  0.814800  0.945400  0.444000  1
  O  O1157  1  0.685200  0.629200  0.630600  1
  O  O1158  1  0.501400  0.130600  0.445400  1
  O  O1159  1  0.001400  0.056000  0.870800  1
  O  O1160  1  0.185200  0.054600  0.556000  1
  O  O1161  1  0.314800  0.370800  0.369400  1
  O  O1162  1  0.498600  0.869400  0.554600  1
  O  O1163  1  0.570800  0.573900  0.149500  1
  O  O1164  1  0.424400  0.003100  0.073900  1
  O  O1165  1  0.075600  0.649500  0.078700  1
  O  O1166  1  0.929200  0.578700  0.503100  1
  O  O1167  1  0.429200  0.426100  0.850500  1
  O  O1168  1  0.575600  0.996900  0.926100  1
  O  O1169  1  0.924400  0.350500  0.921300  1
  O  O1170  1  0.070800  0.421300  0.496900  1
  O  O1171  1  0.016900  0.844300  0.963400  1
  O  O1172  1  0.880900  0.827400  0.344300  1
  O  O1173  1  0.619100  0.463400  0.446500  1
  O  O1174  1  0.483100  0.946500  0.327400  1
  O  O1175  1  0.983100  0.155700  0.036600  1
  O  O1176  1  0.119100  0.172600  0.655700  1
  O  O1177  1  0.380900  0.536600  0.553500  1
  O  O1178  1  0.516900  0.053500  0.672600  1
  O  O1179  1  0.468700  0.883300  0.018400  1
  O  O1180  1  0.864900  0.414600  0.383300  1
  O  O1181  1  0.635100  0.518400  0.049700  1
  O  O1182  1  0.031300  0.549700  0.914600  1
  O  O1183  1  0.531300  0.116700  0.981600  1
  O  O1184  1  0.135100  0.585400  0.616700  1
  O  O1185  1  0.364900  0.481600  0.950300  1
  O  O1186  1  0.968700  0.450300  0.085400  1
  O  O1187  1  0.770900  0.755500  0.139200  1
  O  O1188  1  0.616300  0.984600  0.255500  1
  O  O1189  1  0.883700  0.639200  0.868300  1
  O  O1190  1  0.729100  0.368300  0.484600  1
  O  O1191  1  0.229100  0.244500  0.860800  1
  O  O1192  1  0.383700  0.015400  0.744500  1
  O  O1193  1  0.116300  0.360800  0.131700  1
  O  O1194  1  0.270900  0.631700  0.515400  1
  O  O1195  1  0.936700  0.698000  0.936500  1
  O  O1196  1  0.761500  0.761300  0.198000  1
  O  O1197  1  0.738500  0.436500  0.499800  1
  O  O1198  1  0.563300  0.999800  0.261300  1
  O  O1199  1  0.063300  0.302000  0.063500  1
  O  O1200  1  0.238500  0.238700  0.802000  1
  O  O1201  1  0.261500  0.563500  0.500200  1
  O  O1202  1  0.436700  0.000200  0.738700  1
  O  O1203  1  0.772700  0.791100  0.065400  1
  O  O1204  1  0.725700  0.018400  0.291100  1
  O  O1205  1  0.774300  0.565400  0.792700  1
  O  O1206  1  0.727300  0.292700  0.518400  1
  O  O1207  1  0.227300  0.208900  0.934600  1
  O  O1208  1  0.274300  0.981600  0.708900  1
  O  O1209  1  0.225700  0.434600  0.207300  1
  O  O1210  1  0.272700  0.707300  0.481600  1
  O  O1211  1  0.705600  0.707300  0.134900  1
  O  O1212  1  0.572400  0.001700  0.207300  1
  O  O1213  1  0.927600  0.634900  0.929300  1
  O  O1214  1  0.794400  0.429300  0.501700  1
  O  O1215  1  0.294400  0.292700  0.865100  1
  O  O1216  1  0.427600  0.998300  0.792700  1
  O  O1217  1  0.072400  0.365100  0.070700  1
  O  O1218  1  0.205600  0.570700  0.498300  1
  O  O1219  1  0.122200  0.443600  0.462600  1
  O  O1220  1  0.981000  0.321400  0.943600  1
  O  O1221  1  0.519000  0.962600  0.840400  1
  O  O1222  1  0.377800  0.340400  0.821400  1
  O  O1223  1  0.877800  0.556400  0.537400  1
  O  O1224  1  0.019000  0.678600  0.056400  1
  O  O1225  1  0.481000  0.037400  0.159600  1
  O  O1226  1  0.622200  0.659600  0.178600  1
  O  O1227  1  0.826100  0.320600  0.035900  1.0
  O  O1228  1  0.284700  0.494500  0.820600  1.0
  O  O1229  1  0.215300  0.535900  0.709800  1.0
  O  O1230  1  0.673900  0.209800  0.994500  1.0
  O  O1231  1  0.173900  0.679400  0.964100  1.0
  O  O1232  1  0.715300  0.505500  0.179400  1.0
  O  O1233  1  0.784700  0.464100  0.290200  1.0
  O  O1234  1  0.326100  0.790200  0.005500  1.0
  Pd  Pd1235  1  0.250000  0.912680  0.162680  1.0
  Pd  Pd1236  1  0.750000  0.662680  0.412680  1.0
  Pd  Pd1237  1  0.750000  0.087320  0.837320  1.0
  Pd  Pd1238  1  0.250000  0.337320  0.587320  1.0
  Pd  Pd1239  1  0.747919  0.912736  0.089531  1.0
  Pd  Pd1240  1  0.823205  0.164817  0.412736  1.0
  Pd  Pd1241  1  0.676795  0.589531  0.841612  1.0
  Pd  Pd1242  1  0.752081  0.341612  0.664817  1.0
  Pd  Pd1243  1  0.252081  0.087264  0.910469  1.0
  Pd  Pd1244  1  0.176795  0.835183  0.587264  1.0
  Pd  Pd1245  1  0.323205  0.410469  0.158388  1.0
  Pd  Pd1246  1  0.247919  0.658388  0.335183  1.0
