
#######################################################################
#
#                 Cambridge Crystallographic Data Centre
#                                CCDC 
#
#######################################################################
#
# If this CIF has been generated from an entry in the Cambridge 
# Structural Database, then it will include bibliographic, chemical, 
# crystal, experimental, refinement or atomic coordinate data resulting 
# from the CCDC's data processing and validation procedures.
#
#######################################################################

data_YIJBUP
_chemical_formula_moiety         
'C94 H88 N8 O4 P4 Pd2 4+,4(C1 F3 O3 S1 1-),0.75(C3 H8 O1),2(H2 O1)'
_chemical_name_systematic        
'bis((\m~2~-1,3-bis(N-(4-Pyridylmethyl)carbamoyl)benzene)-(1,3-bis(diphenylphosphino)propane)-palladium(ii)) tetrakis(trifluoromethanesulfonate) isopropanol solvate dihydrate'
_symmetry_cell_setting           triclinic
_symmetry_space_group_name_H-M   'P -1'
_symmetry_Int_Tables_number      2
_space_group_name_Hall           '-P 1'
loop_
_symmetry_equiv_pos_site_id
_symmetry_equiv_pos_as_xyz
1 x,y,z
2 -x,-y,-z
_cell_length_a                   15.8443(7)
_cell_length_b                   18.8383(9)
_cell_length_c                   20.6983(8)
_cell_angle_alpha                95.680(2)
_cell_angle_beta                 94.482(2)
_cell_angle_gamma                104.570(2)
_cell_volume                     5915.83
_exptl_crystal_colour            yellow
_exptl_crystal_description       block
_cell_formula_units_Z            2
_chemical_properties_physical    'air- and moisture-sensitive'
loop_
_atom_site_label
_atom_site_type_symbol
_atom_site_fract_x
_atom_site_fract_y
_atom_site_fract_z
Pd1 Pd 0.12997(4) 0.19899(3) 0.16932(3)
P1 P -0.00923(13) 0.20395(11) 0.13889(10)
N1 N 0.2588(4) 0.1970(3) 0.1987(3)
O1 O 0.5948(4) 0.3388(3) 0.3170(3)
C1 C -0.0708(5) 0.1295(4) 0.0786(4)
H1 H -0.0757 0.0822 0.0968
H2 H -0.1309 0.1353 0.0698
Pd2 Pd 0.39464(4) 0.77512(3) 0.27529(3)
P2 P 0.14661(12) 0.17347(10) 0.06256(10)
N2 N 0.5905(4) 0.2564(3) 0.2300(3)
H3 H 0.6091 0.2481 0.1917
C2 C -0.0306(5) 0.1253(4) 0.0138(4)
H4 H -0.0733 0.0894 -0.0189
H5 H -0.0198 0.1742 -0.0022
O2 O 0.8084(6) 0.6279(4) 0.2150(4)
P3 P 0.42516(14) 0.79542(10) 0.17236(10)
O3 O 0.1314(4) 0.6841(3) 0.5487(3)
N3 N 0.7497(5) 0.6059(4) 0.3082(4)
H6 H 0.7294 0.5724 0.3338
C3 C 0.0545(5) 0.1026(4) 0.0192(4)
H7 H 0.0690 0.0893 -0.0253
H8 H 0.0459 0.0578 0.0419
P4 P 0.27003(16) 0.81247(11) 0.25844(12)
N4 N 0.5087(4) 0.7406(3) 0.2928(3)
O4 O 0.1823(4) 0.3593(3) 0.5250(3)
C4 C -0.0740(6) 0.1974(5) 0.2072(4)
N5 N 0.3704(5) 0.7529(4) 0.3704(3)
C5 C -0.0972(6) 0.2575(5) 0.2366(4)
H9 H -0.0807 0.3035 0.2197
N6 N 0.2516(5) 0.6449(4) 0.5711(3)
H10 H 0.2730 0.6080 0.5809
C6 C -0.1432(7) 0.2520(7) 0.2890(6)
H11 H -0.1630 0.2928 0.3063
N7 N 0.0384(5) 0.3033(3) 0.4934(3)
H12 H -0.0156 0.3081 0.4897
C7 C -0.1614(7) 0.1879(8) 0.3171(5)
H13 H -0.1903 0.1853 0.3556
N8 N 0.1166(4) 0.2178(3) 0.2700(3)
C8 C -0.1378(8) 0.1273(8) 0.2895(6)
H14 H -0.1497 0.0828 0.3091
C9 C -0.0960(7) 0.1317(7) 0.2322(5)
H15 H -0.0831 0.0892 0.2109
C10 C -0.0106(5) 0.2899(4) 0.1080(4)
C11 C -0.0712(6) 0.2947(5) 0.0575(4)
H16 H -0.1159 0.2521 0.0392
C12 C -0.0662(8) 0.3625(7) 0.0338(5)
H17 H -0.1060 0.3662 -0.0018
C13 C -0.0020(9) 0.4243(6) 0.0632(6)
H18 H 0.0008 0.4708 0.0481
C14 C 0.0548(8) 0.4202(5) 0.1113(6)
H19 H 0.0976 0.4636 0.1308
C15 C 0.0528(7) 0.3533(5) 0.1339(5)
H20 H 0.0957 0.3509 0.1677
C16 C 0.2408(5) 0.1380(4) 0.0491(3)
C17 C 0.2313(6) 0.0613(4) 0.0444(4)
H21 H 0.1763 0.0281 0.0480
C18 C 0.3049(7) 0.0350(5) 0.0344(5)
H22 H 0.2988 -0.0168 0.0299
C19 C 0.3858(7) 0.0822(6) 0.0308(5)
H23 H 0.4350 0.0634 0.0235
C20 C 0.3943(6) 0.1567(6) 0.0381(5)
H24 H 0.4503 0.1898 0.0374
C21 C 0.3223(5) 0.1848(5) 0.0465(4)
H25 H 0.3294 0.2367 0.0504
C22 C 0.1634(5) 0.2527(4) 0.0183(4)
C23 C 0.1401(5) 0.2444(5) -0.0485(4)
H26 H 0.1090 0.1974 -0.0707
C24 C 0.1624(6) 0.3049(5) -0.0828(5)
H27 H 0.1459 0.2997 -0.1285
C25 C 0.2097(6) 0.3740(5) -0.0495(6)
H28 H 0.2256 0.4155 -0.0728
C26 C 0.2328(7) 0.3814(5) 0.0162(5)
H29 H 0.2652 0.4280 0.0384
C27 C 0.2095(6) 0.3217(4) 0.0506(5)
H30 H 0.2249 0.3275 0.0965
C28 C 0.2811(5) 0.1340(4) 0.2045(4)
H31 H 0.2367 0.0887 0.1969
C29 C 0.3649(5) 0.1326(4) 0.2209(4)
H32 H 0.3784 0.0866 0.2240
C30 C 0.4319(5) 0.1982(4) 0.2334(4)
C31 C 0.4072(5) 0.2635(4) 0.2280(4)
H33 H 0.4498 0.3099 0.2358
C32 C 0.3214(5) 0.2602(4) 0.2114(4)
H34 H 0.3054 0.3052 0.2088
C33 C 0.5245(5) 0.1971(4) 0.2527(4)
H35 H 0.5343 0.2013 0.3010
H36 H 0.5330 0.1489 0.2350
C34 C 0.6232(5) 0.3221(4) 0.2652(4)
C35 C 0.6922(5) 0.3755(4) 0.2375(4)
C36 C 0.7034(5) 0.4503(4) 0.2581(4)
H37 H 0.6675 0.4646 0.2889
C37 C 0.7661(5) 0.5041(5) 0.2345(5)
C38 C 0.8164(7) 0.4814(6) 0.1899(7)
H38 H 0.8593 0.5176 0.1730
C39 C 0.8071(7) 0.4092(7) 0.1692(6)
H39 H 0.8425 0.3955 0.1377
C40 C 0.7451(6) 0.3543(6) 0.1945(6)
H40 H 0.7401 0.3035 0.1818
C41 C 0.7775(7) 0.5843(5) 0.2522(6)
C42 C 0.7515(6) 0.6811(5) 0.3286(5)
H41 H 0.7965 0.7135 0.3064
H42 H 0.7700 0.6919 0.3761
C43 C 0.6653(6) 0.7010(5) 0.3151(5)
C44 C 0.6604(6) 0.7734(5) 0.3285(5)
H43 H 0.7112 0.8108 0.3468
C45 C 0.5828(6) 0.7910(5) 0.3156(5)
H44 H 0.5818 0.8413 0.3233
C46 C 0.5118(6) 0.6709(5) 0.2787(5)
H45 H 0.4595 0.6346 0.2614
C47 C 0.5882(6) 0.6500(5) 0.2886(6)
H46 H 0.5883 0.6000 0.2771
C48 C 0.3679(5) 0.7178(4) 0.1133(4)
C49 C 0.3294(5) 0.6506(4) 0.1331(4)
H47 H 0.3307 0.6453 0.1783
C50 C 0.2885(6) 0.5904(5) 0.0870(5)
H48 H 0.2622 0.5441 0.1010
C51 C 0.2860(7) 0.5970(5) 0.0228(5)
H49 H 0.2562 0.5558 -0.0081
C52 C 0.3261(8) 0.6626(5) 0.0015(5)
H50 H 0.3263 0.6665 -0.0439
C53 C 0.3663(7) 0.7235(5) 0.0470(4)
H51 H 0.3930 0.7693 0.0325
C54 C 0.5396(6) 0.8071(4) 0.1626(4)
C55 C 0.5997(7) 0.8755(5) 0.1816(6)
H52 H 0.5795 0.9165 0.1979
C56 C 0.6871(7) 0.8843(6) 0.1770(6)
H53 H 0.7269 0.9316 0.1893
C57 C 0.7177(7) 0.8261(6) 0.1551(6)
H54 H 0.7786 0.8323 0.1522
C58 C 0.6591(7) 0.7581(7) 0.1371(7)
H55 H 0.6803 0.7170 0.1224
C59 C 0.5715(7) 0.7484(5) 0.1399(5)
H56 H 0.5321 0.7012 0.1262
C60 C 0.3928(6) 0.8075(5) 0.4194(5)
H57 H 0.4211 0.8558 0.4107
C61 C 0.3761(6) 0.7961(5) 0.4837(4)
H58 H 0.3953 0.8355 0.5182
C62 C 0.3312(6) 0.7266(5) 0.4962(4)
C63 C 0.3091(5) 0.6706(4) 0.4443(4)
H59 H 0.2802 0.6218 0.4513
C64 C 0.3287(5) 0.6854(4) 0.3832(4)
H60 H 0.3121 0.6462 0.3483
C65 C 0.3119(6) 0.7155(5) 0.5649(4)
H61 H 0.3677 0.7198 0.5919
H62 H 0.2869 0.7556 0.5826
C66 C 0.1645(5) 0.6344(4) 0.5623(4)
C67 C 0.1101(5) 0.5597(4) 0.5711(4)
C68 C 0.1316(6) 0.4969(4) 0.5455(4)
H63 H 0.1827 0.5011 0.5234
C69 C 0.0785(6) 0.4276(5) 0.5519(4)
C70 C 0.0048(6) 0.4217(5) 0.5852(4)
H64 H -0.0323 0.3744 0.5891
C71 C -0.0145(6) 0.4849(5) 0.6125(4)
H65 H -0.0636 0.4809 0.6368
C72 C 0.0362(6) 0.5532(5) 0.6049(4)
H66 H 0.0212 0.5963 0.6226
C73 C 0.1058(7) 0.3611(5) 0.5234(4)
C74 C 0.0554(6) 0.2349(4) 0.4682(4)
H67 H 0.0022 0.1943 0.4693
H68 H 0.1029 0.2256 0.4975
C75 C 0.0813(5) 0.2320(4) 0.3997(4)
C76 C 0.1017(6) 0.2913(4) 0.3663(4)
H69 H 0.1054 0.3393 0.3875
C77 C 0.1171(5) 0.2824(4) 0.3017(4)
H70 H 0.1287 0.3247 0.2789
C78 C 0.1016(7) 0.1603(5) 0.3036(5)
H71 H 0.1047 0.1138 0.2829
C79 C 0.0817(7) 0.1651(5) 0.3671(4)
H72 H 0.0682 0.1219 0.3885
C80 C 0.2342(7) 0.8416(5) 0.3362(5)
C81 C 0.2703(8) 0.9122(6) 0.3673(5)
H73 H 0.3122 0.9467 0.3478
C82 C 0.2445(10) 0.9317(7) 0.4271(6)
H74 H 0.2665 0.9809 0.4480
C83 C 0.1885(10) 0.8818(7) 0.4558(7)
H75 H 0.1720 0.8960 0.4973
C84 C 0.1554(9) 0.8122(8) 0.4271(7)
H76 H 0.1183 0.7772 0.4494
C85 C 0.1746(9) 0.7911(6) 0.3660(6)
H77 H 0.1477 0.7429 0.3443
C86 C 0.1797(6) 0.7394(5) 0.2160(5)
C87 C 0.1701(6) 0.6662(5) 0.2307(5)
H78 H 0.2123 0.6555 0.2608
C88 C 0.1003(7) 0.6111(6) 0.2018(7)
H79 H 0.0926 0.5631 0.2149
C89 C 0.0419(8) 0.6214(9) 0.1556(7)
H80 H -0.0042 0.5815 0.1342
C90 C 0.0520(8) 0.6966(9) 0.1396(7)
H81 H 0.0113 0.7060 0.1075
C91 C 0.1188(7) 0.7535(7) 0.1700(6)
H82 H 0.1239 0.8024 0.1599
C92 C 0.4006(6) 0.8779(4) 0.1440(5)
H83 H 0.4380 0.9220 0.1719
H84 H 0.4168 0.8810 0.0989
C93 C 0.3085(7) 0.8802(5) 0.1444(5)
H85 H 0.2705 0.8335 0.1207
H86 H 0.2995 0.9210 0.1203
C94 C 0.2790(7) 0.8913(5) 0.2138(5)
H87 H 0.2214 0.9028 0.2096
H88 H 0.3216 0.9345 0.2394
S1 S 0.03256(19) -0.03879(12) 0.16956(12)
C95 C 0.0103(13) -0.0642(10) 0.2466(9)
O5 O 0.0814(6) -0.0821(5) 0.1410(4)
F1 F -0.0353(9) -0.1372(7) 0.2434(6)
O6 O 0.0678(5) 0.0370(4) 0.1765(4)
F2 F -0.0341(6) -0.0254(4) 0.2790(4)
O7 O -0.0623(7) -0.0553(6) 0.1372(5)
F3 F 0.0855(9) -0.0513(7) 0.2821(6)
S2 S 0.5107(2) 1.00403(13) 0.3388(2)
C96 C 0.6206(9) 1.0416(8) 0.3472(7)
O8 O 0.4894(9) 1.0202(7) 0.2760(7)
F4 F 0.6453(5) 1.1138(4) 0.3497(4)
O9 O 0.4919(6) 0.9273(4) 0.3318(4)
F5 F 0.6624(6) 1.0145(5) 0.3029(5)
O10 O 0.4724(11) 1.0497(9) 0.3653(9)
F6 F 0.6606(10) 1.0329(8) 0.3991(8)
S3 S 0.26973(18) 0.48053(12) 0.26555(15)
C97 C 0.3266(11) 0.4625(6) 0.3329(7)
O11 O 0.3036(5) 0.5533(3) 0.2577(4)
F7 F 0.3092(7) 0.3966(4) 0.3501(5)
O12 O 0.2588(6) 0.4227(5) 0.2184(4)
F8 F 0.4145(7) 0.4691(8) 0.3202(7)
O13 O 0.1848(9) 0.4714(7) 0.2892(7)
F9 F 0.3505(8) 0.5109(6) 0.3823(5)
S4 S -0.34160(15) 0.15309(12) 0.07378(12)
O14 O -0.3945(4) 0.1983(3) 0.0991(3)
F10 F -0.2947(4) 0.0415(3) 0.1155(3)
C98 C -0.3456(7) 0.0857(5) 0.1271(5)
O15 O -0.2526(6) 0.1894(5) 0.0804(5)
F11 F -0.4277(5) 0.0456(4) 0.1293(4)
F12 F -0.3219(5) 0.1169(4) 0.1897(3)
O16 O -0.3816(6) 0.1102(4) 0.0121(4)
H91 H 0.4349 0.5935 0.5834
H92 H 0.4269 0.5485 0.5125
O19 O 0.4046(10) 0.5823(8) 0.5595(7)
O18 O 0.565(2) 0.5365(15) 0.1018(16)
H97 H 0.5645 0.5364 0.0612
C102 C 0.4937(17) 0.4792(16) 0.1161(13)
H98 H 0.4364 0.4858 0.0976
C103 C 0.502(2) 0.4007(14) 0.0964(18)
H99 H 0.5034 0.3928 0.0491
H100 H 0.4509 0.3648 0.1087
H101 H 0.5555 0.3944 0.1189
C104 C 0.493(2) 0.4678(18) 0.1881(15)
H102 H 0.4975 0.5153 0.2141
H103 H 0.5422 0.4486 0.2019
H104 H 0.4376 0.4327 0.1945
O21 O 0.4269(11) 1.0653(9) 0.4959(7)
O23 O 0.120(3) 0.066(3) 0.558(2)
H105 H 0.1722 0.0671 0.5524
H106 H 0.1133 0.1044 0.5846
C99? C 0.3915(9) 0.4801(8) 0.5838(13)
H89? H 0.4156 0.4899 0.6309
O17? O 0.3034(8) 0.4811(7) 0.5935(7)
H90? H 0.2973 0.4848 0.5534
C100? C 0.4450(14) 0.5496(13) 0.5590(15)
H93? H 0.5075 0.5513 0.5652
C101? C 0.4005(16) 0.4077(13) 0.5481(18)
H94? H 0.4613 0.4086 0.5622
H95? H 0.3607 0.3662 0.5644
H96? H 0.3914 0.4019 0.5003
O20? O 0.6415(11) 0.5581(9) 0.4231(8)
O22? O 0.4021(19) 0.4219(16) 0.1399(15)
loop_
_geom_bond_atom_site_label_1
_geom_bond_atom_site_label_2
_geom_bond_site_symmetry_1
_geom_bond_site_symmetry_2
Pd1 P1 1_555 1_555
P1 C1 1_555 1_555
N1 Pd1 1_555 1_555
O1 C34 1_555 1_555
C1 H1 1_555 1_555
H2 C1 1_555 1_555
Pd2 P3 1_555 1_555
P2 Pd1 1_555 1_555
N2 H3 1_555 1_555
C2 C1 1_555 1_555
H4 C2 1_555 1_555
H5 C2 1_555 1_555
O2 C41 1_555 1_555
P3 C48 1_555 1_555
O3 C66 1_555 1_555
N3 H6 1_555 1_555
C3 P2 1_555 1_555
H7 C3 1_555 1_555
H8 C3 1_555 1_555
P4 Pd2 1_555 1_555
N4 Pd2 1_555 1_555
O4 C73 1_555 1_555
C4 P1 1_555 1_555
N5 Pd2 1_555 1_555
C5 C4 1_555 1_555
H9 C5 1_555 1_555
N6 H10 1_555 1_555
C6 C5 1_555 1_555
H11 C6 1_555 1_555
N7 H12 1_555 1_555
C7 C6 1_555 1_555
H13 C7 1_555 1_555
N8 Pd1 1_555 1_555
C8 C7 1_555 1_555
H14 C8 1_555 1_555
C9 C4 1_555 1_555
H15 C9 1_555 1_555
C10 P1 1_555 1_555
C11 C10 1_555 1_555
H16 C11 1_555 1_555
C12 C11 1_555 1_555
H17 C12 1_555 1_555
C13 C12 1_555 1_555
H18 C13 1_555 1_555
C14 C13 1_555 1_555
H19 C14 1_555 1_555
C15 C10 1_555 1_555
H20 C15 1_555 1_555
C16 P2 1_555 1_555
C17 C16 1_555 1_555
H21 C17 1_555 1_555
C18 C17 1_555 1_555
H22 C18 1_555 1_555
C19 C18 1_555 1_555
H23 C19 1_555 1_555
C20 C19 1_555 1_555
H24 C20 1_555 1_555
C21 C16 1_555 1_555
H25 C21 1_555 1_555
C22 P2 1_555 1_555
C23 C22 1_555 1_555
H26 C23 1_555 1_555
C24 C23 1_555 1_555
H27 C24 1_555 1_555
C25 C24 1_555 1_555
H28 C25 1_555 1_555
C26 C25 1_555 1_555
H29 C26 1_555 1_555
C27 C22 1_555 1_555
H30 C27 1_555 1_555
C28 N1 1_555 1_555
H31 C28 1_555 1_555
C29 C28 1_555 1_555
H32 C29 1_555 1_555
C30 C29 1_555 1_555
C31 C30 1_555 1_555
H33 C31 1_555 1_555
C32 N1 1_555 1_555
H34 C32 1_555 1_555
C33 N2 1_555 1_555
H35 C33 1_555 1_555
H36 C33 1_555 1_555
C34 N2 1_555 1_555
C35 C34 1_555 1_555
C36 C35 1_555 1_555
H37 C36 1_555 1_555
C37 C36 1_555 1_555
C38 C37 1_555 1_555
H38 C38 1_555 1_555
C39 C38 1_555 1_555
H39 C39 1_555 1_555
C40 C35 1_555 1_555
H40 C40 1_555 1_555
C41 N3 1_555 1_555
C42 N3 1_555 1_555
H41 C42 1_555 1_555
H42 C42 1_555 1_555
C43 C42 1_555 1_555
C44 C43 1_555 1_555
H43 C44 1_555 1_555
C45 N4 1_555 1_555
H44 C45 1_555 1_555
C46 N4 1_555 1_555
H45 C46 1_555 1_555
C47 C43 1_555 1_555
H46 C47 1_555 1_555
C48 C49 1_555 1_555
C49 H47 1_555 1_555
C50 C49 1_555 1_555
H48 C50 1_555 1_555
C51 C50 1_555 1_555
H49 C51 1_555 1_555
C52 C51 1_555 1_555
H50 C52 1_555 1_555
C53 C48 1_555 1_555
H51 C53 1_555 1_555
C54 P3 1_555 1_555
C55 C54 1_555 1_555
H52 C55 1_555 1_555
C56 C55 1_555 1_555
H53 C56 1_555 1_555
C57 C56 1_555 1_555
H54 C57 1_555 1_555
C58 C57 1_555 1_555
H55 C58 1_555 1_555
C59 C54 1_555 1_555
H56 C59 1_555 1_555
C60 N5 1_555 1_555
H57 C60 1_555 1_555
C61 C60 1_555 1_555
H58 C61 1_555 1_555
C62 C61 1_555 1_555
C63 C62 1_555 1_555
H59 C63 1_555 1_555
C64 N5 1_555 1_555
H60 C64 1_555 1_555
C65 N6 1_555 1_555
H61 C65 1_555 1_555
H62 C65 1_555 1_555
C66 N6 1_555 1_555
C67 C66 1_555 1_555
C68 C67 1_555 1_555
H63 C68 1_555 1_555
C69 C68 1_555 1_555
C70 C69 1_555 1_555
H64 C70 1_555 1_555
C71 C70 1_555 1_555
H65 C71 1_555 1_555
C72 C67 1_555 1_555
H66 C72 1_555 1_555
C73 N7 1_555 1_555
C74 N7 1_555 1_555
H67 C74 1_555 1_555
H68 C74 1_555 1_555
C75 C74 1_555 1_555
C76 C75 1_555 1_555
H69 C76 1_555 1_555
C77 N8 1_555 1_555
H70 C77 1_555 1_555
C78 N8 1_555 1_555
H71 C78 1_555 1_555
C79 C75 1_555 1_555
H72 C79 1_555 1_555
C80 P4 1_555 1_555
C81 C80 1_555 1_555
H73 C81 1_555 1_555
C82 C81 1_555 1_555
H74 C82 1_555 1_555
C83 C82 1_555 1_555
H75 C83 1_555 1_555
C84 C83 1_555 1_555
H76 C84 1_555 1_555
C85 C80 1_555 1_555
H77 C85 1_555 1_555
C86 P4 1_555 1_555
C87 C86 1_555 1_555
H78 C87 1_555 1_555
C88 C87 1_555 1_555
H79 C88 1_555 1_555
C89 C88 1_555 1_555
H80 C89 1_555 1_555
C90 C89 1_555 1_555
H81 C90 1_555 1_555
C91 C86 1_555 1_555
H82 C91 1_555 1_555
C92 P3 1_555 1_555
H83 C92 1_555 1_555
H84 C92 1_555 1_555
C93 C92 1_555 1_555
H85 C93 1_555 1_555
H86 C93 1_555 1_555
C94 P4 1_555 1_555
H87 C94 1_555 1_555
H88 C94 1_555 1_555
S1 C95 1_555 1_555
C95 F1 1_555 1_555
O5 S1 1_555 1_555
O6 S1 1_555 1_555
F2 C95 1_555 1_555
O7 S1 1_555 1_555
F3 C95 1_555 1_555
S2 C96 1_555 1_555
C96 F4 1_555 1_555
O8 S2 1_555 1_555
O9 S2 1_555 1_555
F5 C96 1_555 1_555
O10 S2 1_555 1_555
F6 C96 1_555 1_555
S3 C97 1_555 1_555
C97 F7 1_555 1_555
O11 S3 1_555 1_555
O12 S3 1_555 1_555
F8 C97 1_555 1_555
O13 S3 1_555 1_555
F9 C97 1_555 1_555
S4 O14 1_555 1_555
F10 C98 1_555 1_555
C98 S4 1_555 1_555
O15 S4 1_555 1_555
F11 C98 1_555 1_555
F12 C98 1_555 1_555
O16 S4 1_555 1_555
H91 O19 1_555 1_555
H92 O19 1_555 1_555
O18 H97 1_555 1_555
C102 O18 1_555 1_555
H98 C102 1_555 1_555
C103 C102 1_555 1_555
H99 C103 1_555 1_555
H100 C103 1_555 1_555
H101 C103 1_555 1_555
C104 C102 1_555 1_555
H102 C104 1_555 1_555
H103 C104 1_555 1_555
H104 C104 1_555 1_555
O23 H105 1_555 1_555
H106 O23 1_555 1_555
C2 C3 1_555 1_555
C8 C9 1_555 1_555
C14 C15 1_555 1_555
C20 C21 1_555 1_555
C26 C27 1_555 1_555
C30 C33 1_555 1_555
C31 C32 1_555 1_555
C37 C41 1_555 1_555
C39 C40 1_555 1_555
C44 C45 1_555 1_555
C46 C47 1_555 1_555
C52 C53 1_555 1_555
C58 C59 1_555 1_555
C62 C65 1_555 1_555
C63 C64 1_555 1_555
C69 C73 1_555 1_555
C71 C72 1_555 1_555
C76 C77 1_555 1_555
C78 C79 1_555 1_555
C84 C85 1_555 1_555
C90 C91 1_555 1_555
C93 C94 1_555 1_555

#END
