# generated using pymatgen
data_P2H48PdC45S2N4(O4F3)2
_symmetry_space_group_name_H-M   'P 1'
_cell_length_a   18.60630000
_cell_length_b   21.53640000
_cell_length_c   27.11030000
_cell_angle_alpha   90.00000000
_cell_angle_beta   90.00000000
_cell_angle_gamma   90.00000000
_symmetry_Int_Tables_number   1
_chemical_formula_structural   P2H48PdC45S2N4(O4F3)2
_chemical_formula_sum   'P16 H384 Pd8 C360 S16 N32 O64 F48'
_cell_volume   10863.44203458
_cell_formula_units_Z   8
loop_
 _symmetry_equiv_pos_site_id
 _symmetry_equiv_pos_as_xyz
  1  'x, y, z'
loop_
 _atom_site_type_symbol
 _atom_site_label
 _atom_site_symmetry_multiplicity
 _atom_site_fract_x
 _atom_site_fract_y
 _atom_site_fract_z
 _atom_site_occupancy
  P  P1  1  0.548960  0.160530  0.127780  1
  P  P2  1  0.951040  0.839470  0.627780  1
  P  P3  1  0.451040  0.660530  0.372220  1
  P  P4  1  0.048960  0.339470  0.872220  1
  P  P5  1  0.550350  0.073000  0.225740  1
  P  P6  1  0.949650  0.927000  0.725740  1
  P  P7  1  0.449650  0.573000  0.274260  1
  P  P8  1  0.050350  0.427000  0.774260  1
  P  P9  1  0.920920  0.136230  0.142720  1
  P  P10  1  0.579080  0.863770  0.642720  1
  P  P11  1  0.079080  0.636230  0.357280  1
  P  P12  1  0.420920  0.363770  0.857280  1
  P  P13  1  0.939930  0.065170  0.247410  1
  P  P14  1  0.560070  0.934830  0.747410  1
  P  P15  1  0.060070  0.565170  0.252590  1
  P  P16  1  0.439930  0.434830  0.752590  1
  H  H17  1  0.359800  0.217800  0.167300  1
  H  H18  1  0.140200  0.782200  0.667300  1
  H  H19  1  0.640200  0.717800  0.332700  1
  H  H20  1  0.859800  0.282200  0.832700  1
  H  H21  1  0.302500  0.311100  0.152200  1
  H  H22  1  0.197500  0.688900  0.652200  1
  H  H23  1  0.697500  0.811100  0.347800  1
  H  H24  1  0.802500  0.188900  0.847800  1
  H  H25  1  0.290700  0.430800  0.105300  1
  H  H26  1  0.209300  0.569200  0.605300  1
  H  H27  1  0.709300  0.930800  0.394700  1
  H  H28  1  0.790700  0.069200  0.894700  1
  H  H29  1  0.174800  0.418300  0.092400  1
  H  H30  1  0.325200  0.581700  0.592400  1
  H  H31  1  0.825200  0.918300  0.407600  1
  H  H32  1  0.674800  0.081700  0.907600  1
  H  H33  1  0.483500  0.399900  0.196000  1
  H  H34  1  0.016500  0.600100  0.696000  1
  H  H35  1  0.516500  0.899900  0.304000  1
  H  H36  1  0.983500  0.100100  0.804000  1
  H  H37  1  0.536600  0.304400  0.208900  1
  H  H38  1  0.963400  0.695600  0.708900  1
  H  H39  1  0.463400  0.804400  0.291100  1
  H  H40  1  0.036600  0.195600  0.791100  1
  H  H41  1  0.338900  0.445500  0.199800  1
  H  H42  1  0.161100  0.554500  0.699800  1
  H  H43  1  0.661100  0.945500  0.300200  1
  H  H44  1  0.838900  0.054500  0.800200  1
  H  H45  1  0.385600  0.457600  0.151300  1
  H  H46  1  0.114400  0.542400  0.651300  1
  H  H47  1  0.614400  0.957600  0.348700  1
  H  H48  1  0.885600  0.042400  0.848700  1
  H  H49  1  0.191900  0.135200  0.436000  1
  H  H50  1  0.308100  0.864800  0.936000  1
  H  H51  1  0.808100  0.635200  0.064000  1
  H  H52  1  0.691900  0.364800  0.564000  1
  H  H53  1  0.307600  0.125400  0.445500  1
  H  H54  1  0.192400  0.874600  0.945500  1
  H  H55  1  0.692400  0.625400  0.054500  1
  H  H56  1  0.807600  0.374600  0.554500  1
  H  H57  1  0.060100  0.434900  0.113400  1
  H  H58  1  0.439900  0.565100  0.613400  1
  H  H59  1  0.939900  0.934900  0.386600  1
  H  H60  1  0.560100  0.065100  0.886600  1
  H  H61  1  0.085700  0.448500  0.168600  1
  H  H62  1  0.414300  0.551500  0.668600  1
  H  H63  1  0.914300  0.948500  0.331400  1
  H  H64  1  0.585700  0.051500  0.831400  1
  H  H65  1  0.155500  0.305000  0.142000  1
  H  H66  1  0.344500  0.695000  0.642000  1
  H  H67  1  0.844500  0.805000  0.358000  1
  H  H68  1  0.655500  0.195000  0.858000  1
  H  H69  1  0.110100  0.212200  0.171900  1
  H  H70  1  0.389900  0.787800  0.671900  1
  H  H71  1  0.889900  0.712200  0.328100  1
  H  H72  1  0.610100  0.287800  0.828100  1
  H  H73  1  0.922600  0.289800  0.201300  1
  H  H74  1  0.577400  0.710200  0.701300  1
  H  H75  1  0.077400  0.789800  0.298700  1
  H  H76  1  0.422600  0.210200  0.798700  1
  H  H77  1  0.963500  0.385500  0.173900  1
  H  H78  1  0.536500  0.614500  0.673900  1
  H  H79  1  0.036500  0.885500  0.326100  1
  H  H80  1  0.463500  0.114500  0.826100  1
  H  H81  1  0.126600  0.156200  0.260800  1
  H  H82  1  0.373400  0.843800  0.760800  1
  H  H83  1  0.873400  0.656200  0.239200  1
  H  H84  1  0.626600  0.343800  0.739200  1
  H  H85  1  0.183800  0.171200  0.335300  1
  H  H86  1  0.316200  0.828800  0.835300  1
  H  H87  1  0.816200  0.671200  0.164700  1
  H  H88  1  0.683800  0.328800  0.664700  1
  H  H89  1  0.995300  0.232600  0.391200  1
  H  H90  1  0.504700  0.767400  0.891200  1
  H  H91  1  0.004700  0.732600  0.108800  1
  H  H92  1  0.495300  0.267400  0.608800  1
  H  H93  1  0.941400  0.214400  0.314500  1
  H  H94  1  0.558600  0.785600  0.814500  1
  H  H95  1  0.058600  0.714400  0.185500  1
  H  H96  1  0.441400  0.285600  0.685500  1
  H  H97  1  0.137800  0.253900  0.428300  1
  H  H98  1  0.362200  0.746100  0.928300  1
  H  H99  1  0.862200  0.753900  0.071700  1
  H  H100  1  0.637800  0.246100  0.571700  1
  H  H101  1  0.093100  0.195600  0.447800  1
  H  H102  1  0.406900  0.804400  0.947800  1
  H  H103  1  0.906900  0.695600  0.052200  1
  H  H104  1  0.593100  0.304400  0.552200  1
  H  H105  1  0.420500  0.157400  0.444400  1
  H  H106  1  0.079500  0.842600  0.944400  1
  H  H107  1  0.579500  0.657400  0.055600  1
  H  H108  1  0.920500  0.342600  0.555600  1
  H  H109  1  0.392000  0.227000  0.439300  1
  H  H110  1  0.108000  0.773000  0.939300  1
  H  H111  1  0.608000  0.727000  0.060700  1
  H  H112  1  0.892000  0.273000  0.560700  1
  H  H113  1  0.320700  0.145400  0.342600  1
  H  H114  1  0.179300  0.854600  0.842600  1
  H  H115  1  0.679300  0.645400  0.157400  1
  H  H116  1  0.820700  0.354600  0.657400  1
  H  H117  1  0.362000  0.143900  0.262200  1
  H  H118  1  0.138000  0.856100  0.762200  1
  H  H119  1  0.638000  0.643900  0.237800  1
  H  H120  1  0.862000  0.356100  0.737800  1
  H  H121  1  0.547500  0.217800  0.303600  1
  H  H122  1  0.952500  0.782200  0.803600  1
  H  H123  1  0.452500  0.717800  0.196400  1
  H  H124  1  0.047500  0.282200  0.696400  1
  H  H125  1  0.507100  0.225400  0.384300  1
  H  H126  1  0.992900  0.774600  0.884300  1
  H  H127  1  0.492900  0.725400  0.115700  1
  H  H128  1  0.007100  0.274600  0.615700  1
  H  H129  1  0.657900  0.130900  0.092700  1
  H  H130  1  0.842100  0.869100  0.592700  1
  H  H131  1  0.342100  0.630900  0.407300  1
  H  H132  1  0.157900  0.369100  0.907300  1
  H  H133  1  0.670700  0.156300  0.147400  1
  H  H134  1  0.829300  0.843700  0.647400  1
  H  H135  1  0.329300  0.656300  0.352600  1
  H  H136  1  0.170700  0.343700  0.852600  1
  H  H137  1  0.688700  0.044300  0.134200  1
  H  H138  1  0.811300  0.955700  0.634200  1
  H  H139  1  0.311300  0.544300  0.365800  1
  H  H140  1  0.188700  0.455700  0.865800  1
  H  H141  1  0.603000  0.039300  0.131800  1
  H  H142  1  0.897000  0.960700  0.631800  1
  H  H143  1  0.397000  0.539300  0.368200  1
  H  H144  1  0.103000  0.460700  0.868200  1
  H  H145  1  0.673100  0.091300  0.217000  1
  H  H146  1  0.826900  0.908700  0.717000  1
  H  H147  1  0.326900  0.591300  0.283000  1
  H  H148  1  0.173100  0.408700  0.783000  1
  H  H149  1  0.657000  0.018400  0.213600  1
  H  H150  1  0.843000  0.981600  0.713600  1
  H  H151  1  0.343000  0.518400  0.286400  1
  H  H152  1  0.157000  0.481600  0.786400  1
  H  H153  1  0.578600  0.107500  0.032900  1
  H  H154  1  0.921400  0.892500  0.532900  1
  H  H155  1  0.421400  0.607500  0.467100  1
  H  H156  1  0.078600  0.392500  0.967100  1
  H  H157  1  0.519000  0.046100  0.977400  1
  H  H158  1  0.981000  0.953900  0.477400  1
  H  H159  1  0.481000  0.546100  0.522600  1
  H  H160  1  0.019000  0.453900  0.022600  1
  H  H161  1  0.402200  0.015600  0.991800  1
  H  H162  1  0.097800  0.984400  0.491800  1
  H  H163  1  0.597800  0.515600  0.508200  1
  H  H164  1  0.902200  0.484400  0.008200  1
  H  H165  1  0.346200  0.042500  0.068100  1
  H  H166  1  0.153800  0.957500  0.568100  1
  H  H167  1  0.653800  0.542500  0.431900  1
  H  H168  1  0.846200  0.457500  0.931900  1
  H  H169  1  0.407300  0.106100  0.123700  1
  H  H170  1  0.092700  0.893900  0.623700  1
  H  H171  1  0.592700  0.606100  0.376300  1
  H  H172  1  0.907300  0.393900  0.876300  1
  H  H173  1  0.462200  0.234600  0.063500  1
  H  H174  1  0.037800  0.765400  0.563500  1
  H  H175  1  0.537800  0.734600  0.436500  1
  H  H176  1  0.962200  0.265400  0.936500  1
  H  H177  1  0.466500  0.338100  0.035500  1
  H  H178  1  0.033500  0.661900  0.535500  1
  H  H179  1  0.533500  0.838100  0.464500  1
  H  H180  1  0.966500  0.161900  0.964500  1
  H  H181  1  0.568900  0.398500  0.051000  1
  H  H182  1  0.931100  0.601500  0.551000  1
  H  H183  1  0.431100  0.898500  0.449000  1
  H  H184  1  0.068900  0.101500  0.949000  1
  H  H185  1  0.658900  0.360900  0.105100  1
  H  H186  1  0.841100  0.639100  0.605100  1
  H  H187  1  0.341100  0.860900  0.394900  1
  H  H188  1  0.158900  0.139100  0.894900  1
  H  H189  1  0.652200  0.257700  0.133300  1
  H  H190  1  0.847800  0.742300  0.633300  1
  H  H191  1  0.347800  0.757700  0.366700  1
  H  H192  1  0.152200  0.242300  0.866700  1
  H  H193  1  0.460400  0.025000  0.303600  1
  H  H194  1  0.039600  0.975000  0.803600  1
  H  H195  1  0.539600  0.525000  0.196400  1
  H  H196  1  0.960400  0.475000  0.696400  1
  H  H197  1  0.464300  0.026600  0.390100  1
  H  H198  1  0.035700  0.973400  0.890100  1
  H  H199  1  0.535700  0.526600  0.109900  1
  H  H200  1  0.964300  0.473400  0.609900  1
  H  H201  1  0.568600  0.065000  0.430100  1
  H  H202  1  0.931400  0.935000  0.930100  1
  H  H203  1  0.431400  0.565000  0.069900  1
  H  H204  1  0.068600  0.435000  0.569900  1
  H  H205  1  0.663500  0.103900  0.384200  1
  H  H206  1  0.836500  0.896100  0.884200  1
  H  H207  1  0.336500  0.603900  0.115800  1
  H  H208  1  0.163500  0.396100  0.615800  1
  H  H209  1  0.656600  0.108400  0.298300  1
  H  H210  1  0.843400  0.891600  0.798300  1
  H  H211  1  0.343400  0.608400  0.201700  1
  H  H212  1  0.156600  0.391600  0.701700  1
  H  H213  1  0.580800  0.943400  0.204200  1
  H  H214  1  0.919200  0.056600  0.704200  1
  H  H215  1  0.419200  0.443400  0.295800  1
  H  H216  1  0.080800  0.556600  0.795800  1
  H  H217  1  0.509300  0.858500  0.180200  1
  H  H218  1  0.990700  0.141500  0.680200  1
  H  H219  1  0.490700  0.358500  0.319800  1
  H  H220  1  0.009300  0.641500  0.819800  1
  H  H221  1  0.388100  0.868600  0.169100  1
  H  H222  1  0.111900  0.131400  0.669100  1
  H  H223  1  0.611900  0.368600  0.330900  1
  H  H224  1  0.888100  0.631400  0.830900  1
  H  H225  1  0.332900  0.961900  0.184700  1
  H  H226  1  0.167100  0.038100  0.684700  1
  H  H227  1  0.667100  0.461900  0.315300  1
  H  H228  1  0.832900  0.538100  0.815300  1
  H  H229  1  0.401900  0.050100  0.200700  1
  H  H230  1  0.098100  0.949900  0.700700  1
  H  H231  1  0.598100  0.550100  0.299300  1
  H  H232  1  0.901900  0.449900  0.799300  1
  H  H233  1  0.802300  0.129400  0.168200  1
  H  H234  1  0.697700  0.870600  0.668200  1
  H  H235  1  0.197700  0.629400  0.331800  1
  H  H236  1  0.302300  0.370600  0.831800  1
  H  H237  1  0.812700  0.094200  0.116800  1
  H  H238  1  0.687300  0.905800  0.616800  1
  H  H239  1  0.187300  0.594200  0.383200  1
  H  H240  1  0.312700  0.405800  0.883200  1
  H  H241  1  0.874400  0.011700  0.163400  1
  H  H242  1  0.625600  0.988300  0.663400  1
  H  H243  1  0.125600  0.511700  0.336600  1
  H  H244  1  0.374400  0.488300  0.836600  1
  H  H245  1  0.789300  0.015900  0.171600  1
  H  H246  1  0.710700  0.984100  0.671600  1
  H  H247  1  0.210700  0.515900  0.328400  1
  H  H248  1  0.289300  0.484100  0.828400  1
  H  H249  1  0.833300  0.008600  0.250300  1
  H  H250  1  0.666700  0.991400  0.750300  1
  H  H251  1  0.166700  0.508600  0.249700  1
  H  H252  1  0.333300  0.491400  0.749700  1
  H  H253  1  0.816100  0.081000  0.244600  1
  H  H254  1  0.683900  0.919000  0.744600  1
  H  H255  1  0.183900  0.581000  0.255400  1
  H  H256  1  0.316100  0.419000  0.755400  1
  H  H257  1  0.888200  0.080300  0.051100  1
  H  H258  1  0.611800  0.919700  0.551100  1
  H  H259  1  0.111800  0.580300  0.448900  1
  H  H260  1  0.388200  0.419700  0.948900  1
  H  H261  1  0.951100  0.021500  0.992100  1
  H  H262  1  0.548900  0.978500  0.492100  1
  H  H263  1  0.048900  0.521500  0.507900  1
  H  H264  1  0.451100  0.478500  0.007900  1
  H  H265  1  0.072100  0.996200  0.007200  1
  H  H266  1  0.427900  0.003800  0.507200  1
  H  H267  1  0.927900  0.496200  0.492800  1
  H  H268  1  0.572100  0.503800  0.992800  1
  H  H269  1  0.125700  0.021100  0.082700  1
  H  H270  1  0.374300  0.978900  0.582700  1
  H  H271  1  0.874300  0.521100  0.417300  1
  H  H272  1  0.625700  0.478900  0.917300  1
  H  H273  1  0.064100  0.085900  0.138400  1
  H  H274  1  0.435900  0.914100  0.638400  1
  H  H275  1  0.935900  0.585900  0.361600  1
  H  H276  1  0.564100  0.414100  0.861600  1
  H  H277  1  0.996300  0.205800  0.069500  1
  H  H278  1  0.503700  0.794200  0.569500  1
  H  H279  1  0.003700  0.705800  0.430500  1
  H  H280  1  0.496300  0.294200  0.930500  1
  H  H281  1  0.980300  0.302300  0.030900  1
  H  H282  1  0.519700  0.697700  0.530900  1
  H  H283  1  0.019700  0.802300  0.469100  1
  H  H284  1  0.480300  0.197700  0.969100  1
  H  H285  1  0.873900  0.358400  0.044800  1
  H  H286  1  0.626100  0.641600  0.544800  1
  H  H287  1  0.126100  0.858400  0.455200  1
  H  H288  1  0.373900  0.141600  0.955200  1
  H  H289  1  0.788100  0.322500  0.102700  1
  H  H290  1  0.711900  0.677500  0.602700  1
  H  H291  1  0.211900  0.822500  0.397300  1
  H  H292  1  0.288100  0.177500  0.897300  1
  H  H293  1  0.807000  0.225400  0.141100  1
  H  H294  1  0.693000  0.774600  0.641100  1
  H  H295  1  0.193000  0.725400  0.358900  1
  H  H296  1  0.307000  0.274600  0.858900  1
  H  H297  1  0.909400  0.934400  0.232300  1
  H  H298  1  0.590600  0.065600  0.732300  1
  H  H299  1  0.090600  0.434400  0.267700  1
  H  H300  1  0.409400  0.565600  0.767700  1
  H  H301  1  0.977600  0.849900  0.204400  1
  H  H302  1  0.522400  0.150100  0.704400  1
  H  H303  1  0.022400  0.349900  0.295600  1
  H  H304  1  0.477600  0.650100  0.795600  1
  H  H305  1  0.101400  0.861200  0.188300  1
  H  H306  1  0.398600  0.138800  0.688300  1
  H  H307  1  0.898600  0.361200  0.311700  1
  H  H308  1  0.601400  0.638800  0.811700  1
  H  H309  1  0.157400  0.958200  0.203000  1
  H  H310  1  0.342600  0.041800  0.703000  1
  H  H311  1  0.842600  0.458200  0.297000  1
  H  H312  1  0.657400  0.541800  0.797000  1
  H  H313  1  0.086700  0.043300  0.221500  1
  H  H314  1  0.413300  0.956700  0.721500  1
  H  H315  1  0.913300  0.543300  0.278500  1
  H  H316  1  0.586700  0.456700  0.778500  1
  H  H317  1  0.840200  0.096700  0.327300  1
  H  H318  1  0.659800  0.903300  0.827300  1
  H  H319  1  0.159800  0.596700  0.172700  1
  H  H320  1  0.340200  0.403300  0.672700  1
  H  H321  1  0.849200  0.098500  0.412900  1
  H  H322  1  0.650800  0.901500  0.912900  1
  H  H323  1  0.150800  0.598500  0.087100  1
  H  H324  1  0.349200  0.401500  0.587100  1
  H  H325  1  0.955300  0.075700  0.451600  1
  H  H326  1  0.544700  0.924300  0.951600  1
  H  H327  1  0.044700  0.575700  0.048400  1
  H  H328  1  0.455300  0.424300  0.548400  1
  H  H329  1  0.057500  0.046700  0.406500  1
  H  H330  1  0.442500  0.953300  0.906500  1
  H  H331  1  0.942500  0.546700  0.093500  1
  H  H332  1  0.557500  0.453300  0.593500  1
  H  H333  1  0.049200  0.039200  0.319200  1
  H  H334  1  0.450800  0.960800  0.819200  1
  H  H335  1  0.950800  0.539200  0.180800  1
  H  H336  1  0.549200  0.460800  0.680800  1
  H  H337  1  0.979100  0.281300  0.501500  1
  H  H338  1  0.520900  0.718700  0.001500  1
  H  H339  1  0.020900  0.781300  0.998500  1
  H  H340  1  0.479100  0.218700  0.498500  1
  H  H341  1  0.884600  0.331500  0.464100  1
  H  H342  1  0.615400  0.668500  0.964100  1
  H  H343  1  0.115400  0.831500  0.035900  1
  H  H344  1  0.384600  0.168500  0.535900  1
  H  H345  1  0.923600  0.317300  0.412700  1
  H  H346  1  0.576400  0.682700  0.912700  1
  H  H347  1  0.076400  0.817300  0.087300  1
  H  H348  1  0.423600  0.182700  0.587300  1
  H  H349  1  0.903300  0.387200  0.427200  1
  H  H350  1  0.596700  0.612800  0.927200  1
  H  H351  1  0.096700  0.887200  0.072800  1
  H  H352  1  0.403300  0.112800  0.572800  1
  H  H353  1  0.090200  0.381700  0.433300  1
  H  H354  1  0.409800  0.618300  0.933300  1
  H  H355  1  0.909800  0.881700  0.066700  1
  H  H356  1  0.590200  0.118300  0.566700  1
  H  H357  1  0.023100  0.419800  0.412100  1
  H  H358  1  0.476900  0.580200  0.912100  1
  H  H359  1  0.976900  0.919800  0.087900  1
  H  H360  1  0.523100  0.080200  0.587900  1
  H  H361  1  0.036900  0.349900  0.394500  1
  H  H362  1  0.463100  0.650100  0.894500  1
  H  H363  1  0.963100  0.849900  0.105500  1
  H  H364  1  0.536900  0.150100  0.605500  1
  H  H365  1  0.992300  0.383000  0.494300  1
  H  H366  1  0.507700  0.617000  0.994300  1
  H  H367  1  0.007700  0.883000  0.005700  1
  H  H368  1  0.492300  0.117000  0.505700  1
  H  H369  1  0.308600  0.408800  0.262900  1
  H  H370  1  0.191400  0.591200  0.762900  1
  H  H371  1  0.691400  0.908800  0.237100  1
  H  H372  1  0.808600  0.091200  0.737100  1
  H  H373  1  0.297300  0.374800  0.350900  1
  H  H374  1  0.202700  0.625200  0.850900  1
  H  H375  1  0.702700  0.874800  0.149100  1
  H  H376  1  0.797300  0.125200  0.649100  1
  H  H377  1  0.166400  0.392900  0.332700  1
  H  H378  1  0.333600  0.607100  0.832700  1
  H  H379  1  0.833600  0.892900  0.167300  1
  H  H380  1  0.666400  0.107100  0.667300  1
  H  H381  1  0.187300  0.326100  0.354200  1
  H  H382  1  0.312700  0.673900  0.854200  1
  H  H383  1  0.812700  0.826100  0.145800  1
  H  H384  1  0.687300  0.173900  0.645800  1
  H  H385  1  0.173200  0.334600  0.296400  1
  H  H386  1  0.326800  0.665400  0.796400  1
  H  H387  1  0.826800  0.834600  0.203600  1
  H  H388  1  0.673200  0.165400  0.703600  1
  H  H389  1  0.353900  0.317300  0.282000  1
  H  H390  1  0.146100  0.682700  0.782000  1
  H  H391  1  0.646100  0.817300  0.218000  1
  H  H392  1  0.853900  0.182700  0.718000  1
  H  H393  1  0.275000  0.300100  0.263000  1
  H  H394  1  0.225000  0.699900  0.763000  1
  H  H395  1  0.725000  0.800100  0.237000  1
  H  H396  1  0.775000  0.199900  0.737000  1
  H  H397  1  0.302600  0.274600  0.315100  1
  H  H398  1  0.197400  0.725400  0.815100  1
  H  H399  1  0.697400  0.774600  0.184900  1
  H  H400  1  0.802600  0.225400  0.684900  1
  Pd  Pd401  1  0.500520  0.165924  0.204547  1
  Pd  Pd402  1  0.999480  0.834076  0.704547  1
  Pd  Pd403  1  0.499480  0.665924  0.295453  1
  Pd  Pd404  1  0.000520  0.334076  0.795453  1
  Pd  Pd405  1  0.977540  0.157089  0.215207  1
  Pd  Pd406  1  0.522460  0.842911  0.715207  1
  Pd  Pd407  1  0.022460  0.657089  0.284793  1
  Pd  Pd408  1  0.477540  0.342911  0.784793  1
  C  C409  1  0.385200  0.255500  0.172800  1
  C  C410  1  0.114800  0.744500  0.672800  1
  C  C411  1  0.614800  0.755500  0.327200  1
  C  C412  1  0.885200  0.244500  0.827200  1
  C  C413  1  0.350500  0.311100  0.164100  1
  C  C414  1  0.149500  0.688900  0.664100  1
  C  C415  1  0.649500  0.811100  0.335900  1
  C  C416  1  0.850500  0.188900  0.835900  1
  C  C417  1  0.385500  0.366700  0.172700  1
  C  C418  1  0.114500  0.633300  0.672700  1
  C  C419  1  0.614500  0.866700  0.327300  1
  C  C420  1  0.885500  0.133300  0.827300  1
  C  C421  1  0.457000  0.363000  0.189800  1
  C  C422  1  0.043000  0.637000  0.689800  1
  C  C423  1  0.543000  0.863000  0.310200  1
  C  C424  1  0.957000  0.137000  0.810200  1
  C  C425  1  0.488400  0.306100  0.197300  1
  C  C426  1  0.011600  0.693900  0.697300  1
  C  C427  1  0.511600  0.806100  0.302700  1
  C  C428  1  0.988400  0.193900  0.802700  1
  C  C429  1  0.350700  0.428900  0.166700  1
  C  C430  1  0.149300  0.571100  0.666700  1
  C  C431  1  0.649300  0.928900  0.333300  1
  C  C432  1  0.850700  0.071100  0.833300  1
  C  C433  1  0.220200  0.424200  0.157300  1
  C  C434  1  0.279800  0.575800  0.657300  1
  C  C435  1  0.779800  0.924200  0.342700  1
  C  C436  1  0.720200  0.075800  0.842700  1
  C  C437  1  0.091000  0.419600  0.140500  1
  C  C438  1  0.409000  0.580400  0.640500  1
  C  C439  1  0.909000  0.919600  0.359500  1
  C  C440  1  0.591000  0.080400  0.859500  1
  C  C441  1  0.065100  0.357000  0.155900  1
  C  C442  1  0.434900  0.643000  0.655900  1
  C  C443  1  0.934900  0.857000  0.344100  1
  C  C444  1  0.565100  0.143000  0.844100  1
  C  C445  1  0.107900  0.303200  0.154600  1
  C  C446  1  0.392100  0.696800  0.654600  1
  C  C447  1  0.892100  0.803200  0.345400  1
  C  C448  1  0.607900  0.196800  0.845400  1
  C  C449  1  0.080100  0.247900  0.171800  1
  C  C450  1  0.419900  0.752100  0.671800  1
  C  C451  1  0.919900  0.747900  0.328200  1
  C  C452  1  0.580100  0.252100  0.828200  1
  C  C453  1  0.970400  0.293500  0.189200  1
  C  C454  1  0.529600  0.706500  0.689200  1
  C  C455  1  0.029600  0.793500  0.310800  1
  C  C456  1  0.470400  0.206500  0.810800  1
  C  C457  1  0.994600  0.350600  0.173200  1
  C  C458  1  0.505400  0.649400  0.673200  1
  C  C459  1  0.005400  0.850600  0.326800  1
  C  C460  1  0.494600  0.149400  0.826800  1
  C  C461  1  0.099400  0.170900  0.288000  1
  C  C462  1  0.400600  0.829100  0.788000  1
  C  C463  1  0.900600  0.670900  0.212000  1
  C  C464  1  0.599400  0.329100  0.712000  1
  C  C465  1  0.133900  0.179900  0.332200  1
  C  C466  1  0.366100  0.820100  0.832200  1
  C  C467  1  0.866100  0.679900  0.167800  1
  C  C468  1  0.633900  0.320100  0.667800  1
  C  C469  1  0.094200  0.202200  0.372900  1
  C  C470  1  0.405800  0.797800  0.872900  1
  C  C471  1  0.905800  0.702200  0.127100  1
  C  C472  1  0.594200  0.297800  0.627100  1
  C  C473  1  0.023100  0.215700  0.365000  1
  C  C474  1  0.476900  0.784300  0.865000  1
  C  C475  1  0.976900  0.715700  0.135000  1
  C  C476  1  0.523100  0.284300  0.635000  1
  C  C477  1  0.990900  0.205100  0.319100  1
  C  C478  1  0.509100  0.794900  0.819100  1
  C  C479  1  0.009100  0.705100  0.180900  1
  C  C480  1  0.490900  0.294900  0.680900  1
  C  C481  1  0.128100  0.209200  0.422600  1
  C  C482  1  0.371900  0.790800  0.922600  1
  C  C483  1  0.871900  0.709200  0.077400  1
  C  C484  1  0.628100  0.290800  0.577400  1
  C  C485  1  0.258600  0.202500  0.427900  1
  C  C486  1  0.241400  0.797500  0.927900  1
  C  C487  1  0.741400  0.702500  0.072100  1
  C  C488  1  0.758600  0.297500  0.572100  1
  C  C489  1  0.387000  0.184500  0.425900  1
  C  C490  1  0.113000  0.815500  0.925900  1
  C  C491  1  0.613000  0.684500  0.074100  1
  C  C492  1  0.887000  0.315500  0.574100  1
  C  C493  1  0.410000  0.185400  0.372600  1
  C  C494  1  0.090000  0.814600  0.872600  1
  C  C495  1  0.590000  0.685400  0.127400  1
  C  C496  1  0.910000  0.314600  0.627400  1
  C  C497  1  0.367300  0.160800  0.335200  1
  C  C498  1  0.132700  0.839200  0.835200  1
  C  C499  1  0.632700  0.660800  0.164800  1
  C  C500  1  0.867300  0.339200  0.664800  1
  C  C501  1  0.392500  0.159000  0.287600  1
  C  C502  1  0.107500  0.841000  0.787600  1
  C  C503  1  0.607500  0.659000  0.212400  1
  C  C504  1  0.892500  0.341000  0.712400  1
  C  C505  1  0.500900  0.203000  0.311800  1
  C  C506  1  0.999100  0.797000  0.811800  1
  C  C507  1  0.499100  0.703000  0.188200  1
  C  C508  1  0.000900  0.297000  0.688200  1
  C  C509  1  0.477100  0.207300  0.359900  1
  C  C510  1  0.022900  0.792700  0.859900  1
  C  C511  1  0.522900  0.707300  0.140100  1
  C  C512  1  0.977100  0.292700  0.640100  1
  C  C513  1  0.639300  0.129600  0.126900  1
  C  C514  1  0.860700  0.870400  0.626900  1
  C  C515  1  0.360700  0.629600  0.373100  1
  C  C516  1  0.139300  0.370400  0.873100  1
  C  C517  1  0.643400  0.063500  0.145800  1
  C  C518  1  0.856600  0.936500  0.645800  1
  C  C519  1  0.356600  0.563500  0.354200  1
  C  C520  1  0.143400  0.436500  0.854200  1
  C  C521  1  0.640300  0.059900  0.202800  1
  C  C522  1  0.859700  0.940100  0.702800  1
  C  C523  1  0.359700  0.559900  0.297200  1
  C  C524  1  0.140300  0.440100  0.797200  1
  C  C525  1  0.499300  0.113100  0.083900  1
  C  C526  1  0.000700  0.886900  0.583900  1
  C  C527  1  0.500700  0.613100  0.416100  1
  C  C528  1  0.999300  0.386900  0.916100  1
  C  C529  1  0.530900  0.094600  0.040100  1
  C  C530  1  0.969100  0.905400  0.540100  1
  C  C531  1  0.469100  0.594600  0.459900  1
  C  C532  1  0.030900  0.405400  0.959900  1
  C  C533  1  0.495500  0.058400  0.007000  1
  C  C534  1  0.004500  0.941600  0.507000  1
  C  C535  1  0.504500  0.558400  0.493000  1
  C  C536  1  0.995500  0.441600  0.993000  1
  C  C537  1  0.427200  0.039700  0.015600  1
  C  C538  1  0.072800  0.960300  0.515600  1
  C  C539  1  0.572800  0.539700  0.484400  1
  C  C540  1  0.927200  0.460300  0.984400  1
  C  C541  1  0.393400  0.056600  0.060800  1
  C  C542  1  0.106600  0.943400  0.560800  1
  C  C543  1  0.606600  0.556600  0.439200  1
  C  C544  1  0.893400  0.443400  0.939200  1
  C  C545  1  0.429900  0.093800  0.093900  1
  C  C546  1  0.070100  0.906200  0.593900  1
  C  C547  1  0.570100  0.593800  0.406100  1
  C  C548  1  0.929900  0.406200  0.906100  1
  C  C549  1  0.556600  0.237800  0.101600  1
  C  C550  1  0.943400  0.762200  0.601600  1
  C  C551  1  0.443400  0.737800  0.398400  1
  C  C552  1  0.056600  0.262200  0.898400  1
  C  C553  1  0.501700  0.260500  0.071900  1
  C  C554  1  0.998300  0.739500  0.571900  1
  C  C555  1  0.498300  0.760500  0.428100  1
  C  C556  1  0.001700  0.239500  0.928100  1
  C  C557  1  0.505000  0.321600  0.054400  1
  C  C558  1  0.995000  0.678400  0.554400  1
  C  C559  1  0.495000  0.821600  0.445600  1
  C  C560  1  0.005000  0.178400  0.945600  1
  C  C561  1  0.564900  0.358100  0.064800  1
  C  C562  1  0.935100  0.641900  0.564800  1
  C  C563  1  0.435100  0.858100  0.435200  1
  C  C564  1  0.064900  0.141900  0.935200  1
  C  C565  1  0.619500  0.335200  0.096000  1
  C  C566  1  0.880500  0.664800  0.596000  1
  C  C567  1  0.380500  0.835200  0.404000  1
  C  C568  1  0.119500  0.164800  0.904000  1
  C  C569  1  0.614900  0.274100  0.113300  1
  C  C570  1  0.885100  0.725900  0.613300  1
  C  C571  1  0.385100  0.774100  0.386700  1
  C  C572  1  0.114900  0.225900  0.886700  1
  C  C573  1  0.557800  0.067000  0.292000  1
  C  C574  1  0.942200  0.933000  0.792000  1
  C  C575  1  0.442200  0.567000  0.208000  1
  C  C576  1  0.057800  0.433000  0.708000  1
  C  C577  1  0.501000  0.042100  0.319900  1
  C  C578  1  0.999000  0.957900  0.819900  1
  C  C579  1  0.499000  0.542100  0.180100  1
  C  C580  1  0.001000  0.457900  0.680100  1
  C  C581  1  0.503500  0.042100  0.371400  1
  C  C582  1  0.996500  0.957900  0.871400  1
  C  C583  1  0.496500  0.542100  0.128600  1
  C  C584  1  0.003500  0.457900  0.628600  1
  C  C585  1  0.565600  0.065500  0.395100  1
  C  C586  1  0.934400  0.934500  0.895100  1
  C  C587  1  0.434400  0.565500  0.104900  1
  C  C588  1  0.065600  0.434500  0.604900  1
  C  C589  1  0.621800  0.088900  0.367800  1
  C  C590  1  0.878200  0.911100  0.867800  1
  C  C591  1  0.378200  0.588900  0.132200  1
  C  C592  1  0.121800  0.411100  0.632200  1
  C  C593  1  0.618100  0.090800  0.316700  1
  C  C594  1  0.881900  0.909200  0.816700  1
  C  C595  1  0.381900  0.590800  0.183300  1
  C  C596  1  0.118100  0.409200  0.683300  1
  C  C597  1  0.497500  0.006700  0.206300  1
  C  C598  1  0.002500  0.993300  0.706300  1
  C  C599  1  0.502500  0.506700  0.293700  1
  C  C600  1  0.997500  0.493300  0.793700  1
  C  C601  1  0.530500  0.948400  0.199400  1
  C  C602  1  0.969500  0.051600  0.699400  1
  C  C603  1  0.469500  0.448400  0.300600  1
  C  C604  1  0.030500  0.551600  0.800600  1
  C  C605  1  0.487400  0.897800  0.185400  1
  C  C606  1  0.012600  0.102200  0.685400  1
  C  C607  1  0.512600  0.397800  0.314600  1
  C  C608  1  0.987400  0.602200  0.814600  1
  C  C609  1  0.415800  0.903500  0.179100  1
  C  C610  1  0.084200  0.096500  0.679100  1
  C  C611  1  0.584200  0.403500  0.320900  1
  C  C612  1  0.915800  0.596500  0.820900  1
  C  C613  1  0.383800  0.958600  0.187000  1
  C  C614  1  0.116200  0.041400  0.687000  1
  C  C615  1  0.616200  0.458600  0.313000  1
  C  C616  1  0.883800  0.541400  0.813000  1
  C  C617  1  0.424800  0.010800  0.198400  1
  C  C618  1  0.075200  0.989200  0.698400  1
  C  C619  1  0.575200  0.510800  0.301600  1
  C  C620  1  0.924800  0.489200  0.801600  1
  C  C621  1  0.834000  0.100500  0.149900  1
  C  C622  1  0.666000  0.899500  0.649900  1
  C  C623  1  0.166000  0.600500  0.350100  1
  C  C624  1  0.334000  0.399500  0.850100  1
  C  C625  1  0.835400  0.037800  0.177000  1
  C  C626  1  0.664600  0.962200  0.677000  1
  C  C627  1  0.164600  0.537800  0.323000  1
  C  C628  1  0.335400  0.462200  0.823000  1
  C  C629  1  0.847400  0.047000  0.232700  1
  C  C630  1  0.652600  0.953000  0.732700  1
  C  C631  1  0.152600  0.547000  0.267300  1
  C  C632  1  0.347400  0.453000  0.767300  1
  C  C633  1  0.970300  0.088200  0.100300  1
  C  C634  1  0.529700  0.911800  0.600300  1
  C  C635  1  0.029700  0.588200  0.399700  1
  C  C636  1  0.470300  0.411800  0.899700  1
  C  C637  1  0.936900  0.069200  0.056900  1
  C  C638  1  0.563100  0.930800  0.556900  1
  C  C639  1  0.063100  0.569200  0.443100  1
  C  C640  1  0.436900  0.430800  0.943100  1
  C  C641  1  0.974000  0.034200  0.021800  1
  C  C642  1  0.526000  0.965800  0.521800  1
  C  C643  1  0.026000  0.534200  0.478200  1
  C  C644  1  0.474000  0.465800  0.978200  1
  C  C645  1  0.045500  0.018500  0.031300  1
  C  C646  1  0.454500  0.981500  0.531300  1
  C  C647  1  0.954500  0.518500  0.468700  1
  C  C648  1  0.545500  0.481500  0.968700  1
  C  C649  1  0.078300  0.034900  0.075500  1
  C  C650  1  0.421700  0.965100  0.575500  1
  C  C651  1  0.921700  0.534900  0.424500  1
  C  C652  1  0.578300  0.465100  0.924500  1
  C  C653  1  0.040900  0.071900  0.109200  1
  C  C654  1  0.459100  0.928100  0.609200  1
  C  C655  1  0.959100  0.571900  0.390800  1
  C  C656  1  0.540900  0.428100  0.890800  1
  C  C657  1  0.903800  0.207400  0.108500  1
  C  C658  1  0.596200  0.792600  0.608500  1
  C  C659  1  0.096200  0.707400  0.391500  1
  C  C660  1  0.403800  0.292600  0.891500  1
  C  C661  1  0.954300  0.229600  0.076000  1
  C  C662  1  0.545700  0.770400  0.576000  1
  C  C663  1  0.045700  0.729600  0.424000  1
  C  C664  1  0.454300  0.270400  0.924000  1
  C  C665  1  0.944700  0.286600  0.052700  1
  C  C666  1  0.555300  0.713400  0.552700  1
  C  C667  1  0.055300  0.786600  0.447300  1
  C  C668  1  0.444700  0.213400  0.947300  1
  C  C669  1  0.881800  0.320400  0.061700  1
  C  C670  1  0.618200  0.679600  0.561700  1
  C  C671  1  0.118200  0.820400  0.438300  1
  C  C672  1  0.381800  0.179600  0.938300  1
  C  C673  1  0.829900  0.298700  0.095700  1
  C  C674  1  0.670100  0.701300  0.595700  1
  C  C675  1  0.170100  0.798700  0.404300  1
  C  C676  1  0.329900  0.201300  0.904300  1
  C  C677  1  0.841600  0.241300  0.118600  1
  C  C678  1  0.658400  0.758700  0.618600  1
  C  C679  1  0.158400  0.741300  0.381400  1
  C  C680  1  0.341600  0.258700  0.881400  1
  C  C681  1  0.992800  0.998100  0.229300  1
  C  C682  1  0.507200  0.001900  0.729300  1
  C  C683  1  0.007200  0.498100  0.270700  1
  C  C684  1  0.492800  0.501900  0.770700  1
  C  C685  1  0.958900  0.939300  0.224700  1
  C  C686  1  0.541100  0.060700  0.724700  1
  C  C687  1  0.041100  0.439300  0.275300  1
  C  C688  1  0.458900  0.560700  0.775300  1
  C  C689  1  0.999900  0.889100  0.208900  1
  C  C690  1  0.500100  0.110900  0.708900  1
  C  C691  1  0.000100  0.389100  0.291100  1
  C  C692  1  0.499900  0.610900  0.791100  1
  C  C693  1  0.074000  0.895700  0.199500  1
  C  C694  1  0.426000  0.104300  0.699500  1
  C  C695  1  0.926000  0.395700  0.300500  1
  C  C696  1  0.574000  0.604300  0.800500  1
  C  C697  1  0.107000  0.953600  0.206800  1
  C  C698  1  0.393000  0.046400  0.706800  1
  C  C699  1  0.893000  0.453600  0.293200  1
  C  C700  1  0.607000  0.546400  0.793200  1
  C  C701  1  0.065000  0.003400  0.219500  1
  C  C702  1  0.435000  0.996600  0.719500  1
  C  C703  1  0.935000  0.503400  0.280500  1
  C  C704  1  0.565000  0.496600  0.780500  1
  C  C705  1  0.944400  0.066600  0.313700  1
  C  C706  1  0.555600  0.933400  0.813700  1
  C  C707  1  0.055600  0.566600  0.186300  1
  C  C708  1  0.444400  0.433400  0.686300  1
  C  C709  1  0.884100  0.085500  0.342800  1
  C  C710  1  0.615900  0.914500  0.842800  1
  C  C711  1  0.115900  0.585500  0.157200  1
  C  C712  1  0.384100  0.414500  0.657200  1
  C  C713  1  0.889900  0.087300  0.393700  1
  C  C714  1  0.610100  0.912700  0.893700  1
  C  C715  1  0.110100  0.587300  0.106300  1
  C  C716  1  0.389900  0.412700  0.606300  1
  C  C717  1  0.952700  0.073400  0.416700  1
  C  C718  1  0.547300  0.926600  0.916700  1
  C  C719  1  0.047300  0.573400  0.083300  1
  C  C720  1  0.452700  0.426600  0.583300  1
  C  C721  1  0.013600  0.055800  0.390100  1
  C  C722  1  0.486400  0.944200  0.890100  1
  C  C723  1  0.986400  0.555800  0.109900  1
  C  C724  1  0.513600  0.444200  0.609900  1
  C  C725  1  0.008600  0.051900  0.337800  1
  C  C726  1  0.491400  0.948100  0.837800  1
  C  C727  1  0.991400  0.551900  0.162200  1
  C  C728  1  0.508600  0.448100  0.662200  1
  C  C729  1  0.731400  0.304500  0.249800  1
  C  C730  1  0.768600  0.695500  0.749800  1
  C  C731  1  0.268600  0.804500  0.250200  1
  C  C732  1  0.231400  0.195500  0.750200  1
  C  C733  1  0.231600  0.157200  0.109100  1
  C  C734  1  0.268400  0.842800  0.609100  1
  C  C735  1  0.768400  0.657200  0.390900  1
  C  C736  1  0.731600  0.342800  0.890900  1
  C  C737  1  0.235200  0.989200  0.352900  1
  C  C738  1  0.264800  0.010800  0.852900  1
  C  C739  1  0.764800  0.489200  0.147100  1
  C  C740  1  0.735200  0.510800  0.647100  1
  C  C741  1  0.252900  0.334500  0.011400  1
  C  C742  1  0.247100  0.665500  0.511400  1
  C  C743  1  0.747100  0.834500  0.488600  1
  C  C744  1  0.752900  0.165500  0.988600  1
  C  C745  1  0.919500  0.347000  0.440000  1
  C  C746  1  0.580500  0.653000  0.940000  1
  C  C747  1  0.080500  0.847000  0.060000  1
  C  C748  1  0.419500  0.153000  0.560000  1
  C  C749  1  0.040100  0.378700  0.422400  1
  C  C750  1  0.459900  0.621300  0.922400  1
  C  C751  1  0.959900  0.878700  0.077600  1
  C  C752  1  0.540100  0.121300  0.577600  1
  C  C753  1  0.993200  0.354700  0.465000  1
  C  C754  1  0.506800  0.645300  0.965000  1
  C  C755  1  0.006800  0.854700  0.035000  1
  C  C756  1  0.493200  0.145300  0.535000  1
  C  C757  1  0.273300  0.369100  0.318200  1
  C  C758  1  0.226700  0.630900  0.818200  1
  C  C759  1  0.726700  0.869100  0.181800  1
  C  C760  1  0.773300  0.130900  0.681800  1
  C  C761  1  0.192600  0.354300  0.326100  1
  C  C762  1  0.307400  0.645700  0.826100  1
  C  C763  1  0.807400  0.854300  0.173900  1
  C  C764  1  0.692600  0.145700  0.673900  1
  C  C765  1  0.304100  0.309700  0.292100  1
  C  C766  1  0.195900  0.690300  0.792100  1
  C  C767  1  0.695900  0.809700  0.207900  1
  C  C768  1  0.804100  0.190300  0.707900  1
  S  S769  1  0.764180  0.224010  0.263180  1
  S  S770  1  0.735820  0.775990  0.763180  1
  S  S771  1  0.235820  0.724010  0.236820  1
  S  S772  1  0.264180  0.275990  0.736820  1
  S  S773  1  0.238700  0.104110  0.160630  1
  S  S774  1  0.261300  0.895890  0.660630  1
  S  S775  1  0.761300  0.604110  0.339370  1
  S  S776  1  0.738700  0.395890  0.839370  1
  S  S777  1  0.250870  0.998740  0.417990  1
  S  S778  1  0.249130  0.001260  0.917990  1
  S  S779  1  0.749130  0.498740  0.082010  1
  S  S780  1  0.750870  0.501260  0.582010  1
  S  S781  1  0.246770  0.420800  0.003600  1
  S  S782  1  0.253230  0.579200  0.503600  1
  S  S783  1  0.753230  0.920800  0.496400  1
  S  S784  1  0.746770  0.079200  0.996400  1
  N  N785  1  0.453400  0.252670  0.188760  1
  N  N786  1  0.046600  0.747330  0.688760  1
  N  N787  1  0.546600  0.752670  0.311240  1
  N  N788  1  0.953400  0.247330  0.811240  1
  N  N789  1  0.286600  0.428300  0.137600  1
  N  N790  1  0.213400  0.571700  0.637600  1
  N  N791  1  0.713400  0.928300  0.362400  1
  N  N792  1  0.786600  0.071700  0.862400  1
  N  N793  1  0.165100  0.420300  0.124100  1
  N  N794  1  0.334900  0.579700  0.624100  1
  N  N795  1  0.834900  0.920300  0.375900  1
  N  N796  1  0.665100  0.079700  0.875900  1
  N  N797  1  0.013200  0.242550  0.188140  1
  N  N798  1  0.486800  0.757450  0.688140  1
  N  N799  1  0.986800  0.742550  0.311860  1
  N  N800  1  0.513200  0.257450  0.811860  1
  N  N801  1  0.029400  0.181860  0.281560  1
  N  N802  1  0.470600  0.818140  0.781560  1
  N  N803  1  0.970600  0.681860  0.218440  1
  N  N804  1  0.529400  0.318140  0.718440  1
  N  N805  1  0.194200  0.175300  0.430000  1
  N  N806  1  0.305800  0.824700  0.930000  1
  N  N807  1  0.805800  0.675300  0.070000  1
  N  N808  1  0.694200  0.324700  0.570000  1
  N  N809  1  0.315100  0.163600  0.435100  1
  N  N810  1  0.184900  0.836400  0.935100  1
  N  N811  1  0.684900  0.663600  0.064900  1
  N  N812  1  0.815100  0.336400  0.564900  1
  N  N813  1  0.459200  0.178000  0.276250  1
  N  N814  1  0.040800  0.822000  0.776250  1
  N  N815  1  0.540800  0.678000  0.223750  1
  N  N816  1  0.959200  0.322000  0.723750  1
  O  O817  1  0.208400  0.421700  0.202540  1
  O  O818  1  0.291600  0.578300  0.702540  1
  O  O819  1  0.791600  0.921700  0.297460  1
  O  O820  1  0.708400  0.078300  0.797460  1
  O  O821  1  0.265100  0.259300  0.421300  1
  O  O822  1  0.234900  0.740700  0.921300  1
  O  O823  1  0.734900  0.759300  0.078700  1
  O  O824  1  0.765100  0.240700  0.578700  1
  O  O825  1  0.839700  0.230700  0.257200  1
  O  O826  1  0.660300  0.769300  0.757200  1
  O  O827  1  0.160300  0.730700  0.242800  1
  O  O828  1  0.339700  0.269300  0.742800  1
  O  O829  1  0.728400  0.192800  0.223500  1
  O  O830  1  0.771600  0.807200  0.723500  1
  O  O831  1  0.271600  0.692800  0.276500  1
  O  O832  1  0.228400  0.307200  0.776500  1
  O  O833  1  0.740300  0.210800  0.312500  1
  O  O834  1  0.759700  0.789200  0.812500  1
  O  O835  1  0.259700  0.710800  0.187500  1
  O  O836  1  0.240300  0.289200  0.687500  1
  O  O837  1  0.173600  0.117000  0.187400  1
  O  O838  1  0.326400  0.883000  0.687400  1
  O  O839  1  0.826400  0.617000  0.312600  1
  O  O840  1  0.673600  0.383000  0.812600  1
  O  O841  1  0.240000  0.043000  0.138100  1
  O  O842  1  0.260000  0.957000  0.638100  1
  O  O843  1  0.760000  0.543000  0.361900  1
  O  O844  1  0.740000  0.457000  0.861900  1
  O  O845  1  0.305500  0.121000  0.183100  1
  O  O846  1  0.194500  0.879000  0.683100  1
  O  O847  1  0.694500  0.621000  0.316900  1
  O  O848  1  0.805500  0.379000  0.816900  1
  O  O849  1  0.192100  0.039600  0.433200  1
  O  O850  1  0.307900  0.960400  0.933200  1
  O  O851  1  0.807900  0.539600  0.066800  1
  O  O852  1  0.692100  0.460400  0.566800  1
  O  O853  1  0.319700  0.030900  0.421700  1
  O  O854  1  0.180300  0.969100  0.921700  1
  O  O855  1  0.680300  0.530900  0.078300  1
  O  O856  1  0.819700  0.469100  0.578300  1
  O  O857  1  0.248100  0.935900  0.438400  1
  O  O858  1  0.251900  0.064100  0.938400  1
  O  O859  1  0.751900  0.435900  0.061600  1
  O  O860  1  0.748100  0.564100  0.561600  1
  O  O861  1  0.252000  0.426500  0.951040  1
  O  O862  1  0.248000  0.573500  0.451040  1
  O  O863  1  0.748000  0.926500  0.548960  1
  O  O864  1  0.752000  0.073500  0.048960  1
  O  O865  1  0.304200  0.447400  0.032500  1
  O  O866  1  0.195800  0.552600  0.532500  1
  O  O867  1  0.695800  0.947400  0.467500  1
  O  O868  1  0.804200  0.052600  0.967500  1
  O  O869  1  0.175700  0.434100  0.023300  1
  O  O870  1  0.324300  0.565900  0.523300  1
  O  O871  1  0.824300  0.934100  0.476700  1
  O  O872  1  0.675700  0.065900  0.976700  1
  O  O873  1  0.005000  0.291000  0.477300  1
  O  O874  1  0.495000  0.709000  0.977300  1
  O  O875  1  0.995000  0.791000  0.022700  1
  O  O876  1  0.505000  0.209000  0.522700  1
  O  O877  1  0.286900  0.420200  0.288500  1
  O  O878  1  0.213100  0.579800  0.788500  1
  O  O879  1  0.713100  0.920200  0.211500  1
  O  O880  1  0.786900  0.079800  0.711500  1
  F  F881  1  0.754300  0.345100  0.282100  1
  F  F882  1  0.745700  0.654900  0.782100  1
  F  F883  1  0.245700  0.845100  0.217900  1
  F  F884  1  0.254300  0.154900  0.717900  1
  F  F885  1  0.752800  0.322300  0.208900  1
  F  F886  1  0.747200  0.677700  0.708900  1
  F  F887  1  0.247200  0.822300  0.291100  1
  F  F888  1  0.252800  0.177700  0.791100  1
  F  F889  1  0.659800  0.301600  0.254400  1
  F  F890  1  0.840200  0.698400  0.754400  1
  F  F891  1  0.340200  0.801600  0.245600  1
  F  F892  1  0.159800  0.198400  0.745600  1
  F  F893  1  0.171400  0.156000  0.085100  1
  F  F894  1  0.328600  0.844000  0.585100  1
  F  F895  1  0.828600  0.656000  0.414900  1
  F  F896  1  0.671400  0.344000  0.914900  1
  F  F897  1  0.287000  0.157500  0.079200  1
  F  F898  1  0.213000  0.842500  0.579200  1
  F  F899  1  0.713000  0.657500  0.420800  1
  F  F900  1  0.787000  0.342500  0.920800  1
  F  F901  1  0.234800  0.217200  0.122400  1
  F  F902  1  0.265200  0.782800  0.622400  1
  F  F903  1  0.765200  0.717200  0.377600  1
  F  F904  1  0.734800  0.282800  0.877600  1
  F  F905  1  0.236200  0.045300  0.331700  1
  F  F906  1  0.263800  0.954700  0.831700  1
  F  F907  1  0.763800  0.545300  0.168300  1
  F  F908  1  0.736200  0.454700  0.668300  1
  F  F909  1  0.285900  0.955000  0.332700  1
  F  F910  1  0.214100  0.045000  0.832700  1
  F  F911  1  0.714100  0.455000  0.167300  1
  F  F912  1  0.785900  0.545000  0.667300  1
  F  F913  1  0.172100  0.962300  0.343500  1
  F  F914  1  0.327900  0.037700  0.843500  1
  F  F915  1  0.827900  0.462300  0.156500  1
  F  F916  1  0.672100  0.537700  0.656500  1
  F  F917  1  0.210100  0.298300  0.984800  1
  F  F918  1  0.289900  0.701700  0.484800  1
  F  F919  1  0.789900  0.798300  0.515200  1
  F  F920  1  0.710100  0.201700  0.015200  1
  F  F921  1  0.244200  0.314100  0.057100  1
  F  F922  1  0.255800  0.685900  0.557100  1
  F  F923  1  0.755800  0.814100  0.442900  1
  F  F924  1  0.744200  0.185900  0.942900  1
  F  F925  1  0.319300  0.318600  0.000200  1
  F  F926  1  0.180700  0.681400  0.500200  1
  F  F927  1  0.680700  0.818600  0.499800  1
  F  F928  1  0.819300  0.181400  0.999800  1
