
#######################################################################
#
#                 Cambridge Crystallographic Data Centre
#                                CCDC 
#
#######################################################################
#
# If this CIF has been generated from an entry in the Cambridge 
# Structural Database, then it will include bibliographic, chemical, 
# crystal, experimental, refinement or atomic coordinate data resulting 
# from the CCDC's data processing and validation procedures.
#
#######################################################################

data_YIJCAW
_chemical_formula_moiety         
'C94 H84 Fe2 N8 O2 P4 Pd2 4+,4(C1 F3 O3 S1 1-),C1 H2 Cl2,3(H2 O1)'
_chemical_name_systematic        
"bis((\m~2~-N,N'-bis(4-Pyridylmethyl)urea)-(1,1'-bis(diphenylphosphino)ferrocene)-palladium(ii)) tetrakis(trifluoromethanesulfonate) dichloromethane solvate trihydrate"
_symmetry_cell_setting           triclinic
_symmetry_space_group_name_H-M   'P -1'
_symmetry_Int_Tables_number      2
_space_group_name_Hall           '-P 1'
loop_
_symmetry_equiv_pos_site_id
_symmetry_equiv_pos_as_xyz
1 x,y,z
2 -x,-y,-z
_cell_length_a                   15.828(3)
_cell_length_b                   16.901(3)
_cell_length_c                   20.704(4)
_cell_angle_alpha                71.936(4)
_cell_angle_beta                 86.141(4)
_cell_angle_gamma                87.923(4)
_cell_volume                     5252.89
_exptl_crystal_colour            colorless
_exptl_crystal_description       plate
_cell_formula_units_Z            2
_exptl_crystal_recrystallization_method acetone/isopropanol
loop_
_atom_site_label
_atom_site_type_symbol
_atom_site_fract_x
_atom_site_fract_y
_atom_site_fract_z
C1 C 0.8492(4) 0.9682(5) 0.6949(4)
H1 H 0.8315 0.9696 0.7393
Fe1 Fe 0.69593(6) 1.31241(7) 0.72405(7)
N1 N 0.8101(3) 1.0186(4) 0.6414(3)
O1 O 0.9838(4) 0.7056(5) 0.7115(4)
P1 P 0.81661(10) 1.19919(12) 0.64626(10)
Pd1 Pd 0.71477(3) 1.10179(4) 0.65455(3)
C2 C 0.9136(4) 0.9150(5) 0.6877(4)
H2 H 0.9402 0.8806 0.7266
Fe2 Fe 0.81603(6) 0.69020(7) 1.28615(6)
N2 N 1.0620(3) 0.8221(4) 0.6681(3)
H3 H 1.1083 0.8477 0.6710
O2 O 0.5693(4) 0.6702(5) 0.7701(5)
P2 P 0.59633(10) 1.18336(12) 0.66158(10)
Pd2 Pd 0.81496(3) 0.65211(3) 1.08939(3)
C3 C 0.9401(4) 0.9113(5) 0.6231(4)
N3 N 1.0796(4) 0.7358(5) 0.7767(4)
H4 H 1.1151 0.7724 0.7812
P3 P 0.92705(10) 0.66757(13) 1.14927(10)
C4 C 0.8960(4) 0.9615(5) 0.5669(4)
H5 H 0.9094 0.9592 0.5221
N4 N 0.8998(4) 0.6622(4) 1.0045(3)
P4 P 0.70733(10) 0.64241(12) 1.17194(11)
C5 C 0.8329(4) 1.0137(5) 0.5799(4)
H6 H 0.8039 1.0484 0.5425
N5 N 0.7245(4) 0.6274(4) 1.0285(4)
C6 C 1.0119(4) 0.8545(5) 0.6102(4)
H7 H 0.9878 0.8076 0.5987
H8 H 1.0487 0.8860 0.5707
N6 N 0.4906(5) 0.6354(5) 0.8701(5)
H9 H 0.4439 0.6445 0.8925
C7 C 1.0382(5) 0.7519(5) 0.7184(5)
N7 N 0.4546(5) 0.7496(5) 0.7824(5)
H10 H 0.4143 0.7608 0.8099
C8 C 1.0659(5) 0.6602(6) 0.8305(5)
H11 H 1.1212 0.6395 0.8493
H12 H 1.0450 0.6186 0.8109
N8 N 0.6321(3) 1.0026(4) 0.6704(4)
C9 C 1.0042(4) 0.6643(5) 0.8891(4)
C10 C 0.9728(5) 0.5911(5) 0.9338(4)
H13 H 0.9872 0.5397 0.9259
C11 C 0.9213(5) 0.5918(5) 0.9892(5)
H14 H 0.8997 0.5405 1.0183
C12 C 0.9270(5) 0.7335(5) 0.9592(4)
H15 H 0.9093 0.7845 0.9666
C13 C 0.9791(5) 0.7368(5) 0.9026(4)
H16 H 0.9978 0.7889 0.8728
C14 C 0.7082(4) 0.5493(5) 1.0329(5)
H17 H 0.7356 0.5051 1.0655
C15 C 0.6521(5) 0.5305(5) 0.9910(5)
H18 H 0.6418 0.4741 0.9953
C16 C 0.6115(5) 0.5928(5) 0.9437(5)
C17 C 0.6300(5) 0.6740(5) 0.9395(5)
H19 H 0.6029 0.7191 0.9076
C18 C 0.6874(5) 0.6899(5) 0.9814(4)
H20 H 0.7007 0.7458 0.9768
C19 C 0.5486(6) 0.5698(6) 0.9007(6)
H21 H 0.5803 0.5524 0.8644
H22 H 0.5160 0.5214 0.9297
C20 C 0.5097(5) 0.6820(6) 0.8066(6)
C21 C 0.4633(5) 0.7999(5) 0.7142(6)
H23 H 0.4068 0.8228 0.6996
H24 H 0.4830 0.7644 0.6859
C22 C 0.5237(5) 0.8714(5) 0.7003(6)
C23 C 0.5391(5) 0.9194(6) 0.6350(5)
H25 H 0.5123 0.9078 0.5993
C24 C 0.5935(4) 0.9845(6) 0.6206(5)
H26 H 0.6043 1.0176 0.5746
C25 C 0.6192(4) 0.9541(5) 0.7351(5)
H27 H 0.6482 0.9659 0.7696
C26 C 0.5652(4) 0.8880(5) 0.7529(5)
H28 H 0.5561 0.8546 0.7989
C27 C 0.8024(4) 1.2501(5) 0.7104(4)
C28 C 0.7588(4) 1.2091(5) 0.7754(4)
H29 H 0.7367 1.1511 0.7906
C29 C 0.7532(5) 1.2667(7) 0.8140(5)
H30 H 0.7247 1.2563 0.8605
C30 C 0.7928(5) 1.3402(7) 0.7753(6)
H31 H 0.7960 1.3917 0.7891
C31 C 0.8231(4) 1.3318(6) 0.7108(5)
H32 H 0.8526 1.3755 0.6727
C32 C 0.6414(4) 1.3523(5) 0.6333(5)
H33 H 0.6696 1.3566 0.5877
C33 C 0.5994(4) 1.2801(5) 0.6795(4)
C34 C 0.5673(4) 1.3016(5) 0.7386(5)
H34 H 0.5358 1.2639 0.7794
C35 C 0.5899(5) 1.3862(6) 0.7293(5)
H35 H 0.5778 1.4176 0.7627
C36 C 0.6349(5) 1.4160(6) 0.6651(6)
H36 H 0.6601 1.4725 0.6459
C37 C 0.9207(4) 1.1495(4) 0.6617(4)
C38 C 0.9420(4) 1.1104(5) 0.7274(4)
H37 H 0.9037 1.1116 0.7644
C39 C 1.0200(5) 1.0690(5) 0.7396(5)
H38 H 1.0351 1.0423 0.7850
C40 C 1.0753(4) 1.0670(5) 0.6855(5)
H39 H 1.1277 1.0376 0.6941
C41 C 1.0555(4) 1.1070(5) 0.6191(5)
H40 H 1.0948 1.1064 0.5825
C42 C 0.9776(4) 1.1482(5) 0.6062(4)
H41 H 0.9629 1.1751 0.5608
C43 C 0.8313(4) 1.2714(5) 0.5622(4)
C44 C 0.8856(7) 1.3400(7) 0.5469(6)
H42 H 0.9060 1.3566 0.5828
C45 C 0.9095(9) 1.3836(8) 0.4796(7)
H43 H 0.9473 1.4288 0.4695
C46 C 0.8779(9) 1.3607(9) 0.4283(7)
H44 H 0.8925 1.3926 0.3826
C47 C 0.8252(8) 1.2926(7) 0.4398(6)
H45 H 0.8066 1.2764 0.4031
C48 C 0.8007(6) 1.2486(7) 0.5079(5)
H46 H 0.7632 1.2032 0.5174
C49 C 0.5460(4) 1.2150(5) 0.5811(4)
C50 C 0.5796(4) 1.1928(5) 0.5251(4)
H47 H 0.6295 1.1590 0.5291
C51 C 0.5415(5) 1.2193(6) 0.4641(5)
H48 H 0.5653 1.2035 0.4265
C52 C 0.4688(5) 1.2687(6) 0.4568(5)
H49 H 0.4423 1.2869 0.4147
C53 C 0.4358(5) 1.2909(6) 0.5128(5)
H50 H 0.3855 1.3241 0.5086
C54 C 0.4730(4) 1.2669(5) 0.5732(4)
H51 H 0.4500 1.2849 0.6100
C55 C 0.5197(4) 1.1212(5) 0.7249(4)
C56 C 0.5360(4) 1.0974(5) 0.7932(4)
H52 H 0.5850 1.1174 0.8067
C57 C 0.4819(5) 1.0447(5) 0.8426(5)
H53 H 0.4928 1.0295 0.8895
C58 C 0.4107(5) 1.0146(5) 0.8208(5)
H54 H 0.3731 0.9783 0.8535
C59 C 0.3949(4) 1.0368(5) 0.7536(5)
H55 H 0.3462 1.0161 0.7402
C60 C 0.4485(4) 1.0890(5) 0.7045(4)
H56 H 0.4376 1.1030 0.6577
C61 C 0.9167(4) 0.6519(5) 1.2395(4)
C62 C 0.9433(4) 0.7101(6) 1.2712(5)
H57 H 0.9711 0.7646 1.2478
C63 C 0.9220(4) 0.6765(6) 1.3429(5)
H58 H 0.9308 0.7042 1.3781
C64 C 0.8823(5) 0.5986(6) 1.3546(5)
H59 H 0.8591 0.5620 1.3997
C65 C 0.8786(5) 0.5832(5) 1.2916(5)
H60 H 0.8545 0.5328 1.2846
C66 C 0.7491(4) 0.7795(6) 1.2188(5)
H61 H 0.7712 0.8155 1.1732
C67 C 0.7489(5) 0.7988(7) 1.2803(6)
H62 H 0.7718 0.8503 1.2863
C68 C 0.7126(5) 0.7306(8) 1.3328(7)
H63 H 0.7056 0.7261 1.3822
C69 C 0.6901(5) 0.6689(7) 1.3038(6)
H64 H 0.6634 0.6144 1.3288
C70 C 0.7140(4) 0.6978(5) 1.2332(5)
C71 C 1.0171(4) 0.5983(6) 1.1428(5)
C72 C 1.0747(5) 0.6181(7) 1.0862(5)
H65 H 1.0654 0.6655 1.0480
C73 C 1.1469(5) 0.5664(8) 1.0868(7)
H66 H 1.1869 0.5800 1.0488
C74 C 1.1608(5) 0.4974(7) 1.1406(7)
H67 H 1.2094 0.4631 1.1397
C75 C 1.1049(6) 0.4778(7) 1.1956(7)
H68 H 1.1147 0.4304 1.2336
C76 C 1.0324(5) 0.5284(6) 1.1958(6)
H69 H 0.9928 0.5135 1.2340
C77 C 0.9641(5) 0.7721(5) 1.1151(4)
C78 C 1.0468(5) 0.7907(6) 1.1268(4)
H70 H 1.0852 0.7470 1.1472
C79 C 1.0719(6) 0.8722(6) 1.1086(5)
H71 H 1.1281 0.8849 1.1150
C80 C 1.0146(7) 0.9352(6) 1.0811(5)
H72 H 1.0312 0.9914 1.0705
C81 C 0.9327(8) 0.9182(6) 1.0683(6)
H73 H 0.8942 0.9624 1.0489
C82 C 0.9083(6) 0.8364(6) 1.0844(5)
H74 H 0.8536 0.8240 1.0744
C83 C 0.6888(4) 0.5345(5) 1.2183(4)
C84 C 0.7489(5) 0.4738(5) 1.2143(5)
H75 H 0.7991 0.4891 1.1858
C85 C 0.7359(5) 0.3904(5) 1.2519(5)
H76 H 0.7772 0.3491 1.2491
C86 C 0.6628(6) 0.3682(6) 1.2932(6)
H77 H 0.6542 0.3114 1.3183
C87 C 0.6028(5) 0.4260(7) 1.2988(6)
H78 H 0.5530 0.4096 1.3276
C88 C 0.6155(5) 0.5108(6) 1.2612(6)
H79 H 0.5744 0.5516 1.2651
C89 C 0.6095(4) 0.6821(5) 1.1299(5)
C90 C 0.5506(5) 0.6283(6) 1.1197(5)
H80 H 0.5576 0.5696 1.1376
C91 C 0.4805(5) 0.6638(6) 1.0822(5)
H81 H 0.4398 0.6282 1.0744
C92 C 0.4691(5) 0.7478(6) 1.0565(5)
H82 H 0.4212 0.7704 1.0313
C93 C 0.5287(5) 0.8002(5) 1.0676(5)
H83 H 0.5217 0.8589 1.0497
C94 C 0.5975(4) 0.7672(5) 1.1046(5)
H84 H 0.6372 0.8032 1.1128
S1 S 0.72633(11) 1.04374(13) 0.41348(10)
O3 O 0.6908(4) 1.0709(5) 0.3480(4)
F1 F 0.7136(4) 0.8919(4) 0.4073(4)
C95 C 0.6882(5) 0.9379(6) 0.4479(5)
O4 O 0.6907(4) 1.0827(5) 0.4612(4)
F2 F 0.7167(4) 0.9009(4) 0.5092(3)
O5 O 0.8175(3) 1.0341(4) 0.4122(3)
F3 F 0.6040(3) 0.9354(4) 0.4540(4)
S2 S 0.73260(14) 0.93656(13) 0.90812(12)
O6 O 0.7611(5) 0.9966(5) 0.8460(4)
F4 F 0.7635(4) 1.0407(4) 0.9741(4)
C96 C 0.6987(5) 1.0005(6) 0.9627(5)
O7 O 0.6548(5) 0.8972(5) 0.9030(4)
F5 F 0.6653(6) 0.9590(5) 1.0218(4)
F6 F 0.6436(5) 1.0594(5) 0.9336(5)
O8 O 0.7915(6) 0.8806(5) 0.9491(5)
Cl1 Cl 0.73379(16) 0.80670(18) 0.66308(15)
C97 C 0.7766(9) 0.7331(9) 0.7313(8)
H85 H 0.8355 0.7199 0.7185
H86 H 0.7436 0.6814 0.7433
Cl2 Cl 0.7756(2) 0.7713(3) 0.80570(18)
S3 S 0.8085(3) 0.5713(3) 0.5768(3)
O9 O 0.8891(7) 0.5303(7) 0.5676(7)
F7 F 0.8948(9) 0.6925(9) 0.4969(8)
C98 C 0.8366(7) 0.6706(9) 0.5478(7)
F8 F 0.8834(6) 0.7036(6) 0.5833(6)
O10 O 0.7759(14) 0.5700(14) 0.6538(14)
F9 F 0.7749(9) 0.7272(9) 0.5309(10)
O11 O 0.7459(13) 0.5627(13) 0.5282(13)
F10 F 0.2245(5) 0.7622(6) 1.0256(4)
O12 O 0.3481(5) 0.6799(5) 0.9543(5)
C99 C 0.2368(7) 0.7961(9) 0.9563(8)
S4 S 0.27394(16) 0.71371(19) 0.92037(14)
O13 O 0.2885(5) 0.7612(7) 0.8483(5)
F11 F 0.2966(6) 0.8519(5) 0.9475(5)
O14 O 0.2082(7) 0.6537(8) 0.9359(6)
F12 F 0.1672(6) 0.8274(7) 0.9339(6)
O15 O 1.1885(5) 0.8832(5) 0.7627(5)
O16 O 0.6779(8) 0.5420(8) 0.7629(7)
O18 O 0.5376(9) 0.5073(8) 1.4355(9)
O17? O 0.6721(5) 0.6391(6) 0.6970(5)
O19? O 0.6782(15) 0.4396(17) 1.4432(14)
loop_
_geom_bond_atom_site_label_1
_geom_bond_atom_site_label_2
_geom_bond_site_symmetry_1
_geom_bond_site_symmetry_2
C1 H1 1_555 1_555
Fe1 C27 1_555 1_555
N1 C1 1_555 1_555
O1 C7 1_555 1_555
P1 Pd1 1_555 1_555
Pd1 N1 1_555 1_555
C2 C1 1_555 1_555
H2 C2 1_555 1_555
Fe2 C61 1_555 1_555
N2 H3 1_555 1_555
O2 C20 1_555 1_555
P2 Pd1 1_555 1_555
Pd2 P3 1_555 1_555
C3 C2 1_555 1_555
N3 H4 1_555 1_555
P3 C61 1_555 1_555
C4 C3 1_555 1_555
H5 C4 1_555 1_555
N4 Pd2 1_555 1_555
P4 Pd2 1_555 1_555
C5 N1 1_555 1_555
H6 C5 1_555 1_555
N5 Pd2 1_555 1_555
C6 N2 1_555 1_555
H7 C6 1_555 1_555
H8 C6 1_555 1_555
N6 H9 1_555 1_555
C7 N2 1_555 1_555
N7 H10 1_555 1_555
C8 N3 1_555 1_555
H11 C8 1_555 1_555
H12 C8 1_555 1_555
N8 Pd1 1_555 1_555
C9 C8 1_555 1_555
C10 C9 1_555 1_555
H13 C10 1_555 1_555
C11 N4 1_555 1_555
H14 C11 1_555 1_555
C12 N4 1_555 1_555
H15 C12 1_555 1_555
C13 C9 1_555 1_555
H16 C13 1_555 1_555
C14 N5 1_555 1_555
H17 C14 1_555 1_555
C15 C14 1_555 1_555
H18 C15 1_555 1_555
C16 C15 1_555 1_555
C17 C16 1_555 1_555
H19 C17 1_555 1_555
C18 N5 1_555 1_555
H20 C18 1_555 1_555
C19 N6 1_555 1_555
H21 C19 1_555 1_555
H22 C19 1_555 1_555
C20 N6 1_555 1_555
C21 N7 1_555 1_555
H23 C21 1_555 1_555
H24 C21 1_555 1_555
C22 C21 1_555 1_555
C23 C22 1_555 1_555
H25 C23 1_555 1_555
C24 N8 1_555 1_555
H26 C24 1_555 1_555
C25 N8 1_555 1_555
H27 C25 1_555 1_555
C26 C22 1_555 1_555
H28 C26 1_555 1_555
C27 P1 1_555 1_555
C28 Fe1 1_555 1_555
H29 C28 1_555 1_555
C29 Fe1 1_555 1_555
H30 C29 1_555 1_555
C30 Fe1 1_555 1_555
H31 C30 1_555 1_555
C31 Fe1 1_555 1_555
H32 C31 1_555 1_555
C32 Fe1 1_555 1_555
H33 C32 1_555 1_555
C33 Fe1 1_555 1_555
C34 Fe1 1_555 1_555
H34 C34 1_555 1_555
C35 Fe1 1_555 1_555
H35 C35 1_555 1_555
C36 Fe1 1_555 1_555
H36 C36 1_555 1_555
C37 P1 1_555 1_555
C38 C37 1_555 1_555
H37 C38 1_555 1_555
C39 C38 1_555 1_555
H38 C39 1_555 1_555
C40 C39 1_555 1_555
H39 C40 1_555 1_555
C41 C40 1_555 1_555
H40 C41 1_555 1_555
C42 C37 1_555 1_555
H41 C42 1_555 1_555
C43 P1 1_555 1_555
C44 C43 1_555 1_555
H42 C44 1_555 1_555
C45 C44 1_555 1_555
H43 C45 1_555 1_555
C46 C45 1_555 1_555
H44 C46 1_555 1_555
C47 C46 1_555 1_555
H45 C47 1_555 1_555
C48 C43 1_555 1_555
H46 C48 1_555 1_555
C49 P2 1_555 1_555
C50 C49 1_555 1_555
H47 C50 1_555 1_555
C51 C50 1_555 1_555
H48 C51 1_555 1_555
C52 C51 1_555 1_555
H49 C52 1_555 1_555
C53 C52 1_555 1_555
H50 C53 1_555 1_555
C54 C49 1_555 1_555
H51 C54 1_555 1_555
C55 P2 1_555 1_555
C56 C55 1_555 1_555
H52 C56 1_555 1_555
C57 C56 1_555 1_555
H53 C57 1_555 1_555
C58 C57 1_555 1_555
H54 C58 1_555 1_555
C59 C58 1_555 1_555
H55 C59 1_555 1_555
C60 C55 1_555 1_555
H56 C60 1_555 1_555
C61 C62 1_555 1_555
C62 Fe2 1_555 1_555
H57 C62 1_555 1_555
C63 Fe2 1_555 1_555
H58 C63 1_555 1_555
C64 Fe2 1_555 1_555
H59 C64 1_555 1_555
C65 Fe2 1_555 1_555
H60 C65 1_555 1_555
C66 Fe2 1_555 1_555
H61 C66 1_555 1_555
C67 Fe2 1_555 1_555
H62 C67 1_555 1_555
C68 Fe2 1_555 1_555
H63 C68 1_555 1_555
C69 Fe2 1_555 1_555
H64 C69 1_555 1_555
C70 Fe2 1_555 1_555
C71 P3 1_555 1_555
C72 C71 1_555 1_555
H65 C72 1_555 1_555
C73 C72 1_555 1_555
H66 C73 1_555 1_555
C74 C73 1_555 1_555
H67 C74 1_555 1_555
C75 C74 1_555 1_555
H68 C75 1_555 1_555
C76 C71 1_555 1_555
H69 C76 1_555 1_555
C77 P3 1_555 1_555
C78 C77 1_555 1_555
H70 C78 1_555 1_555
C79 C78 1_555 1_555
H71 C79 1_555 1_555
C80 C79 1_555 1_555
H72 C80 1_555 1_555
C81 C80 1_555 1_555
H73 C81 1_555 1_555
C82 C77 1_555 1_555
H74 C82 1_555 1_555
C83 P4 1_555 1_555
C84 C83 1_555 1_555
H75 C84 1_555 1_555
C85 C84 1_555 1_555
H76 C85 1_555 1_555
C86 C85 1_555 1_555
H77 C86 1_555 1_555
C87 C86 1_555 1_555
H78 C87 1_555 1_555
C88 C83 1_555 1_555
H79 C88 1_555 1_555
C89 P4 1_555 1_555
C90 C89 1_555 1_555
H80 C90 1_555 1_555
C91 C90 1_555 1_555
H81 C91 1_555 1_555
C92 C91 1_555 1_555
H82 C92 1_555 1_555
C93 C92 1_555 1_555
H83 C93 1_555 1_555
C94 C89 1_555 1_555
H84 C94 1_555 1_555
S1 O3 1_555 1_555
F1 C95 1_555 1_555
C95 S1 1_555 1_555
O4 S1 1_555 1_555
F2 C95 1_555 1_555
O5 S1 1_555 1_555
F3 C95 1_555 1_555
S2 O6 1_555 1_555
F4 C96 1_555 1_555
C96 S2 1_555 1_555
O7 S2 1_555 1_555
F5 C96 1_555 1_555
F6 C96 1_555 1_555
O8 S2 1_555 1_555
Cl1 C97 1_555 1_555
C97 H85 1_555 1_555
H86 C97 1_555 1_555
Cl2 C97 1_555 1_555
S3 O9 1_555 1_555
F7 C98 1_555 1_555
C98 S3 1_555 1_555
F8 C98 1_555 1_555
O10 S3 1_555 1_555
F9 C98 1_555 1_555
O11 S3 1_555 1_555
F10 C99 1_555 1_555
O12 S4 1_555 1_555
C99 S4 1_555 1_555
S4 O13 1_555 1_555
F11 C99 1_555 1_555
O14 S4 1_555 1_555
F12 C99 1_555 1_555
P2 C33 1_555 1_555
C3 C6 1_555 1_555
N3 C7 1_555 1_555
C4 C5 1_555 1_555
P4 C70 1_555 1_555
N7 C20 1_555 1_555
C10 C11 1_555 1_555
C12 C13 1_555 1_555
C16 C19 1_555 1_555
C17 C18 1_555 1_555
C23 C24 1_555 1_555
C25 C26 1_555 1_555
C27 C28 1_555 1_555
C27 C31 1_555 1_555
C28 C29 1_555 1_555
C29 C30 1_555 1_555
C30 C31 1_555 1_555
C32 C33 1_555 1_555
C32 C36 1_555 1_555
C33 C34 1_555 1_555
C34 C35 1_555 1_555
C35 C36 1_555 1_555
C41 C42 1_555 1_555
C47 C48 1_555 1_555
C53 C54 1_555 1_555
C59 C60 1_555 1_555
C61 C65 1_555 1_555
C62 C63 1_555 1_555
C63 C64 1_555 1_555
C64 C65 1_555 1_555
C66 C67 1_555 1_555
C66 C70 1_555 1_555
C67 C68 1_555 1_555
C68 C69 1_555 1_555
C69 C70 1_555 1_555
C75 C76 1_555 1_555
C81 C82 1_555 1_555
C87 C88 1_555 1_555
C93 C94 1_555 1_555

#END
