
#######################################################################
#
#                 Cambridge Crystallographic Data Centre
#                                CCDC 
#
#######################################################################
#
# If this CIF has been generated from an entry in the Cambridge 
# Structural Database, then it will include bibliographic, chemical, 
# crystal, experimental, refinement or atomic coordinate data resulting 
# from the CCDC's data processing and validation procedures.
#
#######################################################################

data_YINZOL
_chemical_formula_moiety         'C228 H168 Cd6 N48 12+,12(Cl1 O4 1-)'
_chemical_name_systematic        
"hexakis(\m~2~-2,3-bis((3-(2,2'-Bipyridin-6-yl)pyrazol-1-yl)methyl)naphthalene)-hexa-cadmium(ii) dodecakis(perchlorate) unknown solvate"
_symmetry_cell_setting           monoclinic
_symmetry_space_group_name_H-M   'P 21/n'
_symmetry_Int_Tables_number      14
_space_group_name_Hall           '-P 2yn'
loop_
_symmetry_equiv_pos_site_id
_symmetry_equiv_pos_as_xyz
1 x,y,z
2 1/2-x,1/2+y,1/2-z
3 -x,-y,-z
4 1/2+x,1/2-y,1/2+z
_cell_length_a                   25.350(2)
_cell_length_b                   26.015(2)
_cell_length_c                   41.398(3)
_cell_angle_alpha                90
_cell_angle_beta                 95.762(5)
_cell_angle_gamma                90
_cell_volume                     27163.2
_exptl_crystal_colour            colorless
_exptl_crystal_description       block
_cell_formula_units_Z            4
loop_
_atom_site_label
_atom_site_type_symbol
_atom_site_fract_x
_atom_site_fract_y
_atom_site_fract_z
Cd1 Cd 0.52890(4) 0.32765(5) 0.47950(2)
Cd2 Cd 0.34112(4) 0.13540(5) 0.37618(3)
Cd3 Cd 0.37977(4) 0.20996(5) 0.18720(2)
Cd4 Cd 0.63772(4) 0.38029(5) 0.17220(3)
Cd5 Cd 0.90605(5) 0.29926(6) 0.27379(3)
Cd6 Cd 0.85003(5) 0.36186(7) 0.46647(3)
N1 N 0.9736(5) 0.2403(6) 0.2934(3)
C1 C 0.9727(5) 0.1879(6) 0.2868(3)
C2 C 1.0158(7) 0.1574(4) 0.2978(4)
C3 C 1.0598(5) 0.1792(6) 0.3154(3)
C4 C 1.0607(5) 0.2316(6) 0.3220(3)
C5 C 1.0176(6) 0.2622(4) 0.3110(3)
N2 N 0.9664(4) 0.3419(5) 0.3057(2)
C6 C 1.0127(5) 0.3159(4) 0.3166(3)
C7 C 1.0537(4) 0.3417(5) 0.3347(3)
C8 C 1.0483(4) 0.3936(5) 0.3418(2)
C9 C 1.0020(5) 0.4196(4) 0.3309(3)
C10 C 0.9611(4) 0.3937(5) 0.3128(3)
N3 N 0.8717(5) 0.3750(3) 0.2840(2)
N4 N 0.8245(4) 0.4027(4) 0.2741(2)
C11 C 0.8330(5) 0.4550(4) 0.2829(3)
C12 C 0.8854(5) 0.4597(4) 0.2983(3)
C13 C 0.9094(4) 0.4103(5) 0.2989(3)
C14 C 0.7786(5) 0.3778(6) 0.2602(3)
C15 C 0.7844(4) 0.3535(4) 0.22710(17)
C16 C 0.8204(3) 0.3708(3) 0.2074(2)
C17 C 0.8271(3) 0.3482(4) 0.1775(2)
C18 C 0.7979(4) 0.3036(4) 0.16731(18)
C19 C 0.7583(3) 0.2867(3) 0.1875(2)
C20 C 0.7524(3) 0.3112(4) 0.2165(2)
C21 C 0.8659(5) 0.3659(4) 0.1576(3)
C22 C 0.8731(4) 0.3417(4) 0.1285(2)
C23 C 0.8419(4) 0.2997(4) 0.1194(2)
C24 C 0.8063(4) 0.2800(4) 0.1387(3)
N5 N 0.6431(4) 0.3529(4) 0.22642(17)
N6 N 0.6739(3) 0.3189(4) 0.2474(2)
C25 C 0.6563(4) 0.3230(4) 0.27881(19)
C26 C 0.6146(4) 0.3596(4) 0.2772(2)
C27 C 0.6064(3) 0.3781(4) 0.2448(2)
C28 C 0.7134(5) 0.2870(6) 0.2373(3)
N7 N 0.5733(3) 0.4210(3) 0.1982(2)
C29 C 0.5382(4) 0.4551(4) 0.18153(18)
C30 C 0.4980(3) 0.4775(4) 0.1972(2)
C31 C 0.4929(3) 0.4658(4) 0.2295(2)
C32 C 0.5280(4) 0.4317(4) 0.24613(18)
C33 C 0.5682(3) 0.4093(3) 0.2305(2)
N8 N 0.5816(3) 0.4320(3) 0.1348(2)
C34 C 0.5454(4) 0.4643(4) 0.14757(19)
C35 C 0.5165(4) 0.4994(4) 0.1276(3)
C36 C 0.5239(4) 0.5022(4) 0.0948(2)
C37 C 0.5601(4) 0.4698(4) 0.08202(18)
C38 C 0.5890(4) 0.4347(4) 0.1020(2)
N9 N 0.7034(3) 0.4446(4) 0.1784(3)
C39 C 0.7384(4) 0.4479(4) 0.1547(2)
C40 C 0.7780(4) 0.4851(5) 0.1571(2)
C41 C 0.7826(4) 0.5190(4) 0.1832(3)
C42 C 0.7476(5) 0.5157(4) 0.2069(2)
C43 C 0.7080(4) 0.4785(4) 0.2045(2)
N10 N 0.6945(3) 0.3714(4) 0.13348(18)
C44 C 0.7298(4) 0.4114(3) 0.1296(2)
C45 C 0.7560(4) 0.4141(4) 0.1018(2)
C46 C 0.7470(4) 0.3769(4) 0.07774(19)
C47 C 0.7117(4) 0.3370(4) 0.0816(2)
C48 C 0.6855(3) 0.3342(3) 0.1095(2)
N11 N 0.6248(4) 0.3027(3) 0.1459(2)
N12 N 0.5934(3) 0.2579(4) 0.14846(19)
C49 C 0.6016(4) 0.2251(3) 0.1220(2)
C50 C 0.6381(4) 0.2496(4) 0.1031(2)
C51 C 0.6524(4) 0.2976(4) 0.1179(2)
C52 C 0.5600(6) 0.2566(6) 0.1738(4)
C53 C 0.5168(3) 0.2949(4) 0.1689(3)
C54 C 0.5021(4) 0.3177(4) 0.1393(2)
C55 C 0.4609(4) 0.3547(4) 0.13531(19)
C56 C 0.4359(4) 0.3690(4) 0.1627(3)
C57 C 0.4483(4) 0.3423(4) 0.1916(2)
C58 C 0.4861(4) 0.3055(4) 0.19566(19)
C59 C 0.4490(5) 0.3790(5) 0.1045(3)
C60 C 0.4106(5) 0.4184(4) 0.1026(2)
C61 C 0.3839(4) 0.4331(4) 0.1302(3)
C62 C 0.3979(5) 0.4089(5) 0.1598(2)
N13 N 0.4614(3) 0.1990(4) 0.21578(18)
N14 N 0.5016(4) 0.2315(3) 0.2307(2)
C63 C 0.5398(3) 0.2002(4) 0.2488(2)
C64 C 0.5231(4) 0.1482(4) 0.2450(2)
C65 C 0.4746(4) 0.1475(4) 0.2246(2)
C66 C 0.5017(6) 0.2855(6) 0.2288(4)
N15 N 0.3937(4) 0.1264(3) 0.1963(2)
C67 C 0.3563(3) 0.0908(4) 0.1836(2)
C68 C 0.3660(4) 0.0385(4) 0.1875(2)
C69 C 0.4131(5) 0.0217(3) 0.2042(2)
C70 C 0.4506(3) 0.0572(5) 0.2169(2)
C71 C 0.4409(4) 0.1096(4) 0.2130(2)
N16 N 0.2971(4) 0.1616(4) 0.1717(2)
C72 C 0.3044(4) 0.1087(4) 0.1704(2)
C73 C 0.2628(5) 0.0771(3) 0.1582(3)
C74 C 0.2139(4) 0.0985(5) 0.1474(3)
C75 C 0.2066(4) 0.1514(5) 0.1487(3)
C76 C 0.2482(5) 0.1829(3) 0.1609(3)
N17 N 0.4059(3) 0.2135(4) 0.13402(16)
C77 C 0.3851(3) 0.2535(4) 0.1144(2)
C78 C 0.4010(4) 0.2599(3) 0.0835(2)
C79 C 0.4376(4) 0.2263(4) 0.07216(16)
C80 C 0.4583(4) 0.1863(4) 0.0918(2)
C81 C 0.4425(4) 0.1799(3) 0.1227(2)
N18 N 0.3406(3) 0.2787(3) 0.1599(2)
C82 C 0.3442(3) 0.2839(4) 0.1268(2)
C83 C 0.3107(4) 0.3177(4) 0.10858(17)
C84 C 0.2736(4) 0.3462(3) 0.1235(2)
C85 C 0.2700(3) 0.3410(4) 0.1566(2)
C86 C 0.3035(4) 0.3073(4) 0.17483(17)
N19 N 0.3425(3) 0.2641(3) 0.2228(2)
N20 N 0.3367(3) 0.2650(3) 0.2566(2)
C87 C 0.2959(4) 0.3006(4) 0.2618(2)
C88 C 0.2765(3) 0.3217(4) 0.2312(3)
C89 C 0.3053(4) 0.2991(4) 0.20715(17)
C90 C 0.3723(6) 0.2357(6) 0.2789(4)
C91 C 0.3596(4) 0.1787(3) 0.2781(3)
C92 C 0.3126(4) 0.1595(4) 0.2587(2)
C93 C 0.3089(4) 0.1059(5) 0.2584(2)
C94 C 0.3424(5) 0.0738(3) 0.2728(3)
C95 C 0.3883(4) 0.0915(4) 0.2928(2)
C96 C 0.3948(3) 0.1442(5) 0.2935(2)
C97 C 0.2587(5) 0.0869(5) 0.2393(3)
C98 C 0.2546(4) 0.0328(5) 0.2384(3)
C99 C 0.2895(5) 0.0009(4) 0.2532(3)
C100 C 0.3342(4) 0.0168(5) 0.2721(3)
N21 N 0.4305(3) 0.1247(4) 0.3673(2)
N22 N 0.4612(4) 0.1357(3) 0.3412(2)
C101 C 0.5103(3) 0.1095(4) 0.3472(2)
C102 C 0.5101(3) 0.0824(4) 0.3770(2)
C103 C 0.4607(4) 0.0918(4) 0.3894(2)
C104 C 0.4425(6) 0.1682(7) 0.3150(4)
N23 N 0.3869(3) 0.0942(3) 0.41985(18)
C105 C 0.3625(3) 0.0836(4) 0.4477(2)
C106 C 0.3900(4) 0.0573(4) 0.47335(18)
C107 C 0.4419(4) 0.0415(4) 0.4711(2)
C108 C 0.4663(3) 0.0521(4) 0.4432(2)
C109 C 0.4388(3) 0.0784(4) 0.41760(18)
N24 N 0.2893(3) 0.1321(4) 0.42036(18)
C110 C 0.3080(3) 0.1025(4) 0.4470(2)
C111 C 0.2764(4) 0.0944(4) 0.47208(19)
C112 C 0.2261(3) 0.1160(4) 0.4705(2)
C113 C 0.2074(3) 0.1457(4) 0.4439(2)
C114 C 0.2390(4) 0.1538(4) 0.41879(19)
N25 N 0.3016(3) 0.0620(3) 0.3526(2)
C115 C 0.2546(4) 0.0686(3) 0.3326(2)
C116 C 0.2260(3) 0.0260(4) 0.3206(2)
C117 C 0.2443(4) -0.0232(4) 0.3285(2)
C118 C 0.2913(4) -0.0298(3) 0.3485(2)
C119 C 0.3199(3) 0.0128(4) 0.3605(2)
N26 N 0.2704(3) 0.1575(4) 0.33991(17)
C120 C 0.2395(4) 0.1191(3) 0.3243(2)
C121 C 0.1966(3) 0.1319(3) 0.3022(2)
C122 C 0.1845(3) 0.1833(4) 0.29576(19)
C123 C 0.2154(4) 0.2218(3) 0.3114(2)
C124 C 0.2583(3) 0.2089(3) 0.3335(2)
N27 N 0.3395(4) 0.2236(3) 0.3645(2)
N28 N 0.3706(3) 0.2653(4) 0.37780(18)
C125 C 0.3420(4) 0.3114(3) 0.3702(2)
C126 C 0.2932(3) 0.2982(4) 0.3523(2)
C127 C 0.2916(3) 0.2439(4) 0.3488(2)
C128 C 0.4228(5) 0.2572(6) 0.3946(3)
C129 C 0.4185(4) 0.2344(4) 0.42706(17)
C130 C 0.3740(3) 0.2384(3) 0.4435(2)
C131 C 0.3718(3) 0.2152(4) 0.4745(2)
C132 C 0.4129(4) 0.1894(4) 0.48814(17)
C133 C 0.4600(3) 0.1871(3) 0.4721(2)
C134 C 0.4659(3) 0.2093(4) 0.4436(2)
C135 C 0.3228(4) 0.2202(5) 0.4897(3)
C136 C 0.3231(3) 0.1994(4) 0.5196(2)
C137 C 0.3641(4) 0.1680(4) 0.5323(2)
C138 C 0.4085(4) 0.1613(5) 0.5181(3)
N29 N 0.5369(3) 0.2942(4) 0.42799(16)
N30 N 0.5343(3) 0.2446(3) 0.4136(2)
C139 C 0.5559(4) 0.2479(3) 0.38333(19)
C140 C 0.5719(3) 0.2996(4) 0.37900(19)
C141 C 0.5602(4) 0.3282(3) 0.4066(2)
C142 C 0.5151(5) 0.2005(6) 0.4280(4)
N31 N 0.5612(3) 0.3903(3) 0.4475(2)
C143 C 0.5716(3) 0.4394(4) 0.45985(16)
C144 C 0.5907(3) 0.4771(3) 0.4403(2)
C145 C 0.5992(3) 0.4658(3) 0.4084(2)
C146 C 0.5888(3) 0.4168(4) 0.39611(16)
C147 C 0.5697(3) 0.3790(3) 0.4157(2)
N32 N 0.5401(3) 0.4056(3) 0.5091(2)
C148 C 0.5615(3) 0.4463(4) 0.49305(17)
C149 C 0.5702(3) 0.4933(3) 0.5087(2)
C150 C 0.5576(4) 0.4995(3) 0.5403(2)
C151 C 0.5362(4) 0.4588(4) 0.55640(17)
C152 C 0.5275(3) 0.4118(3) 0.5408(2)
N33 N 0.4379(2) 0.3427(3) 0.4778(2)
C153 C 0.4128(3) 0.3291(4) 0.50495(19)
C154 C 0.3596(3) 0.3409(4) 0.5063(2)
C155 C 0.3314(2) 0.3662(4) 0.4805(2)
C156 C 0.3565(3) 0.3798(4) 0.4533(2)
C157 C 0.4097(3) 0.3680(4) 0.45202(19)
N34 N 0.4938(3) 0.2861(3) 0.52164(17)
C158 C 0.4430(3) 0.2983(3) 0.5291(2)
C159 C 0.4253(3) 0.2807(4) 0.5578(2)
C160 C 0.4585(4) 0.2510(4) 0.57913(17)
C161 C 0.5093(3) 0.2388(4) 0.5717(2)
C162 C 0.5269(3) 0.2564(4) 0.5429(2)
N35 N 0.5905(3) 0.2699(3) 0.5039(2)
N36 N 0.6430(3) 0.2547(4) 0.49914(18)
C163 C 0.6617(3) 0.2217(4) 0.5251(2)
C164 C 0.6208(4) 0.2165(4) 0.5459(2)
C165 C 0.5768(3) 0.2462(4) 0.5328(2)
C166 C 0.6690(6) 0.2786(6) 0.4759(4)
C167 C 0.6826(4) 0.3326(3) 0.4854(2)
C168 C 0.6755(3) 0.3544(4) 0.5140(2)
C169 C 0.6866(4) 0.4061(4) 0.52186(18)
C170 C 0.7054(4) 0.4386(3) 0.4989(3)
C171 C 0.7116(3) 0.4173(4) 0.4679(2)
C172 C 0.7003(4) 0.3660(4) 0.45966(17)
C173 C 0.6805(5) 0.4235(4) 0.5534(3)
C174 C 0.6941(4) 0.4736(4) 0.5624(2)
C175 C 0.7128(4) 0.5070(4) 0.5399(3)
C176 C 0.7180(5) 0.4902(5) 0.5085(2)
N37 N 0.7900(4) 0.3046(4) 0.4391(2)
N38 N 0.7375(4) 0.3061(4) 0.4236(3)
C177 C 0.7275(4) 0.2590(5) 0.4069(3)
C178 C 0.7739(5) 0.2283(4) 0.4120(3)
C179 C 0.8125(4) 0.2565(5) 0.4320(3)
C180 C 0.7065(6) 0.3529(6) 0.4263(3)
N39 N 0.8916(5) 0.2878(5) 0.4626(3)
C181 C 0.8672(4) 0.2455(6) 0.4469(3)
C182 C 0.8953(5) 0.2001(5) 0.4445(3)
C183 C 0.9478(5) 0.1969(4) 0.4578(3)
C184 C 0.9722(4) 0.2392(6) 0.4734(3)
C185 C 0.9440(5) 0.2846(5) 0.4759(3)
N40 N 0.9428(4) 0.3684(6) 0.4892(2)
C186 C 0.9707(5) 0.3224(5) 0.4920(3)
C187 C 1.0193(5) 0.3199(4) 0.5108(3)
C188 C 1.0399(4) 0.3635(6) 0.5269(3)
C189 C 1.0120(5) 0.4095(5) 0.5242(3)
C190 C 0.9634(5) 0.4120(5) 0.5053(3)
N41 N 0.8219(3) 0.3549(6) 0.5181(2)
C191 C 0.8251(4) 0.3987(4) 0.5373(3)
C192 C 0.8111(4) 0.3965(4) 0.5689(3)
C193 C 0.7939(4) 0.3504(5) 0.5812(2)
C194 C 0.7908(4) 0.3065(4) 0.5620(3)
C195 C 0.8048(4) 0.3088(4) 0.5304(3)
N42 N 0.8446(4) 0.4437(4) 0.4895(2)
C196 C 0.8406(4) 0.4464(4) 0.5227(2)
C197 C 0.8445(4) 0.4937(5) 0.53845(19)
C198 C 0.8524(4) 0.5382(4) 0.5210(3)
C199 C 0.8564(5) 0.5354(4) 0.4878(3)
C200 C 0.8525(4) 0.4882(5) 0.47205(18)
N43 N 0.8480(4) 0.4276(5) 0.4284(3)
N44 N 0.8524(4) 0.4278(5) 0.3945(2)
C201 C 0.8623(5) 0.4792(5) 0.3851(2)
C202 C 0.8640(5) 0.5106(4) 0.4132(3)
C203 C 0.8552(5) 0.4788(6) 0.4400(2)
C204 C 0.8372(7) 0.3841(7) 0.3743(4)
C205 C 0.8788(5) 0.3472(5) 0.3774(3)
C206 C 0.9292(5) 0.3519(4) 0.3956(3)
C207 C 0.9693(4) 0.3141(6) 0.3983(3)
C208 C 0.9577(4) 0.2661(5) 0.3846(3)
C209 C 0.9033(5) 0.2544(4) 0.3627(3)
C210 C 0.8722(4) 0.3010(5) 0.3641(3)
C211 C 1.0207(7) 0.3235(5) 0.4161(4)
C212 C 1.0562(5) 0.2829(6) 0.4212(3)
C213 C 1.0438(6) 0.2352(5) 0.4073(4)
C214 C 0.9960(7) 0.2281(6) 0.3883(4)
N45 N 0.8373(4) 0.2507(4) 0.2904(3)
N46 N 0.8146(5) 0.2484(4) 0.3203(3)
C215 C 0.7868(5) 0.2011(5) 0.3214(3)
C216 C 0.7922(6) 0.1743(4) 0.2920(4)
C217 C 0.8235(6) 0.2049(6) 0.2729(3)
C218 C 0.8169(7) 0.2895(8) 0.3418(4)
N47 N 0.8785(5) 0.2368(5) 0.2360(3)
C219 C 0.8964(5) 0.2296(5) 0.2056(3)
C220 C 0.8757(6) 0.1900(6) 0.1856(3)
C221 C 0.8371(6) 0.1576(5) 0.1960(4)
C222 C 0.8192(5) 0.1648(6) 0.2263(4)
C223 C 0.8399(6) 0.2044(6) 0.2463(3)
N48 N 0.9435(5) 0.3085(8) 0.2244(3)
C224 C 0.9325(5) 0.2681(6) 0.2028(5)
C225 C 0.9586(7) 0.2647(5) 0.1749(4)
C226 C 0.9958(6) 0.3017(7) 0.1687(3)
C227 C 1.0069(5) 0.3421(6) 0.1903(4)
C228 C 0.9807(7) 0.3455(6) 0.2181(4)
H1 H 0.9427 0.1730 0.2748
H2 H 1.0152 0.1216 0.2933
H3 H 1.0892 0.1583 0.3229
H4 H 1.0907 0.2465 0.3340
H5 H 1.0853 0.3240 0.3421
H6 H 1.0763 0.4112 0.3542
H7 H 0.9984 0.4550 0.3358
H8 H 0.8080 0.4821 0.2792
H9 H 0.9017 0.4905 0.3067
H10 H 0.7492 0.4030 0.2577
H11 H 0.7687 0.3507 0.2752
H12 H 0.8418 0.3996 0.2143
H13 H 0.7360 0.2585 0.1808
H14 H 0.8871 0.3949 0.1642
H15 H 0.8990 0.3536 0.1152
H16 H 0.8452 0.2840 0.0990
H17 H 0.7873 0.2496 0.1323
H18 H 0.6700 0.3045 0.2976
H19 H 0.5955 0.3699 0.2947
H20 H 0.6959 0.2580 0.2250
H21 H 0.7337 0.2725 0.2569
H22 H 0.4740 0.5008 0.1858
H23 H 0.4654 0.4811 0.2401
H24 H 0.5245 0.4237 0.2682
H25 H 0.4917 0.5215 0.1363
H26 H 0.5041 0.5261 0.0812
H27 H 0.5652 0.4717 0.0596
H28 H 0.6138 0.4126 0.0933
H29 H 0.8019 0.4874 0.1409
H30 H 0.8096 0.5444 0.1848
H31 H 0.7508 0.5389 0.2247
H32 H 0.6841 0.4763 0.2207
H33 H 0.7801 0.4414 0.0991
H34 H 0.7649 0.3788 0.0587
H35 H 0.7056 0.3115 0.0652
H36 H 0.5856 0.1925 0.1177
H37 H 0.6506 0.2363 0.0839
H38 H 0.5813 0.2636 0.1947
H39 H 0.5445 0.2218 0.1750
H40 H 0.5201 0.3084 0.1211
H41 H 0.4291 0.3504 0.2096
H42 H 0.4662 0.3691 0.0861
H43 H 0.4022 0.4357 0.0825
H44 H 0.3572 0.4589 0.1283
H45 H 0.3817 0.4195 0.1784
H46 H 0.5711 0.2119 0.2612
H47 H 0.5412 0.1191 0.2545
H48 H 0.5376 0.2983 0.2363
H49 H 0.4769 0.2993 0.2437
H50 H 0.3404 0.0142 0.1788
H51 H 0.4198 -0.0140 0.2069
H52 H 0.4828 0.0457 0.2284
H53 H 0.2678 0.0410 0.1573
H54 H 0.1855 0.0769 0.1390
H55 H 0.1732 0.1659 0.1413
H56 H 0.2432 0.2191 0.1618
H57 H 0.3868 0.2872 0.0701
H58 H 0.4484 0.2307 0.0510
H59 H 0.4833 0.1633 0.0840
H60 H 0.4566 0.1525 0.1361
H61 H 0.3131 0.3212 0.0859
H62 H 0.2508 0.3693 0.1110
H63 H 0.2447 0.3606 0.1668
H64 H 0.2838 0.3089 0.2821
H65 H 0.2491 0.3465 0.2276
H66 H 0.3703 0.2488 0.3012
H67 H 0.4091 0.2407 0.2734
H68 H 0.2869 0.1812 0.2474
H69 H 0.4123 0.0688 0.3047
H70 H 0.2325 0.1091 0.2289
H71 H 0.2245 0.0183 0.2263
H72 H 0.2833 -0.0349 0.2507
H73 H 0.3580 -0.0064 0.2837
H74 H 0.5385 0.1100 0.3337
H75 H 0.5380 0.0616 0.3868
H76 H 0.4717 0.1750 0.3014
H77 H 0.4314 0.2015 0.3237
H78 H 0.3734 0.0501 0.4924
H79 H 0.4608 0.0236 0.4886
H80 H 0.5018 0.0414 0.4417
H81 H 0.2892 0.0742 0.4903
H82 H 0.2044 0.1105 0.4877
H83 H 0.1730 0.1605 0.4428
H84 H 0.2262 0.1740 0.4006
H85 H 0.1939 0.0305 0.3069
H86 H 0.2247 -0.0523 0.3203
H87 H 0.3038 -0.0635 0.3539
H88 H 0.3520 0.0083 0.3741
H89 H 0.1755 0.1056 0.2915
H90 H 0.1552 0.1921 0.2807
H91 H 0.2071 0.2568 0.3070
H92 H 0.3535 0.3452 0.3762
H93 H 0.2663 0.3215 0.3441
H94 H 0.4419 0.2904 0.3970
H95 H 0.4434 0.2339 0.3817
H96 H 0.3441 0.2569 0.4340
H97 H 0.4892 0.1686 0.4825
H98 H 0.2926 0.2371 0.4793
H99 H 0.2945 0.2064 0.5321
H100 H 0.3604 0.1504 0.5521
H101 H 0.4360 0.1391 0.5271
H102 H 0.5591 0.2204 0.3686
H103 H 0.5877 0.3127 0.3608
H104 H 0.5428 0.1874 0.4445
H105 H 0.5083 0.1736 0.4111
H106 H 0.5978 0.5107 0.4487
H107 H 0.6123 0.4917 0.3951
H108 H 0.5946 0.4091 0.3743
H109 H 0.5848 0.5212 0.4977
H110 H 0.5636 0.5316 0.5510
H111 H 0.5276 0.4630 0.5780
H112 H 0.5129 0.3839 0.5518
H113 H 0.3425 0.3316 0.5248
H114 H 0.2951 0.3742 0.4814
H115 H 0.3372 0.3971 0.4357
H116 H 0.4268 0.3773 0.4335
H117 H 0.3906 0.2890 0.5630
H118 H 0.4464 0.2390 0.5988
H119 H 0.5319 0.2185 0.5862
H120 H 0.6956 0.2059 0.5280
H121 H 0.6226 0.1965 0.5652
H122 H 0.6463 0.2784 0.4550
H123 H 0.7019 0.2594 0.4729
H124 H 0.6621 0.3334 0.5301
H125 H 0.7242 0.4391 0.4519
H126 H 0.6670 0.4009 0.5687
H127 H 0.6906 0.4850 0.5839
H128 H 0.7221 0.5412 0.5460
H129 H 0.7300 0.5135 0.4932
H130 H 0.6954 0.2496 0.3944
H131 H 0.7783 0.1947 0.4036
H132 H 0.7242 0.3817 0.4161
H133 H 0.6710 0.3483 0.4143
H134 H 0.8787 0.1712 0.4338
H135 H 0.9671 0.1658 0.4561
H136 H 1.0081 0.2370 0.4825
H137 H 1.0384 0.2884 0.5126
H138 H 1.0731 0.3618 0.5397
H139 H 1.0261 0.4393 0.5352
H140 H 0.9444 0.4435 0.5035
H141 H 0.8133 0.4265 0.5821
H142 H 0.7843 0.3488 0.6028
H143 H 0.7790 0.2750 0.5704
H144 H 0.8026 0.2788 0.5172
H145 H 0.8418 0.4956 0.5611
H146 H 0.8551 0.5705 0.5317
H147 H 0.8618 0.5658 0.4758
H148 H 0.8669 0.4904 0.3637
H149 H 0.8701 0.5467 0.4139
H150 H 0.8043 0.3687 0.3811
H151 H 0.8302 0.3950 0.3514
H152 H 0.9366 0.3833 0.4068
H153 H 0.8935 0.2236 0.3514
H154 H 1.0299 0.3568 0.4242
H155 H 1.0889 0.2877 0.4341
H156 H 1.0681 0.2075 0.4107
H157 H 0.9893 0.1961 0.3776
H158 H 0.7678 0.1896 0.3386
H159 H 0.7776 0.1415 0.2862
H160 H 0.7890 0.2842 0.3565
H161 H 0.8074 0.3209 0.3290
H162 H 0.8879 0.1851 0.1649
H163 H 0.8230 0.1306 0.1823
H164 H 0.7929 0.1427 0.2334
H165 H 0.9511 0.2371 0.1602
H166 H 1.0137 0.2994 0.1496
H167 H 1.0323 0.3674 0.1860
H168 H 0.9882 0.3731 0.2329
Cl1 Cl 0.47124(17) 0.33344(19) 0.31199(10)
O1 O 0.4961(5) 0.2855(5) 0.3056(3)
O2 O 0.4384(4) 0.3504(5) 0.2830(3)
O3 O 0.4396(5) 0.3271(7) 0.3366(3)
O4 O 0.5112(4) 0.3701(5) 0.3203(3)
Cl2 Cl 0.64683(18) 0.1851(2) 0.31707(12)
O5 O 0.5926(4) 0.1821(5) 0.3208(2)
O6 O 0.6716(8) 0.1395(6) 0.3180(5)
O7 O 0.6551(4) 0.2058(6) 0.2852(3)
O8 O 0.6722(5) 0.2175(7) 0.3414(3)
Cl3 Cl 0.79627(19) 0.9160(2) 0.15595(12)
O9 O 0.8078(6) 0.8655(6) 0.1492(3)
O10 O 0.7572(19) 0.926(4) 0.1760(10)
O12 O 0.7736(5) 0.9428(5) 0.1257(3)
O13 O 0.8451(5) 0.9407(5) 0.1655(3)
Cl4 Cl 0.38457(18) 1.0251(2) 0.56850(11)
O14 O 0.4172(7) 0.9949(9) 0.5493(5)
O16 O 0.3716(8) 1.0296(9) 0.6012(4)
O18 O 0.4168(9) 1.0701(8) 0.5751(6)
O20 O 0.3378(4) 1.0350(5) 0.5469(3)
Cl5 Cl 0.6785(4) 0.1965(5) 1.0115(2)
O21 O 0.6731(16) 0.2514(6) 1.0160(10)
O22 O 0.6368(13) 0.1874(18) 0.9853(8)
O25 O 0.7286(13) 0.1758(14) 0.9992(10)
O27 O 0.6665(8) 0.1697(8) 1.0407(4)
Cl6 Cl 0.4133(3) 0.3945(2) 0.61034(15)
O28 O 0.4359(9) 0.3468(7) 0.6232(6)
O30 O 0.4652(9) 0.4241(9) 0.6198(5)
O31 O 0.4132(8) 0.4026(12) 0.5768(3)
O33 O 0.3732(6) 0.4163(6) 0.6291(3)
Cl7 Cl 0.2978(4) 0.9348(4) 0.1198(2)
O34 O 0.293(2) 0.9897(6) 0.1142(19)
O36 O 0.3374(8) 0.9163(10) 0.0992(5)
O38 O 0.2433(7) 0.9141(7) 0.1097(4)
O39 O 0.3093(15) 0.9275(15) 0.1539(10)
Cl8 Cl 0.5532(6) 0.0013(6) 0.2824(4)
O40 O 0.4921(11) 0.0116(14) 0.2897(8)
O42 O 0.5740(12) -0.0500(7) 0.2866(8)
O43 O 0.5752(15) 0.0065(16) 0.3159(5)
O44 O 0.5899(16) 0.0387(15) 0.2718(11)
Cl9 Cl 0.8025(2) 0.1570(2) 0.50988(14)
O46 O 0.8087(9) 0.1032(7) 0.5047(6)
O48 O 0.8511(5) 0.1857(7) 0.5166(5)
O50 O 0.7732(7) 0.1462(7) 0.5378(4)
O51 O 0.7788(9) 0.2043(6) 0.4975(6)
Cl10 Cl 0.4056(4) 0.5735(5) 0.2681(3)
O53 O 0.380(2) 0.5630(19) 0.2974(8)
O55 O 0.4664(10) 0.5782(15) 0.2770(8)
O56 O 0.3727(19) 0.6321(15) 0.2768(13)
O58 O 0.4060(14) 0.5631(14) 0.2337(3)
Cl11 Cl 0.1339(4) 0.3114(4) 0.1408(2)
O60 O 0.1450(9) 0.3503(9) 0.1745(5)
O62 O 0.1377(17) 0.3599(9) 0.1243(9)
O64 O 0.1598(7) 0.2651(6) 0.1321(4)
O65 O 0.0790(6) 0.3193(14) 0.1288(8)
Cl12 Cl 0.56052(18) 0.0869(2) 0.14558(12)
O67 O 0.5512(6) 0.1003(6) 0.1124(3)
O68 O 0.6170(10) 0.086(2) 0.1545(18)
O70 O 0.5458(4) 0.1304(4) 0.1659(3)
O71 O 0.5388(7) 0.0393(4) 0.1566(4)
loop_
_geom_bond_atom_site_label_1
_geom_bond_atom_site_label_2
_geom_bond_site_symmetry_1
_geom_bond_site_symmetry_2
Cd1 N29 1_555 1_555
Cd2 N21 1_555 1_555
Cd3 N13 1_555 1_555
Cd4 N5 1_555 1_555
Cd5 N1 1_555 1_555
Cd6 N37 1_555 1_555
Cl1 O1 1_555 1_555
Cl2 O5 1_555 1_555
Cl3 O9 1_555 1_555
Cl4 O14 1_555 1_555
Cl5 O21 1_555 1_555
Cl6 O28 1_555 1_555
Cl7 O34 1_555 1_555
Cl8 O40 1_555 1_555
Cl9 O46 1_555 1_555
Cl10 O53 1_555 1_555
Cl11 O60 1_555 1_555
Cl12 O67 1_555 1_555
O2 Cl1 1_555 1_555
O3 Cl1 1_555 1_555
O4 Cl1 1_555 1_555
O6 Cl2 1_555 1_555
O7 Cl2 1_555 1_555
O8 Cl2 1_555 1_555
O10 Cl3 1_555 1_555
O12 Cl3 1_555 1_555
O13 Cl3 1_555 1_555
O16 Cl4 1_555 1_555
O18 Cl4 1_555 1_555
O20 Cl4 1_555 1_555
O22 Cl5 1_555 1_555
O25 Cl5 1_555 1_555
O27 Cl5 1_555 1_555
O30 Cl6 1_555 1_555
O31 Cl6 1_555 1_555
O33 Cl6 1_555 1_555
O36 Cl7 1_555 1_555
O38 Cl7 1_555 1_555
O39 Cl7 1_555 1_555
O42 Cl8 1_555 1_555
O43 Cl8 1_555 1_555
O44 Cl8 1_555 1_555
O48 Cl9 1_555 1_555
O50 Cl9 1_555 1_555
O51 Cl9 1_555 1_555
O55 Cl10 1_555 1_555
O56 Cl10 1_555 1_555
O58 Cl10 1_555 1_555
O62 Cl11 1_555 1_555
O64 Cl11 1_555 1_555
O65 Cl11 1_555 1_555
O68 Cl12 1_555 1_555
O70 Cl12 1_555 1_555
O71 Cl12 1_555 1_555
N1 C1 1_555 1_555
C1 C2 1_555 1_555
C2 C3 1_555 1_555
C3 C4 1_555 1_555
C4 C5 1_555 1_555
C5 N1 1_555 1_555
N2 Cd5 1_555 1_555
C6 C5 1_555 1_555
C7 C6 1_555 1_555
C8 C7 1_555 1_555
C9 C8 1_555 1_555
C10 N2 1_555 1_555
N3 Cd5 1_555 1_555
N4 N3 1_555 1_555
C11 N4 1_555 1_555
C12 C11 1_555 1_555
C13 C10 1_555 1_555
C14 N4 1_555 1_555
C15 C14 1_555 1_555
C16 C15 1_555 1_555
C17 C16 1_555 1_555
C18 C17 1_555 1_555
C19 C18 1_555 1_555
C20 C15 1_555 1_555
C21 C17 1_555 1_555
C22 C21 1_555 1_555
C23 C22 1_555 1_555
C24 C18 1_555 1_555
N5 N6 1_555 1_555
N6 C25 1_555 1_555
C25 C26 1_555 1_555
C26 C27 1_555 1_555
C27 N5 1_555 1_555
C28 C20 1_555 1_555
N7 Cd4 1_555 1_555
C29 N7 1_555 1_555
C30 C29 1_555 1_555
C31 C30 1_555 1_555
C32 C31 1_555 1_555
C33 C27 1_555 1_555
N8 Cd4 1_555 1_555
C34 C29 1_555 1_555
C35 C34 1_555 1_555
C36 C35 1_555 1_555
C37 C36 1_555 1_555
C38 N8 1_555 1_555
N9 Cd4 1_555 1_555
C39 N9 1_555 1_555
C40 C39 1_555 1_555
C41 C40 1_555 1_555
C42 C41 1_555 1_555
C43 N9 1_555 1_555
N10 Cd4 1_555 1_555
C44 C39 1_555 1_555
C45 C44 1_555 1_555
C46 C45 1_555 1_555
C47 C46 1_555 1_555
C48 N10 1_555 1_555
N11 Cd4 1_555 1_555
N12 N11 1_555 1_555
C49 N12 1_555 1_555
C50 C49 1_555 1_555
C51 C48 1_555 1_555
C52 N12 1_555 1_555
C53 C52 1_555 1_555
C54 C53 1_555 1_555
C55 C54 1_555 1_555
C56 C55 1_555 1_555
C57 C56 1_555 1_555
C58 C53 1_555 1_555
C59 C55 1_555 1_555
C60 C59 1_555 1_555
C61 C60 1_555 1_555
C62 C56 1_555 1_555
N13 N14 1_555 1_555
N14 C63 1_555 1_555
C63 C64 1_555 1_555
C64 C65 1_555 1_555
C65 N13 1_555 1_555
C66 C58 1_555 1_555
N15 Cd3 1_555 1_555
C67 N15 1_555 1_555
C68 C67 1_555 1_555
C69 C68 1_555 1_555
C70 C69 1_555 1_555
C71 C65 1_555 1_555
N16 Cd3 1_555 1_555
C72 C67 1_555 1_555
C73 C72 1_555 1_555
C74 C73 1_555 1_555
C75 C74 1_555 1_555
C76 N16 1_555 1_555
N17 Cd3 1_555 1_555
C77 N17 1_555 1_555
C78 C77 1_555 1_555
C79 C78 1_555 1_555
C80 C79 1_555 1_555
C81 N17 1_555 1_555
N18 Cd3 1_555 1_555
C82 C77 1_555 1_555
C83 C82 1_555 1_555
C84 C83 1_555 1_555
C85 C84 1_555 1_555
C86 N18 1_555 1_555
N19 Cd3 1_555 1_555
N20 N19 1_555 1_555
C87 N20 1_555 1_555
C88 C87 1_555 1_555
C89 C86 1_555 1_555
C90 N20 1_555 1_555
C91 C90 1_555 1_555
C92 C91 1_555 1_555
C93 C92 1_555 1_555
C94 C93 1_555 1_555
C95 C94 1_555 1_555
C96 C91 1_555 1_555
C97 C93 1_555 1_555
C98 C97 1_555 1_555
C99 C98 1_555 1_555
C100 C94 1_555 1_555
N21 N22 1_555 1_555
N22 C101 1_555 1_555
C101 C102 1_555 1_555
C102 C103 1_555 1_555
C103 N21 1_555 1_555
C104 C96 1_555 1_555
N23 Cd2 1_555 1_555
C105 N23 1_555 1_555
C106 C105 1_555 1_555
C107 C106 1_555 1_555
C108 C107 1_555 1_555
C109 C103 1_555 1_555
N24 Cd2 1_555 1_555
C110 C105 1_555 1_555
C111 C110 1_555 1_555
C112 C111 1_555 1_555
C113 C112 1_555 1_555
C114 N24 1_555 1_555
N25 Cd2 1_555 1_555
C115 N25 1_555 1_555
C116 C115 1_555 1_555
C117 C116 1_555 1_555
C118 C117 1_555 1_555
C119 N25 1_555 1_555
N26 Cd2 1_555 1_555
C120 C115 1_555 1_555
C121 C120 1_555 1_555
C122 C121 1_555 1_555
C123 C122 1_555 1_555
C124 N26 1_555 1_555
N27 Cd2 1_555 1_555
N28 N27 1_555 1_555
C125 N28 1_555 1_555
C126 C125 1_555 1_555
C127 C124 1_555 1_555
C128 N28 1_555 1_555
C129 C128 1_555 1_555
C130 C129 1_555 1_555
C131 C130 1_555 1_555
C132 C131 1_555 1_555
C133 C132 1_555 1_555
C134 C129 1_555 1_555
C135 C131 1_555 1_555
C136 C135 1_555 1_555
C137 C136 1_555 1_555
C138 C132 1_555 1_555
N29 N30 1_555 1_555
N30 C139 1_555 1_555
C139 C140 1_555 1_555
C140 C141 1_555 1_555
C141 N29 1_555 1_555
C142 C134 1_555 1_555
N31 Cd1 1_555 1_555
C143 N31 1_555 1_555
C144 C143 1_555 1_555
C145 C144 1_555 1_555
C146 C145 1_555 1_555
C147 C141 1_555 1_555
N32 Cd1 1_555 1_555
C148 C143 1_555 1_555
C149 C148 1_555 1_555
C150 C149 1_555 1_555
C151 C150 1_555 1_555
C152 N32 1_555 1_555
N33 Cd1 1_555 1_555
C153 N33 1_555 1_555
C154 C153 1_555 1_555
C155 C154 1_555 1_555
C156 C155 1_555 1_555
C157 N33 1_555 1_555
N34 Cd1 1_555 1_555
C158 C153 1_555 1_555
C159 C158 1_555 1_555
C160 C159 1_555 1_555
C161 C160 1_555 1_555
C162 N34 1_555 1_555
N35 Cd1 1_555 1_555
N36 N35 1_555 1_555
C163 N36 1_555 1_555
C164 C163 1_555 1_555
C165 C162 1_555 1_555
C166 N36 1_555 1_555
C167 C166 1_555 1_555
C168 C167 1_555 1_555
C169 C168 1_555 1_555
C170 C169 1_555 1_555
C171 C170 1_555 1_555
C172 C167 1_555 1_555
C173 C169 1_555 1_555
C174 C173 1_555 1_555
C175 C174 1_555 1_555
C176 C170 1_555 1_555
N37 N38 1_555 1_555
N38 C177 1_555 1_555
C177 C178 1_555 1_555
C178 C179 1_555 1_555
C179 N37 1_555 1_555
C180 C172 1_555 1_555
N39 Cd6 1_555 1_555
C181 C179 1_555 1_555
C182 C181 1_555 1_555
C183 C182 1_555 1_555
C184 C183 1_555 1_555
C185 N39 1_555 1_555
N40 Cd6 1_555 1_555
C186 C185 1_555 1_555
C187 C186 1_555 1_555
C188 C187 1_555 1_555
C189 C188 1_555 1_555
C190 N40 1_555 1_555
N41 Cd6 1_555 1_555
C191 N41 1_555 1_555
C192 C191 1_555 1_555
C193 C192 1_555 1_555
C194 C193 1_555 1_555
C195 N41 1_555 1_555
N42 Cd6 1_555 1_555
C196 C191 1_555 1_555
C197 C196 1_555 1_555
C198 C197 1_555 1_555
C199 C198 1_555 1_555
C200 N42 1_555 1_555
N43 Cd6 1_555 1_555
N44 N43 1_555 1_555
C201 N44 1_555 1_555
C202 C201 1_555 1_555
C203 C200 1_555 1_555
C204 N44 1_555 1_555
C205 C204 1_555 1_555
C206 C205 1_555 1_555
C207 C206 1_555 1_555
C208 C207 1_555 1_555
C209 C208 1_555 1_555
C210 C205 1_555 1_555
C211 C207 1_555 1_555
C212 C211 1_555 1_555
C213 C212 1_555 1_555
C214 C208 1_555 1_555
N45 Cd5 1_555 1_555
N46 N45 1_555 1_555
C215 N46 1_555 1_555
C216 C215 1_555 1_555
C217 N45 1_555 1_555
C218 C210 1_555 1_555
N47 Cd5 1_555 1_555
C219 N47 1_555 1_555
C220 C219 1_555 1_555
C221 C220 1_555 1_555
C222 C221 1_555 1_555
C223 C217 1_555 1_555
N48 Cd5 1_555 1_555
C224 C219 1_555 1_555
C225 C224 1_555 1_555
C226 C225 1_555 1_555
C227 C226 1_555 1_555
C228 N48 1_555 1_555
H1 C1 1_555 1_555
H2 C2 1_555 1_555
H3 C3 1_555 1_555
H4 C4 1_555 1_555
H5 C7 1_555 1_555
H6 C8 1_555 1_555
H7 C9 1_555 1_555
H8 C11 1_555 1_555
H9 C12 1_555 1_555
H10 C14 1_555 1_555
H11 C14 1_555 1_555
H12 C16 1_555 1_555
H13 C19 1_555 1_555
H14 C21 1_555 1_555
H15 C22 1_555 1_555
H16 C23 1_555 1_555
H17 C24 1_555 1_555
H18 C25 1_555 1_555
H19 C26 1_555 1_555
H20 C28 1_555 1_555
H21 C28 1_555 1_555
H22 C30 1_555 1_555
H23 C31 1_555 1_555
H24 C32 1_555 1_555
H25 C35 1_555 1_555
H26 C36 1_555 1_555
H27 C37 1_555 1_555
H28 C38 1_555 1_555
H29 C40 1_555 1_555
H30 C41 1_555 1_555
H31 C42 1_555 1_555
H32 C43 1_555 1_555
H33 C45 1_555 1_555
H34 C46 1_555 1_555
H35 C47 1_555 1_555
H36 C49 1_555 1_555
H37 C50 1_555 1_555
H38 C52 1_555 1_555
H39 C52 1_555 1_555
H40 C54 1_555 1_555
H41 C57 1_555 1_555
H42 C59 1_555 1_555
H43 C60 1_555 1_555
H44 C61 1_555 1_555
H45 C62 1_555 1_555
H46 C63 1_555 1_555
H47 C64 1_555 1_555
H48 C66 1_555 1_555
H49 C66 1_555 1_555
H50 C68 1_555 1_555
H51 C69 1_555 1_555
H52 C70 1_555 1_555
H53 C73 1_555 1_555
H54 C74 1_555 1_555
H55 C75 1_555 1_555
H56 C76 1_555 1_555
H57 C78 1_555 1_555
H58 C79 1_555 1_555
H59 C80 1_555 1_555
H60 C81 1_555 1_555
H61 C83 1_555 1_555
H62 C84 1_555 1_555
H63 C85 1_555 1_555
H64 C87 1_555 1_555
H65 C88 1_555 1_555
H66 C90 1_555 1_555
H67 C90 1_555 1_555
H68 C92 1_555 1_555
H69 C95 1_555 1_555
H70 C97 1_555 1_555
H71 C98 1_555 1_555
H72 C99 1_555 1_555
H73 C100 1_555 1_555
H74 C101 1_555 1_555
H75 C102 1_555 1_555
H76 C104 1_555 1_555
H77 C104 1_555 1_555
H78 C106 1_555 1_555
H79 C107 1_555 1_555
H80 C108 1_555 1_555
H81 C111 1_555 1_555
H82 C112 1_555 1_555
H83 C113 1_555 1_555
H84 C114 1_555 1_555
H85 C116 1_555 1_555
H86 C117 1_555 1_555
H87 C118 1_555 1_555
H88 C119 1_555 1_555
H89 C121 1_555 1_555
H90 C122 1_555 1_555
H91 C123 1_555 1_555
H92 C125 1_555 1_555
H93 C126 1_555 1_555
H94 C128 1_555 1_555
H95 C128 1_555 1_555
H96 C130 1_555 1_555
H97 C133 1_555 1_555
H98 C135 1_555 1_555
H99 C136 1_555 1_555
H100 C137 1_555 1_555
H101 C138 1_555 1_555
H102 C139 1_555 1_555
H103 C140 1_555 1_555
H104 C142 1_555 1_555
H105 C142 1_555 1_555
H106 C144 1_555 1_555
H107 C145 1_555 1_555
H108 C146 1_555 1_555
H109 C149 1_555 1_555
H110 C150 1_555 1_555
H111 C151 1_555 1_555
H112 C152 1_555 1_555
H113 C154 1_555 1_555
H114 C155 1_555 1_555
H115 C156 1_555 1_555
H116 C157 1_555 1_555
H117 C159 1_555 1_555
H118 C160 1_555 1_555
H119 C161 1_555 1_555
H120 C163 1_555 1_555
H121 C164 1_555 1_555
H122 C166 1_555 1_555
H123 C166 1_555 1_555
H124 C168 1_555 1_555
H125 C171 1_555 1_555
H126 C173 1_555 1_555
H127 C174 1_555 1_555
H128 C175 1_555 1_555
H129 C176 1_555 1_555
H130 C177 1_555 1_555
H131 C178 1_555 1_555
H132 C180 1_555 1_555
H133 C180 1_555 1_555
H134 C182 1_555 1_555
H135 C183 1_555 1_555
H136 C184 1_555 1_555
H137 C187 1_555 1_555
H138 C188 1_555 1_555
H139 C189 1_555 1_555
H140 C190 1_555 1_555
H141 C192 1_555 1_555
H142 C193 1_555 1_555
H143 C194 1_555 1_555
H144 C195 1_555 1_555
H145 C197 1_555 1_555
H146 C198 1_555 1_555
H147 C199 1_555 1_555
H148 C201 1_555 1_555
H149 C202 1_555 1_555
H150 C204 1_555 1_555
H151 C204 1_555 1_555
H152 C206 1_555 1_555
H153 C209 1_555 1_555
H154 C211 1_555 1_555
H155 C212 1_555 1_555
H156 C213 1_555 1_555
H157 C214 1_555 1_555
H158 C215 1_555 1_555
H159 C216 1_555 1_555
H160 C218 1_555 1_555
H161 C218 1_555 1_555
H162 C220 1_555 1_555
H163 C221 1_555 1_555
H164 C222 1_555 1_555
H165 C225 1_555 1_555
H166 C226 1_555 1_555
H167 C227 1_555 1_555
H168 C228 1_555 1_555
N2 C6 1_555 1_555
C9 C10 1_555 1_555
N3 C13 1_555 1_555
C12 C13 1_555 1_555
C19 C20 1_555 1_555
C23 C24 1_555 1_555
N6 C28 1_555 1_555
N7 C33 1_555 1_555
C32 C33 1_555 1_555
N8 C34 1_555 1_555
C37 C38 1_555 1_555
C42 C43 1_555 1_555
N10 C44 1_555 1_555
C47 C48 1_555 1_555
N11 C51 1_555 1_555
C50 C51 1_555 1_555
C57 C58 1_555 1_555
C61 C62 1_555 1_555
N14 C66 1_555 1_555
N15 C71 1_555 1_555
C70 C71 1_555 1_555
N16 C72 1_555 1_555
C75 C76 1_555 1_555
C80 C81 1_555 1_555
N18 C82 1_555 1_555
C85 C86 1_555 1_555
N19 C89 1_555 1_555
C88 C89 1_555 1_555
C95 C96 1_555 1_555
C99 C100 1_555 1_555
N22 C104 1_555 1_555
N23 C109 1_555 1_555
C108 C109 1_555 1_555
N24 C110 1_555 1_555
C113 C114 1_555 1_555
C118 C119 1_555 1_555
N26 C120 1_555 1_555
C123 C124 1_555 1_555
N27 C127 1_555 1_555
C126 C127 1_555 1_555
C133 C134 1_555 1_555
C137 C138 1_555 1_555
N30 C142 1_555 1_555
N31 C147 1_555 1_555
C146 C147 1_555 1_555
N32 C148 1_555 1_555
C151 C152 1_555 1_555
C156 C157 1_555 1_555
N34 C158 1_555 1_555
C161 C162 1_555 1_555
N35 C165 1_555 1_555
C164 C165 1_555 1_555
C171 C172 1_555 1_555
C175 C176 1_555 1_555
N38 C180 1_555 1_555
N39 C181 1_555 1_555
C184 C185 1_555 1_555
N40 C186 1_555 1_555
C189 C190 1_555 1_555
C194 C195 1_555 1_555
N42 C196 1_555 1_555
C199 C200 1_555 1_555
N43 C203 1_555 1_555
C202 C203 1_555 1_555
C209 C210 1_555 1_555
C213 C214 1_555 1_555
N46 C218 1_555 1_555
C216 C217 1_555 1_555
N47 C223 1_555 1_555
C222 C223 1_555 1_555
N48 C224 1_555 1_555
C227 C228 1_555 1_555

#END
