# generated using pymatgen
data_CdH28C38N8(ClO6)2
_symmetry_space_group_name_H-M   'P 1'
_cell_length_a   25.35000000
_cell_length_b   26.01500000
_cell_length_c   41.39800000
_cell_angle_alpha   90.00000000
_cell_angle_beta   95.76200000
_cell_angle_gamma   90.00000000
_symmetry_Int_Tables_number   1
_chemical_formula_structural   CdH28C38N8(ClO6)2
_chemical_formula_sum   'Cd24 H672 C912 N192 Cl48 O288'
_cell_volume   27163.22461886
_cell_formula_units_Z   24
loop_
 _symmetry_equiv_pos_site_id
 _symmetry_equiv_pos_as_xyz
  1  'x, y, z'
loop_
 _atom_site_type_symbol
 _atom_site_label
 _atom_site_symmetry_multiplicity
 _atom_site_fract_x
 _atom_site_fract_y
 _atom_site_fract_z
 _atom_site_occupancy
  Cd  Cd1  1  0.528900  0.327650  0.479500  1
  Cd  Cd2  1  0.971100  0.827650  0.020500  1
  Cd  Cd3  1  0.471100  0.672350  0.520500  1
  Cd  Cd4  1  0.028900  0.172350  0.979500  1
  Cd  Cd5  1  0.341120  0.135400  0.376180  1
  Cd  Cd6  1  0.158880  0.635400  0.123820  1
  Cd  Cd7  1  0.658880  0.864600  0.623820  1
  Cd  Cd8  1  0.841120  0.364600  0.876180  1
  Cd  Cd9  1  0.379770  0.209960  0.187200  1
  Cd  Cd10  1  0.120230  0.709960  0.312800  1
  Cd  Cd11  1  0.620230  0.790040  0.812800  1
  Cd  Cd12  1  0.879770  0.290040  0.687200  1
  Cd  Cd13  1  0.637720  0.380290  0.172200  1
  Cd  Cd14  1  0.862280  0.880290  0.327800  1
  Cd  Cd15  1  0.362280  0.619710  0.827800  1
  Cd  Cd16  1  0.137720  0.119710  0.672200  1
  Cd  Cd17  1  0.906050  0.299260  0.273790  1
  Cd  Cd18  1  0.593950  0.799260  0.226210  1
  Cd  Cd19  1  0.093950  0.700740  0.726210  1
  Cd  Cd20  1  0.406050  0.200740  0.773790  1
  Cd  Cd21  1  0.850030  0.361860  0.466470  1
  Cd  Cd22  1  0.649970  0.861860  0.033530  1
  Cd  Cd23  1  0.149970  0.638140  0.533530  1
  Cd  Cd24  1  0.350030  0.138140  0.966470  1
  H  H25  1  0.942700  0.173000  0.274800  1
  H  H26  1  0.557300  0.673000  0.225200  1
  H  H27  1  0.057300  0.827000  0.725200  1
  H  H28  1  0.442700  0.327000  0.774800  1
  H  H29  1  0.015200  0.121600  0.293300  1
  H  H30  1  0.484800  0.621600  0.206700  1
  H  H31  1  0.984800  0.878400  0.706700  1
  H  H32  1  0.515200  0.378400  0.793300  1
  H  H33  1  0.089200  0.158300  0.322900  1
  H  H34  1  0.410800  0.658300  0.177100  1
  H  H35  1  0.910800  0.841700  0.677100  1
  H  H36  1  0.589200  0.341700  0.822900  1
  H  H37  1  0.090700  0.246500  0.334000  1
  H  H38  1  0.409300  0.746500  0.166000  1
  H  H39  1  0.909300  0.753500  0.666000  1
  H  H40  1  0.590700  0.253500  0.834000  1
  H  H41  1  0.085300  0.324000  0.342100  1
  H  H42  1  0.414700  0.824000  0.157900  1
  H  H43  1  0.914700  0.676000  0.657900  1
  H  H44  1  0.585300  0.176000  0.842100  1
  H  H45  1  0.076300  0.411200  0.354200  1
  H  H46  1  0.423700  0.911200  0.145800  1
  H  H47  1  0.923700  0.588800  0.645800  1
  H  H48  1  0.576300  0.088800  0.854200  1
  H  H49  1  0.998400  0.455000  0.335800  1
  H  H50  1  0.501600  0.955000  0.164200  1
  H  H51  1  0.001600  0.545000  0.664200  1
  H  H52  1  0.498400  0.045000  0.835800  1
  H  H53  1  0.808000  0.482100  0.279200  1
  H  H54  1  0.692000  0.982100  0.220800  1
  H  H55  1  0.192000  0.517900  0.720800  1
  H  H56  1  0.308000  0.017900  0.779200  1
  H  H57  1  0.901700  0.490500  0.306700  1
  H  H58  1  0.598300  0.990500  0.193300  1
  H  H59  1  0.098300  0.509500  0.693300  1
  H  H60  1  0.401700  0.009500  0.806700  1
  H  H61  1  0.749200  0.403000  0.257700  1
  H  H62  1  0.750800  0.903000  0.242300  1
  H  H63  1  0.250800  0.597000  0.742300  1
  H  H64  1  0.249200  0.097000  0.757700  1
  H  H65  1  0.768700  0.350700  0.275200  1
  H  H66  1  0.731300  0.850700  0.224800  1
  H  H67  1  0.231300  0.649300  0.724800  1
  H  H68  1  0.268700  0.149300  0.775200  1
  H  H69  1  0.841800  0.399600  0.214300  1
  H  H70  1  0.658200  0.899600  0.285700  1
  H  H71  1  0.158200  0.600400  0.785700  1
  H  H72  1  0.341800  0.100400  0.714300  1
  H  H73  1  0.736000  0.258500  0.180800  1
  H  H74  1  0.764000  0.758500  0.319200  1
  H  H75  1  0.264000  0.741500  0.819200  1
  H  H76  1  0.236000  0.241500  0.680800  1
  H  H77  1  0.887100  0.394900  0.164200  1
  H  H78  1  0.612900  0.894900  0.335800  1
  H  H79  1  0.112900  0.605100  0.835800  1
  H  H80  1  0.387100  0.105100  0.664200  1
  H  H81  1  0.899000  0.353600  0.115200  1
  H  H82  1  0.601000  0.853600  0.384800  1
  H  H83  1  0.101000  0.646400  0.884800  1
  H  H84  1  0.399000  0.146400  0.615200  1
  H  H85  1  0.845200  0.284000  0.099000  1
  H  H86  1  0.654800  0.784000  0.401000  1
  H  H87  1  0.154800  0.716000  0.901000  1
  H  H88  1  0.345200  0.216000  0.599000  1
  H  H89  1  0.787300  0.249600  0.132300  1
  H  H90  1  0.712700  0.749600  0.367700  1
  H  H91  1  0.212700  0.750400  0.867700  1
  H  H92  1  0.287300  0.250400  0.632300  1
  H  H93  1  0.670000  0.304500  0.297600  1
  H  H94  1  0.830000  0.804500  0.202400  1
  H  H95  1  0.330000  0.695500  0.702400  1
  H  H96  1  0.170000  0.195500  0.797600  1
  H  H97  1  0.595500  0.369900  0.294700  1
  H  H98  1  0.904500  0.869900  0.205300  1
  H  H99  1  0.404500  0.630100  0.705300  1
  H  H100  1  0.095500  0.130100  0.794700  1
  H  H101  1  0.695900  0.258000  0.225000  1
  H  H102  1  0.804100  0.758000  0.275000  1
  H  H103  1  0.304100  0.742000  0.775000  1
  H  H104  1  0.195900  0.242000  0.725000  1
  H  H105  1  0.733700  0.272500  0.256900  1
  H  H106  1  0.766300  0.772500  0.243100  1
  H  H107  1  0.266300  0.727500  0.743100  1
  H  H108  1  0.233700  0.227500  0.756900  1
  H  H109  1  0.474000  0.500800  0.185800  1
  H  H110  1  0.026000  0.000800  0.314200  1
  H  H111  1  0.526000  0.499200  0.814200  1
  H  H112  1  0.974000  0.999200  0.685800  1
  H  H113  1  0.465400  0.481100  0.240100  1
  H  H114  1  0.034600  0.981100  0.259900  1
  H  H115  1  0.534600  0.518900  0.759900  1
  H  H116  1  0.965400  0.018900  0.740100  1
  H  H117  1  0.524500  0.423700  0.268200  1
  H  H118  1  0.975500  0.923700  0.231800  1
  H  H119  1  0.475500  0.576300  0.731800  1
  H  H120  1  0.024500  0.076300  0.768200  1
  H  H121  1  0.491700  0.521500  0.136300  1
  H  H122  1  0.008300  0.021500  0.363700  1
  H  H123  1  0.508300  0.478500  0.863700  1
  H  H124  1  0.991700  0.978500  0.636300  1
  H  H125  1  0.504100  0.526100  0.081200  1
  H  H126  1  0.995900  0.026100  0.418800  1
  H  H127  1  0.495900  0.473900  0.918800  1
  H  H128  1  0.004100  0.973900  0.581200  1
  H  H129  1  0.565200  0.471700  0.059600  1
  H  H130  1  0.934800  0.971700  0.440400  1
  H  H131  1  0.434800  0.528300  0.940400  1
  H  H132  1  0.065200  0.028300  0.559600  1
  H  H133  1  0.613800  0.412600  0.093300  1
  H  H134  1  0.886200  0.912600  0.406700  1
  H  H135  1  0.386200  0.587400  0.906700  1
  H  H136  1  0.113800  0.087400  0.593300  1
  H  H137  1  0.801900  0.487400  0.140900  1
  H  H138  1  0.698100  0.987400  0.359100  1
  H  H139  1  0.198100  0.512600  0.859100  1
  H  H140  1  0.301900  0.012600  0.640900  1
  H  H141  1  0.809600  0.544400  0.184800  1
  H  H142  1  0.690400  0.044400  0.315200  1
  H  H143  1  0.190400  0.455600  0.815200  1
  H  H144  1  0.309600  0.955600  0.684800  1
  H  H145  1  0.750800  0.538900  0.224700  1
  H  H146  1  0.749200  0.038900  0.275300  1
  H  H147  1  0.249200  0.461100  0.775300  1
  H  H148  1  0.250800  0.961100  0.724700  1
  H  H149  1  0.684100  0.476300  0.220700  1
  H  H150  1  0.815900  0.976300  0.279300  1
  H  H151  1  0.315900  0.523700  0.779300  1
  H  H152  1  0.184100  0.023700  0.720700  1
  H  H153  1  0.780100  0.441400  0.099100  1
  H  H154  1  0.719900  0.941400  0.400900  1
  H  H155  1  0.219900  0.558600  0.900900  1
  H  H156  1  0.280100  0.058600  0.599100  1
  H  H157  1  0.764900  0.378800  0.058700  1
  H  H158  1  0.735100  0.878800  0.441300  1
  H  H159  1  0.235100  0.621200  0.941300  1
  H  H160  1  0.264900  0.121200  0.558700  1
  H  H161  1  0.705600  0.311500  0.065200  1
  H  H162  1  0.794400  0.811500  0.434800  1
  H  H163  1  0.294400  0.688500  0.934800  1
  H  H164  1  0.205600  0.188500  0.565200  1
  H  H165  1  0.585600  0.192500  0.117700  1
  H  H166  1  0.914400  0.692500  0.382300  1
  H  H167  1  0.414400  0.807500  0.882300  1
  H  H168  1  0.085600  0.307500  0.617700  1
  H  H169  1  0.650600  0.236300  0.083900  1
  H  H170  1  0.849400  0.736300  0.416100  1
  H  H171  1  0.349400  0.763700  0.916100  1
  H  H172  1  0.150600  0.263700  0.583900  1
  H  H173  1  0.581300  0.263600  0.194700  1
  H  H174  1  0.918700  0.763600  0.305300  1
  H  H175  1  0.418700  0.736400  0.805300  1
  H  H176  1  0.081300  0.236400  0.694700  1
  H  H177  1  0.544500  0.221800  0.175000  1
  H  H178  1  0.955500  0.721800  0.325000  1
  H  H179  1  0.455500  0.778200  0.825000  1
  H  H180  1  0.044500  0.278200  0.675000  1
  H  H181  1  0.520100  0.308400  0.121100  1
  H  H182  1  0.979900  0.808400  0.378900  1
  H  H183  1  0.479900  0.691600  0.878900  1
  H  H184  1  0.020100  0.191600  0.621100  1
  H  H185  1  0.429100  0.350400  0.209600  1
  H  H186  1  0.070900  0.850400  0.290400  1
  H  H187  1  0.570900  0.649600  0.790400  1
  H  H188  1  0.929100  0.149600  0.709600  1
  H  H189  1  0.466200  0.369100  0.086100  1
  H  H190  1  0.033800  0.869100  0.413900  1
  H  H191  1  0.533800  0.630900  0.913900  1
  H  H192  1  0.966200  0.130900  0.586100  1
  H  H193  1  0.402200  0.435700  0.082500  1
  H  H194  1  0.097800  0.935700  0.417500  1
  H  H195  1  0.597800  0.564300  0.917500  1
  H  H196  1  0.902200  0.064300  0.582500  1
  H  H197  1  0.357200  0.458900  0.128300  1
  H  H198  1  0.142800  0.958900  0.371700  1
  H  H199  1  0.642800  0.541100  0.871700  1
  H  H200  1  0.857200  0.041100  0.628300  1
  H  H201  1  0.381700  0.419500  0.178400  1
  H  H202  1  0.118300  0.919500  0.321600  1
  H  H203  1  0.618300  0.580500  0.821600  1
  H  H204  1  0.881700  0.080500  0.678400  1
  H  H205  1  0.571100  0.211900  0.261200  1
  H  H206  1  0.928900  0.711900  0.238800  1
  H  H207  1  0.428900  0.788100  0.738800  1
  H  H208  1  0.071100  0.288100  0.761200  1
  H  H209  1  0.541200  0.119100  0.254500  1
  H  H210  1  0.958800  0.619100  0.245500  1
  H  H211  1  0.458800  0.880900  0.745500  1
  H  H212  1  0.041200  0.380900  0.754500  1
  H  H213  1  0.537600  0.298300  0.236300  1
  H  H214  1  0.962400  0.798300  0.263700  1
  H  H215  1  0.462400  0.701700  0.763700  1
  H  H216  1  0.037600  0.201700  0.736300  1
  H  H217  1  0.476900  0.299300  0.243700  1
  H  H218  1  0.023100  0.799300  0.256300  1
  H  H219  1  0.523100  0.700700  0.756300  1
  H  H220  1  0.976900  0.200700  0.743700  1
  H  H221  1  0.340400  0.014200  0.178800  1
  H  H222  1  0.159600  0.514200  0.321200  1
  H  H223  1  0.659600  0.985800  0.821200  1
  H  H224  1  0.840400  0.485800  0.678800  1
  H  H225  1  0.419800  0.986000  0.206900  1
  H  H226  1  0.080200  0.486000  0.293100  1
  H  H227  1  0.580200  0.014000  0.793100  1
  H  H228  1  0.919800  0.514000  0.706900  1
  H  H229  1  0.482800  0.045700  0.228400  1
  H  H230  1  0.017200  0.545700  0.271600  1
  H  H231  1  0.517200  0.954300  0.771600  1
  H  H232  1  0.982800  0.454300  0.728400  1
  H  H233  1  0.267800  0.041000  0.157300  1
  H  H234  1  0.232200  0.541000  0.342700  1
  H  H235  1  0.732200  0.959000  0.842700  1
  H  H236  1  0.767800  0.459000  0.657300  1
  H  H237  1  0.185500  0.076900  0.139000  1
  H  H238  1  0.314500  0.576900  0.361000  1
  H  H239  1  0.814500  0.923100  0.861000  1
  H  H240  1  0.685500  0.423100  0.639000  1
  H  H241  1  0.173200  0.165900  0.141300  1
  H  H242  1  0.326800  0.665900  0.358700  1
  H  H243  1  0.826800  0.834100  0.858700  1
  H  H244  1  0.673200  0.334100  0.641300  1
  H  H245  1  0.243200  0.219100  0.161800  1
  H  H246  1  0.256800  0.719100  0.338200  1
  H  H247  1  0.756800  0.780900  0.838200  1
  H  H248  1  0.743200  0.280900  0.661800  1
  H  H249  1  0.386800  0.287200  0.070100  1
  H  H250  1  0.113200  0.787200  0.429900  1
  H  H251  1  0.613200  0.712800  0.929900  1
  H  H252  1  0.886800  0.212800  0.570100  1
  H  H253  1  0.448400  0.230700  0.051000  1
  H  H254  1  0.051600  0.730700  0.449000  1
  H  H255  1  0.551600  0.769300  0.949000  1
  H  H256  1  0.948400  0.269300  0.551000  1
  H  H257  1  0.483300  0.163300  0.084000  1
  H  H258  1  0.016700  0.663300  0.416000  1
  H  H259  1  0.516700  0.836700  0.916000  1
  H  H260  1  0.983300  0.336700  0.584000  1
  H  H261  1  0.456600  0.152500  0.136100  1
  H  H262  1  0.043400  0.652500  0.363900  1
  H  H263  1  0.543400  0.847500  0.863900  1
  H  H264  1  0.956600  0.347500  0.636100  1
  H  H265  1  0.313100  0.321200  0.085900  1
  H  H266  1  0.186900  0.821200  0.414100  1
  H  H267  1  0.686900  0.678800  0.914100  1
  H  H268  1  0.813100  0.178800  0.585900  1
  H  H269  1  0.250800  0.369300  0.111000  1
  H  H270  1  0.249200  0.869300  0.389000  1
  H  H271  1  0.749200  0.630700  0.889000  1
  H  H272  1  0.750800  0.130700  0.611000  1
  H  H273  1  0.244700  0.360600  0.166800  1
  H  H274  1  0.255300  0.860600  0.333200  1
  H  H275  1  0.755300  0.639400  0.833200  1
  H  H276  1  0.744700  0.139400  0.666800  1
  H  H277  1  0.283800  0.308900  0.282100  1
  H  H278  1  0.216200  0.808900  0.217900  1
  H  H279  1  0.716200  0.691100  0.717900  1
  H  H280  1  0.783800  0.191100  0.782100  1
  H  H281  1  0.249100  0.346500  0.227600  1
  H  H282  1  0.250900  0.846500  0.272400  1
  H  H283  1  0.750900  0.653500  0.772400  1
  H  H284  1  0.749100  0.153500  0.727600  1
  H  H285  1  0.370300  0.248800  0.301200  1
  H  H286  1  0.129700  0.748800  0.198800  1
  H  H287  1  0.629700  0.751200  0.698800  1
  H  H288  1  0.870300  0.251200  0.801200  1
  H  H289  1  0.409100  0.240700  0.273400  1
  H  H290  1  0.090900  0.740700  0.226600  1
  H  H291  1  0.590900  0.759300  0.726600  1
  H  H292  1  0.909100  0.259300  0.773400  1
  H  H293  1  0.286900  0.181200  0.247400  1
  H  H294  1  0.213100  0.681200  0.252600  1
  H  H295  1  0.713100  0.818800  0.752600  1
  H  H296  1  0.786900  0.318800  0.747400  1
  H  H297  1  0.412300  0.068800  0.304700  1
  H  H298  1  0.087700  0.568800  0.195300  1
  H  H299  1  0.587700  0.931200  0.695300  1
  H  H300  1  0.912300  0.431200  0.804700  1
  H  H301  1  0.232500  0.109100  0.228900  1
  H  H302  1  0.267500  0.609100  0.271100  1
  H  H303  1  0.767500  0.890900  0.771100  1
  H  H304  1  0.732500  0.390900  0.728900  1
  H  H305  1  0.224500  0.018300  0.226300  1
  H  H306  1  0.275500  0.518300  0.273700  1
  H  H307  1  0.775500  0.981700  0.773700  1
  H  H308  1  0.724500  0.481700  0.726300  1
  H  H309  1  0.283300  0.965100  0.250700  1
  H  H310  1  0.216700  0.465100  0.249300  1
  H  H311  1  0.716700  0.034900  0.749300  1
  H  H312  1  0.783300  0.534900  0.750700  1
  H  H313  1  0.358000  0.993600  0.283700  1
  H  H314  1  0.142000  0.493600  0.216300  1
  H  H315  1  0.642000  0.006400  0.716300  1
  H  H316  1  0.858000  0.506400  0.783700  1
  H  H317  1  0.538500  0.110000  0.333700  1
  H  H318  1  0.961500  0.610000  0.166300  1
  H  H319  1  0.461500  0.890000  0.666300  1
  H  H320  1  0.038500  0.390000  0.833700  1
  H  H321  1  0.538000  0.061600  0.386800  1
  H  H322  1  0.962000  0.561600  0.113200  1
  H  H323  1  0.462000  0.938400  0.613200  1
  H  H324  1  0.038000  0.438400  0.886800  1
  H  H325  1  0.471700  0.175000  0.301400  1
  H  H326  1  0.028300  0.675000  0.198600  1
  H  H327  1  0.528300  0.825000  0.698600  1
  H  H328  1  0.971700  0.325000  0.801400  1
  H  H329  1  0.431400  0.201500  0.323700  1
  H  H330  1  0.068600  0.701500  0.176300  1
  H  H331  1  0.568600  0.798500  0.676300  1
  H  H332  1  0.931400  0.298500  0.823700  1
  H  H333  1  0.373400  0.050100  0.492400  1
  H  H334  1  0.126600  0.550100  0.007600  1
  H  H335  1  0.626600  0.949900  0.507600  1
  H  H336  1  0.873400  0.449900  0.992400  1
  H  H337  1  0.460800  0.023600  0.488600  1
  H  H338  1  0.039200  0.523600  0.011400  1
  H  H339  1  0.539200  0.976400  0.511400  1
  H  H340  1  0.960800  0.476400  0.988600  1
  H  H341  1  0.501800  0.041400  0.441700  1
  H  H342  1  0.998200  0.541400  0.058300  1
  H  H343  1  0.498200  0.958600  0.558300  1
  H  H344  1  0.001800  0.458600  0.941700  1
  H  H345  1  0.289200  0.074200  0.490300  1
  H  H346  1  0.210800  0.574200  0.009700  1
  H  H347  1  0.710800  0.925800  0.509700  1
  H  H348  1  0.789200  0.425800  0.990300  1
  H  H349  1  0.204400  0.110500  0.487700  1
  H  H350  1  0.295600  0.610500  0.012300  1
  H  H351  1  0.795600  0.889500  0.512300  1
  H  H352  1  0.704400  0.389500  0.987700  1
  H  H353  1  0.173000  0.160500  0.442800  1
  H  H354  1  0.327000  0.660500  0.057200  1
  H  H355  1  0.827000  0.839500  0.557200  1
  H  H356  1  0.673000  0.339500  0.942800  1
  H  H357  1  0.226200  0.174000  0.400600  1
  H  H358  1  0.273800  0.674000  0.099400  1
  H  H359  1  0.773800  0.826000  0.599400  1
  H  H360  1  0.726200  0.326000  0.900600  1
  H  H361  1  0.193900  0.030500  0.306900  1
  H  H362  1  0.306100  0.530500  0.193100  1
  H  H363  1  0.806100  0.969500  0.693100  1
  H  H364  1  0.693900  0.469500  0.806900  1
  H  H365  1  0.224700  0.947700  0.320300  1
  H  H366  1  0.275300  0.447700  0.179700  1
  H  H367  1  0.775300  0.052300  0.679700  1
  H  H368  1  0.724700  0.552300  0.820300  1
  H  H369  1  0.303800  0.936500  0.353900  1
  H  H370  1  0.196200  0.436500  0.146100  1
  H  H371  1  0.696200  0.063500  0.646100  1
  H  H372  1  0.803800  0.563500  0.853900  1
  H  H373  1  0.352000  0.008300  0.374100  1
  H  H374  1  0.148000  0.508300  0.125900  1
  H  H375  1  0.648000  0.991700  0.625900  1
  H  H376  1  0.852000  0.491700  0.874100  1
  H  H377  1  0.175500  0.105600  0.291500  1
  H  H378  1  0.324500  0.605600  0.208500  1
  H  H379  1  0.824500  0.894400  0.708500  1
  H  H380  1  0.675500  0.394400  0.791500  1
  H  H381  1  0.155200  0.192100  0.280700  1
  H  H382  1  0.344800  0.692100  0.219300  1
  H  H383  1  0.844800  0.807900  0.719300  1
  H  H384  1  0.655200  0.307900  0.780700  1
  H  H385  1  0.207100  0.256800  0.307000  1
  H  H386  1  0.292900  0.756800  0.193000  1
  H  H387  1  0.792900  0.743200  0.693000  1
  H  H388  1  0.707100  0.243200  0.807000  1
  H  H389  1  0.353500  0.345200  0.376200  1
  H  H390  1  0.146500  0.845200  0.123800  1
  H  H391  1  0.646500  0.654800  0.623800  1
  H  H392  1  0.853500  0.154800  0.876200  1
  H  H393  1  0.266300  0.321500  0.344100  1
  H  H394  1  0.233700  0.821500  0.155900  1
  H  H395  1  0.733700  0.678500  0.655900  1
  H  H396  1  0.766300  0.178500  0.844100  1
  H  H397  1  0.441900  0.290400  0.397000  1
  H  H398  1  0.058100  0.790400  0.103000  1
  H  H399  1  0.558100  0.709600  0.603000  1
  H  H400  1  0.941900  0.209600  0.897000  1
  H  H401  1  0.443400  0.233900  0.381700  1
  H  H402  1  0.056600  0.733900  0.118300  1
  H  H403  1  0.556600  0.766100  0.618300  1
  H  H404  1  0.943400  0.266100  0.881700  1
  H  H405  1  0.344100  0.256900  0.434000  1
  H  H406  1  0.155900  0.756900  0.066000  1
  H  H407  1  0.655900  0.743100  0.566000  1
  H  H408  1  0.844100  0.243100  0.934000  1
  H  H409  1  0.489200  0.168600  0.482500  1
  H  H410  1  0.010800  0.668600  0.017500  1
  H  H411  1  0.510800  0.831400  0.517500  1
  H  H412  1  0.989200  0.331400  0.982500  1
  H  H413  1  0.292600  0.237100  0.479300  1
  H  H414  1  0.207400  0.737100  0.020700  1
  H  H415  1  0.707400  0.762900  0.520700  1
  H  H416  1  0.792600  0.262900  0.979300  1
  H  H417  1  0.294500  0.206400  0.532100  1
  H  H418  1  0.205500  0.706400  0.967900  1
  H  H419  1  0.705500  0.793600  0.467900  1
  H  H420  1  0.794500  0.293600  0.032100  1
  H  H421  1  0.360400  0.150400  0.552100  1
  H  H422  1  0.139600  0.650400  0.947900  1
  H  H423  1  0.639600  0.849600  0.447900  1
  H  H424  1  0.860400  0.349600  0.052100  1
  H  H425  1  0.436000  0.139100  0.527100  1
  H  H426  1  0.064000  0.639100  0.972900  1
  H  H427  1  0.564000  0.860900  0.472900  1
  H  H428  1  0.936000  0.360900  0.027100  1
  H  H429  1  0.559100  0.220400  0.368600  1
  H  H430  1  0.940900  0.720400  0.131400  1
  H  H431  1  0.440900  0.779600  0.631400  1
  H  H432  1  0.059100  0.279600  0.868600  1
  H  H433  1  0.587700  0.312700  0.360800  1
  H  H434  1  0.912300  0.812700  0.139200  1
  H  H435  1  0.412300  0.687300  0.639200  1
  H  H436  1  0.087700  0.187300  0.860800  1
  H  H437  1  0.542800  0.187400  0.444500  1
  H  H438  1  0.957200  0.687400  0.055500  1
  H  H439  1  0.457200  0.812600  0.555500  1
  H  H440  1  0.042800  0.312600  0.944500  1
  H  H441  1  0.508300  0.173600  0.411100  1
  H  H442  1  0.991700  0.673600  0.088900  1
  H  H443  1  0.491700  0.826400  0.588900  1
  H  H444  1  0.008300  0.326400  0.911100  1
  H  H445  1  0.597800  0.510700  0.448700  1
  H  H446  1  0.902200  0.010700  0.051300  1
  H  H447  1  0.402200  0.489300  0.551300  1
  H  H448  1  0.097800  0.989300  0.948700  1
  H  H449  1  0.612300  0.491700  0.395100  1
  H  H450  1  0.887700  0.991700  0.104900  1
  H  H451  1  0.387700  0.508300  0.604900  1
  H  H452  1  0.112300  0.008300  0.895100  1
  H  H453  1  0.594600  0.409100  0.374300  1
  H  H454  1  0.905400  0.909100  0.125700  1
  H  H455  1  0.405400  0.590900  0.625700  1
  H  H456  1  0.094600  0.090900  0.874300  1
  H  H457  1  0.584800  0.521200  0.497700  1
  H  H458  1  0.915200  0.021200  0.002300  1
  H  H459  1  0.415200  0.478800  0.502300  1
  H  H460  1  0.084800  0.978800  0.997700  1
  H  H461  1  0.563600  0.531600  0.551000  1
  H  H462  1  0.936400  0.031600  0.949000  1
  H  H463  1  0.436400  0.468400  0.449000  1
  H  H464  1  0.063600  0.968400  0.051000  1
  H  H465  1  0.527600  0.463000  0.578000  1
  H  H466  1  0.972400  0.963000  0.922000  1
  H  H467  1  0.472400  0.537000  0.422000  1
  H  H468  1  0.027600  0.037000  0.078000  1
  H  H469  1  0.512900  0.383900  0.551800  1
  H  H470  1  0.987100  0.883900  0.948200  1
  H  H471  1  0.487100  0.616100  0.448200  1
  H  H472  1  0.012900  0.116100  0.051800  1
  H  H473  1  0.342500  0.331600  0.524800  1
  H  H474  1  0.157500  0.831600  0.975200  1
  H  H475  1  0.657500  0.668400  0.475200  1
  H  H476  1  0.842500  0.168400  0.024800  1
  H  H477  1  0.295100  0.374200  0.481400  1
  H  H478  1  0.204900  0.874200  0.018600  1
  H  H479  1  0.704900  0.625800  0.518600  1
  H  H480  1  0.795100  0.125800  0.981400  1
  H  H481  1  0.337200  0.397100  0.435700  1
  H  H482  1  0.162800  0.897100  0.064300  1
  H  H483  1  0.662800  0.602900  0.564300  1
  H  H484  1  0.837200  0.102900  0.935700  1
  H  H485  1  0.426800  0.377300  0.433500  1
  H  H486  1  0.073200  0.877300  0.066500  1
  H  H487  1  0.573200  0.622700  0.566500  1
  H  H488  1  0.926800  0.122700  0.933500  1
  H  H489  1  0.390600  0.289000  0.563000  1
  H  H490  1  0.109400  0.789000  0.937000  1
  H  H491  1  0.609400  0.711000  0.437000  1
  H  H492  1  0.890600  0.211000  0.063000  1
  H  H493  1  0.446400  0.239000  0.598800  1
  H  H494  1  0.053600  0.739000  0.901200  1
  H  H495  1  0.553600  0.761000  0.401200  1
  H  H496  1  0.946400  0.261000  0.098800  1
  H  H497  1  0.531900  0.218500  0.586200  1
  H  H498  1  0.968100  0.718500  0.913800  1
  H  H499  1  0.468100  0.781500  0.413800  1
  H  H500  1  0.031900  0.281500  0.086200  1
  H  H501  1  0.695600  0.205900  0.528000  1
  H  H502  1  0.804400  0.705900  0.972000  1
  H  H503  1  0.304400  0.794100  0.472000  1
  H  H504  1  0.195600  0.294100  0.028000  1
  H  H505  1  0.622600  0.196500  0.565200  1
  H  H506  1  0.877400  0.696500  0.934800  1
  H  H507  1  0.377400  0.803500  0.434800  1
  H  H508  1  0.122600  0.303500  0.065200  1
  H  H509  1  0.646300  0.278400  0.455000  1
  H  H510  1  0.853700  0.778400  0.045000  1
  H  H511  1  0.353700  0.721600  0.545000  1
  H  H512  1  0.146300  0.221600  0.955000  1
  H  H513  1  0.701900  0.259400  0.472900  1
  H  H514  1  0.798100  0.759400  0.027100  1
  H  H515  1  0.298100  0.740600  0.527100  1
  H  H516  1  0.201900  0.240600  0.972900  1
  H  H517  1  0.662100  0.333400  0.530100  1
  H  H518  1  0.837900  0.833400  0.969900  1
  H  H519  1  0.337900  0.666600  0.469900  1
  H  H520  1  0.162100  0.166600  0.030100  1
  H  H521  1  0.724200  0.439100  0.451900  1
  H  H522  1  0.775800  0.939100  0.048100  1
  H  H523  1  0.275800  0.560900  0.548100  1
  H  H524  1  0.224200  0.060900  0.951900  1
  H  H525  1  0.667000  0.400900  0.568700  1
  H  H526  1  0.833000  0.900900  0.931300  1
  H  H527  1  0.333000  0.599100  0.431300  1
  H  H528  1  0.167000  0.099100  0.068700  1
  H  H529  1  0.690600  0.485000  0.583900  1
  H  H530  1  0.809400  0.985000  0.916100  1
  H  H531  1  0.309400  0.515000  0.416100  1
  H  H532  1  0.190600  0.015000  0.083900  1
  H  H533  1  0.722100  0.541200  0.546000  1
  H  H534  1  0.777900  0.041200  0.954000  1
  H  H535  1  0.277900  0.458800  0.454000  1
  H  H536  1  0.222100  0.958800  0.046000  1
  H  H537  1  0.730000  0.513500  0.493200  1
  H  H538  1  0.770000  0.013500  0.006800  1
  H  H539  1  0.270000  0.486500  0.506800  1
  H  H540  1  0.230000  0.986500  0.993200  1
  H  H541  1  0.695400  0.249600  0.394400  1
  H  H542  1  0.804600  0.749600  0.105600  1
  H  H543  1  0.304600  0.750400  0.605600  1
  H  H544  1  0.195400  0.250400  0.894400  1
  H  H545  1  0.778300  0.194700  0.403600  1
  H  H546  1  0.721700  0.694700  0.096400  1
  H  H547  1  0.221700  0.805300  0.596400  1
  H  H548  1  0.278300  0.305300  0.903600  1
  H  H549  1  0.724200  0.381700  0.416100  1
  H  H550  1  0.775800  0.881700  0.083900  1
  H  H551  1  0.275800  0.618300  0.583900  1
  H  H552  1  0.224200  0.118300  0.916100  1
  H  H553  1  0.671000  0.348300  0.414300  1
  H  H554  1  0.829000  0.848300  0.085700  1
  H  H555  1  0.329000  0.651700  0.585700  1
  H  H556  1  0.171000  0.151700  0.914300  1
  H  H557  1  0.878700  0.171200  0.433800  1
  H  H558  1  0.621300  0.671200  0.066200  1
  H  H559  1  0.121300  0.828800  0.566200  1
  H  H560  1  0.378700  0.328800  0.933800  1
  H  H561  1  0.967100  0.165800  0.456100  1
  H  H562  1  0.532900  0.665800  0.043900  1
  H  H563  1  0.032900  0.834200  0.543900  1
  H  H564  1  0.467100  0.334200  0.956100  1
  H  H565  1  0.008100  0.237000  0.482500  1
  H  H566  1  0.491900  0.737000  0.017500  1
  H  H567  1  0.991900  0.763000  0.517500  1
  H  H568  1  0.508100  0.263000  0.982500  1
  H  H569  1  0.038400  0.288400  0.512600  1
  H  H570  1  0.461600  0.788400  0.987400  1
  H  H571  1  0.961600  0.711600  0.487400  1
  H  H572  1  0.538400  0.211600  0.012600  1
  H  H573  1  0.073100  0.361800  0.539700  1
  H  H574  1  0.426900  0.861800  0.960300  1
  H  H575  1  0.926900  0.638200  0.460300  1
  H  H576  1  0.573100  0.138200  0.039700  1
  H  H577  1  0.026100  0.439300  0.535200  1
  H  H578  1  0.473900  0.939300  0.964800  1
  H  H579  1  0.973900  0.560700  0.464800  1
  H  H580  1  0.526100  0.060700  0.035200  1
  H  H581  1  0.944400  0.443500  0.503500  1
  H  H582  1  0.555600  0.943500  0.996500  1
  H  H583  1  0.055600  0.556500  0.496500  1
  H  H584  1  0.444400  0.056500  0.003500  1
  H  H585  1  0.813300  0.426500  0.582100  1
  H  H586  1  0.686700  0.926500  0.917900  1
  H  H587  1  0.186700  0.573500  0.417900  1
  H  H588  1  0.313300  0.073500  0.082100  1
  H  H589  1  0.784300  0.348800  0.602800  1
  H  H590  1  0.715700  0.848800  0.897200  1
  H  H591  1  0.215700  0.651200  0.397200  1
  H  H592  1  0.284300  0.151200  0.102800  1
  H  H593  1  0.779000  0.275000  0.570400  1
  H  H594  1  0.721000  0.775000  0.929600  1
  H  H595  1  0.221000  0.725000  0.429600  1
  H  H596  1  0.279000  0.225000  0.070400  1
  H  H597  1  0.802600  0.278800  0.517200  1
  H  H598  1  0.697400  0.778800  0.982800  1
  H  H599  1  0.197400  0.721200  0.482800  1
  H  H600  1  0.302600  0.221200  0.017200  1
  H  H601  1  0.841800  0.495600  0.561100  1
  H  H602  1  0.658200  0.995600  0.938900  1
  H  H603  1  0.158200  0.504400  0.438900  1
  H  H604  1  0.341800  0.004400  0.061100  1
  H  H605  1  0.855100  0.570500  0.531700  1
  H  H606  1  0.644900  0.070500  0.968300  1
  H  H607  1  0.144900  0.429500  0.468300  1
  H  H608  1  0.355100  0.929500  0.031700  1
  H  H609  1  0.861800  0.565800  0.475800  1
  H  H610  1  0.638200  0.065800  0.024200  1
  H  H611  1  0.138200  0.434200  0.524200  1
  H  H612  1  0.361800  0.934200  0.975800  1
  H  H613  1  0.866900  0.490400  0.363700  1
  H  H614  1  0.633100  0.990400  0.136300  1
  H  H615  1  0.133100  0.509600  0.636300  1
  H  H616  1  0.366900  0.009600  0.863700  1
  H  H617  1  0.870100  0.546700  0.413900  1
  H  H618  1  0.629900  0.046700  0.086100  1
  H  H619  1  0.129900  0.453300  0.586100  1
  H  H620  1  0.370100  0.953300  0.913900  1
  H  H621  1  0.804300  0.368700  0.381100  1
  H  H622  1  0.695700  0.868700  0.118900  1
  H  H623  1  0.195700  0.631300  0.618900  1
  H  H624  1  0.304300  0.131300  0.881100  1
  H  H625  1  0.830200  0.395000  0.351400  1
  H  H626  1  0.669800  0.895000  0.148600  1
  H  H627  1  0.169800  0.605000  0.648600  1
  H  H628  1  0.330200  0.105000  0.851400  1
  H  H629  1  0.936600  0.383300  0.406800  1
  H  H630  1  0.563400  0.883300  0.093200  1
  H  H631  1  0.063400  0.616700  0.593200  1
  H  H632  1  0.436600  0.116700  0.906800  1
  H  H633  1  0.893500  0.223600  0.351400  1
  H  H634  1  0.606500  0.723600  0.148600  1
  H  H635  1  0.106500  0.776400  0.648600  1
  H  H636  1  0.393500  0.276400  0.851400  1
  H  H637  1  0.029900  0.356800  0.424200  1
  H  H638  1  0.470100  0.856800  0.075800  1
  H  H639  1  0.970100  0.643200  0.575800  1
  H  H640  1  0.529900  0.143200  0.924200  1
  H  H641  1  0.088900  0.287700  0.434100  1
  H  H642  1  0.411100  0.787700  0.065900  1
  H  H643  1  0.911100  0.712300  0.565900  1
  H  H644  1  0.588900  0.212300  0.934100  1
  H  H645  1  0.068100  0.207500  0.410700  1
  H  H646  1  0.431900  0.707500  0.089300  1
  H  H647  1  0.931900  0.792500  0.589300  1
  H  H648  1  0.568100  0.292500  0.910700  1
  H  H649  1  0.989300  0.196100  0.377600  1
  H  H650  1  0.510700  0.696100  0.122400  1
  H  H651  1  0.010700  0.803900  0.622400  1
  H  H652  1  0.489300  0.303900  0.877600  1
  H  H653  1  0.767800  0.189600  0.338600  1
  H  H654  1  0.732200  0.689600  0.161400  1
  H  H655  1  0.232200  0.810400  0.661400  1
  H  H656  1  0.267800  0.310400  0.838600  1
  H  H657  1  0.777600  0.141500  0.286200  1
  H  H658  1  0.722400  0.641500  0.213800  1
  H  H659  1  0.222400  0.858500  0.713800  1
  H  H660  1  0.277600  0.358500  0.786200  1
  H  H661  1  0.789000  0.284200  0.356500  1
  H  H662  1  0.711000  0.784200  0.143500  1
  H  H663  1  0.211000  0.715800  0.643500  1
  H  H664  1  0.289000  0.215800  0.856500  1
  H  H665  1  0.807400  0.320900  0.329000  1
  H  H666  1  0.692600  0.820900  0.171000  1
  H  H667  1  0.192600  0.679100  0.671000  1
  H  H668  1  0.307400  0.179100  0.829000  1
  H  H669  1  0.887900  0.185100  0.164900  1
  H  H670  1  0.612100  0.685100  0.335100  1
  H  H671  1  0.112100  0.814900  0.835100  1
  H  H672  1  0.387900  0.314900  0.664900  1
  H  H673  1  0.823000  0.130600  0.182300  1
  H  H674  1  0.677000  0.630600  0.317700  1
  H  H675  1  0.177000  0.869400  0.817700  1
  H  H676  1  0.323000  0.369400  0.682300  1
  H  H677  1  0.792900  0.142700  0.233400  1
  H  H678  1  0.707100  0.642700  0.266600  1
  H  H679  1  0.207100  0.857300  0.766600  1
  H  H680  1  0.292900  0.357300  0.733400  1
  H  H681  1  0.951100  0.237100  0.160200  1
  H  H682  1  0.548900  0.737100  0.339800  1
  H  H683  1  0.048900  0.762900  0.839800  1
  H  H684  1  0.451100  0.262900  0.660200  1
  H  H685  1  0.013700  0.299400  0.149600  1
  H  H686  1  0.486300  0.799400  0.350400  1
  H  H687  1  0.986300  0.700600  0.850400  1
  H  H688  1  0.513700  0.200600  0.649600  1
  H  H689  1  0.032300  0.367400  0.186000  1
  H  H690  1  0.467700  0.867400  0.314000  1
  H  H691  1  0.967700  0.632600  0.814000  1
  H  H692  1  0.532300  0.132600  0.686000  1
  H  H693  1  0.988200  0.373100  0.232900  1
  H  H694  1  0.511800  0.873100  0.267100  1
  H  H695  1  0.011800  0.626900  0.767100  1
  H  H696  1  0.488200  0.126900  0.732900  1
  C  C697  1  0.972700  0.187900  0.286800  1
  C  C698  1  0.527300  0.687900  0.213200  1
  C  C699  1  0.027300  0.812100  0.713200  1
  C  C700  1  0.472700  0.312100  0.786800  1
  C  C701  1  0.015800  0.157400  0.297800  1
  C  C702  1  0.484200  0.657400  0.202200  1
  C  C703  1  0.984200  0.842600  0.702200  1
  C  C704  1  0.515800  0.342600  0.797800  1
  C  C705  1  0.059800  0.179200  0.315400  1
  C  C706  1  0.440200  0.679200  0.184600  1
  C  C707  1  0.940200  0.820800  0.684600  1
  C  C708  1  0.559800  0.320800  0.815400  1
  C  C709  1  0.060700  0.231600  0.322000  1
  C  C710  1  0.439300  0.731600  0.178000  1
  C  C711  1  0.939300  0.768400  0.678000  1
  C  C712  1  0.560700  0.268400  0.822000  1
  C  C713  1  0.017600  0.262200  0.311000  1
  C  C714  1  0.482400  0.762200  0.189000  1
  C  C715  1  0.982400  0.737800  0.689000  1
  C  C716  1  0.517600  0.237800  0.811000  1
  C  C717  1  0.012700  0.315900  0.316600  1
  C  C718  1  0.487300  0.815900  0.183400  1
  C  C719  1  0.987300  0.684100  0.683400  1
  C  C720  1  0.512700  0.184100  0.816600  1
  C  C721  1  0.053700  0.341700  0.334700  1
  C  C722  1  0.446300  0.841700  0.165300  1
  C  C723  1  0.946300  0.658300  0.665300  1
  C  C724  1  0.553700  0.158300  0.834700  1
  C  C725  1  0.048300  0.393600  0.341800  1
  C  C726  1  0.451700  0.893600  0.158200  1
  C  C727  1  0.951700  0.606400  0.658200  1
  C  C728  1  0.548300  0.106400  0.841800  1
  C  C729  1  0.002000  0.419600  0.330900  1
  C  C730  1  0.498000  0.919600  0.169100  1
  C  C731  1  0.998000  0.580400  0.669100  1
  C  C732  1  0.502000  0.080400  0.830900  1
  C  C733  1  0.961100  0.393700  0.312800  1
  C  C734  1  0.538900  0.893700  0.187200  1
  C  C735  1  0.038900  0.606300  0.687200  1
  C  C736  1  0.461100  0.106300  0.812800  1
  C  C737  1  0.833000  0.455000  0.282900  1
  C  C738  1  0.667000  0.955000  0.217100  1
  C  C739  1  0.167000  0.545000  0.717100  1
  C  C740  1  0.333000  0.045000  0.782900  1
  C  C741  1  0.885400  0.459700  0.298300  1
  C  C742  1  0.614600  0.959700  0.201700  1
  C  C743  1  0.114600  0.540300  0.701700  1
  C  C744  1  0.385400  0.040300  0.798300  1
  C  C745  1  0.909400  0.410300  0.298900  1
  C  C746  1  0.590600  0.910300  0.201100  1
  C  C747  1  0.090600  0.589700  0.701100  1
  C  C748  1  0.409400  0.089700  0.798900  1
  C  C749  1  0.778600  0.377800  0.260200  1
  C  C750  1  0.721400  0.877800  0.239800  1
  C  C751  1  0.221400  0.622200  0.739800  1
  C  C752  1  0.278600  0.122200  0.760200  1
  C  C753  1  0.784400  0.353500  0.227100  1
  C  C754  1  0.715600  0.853500  0.272900  1
  C  C755  1  0.215600  0.646500  0.772900  1
  C  C756  1  0.284400  0.146500  0.727100  1
  C  C757  1  0.820400  0.370800  0.207400  1
  C  C758  1  0.679600  0.870800  0.292600  1
  C  C759  1  0.179600  0.629200  0.792600  1
  C  C760  1  0.320400  0.129200  0.707400  1
  C  C761  1  0.827100  0.348200  0.177500  1
  C  C762  1  0.672900  0.848200  0.322500  1
  C  C763  1  0.172900  0.651800  0.822500  1
  C  C764  1  0.327100  0.151800  0.677500  1
  C  C765  1  0.797900  0.303600  0.167310  1
  C  C766  1  0.702100  0.803600  0.332690  1
  C  C767  1  0.202100  0.696400  0.832690  1
  C  C768  1  0.297900  0.196400  0.667310  1
  C  C769  1  0.758300  0.286700  0.187500  1
  C  C770  1  0.741700  0.786700  0.312500  1
  C  C771  1  0.241700  0.713300  0.812500  1
  C  C772  1  0.258300  0.213300  0.687500  1
  C  C773  1  0.752400  0.311200  0.216500  1
  C  C774  1  0.747600  0.811200  0.283500  1
  C  C775  1  0.247600  0.688800  0.783500  1
  C  C776  1  0.252400  0.188800  0.716500  1
  C  C777  1  0.865900  0.365900  0.157600  1
  C  C778  1  0.634100  0.865900  0.342400  1
  C  C779  1  0.134100  0.634100  0.842400  1
  C  C780  1  0.365900  0.134100  0.657600  1
  C  C781  1  0.873100  0.341700  0.128500  1
  C  C782  1  0.626900  0.841700  0.371500  1
  C  C783  1  0.126900  0.658300  0.871500  1
  C  C784  1  0.373100  0.158300  0.628500  1
  C  C785  1  0.841900  0.299700  0.119400  1
  C  C786  1  0.658100  0.799700  0.380600  1
  C  C787  1  0.158100  0.700300  0.880600  1
  C  C788  1  0.341900  0.200300  0.619400  1
  C  C789  1  0.806300  0.280000  0.138700  1
  C  C790  1  0.693700  0.780000  0.361300  1
  C  C791  1  0.193700  0.720000  0.861300  1
  C  C792  1  0.306300  0.220000  0.638700  1
  C  C793  1  0.656300  0.323000  0.278810  1
  C  C794  1  0.843700  0.823000  0.221190  1
  C  C795  1  0.343700  0.677000  0.721190  1
  C  C796  1  0.156300  0.177000  0.778810  1
  C  C797  1  0.614600  0.359600  0.277200  1
  C  C798  1  0.885400  0.859600  0.222800  1
  C  C799  1  0.385400  0.640400  0.722800  1
  C  C800  1  0.114600  0.140400  0.777200  1
  C  C801  1  0.606400  0.378100  0.244800  1
  C  C802  1  0.893600  0.878100  0.255200  1
  C  C803  1  0.393600  0.621900  0.755200  1
  C  C804  1  0.106400  0.121900  0.744800  1
  C  C805  1  0.713400  0.287000  0.237300  1
  C  C806  1  0.786600  0.787000  0.262700  1
  C  C807  1  0.286600  0.713000  0.762700  1
  C  C808  1  0.213400  0.213000  0.737300  1
  C  C809  1  0.538200  0.455100  0.181530  1
  C  C810  1  0.961800  0.955100  0.318470  1
  C  C811  1  0.461800  0.544900  0.818470  1
  C  C812  1  0.038200  0.044900  0.681530  1
  C  C813  1  0.498000  0.477500  0.197200  1
  C  C814  1  0.002000  0.977500  0.302800  1
  C  C815  1  0.502000  0.522500  0.802800  1
  C  C816  1  0.998000  0.022500  0.697200  1
  C  C817  1  0.492900  0.465800  0.229500  1
  C  C818  1  0.007100  0.965800  0.270500  1
  C  C819  1  0.507100  0.534200  0.770500  1
  C  C820  1  0.992900  0.034200  0.729500  1
  C  C821  1  0.528000  0.431700  0.246130  1
  C  C822  1  0.972000  0.931700  0.253870  1
  C  C823  1  0.472000  0.568300  0.753870  1
  C  C824  1  0.028000  0.068300  0.746130  1
  C  C825  1  0.568200  0.409300  0.230500  1
  C  C826  1  0.931800  0.909300  0.269500  1
  C  C827  1  0.431800  0.590700  0.769500  1
  C  C828  1  0.068200  0.090700  0.730500  1
  C  C829  1  0.545400  0.464300  0.147570  1
  C  C830  1  0.954600  0.964300  0.352430  1
  C  C831  1  0.454600  0.535700  0.852430  1
  C  C832  1  0.045400  0.035700  0.647570  1
  C  C833  1  0.516500  0.499400  0.127600  1
  C  C834  1  0.983500  0.999400  0.372400  1
  C  C835  1  0.483500  0.500600  0.872400  1
  C  C836  1  0.016500  0.000600  0.627600  1
  C  C837  1  0.523900  0.502200  0.094800  1
  C  C838  1  0.976100  0.002200  0.405200  1
  C  C839  1  0.476100  0.497800  0.905200  1
  C  C840  1  0.023900  0.997800  0.594800  1
  C  C841  1  0.560100  0.469800  0.082020  1
  C  C842  1  0.939900  0.969800  0.417980  1
  C  C843  1  0.439900  0.530200  0.917980  1
  C  C844  1  0.060100  0.030200  0.582020  1
  C  C845  1  0.589000  0.434700  0.102000  1
  C  C846  1  0.911000  0.934700  0.398000  1
  C  C847  1  0.411000  0.565300  0.898000  1
  C  C848  1  0.089000  0.065300  0.602000  1
  C  C849  1  0.738400  0.447900  0.154700  1
  C  C850  1  0.761600  0.947900  0.345300  1
  C  C851  1  0.261600  0.552100  0.845300  1
  C  C852  1  0.238400  0.052100  0.654700  1
  C  C853  1  0.778000  0.485100  0.157100  1
  C  C854  1  0.722000  0.985100  0.342900  1
  C  C855  1  0.222000  0.514900  0.842900  1
  C  C856  1  0.278000  0.014900  0.657100  1
  C  C857  1  0.782600  0.519000  0.183200  1
  C  C858  1  0.717400  0.019000  0.316800  1
  C  C859  1  0.217400  0.481000  0.816800  1
  C  C860  1  0.282600  0.981000  0.683200  1
  C  C861  1  0.747600  0.515700  0.206900  1
  C  C862  1  0.752400  0.015700  0.293100  1
  C  C863  1  0.252400  0.484300  0.793100  1
  C  C864  1  0.247600  0.984300  0.706900  1
  C  C865  1  0.708000  0.478500  0.204500  1
  C  C866  1  0.792000  0.978500  0.295500  1
  C  C867  1  0.292000  0.521500  0.795500  1
  C  C868  1  0.208000  0.021500  0.704500  1
  C  C869  1  0.729800  0.411400  0.129600  1
  C  C870  1  0.770200  0.911400  0.370400  1
  C  C871  1  0.270200  0.588600  0.870400  1
  C  C872  1  0.229800  0.088600  0.629600  1
  C  C873  1  0.756000  0.414100  0.101800  1
  C  C874  1  0.744000  0.914100  0.398200  1
  C  C875  1  0.244000  0.585900  0.898200  1
  C  C876  1  0.256000  0.085900  0.601800  1
  C  C877  1  0.747000  0.376900  0.077740  1
  C  C878  1  0.753000  0.876900  0.422260  1
  C  C879  1  0.253000  0.623100  0.922260  1
  C  C880  1  0.247000  0.123100  0.577740  1
  C  C881  1  0.711700  0.337000  0.081600  1
  C  C882  1  0.788300  0.837000  0.418400  1
  C  C883  1  0.288300  0.663000  0.918400  1
  C  C884  1  0.211700  0.163000  0.581600  1
  C  C885  1  0.685500  0.334200  0.109500  1
  C  C886  1  0.814500  0.834200  0.390500  1
  C  C887  1  0.314500  0.665800  0.890500  1
  C  C888  1  0.185500  0.165800  0.609500  1
  C  C889  1  0.601600  0.225100  0.122000  1
  C  C890  1  0.898400  0.725100  0.378000  1
  C  C891  1  0.398400  0.774900  0.878000  1
  C  C892  1  0.101600  0.274900  0.622000  1
  C  C893  1  0.638100  0.249600  0.103100  1
  C  C894  1  0.861900  0.749600  0.396900  1
  C  C895  1  0.361900  0.750400  0.896900  1
  C  C896  1  0.138100  0.250400  0.603100  1
  C  C897  1  0.652400  0.297600  0.117900  1
  C  C898  1  0.847600  0.797600  0.382100  1
  C  C899  1  0.347600  0.702400  0.882100  1
  C  C900  1  0.152400  0.202400  0.617900  1
  C  C901  1  0.560000  0.256600  0.173800  1
  C  C902  1  0.940000  0.756600  0.326200  1
  C  C903  1  0.440000  0.743400  0.826200  1
  C  C904  1  0.060000  0.243400  0.673800  1
  C  C905  1  0.516800  0.294900  0.168900  1
  C  C906  1  0.983200  0.794900  0.331100  1
  C  C907  1  0.483200  0.705100  0.831100  1
  C  C908  1  0.016800  0.205100  0.668900  1
  C  C909  1  0.502100  0.317700  0.139300  1
  C  C910  1  0.997900  0.817700  0.360700  1
  C  C911  1  0.497900  0.682300  0.860700  1
  C  C912  1  0.002100  0.182300  0.639300  1
  C  C913  1  0.460900  0.354700  0.135310  1
  C  C914  1  0.039100  0.854700  0.364690  1
  C  C915  1  0.539100  0.645300  0.864690  1
  C  C916  1  0.960900  0.145300  0.635310  1
  C  C917  1  0.435900  0.369000  0.162700  1
  C  C918  1  0.064100  0.869000  0.337300  1
  C  C919  1  0.564100  0.631000  0.837300  1
  C  C920  1  0.935900  0.131000  0.662700  1
  C  C921  1  0.448300  0.342300  0.191600  1
  C  C922  1  0.051700  0.842300  0.308400  1
  C  C923  1  0.551700  0.657700  0.808400  1
  C  C924  1  0.948300  0.157700  0.691600  1
  C  C925  1  0.486100  0.305500  0.195660  1
  C  C926  1  0.013900  0.805500  0.304340  1
  C  C927  1  0.513900  0.694500  0.804340  1
  C  C928  1  0.986100  0.194500  0.695660  1
  C  C929  1  0.449000  0.379000  0.104500  1
  C  C930  1  0.051000  0.879000  0.395500  1
  C  C931  1  0.551000  0.621000  0.895500  1
  C  C932  1  0.949000  0.121000  0.604500  1
  C  C933  1  0.410600  0.418400  0.102600  1
  C  C934  1  0.089400  0.918400  0.397400  1
  C  C935  1  0.589400  0.581600  0.897400  1
  C  C936  1  0.910600  0.081600  0.602600  1
  C  C937  1  0.383900  0.433100  0.130200  1
  C  C938  1  0.116100  0.933100  0.369800  1
  C  C939  1  0.616100  0.566900  0.869800  1
  C  C940  1  0.883900  0.066900  0.630200  1
  C  C941  1  0.397900  0.408900  0.159800  1
  C  C942  1  0.102100  0.908900  0.340200  1
  C  C943  1  0.602100  0.591100  0.840200  1
  C  C944  1  0.897900  0.091100  0.659800  1
  C  C945  1  0.539800  0.200200  0.248800  1
  C  C946  1  0.960200  0.700200  0.251200  1
  C  C947  1  0.460200  0.799800  0.751200  1
  C  C948  1  0.039800  0.299800  0.748800  1
  C  C949  1  0.523100  0.148200  0.245000  1
  C  C950  1  0.976900  0.648200  0.255000  1
  C  C951  1  0.476900  0.851800  0.755000  1
  C  C952  1  0.023100  0.351800  0.745000  1
  C  C953  1  0.474600  0.147500  0.224600  1
  C  C954  1  0.025400  0.647500  0.275400  1
  C  C955  1  0.525400  0.852500  0.775400  1
  C  C956  1  0.974600  0.352500  0.724600  1
  C  C957  1  0.501700  0.285500  0.228800  1
  C  C958  1  0.998300  0.785500  0.271200  1
  C  C959  1  0.498300  0.714500  0.771200  1
  C  C960  1  0.001700  0.214500  0.728800  1
  C  C961  1  0.356300  0.090800  0.183600  1
  C  C962  1  0.143700  0.590800  0.316400  1
  C  C963  1  0.643700  0.909200  0.816400  1
  C  C964  1  0.856300  0.409200  0.683600  1
  C  C965  1  0.366000  0.038500  0.187500  1
  C  C966  1  0.134000  0.538500  0.312500  1
  C  C967  1  0.634000  0.961500  0.812500  1
  C  C968  1  0.866000  0.461500  0.687500  1
  C  C969  1  0.413100  0.021700  0.204200  1
  C  C970  1  0.086900  0.521700  0.295800  1
  C  C971  1  0.586900  0.978300  0.795800  1
  C  C972  1  0.913100  0.478300  0.704200  1
  C  C973  1  0.450600  0.057200  0.216900  1
  C  C974  1  0.049400  0.557200  0.283100  1
  C  C975  1  0.549400  0.942800  0.783100  1
  C  C976  1  0.950600  0.442800  0.716900  1
  C  C977  1  0.440900  0.109600  0.213000  1
  C  C978  1  0.059100  0.609600  0.287000  1
  C  C979  1  0.559100  0.890400  0.787000  1
  C  C980  1  0.940900  0.390400  0.713000  1
  C  C981  1  0.304400  0.108700  0.170400  1
  C  C982  1  0.195600  0.608700  0.329600  1
  C  C983  1  0.695600  0.891300  0.829600  1
  C  C984  1  0.804400  0.391300  0.670400  1
  C  C985  1  0.262800  0.077100  0.158200  1
  C  C986  1  0.237200  0.577100  0.341800  1
  C  C987  1  0.737200  0.922900  0.841800  1
  C  C988  1  0.762800  0.422900  0.658200  1
  C  C989  1  0.213900  0.098500  0.147400  1
  C  C990  1  0.286100  0.598500  0.352600  1
  C  C991  1  0.786100  0.901500  0.852600  1
  C  C992  1  0.713900  0.401500  0.647400  1
  C  C993  1  0.206600  0.151400  0.148700  1
  C  C994  1  0.293400  0.651400  0.351300  1
  C  C995  1  0.793400  0.848600  0.851300  1
  C  C996  1  0.706600  0.348600  0.648700  1
  C  C997  1  0.248200  0.182900  0.160900  1
  C  C998  1  0.251800  0.682900  0.339100  1
  C  C999  1  0.751800  0.817100  0.839100  1
  C  C1000  1  0.748200  0.317100  0.660900  1
  C  C1001  1  0.385100  0.253500  0.114400  1
  C  C1002  1  0.114900  0.753500  0.385600  1
  C  C1003  1  0.614900  0.746500  0.885600  1
  C  C1004  1  0.885100  0.246500  0.614400  1
  C  C1005  1  0.401000  0.259900  0.083500  1
  C  C1006  1  0.099000  0.759900  0.416500  1
  C  C1007  1  0.599000  0.740100  0.916500  1
  C  C1008  1  0.901000  0.240100  0.583500  1
  C  C1009  1  0.437600  0.226300  0.072160  1
  C  C1010  1  0.062400  0.726300  0.427840  1
  C  C1011  1  0.562400  0.773700  0.927840  1
  C  C1012  1  0.937600  0.273700  0.572160  1
  C  C1013  1  0.458300  0.186300  0.091800  1
  C  C1014  1  0.041700  0.686300  0.408200  1
  C  C1015  1  0.541700  0.813700  0.908200  1
  C  C1016  1  0.958300  0.313700  0.591800  1
  C  C1017  1  0.442500  0.179900  0.122700  1
  C  C1018  1  0.057500  0.679900  0.377300  1
  C  C1019  1  0.557500  0.820100  0.877300  1
  C  C1020  1  0.942500  0.320100  0.622700  1
  C  C1021  1  0.344200  0.283900  0.126800  1
  C  C1022  1  0.155800  0.783900  0.373200  1
  C  C1023  1  0.655800  0.716100  0.873200  1
  C  C1024  1  0.844200  0.216100  0.626800  1
  C  C1025  1  0.310700  0.317700  0.108580  1
  C  C1026  1  0.189300  0.817700  0.391420  1
  C  C1027  1  0.689300  0.682300  0.891420  1
  C  C1028  1  0.810700  0.182300  0.608580  1
  C  C1029  1  0.273600  0.346200  0.123500  1
  C  C1030  1  0.226400  0.846200  0.376500  1
  C  C1031  1  0.726400  0.653800  0.876500  1
  C  C1032  1  0.773600  0.153800  0.623500  1
  C  C1033  1  0.270000  0.341000  0.156600  1
  C  C1034  1  0.230000  0.841000  0.343400  1
  C  C1035  1  0.730000  0.659000  0.843400  1
  C  C1036  1  0.770000  0.159000  0.656600  1
  C  C1037  1  0.303500  0.307300  0.174830  1
  C  C1038  1  0.196500  0.807300  0.325170  1
  C  C1039  1  0.696500  0.692700  0.825170  1
  C  C1040  1  0.803500  0.192700  0.674830  1
  C  C1041  1  0.295900  0.300600  0.261800  1
  C  C1042  1  0.204100  0.800600  0.238200  1
  C  C1043  1  0.704100  0.699400  0.738200  1
  C  C1044  1  0.795900  0.199400  0.761800  1
  C  C1045  1  0.276500  0.321700  0.231200  1
  C  C1046  1  0.223500  0.821700  0.268800  1
  C  C1047  1  0.723500  0.678300  0.768800  1
  C  C1048  1  0.776500  0.178300  0.731200  1
  C  C1049  1  0.305300  0.299100  0.207150  1
  C  C1050  1  0.194700  0.799100  0.292850  1
  C  C1051  1  0.694700  0.700900  0.792850  1
  C  C1052  1  0.805300  0.200900  0.707150  1
  C  C1053  1  0.372300  0.235700  0.278900  1
  C  C1054  1  0.127700  0.735700  0.221100  1
  C  C1055  1  0.627700  0.764300  0.721100  1
  C  C1056  1  0.872300  0.264300  0.778900  1
  C  C1057  1  0.359600  0.178700  0.278100  1
  C  C1058  1  0.140400  0.678700  0.221900  1
  C  C1059  1  0.640400  0.821300  0.721900  1
  C  C1060  1  0.859600  0.321300  0.778100  1
  C  C1061  1  0.312600  0.159500  0.258700  1
  C  C1062  1  0.187400  0.659500  0.241300  1
  C  C1063  1  0.687400  0.840500  0.741300  1
  C  C1064  1  0.812600  0.340500  0.758700  1
  C  C1065  1  0.308900  0.105900  0.258400  1
  C  C1066  1  0.191100  0.605900  0.241600  1
  C  C1067  1  0.691100  0.894100  0.741600  1
  C  C1068  1  0.808900  0.394100  0.758400  1
  C  C1069  1  0.342400  0.073800  0.272800  1
  C  C1070  1  0.157600  0.573800  0.227200  1
  C  C1071  1  0.657600  0.926200  0.727200  1
  C  C1072  1  0.842400  0.426200  0.772800  1
  C  C1073  1  0.388300  0.091500  0.292800  1
  C  C1074  1  0.111700  0.591500  0.207200  1
  C  C1075  1  0.611700  0.908500  0.707200  1
  C  C1076  1  0.888300  0.408500  0.792800  1
  C  C1077  1  0.394800  0.144200  0.293500  1
  C  C1078  1  0.105200  0.644200  0.206500  1
  C  C1079  1  0.605200  0.855800  0.706500  1
  C  C1080  1  0.894800  0.355800  0.793500  1
  C  C1081  1  0.258700  0.086900  0.239300  1
  C  C1082  1  0.241300  0.586900  0.260700  1
  C  C1083  1  0.741300  0.913100  0.760700  1
  C  C1084  1  0.758700  0.413100  0.739300  1
  C  C1085  1  0.254600  0.032800  0.238400  1
  C  C1086  1  0.245400  0.532800  0.261600  1
  C  C1087  1  0.745400  0.967200  0.761600  1
  C  C1088  1  0.754600  0.467200  0.738400  1
  C  C1089  1  0.289500  0.000900  0.253200  1
  C  C1090  1  0.210500  0.500900  0.246800  1
  C  C1091  1  0.710500  0.999100  0.746800  1
  C  C1092  1  0.789500  0.499100  0.753200  1
  C  C1093  1  0.334200  0.016800  0.272100  1
  C  C1094  1  0.165800  0.516800  0.227900  1
  C  C1095  1  0.665800  0.983200  0.727900  1
  C  C1096  1  0.834200  0.483200  0.772100  1
  C  C1097  1  0.510300  0.109500  0.347200  1
  C  C1098  1  0.989700  0.609500  0.152800  1
  C  C1099  1  0.489700  0.890500  0.652800  1
  C  C1100  1  0.010300  0.390500  0.847200  1
  C  C1101  1  0.510100  0.082400  0.377000  1
  C  C1102  1  0.989900  0.582400  0.123000  1
  C  C1103  1  0.489900  0.917600  0.623000  1
  C  C1104  1  0.010100  0.417600  0.877000  1
  C  C1105  1  0.460700  0.091800  0.389400  1
  C  C1106  1  0.039300  0.591800  0.110600  1
  C  C1107  1  0.539300  0.908200  0.610600  1
  C  C1108  1  0.960700  0.408200  0.889400  1
  C  C1109  1  0.442500  0.168200  0.315000  1
  C  C1110  1  0.057500  0.668200  0.185000  1
  C  C1111  1  0.557500  0.831800  0.685000  1
  C  C1112  1  0.942500  0.331800  0.815000  1
  C  C1113  1  0.362500  0.083600  0.447700  1
  C  C1114  1  0.137500  0.583600  0.052300  1
  C  C1115  1  0.637500  0.916400  0.552300  1
  C  C1116  1  0.862500  0.416400  0.947700  1
  C  C1117  1  0.390000  0.057300  0.473350  1
  C  C1118  1  0.110000  0.557300  0.026650  1
  C  C1119  1  0.610000  0.942700  0.526650  1
  C  C1120  1  0.890000  0.442700  0.973350  1
  C  C1121  1  0.441900  0.041500  0.471100  1
  C  C1122  1  0.058100  0.541500  0.028900  1
  C  C1123  1  0.558100  0.958500  0.528900  1
  C  C1124  1  0.941900  0.458500  0.971100  1
  C  C1125  1  0.466300  0.052100  0.443200  1
  C  C1126  1  0.033700  0.552100  0.056800  1
  C  C1127  1  0.533700  0.947900  0.556800  1
  C  C1128  1  0.966300  0.447900  0.943200  1
  C  C1129  1  0.438800  0.078400  0.417600  1
  C  C1130  1  0.061200  0.578400  0.082400  1
  C  C1131  1  0.561200  0.921600  0.582400  1
  C  C1132  1  0.938800  0.421600  0.917600  1
  C  C1133  1  0.308000  0.102500  0.447000  1
  C  C1134  1  0.192000  0.602500  0.053000  1
  C  C1135  1  0.692000  0.897500  0.553000  1
  C  C1136  1  0.808000  0.397500  0.947000  1
  C  C1137  1  0.276400  0.094400  0.472080  1
  C  C1138  1  0.223600  0.594400  0.027920  1
  C  C1139  1  0.723600  0.905600  0.527920  1
  C  C1140  1  0.776400  0.405600  0.972080  1
  C  C1141  1  0.226100  0.116000  0.470500  1
  C  C1142  1  0.273900  0.616000  0.029500  1
  C  C1143  1  0.773900  0.884000  0.529500  1
  C  C1144  1  0.726100  0.384000  0.970500  1
  C  C1145  1  0.207400  0.145700  0.443900  1
  C  C1146  1  0.292600  0.645700  0.056100  1
  C  C1147  1  0.792600  0.854300  0.556100  1
  C  C1148  1  0.707400  0.354300  0.943900  1
  C  C1149  1  0.239000  0.153800  0.418790  1
  C  C1150  1  0.261000  0.653800  0.081210  1
  C  C1151  1  0.761000  0.846200  0.581210  1
  C  C1152  1  0.739000  0.346200  0.918790  1
  C  C1153  1  0.254600  0.068600  0.332600  1
  C  C1154  1  0.245400  0.568600  0.167400  1
  C  C1155  1  0.745400  0.931400  0.667400  1
  C  C1156  1  0.754600  0.431400  0.832600  1
  C  C1157  1  0.226000  0.026000  0.320600  1
  C  C1158  1  0.274000  0.526000  0.179400  1
  C  C1159  1  0.774000  0.974000  0.679400  1
  C  C1160  1  0.726000  0.474000  0.820600  1
  C  C1161  1  0.244300  0.976800  0.328500  1
  C  C1162  1  0.255700  0.476800  0.171500  1
  C  C1163  1  0.755700  0.023200  0.671500  1
  C  C1164  1  0.744300  0.523200  0.828500  1
  C  C1165  1  0.291300  0.970200  0.348500  1
  C  C1166  1  0.208700  0.470200  0.151500  1
  C  C1167  1  0.708700  0.029800  0.651500  1
  C  C1168  1  0.791300  0.529800  0.848500  1
  C  C1169  1  0.319900  0.012800  0.360500  1
  C  C1170  1  0.180100  0.512800  0.139500  1
  C  C1171  1  0.680100  0.987200  0.639500  1
  C  C1172  1  0.819900  0.487200  0.860500  1
  C  C1173  1  0.239500  0.119100  0.324300  1
  C  C1174  1  0.260500  0.619100  0.175700  1
  C  C1175  1  0.760500  0.880900  0.675700  1
  C  C1176  1  0.739500  0.380900  0.824300  1
  C  C1177  1  0.196600  0.131900  0.302200  1
  C  C1178  1  0.303400  0.631900  0.197800  1
  C  C1179  1  0.803400  0.868100  0.697800  1
  C  C1180  1  0.696600  0.368100  0.802200  1
  C  C1181  1  0.184500  0.183300  0.295760  1
  C  C1182  1  0.315500  0.683300  0.204240  1
  C  C1183  1  0.815500  0.816700  0.704240  1
  C  C1184  1  0.684500  0.316700  0.795760  1
  C  C1185  1  0.215400  0.221800  0.311400  1
  C  C1186  1  0.284600  0.721800  0.188600  1
  C  C1187  1  0.784600  0.778200  0.688600  1
  C  C1188  1  0.715400  0.278200  0.811400  1
  C  C1189  1  0.258300  0.208900  0.333500  1
  C  C1190  1  0.241700  0.708900  0.166500  1
  C  C1191  1  0.741700  0.791100  0.666500  1
  C  C1192  1  0.758300  0.291100  0.833500  1
  C  C1193  1  0.342000  0.311400  0.370200  1
  C  C1194  1  0.158000  0.811400  0.129800  1
  C  C1195  1  0.658000  0.688600  0.629800  1
  C  C1196  1  0.842000  0.188600  0.870200  1
  C  C1197  1  0.293200  0.298200  0.352300  1
  C  C1198  1  0.206800  0.798200  0.147700  1
  C  C1199  1  0.706800  0.701800  0.647700  1
  C  C1200  1  0.793200  0.201800  0.852300  1
  C  C1201  1  0.291600  0.243900  0.348800  1
  C  C1202  1  0.208400  0.743900  0.151200  1
  C  C1203  1  0.708400  0.756100  0.651200  1
  C  C1204  1  0.791600  0.256100  0.848800  1
  C  C1205  1  0.422800  0.257200  0.394600  1
  C  C1206  1  0.077200  0.757200  0.105400  1
  C  C1207  1  0.577200  0.742800  0.605400  1
  C  C1208  1  0.922800  0.242800  0.894600  1
  C  C1209  1  0.418500  0.234400  0.427060  1
  C  C1210  1  0.081500  0.734400  0.072940  1
  C  C1211  1  0.581500  0.765600  0.572940  1
  C  C1212  1  0.918500  0.265600  0.927060  1
  C  C1213  1  0.374000  0.238400  0.443500  1
  C  C1214  1  0.126000  0.738400  0.056500  1
  C  C1215  1  0.626000  0.761600  0.556500  1
  C  C1216  1  0.874000  0.261600  0.943500  1
  C  C1217  1  0.371800  0.215200  0.474500  1
  C  C1218  1  0.128200  0.715200  0.025500  1
  C  C1219  1  0.628200  0.784800  0.525500  1
  C  C1220  1  0.871800  0.284800  0.974500  1
  C  C1221  1  0.412900  0.189400  0.488140  1
  C  C1222  1  0.087100  0.689400  0.011860  1
  C  C1223  1  0.587100  0.810600  0.511860  1
  C  C1224  1  0.912900  0.310600  0.988140  1
  C  C1225  1  0.460000  0.187100  0.472100  1
  C  C1226  1  0.040000  0.687100  0.027900  1
  C  C1227  1  0.540000  0.812900  0.527900  1
  C  C1228  1  0.960000  0.312900  0.972100  1
  C  C1229  1  0.465900  0.209300  0.443600  1
  C  C1230  1  0.034100  0.709300  0.056400  1
  C  C1231  1  0.534100  0.790700  0.556400  1
  C  C1232  1  0.965900  0.290700  0.943600  1
  C  C1233  1  0.322800  0.220200  0.489700  1
  C  C1234  1  0.177200  0.720200  0.010300  1
  C  C1235  1  0.677200  0.779800  0.510300  1
  C  C1236  1  0.822800  0.279800  0.989700  1
  C  C1237  1  0.323100  0.199400  0.519600  1
  C  C1238  1  0.176900  0.699400  0.980400  1
  C  C1239  1  0.676900  0.800600  0.480400  1
  C  C1240  1  0.823100  0.300600  0.019600  1
  C  C1241  1  0.364100  0.168000  0.532300  1
  C  C1242  1  0.135900  0.668000  0.967700  1
  C  C1243  1  0.635900  0.832000  0.467700  1
  C  C1244  1  0.864100  0.332000  0.032300  1
  C  C1245  1  0.408500  0.161300  0.518100  1
  C  C1246  1  0.091500  0.661300  0.981900  1
  C  C1247  1  0.591500  0.838700  0.481900  1
  C  C1248  1  0.908500  0.338700  0.018100  1
  C  C1249  1  0.555900  0.247900  0.383330  1
  C  C1250  1  0.944100  0.747900  0.116670  1
  C  C1251  1  0.444100  0.752100  0.616670  1
  C  C1252  1  0.055900  0.252100  0.883330  1
  C  C1253  1  0.571900  0.299600  0.379000  1
  C  C1254  1  0.928100  0.799600  0.121000  1
  C  C1255  1  0.428100  0.700400  0.621000  1
  C  C1256  1  0.071900  0.200400  0.879000  1
  C  C1257  1  0.560200  0.328200  0.406600  1
  C  C1258  1  0.939800  0.828200  0.093400  1
  C  C1259  1  0.439800  0.671800  0.593400  1
  C  C1260  1  0.060200  0.171800  0.906600  1
  C  C1261  1  0.515100  0.200500  0.428000  1
  C  C1262  1  0.984900  0.700500  0.072000  1
  C  C1263  1  0.484900  0.799500  0.572000  1
  C  C1264  1  0.015100  0.299500  0.928000  1
  C  C1265  1  0.571600  0.439400  0.459850  1
  C  C1266  1  0.928400  0.939400  0.040150  1
  C  C1267  1  0.428400  0.560600  0.540150  1
  C  C1268  1  0.071600  0.060600  0.959850  1
  C  C1269  1  0.590700  0.477100  0.440300  1
  C  C1270  1  0.909300  0.977100  0.059700  1
  C  C1271  1  0.409300  0.522900  0.559700  1
  C  C1272  1  0.090700  0.022900  0.940300  1
  C  C1273  1  0.599200  0.465800  0.408400  1
  C  C1274  1  0.900800  0.965800  0.091600  1
  C  C1275  1  0.400800  0.534200  0.591600  1
  C  C1276  1  0.099200  0.034200  0.908400  1
  C  C1277  1  0.588800  0.416800  0.396110  1
  C  C1278  1  0.911200  0.916800  0.103890  1
  C  C1279  1  0.411200  0.583200  0.603890  1
  C  C1280  1  0.088800  0.083200  0.896110  1
  C  C1281  1  0.569700  0.379000  0.415700  1
  C  C1282  1  0.930300  0.879000  0.084300  1
  C  C1283  1  0.430300  0.621000  0.584300  1
  C  C1284  1  0.069700  0.121000  0.915700  1
  C  C1285  1  0.561500  0.446300  0.493050  1
  C  C1286  1  0.938500  0.946300  0.006950  1
  C  C1287  1  0.438500  0.553700  0.506950  1
  C  C1288  1  0.061500  0.053700  0.993050  1
  C  C1289  1  0.570200  0.493300  0.508700  1
  C  C1290  1  0.929800  0.993300  0.991300  1
  C  C1291  1  0.429800  0.506700  0.491300  1
  C  C1292  1  0.070200  0.006700  0.008700  1
  C  C1293  1  0.557600  0.499500  0.540300  1
  C  C1294  1  0.942400  0.999500  0.959700  1
  C  C1295  1  0.442400  0.500500  0.459700  1
  C  C1296  1  0.057600  0.000500  0.040300  1
  C  C1297  1  0.536200  0.458800  0.556400  1
  C  C1298  1  0.963800  0.958800  0.943600  1
  C  C1299  1  0.463800  0.541200  0.443600  1
  C  C1300  1  0.036200  0.041200  0.056400  1
  C  C1301  1  0.527500  0.411800  0.540800  1
  C  C1302  1  0.972500  0.911800  0.959200  1
  C  C1303  1  0.472500  0.588200  0.459200  1
  C  C1304  1  0.027500  0.088200  0.040800  1
  C  C1305  1  0.412800  0.329100  0.504950  1
  C  C1306  1  0.087200  0.829100  0.995050  1
  C  C1307  1  0.587200  0.670900  0.495050  1
  C  C1308  1  0.912800  0.170900  0.004950  1
  C  C1309  1  0.359600  0.340900  0.506300  1
  C  C1310  1  0.140400  0.840900  0.993700  1
  C  C1311  1  0.640400  0.659100  0.493700  1
  C  C1312  1  0.859600  0.159100  0.006300  1
  C  C1313  1  0.331400  0.366200  0.480500  1
  C  C1314  1  0.168600  0.866200  0.019500  1
  C  C1315  1  0.668600  0.633800  0.519500  1
  C  C1316  1  0.831400  0.133800  0.980500  1
  C  C1317  1  0.356500  0.379800  0.453300  1
  C  C1318  1  0.143500  0.879800  0.046700  1
  C  C1319  1  0.643500  0.620200  0.546700  1
  C  C1320  1  0.856500  0.120200  0.953300  1
  C  C1321  1  0.409700  0.368000  0.452020  1
  C  C1322  1  0.090300  0.868000  0.047980  1
  C  C1323  1  0.590300  0.632000  0.547980  1
  C  C1324  1  0.909700  0.132000  0.952020  1
  C  C1325  1  0.443000  0.298300  0.529100  1
  C  C1326  1  0.057000  0.798300  0.970900  1
  C  C1327  1  0.557000  0.701700  0.470900  1
  C  C1328  1  0.943000  0.201700  0.029100  1
  C  C1329  1  0.425300  0.280700  0.557800  1
  C  C1330  1  0.074700  0.780700  0.942200  1
  C  C1331  1  0.574700  0.719300  0.442200  1
  C  C1332  1  0.925300  0.219300  0.057800  1
  C  C1333  1  0.458500  0.251000  0.579130  1
  C  C1334  1  0.041500  0.751000  0.920870  1
  C  C1335  1  0.541500  0.749000  0.420870  1
  C  C1336  1  0.958500  0.249000  0.079130  1
  C  C1337  1  0.509300  0.238800  0.571700  1
  C  C1338  1  0.990700  0.738800  0.928300  1
  C  C1339  1  0.490700  0.761200  0.428300  1
  C  C1340  1  0.009300  0.261200  0.071700  1
  C  C1341  1  0.526900  0.256400  0.542900  1
  C  C1342  1  0.973100  0.756400  0.957100  1
  C  C1343  1  0.473100  0.743600  0.457100  1
  C  C1344  1  0.026900  0.243600  0.042900  1
  C  C1345  1  0.661700  0.221700  0.525100  1
  C  C1346  1  0.838300  0.721700  0.974900  1
  C  C1347  1  0.338300  0.778300  0.474900  1
  C  C1348  1  0.161700  0.278300  0.025100  1
  C  C1349  1  0.620800  0.216500  0.545900  1
  C  C1350  1  0.879200  0.716500  0.954100  1
  C  C1351  1  0.379200  0.783500  0.454100  1
  C  C1352  1  0.120800  0.283500  0.045900  1
  C  C1353  1  0.576800  0.246200  0.532800  1
  C  C1354  1  0.923200  0.746200  0.967200  1
  C  C1355  1  0.423200  0.753800  0.467200  1
  C  C1356  1  0.076800  0.253800  0.032800  1
  C  C1357  1  0.669000  0.278600  0.475900  1
  C  C1358  1  0.831000  0.778600  0.024100  1
  C  C1359  1  0.331000  0.721400  0.524100  1
  C  C1360  1  0.169000  0.221400  0.975900  1
  C  C1361  1  0.682600  0.332600  0.485400  1
  C  C1362  1  0.817400  0.832600  0.014600  1
  C  C1363  1  0.317400  0.667400  0.514600  1
  C  C1364  1  0.182600  0.167400  0.985400  1
  C  C1365  1  0.675500  0.354400  0.514000  1
  C  C1366  1  0.824500  0.854400  0.986000  1
  C  C1367  1  0.324500  0.645600  0.486000  1
  C  C1368  1  0.175500  0.145600  0.014000  1
  C  C1369  1  0.686600  0.406100  0.521860  1
  C  C1370  1  0.813400  0.906100  0.978140  1
  C  C1371  1  0.313400  0.593900  0.478140  1
  C  C1372  1  0.186600  0.093900  0.021860  1
  C  C1373  1  0.705400  0.438600  0.498900  1
  C  C1374  1  0.794600  0.938600  0.001100  1
  C  C1375  1  0.294600  0.561400  0.501100  1
  C  C1376  1  0.205400  0.061400  0.998900  1
  C  C1377  1  0.711600  0.417300  0.467900  1
  C  C1378  1  0.788400  0.917300  0.032100  1
  C  C1379  1  0.288400  0.582700  0.532100  1
  C  C1380  1  0.211600  0.082700  0.967900  1
  C  C1381  1  0.700300  0.366000  0.459660  1
  C  C1382  1  0.799700  0.866000  0.040340  1
  C  C1383  1  0.299700  0.634000  0.540340  1
  C  C1384  1  0.200300  0.134000  0.959660  1
  C  C1385  1  0.680500  0.423500  0.553400  1
  C  C1386  1  0.819500  0.923500  0.946600  1
  C  C1387  1  0.319500  0.576500  0.446600  1
  C  C1388  1  0.180500  0.076500  0.053400  1
  C  C1389  1  0.694100  0.473600  0.562400  1
  C  C1390  1  0.805900  0.973600  0.937600  1
  C  C1391  1  0.305900  0.526400  0.437600  1
  C  C1392  1  0.194100  0.026400  0.062400  1
  C  C1393  1  0.712800  0.507000  0.539900  1
  C  C1394  1  0.787200  0.007000  0.960100  1
  C  C1395  1  0.287200  0.493000  0.460100  1
  C  C1396  1  0.212800  0.993000  0.039900  1
  C  C1397  1  0.718000  0.490200  0.508500  1
  C  C1398  1  0.782000  0.990200  0.991500  1
  C  C1399  1  0.282000  0.509800  0.491500  1
  C  C1400  1  0.218000  0.009800  0.008500  1
  C  C1401  1  0.727500  0.259000  0.406900  1
  C  C1402  1  0.772500  0.759000  0.093100  1
  C  C1403  1  0.272500  0.741000  0.593100  1
  C  C1404  1  0.227500  0.241000  0.906900  1
  C  C1405  1  0.773900  0.228300  0.412000  1
  C  C1406  1  0.726100  0.728300  0.088000  1
  C  C1407  1  0.226100  0.771700  0.588000  1
  C  C1408  1  0.273900  0.271700  0.912000  1
  C  C1409  1  0.812500  0.256500  0.432000  1
  C  C1410  1  0.687500  0.756500  0.068000  1
  C  C1411  1  0.187500  0.743500  0.568000  1
  C  C1412  1  0.312500  0.243500  0.932000  1
  C  C1413  1  0.706500  0.352900  0.426300  1
  C  C1414  1  0.793500  0.852900  0.073700  1
  C  C1415  1  0.293500  0.647100  0.573700  1
  C  C1416  1  0.206500  0.147100  0.926300  1
  C  C1417  1  0.867200  0.245500  0.446900  1
  C  C1418  1  0.632800  0.745500  0.053100  1
  C  C1419  1  0.132800  0.754500  0.553100  1
  C  C1420  1  0.367200  0.254500  0.946900  1
  C  C1421  1  0.895300  0.200100  0.444500  1
  C  C1422  1  0.604700  0.700100  0.055500  1
  C  C1423  1  0.104700  0.799900  0.555500  1
  C  C1424  1  0.395300  0.299900  0.944500  1
  C  C1425  1  0.947800  0.196900  0.457800  1
  C  C1426  1  0.552200  0.696900  0.042200  1
  C  C1427  1  0.052200  0.803100  0.542200  1
  C  C1428  1  0.447800  0.303100  0.957800  1
  C  C1429  1  0.972200  0.239200  0.473400  1
  C  C1430  1  0.527800  0.739200  0.026600  1
  C  C1431  1  0.027800  0.760800  0.526600  1
  C  C1432  1  0.472200  0.260800  0.973400  1
  C  C1433  1  0.944000  0.284600  0.475900  1
  C  C1434  1  0.556000  0.784600  0.024100  1
  C  C1435  1  0.056000  0.715400  0.524100  1
  C  C1436  1  0.444000  0.215400  0.975900  1
  C  C1437  1  0.970700  0.322400  0.492000  1
  C  C1438  1  0.529300  0.822400  0.008000  1
  C  C1439  1  0.029300  0.677600  0.508000  1
  C  C1440  1  0.470700  0.177600  0.992000  1
  C  C1441  1  0.019300  0.319900  0.510800  1
  C  C1442  1  0.480700  0.819900  0.989200  1
  C  C1443  1  0.980700  0.680100  0.489200  1
  C  C1444  1  0.519300  0.180100  0.010800  1
  C  C1445  1  0.039900  0.363500  0.526900  1
  C  C1446  1  0.460100  0.863500  0.973100  1
  C  C1447  1  0.960100  0.636500  0.473100  1
  C  C1448  1  0.539900  0.136500  0.026900  1
  C  C1449  1  0.012000  0.409500  0.524200  1
  C  C1450  1  0.488000  0.909500  0.975800  1
  C  C1451  1  0.988000  0.590500  0.475800  1
  C  C1452  1  0.512000  0.090500  0.024200  1
  C  C1453  1  0.963400  0.412000  0.505300  1
  C  C1454  1  0.536600  0.912000  0.994700  1
  C  C1455  1  0.036600  0.588000  0.494700  1
  C  C1456  1  0.463400  0.088000  0.005300  1
  C  C1457  1  0.825100  0.398700  0.537300  1
  C  C1458  1  0.674900  0.898700  0.962700  1
  C  C1459  1  0.174900  0.601300  0.462700  1
  C  C1460  1  0.325100  0.101300  0.037300  1
  C  C1461  1  0.811100  0.396500  0.568900  1
  C  C1462  1  0.688900  0.896500  0.931100  1
  C  C1463  1  0.188900  0.603500  0.431100  1
  C  C1464  1  0.311100  0.103500  0.068900  1
  C  C1465  1  0.793900  0.350400  0.581200  1
  C  C1466  1  0.706100  0.850400  0.918800  1
  C  C1467  1  0.206100  0.649600  0.418800  1
  C  C1468  1  0.293900  0.149600  0.081200  1
  C  C1469  1  0.790800  0.306500  0.562000  1
  C  C1470  1  0.709200  0.806500  0.938000  1
  C  C1471  1  0.209200  0.693500  0.438000  1
  C  C1472  1  0.290800  0.193500  0.062000  1
  C  C1473  1  0.804800  0.308800  0.530400  1
  C  C1474  1  0.695200  0.808800  0.969600  1
  C  C1475  1  0.195200  0.691200  0.469600  1
  C  C1476  1  0.304800  0.191200  0.030400  1
  C  C1477  1  0.840600  0.446400  0.522700  1
  C  C1478  1  0.659400  0.946400  0.977300  1
  C  C1479  1  0.159400  0.553600  0.477300  1
  C  C1480  1  0.340600  0.053600  0.022700  1
  C  C1481  1  0.844500  0.493700  0.538450  1
  C  C1482  1  0.655500  0.993700  0.961550  1
  C  C1483  1  0.155500  0.506300  0.461550  1
  C  C1484  1  0.344500  0.006300  0.038450  1
  C  C1485  1  0.852400  0.538200  0.521000  1
  C  C1486  1  0.647600  0.038200  0.979000  1
  C  C1487  1  0.147600  0.461800  0.479000  1
  C  C1488  1  0.352400  0.961800  0.021000  1
  C  C1489  1  0.856400  0.535400  0.487800  1
  C  C1490  1  0.643600  0.035400  0.012200  1
  C  C1491  1  0.143600  0.464600  0.512200  1
  C  C1492  1  0.356400  0.964600  0.987800  1
  C  C1493  1  0.852500  0.488200  0.472050  1
  C  C1494  1  0.647500  0.988200  0.027950  1
  C  C1495  1  0.147500  0.511800  0.527950  1
  C  C1496  1  0.352500  0.011800  0.972050  1
  C  C1497  1  0.862300  0.479200  0.385100  1
  C  C1498  1  0.637700  0.979200  0.114900  1
  C  C1499  1  0.137700  0.520800  0.614900  1
  C  C1500  1  0.362300  0.020800  0.885100  1
  C  C1501  1  0.864000  0.510600  0.413200  1
  C  C1502  1  0.636000  0.010600  0.086800  1
  C  C1503  1  0.136000  0.489400  0.586800  1
  C  C1504  1  0.364000  0.989400  0.913200  1
  C  C1505  1  0.855200  0.478800  0.440000  1
  C  C1506  1  0.644800  0.978800  0.060000  1
  C  C1507  1  0.144800  0.521200  0.560000  1
  C  C1508  1  0.355200  0.021200  0.940000  1
  C  C1509  1  0.837200  0.384100  0.374300  1
  C  C1510  1  0.662800  0.884100  0.125700  1
  C  C1511  1  0.162800  0.615900  0.625700  1
  C  C1512  1  0.337200  0.115900  0.874300  1
  C  C1513  1  0.878800  0.347200  0.377400  1
  C  C1514  1  0.621200  0.847200  0.122600  1
  C  C1515  1  0.121200  0.652800  0.622600  1
  C  C1516  1  0.378800  0.152800  0.877400  1
  C  C1517  1  0.929200  0.351900  0.395600  1
  C  C1518  1  0.570800  0.851900  0.104400  1
  C  C1519  1  0.070800  0.648100  0.604400  1
  C  C1520  1  0.429200  0.148100  0.895600  1
  C  C1521  1  0.969300  0.314100  0.398300  1
  C  C1522  1  0.530700  0.814100  0.101700  1
  C  C1523  1  0.030700  0.685900  0.601700  1
  C  C1524  1  0.469300  0.185900  0.898300  1
  C  C1525  1  0.957700  0.266100  0.384600  1
  C  C1526  1  0.542300  0.766100  0.115400  1
  C  C1527  1  0.042300  0.733900  0.615400  1
  C  C1528  1  0.457700  0.233900  0.884600  1
  C  C1529  1  0.903300  0.254400  0.362700  1
  C  C1530  1  0.596700  0.754400  0.137300  1
  C  C1531  1  0.096700  0.745600  0.637300  1
  C  C1532  1  0.403300  0.245600  0.862700  1
  C  C1533  1  0.872200  0.301000  0.364100  1
  C  C1534  1  0.627800  0.801000  0.135900  1
  C  C1535  1  0.127800  0.699000  0.635900  1
  C  C1536  1  0.372200  0.199000  0.864100  1
  C  C1537  1  0.020700  0.323500  0.416100  1
  C  C1538  1  0.479300  0.823500  0.083900  1
  C  C1539  1  0.979300  0.676500  0.583900  1
  C  C1540  1  0.520700  0.176500  0.916100  1
  C  C1541  1  0.056200  0.282900  0.421200  1
  C  C1542  1  0.443800  0.782900  0.078800  1
  C  C1543  1  0.943800  0.717100  0.578800  1
  C  C1544  1  0.556200  0.217100  0.921200  1
  C  C1545  1  0.043800  0.235200  0.407300  1
  C  C1546  1  0.456200  0.735200  0.092700  1
  C  C1547  1  0.956200  0.764800  0.592700  1
  C  C1548  1  0.543800  0.264800  0.907300  1
  C  C1549  1  0.996000  0.228100  0.388300  1
  C  C1550  1  0.504000  0.728100  0.111700  1
  C  C1551  1  0.004000  0.771900  0.611700  1
  C  C1552  1  0.496000  0.271900  0.888300  1
  C  C1553  1  0.786800  0.201100  0.321400  1
  C  C1554  1  0.713200  0.701100  0.178600  1
  C  C1555  1  0.213200  0.798900  0.678600  1
  C  C1556  1  0.286800  0.298900  0.821400  1
  C  C1557  1  0.792200  0.174300  0.292000  1
  C  C1558  1  0.707800  0.674300  0.208000  1
  C  C1559  1  0.207800  0.825700  0.708000  1
  C  C1560  1  0.292200  0.325700  0.792000  1
  C  C1561  1  0.823500  0.204900  0.272900  1
  C  C1562  1  0.676500  0.704900  0.227100  1
  C  C1563  1  0.176500  0.795100  0.727100  1
  C  C1564  1  0.323500  0.295100  0.772900  1
  C  C1565  1  0.816900  0.289500  0.341800  1
  C  C1566  1  0.683100  0.789500  0.158200  1
  C  C1567  1  0.183100  0.710500  0.658200  1
  C  C1568  1  0.316900  0.210500  0.841800  1
  C  C1569  1  0.896400  0.229600  0.205600  1
  C  C1570  1  0.603600  0.729600  0.294400  1
  C  C1571  1  0.103600  0.770400  0.794400  1
  C  C1572  1  0.396400  0.270400  0.705600  1
  C  C1573  1  0.875700  0.190000  0.185600  1
  C  C1574  1  0.624300  0.690000  0.314400  1
  C  C1575  1  0.124300  0.810000  0.814400  1
  C  C1576  1  0.375700  0.310000  0.685600  1
  C  C1577  1  0.837100  0.157600  0.196000  1
  C  C1578  1  0.662900  0.657600  0.304000  1
  C  C1579  1  0.162900  0.842400  0.804000  1
  C  C1580  1  0.337100  0.342400  0.696000  1
  C  C1581  1  0.819200  0.164800  0.226300  1
  C  C1582  1  0.680800  0.664800  0.273700  1
  C  C1583  1  0.180800  0.835200  0.773700  1
  C  C1584  1  0.319200  0.335200  0.726300  1
  C  C1585  1  0.839900  0.204400  0.246300  1
  C  C1586  1  0.660100  0.704400  0.253700  1
  C  C1587  1  0.160100  0.795600  0.753700  1
  C  C1588  1  0.339900  0.295600  0.746300  1
  C  C1589  1  0.932500  0.268100  0.202800  1
  C  C1590  1  0.567500  0.768100  0.297200  1
  C  C1591  1  0.067500  0.731900  0.797200  1
  C  C1592  1  0.432500  0.231900  0.702800  1
  C  C1593  1  0.958600  0.264700  0.174900  1
  C  C1594  1  0.541400  0.764700  0.325100  1
  C  C1595  1  0.041400  0.735300  0.825100  1
  C  C1596  1  0.458600  0.235300  0.674900  1
  C  C1597  1  0.995800  0.301700  0.168700  1
  C  C1598  1  0.504200  0.801700  0.331300  1
  C  C1599  1  0.004200  0.698300  0.831300  1
  C  C1600  1  0.495800  0.198300  0.668700  1
  C  C1601  1  0.006900  0.342100  0.190300  1
  C  C1602  1  0.493100  0.842100  0.309700  1
  C  C1603  1  0.993100  0.657900  0.809700  1
  C  C1604  1  0.506900  0.157900  0.690300  1
  C  C1605  1  0.980700  0.345500  0.218100  1
  C  C1606  1  0.519300  0.845500  0.281900  1
  C  C1607  1  0.019300  0.654500  0.781900  1
  C  C1608  1  0.480700  0.154500  0.718100  1
  N  N1609  1  0.973600  0.240300  0.293400  1
  N  N1610  1  0.526400  0.740300  0.206600  1
  N  N1611  1  0.026400  0.759700  0.706600  1
  N  N1612  1  0.473600  0.259700  0.793400  1
  N  N1613  1  0.966400  0.341900  0.305700  1
  N  N1614  1  0.533600  0.841900  0.194300  1
  N  N1615  1  0.033600  0.658100  0.694300  1
  N  N1616  1  0.466400  0.158100  0.805700  1
  N  N1617  1  0.871700  0.375000  0.284000  1
  N  N1618  1  0.628300  0.875000  0.216000  1
  N  N1619  1  0.128300  0.625000  0.716000  1
  N  N1620  1  0.371700  0.125000  0.784000  1
  N  N1621  1  0.824500  0.402700  0.274100  1
  N  N1622  1  0.675500  0.902700  0.225900  1
  N  N1623  1  0.175500  0.597300  0.725900  1
  N  N1624  1  0.324500  0.097300  0.774100  1
  N  N1625  1  0.643100  0.352900  0.226420  1
  N  N1626  1  0.856900  0.852900  0.273580  1
  N  N1627  1  0.356900  0.647100  0.773580  1
  N  N1628  1  0.143100  0.147100  0.726420  1
  N  N1629  1  0.673900  0.318900  0.247400  1
  N  N1630  1  0.826100  0.818900  0.252600  1
  N  N1631  1  0.326100  0.681100  0.752600  1
  N  N1632  1  0.173900  0.181100  0.747400  1
  N  N1633  1  0.573300  0.421000  0.198200  1
  N  N1634  1  0.926700  0.921000  0.301800  1
  N  N1635  1  0.426700  0.579000  0.801800  1
  N  N1636  1  0.073300  0.079000  0.698200  1
  N  N1637  1  0.581600  0.432000  0.134800  1
  N  N1638  1  0.918400  0.932000  0.365200  1
  N  N1639  1  0.418400  0.568000  0.865200  1
  N  N1640  1  0.081600  0.068000  0.634800  1
  N  N1641  1  0.703400  0.444600  0.178400  1
  N  N1642  1  0.796600  0.944600  0.321600  1
  N  N1643  1  0.296600  0.555400  0.821600  1
  N  N1644  1  0.203400  0.055400  0.678400  1
  N  N1645  1  0.694500  0.371400  0.133480  1
  N  N1646  1  0.805500  0.871400  0.366520  1
  N  N1647  1  0.305500  0.628600  0.866520  1
  N  N1648  1  0.194500  0.128600  0.633480  1
  N  N1649  1  0.624800  0.302700  0.145900  1
  N  N1650  1  0.875200  0.802700  0.354100  1
  N  N1651  1  0.375200  0.697300  0.854100  1
  N  N1652  1  0.124800  0.197300  0.645900  1
  N  N1653  1  0.593400  0.257900  0.148460  1
  N  N1654  1  0.906600  0.757900  0.351540  1
  N  N1655  1  0.406600  0.742100  0.851540  1
  N  N1656  1  0.093400  0.242100  0.648460  1
  N  N1657  1  0.461400  0.199000  0.215780  1
  N  N1658  1  0.038600  0.699000  0.284220  1
  N  N1659  1  0.538600  0.801000  0.784220  1
  N  N1660  1  0.961400  0.301000  0.715780  1
  N  N1661  1  0.501600  0.231500  0.230700  1
  N  N1662  1  0.998400  0.731500  0.269300  1
  N  N1663  1  0.498400  0.768500  0.769300  1
  N  N1664  1  0.001600  0.268500  0.730700  1
  N  N1665  1  0.393700  0.126400  0.196300  1
  N  N1666  1  0.106300  0.626400  0.303700  1
  N  N1667  1  0.606300  0.873600  0.803700  1
  N  N1668  1  0.893700  0.373600  0.696300  1
  N  N1669  1  0.297100  0.161600  0.171700  1
  N  N1670  1  0.202900  0.661600  0.328300  1
  N  N1671  1  0.702900  0.838400  0.828300  1
  N  N1672  1  0.797100  0.338400  0.671700  1
  N  N1673  1  0.405900  0.213500  0.134020  1
  N  N1674  1  0.094100  0.713500  0.365980  1
  N  N1675  1  0.594100  0.786500  0.865980  1
  N  N1676  1  0.905900  0.286500  0.634020  1
  N  N1677  1  0.340600  0.278700  0.159900  1
  N  N1678  1  0.159400  0.778700  0.340100  1
  N  N1679  1  0.659400  0.721300  0.840100  1
  N  N1680  1  0.840600  0.221300  0.659900  1
  N  N1681  1  0.342500  0.264100  0.222800  1
  N  N1682  1  0.157500  0.764100  0.277200  1
  N  N1683  1  0.657500  0.735900  0.777200  1
  N  N1684  1  0.842500  0.235900  0.722800  1
  N  N1685  1  0.336700  0.265000  0.256600  1
  N  N1686  1  0.163300  0.765000  0.243400  1
  N  N1687  1  0.663300  0.735000  0.743400  1
  N  N1688  1  0.836700  0.235000  0.756600  1
  N  N1689  1  0.430500  0.124700  0.367300  1
  N  N1690  1  0.069500  0.624700  0.132700  1
  N  N1691  1  0.569500  0.875300  0.632700  1
  N  N1692  1  0.930500  0.375300  0.867300  1
  N  N1693  1  0.461200  0.135700  0.341200  1
  N  N1694  1  0.038800  0.635700  0.158800  1
  N  N1695  1  0.538800  0.864300  0.658800  1
  N  N1696  1  0.961200  0.364300  0.841200  1
  N  N1697  1  0.386900  0.094200  0.419850  1
  N  N1698  1  0.113100  0.594200  0.080150  1
  N  N1699  1  0.613100  0.905800  0.580150  1
  N  N1700  1  0.886900  0.405800  0.919850  1
  N  N1701  1  0.289300  0.132100  0.420360  1
  N  N1702  1  0.210700  0.632100  0.079640  1
  N  N1703  1  0.710700  0.867900  0.579640  1
  N  N1704  1  0.789300  0.367900  0.920360  1
  N  N1705  1  0.301600  0.062000  0.352600  1
  N  N1706  1  0.198400  0.562000  0.147400  1
  N  N1707  1  0.698400  0.938000  0.647400  1
  N  N1708  1  0.801600  0.438000  0.852600  1
  N  N1709  1  0.270400  0.157500  0.339910  1
  N  N1710  1  0.229600  0.657500  0.160090  1
  N  N1711  1  0.729600  0.842500  0.660090  1
  N  N1712  1  0.770400  0.342500  0.839910  1
  N  N1713  1  0.339500  0.223600  0.364500  1
  N  N1714  1  0.160500  0.723600  0.135500  1
  N  N1715  1  0.660500  0.776400  0.635500  1
  N  N1716  1  0.839500  0.276400  0.864500  1
  N  N1717  1  0.370600  0.265300  0.377800  1
  N  N1718  1  0.129400  0.765300  0.122200  1
  N  N1719  1  0.629400  0.734700  0.622200  1
  N  N1720  1  0.870600  0.234700  0.877800  1
  N  N1721  1  0.536900  0.294200  0.427990  1
  N  N1722  1  0.963100  0.794200  0.072010  1
  N  N1723  1  0.463100  0.705800  0.572010  1
  N  N1724  1  0.036900  0.205800  0.927990  1
  N  N1725  1  0.534300  0.244600  0.413600  1
  N  N1726  1  0.965700  0.744600  0.086400  1
  N  N1727  1  0.465700  0.755400  0.586400  1
  N  N1728  1  0.034300  0.255400  0.913600  1
  N  N1729  1  0.561200  0.390300  0.447500  1
  N  N1730  1  0.938800  0.890300  0.052500  1
  N  N1731  1  0.438800  0.609700  0.552500  1
  N  N1732  1  0.061200  0.109700  0.947500  1
  N  N1733  1  0.540100  0.405600  0.509100  1
  N  N1734  1  0.959900  0.905600  0.990900  1
  N  N1735  1  0.459900  0.594400  0.490900  1
  N  N1736  1  0.040100  0.094400  0.009100  1
  N  N1737  1  0.437900  0.342700  0.477800  1
  N  N1738  1  0.062100  0.842700  0.022200  1
  N  N1739  1  0.562100  0.657300  0.522200  1
  N  N1740  1  0.937900  0.157300  0.977800  1
  N  N1741  1  0.493800  0.286100  0.521640  1
  N  N1742  1  0.006200  0.786100  0.978360  1
  N  N1743  1  0.506200  0.713900  0.478360  1
  N  N1744  1  0.993800  0.213900  0.021640  1
  N  N1745  1  0.590500  0.269900  0.503900  1
  N  N1746  1  0.909500  0.769900  0.996100  1
  N  N1747  1  0.409500  0.730100  0.496100  1
  N  N1748  1  0.090500  0.230100  0.003900  1
  N  N1749  1  0.643000  0.254700  0.499140  1
  N  N1750  1  0.857000  0.754700  0.000860  1
  N  N1751  1  0.357000  0.745300  0.500860  1
  N  N1752  1  0.143000  0.245300  0.999140  1
  N  N1753  1  0.790000  0.304600  0.439100  1
  N  N1754  1  0.710000  0.804600  0.060900  1
  N  N1755  1  0.210000  0.695400  0.560900  1
  N  N1756  1  0.290000  0.195400  0.939100  1
  N  N1757  1  0.737500  0.306100  0.423600  1
  N  N1758  1  0.762500  0.806100  0.076400  1
  N  N1759  1  0.262500  0.693900  0.576400  1
  N  N1760  1  0.237500  0.193900  0.923600  1
  N  N1761  1  0.891600  0.287800  0.462600  1
  N  N1762  1  0.608400  0.787800  0.037400  1
  N  N1763  1  0.108400  0.712200  0.537400  1
  N  N1764  1  0.391600  0.212200  0.962600  1
  N  N1765  1  0.942800  0.368400  0.489200  1
  N  N1766  1  0.557200  0.868400  0.010800  1
  N  N1767  1  0.057200  0.631600  0.510800  1
  N  N1768  1  0.442800  0.131600  0.989200  1
  N  N1769  1  0.821900  0.354900  0.518100  1
  N  N1770  1  0.678100  0.854900  0.981900  1
  N  N1771  1  0.178100  0.645100  0.481900  1
  N  N1772  1  0.321900  0.145100  0.018100  1
  N  N1773  1  0.844600  0.443700  0.489500  1
  N  N1774  1  0.655400  0.943700  0.010500  1
  N  N1775  1  0.155400  0.556300  0.510500  1
  N  N1776  1  0.344600  0.056300  0.989500  1
  N  N1777  1  0.848000  0.427600  0.428400  1
  N  N1778  1  0.652000  0.927600  0.071600  1
  N  N1779  1  0.152000  0.572400  0.571600  1
  N  N1780  1  0.348000  0.072400  0.928400  1
  N  N1781  1  0.852400  0.427800  0.394500  1
  N  N1782  1  0.647600  0.927800  0.105500  1
  N  N1783  1  0.147600  0.572200  0.605500  1
  N  N1784  1  0.352400  0.072200  0.894500  1
  N  N1785  1  0.837300  0.250700  0.290400  1
  N  N1786  1  0.662700  0.750700  0.209600  1
  N  N1787  1  0.162700  0.749300  0.709600  1
  N  N1788  1  0.337300  0.249300  0.790400  1
  N  N1789  1  0.814600  0.248400  0.320300  1
  N  N1790  1  0.685400  0.748400  0.179700  1
  N  N1791  1  0.185400  0.751600  0.679700  1
  N  N1792  1  0.314600  0.251600  0.820300  1
  N  N1793  1  0.878500  0.236800  0.236000  1
  N  N1794  1  0.621500  0.736800  0.264000  1
  N  N1795  1  0.121500  0.763200  0.764000  1
  N  N1796  1  0.378500  0.263200  0.736000  1
  N  N1797  1  0.943500  0.308500  0.224400  1
  N  N1798  1  0.556500  0.808500  0.275600  1
  N  N1799  1  0.056500  0.691500  0.775600  1
  N  N1800  1  0.443500  0.191500  0.724400  1
  Cl  Cl1801  1  0.471240  0.333440  0.311990  1
  Cl  Cl1802  1  0.028760  0.833440  0.188010  1
  Cl  Cl1803  1  0.528760  0.666560  0.688010  1
  Cl  Cl1804  1  0.971240  0.166560  0.811990  1
  Cl  Cl1805  1  0.646830  0.185100  0.317070  1
  Cl  Cl1806  1  0.853170  0.685100  0.182930  1
  Cl  Cl1807  1  0.353170  0.814900  0.682930  1
  Cl  Cl1808  1  0.146830  0.314900  0.817070  1
  Cl  Cl1809  1  0.796270  0.916000  0.155950  1
  Cl  Cl1810  1  0.703730  0.416000  0.344050  1
  Cl  Cl1811  1  0.203730  0.084000  0.844050  1
  Cl  Cl1812  1  0.296270  0.584000  0.655950  1
  Cl  Cl1813  1  0.384570  0.025100  0.568500  1
  Cl  Cl1814  1  0.115430  0.525100  0.931500  1
  Cl  Cl1815  1  0.615430  0.974900  0.431500  1
  Cl  Cl1816  1  0.884570  0.474900  0.068500  1
  Cl  Cl1817  1  0.678500  0.196500  0.011500  1
  Cl  Cl1818  1  0.821500  0.696500  0.488500  1
  Cl  Cl1819  1  0.321500  0.803500  0.988500  1
  Cl  Cl1820  1  0.178500  0.303500  0.511500  1
  Cl  Cl1821  1  0.413300  0.394500  0.610340  1
  Cl  Cl1822  1  0.086700  0.894500  0.889660  1
  Cl  Cl1823  1  0.586700  0.605500  0.389660  1
  Cl  Cl1824  1  0.913300  0.105500  0.110340  1
  Cl  Cl1825  1  0.297800  0.934800  0.119800  1
  Cl  Cl1826  1  0.202200  0.434800  0.380200  1
  Cl  Cl1827  1  0.702200  0.065200  0.880200  1
  Cl  Cl1828  1  0.797800  0.565200  0.619800  1
  Cl  Cl1829  1  0.553200  0.001300  0.282400  1
  Cl  Cl1830  1  0.946800  0.501300  0.217600  1
  Cl  Cl1831  1  0.446800  0.998700  0.717600  1
  Cl  Cl1832  1  0.053200  0.498700  0.782400  1
  Cl  Cl1833  1  0.802500  0.157000  0.509880  1
  Cl  Cl1834  1  0.697500  0.657000  0.990120  1
  Cl  Cl1835  1  0.197500  0.843000  0.490120  1
  Cl  Cl1836  1  0.302500  0.343000  0.009880  1
  Cl  Cl1837  1  0.405600  0.573500  0.268100  1
  Cl  Cl1838  1  0.094400  0.073500  0.231900  1
  Cl  Cl1839  1  0.594400  0.426500  0.731900  1
  Cl  Cl1840  1  0.905600  0.926500  0.768100  1
  Cl  Cl1841  1  0.133900  0.311400  0.140800  1
  Cl  Cl1842  1  0.366100  0.811400  0.359200  1
  Cl  Cl1843  1  0.866100  0.688600  0.859200  1
  Cl  Cl1844  1  0.633900  0.188600  0.640800  1
  Cl  Cl1845  1  0.560520  0.086900  0.145580  1
  Cl  Cl1846  1  0.939480  0.586900  0.354420  1
  Cl  Cl1847  1  0.439480  0.913100  0.854420  1
  Cl  Cl1848  1  0.060520  0.413100  0.645580  1
  O  O1849  1  0.496100  0.285500  0.305600  1
  O  O1850  1  0.003900  0.785500  0.194400  1
  O  O1851  1  0.503900  0.714500  0.694400  1
  O  O1852  1  0.996100  0.214500  0.805600  1
  O  O1853  1  0.438400  0.350400  0.283000  1
  O  O1854  1  0.061600  0.850400  0.217000  1
  O  O1855  1  0.561600  0.649600  0.717000  1
  O  O1856  1  0.938400  0.149600  0.783000  1
  O  O1857  1  0.439600  0.327100  0.336600  1
  O  O1858  1  0.060400  0.827100  0.163400  1
  O  O1859  1  0.560400  0.672900  0.663400  1
  O  O1860  1  0.939600  0.172900  0.836600  1
  O  O1861  1  0.511200  0.370100  0.320300  1
  O  O1862  1  0.988800  0.870100  0.179700  1
  O  O1863  1  0.488800  0.629900  0.679700  1
  O  O1864  1  0.011200  0.129900  0.820300  1
  O  O1865  1  0.592600  0.182100  0.320800  1
  O  O1866  1  0.907400  0.682100  0.179200  1
  O  O1867  1  0.407400  0.817900  0.679200  1
  O  O1868  1  0.092600  0.317900  0.820800  1
  O  O1869  1  0.671600  0.139500  0.318000  1
  O  O1870  1  0.828400  0.639500  0.182000  1
  O  O1871  1  0.328400  0.860500  0.682000  1
  O  O1872  1  0.171600  0.360500  0.818000  1
  O  O1873  1  0.655100  0.205800  0.285200  1
  O  O1874  1  0.844900  0.705800  0.214800  1
  O  O1875  1  0.344900  0.794200  0.714800  1
  O  O1876  1  0.155100  0.294200  0.785200  1
  O  O1877  1  0.672200  0.217500  0.341400  1
  O  O1878  1  0.827800  0.717500  0.158600  1
  O  O1879  1  0.327800  0.782500  0.658600  1
  O  O1880  1  0.172200  0.282500  0.841400  1
  O  O1881  1  0.807800  0.865500  0.149200  1
  O  O1882  1  0.692200  0.365500  0.350800  1
  O  O1883  1  0.192200  0.134500  0.850800  1
  O  O1884  1  0.307800  0.634500  0.649200  1
  O  O1885  1  0.757200  0.926000  0.176000  1
  O  O1886  1  0.742800  0.426000  0.324000  1
  O  O1887  1  0.242800  0.074000  0.824000  1
  O  O1888  1  0.257200  0.574000  0.676000  1
  O  O1889  1  0.773600  0.942800  0.125700  1
  O  O1890  1  0.726400  0.442800  0.374300  1
  O  O1891  1  0.226400  0.057200  0.874300  1
  O  O1892  1  0.273600  0.557200  0.625700  1
  O  O1893  1  0.845100  0.940700  0.165500  1
  O  O1894  1  0.654900  0.440700  0.334500  1
  O  O1895  1  0.154900  0.059300  0.834500  1
  O  O1896  1  0.345100  0.559300  0.665500  1
  O  O1897  1  0.417200  0.994900  0.549300  1
  O  O1898  1  0.082800  0.494900  0.950700  1
  O  O1899  1  0.582800  0.005100  0.450700  1
  O  O1900  1  0.917200  0.505100  0.049300  1
  O  O1901  1  0.371600  0.029600  0.601200  1
  O  O1902  1  0.128400  0.529600  0.898800  1
  O  O1903  1  0.628400  0.970400  0.398800  1
  O  O1904  1  0.871600  0.470400  0.101200  1
  O  O1905  1  0.416800  0.070100  0.575100  1
  O  O1906  1  0.083200  0.570100  0.924900  1
  O  O1907  1  0.583200  0.929900  0.424900  1
  O  O1908  1  0.916800  0.429900  0.075100  1
  O  O1909  1  0.337800  0.035000  0.546900  1
  O  O1910  1  0.162200  0.535000  0.953100  1
  O  O1911  1  0.662200  0.965000  0.453100  1
  O  O1912  1  0.837800  0.465000  0.046900  1
  O  O1913  1  0.673100  0.251400  0.016000  1
  O  O1914  1  0.826900  0.751400  0.484000  1
  O  O1915  1  0.326900  0.748600  0.984000  1
  O  O1916  1  0.173100  0.248600  0.516000  1
  O  O1917  1  0.636800  0.187400  0.985300  1
  O  O1918  1  0.863200  0.687400  0.514700  1
  O  O1919  1  0.363200  0.812600  0.014700  1
  O  O1920  1  0.136800  0.312600  0.485300  1
  O  O1921  1  0.728600  0.175800  0.999200  1
  O  O1922  1  0.771400  0.675800  0.500800  1
  O  O1923  1  0.271400  0.824200  0.000800  1
  O  O1924  1  0.228600  0.324200  0.499200  1
  O  O1925  1  0.666500  0.169700  0.040700  1
  O  O1926  1  0.833500  0.669700  0.459300  1
  O  O1927  1  0.333500  0.830300  0.959300  1
  O  O1928  1  0.166500  0.330300  0.540700  1
  O  O1929  1  0.435900  0.346800  0.623200  1
  O  O1930  1  0.064100  0.846800  0.876800  1
  O  O1931  1  0.564100  0.653200  0.376800  1
  O  O1932  1  0.935900  0.153200  0.123200  1
  O  O1933  1  0.465200  0.424100  0.619800  1
  O  O1934  1  0.034800  0.924100  0.880200  1
  O  O1935  1  0.534800  0.575900  0.380200  1
  O  O1936  1  0.965200  0.075900  0.119800  1
  O  O1937  1  0.413200  0.402600  0.576800  1
  O  O1938  1  0.086800  0.902600  0.923200  1
  O  O1939  1  0.586800  0.597400  0.423200  1
  O  O1940  1  0.913200  0.097400  0.076800  1
  O  O1941  1  0.373200  0.416300  0.629100  1
  O  O1942  1  0.126800  0.916300  0.870900  1
  O  O1943  1  0.626800  0.583700  0.370900  1
  O  O1944  1  0.873200  0.083700  0.129100  1
  O  O1945  1  0.293000  0.989700  0.114200  1
  O  O1946  1  0.207000  0.489700  0.385800  1
  O  O1947  1  0.707000  0.010300  0.885800  1
  O  O1948  1  0.793000  0.510300  0.614200  1
  O  O1949  1  0.337400  0.916300  0.099200  1
  O  O1950  1  0.162600  0.416300  0.400800  1
  O  O1951  1  0.662600  0.083700  0.900800  1
  O  O1952  1  0.837400  0.583700  0.599200  1
  O  O1953  1  0.243300  0.914100  0.109700  1
  O  O1954  1  0.256700  0.414100  0.390300  1
  O  O1955  1  0.756700  0.085900  0.890300  1
  O  O1956  1  0.743300  0.585900  0.609700  1
  O  O1957  1  0.309300  0.927500  0.153900  1
  O  O1958  1  0.190700  0.427500  0.346100  1
  O  O1959  1  0.690700  0.072500  0.846100  1
  O  O1960  1  0.809300  0.572500  0.653900  1
  O  O1961  1  0.492100  0.011600  0.289700  1
  O  O1962  1  0.007900  0.511600  0.210300  1
  O  O1963  1  0.507900  0.988400  0.710300  1
  O  O1964  1  0.992100  0.488400  0.789700  1
  O  O1965  1  0.574000  0.950000  0.286600  1
  O  O1966  1  0.926000  0.450000  0.213400  1
  O  O1967  1  0.426000  0.050000  0.713400  1
  O  O1968  1  0.074000  0.550000  0.786600  1
  O  O1969  1  0.575200  0.006500  0.315900  1
  O  O1970  1  0.924800  0.506500  0.184100  1
  O  O1971  1  0.424800  0.993500  0.684100  1
  O  O1972  1  0.075200  0.493500  0.815900  1
  O  O1973  1  0.589900  0.038700  0.271800  1
  O  O1974  1  0.910100  0.538700  0.228200  1
  O  O1975  1  0.410100  0.961300  0.728200  1
  O  O1976  1  0.089900  0.461300  0.771800  1
  O  O1977  1  0.808700  0.103200  0.504700  1
  O  O1978  1  0.691300  0.603200  0.995300  1
  O  O1979  1  0.191300  0.896800  0.495300  1
  O  O1980  1  0.308700  0.396800  0.004700  1
  O  O1981  1  0.851100  0.185700  0.516600  1
  O  O1982  1  0.648900  0.685700  0.983400  1
  O  O1983  1  0.148900  0.814300  0.483400  1
  O  O1984  1  0.351100  0.314300  0.016600  1
  O  O1985  1  0.773200  0.146200  0.537800  1
  O  O1986  1  0.726800  0.646200  0.962200  1
  O  O1987  1  0.226800  0.853800  0.462200  1
  O  O1988  1  0.273200  0.353800  0.037800  1
  O  O1989  1  0.778800  0.204300  0.497500  1
  O  O1990  1  0.721200  0.704300  0.002500  1
  O  O1991  1  0.221200  0.795700  0.502500  1
  O  O1992  1  0.278800  0.295700  0.997500  1
  O  O1993  1  0.380000  0.563000  0.297400  1
  O  O1994  1  0.120000  0.063000  0.202600  1
  O  O1995  1  0.620000  0.437000  0.702600  1
  O  O1996  1  0.880000  0.937000  0.797400  1
  O  O1997  1  0.466400  0.578200  0.277000  1
  O  O1998  1  0.033600  0.078200  0.223000  1
  O  O1999  1  0.533600  0.421800  0.723000  1
  O  O2000  1  0.966400  0.921800  0.777000  1
  O  O2001  1  0.372700  0.632100  0.276800  1
  O  O2002  1  0.127300  0.132100  0.223200  1
  O  O2003  1  0.627300  0.367900  0.723200  1
  O  O2004  1  0.872700  0.867900  0.776800  1
  O  O2005  1  0.406000  0.563100  0.233700  1
  O  O2006  1  0.094000  0.063100  0.266300  1
  O  O2007  1  0.594000  0.436900  0.766300  1
  O  O2008  1  0.906000  0.936900  0.733700  1
  O  O2009  1  0.145000  0.350300  0.174500  1
  O  O2010  1  0.355000  0.850300  0.325500  1
  O  O2011  1  0.855000  0.649700  0.825500  1
  O  O2012  1  0.645000  0.149700  0.674500  1
  O  O2013  1  0.137700  0.359900  0.124300  1
  O  O2014  1  0.362300  0.859900  0.375700  1
  O  O2015  1  0.862300  0.640100  0.875700  1
  O  O2016  1  0.637700  0.140100  0.624300  1
  O  O2017  1  0.159800  0.265100  0.132100  1
  O  O2018  1  0.340200  0.765100  0.367900  1
  O  O2019  1  0.840200  0.734900  0.867900  1
  O  O2020  1  0.659800  0.234900  0.632100  1
  O  O2021  1  0.079000  0.319300  0.128800  1
  O  O2022  1  0.421000  0.819300  0.371200  1
  O  O2023  1  0.921000  0.680700  0.871200  1
  O  O2024  1  0.579000  0.180700  0.628800  1
  O  O2025  1  0.551200  0.100300  0.112400  1
  O  O2026  1  0.948800  0.600300  0.387600  1
  O  O2027  1  0.448800  0.899700  0.887600  1
  O  O2028  1  0.051200  0.399700  0.612400  1
  O  O2029  1  0.617000  0.086000  0.154500  1
  O  O2030  1  0.883000  0.586000  0.345500  1
  O  O2031  1  0.383000  0.914000  0.845500  1
  O  O2032  1  0.117000  0.414000  0.654500  1
  O  O2033  1  0.545800  0.130400  0.165900  1
  O  O2034  1  0.954200  0.630400  0.334100  1
  O  O2035  1  0.454200  0.869600  0.834100  1
  O  O2036  1  0.045800  0.369600  0.665900  1
  O  O2037  1  0.538800  0.039300  0.156600  1
  O  O2038  1  0.961200  0.539300  0.343400  1
  O  O2039  1  0.461200  0.960700  0.843400  1
  O  O2040  1  0.038800  0.460700  0.656600  1
  O  O2041  1  0.770000  0.909000  0.183200  1
  O  O2042  1  0.730000  0.409000  0.316800  1
  O  O2043  1  0.230000  0.091000  0.816800  1
  O  O2044  1  0.270000  0.591000  0.683200  1
  O  O2045  1  0.402300  0.973300  0.563700  1
  O  O2046  1  0.097700  0.473300  0.936300  1
  O  O2047  1  0.597700  0.026700  0.436300  1
  O  O2048  1  0.902300  0.526700  0.063700  1
  O  O2049  1  0.370600  0.996000  0.595800  1
  O  O2050  1  0.129400  0.496000  0.904200  1
  O  O2051  1  0.629400  0.004000  0.404200  1
  O  O2052  1  0.870600  0.504000  0.095800  1
  O  O2053  1  0.429700  0.050400  0.557200  1
  O  O2054  1  0.070300  0.550400  0.942800  1
  O  O2055  1  0.570300  0.949600  0.442800  1
  O  O2056  1  0.929700  0.449600  0.057200  1
  O  O2057  1  0.708600  0.251500  0.021600  1
  O  O2058  1  0.791400  0.751500  0.478400  1
  O  O2059  1  0.291400  0.748500  0.978400  1
  O  O2060  1  0.208600  0.248500  0.521600  1
  O  O2061  1  0.660000  0.240600  0.983700  1
  O  O2062  1  0.840000  0.740600  0.516300  1
  O  O2063  1  0.340000  0.759400  0.016300  1
  O  O2064  1  0.160000  0.259400  0.483700  1
  O  O2065  1  0.711400  0.152700  0.000000  1
  O  O2066  1  0.788600  0.652700  0.500000  1
  O  O2067  1  0.288600  0.847300  0.000000  1
  O  O2068  1  0.211400  0.347300  0.500000  1
  O  O2069  1  0.412800  0.340300  0.618000  1
  O  O2070  1  0.087200  0.840300  0.882000  1
  O  O2071  1  0.587200  0.659700  0.382000  1
  O  O2072  1  0.912800  0.159700  0.118000  1
  O  O2073  1  0.381700  0.396300  0.580500  1
  O  O2074  1  0.118300  0.896300  0.919500  1
  O  O2075  1  0.618300  0.603700  0.419500  1
  O  O2076  1  0.881700  0.103700  0.080500  1
  O  O2077  1  0.303000  0.989400  0.113000  1
  O  O2078  1  0.197000  0.489400  0.387000  1
  O  O2079  1  0.697000  0.010600  0.887000  1
  O  O2080  1  0.803000  0.510600  0.613000  1
  O  O2081  1  0.342800  0.966100  0.111500  1
  O  O2082  1  0.157200  0.466100  0.388500  1
  O  O2083  1  0.657200  0.033900  0.888500  1
  O  O2084  1  0.842800  0.533900  0.611500  1
  O  O2085  1  0.516300  0.967900  0.255400  1
  O  O2086  1  0.983700  0.467900  0.244600  1
  O  O2087  1  0.483700  0.032100  0.744600  1
  O  O2088  1  0.016300  0.532100  0.755400  1
  O  O2089  1  0.567000  0.026000  0.253100  1
  O  O2090  1  0.933000  0.526000  0.246900  1
  O  O2091  1  0.433000  0.974000  0.746900  1
  O  O2092  1  0.067000  0.474000  0.753100  1
  O  O2093  1  0.807200  0.129100  0.480600  1
  O  O2094  1  0.692800  0.629100  0.019400  1
  O  O2095  1  0.192800  0.870900  0.519400  1
  O  O2096  1  0.307200  0.370900  0.980600  1
  O  O2097  1  0.852500  0.164100  0.529300  1
  O  O2098  1  0.647500  0.664100  0.970700  1
  O  O2099  1  0.147500  0.835900  0.470700  1
  O  O2100  1  0.352500  0.335900  0.029300  1
  O  O2101  1  0.766700  0.175100  0.483100  1
  O  O2102  1  0.733300  0.675100  0.016900  1
  O  O2103  1  0.233300  0.824900  0.516900  1
  O  O2104  1  0.266700  0.324900  0.983100  1
  O  O2105  1  0.388000  0.539000  0.292800  1
  O  O2106  1  0.112000  0.039000  0.207200  1
  O  O2107  1  0.612000  0.461000  0.707200  1
  O  O2108  1  0.888000  0.961000  0.792800  1
  O  O2109  1  0.402000  0.642200  0.264900  1
  O  O2110  1  0.098000  0.142200  0.235100  1
  O  O2111  1  0.598000  0.357800  0.735100  1
  O  O2112  1  0.902000  0.857800  0.764900  1
  O  O2113  1  0.375600  0.541400  0.244100  1
  O  O2114  1  0.124400  0.041400  0.255900  1
  O  O2115  1  0.624400  0.458600  0.755900  1
  O  O2116  1  0.875600  0.958600  0.744100  1
  O  O2117  1  0.160800  0.274900  0.173000  1
  O  O2118  1  0.339200  0.774900  0.327000  1
  O  O2119  1  0.839200  0.725100  0.827000  1
  O  O2120  1  0.660800  0.225100  0.673000  1
  O  O2121  1  0.157000  0.335900  0.114200  1
  O  O2122  1  0.343000  0.835900  0.385800  1
  O  O2123  1  0.843000  0.664100  0.885800  1
  O  O2124  1  0.657000  0.164100  0.614200  1
  O  O2125  1  0.105200  0.263100  0.139000  1
  O  O2126  1  0.394800  0.763100  0.361000  1
  O  O2127  1  0.894800  0.736900  0.861000  1
  O  O2128  1  0.605200  0.236900  0.639000  1
  O  O2129  1  0.611300  0.062000  0.151000  1
  O  O2130  1  0.888700  0.562000  0.349000  1
  O  O2131  1  0.388700  0.938000  0.849000  1
  O  O2132  1  0.111300  0.438000  0.651000  1
  O  O2133  1  0.513600  0.054800  0.140900  1
  O  O2134  1  0.986400  0.554800  0.359100  1
  O  O2135  1  0.486400  0.945200  0.859100  1
  O  O2136  1  0.013600  0.445200  0.640900  1
