
#######################################################################
#
#                 Cambridge Crystallographic Data Centre
#                                CCDC 
#
#######################################################################
#
# If this CIF has been generated from an entry in the Cambridge 
# Structural Database, then it will include bibliographic, chemical, 
# crystal, experimental, refinement or atomic coordinate data resulting 
# from the CCDC's data processing and validation procedures.
#
#######################################################################

data_YIYTUX
_chemical_formula_moiety         'C144 H108 N24 Zn4 8+,8(F6 P1 1-),12(C2 H3 N1)'
_chemical_name_systematic        
"hexakis(\m~2~-N,N'-Biphenyl-4,4'-diylbis(1-(pyridin-2-yl)methanimine))-tetra-zinc octakis(hexafluorophosphate) acetonitrile solvate"
_symmetry_cell_setting           triclinic
_symmetry_space_group_name_H-M   'P -1'
_symmetry_Int_Tables_number      2
_space_group_name_Hall           '-P 1'
loop_
_symmetry_equiv_pos_site_id
_symmetry_equiv_pos_as_xyz
1 x,y,z
2 -x,-y,-z
_cell_length_a                   19.0526(18)
_cell_length_b                   19.6256(18)
_cell_length_c                   29.694(3)
_cell_angle_alpha                73.031(2)
_cell_angle_beta                 71.928(2)
_cell_angle_gamma                67.327(2)
_cell_volume                     9549.99
_exptl_crystal_colour            colorless
_exptl_crystal_description       block
_cell_formula_units_Z            2
loop_
_atom_site_label
_atom_site_type_symbol
_atom_site_fract_x
_atom_site_fract_y
_atom_site_fract_z
Zn1 Zn 0.44170(3) 0.20006(3) 0.537758(17)
Zn2 Zn 0.48485(3) 0.16932(3) 0.101575(18)
Zn3 Zn 1.10405(3) -0.13562(3) 0.273394(19)
Zn4 Zn 0.79630(3) 0.60039(3) 0.172960(19)
N1 N 0.4440(2) 0.2543(2) 0.58807(13)
N2 N 0.5682(2) 0.1671(2) 0.53452(13)
N3 N 1.0063(2) -0.1622(2) 0.32676(14)
N4 N 1.1260(2) -0.2551(3) 0.27369(16)
N5 N 0.4384(2) 0.0988(2) 0.59302(13)
N6 N 0.4343(2) 0.1207(2) 0.49950(13)
N7 N 0.4141(2) 0.2422(2) 0.15468(14)
N8 N 0.4262(3) 0.2705(2) 0.05871(14)
N9 N 0.3156(2) 0.2392(2) 0.54390(14)
N10 N 0.4242(2) 0.2992(2) 0.48018(13)
N11 N 0.8112(2) 0.5270(2) 0.24387(13)
N12 N 0.9016(3) 0.6074(3) 0.18072(15)
N13 N 1.1607(2) -0.1651(2) 0.33216(14)
N14 N 1.0791(2) -0.0269(2) 0.29095(13)
N15 N 0.8649(2) 0.5072(2) 0.13323(13)
N16 N 0.8160(2) 0.6572(2) 0.09909(14)
N17 N 0.5649(2) 0.1091(2) 0.04446(13)
N18 N 0.5897(2) 0.1997(2) 0.08655(13)
N19 N 0.6798(2) 0.6067(2) 0.17202(13)
N20 N 0.7196(3) 0.7002(2) 0.20247(14)
N21 N 0.3975(2) 0.1178(2) 0.11049(13)
N22 N 0.5208(2) 0.0628(2) 0.15193(12)
N23 N 1.0501(2) -0.0979(2) 0.21175(14)
N24 N 1.2015(2) -0.1354(2) 0.21437(14)
C1 C 0.3824(3) 0.2996(3) 0.61363(17)
H1 H 0.3322 0.3116 0.6080
C2 C 0.3897(4) 0.3298(3) 0.64846(19)
H2 H 0.3450 0.3617 0.6664
C3 C 0.4613(3) 0.3130(3) 0.65638(18)
H3 H 0.4669 0.3335 0.6799
C4 C 0.5263(3) 0.2665(3) 0.63053(17)
H4 H 0.5766 0.2546 0.6360
C5 C 0.5164(3) 0.2377(3) 0.59655(16)
C6 C 0.5805(3) 0.1876(3) 0.56748(17)
H5 H 0.6316 0.1701 0.5731
C7 C 0.6333(3) 0.1190(3) 0.50584(18)
C8 C 0.6469(3) 0.1389(3) 0.45635(18)
H6 H 0.6133 0.1845 0.4417
C9 C 0.7085(3) 0.0941(3) 0.42755(19)
H7 H 0.7172 0.1093 0.3934
C10 C 0.7584(3) 0.0262(3) 0.44830(19)
C11 C 0.7443(3) 0.0070(3) 0.49846(18)
H8 H 0.7780 -0.0383 0.5133
C12 C 0.6830(3) 0.0516(3) 0.52713(19)
H9 H 0.6743 0.0369 0.5613
C13 C 0.8239(3) -0.0227(3) 0.41648(18)
C14 C 0.8186(3) -0.0213(4) 0.37033(19)
H10 H 0.7728 0.0107 0.3591
C15 C 0.8794(3) -0.0661(3) 0.3407(2)
H11 H 0.8758 -0.0634 0.3090
C16 C 0.9446(3) -0.1142(3) 0.35707(18)
C17 C 0.9514(3) -0.1159(3) 0.4025(2)
H12 H 0.9973 -0.1481 0.4135
C18 C 0.8911(3) -0.0707(3) 0.4317(2)
H13 H 0.8959 -0.0726 0.4630
C19 C 1.0135(3) -0.2322(3) 0.3369(2)
H14 H 0.9789 -0.2507 0.3641
C20 C 1.0735(3) -0.2835(3) 0.3076(3)
C21 C 1.0757(4) -0.3578(4) 0.3148(3)
H15 H 1.0376 -0.3757 0.3393
C22 C 1.1339(4) -0.4046(4) 0.2859(3)
H16 H 1.1365 -0.4553 0.2900
C23 C 1.1888(4) -0.3761(4) 0.2504(3)
H17 H 1.2295 -0.4069 0.2297
C24 C 1.1827(4) -0.3014(3) 0.2459(2)
H18 H 1.2206 -0.2823 0.2219
C25 C 0.4434(3) 0.0857(3) 0.63883(17)
H19 H 0.4550 0.1214 0.6486
C26 C 0.4326(3) 0.0237(3) 0.67262(18)
H20 H 0.4382 0.0163 0.7046
C27 C 0.4137(3) -0.0278(3) 0.65944(19)
H21 H 0.4039 -0.0703 0.6823
C28 C 0.4091(3) -0.0155(3) 0.61154(18)
H22 H 0.3968 -0.0502 0.6012
C29 C 0.4226(3) 0.0469(3) 0.57953(17)
C30 C 0.4196(3) 0.0625(3) 0.52872(17)
H23 H 0.4066 0.0294 0.5173
C31 C 0.4244(3) 0.1382(3) 0.45126(16)
C32 C 0.4702(3) 0.1785(3) 0.41589(17)
H24 H 0.5055 0.1932 0.4245
C33 C 0.4636(3) 0.1965(3) 0.36875(17)
H25 H 0.4953 0.2233 0.3450
C34 C 0.4121(3) 0.1767(3) 0.35484(17)
C35 C 0.3652(3) 0.1390(3) 0.39059(17)
H26 H 0.3286 0.1259 0.3820
C36 C 0.3708(3) 0.1199(3) 0.43902(17)
H27 H 0.3380 0.0947 0.4631
C37 C 0.4081(3) 0.1952(3) 0.30341(17)
C38 C 0.3931(3) 0.1476(3) 0.28331(16)
H28 H 0.3817 0.1039 0.3032
C39 C 0.3949(3) 0.1641(3) 0.23430(16)
H29 H 0.3856 0.1309 0.2208
C40 C 0.4098(3) 0.2280(3) 0.20506(16)
C41 C 0.4231(3) 0.2765(3) 0.22503(19)
H30 H 0.4324 0.3213 0.2054
C42 C 0.4225(4) 0.2594(3) 0.27330(18)
H31 H 0.4323 0.2926 0.2865
C43 C 0.3760(3) 0.3076(3) 0.13498(19)
H32 H 0.3461 0.3450 0.1540
C44 C 0.3780(4) 0.3257(3) 0.0834(2)
C45 C 0.3342(5) 0.3922(4) 0.0613(2)
H33 H 0.3016 0.4307 0.0790
C46 C 0.3373(5) 0.4035(5) 0.0129(3)
H34 H 0.3081 0.4505 -0.0033
C47 C 0.3821(4) 0.3473(4) -0.0114(2)
H35 H 0.3816 0.3533 -0.0442
C48 C 0.4285(4) 0.2813(4) 0.01143(19)
H36 H 0.4624 0.2432 -0.0063
C49 C 0.2641(3) 0.2042(3) 0.57168(18)
H37 H 0.2784 0.1652 0.5983
C50 C 0.1913(3) 0.2229(3) 0.5630(2)
H38 H 0.1566 0.1964 0.5830
C51 C 0.1691(4) 0.2803(4) 0.5252(2)
H39 H 0.1193 0.2938 0.5186
C52 C 0.2220(3) 0.3184(4) 0.4968(2)
H40 H 0.2083 0.3592 0.4710
C53 C 0.2933(3) 0.2953(3) 0.50725(18)
C54 C 0.3535(3) 0.3284(3) 0.47664(18)
H41 H 0.3391 0.3732 0.4534
C55 C 0.4811(3) 0.3304(3) 0.44630(17)
C56 C 0.4768(3) 0.3574(3) 0.39791(17)
H42 H 0.4354 0.3558 0.3873
C57 C 0.5334(3) 0.3867(3) 0.36531(17)
H43 H 0.5292 0.4066 0.3326
C58 C 0.5959(3) 0.3873(3) 0.37971(17)
C59 C 0.5995(3) 0.3594(3) 0.42815(16)
H44 H 0.6419 0.3595 0.4385
C60 C 0.5435(3) 0.3316(3) 0.46127(17)
H45 H 0.5470 0.3133 0.4941
C61 C 0.6542(3) 0.4210(3) 0.34505(16)
C62 C 0.6278(3) 0.4934(3) 0.31863(16)
H46 H 0.5734 0.5200 0.3233
C63 C 0.6804(3) 0.5270(3) 0.28547(16)
H47 H 0.6618 0.5765 0.2676
C64 C 0.7606(3) 0.4885(3) 0.27822(15)
C65 C 0.7873(3) 0.4155(3) 0.30350(18)
H48 H 0.8416 0.3883 0.2982
C66 C 0.7342(3) 0.3821(3) 0.33675(19)
H49 H 0.7528 0.3321 0.3540
C67 C 0.8747(3) 0.5198(3) 0.25327(18)
H50 H 0.8885 0.4876 0.2822
C68 C 0.9266(3) 0.5607(4) 0.22007(19)
C69 C 0.9952(4) 0.5542(5) 0.2296(2)
H51 H 1.0118 0.5211 0.2576
C70 C 1.0398(5) 0.5974(6) 0.1972(3)
H52 H 1.0888 0.5921 0.2021
C71 C 1.0124(5) 0.6486(6) 0.1576(3)
H53 H 1.0403 0.6811 0.1365
C72 C 0.9432(4) 0.6505(4) 0.1501(2)
H54 H 0.9250 0.6833 0.1225
C73 C 1.2015(3) -0.2329(3) 0.3526(2)
H55 H 1.2167 -0.2737 0.3368
C74 C 1.2229(3) -0.2470(3) 0.3956(2)
H56 H 1.2513 -0.2966 0.4092
C75 C 1.2027(3) -0.1889(4) 0.4183(2)
H57 H 1.2165 -0.1973 0.4480
C76 C 1.1614(3) -0.1164(4) 0.39710(19)
H58 H 1.1470 -0.0747 0.4119
C77 C 1.1421(3) -0.1073(3) 0.35406(17)
C78 C 1.0993(3) -0.0331(3) 0.32950(18)
H59 H 1.0867 0.0103 0.3423
C79 C 1.0410(3) 0.0474(3) 0.26687(17)
C80 C 1.0687(3) 0.0687(3) 0.21774(18)
H60 H 1.1087 0.0329 0.2001
C81 C 1.0382(3) 0.1420(3) 0.19424(18)
H61 H 1.0592 0.1565 0.1608
C82 C 0.9774(3) 0.1949(3) 0.21867(17)
C83 C 0.9461(3) 0.1711(3) 0.26821(19)
H62 H 0.9028 0.2052 0.2854
C84 C 0.9785(3) 0.0980(3) 0.29153(19)
H63 H 0.9576 0.0826 0.3248
C85 C 0.9469(3) 0.2756(3) 0.19442(17)
C86 C 0.9977(3) 0.3104(3) 0.16051(19)
H64 H 1.0512 0.2820 0.1511
C87 C 0.9713(3) 0.3865(3) 0.14020(18)
H65 H 1.0069 0.4102 0.1178
C88 C 0.8937(3) 0.4274(3) 0.15252(15)
C89 C 0.8415(3) 0.3936(3) 0.18638(17)
H66 H 0.7881 0.4223 0.1956
C90 C 0.8684(3) 0.3175(3) 0.20648(17)
H67 H 0.8327 0.2938 0.2288
C91 C 0.8890(3) 0.5305(3) 0.08839(16)
H68 H 0.9242 0.4956 0.0685
C92 C 0.8625(3) 0.6119(3) 0.06713(17)
C93 C 0.8836(4) 0.6381(4) 0.0181(2)
H69 H 0.9156 0.6047 -0.0034
C94 C 0.8561(5) 0.7149(4) 0.0017(2)
H70 H 0.8710 0.7352 -0.0316
C95 C 0.8079(4) 0.7620(3) 0.0326(2)
H71 H 0.7878 0.8147 0.0210
C96 C 0.7887(3) 0.7314(3) 0.08161(19)
H72 H 0.7552 0.7640 0.1033
C97 C 0.5544(3) 0.0612(3) 0.02477(16)
H73 H 0.5035 0.0578 0.0318
C98 C 0.6138(3) 0.0167(3) -0.00519(17)
H74 H 0.6037 -0.0156 -0.0190
C99 C 0.6879(4) 0.0199(4) -0.01471(19)
H75 H 0.7302 -0.0111 -0.0345
C100 C 0.6998(4) 0.0693(4) 0.00519(19)
H76 H 0.7504 0.0729 -0.0011
C101 C 0.6374(3) 0.1129(3) 0.03413(17)
C102 C 0.6450(3) 0.1669(3) 0.05517(18)
H77 H 0.6925 0.1780 0.0453
C103 C 0.5984(3) 0.2599(3) 0.10012(17)
C104 C 0.6126(5) 0.3193(4) 0.0644(2)
H78 H 0.6145 0.3206 0.0318
C105 C 0.6242(5) 0.3771(4) 0.0761(2)
H79 H 0.6353 0.4172 0.0511
C106 C 0.6200(3) 0.3773(3) 0.12399(17)
C107 C 0.6079(4) 0.3153(3) 0.15835(18)
H80 H 0.6075 0.3124 0.1909
C108 C 0.5966(4) 0.2583(3) 0.14691(19)
H81 H 0.5874 0.2172 0.1716
C109 C 0.6335(3) 0.4378(3) 0.13603(16)
C110 C 0.6853(3) 0.4736(3) 0.10389(16)
H82 H 0.7116 0.4589 0.0736
C111 C 0.6994(3) 0.5299(3) 0.11509(16)
H83 H 0.7352 0.5534 0.0927
C112 C 0.6611(3) 0.5524(3) 0.15914(16)
C113 C 0.6084(3) 0.5178(3) 0.19153(17)
H84 H 0.5811 0.5335 0.2214
C114 C 0.5959(3) 0.4615(3) 0.18032(17)
H85 H 0.5607 0.4376 0.2031
C115 C 0.6252(3) 0.6637(3) 0.18651(16)
H86 H 0.5731 0.6726 0.1854
C116 C 0.6430(3) 0.7152(3) 0.20478(16)
C117 C 0.5838(3) 0.7741(3) 0.22525(17)
H87 H 0.5307 0.7829 0.2265
C118 C 0.6041(4) 0.8192(3) 0.24369(17)
H88 H 0.5653 0.8599 0.2575
C119 C 0.6821(4) 0.8037(3) 0.24154(19)
H89 H 0.6975 0.8333 0.2544
C120 C 0.7378(4) 0.7445(3) 0.22053(19)
H90 H 0.7912 0.7351 0.2189
C121 C 0.3333(3) 0.1471(3) 0.09296(18)
H91 H 0.3234 0.1958 0.0729
C122 C 0.2805(3) 0.1090(3) 0.10288(19)
H92 H 0.2358 0.1309 0.0893
C123 C 0.2938(3) 0.0391(3) 0.13258(18)
H93 H 0.2581 0.0122 0.1403
C124 C 0.3599(3) 0.0090(3) 0.15085(17)
H94 H 0.3706 -0.0393 0.1714
C125 C 0.4105(3) 0.0492(3) 0.13920(15)
C126 C 0.4818(3) 0.0201(3) 0.15749(16)
H95 H 0.4989 -0.0310 0.1736
C127 C 0.5939(3) 0.0338(3) 0.16681(15)
C128 C 0.6049(3) 0.0670(3) 0.19729(15)
H96 H 0.5635 0.1072 0.2102
C129 C 0.6773(3) 0.0418(3) 0.20956(16)
H97 H 0.6843 0.0645 0.2313
C130 C 0.7396(3) -0.0166(3) 0.19008(16)
C131 C 0.7263(3) -0.0496(3) 0.15972(19)
H98 H 0.7674 -0.0900 0.1467
C132 C 0.6541(3) -0.0254(3) 0.14758(18)
H99 H 0.6462 -0.0489 0.1266
C133 C 0.8182(3) -0.0396(3) 0.19983(17)
C134 C 0.8445(3) 0.0140(3) 0.20597(17)
H100 H 0.8104 0.0642 0.2068
C135 C 0.9205(3) -0.0062(3) 0.21081(18)
H101 H 0.9382 0.0303 0.2149
C136 C 0.9705(3) -0.0790(3) 0.20967(16)
C137 C 0.9439(3) -0.1323(3) 0.2059(2)
H102 H 0.9775 -0.1828 0.2060
C138 C 0.8677(3) -0.1119(3) 0.2019(2)
H103 H 0.8492 -0.1496 0.2005
C139 C 1.1019(3) -0.1051(3) 0.17185(18)
H104 H 1.0862 -0.0965 0.1427
C140 C 1.1847(3) -0.1265(3) 0.17125(18)
C141 C 1.2423(3) -0.1365(3) 0.1299(2)
H105 H 1.2297 -0.1295 0.1000
C142 C 1.3189(3) -0.1569(3) 0.1329(2)
H106 H 1.3599 -0.1638 0.1048
C143 C 1.3353(3) -0.1670(3) 0.1765(2)
H107 H 1.3879 -0.1818 0.1791
C144 C 1.2762(3) -0.1558(3) 0.2162(2)
H108 H 1.2883 -0.1628 0.2463
F1 F 0.61148(17) 0.75187(17) 0.09147(11)
F2 F 0.62308(18) 0.8613(2) 0.09242(12)
F3 F 0.50560(18) 0.92375(18) 0.07224(11)
F4 F 0.49462(17) 0.81457(19) 0.07154(11)
F5 F 0.60164(16) 0.84550(17) 0.02571(9)
F6 F 0.51604(18) 0.8306(2) 0.13774(10)
P1 P 0.55908(7) 0.83796(8) 0.08175(4)
F7 F 0.4401(3) 0.5429(2) 0.2822(2)
F8 F 0.4878(2) 0.6367(3) 0.26560(14)
F9 F 0.3684(4) 0.7140(3) 0.2868(3)
F10 F 0.3205(2) 0.6183(3) 0.3030(3)
F11 F 0.3956(5) 0.6451(4) 0.2312(2)
F12 F 0.4091(4) 0.6166(4) 0.33594(15)
P2 P 0.40368(8) 0.62901(8) 0.28316(5)
F13 F 0.2771(2) 0.9614(2) 0.27842(15)
F14 F 0.3771(2) 1.0063(2) 0.25759(12)
F15 F 0.3313(2) 0.8722(2) 0.33625(17)
F16 F 0.4321(2) 0.9164(3) 0.31535(15)
F17 F 0.3088(3) 0.9947(3) 0.33410(13)
F18 F 0.4006(2) 0.8860(2) 0.25860(15)
P3 P 0.35445(9) 0.93958(9) 0.29713(5)
F19 F 0.2030(2) 0.3643(2) 0.68818(12)
F20 F 0.0844(2) 0.4027(3) 0.67091(15)
F21 F 0.1116(2) 0.2875(3) 0.65483(16)
F22 F 0.2295(2) 0.2505(2) 0.67228(13)
F23 F 0.1207(2) 0.2972(3) 0.72665(13)
F24 F 0.1948(2) 0.3549(2) 0.61570(12)
P4 P 0.15708(11) 0.32632(13) 0.67144(6)
F25 F 0.6178(2) 0.1994(2) 0.26745(12)
F26 F 0.6553(3) 0.2935(2) 0.27131(14)
F27 F 0.7547(2) 0.2075(2) 0.30449(13)
F28 F 0.7154(2) 0.1159(2) 0.30021(13)
F29 F 0.7398(2) 0.2012(2) 0.23297(12)
F30 F 0.6325(2) 0.2074(2) 0.33881(11)
P5 P 0.68678(8) 0.20483(9) 0.28561(5)
F31 F 0.0103(8) 0.7322(7) 0.6636(5)
F32 F -0.1008(5) 0.7041(5) 0.6995(4)
F33 F 0.0688(5) 0.6173(8) 0.6468(3)
F34 F -0.0384(6) 0.5885(5) 0.6834(3)
F35 F 0.0099(4) 0.6363(5) 0.7246(3)
F36 F -0.0409(5) 0.6891(5) 0.6237(3)
P6 P -0.01477(18) 0.6620(2) 0.67412(13)
F37 F 0.9428(3) 0.4829(3) 0.9591(2)
F38 F 0.9393(3) 0.3706(4) 0.9537(2)
F39 F 0.8299(2) 0.4988(3) 1.01490(14)
F40 F 0.8286(4) 0.3873(5) 1.0096(2)
F41 F 0.9325(3) 0.3941(3) 1.02441(18)
F42 F 0.8381(3) 0.4726(4) 0.94310(19)
P7 P 0.88566(12) 0.43674(16) 0.98262(8)
F43 F 0.0584(3) 0.1498(3) 0.07057(18)
F44 F 0.1441(3) 0.0840(3) 0.01923(18)
F45 F 0.1140(3) -0.0183(3) 0.06136(17)
F46 F 0.0221(3) 0.0497(3) 0.11553(17)
F47 F 0.0209(3) 0.0863(4) 0.03698(19)
F48 F 0.1441(3) 0.0511(4) 0.09622(19)
P8 P 0.08298(12) 0.06765(13) 0.06715(7)
F49 F 0.9965(3) 0.9825(3) 0.5568(2)
F50 F 0.9865(4) 1.0855(4) 0.4980(2)
F51 F 0.9092(3) 1.0195(4) 0.5093(2)
P9 P 1.0000 1.0000 0.5000
F49A F 1.0035(3) 1.0175(3) 0.4432(2)
F50A F 1.0135(4) 0.9145(4) 0.5020(2)
F51A F 1.0908(3) 0.9805(4) 0.4907(2)
N25 N 0.3057(5) 0.3857(7) 0.3647(4)
C145 C 0.2651(6) 0.3581(7) 0.3593(4)
C146 C 0.2113(7) 0.3284(7) 0.3466(6)
H109 H 0.1879 0.3649 0.3204
H110 H 0.1699 0.3212 0.3751
H111 H 0.2417 0.2803 0.3363
N26 N 0.8050(5) 0.1614(8) 0.0807(5)
C147 C 0.8215(6) 0.1940(8) 0.0992(4)
C148 C 0.8411(8) 0.2364(8) 0.1213(4)
H112 H 0.8422 0.2844 0.0994
H113 H 0.8927 0.2084 0.1286
H114 H 0.8022 0.2461 0.1513
N27 N 0.2230(6) 0.2400(6) 0.1716(4)
C149 C 0.2072(6) 0.1981(7) 0.2099(5)
C150 C 0.1865(6) 0.1492(6) 0.2530(4)
H115 H 0.1302 0.1580 0.2603
H116 H 0.1998 0.1585 0.2795
H117 H 0.2149 0.0969 0.2491
N28 N 0.3827(5) 0.7181(5) 0.0488(3)
C151 C 0.4173(6) 0.6841(6) 0.0796(3)
C152 C 0.4567(6) 0.6441(6) 0.1192(3)
H118 H 0.5132 0.6321 0.1067
H119 H 0.4442 0.5974 0.1342
H120 H 0.4392 0.6758 0.1432
N29 N 0.0894(6) 0.1730(5) 0.9096(3)
C153 C 0.0861(5) 0.1100(6) 0.9196(3)
C154 C 0.0800(8) 0.0280(7) 0.9317(3)
H121 H 0.0255 0.0316 0.9368
H122 H 0.0990 -0.0006 0.9610
H123 H 0.1118 0.0024 0.9047
N30 N 0.1547(8) 0.7409(8) 0.1330(5)
C155 C 0.1996(12) 0.6920(14) 0.1084(8)
C156 C 0.2477(11) 0.6258(13) 0.0802(8)
H124 H 0.2122 0.6121 0.0694
H125 H 0.2757 0.5822 0.1016
H126 H 0.2853 0.6420 0.0521
C159 C 0.1277(7) 0.4150(6) 0.1675(5)
N31 N 0.2194(8) 0.4470(7) 0.2164(6)
C160 C 0.1747(10) 0.4366(10) 0.1938(8)
N33 N 0.0857(6) 0.4478(7) 0.4335(5)
C162 C 0.0232(6) 0.4730(6) 0.4361(4)
C163 C -0.0567(7) 0.5059(9) 0.4394(5)
H130 H -0.0729 0.5583 0.4428
H131 H -0.0845 0.4781 0.4676
H132 H -0.0692 0.5045 0.4101
N34 N 0.8426(7) 0.8190(7) 0.5524(5)
C164 C 0.8581(8) 0.8441(8) 0.5770(5)
C165 C 0.8959(10) 0.8703(8) 0.6004(5)
H133 H 0.8956 0.8411 0.6334
H134 H 0.8680 0.9237 0.6014
H135 H 0.9500 0.8639 0.5824
N35 N 0.7523(9) 0.2355(9) 0.4743(5)
C166 C 0.7994(6) 0.2080(6) 0.4432(4)
C167 C 0.8583(7) 0.1736(7) 0.4043(4)
H136 H 0.8904 0.1151 0.4184
H137 H 0.9000 0.2048 0.3873
H138 H 0.8309 0.1740 0.3767
C168 C 0.2459(6) 0.5166(6) 0.5875(4)
C169 C 0.3216(13) 0.4867(11) 0.5657(7)
N36 N 0.3854(12) 0.4549(9) 0.5461(6)
N37 N 0.2171(13) 0.5495(10) 0.3940(8)
C170 C 0.2232(13) 0.5379(11) 0.4328(9)
C171 C 0.2313(12) 0.5183(12) 0.4743(9)
C175 C 0.5662(6) 0.4631(5) 0.5605(3)
N40 N 0.6490(7) 0.3425(7) 0.5336(3)
C176 C 0.6099(7) 0.3976(7) 0.5450(3)
C157? C 0.112(3) 0.793(3) 0.0445(13)
H127? H 0.1061 0.7477 0.0405
H128? H 0.1557 0.8044 0.0198
H129? H 0.0636 0.8356 0.0410
C158? C 0.126(3) 0.780(3) 0.0954(13)
N32? N 0.1910(9) 0.3080(10) 0.1006(8)
C161? C 0.1681(11) 0.3544(13) 0.1246(10)
N38? N 0.2663(11) 0.4730(10) 0.5132(6)
C172? C 0.2573(14) 0.4919(12) 0.5466(8)
N39? N 0.5662(6) 0.4631(5) 0.5605(3)
C173? C 0.5107(17) 0.4532(12) 0.5554(8)
C174? C 0.4540(17) 0.4439(11) 0.5522(8)
loop_
_geom_bond_atom_site_label_1
_geom_bond_atom_site_label_2
_geom_bond_site_symmetry_1
_geom_bond_site_symmetry_2
Zn1 N1 1_555 1_555
Zn2 N7 1_555 1_555
Zn3 N3 1_555 1_555
Zn4 N11 1_555 1_555
N1 C1 1_555 1_555
N2 Zn1 1_555 1_555
N3 C16 1_555 1_555
N4 Zn3 1_555 1_555
N5 Zn1 1_555 1_555
N6 Zn1 1_555 1_555
N7 C40 1_555 1_555
N8 Zn2 1_555 1_555
N9 Zn1 1_555 1_555
N10 Zn1 1_555 1_555
N11 C64 1_555 1_555
N12 Zn4 1_555 1_555
N13 Zn3 1_555 1_555
N14 Zn3 1_555 1_555
N15 Zn4 1_555 1_555
N16 Zn4 1_555 1_555
N17 Zn2 1_555 1_555
N18 Zn2 1_555 1_555
N19 Zn4 1_555 1_555
N20 Zn4 1_555 1_555
N21 Zn2 1_555 1_555
N22 Zn2 1_555 1_555
N23 Zn3 1_555 1_555
N24 Zn3 1_555 1_555
C1 H1 1_555 1_555
C2 C1 1_555 1_555
H2 C2 1_555 1_555
C3 C2 1_555 1_555
H3 C3 1_555 1_555
C4 C3 1_555 1_555
H4 C4 1_555 1_555
C5 N1 1_555 1_555
C6 N2 1_555 1_555
H5 C6 1_555 1_555
C7 N2 1_555 1_555
C8 C7 1_555 1_555
H6 C8 1_555 1_555
C9 C8 1_555 1_555
H7 C9 1_555 1_555
C10 C9 1_555 1_555
C11 C10 1_555 1_555
H8 C11 1_555 1_555
C12 C7 1_555 1_555
H9 C12 1_555 1_555
C13 C10 1_555 1_555
C14 C13 1_555 1_555
H10 C14 1_555 1_555
C15 C14 1_555 1_555
H11 C15 1_555 1_555
C16 C15 1_555 1_555
C17 C16 1_555 1_555
H12 C17 1_555 1_555
C18 C13 1_555 1_555
H13 C18 1_555 1_555
C19 N3 1_555 1_555
H14 C19 1_555 1_555
C20 N4 1_555 1_555
C21 C20 1_555 1_555
H15 C21 1_555 1_555
C22 C21 1_555 1_555
H16 C22 1_555 1_555
C23 C22 1_555 1_555
H17 C23 1_555 1_555
C24 N4 1_555 1_555
H18 C24 1_555 1_555
C25 N5 1_555 1_555
H19 C25 1_555 1_555
C26 C25 1_555 1_555
H20 C26 1_555 1_555
C27 C26 1_555 1_555
H21 C27 1_555 1_555
C28 C27 1_555 1_555
H22 C28 1_555 1_555
C29 N5 1_555 1_555
C30 N6 1_555 1_555
H23 C30 1_555 1_555
C31 N6 1_555 1_555
C32 C31 1_555 1_555
H24 C32 1_555 1_555
C33 C32 1_555 1_555
H25 C33 1_555 1_555
C34 C33 1_555 1_555
C35 C34 1_555 1_555
H26 C35 1_555 1_555
C36 C31 1_555 1_555
H27 C36 1_555 1_555
C37 C34 1_555 1_555
C38 C37 1_555 1_555
H28 C38 1_555 1_555
C39 C38 1_555 1_555
H29 C39 1_555 1_555
C40 C39 1_555 1_555
C41 C40 1_555 1_555
H30 C41 1_555 1_555
C42 C37 1_555 1_555
H31 C42 1_555 1_555
C43 N7 1_555 1_555
H32 C43 1_555 1_555
C44 N8 1_555 1_555
C45 C44 1_555 1_555
H33 C45 1_555 1_555
C46 C45 1_555 1_555
H34 C46 1_555 1_555
C47 C46 1_555 1_555
H35 C47 1_555 1_555
C48 N8 1_555 1_555
H36 C48 1_555 1_555
C49 N9 1_555 1_555
H37 C49 1_555 1_555
C50 C49 1_555 1_555
H38 C50 1_555 1_555
C51 C50 1_555 1_555
H39 C51 1_555 1_555
C52 C51 1_555 1_555
H40 C52 1_555 1_555
C53 N9 1_555 1_555
C54 N10 1_555 1_555
H41 C54 1_555 1_555
C55 N10 1_555 1_555
C56 C55 1_555 1_555
H42 C56 1_555 1_555
C57 C56 1_555 1_555
H43 C57 1_555 1_555
C58 C57 1_555 1_555
C59 C58 1_555 1_555
H44 C59 1_555 1_555
C60 C55 1_555 1_555
H45 C60 1_555 1_555
C61 C58 1_555 1_555
C62 C61 1_555 1_555
H46 C62 1_555 1_555
C63 C62 1_555 1_555
H47 C63 1_555 1_555
C64 C63 1_555 1_555
C65 C64 1_555 1_555
H48 C65 1_555 1_555
C66 C61 1_555 1_555
H49 C66 1_555 1_555
C67 N11 1_555 1_555
H50 C67 1_555 1_555
C68 N12 1_555 1_555
C69 C68 1_555 1_555
H51 C69 1_555 1_555
C70 C69 1_555 1_555
H52 C70 1_555 1_555
C71 C70 1_555 1_555
H53 C71 1_555 1_555
C72 N12 1_555 1_555
H54 C72 1_555 1_555
C73 N13 1_555 1_555
H55 C73 1_555 1_555
C74 C73 1_555 1_555
H56 C74 1_555 1_555
C75 C74 1_555 1_555
H57 C75 1_555 1_555
C76 C75 1_555 1_555
H58 C76 1_555 1_555
C77 N13 1_555 1_555
C78 N14 1_555 1_555
H59 C78 1_555 1_555
C79 N14 1_555 1_555
C80 C79 1_555 1_555
H60 C80 1_555 1_555
C81 C80 1_555 1_555
H61 C81 1_555 1_555
C82 C81 1_555 1_555
C83 C82 1_555 1_555
H62 C83 1_555 1_555
C84 C79 1_555 1_555
H63 C84 1_555 1_555
C85 C82 1_555 1_555
C86 C85 1_555 1_555
H64 C86 1_555 1_555
C87 C86 1_555 1_555
H65 C87 1_555 1_555
C88 N15 1_555 1_555
C89 C88 1_555 1_555
H66 C89 1_555 1_555
C90 C85 1_555 1_555
H67 C90 1_555 1_555
C91 N15 1_555 1_555
H68 C91 1_555 1_555
C92 N16 1_555 1_555
C93 C92 1_555 1_555
H69 C93 1_555 1_555
C94 C93 1_555 1_555
H70 C94 1_555 1_555
C95 C94 1_555 1_555
H71 C95 1_555 1_555
C96 N16 1_555 1_555
H72 C96 1_555 1_555
C97 N17 1_555 1_555
H73 C97 1_555 1_555
C98 C97 1_555 1_555
H74 C98 1_555 1_555
C99 C98 1_555 1_555
H75 C99 1_555 1_555
C100 C99 1_555 1_555
H76 C100 1_555 1_555
C101 N17 1_555 1_555
C102 N18 1_555 1_555
H77 C102 1_555 1_555
C103 N18 1_555 1_555
C104 C103 1_555 1_555
H78 C104 1_555 1_555
C105 C104 1_555 1_555
H79 C105 1_555 1_555
C106 C105 1_555 1_555
C107 C106 1_555 1_555
H80 C107 1_555 1_555
C108 C103 1_555 1_555
H81 C108 1_555 1_555
C109 C106 1_555 1_555
C110 C109 1_555 1_555
H82 C110 1_555 1_555
C111 C110 1_555 1_555
H83 C111 1_555 1_555
C112 N19 1_555 1_555
C113 C112 1_555 1_555
H84 C113 1_555 1_555
C114 C109 1_555 1_555
H85 C114 1_555 1_555
C115 N19 1_555 1_555
H86 C115 1_555 1_555
C116 N20 1_555 1_555
C117 C116 1_555 1_555
H87 C117 1_555 1_555
C118 C117 1_555 1_555
H88 C118 1_555 1_555
C119 C118 1_555 1_555
H89 C119 1_555 1_555
C120 N20 1_555 1_555
H90 C120 1_555 1_555
C121 N21 1_555 1_555
H91 C121 1_555 1_555
C122 C121 1_555 1_555
H92 C122 1_555 1_555
C123 C122 1_555 1_555
H93 C123 1_555 1_555
C124 C123 1_555 1_555
H94 C124 1_555 1_555
C125 N21 1_555 1_555
C126 N22 1_555 1_555
H95 C126 1_555 1_555
C127 N22 1_555 1_555
C128 C127 1_555 1_555
H96 C128 1_555 1_555
C129 C128 1_555 1_555
H97 C129 1_555 1_555
C130 C129 1_555 1_555
C131 C130 1_555 1_555
H98 C131 1_555 1_555
C132 C127 1_555 1_555
H99 C132 1_555 1_555
C133 C130 1_555 1_555
C134 C133 1_555 1_555
H100 C134 1_555 1_555
C135 C134 1_555 1_555
H101 C135 1_555 1_555
C136 N23 1_555 1_555
C137 C136 1_555 1_555
H102 C137 1_555 1_555
C138 C133 1_555 1_555
H103 C138 1_555 1_555
C139 N23 1_555 1_555
H104 C139 1_555 1_555
C140 N24 1_555 1_555
C141 C140 1_555 1_555
H105 C141 1_555 1_555
C142 C141 1_555 1_555
H106 C142 1_555 1_555
C143 C142 1_555 1_555
H107 C143 1_555 1_555
C144 N24 1_555 1_555
H108 C144 1_555 1_555
F1 P1 1_555 1_555
F2 P1 1_555 1_555
F3 P1 1_555 1_555
F4 P1 1_555 1_555
F5 P1 1_555 1_555
F6 P1 1_555 1_555
F7 P2 1_555 1_555
F8 P2 1_555 1_555
F9 P2 1_555 1_555
F10 P2 1_555 1_555
F11 P2 1_555 1_555
F12 P2 1_555 1_555
F13 P3 1_555 1_555
F14 P3 1_555 1_555
F15 P3 1_555 1_555
F16 P3 1_555 1_555
F17 P3 1_555 1_555
F18 P3 1_555 1_555
F19 P4 1_555 1_555
F20 P4 1_555 1_555
F21 P4 1_555 1_555
F22 P4 1_555 1_555
F23 P4 1_555 1_555
F24 P4 1_555 1_555
F25 P5 1_555 1_555
F26 P5 1_555 1_555
F27 P5 1_555 1_555
F28 P5 1_555 1_555
F29 P5 1_555 1_555
F30 P5 1_555 1_555
F31 P6 1_555 1_555
F32 P6 1_555 1_555
F33 P6 1_555 1_555
F34 P6 1_555 1_555
F35 P6 1_555 1_555
F36 P6 1_555 1_555
F37 P7 1_555 1_555
F38 P7 1_555 1_555
F39 P7 1_555 1_555
F40 P7 1_555 1_555
F41 P7 1_555 1_555
F42 P7 1_555 1_555
F43 P8 1_555 1_555
F44 P8 1_555 1_555
F45 P8 1_555 1_555
F46 P8 1_555 1_555
F47 P8 1_555 1_555
F48 P8 1_555 1_555
F49 P9 1_555 1_555
F50 P9 1_555 1_555
F51 P9 1_555 1_555
P9 F49A 1_555 1_555
N25 C145 1_555 1_555
C145 C146 1_555 1_555
C146 H109 1_555 1_555
H110 C146 1_555 1_555
H111 C146 1_555 1_555
N26 C147 1_555 1_555
C147 C148 1_555 1_555
C148 H112 1_555 1_555
H113 C148 1_555 1_555
H114 C148 1_555 1_555
N27 C149 1_555 1_555
C149 C150 1_555 1_555
C150 H115 1_555 1_555
H116 C150 1_555 1_555
H117 C150 1_555 1_555
N28 C151 1_555 1_555
C151 C152 1_555 1_555
C152 H118 1_555 1_555
H119 C152 1_555 1_555
H120 C152 1_555 1_555
N29 C153 1_555 1_555
C153 C154 1_555 1_555
C154 H121 1_555 1_555
H122 C154 1_555 1_555
H123 C154 1_555 1_555
N30 C155 1_555 1_555
C155 C156 1_555 1_555
C156 H124 1_555 1_555
H125 C156 1_555 1_555
H126 C156 1_555 1_555
C159 C160 1_555 1_555
N31 C160 1_555 1_555
N33 C162 1_555 1_555
C162 C163 1_555 1_555
C163 H130 1_555 1_555
H131 C163 1_555 1_555
H132 C163 1_555 1_555
N34 C164 1_555 1_555
C164 C165 1_555 1_555
C165 H133 1_555 1_555
H134 C165 1_555 1_555
H135 C165 1_555 1_555
N35 C166 1_555 1_555
C166 C167 1_555 1_555
C167 H136 1_555 1_555
H137 C167 1_555 1_555
H138 C167 1_555 1_555
C168 C169 1_555 1_555
C169 N36 1_555 1_555
N37 C170 1_555 1_555
C170 C171 1_555 1_555
C175 C176 1_555 1_555
N40 C176 1_555 1_555
F50A P9 1_555 1_555
F51A P9 1_555 1_555
C4 C5 1_555 1_555
C5 C6 1_555 1_555
C11 C12 1_555 1_555
C17 C18 1_555 1_555
C19 C20 1_555 1_555
C23 C24 1_555 1_555
C28 C29 1_555 1_555
C29 C30 1_555 1_555
C35 C36 1_555 1_555
C41 C42 1_555 1_555
C43 C44 1_555 1_555
C47 C48 1_555 1_555
C52 C53 1_555 1_555
C53 C54 1_555 1_555
C59 C60 1_555 1_555
C65 C66 1_555 1_555
C67 C68 1_555 1_555
C71 C72 1_555 1_555
C76 C77 1_555 1_555
C77 C78 1_555 1_555
C83 C84 1_555 1_555
C87 C88 1_555 1_555
C89 C90 1_555 1_555
C91 C92 1_555 1_555
C95 C96 1_555 1_555
C100 C101 1_555 1_555
C101 C102 1_555 1_555
C107 C108 1_555 1_555
C111 C112 1_555 1_555
C113 C114 1_555 1_555
C115 C116 1_555 1_555
C119 C120 1_555 1_555
C124 C125 1_555 1_555
C125 C126 1_555 1_555
C131 C132 1_555 1_555
C135 C136 1_555 1_555
C137 C138 1_555 1_555
C139 C140 1_555 1_555
C143 C144 1_555 1_555

#END
