
#######################################################################
#
#                 Cambridge Crystallographic Data Centre
#                                CCDC 
#
#######################################################################
#
# If this CIF has been generated from an entry in the Cambridge 
# Structural Database, then it will include bibliographic, chemical, 
# crystal, experimental, refinement or atomic coordinate data resulting 
# from the CCDC's data processing and validation procedures.
#
#######################################################################

data_YIYVAF
_chemical_formula_moiety         'C168 H120 N24 Zn4 8+,8(B1 F4 1-)'
_chemical_name_systematic        
'tetrakis(\m~3~-1,3,5-tris(4-(2-Pyridylmethyleneamino)phenyl)benzene)-tetra-zinc octakis(tetrafluoroborate) unknown solvate'
_symmetry_cell_setting           cubic
_symmetry_space_group_name_H-M   'I 2 3'
_symmetry_Int_Tables_number      197
_space_group_name_Hall           'I 2 2 3'
loop_
_symmetry_equiv_pos_site_id
_symmetry_equiv_pos_as_xyz
1 x,y,z
2 -x,-y,z
3 -x,y,-z
4 x,-y,-z
5 z,x,y
6 z,-x,-y
7 -z,-x,y
8 -z,x,-y
9 y,z,x
10 -y,z,-x
11 y,-z,-x
12 -y,-z,x
13 1/2+x,1/2+y,1/2+z
14 1/2-x,1/2-y,1/2+z
15 1/2-x,1/2+y,1/2-z
16 1/2+x,1/2-y,1/2-z
17 1/2+z,1/2+x,1/2+y
18 1/2+z,1/2-x,1/2-y
19 1/2-z,1/2-x,1/2+y
20 1/2-z,1/2+x,1/2-y
21 1/2+y,1/2+z,1/2+x
22 1/2-y,1/2+z,1/2-x
23 1/2+y,1/2-z,1/2-x
24 1/2-y,1/2-z,1/2+x
_cell_length_a                   22.203(9)
_cell_length_b                   22.203(9)
_cell_length_c                   22.203(9)
_cell_angle_alpha                90
_cell_angle_beta                 90
_cell_angle_gamma                90
_cell_volume                     10945.5
_exptl_crystal_colour            'pale yellow'
_exptl_crystal_description       Platelet
_cell_formula_units_Z            2
loop_
_atom_site_label
_atom_site_type_symbol
_atom_site_fract_x
_atom_site_fract_y
_atom_site_fract_z
Zn1 Zn 0.26700(2) 0.26700(2) 0.26700(2)
N1 N 0.29471(12) 0.17962(10) 0.23551(15)
C1 C 0.28619(12) 0.15532(15) 0.17845(13)
H1 H 0.2664 0.1782 0.1482
C2 C 0.30663(14) 0.09754(16) 0.16566(13)
H2 H 0.3008 0.0809 0.1267
C3 C 0.33559(14) 0.06407(11) 0.20993(18)
H3 H 0.3496 0.0246 0.2012
C4 C 0.34411(14) 0.08837(13) 0.26699(16)
H4 H 0.3639 0.0655 0.2973
C5 C 0.32367(14) 0.14615(13) 0.27978(12)
N2 N 0.31088(14) 0.22924(17) 0.34439(14)
C6 C 0.3313(2) 0.1758(2) 0.3364(2)
H5 H 0.3515 0.1558 0.3683
C7 C 0.32523(13) 0.25612(11) 0.40305(10)
C8 C 0.27919(9) 0.27742(12) 0.43975(13)
H6 H 0.2384 0.2724 0.4279
C9 C 0.29288(10) 0.30601(12) 0.49373(12)
H7 H 0.2614 0.3206 0.5188
C10 C 0.35260(12) 0.31329(11) 0.51103(10)
C11 C 0.39864(9) 0.29200(14) 0.47434(13)
H8 H 0.4395 0.2970 0.4862
C12 C 0.38496(11) 0.26341(14) 0.42035(12)
H9 H 0.4164 0.2489 0.3953
C13 C 0.36685(18) 0.35005(19) 0.56529(16)
C14 C 0.41857(16) 0.33274(17) 0.59986(18)
H10 H 0.4416 0.2984 0.5887
N1G N 0.76449(15) 0.29471(12) 0.82038(10)
C1G C 0.82155(13) 0.28619(12) 0.84468(15)
H1G H 0.8518 0.2664 0.8218
C2G C 0.83434(13) 0.30663(14) 0.90246(16)
H2G H 0.8733 0.3008 0.9191
C3G C 0.79007(18) 0.33559(14) 0.93593(11)
H3G H 0.7988 0.3496 0.9754
C4G C 0.73301(16) 0.34411(14) 0.91163(13)
H4G H 0.7027 0.3639 0.9345
C5G C 0.72022(12) 0.32367(14) 0.85385(13)
N2G N 0.65561(14) 0.31088(14) 0.77076(17)
C6G C 0.6636(2) 0.3313(2) 0.8242(2)
H5G H 0.6317 0.3515 0.8442
C7G C 0.59695(10) 0.32523(13) 0.74388(11)
C8G C 0.56025(13) 0.27919(9) 0.72258(12)
H6G H 0.5721 0.2384 0.7276
C9G C 0.50627(12) 0.29288(10) 0.69399(12)
H7G H 0.4812 0.2614 0.6794
C10G C 0.48897(10) 0.35260(12) 0.68671(11)
C11G C 0.52566(13) 0.39864(9) 0.70800(14)
H8G H 0.5138 0.4395 0.7030
C12G C 0.57965(12) 0.38496(11) 0.73659(14)
H9G H 0.6047 0.4164 0.7511
C13G C 0.43471(16) 0.36685(18) 0.64995(19)
C14G C 0.40014(18) 0.41857(16) 0.66726(17)
H10G H 0.4113 0.4416 0.7016
N1J N 0.17962(10) 0.76449(15) 0.70529(12)
C1J C 0.15532(15) 0.82155(13) 0.71381(12)
H1J H 0.1782 0.8518 0.7336
C2J C 0.09754(16) 0.83434(13) 0.69337(14)
H2J H 0.0809 0.8733 0.6992
C3J C 0.06407(11) 0.79007(18) 0.66441(14)
H3J H 0.0246 0.7988 0.6504
C4J C 0.08837(13) 0.73301(16) 0.65589(14)
H4J H 0.0655 0.7027 0.6361
C5J C 0.14615(13) 0.72022(12) 0.67633(14)
N2J N 0.22924(17) 0.65561(14) 0.68912(14)
C6J C 0.1758(2) 0.6636(2) 0.6687(2)
H5J H 0.1558 0.6317 0.6485
C7J C 0.25612(11) 0.59695(10) 0.67477(13)
C8J C 0.27742(12) 0.56025(13) 0.72081(9)
H6J H 0.2724 0.5721 0.7616
C9J C 0.30601(12) 0.50627(12) 0.70712(10)
H7J H 0.3206 0.4812 0.7386
C10J C 0.31329(11) 0.48897(10) 0.64740(12)
C11J C 0.29200(14) 0.52566(13) 0.60136(9)
H8J H 0.2970 0.5138 0.5605
C12J C 0.26341(14) 0.57965(12) 0.61504(11)
H9J H 0.2489 0.6047 0.5836
C13J C 0.35005(19) 0.43471(16) 0.63315(18)
C14J C 0.33274(17) 0.40014(18) 0.58143(16)
H10J H 0.2984 0.4113 0.5584
Zn1B Zn 0.73300(2) 0.26700(2) 0.73300(2)
N1B N 0.70529(12) 0.17962(10) 0.76449(15)
C1B C 0.71381(12) 0.15532(15) 0.82155(13)
H1B H 0.7336 0.1782 0.8518
C2B C 0.69337(14) 0.09754(16) 0.83434(13)
H2B H 0.6992 0.0809 0.8733
C3B C 0.66441(14) 0.06407(11) 0.79007(18)
H3B H 0.6504 0.0246 0.7988
C4B C 0.65589(14) 0.08837(13) 0.73301(16)
H4B H 0.6361 0.0655 0.7027
C5B C 0.67633(14) 0.14615(13) 0.72022(12)
N2B N 0.68912(14) 0.22924(17) 0.65561(14)
C6B C 0.6687(2) 0.1758(2) 0.6636(2)
H5B H 0.6485 0.1558 0.6317
C7B C 0.67477(13) 0.25612(11) 0.59695(10)
C8B C 0.72081(9) 0.27742(12) 0.56025(13)
H6B H 0.7616 0.2724 0.5721
C9B C 0.70712(10) 0.30601(12) 0.50627(12)
H7B H 0.7386 0.3206 0.4812
C10B C 0.64740(12) 0.31329(11) 0.48897(10)
C11B C 0.60136(9) 0.29200(14) 0.52566(13)
H8B H 0.5605 0.2970 0.5138
C12B C 0.61504(11) 0.26341(14) 0.57965(12)
H9B H 0.5836 0.2489 0.6047
C13B C 0.63315(18) 0.35005(19) 0.43471(16)
C14B C 0.58143(16) 0.33274(17) 0.40014(18)
H10B H 0.5584 0.2984 0.4113
N1D N 0.23551(15) 0.29471(12) 0.17962(10)
C1D C 0.17845(13) 0.28619(12) 0.15532(15)
H1D H 0.1482 0.2664 0.1782
C2D C 0.16566(13) 0.30663(14) 0.09754(16)
H2D H 0.1267 0.3008 0.0809
C3D C 0.20993(18) 0.33559(14) 0.06407(11)
H3D H 0.2012 0.3496 0.0246
C4D C 0.26699(16) 0.34411(14) 0.08837(13)
H4D H 0.2973 0.3639 0.0655
C5D C 0.27978(12) 0.32367(14) 0.14615(13)
N2D N 0.34439(14) 0.31088(14) 0.22924(17)
C6D C 0.3364(2) 0.3313(2) 0.1758(2)
H5D H 0.3683 0.3515 0.1558
C7D C 0.40305(10) 0.32523(13) 0.25612(11)
C8D C 0.43975(13) 0.27919(9) 0.27742(12)
H6D H 0.4279 0.2384 0.2724
C9D C 0.49373(12) 0.29288(10) 0.30601(12)
H7D H 0.5188 0.2614 0.3206
C10D C 0.51103(10) 0.35260(12) 0.31329(11)
C11D C 0.47434(13) 0.39864(9) 0.29200(14)
H8D H 0.4862 0.4395 0.2970
C12D C 0.42035(12) 0.38496(11) 0.26341(14)
H9D H 0.3953 0.4164 0.2489
C13D C 0.56529(16) 0.36685(18) 0.35005(19)
C14D C 0.59986(18) 0.41857(16) 0.33274(17)
H10D H 0.5887 0.4416 0.2984
N1K N 0.82038(10) 0.76449(15) 0.29471(12)
C1K C 0.84468(15) 0.82155(13) 0.28619(12)
H1K H 0.8218 0.8518 0.2664
C2K C 0.90246(16) 0.83434(13) 0.30663(14)
H2K H 0.9191 0.8733 0.3008
C3K C 0.93593(11) 0.79007(18) 0.33559(14)
H3K H 0.9754 0.7988 0.3496
C4K C 0.91163(13) 0.73301(16) 0.34411(14)
H4K H 0.9345 0.7027 0.3639
C5K C 0.85385(13) 0.72022(12) 0.32367(14)
N2K N 0.77076(17) 0.65561(14) 0.31088(14)
C6K C 0.8242(2) 0.6636(2) 0.3313(2)
H5K H 0.8442 0.6317 0.3515
C7K C 0.74388(11) 0.59695(10) 0.32523(13)
C8K C 0.72258(12) 0.56025(13) 0.27919(9)
H6K H 0.7276 0.5721 0.2384
C9K C 0.69399(12) 0.50627(12) 0.29288(10)
H7K H 0.6794 0.4812 0.2614
C10K C 0.68671(11) 0.48897(10) 0.35260(12)
C11K C 0.70800(14) 0.52566(13) 0.39864(9)
H8K H 0.7030 0.5138 0.4395
C12K C 0.73659(14) 0.57965(12) 0.38496(11)
H9K H 0.7511 0.6047 0.4164
C13K C 0.64995(19) 0.43471(16) 0.36685(18)
C14K C 0.66726(17) 0.40014(18) 0.41857(16)
H10K H 0.7016 0.4113 0.4416
Zn1C Zn 0.26700(2) 0.73300(2) 0.73300(2)
N1C N 0.29471(12) 0.82038(10) 0.76449(15)
C1C C 0.28619(12) 0.84468(15) 0.82155(13)
H1C H 0.2664 0.8218 0.8518
C2C C 0.30663(14) 0.90246(16) 0.83434(13)
H2C H 0.3008 0.9191 0.8733
C3C C 0.33559(14) 0.93593(11) 0.79007(18)
H3C H 0.3496 0.9754 0.7988
C4C C 0.34411(14) 0.91163(13) 0.73301(16)
H4C H 0.3639 0.9345 0.7027
C5C C 0.32367(14) 0.85385(13) 0.72022(12)
N2C N 0.31088(14) 0.77076(17) 0.65561(14)
C6C C 0.3313(2) 0.8242(2) 0.6636(2)
H5C H 0.3515 0.8442 0.6317
C7C C 0.32523(13) 0.74388(11) 0.59695(10)
C8C C 0.27919(9) 0.72258(12) 0.56025(13)
H6C H 0.2384 0.7276 0.5721
C9C C 0.29288(10) 0.69399(12) 0.50627(12)
H7C H 0.2614 0.6794 0.4812
C10C C 0.35260(12) 0.68671(11) 0.48897(10)
C11C C 0.39864(9) 0.70800(14) 0.52566(13)
H8C H 0.4395 0.7030 0.5138
C12C C 0.38496(11) 0.73659(14) 0.57965(12)
H9C H 0.4164 0.7511 0.6047
C13C C 0.36685(18) 0.64995(19) 0.43471(16)
C14C C 0.41857(16) 0.66726(17) 0.40014(18)
H10C H 0.4416 0.7016 0.4113
N1F N 0.76449(15) 0.70529(12) 0.17962(10)
C1F C 0.82155(13) 0.71381(12) 0.15532(15)
H1F H 0.8518 0.7336 0.1782
C2F C 0.83434(13) 0.69337(14) 0.09754(16)
H2F H 0.8733 0.6992 0.0809
C3F C 0.79007(18) 0.66441(14) 0.06407(11)
H3F H 0.7988 0.6504 0.0246
C4F C 0.73301(16) 0.65589(14) 0.08837(13)
H4F H 0.7027 0.6361 0.0655
C5F C 0.72022(12) 0.67633(14) 0.14615(13)
N2F N 0.65561(14) 0.68912(14) 0.22924(17)
C6F C 0.6636(2) 0.6687(2) 0.1758(2)
H5F H 0.6317 0.6485 0.1558
C7F C 0.59695(10) 0.67477(13) 0.25612(11)
C8F C 0.56025(13) 0.72081(9) 0.27742(12)
H6F H 0.5721 0.7616 0.2724
C9F C 0.50627(12) 0.70712(10) 0.30601(12)
H7F H 0.4812 0.7386 0.3206
C10F C 0.48897(10) 0.64740(12) 0.31329(11)
C11F C 0.52566(13) 0.60136(9) 0.29200(14)
H8F H 0.5138 0.5605 0.2970
C12F C 0.57965(12) 0.61504(11) 0.26341(14)
H9F H 0.6047 0.5836 0.2489
C13F C 0.43471(16) 0.63315(18) 0.35005(19)
C14F C 0.40014(18) 0.58143(16) 0.33274(17)
H10F H 0.4113 0.5584 0.2984
N1H N 0.17962(10) 0.23551(15) 0.29471(12)
C1H C 0.15532(15) 0.17845(13) 0.28619(12)
H1H H 0.1782 0.1482 0.2664
C2H C 0.09754(16) 0.16566(13) 0.30663(14)
H2H H 0.0809 0.1267 0.3008
C3H C 0.06407(11) 0.20993(18) 0.33559(14)
H3H H 0.0246 0.2012 0.3496
C4H C 0.08837(13) 0.26699(16) 0.34411(14)
H4H H 0.0655 0.2973 0.3639
C5H C 0.14615(13) 0.27978(12) 0.32367(14)
N2H N 0.22924(17) 0.34439(14) 0.31088(14)
C6H C 0.1758(2) 0.3364(2) 0.3313(2)
H5H H 0.1558 0.3683 0.3515
C7H C 0.25612(11) 0.40305(10) 0.32523(13)
C8H C 0.27742(12) 0.43975(13) 0.27919(9)
H6H H 0.2724 0.4279 0.2384
C9H C 0.30601(12) 0.49373(12) 0.29288(10)
H7H H 0.3206 0.5188 0.2614
C10H C 0.31329(11) 0.51103(10) 0.35260(12)
C11H C 0.29200(14) 0.47434(13) 0.39864(9)
H8H H 0.2970 0.4862 0.4395
C12H C 0.26341(14) 0.42035(12) 0.38496(11)
H9H H 0.2489 0.3953 0.4164
C13H C 0.35005(19) 0.56529(16) 0.36685(18)
C14H C 0.33274(17) 0.59986(18) 0.41857(16)
H10H H 0.2984 0.5887 0.4416
N1E N 0.23551(15) 0.70529(12) 0.82038(10)
C1E C 0.17845(13) 0.71381(12) 0.84468(15)
H1E H 0.1482 0.7336 0.8218
C2E C 0.16566(13) 0.69337(14) 0.90246(16)
H2E H 0.1267 0.6992 0.9191
C3E C 0.20993(18) 0.66441(14) 0.93593(11)
H3E H 0.2012 0.6504 0.9754
C4E C 0.26699(16) 0.65589(14) 0.91163(13)
H4E H 0.2973 0.6361 0.9345
C5E C 0.27978(12) 0.67633(14) 0.85385(13)
N2E N 0.34439(14) 0.68912(14) 0.77076(17)
C6E C 0.3364(2) 0.6687(2) 0.8242(2)
H5E H 0.3683 0.6485 0.8442
C7E C 0.40305(10) 0.67477(13) 0.74388(11)
C8E C 0.43975(13) 0.72081(9) 0.72258(12)
H6E H 0.4279 0.7616 0.7276
C9E C 0.49373(12) 0.70712(10) 0.69399(12)
H7E H 0.5188 0.7386 0.6794
C10E C 0.51103(10) 0.64740(12) 0.68671(11)
C11E C 0.47434(13) 0.60136(9) 0.70800(14)
H8E H 0.4862 0.5605 0.7030
C12E C 0.42035(12) 0.61504(11) 0.73659(14)
H9E H 0.3953 0.5836 0.7511
C13E C 0.56529(16) 0.63315(18) 0.64995(19)
C14E C 0.59986(18) 0.58143(16) 0.66726(17)
H10E H 0.5887 0.5584 0.7016
N1I N 0.82038(10) 0.23551(15) 0.70529(12)
C1I C 0.84468(15) 0.17845(13) 0.71381(12)
H1I H 0.8218 0.1482 0.7336
C2I C 0.90246(16) 0.16566(13) 0.69337(14)
H2I H 0.9191 0.1267 0.6992
C3I C 0.93593(11) 0.20993(18) 0.66441(14)
H3I H 0.9754 0.2012 0.6504
C4I C 0.91163(13) 0.26699(16) 0.65589(14)
H4I H 0.9345 0.2973 0.6361
C5I C 0.85385(13) 0.27978(12) 0.67633(14)
N2I N 0.77076(17) 0.34439(14) 0.68912(14)
C6I C 0.8242(2) 0.3364(2) 0.6687(2)
H5I H 0.8442 0.3683 0.6485
C7I C 0.74388(11) 0.40305(10) 0.67477(13)
C8I C 0.72258(12) 0.43975(13) 0.72081(9)
H6I H 0.7276 0.4279 0.7616
C9I C 0.69399(12) 0.49373(12) 0.70712(10)
H7I H 0.6794 0.5188 0.7386
C10I C 0.68671(11) 0.51103(10) 0.64740(12)
C11I C 0.70800(14) 0.47434(13) 0.60136(9)
H8I H 0.7030 0.4862 0.5605
C12I C 0.73659(14) 0.42035(12) 0.61504(11)
H9I H 0.7511 0.3953 0.5836
C13I C 0.64995(19) 0.56529(16) 0.63315(18)
C14I C 0.66726(17) 0.59986(18) 0.58143(16)
H10I H 0.7016 0.5887 0.5584
N1A N 0.70529(12) 0.82038(10) 0.23551(15)
C1A C 0.71381(12) 0.84468(15) 0.17845(13)
H1A H 0.7336 0.8218 0.1482
C2A C 0.69337(14) 0.90246(16) 0.16566(13)
H2A H 0.6992 0.9191 0.1267
C3A C 0.66441(14) 0.93593(11) 0.20993(18)
H3A H 0.6504 0.9754 0.2012
C4A C 0.65589(14) 0.91163(13) 0.26699(16)
H4A H 0.6361 0.9345 0.2973
C5A C 0.67633(14) 0.85385(13) 0.27978(12)
N2A N 0.68912(14) 0.77076(17) 0.34439(14)
C6A C 0.6687(2) 0.8242(2) 0.3364(2)
H5A H 0.6485 0.8442 0.3683
C7A C 0.67477(13) 0.74388(11) 0.40305(10)
C8A C 0.72081(9) 0.72258(12) 0.43975(13)
H6A H 0.7616 0.7276 0.4279
C9A C 0.70712(10) 0.69399(12) 0.49373(12)
H7A H 0.7386 0.6794 0.5188
C10A C 0.64740(12) 0.68671(11) 0.51103(10)
C11A C 0.60136(9) 0.70800(14) 0.47434(13)
H8A H 0.5605 0.7030 0.4862
C12A C 0.61504(11) 0.73659(14) 0.42035(12)
H9A H 0.5836 0.7511 0.3953
C13A C 0.63315(18) 0.64995(19) 0.56529(16)
C14A C 0.58143(16) 0.66726(17) 0.59986(18)
H10A H 0.5584 0.7016 0.5887
Zn1A Zn 0.73300(2) 0.73300(2) 0.26700(2)
loop_
_geom_bond_atom_site_label_1
_geom_bond_atom_site_label_2
_geom_bond_site_symmetry_1
_geom_bond_site_symmetry_2
Zn1 N1 1_555 1_555
N1 C1 1_555 1_555
C1 H1 1_555 1_555
C2 C1 1_555 1_555
H2 C2 1_555 1_555
C3 C2 1_555 1_555
H3 C3 1_555 1_555
C4 C3 1_555 1_555
H4 C4 1_555 1_555
C5 N1 1_555 1_555
N2 Zn1 1_555 1_555
C6 C5 1_555 1_555
H5 C6 1_555 1_555
C7 N2 1_555 1_555
C8 C7 1_555 1_555
H6 C8 1_555 1_555
C9 C8 1_555 1_555
H7 C9 1_555 1_555
C10 C9 1_555 1_555
C11 C10 1_555 1_555
H8 C11 1_555 1_555
C12 C7 1_555 1_555
H9 C12 1_555 1_555
C13 C10 1_555 1_555
C14 C13 1_555 1_555
H10 C14 1_555 1_555
N1G C1G 1_555 1_555
C1G H1G 1_555 1_555
C2G C1G 1_555 1_555
H2G C2G 1_555 1_555
C3G C2G 1_555 1_555
H3G C3G 1_555 1_555
C4G C3G 1_555 1_555
H4G C4G 1_555 1_555
C5G N1G 1_555 1_555
N2G C6G 1_555 1_555
C6G C5G 1_555 1_555
H5G C6G 1_555 1_555
C7G N2G 1_555 1_555
C8G C7G 1_555 1_555
H6G C8G 1_555 1_555
C9G C8G 1_555 1_555
H7G C9G 1_555 1_555
C10G C9G 1_555 1_555
C11G C10G 1_555 1_555
H8G C11G 1_555 1_555
C12G C7G 1_555 1_555
H9G C12G 1_555 1_555
C13G C14 1_555 1_555
C14G C13G 1_555 1_555
H10G C14G 1_555 1_555
N1J C1J 1_555 1_555
C1J H1J 1_555 1_555
C2J C1J 1_555 1_555
H2J C2J 1_555 1_555
C3J C2J 1_555 1_555
H3J C3J 1_555 1_555
C4J C3J 1_555 1_555
H4J C4J 1_555 1_555
C5J N1J 1_555 1_555
N2J C6J 1_555 1_555
C6J C5J 1_555 1_555
H5J C6J 1_555 1_555
C7J N2J 1_555 1_555
C8J C7J 1_555 1_555
H6J C8J 1_555 1_555
C9J C8J 1_555 1_555
H7J C9J 1_555 1_555
C10J C9J 1_555 1_555
C11J C10J 1_555 1_555
H8J C11J 1_555 1_555
C12J C7J 1_555 1_555
H9J C12J 1_555 1_555
C13J C14G 1_555 1_555
C14J C13 1_555 1_555
H10J C14J 1_555 1_555
Zn1B N1G 1_555 1_555
N1B Zn1B 1_555 1_555
C1B N1B 1_555 1_555
H1B C1B 1_555 1_555
C2B C1B 1_555 1_555
H2B C2B 1_555 1_555
C3B C2B 1_555 1_555
H3B C3B 1_555 1_555
C4B C3B 1_555 1_555
H4B C4B 1_555 1_555
C5B N1B 1_555 1_555
N2B Zn1B 1_555 1_555
C6B C5B 1_555 1_555
H5B C6B 1_555 1_555
C7B N2B 1_555 1_555
C8B C7B 1_555 1_555
H6B C8B 1_555 1_555
C9B C8B 1_555 1_555
H7B C9B 1_555 1_555
C10B C9B 1_555 1_555
C11B C10B 1_555 1_555
H8B C11B 1_555 1_555
C12B C7B 1_555 1_555
H9B C12B 1_555 1_555
C13B C10B 1_555 1_555
C14B C13B 1_555 1_555
H10B C14B 1_555 1_555
N1D Zn1 1_555 1_555
C1D N1D 1_555 1_555
H1D C1D 1_555 1_555
C2D C1D 1_555 1_555
H2D C2D 1_555 1_555
C3D C2D 1_555 1_555
H3D C3D 1_555 1_555
C4D C3D 1_555 1_555
H4D C4D 1_555 1_555
C5D N1D 1_555 1_555
N2D Zn1 1_555 1_555
C6D C5D 1_555 1_555
H5D C6D 1_555 1_555
C7D N2D 1_555 1_555
C8D C7D 1_555 1_555
H6D C8D 1_555 1_555
C9D C8D 1_555 1_555
H7D C9D 1_555 1_555
C10D C9D 1_555 1_555
C11D C10D 1_555 1_555
H8D C11D 1_555 1_555
C12D C7D 1_555 1_555
H9D C12D 1_555 1_555
C13D C14B 1_555 1_555
C14D C13D 1_555 1_555
H10D C14D 1_555 1_555
N1K C1K 1_555 1_555
C1K H1K 1_555 1_555
C2K C1K 1_555 1_555
H2K C2K 1_555 1_555
C3K C2K 1_555 1_555
H3K C3K 1_555 1_555
C4K C3K 1_555 1_555
H4K C4K 1_555 1_555
C5K N1K 1_555 1_555
N2K C6K 1_555 1_555
C6K C5K 1_555 1_555
H5K C6K 1_555 1_555
C7K N2K 1_555 1_555
C8K C7K 1_555 1_555
H6K C8K 1_555 1_555
C9K C8K 1_555 1_555
H7K C9K 1_555 1_555
C10K C9K 1_555 1_555
C11K C10K 1_555 1_555
H8K C11K 1_555 1_555
C12K C7K 1_555 1_555
H9K C12K 1_555 1_555
C13K C14D 1_555 1_555
C14K C13B 1_555 1_555
H10K C14K 1_555 1_555
Zn1C N1J 1_555 1_555
N1C Zn1C 1_555 1_555
C1C N1C 1_555 1_555
H1C C1C 1_555 1_555
C2C C1C 1_555 1_555
H2C C2C 1_555 1_555
C3C C2C 1_555 1_555
H3C C3C 1_555 1_555
C4C C3C 1_555 1_555
H4C C4C 1_555 1_555
C5C N1C 1_555 1_555
N2C Zn1C 1_555 1_555
C6C C5C 1_555 1_555
H5C C6C 1_555 1_555
C7C N2C 1_555 1_555
C8C C7C 1_555 1_555
H6C C8C 1_555 1_555
C9C C8C 1_555 1_555
H7C C9C 1_555 1_555
C10C C9C 1_555 1_555
C11C C10C 1_555 1_555
H8C C11C 1_555 1_555
C12C C7C 1_555 1_555
H9C C12C 1_555 1_555
C13C C10C 1_555 1_555
C14C C13C 1_555 1_555
H10C C14C 1_555 1_555
N1F C1F 1_555 1_555
C1F H1F 1_555 1_555
C2F C1F 1_555 1_555
H2F C2F 1_555 1_555
C3F C2F 1_555 1_555
H3F C3F 1_555 1_555
C4F C3F 1_555 1_555
H4F C4F 1_555 1_555
C5F N1F 1_555 1_555
N2F C6F 1_555 1_555
C6F C5F 1_555 1_555
H5F C6F 1_555 1_555
C7F N2F 1_555 1_555
C8F C7F 1_555 1_555
H6F C8F 1_555 1_555
C9F C8F 1_555 1_555
H7F C9F 1_555 1_555
C10F C9F 1_555 1_555
C11F C10F 1_555 1_555
H8F C11F 1_555 1_555
C12F C7F 1_555 1_555
H9F C12F 1_555 1_555
C13F C14C 1_555 1_555
C14F C13F 1_555 1_555
H10F C14F 1_555 1_555
N1H Zn1 1_555 1_555
C1H N1H 1_555 1_555
H1H C1H 1_555 1_555
C2H C1H 1_555 1_555
H2H C2H 1_555 1_555
C3H C2H 1_555 1_555
H3H C3H 1_555 1_555
C4H C3H 1_555 1_555
H4H C4H 1_555 1_555
C5H N1H 1_555 1_555
N2H Zn1 1_555 1_555
C6H C5H 1_555 1_555
H5H C6H 1_555 1_555
C7H N2H 1_555 1_555
C8H C7H 1_555 1_555
H6H C8H 1_555 1_555
C9H C8H 1_555 1_555
H7H C9H 1_555 1_555
C10H C9H 1_555 1_555
C11H C10H 1_555 1_555
H8H C11H 1_555 1_555
C12H C7H 1_555 1_555
H9H C12H 1_555 1_555
C13H C14F 1_555 1_555
C14H C13C 1_555 1_555
H10H C14H 1_555 1_555
N1E Zn1C 1_555 1_555
C1E N1E 1_555 1_555
H1E C1E 1_555 1_555
C2E C1E 1_555 1_555
H2E C2E 1_555 1_555
C3E C2E 1_555 1_555
H3E C3E 1_555 1_555
C4E C3E 1_555 1_555
H4E C4E 1_555 1_555
C5E N1E 1_555 1_555
N2E Zn1C 1_555 1_555
C6E C5E 1_555 1_555
H5E C6E 1_555 1_555
C7E N2E 1_555 1_555
C8E C7E 1_555 1_555
H6E C8E 1_555 1_555
C9E C8E 1_555 1_555
H7E C9E 1_555 1_555
C10E C9E 1_555 1_555
C11E C10E 1_555 1_555
H8E C11E 1_555 1_555
C12E C7E 1_555 1_555
H9E C12E 1_555 1_555
C13E C10E 1_555 1_555
C14E C13E 1_555 1_555
H10E C14E 1_555 1_555
N1I Zn1B 1_555 1_555
C1I N1I 1_555 1_555
H1I C1I 1_555 1_555
C2I C1I 1_555 1_555
H2I C2I 1_555 1_555
C3I C2I 1_555 1_555
H3I C3I 1_555 1_555
C4I C3I 1_555 1_555
H4I C4I 1_555 1_555
C5I N1I 1_555 1_555
N2I Zn1B 1_555 1_555
C6I C5I 1_555 1_555
H5I C6I 1_555 1_555
C7I N2I 1_555 1_555
C8I C7I 1_555 1_555
H6I C8I 1_555 1_555
C9I C8I 1_555 1_555
H7I C9I 1_555 1_555
C10I C9I 1_555 1_555
C11I C10I 1_555 1_555
H8I C11I 1_555 1_555
C12I C7I 1_555 1_555
H9I C12I 1_555 1_555
C13I C14E 1_555 1_555
C14I C13I 1_555 1_555
H10I C14I 1_555 1_555
N1A C1A 1_555 1_555
C1A H1A 1_555 1_555
C2A C1A 1_555 1_555
H2A C2A 1_555 1_555
C3A C2A 1_555 1_555
H3A C3A 1_555 1_555
C4A C3A 1_555 1_555
H4A C4A 1_555 1_555
C5A N1A 1_555 1_555
N2A C6A 1_555 1_555
C6A C5A 1_555 1_555
H5A C6A 1_555 1_555
C7A N2A 1_555 1_555
C8A C7A 1_555 1_555
H6A C8A 1_555 1_555
C9A C8A 1_555 1_555
H7A C9A 1_555 1_555
C10A C9A 1_555 1_555
C11A C10A 1_555 1_555
H8A C11A 1_555 1_555
C12A C7A 1_555 1_555
H9A C12A 1_555 1_555
C13A C14I 1_555 1_555
C14A C13E 1_555 1_555
H10A C14A 1_555 1_555
Zn1A N1K 1_555 1_555
C4 C5 1_555 1_555
N2 C6 1_555 1_555
C11 C12 1_555 1_555
C4G C5G 1_555 1_555
N2G Zn1B 1_555 1_555
C10G C13G 1_555 1_555
C11G C12G 1_555 1_555
C4J C5J 1_555 1_555
N2J Zn1C 1_555 1_555
C10J C13J 1_555 1_555
C11J C12J 1_555 1_555
C13J C14J 1_555 1_555
C4B C5B 1_555 1_555
N2B C6B 1_555 1_555
C11B C12B 1_555 1_555
C4D C5D 1_555 1_555
N2D C6D 1_555 1_555
C10D C13D 1_555 1_555
C11D C12D 1_555 1_555
C4K C5K 1_555 1_555
N2K Zn1A 1_555 1_555
C10K C13K 1_555 1_555
C11K C12K 1_555 1_555
C13K C14K 1_555 1_555
C4C C5C 1_555 1_555
N2C C6C 1_555 1_555
C11C C12C 1_555 1_555
N1F Zn1A 1_555 1_555
C4F C5F 1_555 1_555
N2F Zn1A 1_555 1_555
C10F C13F 1_555 1_555
C11F C12F 1_555 1_555
C4H C5H 1_555 1_555
N2H C6H 1_555 1_555
C10H C13H 1_555 1_555
C11H C12H 1_555 1_555
C13H C14H 1_555 1_555
C4E C5E 1_555 1_555
N2E C6E 1_555 1_555
C11E C12E 1_555 1_555
C4I C5I 1_555 1_555
N2I C6I 1_555 1_555
C10I C13I 1_555 1_555
C11I C12I 1_555 1_555
N1A Zn1A 1_555 1_555
C4A C5A 1_555 1_555
N2A Zn1A 1_555 1_555
C10A C13A 1_555 1_555
C11A C12A 1_555 1_555
C13A C14A 1_555 1_555

#END
