
#######################################################################
#
#                 Cambridge Crystallographic Data Centre
#                                CCDC 
#
#######################################################################
#
# If this CIF has been generated from an entry in the Cambridge 
# Structural Database, then it will include bibliographic, chemical, 
# crystal, experimental, refinement or atomic coordinate data resulting 
# from the CCDC's data processing and validation procedures.
#
#######################################################################

data_YIYVEJ
_chemical_formula_moiety         
'C148 H112 N24 O4 Zn4 8+,4(C2 F6 N1 O4 S2 1-),4(F6 P1 1-)'
_chemical_name_systematic        
'tetrakis(\m~3~-tris(4-((Pyridin-2-ylmethylene)amino)phenyl)methanol)-tetra-zinc tetrakis(bis(trifluoromethanesulfonyl)amide) tetrakis(hexafluorophosphate) unknown solvate'
_symmetry_cell_setting           monoclinic
_symmetry_space_group_name_H-M   'C 2/c'
_symmetry_Int_Tables_number      15
_space_group_name_Hall           '-C 2yn'
loop_
_symmetry_equiv_pos_site_id
_symmetry_equiv_pos_as_xyz
1 x,y,z
2 -x,y,1/2-z
3 1/2+x,1/2+y,z
4 1/2-x,1/2+y,1/2-z
5 -x,-y,-z
6 x,-y,1/2+z
7 1/2-x,1/2-y,-z
8 1/2+x,1/2-y,1/2+z
_cell_length_a                   29.2058(4)
_cell_length_b                   46.2411(6)
_cell_length_c                   19.9583(2)
_cell_angle_alpha                90
_cell_angle_beta                 127.3200(10)
_cell_angle_gamma                90
_cell_volume                     21435.4
_exptl_crystal_colour            'light pink'
_exptl_crystal_description       block
_cell_formula_units_Z            4
loop_
_atom_site_label
_atom_site_type_symbol
_atom_site_fract_x
_atom_site_fract_y
_atom_site_fract_z
Zn1 Zn 0.62801(5) 0.24678(3) 0.09823(8)
Zn2 Zn 0.72241(5) 0.43021(3) 0.60623(9)
N1 N 0.6075(3) 0.22982(17) 0.1786(4)
N2 N 0.7478(3) 0.39275(16) 0.5698(4)
N3 N 0.7156(3) 0.2324(2) 0.1782(5)
N4 N 0.6740(4) 0.28461(19) 0.1759(5)
N5 N 0.3453(4) 0.40924(18) -0.1025(8)
N6 N 0.2346(3) 0.41629(18) -0.2329(5)
N7 N 0.6647(3) 0.4469(2) 0.4805(7)
N8 N 0.5931(5) 0.2027(2) 0.0539(8)
C1 C 0.5890(5) 0.1895(2) -0.0121(8)
H1 H 0.6088 0.1975 -0.0319
C2 C 0.5560(6) 0.1647(2) -0.0490(7)
H2 H 0.5532 0.1556 -0.0941
C3 C 0.5271(6) 0.1530(2) -0.0200(8)
H3 H 0.5045 0.1360 -0.0452
C4 C 0.5312(7) 0.1662(3) 0.0460(8)
H4 H 0.5114 0.1583 0.0659
C5 C 0.5642(6) 0.1911(3) 0.0830(7)
C6 C 0.5752(9) 0.2064(4) 0.1535(15)
H5 H 0.5597 0.2000 0.1812
C7 C 0.6171(4) 0.24328(19) 0.2518(7)
C8 C 0.5705(5) 0.2534(3) 0.2480(7)
H6 H 0.5325 0.2523 0.1968
C9 C 0.5803(5) 0.2647(2) 0.3187(8)
H7 H 0.5486 0.2712 0.3166
C10 C 0.6353(4) 0.26688(17) 0.3934(6)
C11 C 0.6779(4) 0.2577(2) 0.3918(7)
H8 H 0.7163 0.2601 0.4413
C12 C 0.6697(4) 0.2452(3) 0.3237(7)
H9 H 0.7016 0.2378 0.3276
C13 C 0.6475(3) 0.27855(19) 0.4764(5)
C14 C 0.5945(3) 0.2763(2) 0.4747(5)
C15 C 0.5619(4) 0.2998(2) 0.4639(6)
H10 H 0.5702 0.3182 0.4521
C16 C 0.5170(4) 0.2973(2) 0.4698(7)
H11 H 0.4965 0.3140 0.4654
C17 C 0.5021(4) 0.2707(2) 0.4820(5)
C18 C 0.5329(4) 0.2465(2) 0.4894(5)
H12 H 0.5226 0.2278 0.4962
C19 C 0.5784(4) 0.2499(2) 0.4867(5)
H13 H 0.5999 0.2333 0.4933
C20 C 0.4625(4) 0.2791(2) 0.5503(7)
H14 H 0.4973 0.2890 0.5912
C21 C 0.6713(3) 0.30881(19) 0.4966(6)
C22 C 0.7062(5) 0.3182(3) 0.5805(7)
H15 H 0.7131 0.3057 0.6234
C23 C 0.7306(5) 0.3451(3) 0.6014(7)
H16 H 0.7551 0.3503 0.6593
C24 C 0.7220(4) 0.3645(2) 0.5455(7)
C25 C 0.6852(5) 0.3562(3) 0.4626(8)
H17 H 0.6762 0.3695 0.4197
C26 C 0.6606(4) 0.3284(3) 0.4401(7)
H18 H 0.6354 0.3234 0.3821
C27 C 0.7926(5) 0.3973(2) 0.5768(7)
H19 H 0.8074 0.3821 0.5628
N9 N 0.7979(2) 0.44481(16) 0.6239(4)
C28 C 0.8221(3) 0.42378(13) 0.6045(5)
C29 C 0.8721(4) 0.42978(19) 0.6132(6)
H20 H 0.8887 0.4154 0.5999
C30 C 0.8979(3) 0.4568(2) 0.6414(6)
H21 H 0.9321 0.4609 0.6474
C31 C 0.8736(3) 0.47784(15) 0.6609(5)
H22 H 0.8912 0.4963 0.6802
C32 C 0.8236(3) 0.47184(14) 0.6522(4)
H23 H 0.8070 0.4862 0.6655
C33 C 0.7386(5) 0.2067(3) 0.1798(7)
H24 H 0.7134 0.1925 0.1398
C34 C 0.7960(5) 0.2001(3) 0.2356(7)
H25 H 0.8099 0.1817 0.2344
C35 C 0.8328(4) 0.2206(3) 0.2931(7)
H26 H 0.8728 0.2166 0.3323
C36 C 0.8115(5) 0.2470(3) 0.2936(6)
H27 H 0.8360 0.2614 0.3338
C37 C 0.7532(5) 0.2520(3) 0.2340(7)
C38 C 0.7275(5) 0.2797(2) 0.2289(7)
H28 H 0.7518 0.2947 0.2667
C39 C 0.6523(4) 0.3121(3) 0.1753(7)
C40 C 0.6280(6) 0.3291(3) 0.1075(9)
H29 H 0.6254 0.3221 0.0604
C41 C 0.6065(6) 0.3565(3) 0.1026(8)
H30 H 0.5891 0.3673 0.0520
C42 C 0.6095(4) 0.3682(2) 0.1660(8)
C43 C 0.6275(6) 0.3492(3) 0.2310(9)
H31 H 0.6247 0.3549 0.2741
C44 C 0.6493(6) 0.3220(3) 0.2357(9)
H32 H 0.6626 0.3101 0.2830
C45 C 0.5902(4) 0.3993(2) 0.1641(8)
C46 C 0.6082(5) 0.4102(2) 0.2465(8)
C47 C 0.6644(5) 0.4196(2) 0.3068(9)
H33 H 0.6912 0.4178 0.2948
C48 C 0.6828(5) 0.4311(2) 0.3817(9)
H34 H 0.7216 0.4372 0.4204
C49 C 0.6458(5) 0.4341(2) 0.4027(8)
C50 C 0.5897(6) 0.4251(2) 0.3455(10)
H35 H 0.5631 0.4275 0.3575
C51 C 0.5722(4) 0.4126(3) 0.2710(9)
H36 H 0.5342 0.4052 0.2344
C52 C 0.6443(5) 0.4702(3) 0.4773(8)
H37 H 0.6171 0.4790 0.4239
N10 N 0.7003(3) 0.47063(14) 0.6267(5)
C53 C 0.6599(4) 0.4848(2) 0.5514(4)
C54 C 0.6363(4) 0.5108(2) 0.5520(6)
H38 H 0.6087 0.5205 0.5006
C55 C 0.6532(5) 0.52265(17) 0.6280(8)
H39 H 0.6370 0.5404 0.6284
C56 C 0.6936(5) 0.5085(2) 0.7032(6)
H40 H 0.7051 0.5165 0.7551
C57 C 0.7172(3) 0.48244(19) 0.7026(4)
H41 H 0.7448 0.4727 0.7541
C58 C 0.5244(4) 0.4014(2) 0.0954(6)
C59 C 0.4879(5) 0.3806(3) 0.0807(8)
H42 H 0.5023 0.3640 0.1160
C60 C 0.4276(5) 0.3824(3) 0.0131(8)
H43 H 0.4026 0.3668 0.0015
C61 C 0.4069(4) 0.4066(3) -0.0336(6)
C62 C 0.4427(5) 0.4295(2) -0.0158(7)
H44 H 0.4281 0.4471 -0.0464
C63 C 0.5010(5) 0.4258(2) 0.0488(7)
H45 H 0.5262 0.4414 0.0611
C64 C 0.3294(5) 0.4007(3) -0.1715(10)
H46 H 0.3573 0.3927 -0.1763
C65 C 0.2676(6) 0.4023(3) -0.2496(10)
C66 C 0.2476(6) 0.3896(3) -0.3245(11)
H47 H 0.2724 0.3783 -0.3298
C67 C 0.1905(7) 0.3937(3) -0.3930(10)
H48 H 0.1760 0.3872 -0.4478
C68 C 0.1546(6) 0.4079(3) -0.3778(8)
H49 H 0.1144 0.4097 -0.4214
C69 C 0.1793(5) 0.4194(2) -0.2972(7)
H50 H 0.1553 0.4298 -0.2884
O1 O 0.6932(2) 0.26125(11) 0.5445(3)
H51 H 0.6824 0.2440 0.5376
O2 O 0.6172(2) 0.41743(12) 0.1384(4)
H52 H 0.6531 0.4163 0.1741
N11 N 0.4567(3) 0.26731(16) 0.4869(5)
N12 N 0.3709(3) 0.26222(14) 0.4997(4)
C70 C 0.4198(2) 0.27783(15) 0.5606(4)
C71 C 0.4225(3) 0.29175(16) 0.6247(4)
H53 H 0.4559 0.3024 0.6662
C72 C 0.3764(4) 0.29007(18) 0.6279(5)
H54 H 0.3783 0.2996 0.6717
C73 C 0.3275(3) 0.27446(19) 0.5671(5)
H55 H 0.2959 0.2733 0.5693
C74 C 0.3247(2) 0.26054(16) 0.5030(4)
H56 H 0.2913 0.2499 0.4614
Zn1A Zn 0.37199(5) 0.24678(3) 0.40177(8)
Zn2A Zn 0.27759(5) 0.43021(3) -0.10623(9)
N1A N 0.3925(3) 0.22982(17) 0.3214(4)
N2A N 0.2522(3) 0.39275(16) -0.0698(4)
N3A N 0.2844(3) 0.2324(2) 0.3218(5)
N4A N 0.3260(4) 0.28461(19) 0.3241(5)
N5A N 0.6547(4) 0.40924(18) 0.6025(8)
N6A N 0.7654(3) 0.41629(18) 0.7329(5)
N7A N 0.3353(3) 0.4469(2) 0.0195(7)
N8A N 0.4069(5) 0.2027(2) 0.4461(8)
C1A C 0.4110(5) 0.1895(2) 0.5121(8)
H1A H 0.3912 0.1975 0.5319
C2A C 0.4440(6) 0.1647(2) 0.5490(7)
H2A H 0.4468 0.1556 0.5941
C3A C 0.4729(6) 0.1530(2) 0.5200(8)
H3A H 0.4955 0.1360 0.5452
C4A C 0.4688(7) 0.1662(3) 0.4540(8)
H4A H 0.4886 0.1583 0.4341
C5A C 0.4358(6) 0.1911(3) 0.4170(7)
C6A C 0.4248(9) 0.2064(4) 0.3465(15)
H5A H 0.4403 0.2000 0.3188
C7A C 0.3829(4) 0.24328(19) 0.2482(7)
C8A C 0.4295(5) 0.2534(3) 0.2520(7)
H6A H 0.4675 0.2523 0.3032
C9A C 0.4197(5) 0.2647(2) 0.1813(8)
H7A H 0.4514 0.2712 0.1834
C10A C 0.3647(4) 0.26688(17) 0.1066(6)
C11A C 0.3221(4) 0.2577(2) 0.1082(7)
H8A H 0.2837 0.2601 0.0587
C12A C 0.3303(4) 0.2452(3) 0.1763(7)
H9A H 0.2984 0.2378 0.1724
C13A C 0.3525(3) 0.27855(19) 0.0236(5)
C14A C 0.4055(3) 0.2763(2) 0.0253(5)
C15A C 0.4381(4) 0.2998(2) 0.0361(6)
H10A H 0.4298 0.3182 0.0479
C16A C 0.4830(4) 0.2973(2) 0.0302(7)
H11A H 0.5035 0.3140 0.0346
C17A C 0.4979(4) 0.2707(2) 0.0180(5)
C18A C 0.4671(4) 0.2465(2) 0.0106(5)
H12A H 0.4774 0.2278 0.0038
C19A C 0.4216(4) 0.2499(2) 0.0133(5)
H13A H 0.4001 0.2333 0.0067
C20A C 0.5375(4) 0.2791(2) -0.0503(7)
H14A H 0.5027 0.2890 -0.0912
C21A C 0.3287(3) 0.30881(19) 0.0034(6)
C22A C 0.2938(5) 0.3182(3) -0.0805(7)
H15A H 0.2869 0.3057 -0.1234
C23A C 0.2694(5) 0.3451(3) -0.1014(7)
H16A H 0.2449 0.3503 -0.1593
C24A C 0.2780(4) 0.3645(2) -0.0455(7)
C25A C 0.3148(5) 0.3562(3) 0.0374(8)
H17A H 0.3238 0.3695 0.0803
C26A C 0.3394(4) 0.3284(3) 0.0599(7)
H18A H 0.3646 0.3234 0.1179
C27A C 0.2074(5) 0.3973(2) -0.0768(7)
H19A H 0.1926 0.3821 -0.0628
N9A N 0.2021(2) 0.44481(16) -0.1239(4)
C28A C 0.1779(3) 0.42378(13) -0.1045(5)
C29A C 0.1279(4) 0.42978(19) -0.1132(6)
H20A H 0.1113 0.4154 -0.0999
C30A C 0.1021(3) 0.4568(2) -0.1414(6)
H21A H 0.0679 0.4609 -0.1474
C31A C 0.1264(3) 0.47784(15) -0.1609(5)
H22A H 0.1088 0.4963 -0.1802
C32A C 0.1764(3) 0.47184(14) -0.1522(4)
H23A H 0.1930 0.4862 -0.1655
C33A C 0.2614(5) 0.2067(3) 0.3202(7)
H24A H 0.2866 0.1925 0.3602
C34A C 0.2040(5) 0.2001(3) 0.2644(7)
H25A H 0.1901 0.1817 0.2656
C35A C 0.1672(4) 0.2206(3) 0.2069(7)
H26A H 0.1272 0.2166 0.1677
C36A C 0.1885(5) 0.2470(3) 0.2064(6)
H27A H 0.1640 0.2614 0.1662
C37A C 0.2468(5) 0.2520(3) 0.2660(7)
C38A C 0.2725(5) 0.2797(2) 0.2711(7)
H28A H 0.2482 0.2947 0.2333
C39A C 0.3477(4) 0.3121(3) 0.3247(7)
C40A C 0.3720(6) 0.3291(3) 0.3925(9)
H29A H 0.3746 0.3221 0.4396
C41A C 0.3935(6) 0.3565(3) 0.3974(8)
H30A H 0.4109 0.3673 0.4480
C42A C 0.3905(4) 0.3682(2) 0.3340(8)
C43A C 0.3725(6) 0.3492(3) 0.2690(9)
H31A H 0.3753 0.3549 0.2259
C44A C 0.3507(6) 0.3220(3) 0.2643(9)
H32A H 0.3374 0.3101 0.2170
C45A C 0.4098(4) 0.3993(2) 0.3359(8)
C46A C 0.3918(5) 0.4102(2) 0.2535(8)
C47A C 0.3356(5) 0.4196(2) 0.1932(9)
H33A H 0.3088 0.4178 0.2052
C48A C 0.3172(5) 0.4311(2) 0.1183(9)
H34A H 0.2784 0.4372 0.0796
C49A C 0.3542(5) 0.4341(2) 0.0973(8)
C50A C 0.4103(6) 0.4251(2) 0.1545(10)
H35A H 0.4369 0.4275 0.1425
C51A C 0.4278(4) 0.4126(3) 0.2290(9)
H36A H 0.4658 0.4052 0.2656
C52A C 0.3557(5) 0.4702(3) 0.0227(8)
H37A H 0.3829 0.4790 0.0761
N10A N 0.2997(3) 0.47063(14) -0.1267(5)
C53A C 0.3401(4) 0.4848(2) -0.0514(4)
C54A C 0.3637(4) 0.5108(2) -0.0520(6)
H38A H 0.3913 0.5205 -0.0006
C55A C 0.3468(5) 0.52265(17) -0.1280(8)
H39A H 0.3630 0.5404 -0.1284
C56A C 0.3064(5) 0.5085(2) -0.2032(6)
H40A H 0.2949 0.5165 -0.2551
C57A C 0.2828(3) 0.48244(19) -0.2026(4)
H41A H 0.2552 0.4727 -0.2541
C58A C 0.4756(4) 0.4014(2) 0.4046(6)
C59A C 0.5121(5) 0.3806(3) 0.4193(8)
H42A H 0.4977 0.3640 0.3840
C60A C 0.5724(5) 0.3824(3) 0.4869(8)
H43A H 0.5974 0.3668 0.4985
C61A C 0.5931(4) 0.4066(3) 0.5336(6)
C62A C 0.5573(5) 0.4295(2) 0.5158(7)
H44A H 0.5719 0.4471 0.5464
C63A C 0.4990(5) 0.4258(2) 0.4512(7)
H45A H 0.4738 0.4414 0.4389
C64A C 0.6706(5) 0.4007(3) 0.6715(10)
H46A H 0.6427 0.3927 0.6763
C65A C 0.7324(6) 0.4023(3) 0.7496(10)
C66A C 0.7524(6) 0.3896(3) 0.8245(11)
H47A H 0.7276 0.3783 0.8298
C67A C 0.8095(7) 0.3937(3) 0.8930(10)
H48A H 0.8240 0.3872 0.9478
C68A C 0.8454(6) 0.4079(3) 0.8778(8)
H49A H 0.8856 0.4097 0.9214
C69A C 0.8207(5) 0.4194(2) 0.7972(7)
H50A H 0.8447 0.4298 0.7884
O1A O 0.3068(2) 0.26125(11) -0.0445(3)
H51A H 0.3176 0.2440 -0.0376
O2A O 0.3828(2) 0.41743(12) 0.3616(4)
H52A H 0.3469 0.4163 0.3259
N11A N 0.5433(3) 0.26731(16) 0.0131(5)
N12A N 0.6291(3) 0.26222(14) 0.0003(4)
C70A C 0.5802(2) 0.27783(15) -0.0606(4)
C71A C 0.5775(3) 0.29175(16) -0.1247(4)
H53A H 0.5441 0.3024 -0.1662
C72A C 0.6236(4) 0.29007(18) -0.1279(5)
H54A H 0.6217 0.2996 -0.1717
C73A C 0.6725(3) 0.27446(19) -0.0671(5)
H55A H 0.7041 0.2733 -0.0693
C74A C 0.6753(2) 0.26054(16) -0.0030(4)
H56A H 0.7087 0.2499 0.0386
P1 P 0.06118(13) 0.15050(7) 0.1792(2)
F1 F 0.0392(3) 0.14962(19) 0.2323(6)
F2 F -0.0016(3) 0.15644(16) 0.1005(5)
F3 F 0.0527(3) 0.11685(13) 0.1630(5)
F4 F 0.0867(4) 0.15318(19) 0.1277(6)
F5 F 0.0721(3) 0.18462(15) 0.1923(5)
F6 F 0.1251(2) 0.14556(14) 0.2632(4)
C83 C 0.3125(9) 0.1240(4) -0.186(2)
N15 N 0.3025(9) 0.1465(3) -0.0765(13)
F13 F 0.3321(11) 0.1485(5) -0.1909(17)
F14 F 0.2563(8) 0.1234(4) -0.2374(11)
F15 F 0.3343(9) 0.1025(5) -0.2008(14)
O7 O 0.3059(8) 0.0939(4) -0.0832(14)
O8 O 0.3949(8) 0.1200(4) -0.0334(16)
O9 O 0.3041(4) 0.20055(19) -0.0589(5)
O10 O 0.3966(9) 0.1804(4) -0.0287(17)
S3 S 0.3358(3) 0.11895(15) -0.0768(5)
S4 S 0.3414(2) 0.17579(12) -0.0268(4)
F16 F 0.3401(8) 0.1728(3) 0.1036(11)
F17 F 0.4069(7) 0.1504(4) 0.1189(12)
C84 C 0.3751(8) 0.1735(4) 0.0827(16)
F18 F 0.4096(8) 0.1953(5) 0.1232(16)
C83A C 0.6875(9) 0.1240(4) 0.686(2)
N15A N 0.6975(9) 0.1465(3) 0.5765(13)
F13A F 0.6679(11) 0.1485(5) 0.6909(17)
F14A F 0.7437(8) 0.1234(4) 0.7374(11)
F15A F 0.6657(9) 0.1025(5) 0.7008(14)
O7A O 0.6941(8) 0.0939(4) 0.5832(14)
O8A O 0.6051(8) 0.1200(4) 0.5334(16)
O9A O 0.6959(4) 0.20055(19) 0.5589(5)
O10A O 0.6034(9) 0.1804(4) 0.5287(17)
S3A S 0.6642(3) 0.11895(15) 0.5768(5)
S4A S 0.6586(2) 0.17579(12) 0.5268(4)
F16A F 0.6599(8) 0.1728(3) 0.3964(11)
F17A F 0.5931(7) 0.1504(4) 0.3811(12)
C84A C 0.6249(8) 0.1735(4) 0.4173(16)
F18A F 0.5904(8) 0.1953(5) 0.3768(16)
N13? N 0.5948(7) 0.2076(2) 0.0359(9)
C75? C 0.5880(8) 0.1961(3) -0.0340(9)
H57? H 0.5920 0.2082 -0.0686
C76? C 0.5754(7) 0.1669(3) -0.0531(8)
H58? H 0.5707 0.1591 -0.1009
C77? C 0.5695(7) 0.1493(2) -0.0024(9)
H59? H 0.5609 0.1293 -0.0155
C78? C 0.5762(8) 0.1608(3) 0.0674(9)
H60? H 0.5722 0.1487 0.1021
C79? C 0.5889(7) 0.1899(3) 0.0866(8)
C80? C 0.5953(10) 0.2027(4) 0.1606(17)
H61? H 0.5904 0.1909 0.1946
S1? S 0.4470(3) 0.15549(15) 0.0926(4)
S2? S 0.5348(3) 0.11344(16) 0.1903(5)
C81? C 0.5189(9) 0.0893(6) 0.125(2)
N14? N 0.5109(7) 0.1436(4) 0.1414(12)
O3? O 0.5085(9) 0.1028(4) 0.2255(12)
O4? O 0.5944(6) 0.1169(3) 0.2348(10)
O5? O 0.4052(8) 0.1344(4) 0.0788(14)
O6? O 0.4374(8) 0.1742(4) 0.0268(12)
F7? F 0.4594(6) 0.0830(3) 0.0584(10)
F8? F 0.5373(7) 0.0616(3) 0.1475(11)
F9? F 0.5310(7) 0.0925(3) 0.0671(10)
F10? F 0.4757(6) 0.1670(3) 0.2480(12)
F11? F 0.4928(6) 0.2020(3) 0.1904(9)
C82? C 0.4560(7) 0.1796(5) 0.1733(18)
F12? F 0.4042(9) 0.1926(5) 0.1388(17)
loop_
_geom_bond_atom_site_label_1
_geom_bond_atom_site_label_2
_geom_bond_site_symmetry_1
_geom_bond_site_symmetry_2
Zn1 N1 1_555 1_555
Zn2 N2 1_555 1_555
N1 C6 1_555 1_555
N2 C24 1_555 1_555
N3 Zn1 1_555 1_555
N4 Zn1 1_555 1_555
N5 C61 1_555 1_555
N6 C65 1_555 1_555
N7 Zn2 1_555 1_555
N8 Zn1 1_555 1_555
C1 N8 1_555 1_555
H1 C1 1_555 1_555
C2 C1 1_555 1_555
H2 C2 1_555 1_555
C3 C2 1_555 1_555
H3 C3 1_555 1_555
C4 C3 1_555 1_555
H4 C4 1_555 1_555
C5 N8 1_555 1_555
C6 C5 1_555 1_555
H5 C6 1_555 1_555
C7 N1 1_555 1_555
C8 C7 1_555 1_555
H6 C8 1_555 1_555
C9 C8 1_555 1_555
H7 C9 1_555 1_555
C10 C9 1_555 1_555
C11 C10 1_555 1_555
H8 C11 1_555 1_555
C12 C7 1_555 1_555
H9 C12 1_555 1_555
C13 C10 1_555 1_555
C14 C13 1_555 1_555
C15 C14 1_555 1_555
H10 C15 1_555 1_555
C16 C15 1_555 1_555
H11 C16 1_555 1_555
C17 C16 1_555 1_555
C18 C17 1_555 1_555
H12 C18 1_555 1_555
C19 C14 1_555 1_555
H13 C19 1_555 1_555
C20 H14 1_555 1_555
C21 C13 1_555 1_555
C22 C21 1_555 1_555
H15 C22 1_555 1_555
C23 C22 1_555 1_555
H16 C23 1_555 1_555
C24 C23 1_555 1_555
C25 C24 1_555 1_555
H17 C25 1_555 1_555
C26 C21 1_555 1_555
H18 C26 1_555 1_555
C27 N2 1_555 1_555
H19 C27 1_555 1_555
N9 Zn2 1_555 1_555
C28 C27 1_555 1_555
C29 C28 1_555 1_555
H20 C29 1_555 1_555
C30 C29 1_555 1_555
H21 C30 1_555 1_555
C31 C30 1_555 1_555
H22 C31 1_555 1_555
C32 N9 1_555 1_555
H23 C32 1_555 1_555
C33 N3 1_555 1_555
H24 C33 1_555 1_555
C34 C33 1_555 1_555
H25 C34 1_555 1_555
C35 C34 1_555 1_555
H26 C35 1_555 1_555
C36 C35 1_555 1_555
H27 C36 1_555 1_555
C37 N3 1_555 1_555
C38 N4 1_555 1_555
H28 C38 1_555 1_555
C39 N4 1_555 1_555
C40 C39 1_555 1_555
H29 C40 1_555 1_555
C41 C40 1_555 1_555
H30 C41 1_555 1_555
C42 C41 1_555 1_555
C43 C42 1_555 1_555
H31 C43 1_555 1_555
C44 C39 1_555 1_555
H32 C44 1_555 1_555
C45 C42 1_555 1_555
C46 C45 1_555 1_555
C47 C46 1_555 1_555
H33 C47 1_555 1_555
C48 C47 1_555 1_555
H34 C48 1_555 1_555
C49 N7 1_555 1_555
C50 C49 1_555 1_555
H35 C50 1_555 1_555
C51 C46 1_555 1_555
H36 C51 1_555 1_555
C52 N7 1_555 1_555
H37 C52 1_555 1_555
N10 Zn2 1_555 1_555
C53 C52 1_555 1_555
C54 C53 1_555 1_555
H38 C54 1_555 1_555
C55 C54 1_555 1_555
H39 C55 1_555 1_555
C56 C55 1_555 1_555
H40 C56 1_555 1_555
C57 N10 1_555 1_555
H41 C57 1_555 1_555
C58 C45 1_555 1_555
C59 C58 1_555 1_555
H42 C59 1_555 1_555
C60 C59 1_555 1_555
H43 C60 1_555 1_555
C61 C60 1_555 1_555
C62 C61 1_555 1_555
H44 C62 1_555 1_555
C63 C58 1_555 1_555
H45 C63 1_555 1_555
C64 N5 1_555 1_555
H46 C64 1_555 1_555
C65 C64 1_555 1_555
C66 C65 1_555 1_555
H47 C66 1_555 1_555
C67 C66 1_555 1_555
H48 C67 1_555 1_555
C68 C67 1_555 1_555
H49 C68 1_555 1_555
C69 N6 1_555 1_555
H50 C69 1_555 1_555
O1 C13 1_555 1_555
H51 O1 1_555 1_555
O2 C45 1_555 1_555
H52 O2 1_555 1_555
N11 C17 1_555 1_555
N12 C70 1_555 1_555
C70 C20 1_555 1_555
C71 C70 1_555 1_555
H53 C71 1_555 1_555
C72 C71 1_555 1_555
H54 C72 1_555 1_555
C73 C72 1_555 1_555
H55 C73 1_555 1_555
C74 N12 1_555 1_555
H56 C74 1_555 1_555
P1 F1 1_555 1_555
F2 P1 1_555 1_555
F3 P1 1_555 1_555
F4 P1 1_555 1_555
F5 P1 1_555 1_555
F6 P1 1_555 1_555
C83 F13 1_555 1_555
N15 S3 1_555 1_555
F14 C83 1_555 1_555
F15 C83 1_555 1_555
O7 S3 1_555 1_555
O8 S3 1_555 1_555
O9 S4 1_555 1_555
O10 S4 1_555 1_555
S3 C83 1_555 1_555
S4 N15 1_555 1_555
F16 C84 1_555 1_555
F17 C84 1_555 1_555
C84 S4 1_555 1_555
F18 C84 1_555 1_555
Zn1A N11 1_555 1_555
Zn2A N5 1_555 1_555
N1A Zn1A 1_555 1_555
N2A Zn2A 1_555 1_555
N3A Zn1A 1_555 1_555
N4A Zn1A 1_555 1_555
N5A Zn2 1_555 1_555
N6A Zn2 1_555 1_555
N7A Zn2A 1_555 1_555
N8A Zn1A 1_555 1_555
C1A N8A 1_555 1_555
H1A C1A 1_555 1_555
C2A C1A 1_555 1_555
H2A C2A 1_555 1_555
C3A C2A 1_555 1_555
H3A C3A 1_555 1_555
C4A C3A 1_555 1_555
H4A C4A 1_555 1_555
C5A N8A 1_555 1_555
C6A N1A 1_555 1_555
H5A C6A 1_555 1_555
C7A N1A 1_555 1_555
C8A C7A 1_555 1_555
H6A C8A 1_555 1_555
C9A C8A 1_555 1_555
H7A C9A 1_555 1_555
C10A C9A 1_555 1_555
C11A C10A 1_555 1_555
H8A C11A 1_555 1_555
C12A C7A 1_555 1_555
H9A C12A 1_555 1_555
C13A C10A 1_555 1_555
C14A C13A 1_555 1_555
C15A C14A 1_555 1_555
H10A C15A 1_555 1_555
C16A C15A 1_555 1_555
H11A C16A 1_555 1_555
C17A C16A 1_555 1_555
C18A C17A 1_555 1_555
H12A C18A 1_555 1_555
C19A C14A 1_555 1_555
H13A C19A 1_555 1_555
C20A H14A 1_555 1_555
C21A C13A 1_555 1_555
C22A C21A 1_555 1_555
H15A C22A 1_555 1_555
C23A C22A 1_555 1_555
H16A C23A 1_555 1_555
C24A N2A 1_555 1_555
C25A C24A 1_555 1_555
H17A C25A 1_555 1_555
C26A C21A 1_555 1_555
H18A C26A 1_555 1_555
C27A N2A 1_555 1_555
H19A C27A 1_555 1_555
N9A Zn2A 1_555 1_555
C28A C27A 1_555 1_555
C29A C28A 1_555 1_555
H20A C29A 1_555 1_555
C30A C29A 1_555 1_555
H21A C30A 1_555 1_555
C31A C30A 1_555 1_555
H22A C31A 1_555 1_555
C32A N9A 1_555 1_555
H23A C32A 1_555 1_555
C33A N3A 1_555 1_555
H24A C33A 1_555 1_555
C34A C33A 1_555 1_555
H25A C34A 1_555 1_555
C35A C34A 1_555 1_555
H26A C35A 1_555 1_555
C36A C35A 1_555 1_555
H27A C36A 1_555 1_555
C37A N3A 1_555 1_555
C38A N4A 1_555 1_555
H28A C38A 1_555 1_555
C39A N4A 1_555 1_555
C40A C39A 1_555 1_555
H29A C40A 1_555 1_555
C41A C40A 1_555 1_555
H30A C41A 1_555 1_555
C42A C41A 1_555 1_555
C43A C42A 1_555 1_555
H31A C43A 1_555 1_555
C44A C39A 1_555 1_555
H32A C44A 1_555 1_555
C45A C42A 1_555 1_555
C46A C45A 1_555 1_555
C47A C46A 1_555 1_555
H33A C47A 1_555 1_555
C48A C47A 1_555 1_555
H34A C48A 1_555 1_555
C49A N7A 1_555 1_555
C50A C49A 1_555 1_555
H35A C50A 1_555 1_555
C51A C46A 1_555 1_555
H36A C51A 1_555 1_555
C52A N7A 1_555 1_555
H37A C52A 1_555 1_555
N10A Zn2A 1_555 1_555
C53A C52A 1_555 1_555
C54A C53A 1_555 1_555
H38A C54A 1_555 1_555
C55A C54A 1_555 1_555
H39A C55A 1_555 1_555
C56A C55A 1_555 1_555
H40A C56A 1_555 1_555
C57A N10A 1_555 1_555
H41A C57A 1_555 1_555
C58A C45A 1_555 1_555
C59A C58A 1_555 1_555
H42A C59A 1_555 1_555
C60A C59A 1_555 1_555
H43A C60A 1_555 1_555
C61A N5A 1_555 1_555
C62A C61A 1_555 1_555
H44A C62A 1_555 1_555
C63A C58A 1_555 1_555
H45A C63A 1_555 1_555
C64A N5A 1_555 1_555
H46A C64A 1_555 1_555
C65A N6A 1_555 1_555
C66A C65A 1_555 1_555
H47A C66A 1_555 1_555
C67A C66A 1_555 1_555
H48A C67A 1_555 1_555
C68A C67A 1_555 1_555
H49A C68A 1_555 1_555
C69A N6A 1_555 1_555
H50A C69A 1_555 1_555
O1A C13A 1_555 1_555
H51A O1A 1_555 1_555
O2A C45A 1_555 1_555
H52A O2A 1_555 1_555
N11A Zn1 1_555 1_555
N12A Zn1 1_555 1_555
C70A C20A 1_555 1_555
C71A C70A 1_555 1_555
H53A C71A 1_555 1_555
C72A C71A 1_555 1_555
H54A C72A 1_555 1_555
C73A C72A 1_555 1_555
H55A C73A 1_555 1_555
C74A N12A 1_555 1_555
H56A C74A 1_555 1_555
C83A F13A 1_555 1_555
N15A S3A 1_555 1_555
F14A C83A 1_555 1_555
F15A C83A 1_555 1_555
O7A S3A 1_555 1_555
O8A S3A 1_555 1_555
O9A S4A 1_555 1_555
O10A S4A 1_555 1_555
S3A C83A 1_555 1_555
S4A N15A 1_555 1_555
F16A C84A 1_555 1_555
F17A C84A 1_555 1_555
C84A S4A 1_555 1_555
F18A C84A 1_555 1_555
N6 Zn2A 1_555 1_555
C4 C5 1_555 1_555
C11 C12 1_555 1_555
C18 C19 1_555 1_555
C20 N11 1_555 1_555
C25 C26 1_555 1_555
N9 C28 1_555 1_555
C31 C32 1_555 1_555
C36 C37 1_555 1_555
C37 C38 1_555 1_555
C43 C44 1_555 1_555
C48 C49 1_555 1_555
C50 C51 1_555 1_555
N10 C53 1_555 1_555
C56 C57 1_555 1_555
C62 C63 1_555 1_555
C68 C69 1_555 1_555
N12 Zn1A 1_555 1_555
C73 C74 1_555 1_555
C4A C5A 1_555 1_555
C5A C6A 1_555 1_555
C11A C12A 1_555 1_555
C17A N11A 1_555 1_555
C18A C19A 1_555 1_555
C20A N11A 1_555 1_555
C23A C24A 1_555 1_555
C25A C26A 1_555 1_555
N9A C28A 1_555 1_555
C31A C32A 1_555 1_555
C36A C37A 1_555 1_555
C37A C38A 1_555 1_555
C43A C44A 1_555 1_555
C48A C49A 1_555 1_555
C50A C51A 1_555 1_555
N10A C53A 1_555 1_555
C56A C57A 1_555 1_555
C60A C61A 1_555 1_555
C62A C63A 1_555 1_555
C64A C65A 1_555 1_555
C68A C69A 1_555 1_555
N12A C70A 1_555 1_555
C73A C74A 1_555 1_555

#END
