
#######################################################################
#
#                 Cambridge Crystallographic Data Centre
#                                CCDC 
#
#######################################################################
#
# If this CIF has been generated from an entry in the Cambridge 
# Structural Database, then it will include bibliographic, chemical, 
# crystal, experimental, refinement or atomic coordinate data resulting 
# from the CCDC's data processing and validation procedures.
#
#######################################################################

data_YOTMOL
_chemical_formula_moiety         'C44 H28 Br4 N4 O8 Zn2,C1 H1 Cl3'
_chemical_name_systematic        
'tetrabromo-bis(\m-naphthalene-2,7-diyl dinicotinate)-di-zinc(ii) chloroform solvate'
_symmetry_cell_setting           triclinic
_symmetry_space_group_name_H-M   'P -1'
_symmetry_Int_Tables_number      2
_space_group_name_Hall           '-P 1'
loop_
_symmetry_equiv_pos_site_id
_symmetry_equiv_pos_as_xyz
1 x,y,z
2 -x,-y,-z
_cell_length_a                   8.3082(2)
_cell_length_b                   9.5031(2)
_cell_length_c                   15.9217(3)
_cell_angle_alpha                84.6040(10)
_cell_angle_beta                 89.6850(10)
_cell_angle_gamma                84.0550(10)
_cell_volume                     1244.76
_exptl_crystal_colour            colorless
_exptl_crystal_description       BLOCK
_cell_formula_units_Z            1
loop_
_atom_site_label
_atom_site_type_symbol
_atom_site_fract_x
_atom_site_fract_y
_atom_site_fract_z
Cl1 Cl 0.8484(9) -0.5599(3) 0.9507(2)
Cl2 Cl 0.7769(7) -0.5095(5) 1.1258(3)
Cl3 Cl 0.5000 -0.5000 1.0000
C23 C 0.6777(19) -0.5666(17) 1.0375(9)
H15 H 0.6680 -0.6700 1.0525
Cl1A Cl 0.1516(9) -0.4401(3) 1.0493(2)
Cl2A Cl 0.2231(7) -0.4905(5) 0.8742(3)
C23A C 0.3223(19) -0.4334(17) 0.9625(9)
H15A H 0.3320 -0.3300 0.9475
Zn1 Zn 1.11932(8) -0.74817(7) 1.36588(4)
Br1 Br 1.21792(8) -0.56829(6) 1.27554(4)
Br2 Br 1.22083(8) -0.83197(7) 1.50097(4)
O1 O 0.8307(6) -1.0681(5) 1.0655(3)
O2 O 0.8446(14) -0.8396(8) 1.0769(6)
O3 O 0.5630(6) -0.6792(5) 0.6265(3)
O4 O 0.3513(5) -0.6955(5) 0.7149(3)
N1 N 1.0905(6) -0.9216(5) 1.3010(3)
N2 N 0.1220(6) -0.3168(6) 0.6161(3)
C1 C 1.1390(8) -1.0562(7) 1.3286(4)
H1 H 1.2001 -1.0747 1.3794
C2 C 1.1040(8) -1.1698(7) 1.2862(4)
H2 H 1.1396 -1.2646 1.3075
C3 C 1.0156(8) -1.1425(7) 1.2116(4)
H3 H 0.9890 -1.2186 1.1814
C4 C 0.9674(7) -1.0052(7) 1.1822(4)
C5 C 1.0085(8) -0.8968(7) 1.2283(4)
H4 H 0.9769 -0.8011 1.2072
C6 C 0.8744(9) -0.9584(8) 1.1029(4)
C7 C 0.7418(8) -1.0550(7) 0.9900(4)
C8 C 0.6753(9) -0.9318(7) 0.9481(4)
H5 H 0.6878 -0.8430 0.9687
C9 C 0.5869(8) -0.9383(7) 0.8728(4)
C10 C 0.5139(9) -0.8126(8) 0.8277(5)
H6 H 0.5242 -0.7225 0.8473
C11 C 0.4288(7) -0.8218(7) 0.7559(4)
C12 C 0.4144(9) -0.9500(8) 0.7234(5)
H7 H 0.3582 -0.9525 0.6718
C13 C 0.4823(9) -1.0737(8) 0.7666(4)
H8 H 0.4705 -1.1624 0.7456
C14 C 0.5701(8) -1.0697(7) 0.8424(4)
C15 C 0.6399(10) -1.1948(7) 0.8895(4)
H9 H 0.6285 -1.2848 0.8702
C16 C 0.7232(10) -1.1877(8) 0.9621(4)
H10 H 0.7684 -1.2722 0.9936
C17 C 0.4361(7) -0.6294(7) 0.6527(4)
C18 C 0.1933(7) -0.4466(6) 0.6411(4)
H11 H 0.1319 -0.5132 0.6715
C19 C 0.3548(7) -0.4867(6) 0.6237(4)
C20 C 0.4435(8) -0.3887(7) 0.5797(4)
H12 H 0.5539 -0.4137 0.5667
C21 C 0.3704(8) -0.2547(7) 0.5551(4)
H13 H 0.4298 -0.1856 0.5256
C22 C 0.2092(8) -0.2224(7) 0.5741(4)
H14 H 0.1585 -0.1301 0.5568
Zn1A Zn -0.11932(8) -0.25183(7) 0.63412(4)
Br1A Br -0.21792(8) -0.43171(6) 0.72446(4)
Br2A Br -0.22083(8) -0.16803(7) 0.49903(4)
O1A O 0.1693(6) 0.0681(5) 0.9345(3)
O2A O 0.1554(14) -0.1604(8) 0.9231(6)
O3A O 0.4370(6) -0.3208(5) 1.3735(3)
O4A O 0.6487(5) -0.3045(5) 1.2851(3)
N1A N -0.0905(6) -0.0784(5) 0.6990(3)
N2A N 0.8780(6) -0.6832(6) 1.3839(3)
C1A C -0.1390(8) 0.0562(7) 0.6714(4)
H1A H -0.2001 0.0747 0.6206
C2A C -0.1040(8) 0.1698(7) 0.7138(4)
H2A H -0.1396 0.2646 0.6925
C3A C -0.0156(8) 0.1425(7) 0.7884(4)
H3A H 0.0110 0.2186 0.8186
C4A C 0.0326(7) 0.0052(7) 0.8178(4)
C5A C -0.0085(8) -0.1032(7) 0.7717(4)
H4A H 0.0231 -0.1989 0.7928
C6A C 0.1256(9) -0.0416(8) 0.8971(4)
C7A C 0.2582(8) 0.0550(7) 1.0100(4)
C8A C 0.3247(9) -0.0682(7) 1.0519(4)
H5A H 0.3122 -0.1570 1.0313
C9A C 0.4131(8) -0.0617(7) 1.1272(4)
C10A C 0.4861(9) -0.1874(8) 1.1723(5)
H6A H 0.4758 -0.2775 1.1527
C11A C 0.5712(7) -0.1782(7) 1.2441(4)
C12A C 0.5856(9) -0.0500(8) 1.2766(5)
H7A H 0.6418 -0.0475 1.3282
C13A C 0.5177(9) 0.0737(8) 1.2334(4)
H8A H 0.5295 0.1624 1.2544
C14A C 0.4299(8) 0.0697(7) 1.1576(4)
C15A C 0.3601(10) 0.1948(7) 1.1105(4)
H9A H 0.3715 0.2848 1.1298
C16A C 0.2768(10) 0.1877(8) 1.0379(4)
H10A H 0.2316 0.2722 1.0064
C17A C 0.5639(7) -0.3706(7) 1.3473(4)
C18A C 0.8067(7) -0.5534(6) 1.3589(4)
H11A H 0.8681 -0.4868 1.3285
C19A C 0.6452(7) -0.5133(6) 1.3763(4)
C20A C 0.5565(8) -0.6113(7) 1.4203(4)
H12A H 0.4461 -0.5863 1.4333
C21A C 0.6296(8) -0.7453(7) 1.4449(4)
H13A H 0.5702 -0.8144 1.4744
C22A C 0.7908(8) -0.7776(7) 1.4259(4)
H14A H 0.8415 -0.8699 1.4432
loop_
_geom_bond_atom_site_label_1
_geom_bond_atom_site_label_2
_geom_bond_site_symmetry_1
_geom_bond_site_symmetry_2
Zn1 Br1 1_555 1_555
Br2 Zn1 1_555 1_555
O1 C6 1_555 1_555
O2 C6 1_555 1_555
O3 C17 1_555 1_555
O4 C11 1_555 1_555
N1 Zn1 1_555 1_555
N2 C18 1_555 1_555
C1 N1 1_555 1_555
H1 C1 1_555 1_555
C2 C1 1_555 1_555
H2 C2 1_555 1_555
C3 C2 1_555 1_555
H3 C3 1_555 1_555
C4 C3 1_555 1_555
C5 N1 1_555 1_555
H4 C5 1_555 1_555
C6 C4 1_555 1_555
C7 O1 1_555 1_555
C8 C7 1_555 1_555
H5 C8 1_555 1_555
C9 C8 1_555 1_555
C10 C9 1_555 1_555
H6 C10 1_555 1_555
C11 C10 1_555 1_555
C12 C11 1_555 1_555
H7 C12 1_555 1_555
C13 C12 1_555 1_555
H8 C13 1_555 1_555
C14 C9 1_555 1_555
C15 C14 1_555 1_555
H9 C15 1_555 1_555
C16 C7 1_555 1_555
H10 C16 1_555 1_555
C17 O4 1_555 1_555
C18 H11 1_555 1_555
C19 C17 1_555 1_555
C20 C19 1_555 1_555
H12 C20 1_555 1_555
C21 C20 1_555 1_555
H13 C21 1_555 1_555
C22 N2 1_555 1_555
H14 C22 1_555 1_555
Cl1 C23 1_555 1_555
Cl2 C23 1_555 1_555
Cl3 C23 1_555 1_555
C23 H15 1_555 1_555
Zn1A N2 1_555 1_555
Br1A Zn1A 1_555 1_555
Br2A Zn1A 1_555 1_555
O1A C6A 1_555 1_555
O2A C6A 1_555 1_555
O3A C17A 1_555 1_555
O4A C11A 1_555 1_555
N1A Zn1A 1_555 1_555
N2A Zn1 1_555 1_555
C1A N1A 1_555 1_555
H1A C1A 1_555 1_555
C2A C1A 1_555 1_555
H2A C2A 1_555 1_555
C3A C2A 1_555 1_555
H3A C3A 1_555 1_555
C4A C3A 1_555 1_555
C5A N1A 1_555 1_555
H4A C5A 1_555 1_555
C6A C4A 1_555 1_555
C7A O1A 1_555 1_555
C8A C7A 1_555 1_555
H5A C8A 1_555 1_555
C9A C8A 1_555 1_555
C10A C9A 1_555 1_555
H6A C10A 1_555 1_555
C11A C10A 1_555 1_555
C12A C11A 1_555 1_555
H7A C12A 1_555 1_555
C13A C12A 1_555 1_555
H8A C13A 1_555 1_555
C14A C9A 1_555 1_555
C15A C14A 1_555 1_555
H9A C15A 1_555 1_555
C16A C7A 1_555 1_555
H10A C16A 1_555 1_555
C17A O4A 1_555 1_555
C18A N2A 1_555 1_555
H11A C18A 1_555 1_555
C19A C17A 1_555 1_555
C20A C19A 1_555 1_555
H12A C20A 1_555 1_555
C21A C20A 1_555 1_555
H13A C21A 1_555 1_555
C22A N2A 1_555 1_555
H14A C22A 1_555 1_555
Cl1A C23A 1_555 1_555
Cl2A C23A 1_555 1_555
C23A Cl3 1_555 1_555
H15A C23A 1_555 1_555
C4 C5 1_555 1_555
C13 C14 1_555 1_555
C15 C16 1_555 1_555
C18 C19 1_555 1_555
C21 C22 1_555 1_555
C4A C5A 1_555 1_555
C13A C14A 1_555 1_555
C15A C16A 1_555 1_555
C18A C19A 1_555 1_555
C21A C22A 1_555 1_555

#END
