
#######################################################################
#
#                 Cambridge Crystallographic Data Centre
#                                CCDC 
#
#######################################################################
#
# If this CIF has been generated from an entry in the Cambridge 
# Structural Database, then it will include bibliographic, chemical, 
# crystal, experimental, refinement or atomic coordinate data resulting 
# from the CCDC's data processing and validation procedures.
#
#######################################################################

data_YOTMUR
_chemical_formula_moiety         'C44 H28 Br4 N4 O8 Zn2,2.5(C1 H2 Br2)'
_chemical_name_systematic        
'tetrabromo-bis(\m-naphthalene-2,7-diyl dinicotinate)-di-zinc dibromomethane solvate'
_symmetry_cell_setting           triclinic
_symmetry_space_group_name_H-M   'P -1'
_symmetry_Int_Tables_number      2
_space_group_name_Hall           '-P 1'
loop_
_symmetry_equiv_pos_site_id
_symmetry_equiv_pos_as_xyz
1 x,y,z
2 -x,-y,-z
_cell_length_a                   7.7533(4)
_cell_length_b                   38.950(2)
_cell_length_c                   9.3528(5)
_cell_angle_alpha                90.00
_cell_angle_beta                 95.634(4)
_cell_angle_gamma                90.00
_cell_volume                     2810.82
_exptl_crystal_colour            colorless
_exptl_crystal_description       block
_cell_formula_units_Z            2
loop_
_atom_site_label
_atom_site_type_symbol
_atom_site_fract_x
_atom_site_fract_y
_atom_site_fract_z
Zn1 Zn 0.3365(2) 0.15441(4) 1.31664(17)
Br1 Br 0.2378(2) 0.11634(5) 1.48535(17)
Br2 Br 0.1684(2) 0.20047(4) 1.2175(2)
O1 O 0.6726(18) 0.0349(3) 1.2134(13)
O2 O 0.6670(12) 0.0270(2) 0.9748(10)
O3 O 1.1472(12) -0.1218(2) 1.2737(11)
O4 O 0.9582(12) -0.1658(3) 1.2292(11)
N1 N 0.4058(13) 0.1268(3) 1.1466(11)
N2 N 1.4300(15) -0.1737(3) 1.5874(12)
C1 C 0.4955(16) 0.0969(3) 1.1694(14)
H1 H 0.5277 0.0894 1.2649
C2 C 0.5400(16) 0.0775(3) 1.0561(15)
C3 C 0.4926(17) 0.0876(4) 0.9155(15)
H2 H 0.5209 0.0739 0.8371
C4 C 0.4050(17) 0.1175(4) 0.8924(15)
H3 H 0.3731 0.1256 0.7976
C5 C 0.3632(16) 0.1361(3) 1.0103(14)
H4 H 0.2999 0.1568 0.9932
C6 C 0.6356(18) 0.0441(4) 1.0953(18)
C7 C 0.7560(15) -0.0040(3) 0.9725(16)
C8 C 0.8222(16) -0.0220(4) 1.0890(16)
H5 H 0.8093 -0.0143 1.1837
C9 C 0.9121(15) -0.0531(3) 1.0640(16)
C10 C 0.9863(16) -0.0741(4) 1.1819(17)
H6 H 0.9795 -0.0672 1.2785
C11 C 1.0652(17) -0.1037(3) 1.1524(16)
C12 C 1.0824(19) -0.1158(4) 1.0214(18)
H7 H 1.1387 -0.1370 1.0081
C13 C 1.0128(16) -0.0955(3) 0.9003(16)
H8 H 1.0265 -0.1028 0.8052
C14 C 0.9257(16) -0.0651(3) 0.9234(15)
C15 C 0.8548(18) -0.0441(4) 0.8059(16)
H9 H 0.8644 -0.0511 0.7096
C16 C 0.7734(17) -0.0140(3) 0.8337(16)
H10 H 0.7283 0.0001 0.7561
C17 C 1.0793(16) -0.1540(3) 1.2967(15)
C18 C 1.1827(17) -0.1705(3) 1.4186(15)
C19 C 1.3381(16) -0.1576(4) 1.4837(15)
H11 H 1.3790 -0.1362 1.4515
C20 C 1.371(2) -0.2038(4) 1.6318(18)
H12 H 1.4374 -0.2151 1.7090
C21 C 1.225(3) -0.2193(5) 1.574(2)
H13 H 1.1929 -0.2415 1.6045
C22 C 1.1267(19) -0.2015(4) 1.4714(19)
H14 H 1.0171 -0.2105 1.4348
Zn1A Zn 1.6635(2) -0.15441(4) 1.68336(17)
Br1A Br 1.7622(2) -0.11634(5) 1.51465(17)
Br2A Br 1.8316(2) -0.20047(4) 1.7825(2)
O1A O 1.3274(18) -0.0349(3) 1.7866(13)
O2A O 1.3330(12) -0.0270(2) 2.0252(10)
O3A O 0.8528(12) 0.1218(2) 1.7263(11)
O4A O 1.0418(12) 0.1658(3) 1.7708(11)
N1A N 1.5942(13) -0.1268(3) 1.8534(11)
N2A N 0.5700(15) 0.1737(3) 1.4126(12)
C1A C 1.5045(16) -0.0969(3) 1.8306(14)
H1A H 1.4723 -0.0894 1.7351
C2A C 1.4600(16) -0.0775(3) 1.9439(15)
C3A C 1.5074(17) -0.0876(4) 2.0845(15)
H2A H 1.4791 -0.0739 2.1629
C4A C 1.5950(17) -0.1175(4) 2.1076(15)
H3A H 1.6269 -0.1256 2.2024
C5A C 1.6368(16) -0.1361(3) 1.9897(14)
H4A H 1.7001 -0.1568 2.0068
C6A C 1.3644(18) -0.0441(4) 1.9047(18)
C7A C 1.2440(15) 0.0040(3) 2.0275(16)
C8A C 1.1778(16) 0.0220(4) 1.9110(16)
H5A H 1.1907 0.0143 1.8163
C9A C 1.0879(15) 0.0531(3) 1.9360(16)
C10A C 1.0137(16) 0.0741(4) 1.8181(17)
H6A H 1.0205 0.0672 1.7215
C11A C 0.9348(17) 0.1037(3) 1.8476(16)
C12A C 0.9176(19) 0.1158(4) 1.9786(18)
H7A H 0.8613 0.1370 1.9919
C13A C 0.9872(16) 0.0955(3) 2.0997(16)
H8A H 0.9735 0.1028 2.1948
C14A C 1.0743(16) 0.0651(3) 2.0766(15)
C15A C 1.1452(18) 0.0441(4) 2.1941(16)
H9A H 1.1356 0.0511 2.2904
C16A C 1.2266(17) 0.0140(3) 2.1663(16)
H10A H 1.2717 -0.0001 2.2439
C17A C 0.9207(16) 0.1540(3) 1.7033(15)
C18A C 0.8173(17) 0.1705(3) 1.5814(15)
C19A C 0.6619(16) 0.1576(4) 1.5163(15)
H11A H 0.6210 0.1362 1.5485
C20A C 0.629(2) 0.2038(4) 1.3682(18)
H12A H 0.5626 0.2151 1.2910
C21A C 0.775(3) 0.2193(5) 1.426(2)
H13A H 0.8071 0.2415 1.3955
C22A C 0.8733(19) 0.2015(4) 1.5286(19)
H14A H 0.9829 0.2105 1.5652
Zn2 Zn -0.1635(2) 0.34569(4) 0.31694(17)
Br3 Br -0.3314(2) 0.29966(4) 0.2175(2)
Br4 Br -0.2624(2) 0.38375(5) 0.48523(17)
O5 O 0.5409(14) 0.3344(3) 0.7698(12)
O6 O 0.3529(12) 0.3782(2) 0.7273(11)
O7 O 0.8346(12) 0.5271(2) 1.0236(11)
O8 O 0.8254(19) 0.5348(3) 0.7899(15)
N3 N 0.0686(15) 0.3259(3) 0.4102(12)
N4 N 1.0950(14) 0.6262(3) 0.8535(12)
C23 C 0.1645(18) 0.3421(4) 0.5171(16)
H15 H 0.1243 0.3634 0.5503
C24 C 0.3191(16) 0.3290(4) 0.5806(15)
C25 C 0.373(2) 0.2985(4) 0.5306(18)
H16 H 0.4797 0.2891 0.5707
C26 C 0.280(2) 0.2816(4) 0.428(2)
H17 H 0.3181 0.2599 0.3967
C27 C 0.127(2) 0.2960(4) 0.3668(18)
H18 H 0.0616 0.2840 0.2913
C28 C 0.4161(17) 0.3469(3) 0.7035(15)
C29 C 0.4351(16) 0.3965(3) 0.8481(16)
C30 C 0.5160(16) 0.4266(4) 0.8182(15)
H19 H 0.5223 0.4338 0.7217
C31 C 0.5913(16) 0.4471(3) 0.9368(15)
C32 C 0.6780(17) 0.4777(3) 0.9110(17)
H20 H 0.6902 0.4853 0.8160
C33 C 0.7436(17) 0.4961(3) 1.0268(16)
C34 C 0.7282(19) 0.4851(4) 1.1688(16)
H21 H 0.7764 0.4985 1.2479
C35 C 0.6442(17) 0.4555(4) 1.1915(16)
H22 H 0.6320 0.4484 1.2872
C36 C 0.5761(16) 0.4354(3) 1.0790(17)
C37 C 0.4864(15) 0.4040(3) 1.0994(17)
H23 H 0.4747 0.3963 1.1943
C38 C 0.4177(17) 0.3850(4) 0.9873(16)
H24 H 0.3587 0.3641 1.0028
C39 C 0.8663(17) 0.5442(3) 0.9061(16)
C40 C 0.9606(16) 0.5766(3) 0.9441(15)
C41 C 1.0079(15) 0.5961(3) 0.8329(14)
H25 H 0.9786 0.5883 0.7374
C42 C 1.1369(18) 0.6373(3) 0.9895(14)
H26 H 1.1943 0.6587 1.0056
C43 C 1.0966(17) 0.6175(4) 1.1074(15)
H27 H 1.1324 0.6249 1.2025
C44 C 1.0058(17) 0.5875(3) 1.0850(16)
H28 H 0.9740 0.5744 1.1640
Zn2A Zn 1.1635(2) 0.65431(4) 0.68306(17)
Br3A Br 1.3314(2) 0.70034(4) 0.7825(2)
Br4A Br 1.2624(2) 0.61625(5) 0.51477(17)
O5A O 0.4591(14) 0.6656(3) 0.2302(12)
O6A O 0.6471(12) 0.6218(2) 0.2727(11)
O7A O 0.1654(12) 0.4729(2) -0.0236(11)
O8A O 0.1746(19) 0.4652(3) 0.2101(15)
N3A N 0.9314(15) 0.6741(3) 0.5898(12)
N4A N -0.0950(14) 0.3738(3) 0.1465(12)
C23A C 0.8355(18) 0.6579(4) 0.4829(16)
H15A H 0.8757 0.6366 0.4497
C24A C 0.6809(16) 0.6710(4) 0.4194(15)
C25A C 0.627(2) 0.7015(4) 0.4694(18)
H16A H 0.5203 0.7109 0.4293
C26A C 0.720(2) 0.7184(4) 0.572(2)
H17A H 0.6819 0.7401 0.6033
C27A C 0.873(2) 0.7040(4) 0.6332(18)
H18A H 0.9384 0.7160 0.7087
C28A C 0.5839(17) 0.6531(3) 0.2965(15)
C29A C 0.5649(16) 0.6035(3) 0.1519(16)
C30A C 0.4840(16) 0.5734(4) 0.1818(15)
H19A H 0.4777 0.5662 0.2783
C31A C 0.4087(16) 0.5529(3) 0.0632(15)
C32A C 0.3220(17) 0.5223(3) 0.0890(17)
H20A H 0.3098 0.5147 0.1840
C33A C 0.2564(17) 0.5039(3) -0.0268(16)
C34A C 0.2718(19) 0.5149(4) -0.1688(16)
H21A H 0.2236 0.5015 -0.2479
C35A C 0.3558(17) 0.5445(4) -0.1915(16)
H22A H 0.3680 0.5516 -0.2872
C36A C 0.4239(16) 0.5646(3) -0.0790(17)
C37A C 0.5136(15) 0.5960(3) -0.0994(17)
H23A H 0.5253 0.6037 -0.1943
C38A C 0.5823(17) 0.6150(4) 0.0127(16)
H24A H 0.6413 0.6359 -0.0028
C39A C 0.1337(17) 0.4558(3) 0.0939(16)
C40A C 0.0394(16) 0.4234(3) 0.0559(15)
C41A C -0.0079(15) 0.4039(3) 0.1671(14)
H25A H 0.0214 0.4117 0.2626
C42A C -0.1369(18) 0.3627(3) 0.0105(14)
H26A H -0.1943 0.3413 -0.0056
C43A C -0.0966(17) 0.3825(4) -0.1074(15)
H27A H -0.1324 0.3751 -0.2025
C44A C -0.0058(17) 0.4125(3) -0.0850(16)
H28A H 0.0260 0.4256 -0.1640
Br5 Br 0.2184(3) 0.29313(6) 0.9846(3)
Br6 Br -0.0909(4) 0.28678(7) 0.7422(3)
C45 C 0.041(4) 0.2632(9) 0.915(3)
H29 H -0.0372 0.2587 0.9906
H30 H 0.0903 0.2411 0.8863
Br7 Br 0.4088(4) 0.21317(7) 0.7422(3)
Br8 Br 0.7188(3) 0.20698(6) 0.9848(3)
C46 C 0.535(3) 0.2354(7) 0.906(3)
H31 H 0.5825 0.2576 0.8760
H32 H 0.4555 0.2402 0.9803
loop_
_geom_bond_atom_site_label_1
_geom_bond_atom_site_label_2
_geom_bond_site_symmetry_1
_geom_bond_site_symmetry_2
Zn1 Br1 1_555 1_555
Br2 Zn1 1_555 1_555
O1 C6 1_555 1_555
O2 C6 1_555 1_555
O3 C11 1_555 1_555
O4 C17 1_555 1_555
N1 Zn1 1_555 1_555
N2 C19 1_555 1_555
C1 N1 1_555 1_555
H1 C1 1_555 1_555
C2 C1 1_555 1_555
C3 C2 1_555 1_555
H2 C3 1_555 1_555
C4 C3 1_555 1_555
H3 C4 1_555 1_555
C5 N1 1_555 1_555
H4 C5 1_555 1_555
C6 C2 1_555 1_555
C7 O2 1_555 1_555
C8 C7 1_555 1_555
H5 C8 1_555 1_555
C9 C8 1_555 1_555
C10 C9 1_555 1_555
H6 C10 1_555 1_555
C11 C10 1_555 1_555
C12 C11 1_555 1_555
H7 C12 1_555 1_555
C13 C12 1_555 1_555
H8 C13 1_555 1_555
C14 C9 1_555 1_555
C15 C14 1_555 1_555
H9 C15 1_555 1_555
C16 C7 1_555 1_555
H10 C16 1_555 1_555
C17 O3 1_555 1_555
C18 C17 1_555 1_555
C19 C18 1_555 1_555
H11 C19 1_555 1_555
C20 N2 1_555 1_555
H12 C20 1_555 1_555
C21 C20 1_555 1_555
H13 C21 1_555 1_555
C22 C18 1_555 1_555
H14 C22 1_555 1_555
Zn2 Br3 1_555 1_555
Br4 Zn2 1_555 1_555
O5 C28 1_555 1_555
O6 C28 1_555 1_555
O7 C33 1_555 1_555
O8 C39 1_555 1_555
N3 Zn2 1_555 1_555
N4 C41 1_555 1_555
C23 N3 1_555 1_555
H15 C23 1_555 1_555
C24 C23 1_555 1_555
C25 C24 1_555 1_555
H16 C25 1_555 1_555
C26 C25 1_555 1_555
H17 C26 1_555 1_555
C27 N3 1_555 1_555
H18 C27 1_555 1_555
C28 C24 1_555 1_555
C29 O6 1_555 1_555
C30 C29 1_555 1_555
H19 C30 1_555 1_555
C31 C30 1_555 1_555
C32 C31 1_555 1_555
H20 C32 1_555 1_555
C33 C32 1_555 1_555
C34 C33 1_555 1_555
H21 C34 1_555 1_555
C35 C34 1_555 1_555
H22 C35 1_555 1_555
C36 C31 1_555 1_555
C37 C36 1_555 1_555
H23 C37 1_555 1_555
C38 C29 1_555 1_555
H24 C38 1_555 1_555
C39 O7 1_555 1_555
C40 C39 1_555 1_555
C41 C40 1_555 1_555
H25 C41 1_555 1_555
C42 N4 1_555 1_555
H26 C42 1_555 1_555
C43 C42 1_555 1_555
H27 C43 1_555 1_555
C44 C40 1_555 1_555
H28 C44 1_555 1_555
Br5 C45 1_555 1_555
Br6 C45 1_555 1_555
C45 H29 1_555 1_555
H30 C45 1_555 1_555
Br7 C46 1_555 1_555
Br8 C46 1_555 1_555
C46 H31 1_555 1_555
H32 C46 1_555 1_555
Zn1A N2 1_555 1_555
Br1A Zn1A 1_555 1_555
Br2A Zn1A 1_555 1_555
O1A C6A 1_555 1_555
O2A C6A 1_555 1_555
O3A C11A 1_555 1_555
O4A C17A 1_555 1_555
N1A Zn1A 1_555 1_555
N2A Zn1 1_555 1_555
C1A N1A 1_555 1_555
H1A C1A 1_555 1_555
C2A C1A 1_555 1_555
C3A C2A 1_555 1_555
H2A C3A 1_555 1_555
C4A C3A 1_555 1_555
H3A C4A 1_555 1_555
C5A N1A 1_555 1_555
H4A C5A 1_555 1_555
C6A C2A 1_555 1_555
C7A O2A 1_555 1_555
C8A C7A 1_555 1_555
H5A C8A 1_555 1_555
C9A C8A 1_555 1_555
C10A C9A 1_555 1_555
H6A C10A 1_555 1_555
C11A C10A 1_555 1_555
C12A C11A 1_555 1_555
H7A C12A 1_555 1_555
C13A C12A 1_555 1_555
H8A C13A 1_555 1_555
C14A C9A 1_555 1_555
C15A C14A 1_555 1_555
H9A C15A 1_555 1_555
C16A C7A 1_555 1_555
H10A C16A 1_555 1_555
C17A O3A 1_555 1_555
C18A C17A 1_555 1_555
C19A N2A 1_555 1_555
H11A C19A 1_555 1_555
C20A N2A 1_555 1_555
H12A C20A 1_555 1_555
C21A C20A 1_555 1_555
H13A C21A 1_555 1_555
C22A C18A 1_555 1_555
H14A C22A 1_555 1_555
Zn2A N4 1_555 1_555
Br3A Zn2A 1_555 1_555
Br4A Zn2A 1_555 1_555
O5A C28A 1_555 1_555
O6A C28A 1_555 1_555
O7A C33A 1_555 1_555
O8A C39A 1_555 1_555
N3A Zn2A 1_555 1_555
N4A Zn2 1_555 1_555
C23A N3A 1_555 1_555
H15A C23A 1_555 1_555
C24A C23A 1_555 1_555
C25A C24A 1_555 1_555
H16A C25A 1_555 1_555
C26A C25A 1_555 1_555
H17A C26A 1_555 1_555
C27A N3A 1_555 1_555
H18A C27A 1_555 1_555
C28A C24A 1_555 1_555
C29A O6A 1_555 1_555
C30A C29A 1_555 1_555
H19A C30A 1_555 1_555
C31A C30A 1_555 1_555
C32A C31A 1_555 1_555
H20A C32A 1_555 1_555
C33A C32A 1_555 1_555
C34A C33A 1_555 1_555
H21A C34A 1_555 1_555
C35A C34A 1_555 1_555
H22A C35A 1_555 1_555
C36A C31A 1_555 1_555
C37A C36A 1_555 1_555
H23A C37A 1_555 1_555
C38A C29A 1_555 1_555
H24A C38A 1_555 1_555
C39A O7A 1_555 1_555
C40A C39A 1_555 1_555
C41A N4A 1_555 1_555
H25A C41A 1_555 1_555
C42A N4A 1_555 1_555
H26A C42A 1_555 1_555
C43A C42A 1_555 1_555
H27A C43A 1_555 1_555
C44A C40A 1_555 1_555
H28A C44A 1_555 1_555
C4 C5 1_555 1_555
C13 C14 1_555 1_555
C15 C16 1_555 1_555
C21 C22 1_555 1_555
C26 C27 1_555 1_555
C35 C36 1_555 1_555
C37 C38 1_555 1_555
C43 C44 1_555 1_555
C4A C5A 1_555 1_555
C13A C14A 1_555 1_555
C15A C16A 1_555 1_555
C18A C19A 1_555 1_555
C21A C22A 1_555 1_555
C26A C27A 1_555 1_555
C35A C36A 1_555 1_555
C37A C38A 1_555 1_555
C40A C41A 1_555 1_555
C43A C44A 1_555 1_555

#END
