
#######################################################################
#
#                 Cambridge Crystallographic Data Centre
#                                CCDC 
#
#######################################################################
#
# If this CIF has been generated from an entry in the Cambridge 
# Structural Database, then it will include bibliographic, chemical, 
# crystal, experimental, refinement or atomic coordinate data resulting 
# from the CCDC's data processing and validation procedures.
#
#######################################################################

data_YOVDIY
_chemical_formula_moiety         'C44 H28 Cl4 N4 O8 Zn2,2(C2 H3 N1),C1 H2 Cl2'
_chemical_name_systematic        
'bis(\m-naphthalene-2,7-diyl dinicotinate)-tetrachloro-di-zinc(ii) acetonitrile dichloromethane solvate'
_symmetry_cell_setting           triclinic
_symmetry_space_group_name_H-M   'P -1'
_symmetry_Int_Tables_number      2
_space_group_name_Hall           '-P 1'
loop_
_symmetry_equiv_pos_site_id
_symmetry_equiv_pos_as_xyz
1 x,y,z
2 -x,-y,-z
_cell_length_a                   7.6168(16)
_cell_length_b                   9.243(2)
_cell_length_c                   19.802(5)
_cell_angle_alpha                101.716(16)
_cell_angle_beta                 98.529(16)
_cell_angle_gamma                94.415(16)
_cell_volume                     1341.68
_exptl_crystal_colour            colorless
_exptl_crystal_description       block
_cell_formula_units_Z            1
loop_
_atom_site_label
_atom_site_type_symbol
_atom_site_fract_x
_atom_site_fract_y
_atom_site_fract_z
Zn1 Zn 0.09492(16) 0.38536(15) 1.32451(7)
Cl1 Cl -0.0325(4) 0.5433(4) 1.26770(18)
Cl2 Cl 0.0180(4) 0.3216(4) 1.41840(16)
O1 O 0.213(2) 0.1945(18) 1.0568(7)
O2 O 0.2309(11) -0.0451(11) 1.0368(4)
O3 O 0.4479(10) 0.1877(9) 0.7271(4)
O4 O 0.2005(10) 0.1267(9) 0.6450(5)
N1 N 0.1121(10) 0.1874(11) 1.2552(5)
N2 N 0.6389(12) 0.5173(11) 0.6437(5)
C1 C 0.1495(13) 0.1898(15) 1.1910(6)
H1 H 0.1657 0.2825 1.1777
C2 C 0.1644(12) 0.0639(16) 1.1452(6)
C3 C 0.1414(14) -0.0676(15) 1.1644(6)
H2 H 0.1546 -0.1570 1.1330
C4 C 0.0983(19) -0.0734(16) 1.2301(8)
H3 H 0.0802 -0.1648 1.2444
C5 C 0.0841(12) 0.0561(15) 1.2712(6)
H4 H 0.0514 0.0546 1.3156
C6 C 0.1984(16) 0.0851(19) 1.0776(7)
C7 C 0.2689(13) -0.0715(15) 0.9682(5)
C8 C 0.2690(15) -0.2159(16) 0.9383(6)
H5 H 0.2504 -0.2908 0.9639
C9 C 0.2955(16) -0.2519(15) 0.8722(8)
H6 H 0.2866 -0.3546 0.8509
C10 C 0.3355(12) -0.1501(13) 0.8320(5)
C11 C 0.3661(13) -0.1815(13) 0.7625(6)
H7 H 0.3608 -0.2827 0.7393
C12 C 0.4019(14) -0.0780(17) 0.7274(7)
H8 H 0.4267 -0.1049 0.6812
C13 C 0.4027(13) 0.0733(15) 0.7600(6)
C14 C 0.3709(14) 0.1128(14) 0.8256(6)
H9 H 0.3712 0.2148 0.8467
C15 C 0.3365(13) 0.0010(15) 0.8639(6)
C16 C 0.3009(13) 0.0432(14) 0.9334(6)
H10 H 0.2990 0.1445 0.9552
C17 C 0.3434(15) 0.2012(15) 0.6706(7)
C18 C 0.5319(15) 0.5741(13) 0.5970(7)
H11 H 0.5738 0.6618 0.5835
C19 C 0.3643(14) 0.5057(16) 0.5692(7)
H12 H 0.2913 0.5404 0.5339
C20 C 0.3028(14) 0.3837(16) 0.5938(6)
H13 H 0.1850 0.3367 0.5759
C21 C 0.4087(15) 0.3300(13) 0.6433(6)
C22 C 0.5768(12) 0.4031(12) 0.6685(5)
H14 H 0.6509 0.3715 0.7045
Zn1A Zn 0.90508(16) 0.61464(15) 0.67549(7)
Cl1A Cl 1.0325(4) 0.4567(4) 0.73230(18)
Cl2A Cl 0.9820(4) 0.6784(4) 0.58160(16)
O1A O 0.787(2) 0.8055(18) 0.9432(7)
O2A O 0.7691(11) 1.0451(11) 0.9632(4)
O3A O 0.5521(10) 0.8123(9) 1.2729(4)
O4A O 0.7995(10) 0.8733(9) 1.3550(5)
N1A N 0.8879(10) 0.8126(11) 0.7448(5)
N2A N 0.3611(12) 0.4827(11) 1.3563(5)
C1A C 0.8505(13) 0.8102(15) 0.8090(6)
H1A H 0.8343 0.7175 0.8223
C2A C 0.8356(12) 0.9361(16) 0.8548(6)
C3A C 0.8586(14) 1.0676(15) 0.8356(6)
H2A H 0.8454 1.1570 0.8670
C4A C 0.9017(19) 1.0734(16) 0.7699(8)
H3A H 0.9198 1.1648 0.7556
C5A C 0.9159(12) 0.9439(15) 0.7288(6)
H4A H 0.9486 0.9454 0.6844
C6A C 0.8016(16) 0.9149(19) 0.9224(7)
C7A C 0.7311(13) 1.0715(15) 1.0318(5)
C8A C 0.7310(15) 1.2159(16) 1.0617(6)
H5A H 0.7496 1.2908 1.0361
C9A C 0.7045(16) 1.2519(15) 1.1278(8)
H6A H 0.7134 1.3546 1.1491
C10A C 0.6645(12) 1.1501(13) 1.1680(5)
C11A C 0.6339(13) 1.1815(13) 1.2375(6)
H7A H 0.6392 1.2827 1.2607
C12A C 0.5981(14) 1.0780(17) 1.2726(7)
H8A H 0.5733 1.1049 1.3188
C13A C 0.5973(13) 0.9267(15) 1.2400(6)
C14A C 0.6291(14) 0.8872(14) 1.1744(6)
H9A H 0.6288 0.7852 1.1533
C15A C 0.6635(13) 0.9990(15) 1.1361(6)
C16A C 0.6991(13) 0.9568(14) 1.0666(6)
H10A H 0.7010 0.8555 1.0448
C17A C 0.6566(15) 0.7988(15) 1.3294(7)
C18A C 0.4681(15) 0.4259(13) 1.4030(7)
H11A H 0.4262 0.3382 1.4165
C19A C 0.6357(14) 0.4943(16) 1.4308(7)
H12A H 0.7087 0.4596 1.4661
C20A C 0.6972(14) 0.6163(16) 1.4062(6)
H13A H 0.8150 0.6633 1.4241
C21A C 0.5913(15) 0.6700(13) 1.3567(6)
C22A C 0.4232(12) 0.5969(12) 1.3315(5)
H14A H 0.3491 0.6285 1.2955
Cl3 Cl 0.075(2) -0.5733(14) 0.9536(8)
Cl4 Cl 0.287(2) -0.448(2) 1.0999(7)
C23 C 0.316(2) -0.533(3) 1.0053(9)
H15 H 0.3735 -0.6263 1.0033
H16 H 0.3890 -0.4629 0.9865
N3 N 0.593(2) 0.956(2) 0.5816(10)
C24 C 0.6923(18) 1.027(2) 0.5590(8)
C25 C 0.800(2) 1.132(2) 0.5332(9)
H17 H 0.8859 1.0806 0.5078
H18 H 0.8641 1.2090 0.5726
H19 H 0.7226 1.1788 0.5016
loop_
_geom_bond_atom_site_label_1
_geom_bond_atom_site_label_2
_geom_bond_site_symmetry_1
_geom_bond_site_symmetry_2
Zn1 Cl1 1_555 1_555
Cl2 Zn1 1_555 1_555
O1 C6 1_555 1_555
O2 C6 1_555 1_555
O3 C13 1_555 1_555
O4 C17 1_555 1_555
N1 Zn1 1_555 1_555
N2 C18 1_555 1_555
C1 N1 1_555 1_555
H1 C1 1_555 1_555
C2 C1 1_555 1_555
C3 C2 1_555 1_555
H2 C3 1_555 1_555
C4 C3 1_555 1_555
H3 C4 1_555 1_555
C5 N1 1_555 1_555
H4 C5 1_555 1_555
C6 C2 1_555 1_555
C7 O2 1_555 1_555
C8 C7 1_555 1_555
H5 C8 1_555 1_555
C9 C8 1_555 1_555
H6 C9 1_555 1_555
C10 C9 1_555 1_555
C11 C10 1_555 1_555
H7 C11 1_555 1_555
C12 C11 1_555 1_555
H8 C12 1_555 1_555
C13 C12 1_555 1_555
C14 C13 1_555 1_555
H9 C14 1_555 1_555
C15 C10 1_555 1_555
C16 C7 1_555 1_555
H10 C16 1_555 1_555
C17 O3 1_555 1_555
C18 H11 1_555 1_555
C19 C18 1_555 1_555
H12 C19 1_555 1_555
C20 C19 1_555 1_555
H13 C20 1_555 1_555
C21 C17 1_555 1_555
C22 N2 1_555 1_555
H14 C22 1_555 1_555
Cl3 C23 1_555 1_555
Cl4 C23 1_555 1_555
C23 H15 1_555 1_555
H16 C23 1_555 1_555
N3 C24 1_555 1_555
C24 C25 1_555 1_555
C25 H17 1_555 1_555
H18 C25 1_555 1_555
H19 C25 1_555 1_555
Zn1A N2 1_555 1_555
Cl1A Zn1A 1_555 1_555
Cl2A Zn1A 1_555 1_555
O1A C6A 1_555 1_555
O2A C6A 1_555 1_555
O3A C13A 1_555 1_555
O4A C17A 1_555 1_555
N1A Zn1A 1_555 1_555
N2A Zn1 1_555 1_555
C1A N1A 1_555 1_555
H1A C1A 1_555 1_555
C2A C1A 1_555 1_555
C3A C2A 1_555 1_555
H2A C3A 1_555 1_555
C4A C3A 1_555 1_555
H3A C4A 1_555 1_555
C5A N1A 1_555 1_555
H4A C5A 1_555 1_555
C6A C2A 1_555 1_555
C7A O2A 1_555 1_555
C8A C7A 1_555 1_555
H5A C8A 1_555 1_555
C9A C8A 1_555 1_555
H6A C9A 1_555 1_555
C10A C9A 1_555 1_555
C11A C10A 1_555 1_555
H7A C11A 1_555 1_555
C12A C11A 1_555 1_555
H8A C12A 1_555 1_555
C13A C12A 1_555 1_555
C14A C13A 1_555 1_555
H9A C14A 1_555 1_555
C15A C10A 1_555 1_555
C16A C7A 1_555 1_555
H10A C16A 1_555 1_555
C17A O3A 1_555 1_555
C18A N2A 1_555 1_555
H11A C18A 1_555 1_555
C19A C18A 1_555 1_555
H12A C19A 1_555 1_555
C20A C19A 1_555 1_555
H13A C20A 1_555 1_555
C21A C17A 1_555 1_555
C22A N2A 1_555 1_555
H14A C22A 1_555 1_555
C4 C5 1_555 1_555
C14 C15 1_555 1_555
C15 C16 1_555 1_555
C20 C21 1_555 1_555
C21 C22 1_555 1_555
C4A C5A 1_555 1_555
C14A C15A 1_555 1_555
C15A C16A 1_555 1_555
C20A C21A 1_555 1_555
C21A C22A 1_555 1_555

#END
