# generated using pymatgen
data_H118Pd3C72(N13O15)2
_symmetry_space_group_name_H-M   'P 1'
_cell_length_a   14.55220000
_cell_length_b   24.62150000
_cell_length_c   27.31650000
_cell_angle_alpha   90.00000000
_cell_angle_beta   101.10900000
_cell_angle_gamma   90.00000000
_symmetry_Int_Tables_number   1
_chemical_formula_structural   H118Pd3C72(N13O15)2
_chemical_formula_sum   'H472 Pd12 C288 N104 O120'
_cell_volume   9604.02713691
_cell_formula_units_Z   4
loop_
 _symmetry_equiv_pos_site_id
 _symmetry_equiv_pos_as_xyz
  1  'x, y, z'
loop_
 _atom_site_type_symbol
 _atom_site_label
 _atom_site_symmetry_multiplicity
 _atom_site_fract_x
 _atom_site_fract_y
 _atom_site_fract_z
 _atom_site_occupancy
  H  H1  1  0.720100  0.037700  0.996000  1
  H  H2  1  0.779900  0.537700  0.504000  1
  H  H3  1  0.279900  0.962300  0.004000  1
  H  H4  1  0.220100  0.462300  0.496000  1
  H  H5  1  0.619000  0.055300  0.969800  1
  H  H6  1  0.881000  0.555300  0.530200  1
  H  H7  1  0.381000  0.944700  0.030200  1
  H  H8  1  0.119000  0.444700  0.469800  1
  H  H9  1  0.706300  0.077000  0.950000  1
  H  H10  1  0.793700  0.577000  0.550000  1
  H  H11  1  0.293700  0.923000  0.050000  1
  H  H12  1  0.206300  0.423000  0.450000  1
  H  H13  1  0.618700  0.925500  0.929100  1
  H  H14  1  0.881300  0.425500  0.570900  1
  H  H15  1  0.381300  0.074500  0.070900  1
  H  H16  1  0.118700  0.574500  0.429100  1
  H  H17  1  0.575200  0.966900  0.961900  1
  H  H18  1  0.924800  0.466900  0.538100  1
  H  H19  1  0.424800  0.033100  0.038100  1
  H  H20  1  0.075200  0.533100  0.461900  1
  H  H21  1  0.674400  0.941900  0.982000  1
  H  H22  1  0.825600  0.441900  0.518000  1
  H  H23  1  0.325600  0.058100  0.018000  1
  H  H24  1  0.174400  0.558100  0.482000  1
  H  H25  1  0.779800  0.936400  0.803700  1
  H  H26  1  0.720200  0.436400  0.696300  1
  H  H27  1  0.220200  0.063600  0.196300  1
  H  H28  1  0.279800  0.563600  0.303700  1
  H  H29  1  0.679400  0.954600  0.776900  1
  H  H30  1  0.820600  0.454600  0.723100  1
  H  H31  1  0.320600  0.045400  0.223100  1
  H  H32  1  0.179400  0.545400  0.276900  1
  H  H33  1  0.692200  0.920300  0.826100  1
  H  H34  1  0.807800  0.420300  0.673900  1
  H  H35  1  0.307800  0.079700  0.173900  1
  H  H36  1  0.192200  0.579700  0.326100  1
  H  H37  1  0.709700  0.059700  0.788900  1
  H  H38  1  0.790300  0.559700  0.711100  1
  H  H39  1  0.290300  0.940300  0.211100  1
  H  H40  1  0.209700  0.440300  0.288900  1
  H  H41  1  0.800600  0.026200  0.787100  1
  H  H42  1  0.699400  0.526200  0.712900  1
  H  H43  1  0.199400  0.973800  0.212900  1
  H  H44  1  0.300600  0.473800  0.287100  1
  H  H45  1  0.798700  0.067000  0.830900  1
  H  H46  1  0.701300  0.567000  0.669100  1
  H  H47  1  0.201300  0.933000  0.169100  1
  H  H48  1  0.298700  0.433000  0.330900  1
  H  H49  1  0.497100  0.970100  0.764800  1
  H  H50  1  0.002900  0.470100  0.735200  1
  H  H51  1  0.502900  0.029900  0.235200  1
  H  H52  1  0.997100  0.529900  0.264800  1
  H  H53  1  0.427700  0.999400  0.685400  1
  H  H54  1  0.072300  0.499400  0.814600  1
  H  H55  1  0.572300  0.000600  0.314600  1
  H  H56  1  0.927700  0.500600  0.185400  1
  H  H57  1  0.420900  0.089400  0.667300  1
  H  H58  1  0.079100  0.589400  0.832700  1
  H  H59  1  0.579100  0.910600  0.332700  1
  H  H60  1  0.920900  0.410600  0.167300  1
  H  H61  1  0.568700  0.119600  0.804000  1
  H  H62  1  0.931300  0.619600  0.696000  1
  H  H63  1  0.431300  0.880400  0.196000  1
  H  H64  1  0.068700  0.380400  0.304000  1
  H  H65  1  0.488600  0.360700  0.701700  1
  H  H66  1  0.011400  0.860700  0.798300  1
  H  H67  1  0.511400  0.639300  0.298300  1
  H  H68  1  0.988600  0.139300  0.201700  1
  H  H69  1  0.654700  0.435200  0.816400  1
  H  H70  1  0.845300  0.935200  0.683600  1
  H  H71  1  0.345300  0.564800  0.183600  1
  H  H72  1  0.154700  0.064800  0.316400  1
  H  H73  1  0.641900  0.275800  0.814100  1
  H  H74  1  0.858100  0.775800  0.685900  1
  H  H75  1  0.358100  0.724200  0.185900  1
  H  H76  1  0.141900  0.224200  0.314100  1
  H  H77  1  0.449400  0.626400  0.665600  1
  H  H78  1  0.050600  0.126400  0.834400  1
  H  H79  1  0.550600  0.373600  0.334400  1
  H  H80  1  0.949400  0.873600  0.165600  1
  H  H81  1  0.443900  0.717200  0.684500  1
  H  H82  1  0.056100  0.217200  0.815500  1
  H  H83  1  0.556100  0.282800  0.315500  1
  H  H84  1  0.943900  0.782800  0.184500  1
  H  H85  1  0.503900  0.748000  0.764000  1
  H  H86  1  0.996100  0.248000  0.736000  1
  H  H87  1  0.496100  0.252000  0.236000  1
  H  H88  1  0.003900  0.752000  0.264000  1
  H  H89  1  0.584000  0.599700  0.805800  1
  H  H90  1  0.916000  0.099700  0.694200  1
  H  H91  1  0.416000  0.400300  0.194200  1
  H  H92  1  0.084000  0.900300  0.305800  1
  H  H93  1  0.796500  0.658600  0.841200  1
  H  H94  1  0.703500  0.158600  0.658800  1
  H  H95  1  0.203500  0.341400  0.158800  1
  H  H96  1  0.296500  0.841400  0.341200  1
  H  H97  1  0.834600  0.702000  0.808200  1
  H  H98  1  0.665400  0.202000  0.691800  1
  H  H99  1  0.165400  0.298000  0.191800  1
  H  H100  1  0.334600  0.798000  0.308200  1
  H  H101  1  0.738600  0.673300  0.788300  1
  H  H102  1  0.761400  0.173300  0.711700  1
  H  H103  1  0.261400  0.326700  0.211700  1
  H  H104  1  0.238600  0.826700  0.288300  1
  H  H105  1  0.695900  0.807200  0.820900  1
  H  H106  1  0.804100  0.307200  0.679100  1
  H  H107  1  0.304100  0.192800  0.179100  1
  H  H108  1  0.195900  0.692800  0.320900  1
  H  H109  1  0.667700  0.766500  0.776400  1
  H  H110  1  0.832300  0.266500  0.723600  1
  H  H111  1  0.332300  0.233500  0.223600  1
  H  H112  1  0.167700  0.733500  0.276400  1
  H  H113  1  0.772600  0.784000  0.793400  1
  H  H114  1  0.727400  0.284000  0.706600  1
  H  H115  1  0.227400  0.216000  0.206600  1
  H  H116  1  0.272600  0.716000  0.293400  1
  H  H117  1  0.719200  0.651400  0.955500  1
  H  H118  1  0.780800  0.151400  0.544500  1
  H  H119  1  0.280800  0.348600  0.044500  1
  H  H120  1  0.219200  0.848600  0.455500  1
  H  H121  1  0.625500  0.667200  0.972200  1
  H  H122  1  0.874500  0.167200  0.527800  1
  H  H123  1  0.374500  0.332800  0.027800  1
  H  H124  1  0.125500  0.832800  0.472200  1
  H  H125  1  0.720500  0.692400  0.999500  1
  H  H126  1  0.779500  0.192400  0.500500  1
  H  H127  1  0.279500  0.307600  0.000500  1
  H  H128  1  0.220500  0.807600  0.499500  1
  H  H129  1  0.655500  0.781400  0.983500  1
  H  H130  1  0.844500  0.281400  0.516500  1
  H  H131  1  0.344500  0.218600  0.016500  1
  H  H132  1  0.155500  0.718600  0.483500  1
  H  H133  1  0.561800  0.752800  0.958700  1
  H  H134  1  0.938200  0.252800  0.541300  1
  H  H135  1  0.438200  0.247200  0.041300  1
  H  H136  1  0.061800  0.747200  0.458700  1
  H  H137  1  0.606100  0.797100  0.929100  1
  H  H138  1  0.893900  0.297100  0.570900  1
  H  H139  1  0.393900  0.202900  0.070900  1
  H  H140  1  0.106100  0.702900  0.429100  1
  H  H141  1  0.543200  0.599100  0.899000  1
  H  H142  1  0.956800  0.099100  0.601000  1
  H  H143  1  0.456800  0.400900  0.101000  1
  H  H144  1  0.043200  0.900900  0.399000  1
  H  H145  1  0.279400  0.617900  0.917100  1
  H  H146  1  0.220600  0.117900  0.582900  1
  H  H147  1  0.720600  0.382100  0.082900  1
  H  H148  1  0.779400  0.882100  0.417100  1
  H  H149  1  0.285700  0.707300  0.893100  1
  H  H150  1  0.214300  0.207300  0.606900  1
  H  H151  1  0.714300  0.292700  0.106900  1
  H  H152  1  0.785700  0.792700  0.393100  1
  H  H153  1  0.419100  0.740400  0.871800  1
  H  H154  1  0.080900  0.240400  0.628200  1
  H  H155  1  0.580900  0.259600  0.128200  1
  H  H156  1  0.919100  0.759600  0.371800  1
  H  H157  1  0.372300  0.359500  0.934100  1
  H  H158  1  0.127700  0.859500  0.565900  1
  H  H159  1  0.627700  0.640500  0.065900  1
  H  H160  1  0.872300  0.140500  0.434100  1
  H  H161  1  0.593400  0.273500  0.909800  1
  H  H162  1  0.906600  0.773500  0.590200  1
  H  H163  1  0.406600  0.726500  0.090200  1
  H  H164  1  0.093400  0.226500  0.409800  1
  H  H165  1  0.612300  0.432400  0.923000  1
  H  H166  1  0.887700  0.932400  0.577000  1
  H  H167  1  0.387700  0.567600  0.077000  1
  H  H168  1  0.112300  0.067600  0.423000  1
  H  H169  1  0.270300  0.090700  0.917500  1
  H  H170  1  0.229700  0.590700  0.582500  1
  H  H171  1  0.729700  0.909300  0.082500  1
  H  H172  1  0.770300  0.409300  0.417500  1
  H  H173  1  0.290300  0.000500  0.901300  1
  H  H174  1  0.209700  0.500500  0.598700  1
  H  H175  1  0.709700  0.999500  0.098700  1
  H  H176  1  0.790300  0.499500  0.401300  1
  H  H177  1  0.426800  0.971300  0.880100  1
  H  H178  1  0.073200  0.471300  0.619900  1
  H  H179  1  0.573200  0.028700  0.119900  1
  H  H180  1  0.926800  0.528700  0.380100  1
  H  H181  1  0.526800  0.120200  0.890300  1
  H  H182  1  0.973200  0.620200  0.609700  1
  H  H183  1  0.473200  0.879800  0.109700  1
  H  H184  1  0.026800  0.379800  0.390300  1
  H  H185  1  0.759300  0.397900  0.994700  1
  H  H186  1  0.740700  0.897900  0.505300  1
  H  H187  1  0.240700  0.602100  0.005300  1
  H  H188  1  0.259300  0.102100  0.494700  1
  H  H189  1  0.848100  0.418100  0.975300  1
  H  H190  1  0.651900  0.918100  0.524700  1
  H  H191  1  0.151900  0.581900  0.024700  1
  H  H192  1  0.348100  0.081900  0.475300  1
  H  H193  1  0.859600  0.382300  0.023600  1
  H  H194  1  0.640400  0.882300  0.476400  1
  H  H195  1  0.140400  0.617700  0.976400  1
  H  H196  1  0.359600  0.117700  0.523600  1
  H  H197  1  0.825700  0.285700  0.016900  1
  H  H198  1  0.674300  0.785700  0.483100  1
  H  H199  1  0.174300  0.714300  0.983100  1
  H  H200  1  0.325700  0.214300  0.516900  1
  H  H201  1  0.771700  0.262700  0.965900  1
  H  H202  1  0.728300  0.762700  0.534100  1
  H  H203  1  0.228300  0.737300  0.034100  1
  H  H204  1  0.271700  0.237300  0.465900  1
  H  H205  1  0.723600  0.305500  0.995200  1
  H  H206  1  0.776400  0.805500  0.504800  1
  H  H207  1  0.276400  0.694500  0.004800  1
  H  H208  1  0.223600  0.194500  0.495200  1
  H  H209  1  0.960500  0.329200  0.981300  1
  H  H210  1  0.539500  0.829200  0.518700  1
  H  H211  1  0.039500  0.670800  0.018700  1
  H  H212  1  0.460500  0.170800  0.481300  1
  H  H213  1  0.914400  0.284500  0.943600  1
  H  H214  1  0.585600  0.784500  0.556400  1
  H  H215  1  0.085600  0.715500  0.056400  1
  H  H216  1  0.414400  0.215500  0.443600  1
  H  H217  1  0.997600  0.339200  0.902900  1
  H  H218  1  0.502400  0.839200  0.597100  1
  H  H219  1  0.002400  0.660800  0.097100  1
  H  H220  1  0.497600  0.160800  0.402900  1
  H  H221  1  0.950100  0.391300  0.920100  1
  H  H222  1  0.549900  0.891300  0.579900  1
  H  H223  1  0.049900  0.608700  0.079900  1
  H  H224  1  0.450100  0.108700  0.420100  1
  H  H225  1  0.935500  0.301100  0.826300  1
  H  H226  1  0.564500  0.801100  0.673700  1
  H  H227  1  0.064500  0.698900  0.173700  1
  H  H228  1  0.435500  0.198900  0.326300  1
  H  H229  1  0.826900  0.298600  0.807000  1
  H  H230  1  0.673100  0.798600  0.693000  1
  H  H231  1  0.173100  0.701400  0.193000  1
  H  H232  1  0.326900  0.201400  0.307000  1
  H  H233  1  0.872100  0.268700  0.856400  1
  H  H234  1  0.627900  0.768700  0.643600  1
  H  H235  1  0.127900  0.731300  0.143600  1
  H  H236  1  0.372100  0.231300  0.356400  1
  H  H237  1  0.866600  0.430500  0.850300  1
  H  H238  1  0.633400  0.930500  0.649700  1
  H  H239  1  0.133400  0.569500  0.149700  1
  H  H240  1  0.366600  0.069500  0.350300  1
  H  H241  1  0.827400  0.395800  0.802700  1
  H  H242  1  0.672600  0.895800  0.697300  1
  H  H243  1  0.172600  0.604200  0.197300  1
  H  H244  1  0.327400  0.104200  0.302700  1
  H  H245  1  0.935300  0.397100  0.824300  1
  H  H246  1  0.564700  0.897100  0.675700  1
  H  H247  1  0.064700  0.602900  0.175700  1
  H  H248  1  0.435300  0.102900  0.324300  1
  H  H249  1  0.472800  0.178700  0.691100  1
  H  H250  1  0.027200  0.678700  0.808900  1
  H  H251  1  0.527200  0.821300  0.308900  1
  H  H252  1  0.972800  0.321300  0.191100  1
  H  H253  1  0.502600  0.262000  0.699300  1
  H  H254  1  0.997400  0.762000  0.800700  1
  H  H255  1  0.497400  0.738000  0.300700  1
  H  H256  1  0.002600  0.238000  0.199300  1
  H  H257  1  0.505900  0.455300  0.702300  1
  H  H258  1  0.994100  0.955300  0.797700  1
  H  H259  1  0.494100  0.544700  0.297700  1
  H  H260  1  0.005900  0.044700  0.202300  1
  H  H261  1  0.484800  0.538600  0.693400  1
  H  H262  1  0.015200  0.038600  0.806600  1
  H  H263  1  0.515200  0.461400  0.306600  1
  H  H264  1  0.984800  0.961400  0.193400  1
  H  H265  1  0.350900  0.533700  0.930600  1
  H  H266  1  0.149100  0.033700  0.569400  1
  H  H267  1  0.649100  0.466300  0.069400  1
  H  H268  1  0.850900  0.966300  0.430600  1
  H  H269  1  0.386600  0.452400  0.943500  1
  H  H270  1  0.113400  0.952400  0.556500  1
  H  H271  1  0.613400  0.547600  0.056500  1
  H  H272  1  0.886600  0.047600  0.443500  1
  H  H273  1  0.359400  0.265400  0.917000  1
  H  H274  1  0.140600  0.765400  0.583000  1
  H  H275  1  0.640600  0.734600  0.083000  1
  H  H276  1  0.859400  0.234600  0.417000  1
  H  H277  1  0.325800  0.181400  0.911500  1
  H  H278  1  0.174200  0.681400  0.588500  1
  H  H279  1  0.674200  0.818600  0.088500  1
  H  H280  1  0.825800  0.318600  0.411500  1
  H  H281  1  0.807700  0.994600  0.949900  1
  H  H282  1  0.692300  0.494600  0.550100  1
  H  H283  1  0.192300  0.005400  0.050100  1
  H  H284  1  0.307700  0.505400  0.449900  1
  H  H285  1  0.757100  0.938500  0.944300  1
  H  H286  1  0.742900  0.438500  0.555700  1
  H  H287  1  0.242900  0.061500  0.055700  1
  H  H288  1  0.257100  0.561500  0.444300  1
  H  H289  1  0.779800  0.928000  0.878700  1
  H  H290  1  0.720200  0.428000  0.621300  1
  H  H291  1  0.220200  0.072000  0.121300  1
  H  H292  1  0.279800  0.572000  0.378700  1
  H  H293  1  0.849500  0.976600  0.890100  1
  H  H294  1  0.650500  0.476600  0.609900  1
  H  H295  1  0.150500  0.023400  0.109900  1
  H  H296  1  0.349500  0.523400  0.390100  1
  H  H297  1  0.845400  0.759200  0.887900  1
  H  H298  1  0.654600  0.259200  0.612100  1
  H  H299  1  0.154600  0.240800  0.112100  1
  H  H300  1  0.345400  0.740800  0.387900  1
  H  H301  1  0.766800  0.803000  0.874000  1
  H  H302  1  0.733200  0.303000  0.626000  1
  H  H303  1  0.233200  0.197000  0.126000  1
  H  H304  1  0.266800  0.697000  0.374000  1
  H  H305  1  0.744800  0.792400  0.936700  1
  H  H306  1  0.755200  0.292400  0.563300  1
  H  H307  1  0.255200  0.207600  0.063300  1
  H  H308  1  0.244800  0.707600  0.436700  1
  H  H309  1  0.806500  0.740700  0.944900  1
  H  H310  1  0.693500  0.240700  0.555100  1
  H  H311  1  0.193500  0.259300  0.055100  1
  H  H312  1  0.306500  0.759300  0.444900  1
  H  H313  1  0.325400  0.359800  0.587900  1
  H  H314  1  0.174600  0.859800  0.912100  1
  H  H315  1  0.674600  0.640200  0.412100  1
  H  H316  1  0.825400  0.140200  0.087900  1
  H  H317  1  0.322700  0.325500  0.636100  1
  H  H318  1  0.177300  0.825500  0.863900  1
  H  H319  1  0.677300  0.674500  0.363900  1
  H  H320  1  0.822700  0.174500  0.136100  1
  H  H321  1  0.178800  0.360000  0.641600  1
  H  H322  1  0.321200  0.860000  0.858400  1
  H  H323  1  0.821200  0.640000  0.358400  1
  H  H324  1  0.678800  0.140000  0.141600  1
  H  H325  1  0.245100  0.409200  0.637100  1
  H  H326  1  0.254900  0.909200  0.862900  1
  H  H327  1  0.754900  0.590800  0.362900  1
  H  H328  1  0.745100  0.090800  0.137100  1
  H  H329  1  0.060800  0.365200  0.522800  1
  H  H330  1  0.439200  0.865200  0.977200  1
  H  H331  1  0.939200  0.634800  0.477200  1
  H  H332  1  0.560800  0.134800  0.022800  1
  H  H333  1  0.072700  0.332800  0.573100  1
  H  H334  1  0.427300  0.832800  0.926900  1
  H  H335  1  0.927300  0.667200  0.426900  1
  H  H336  1  0.572700  0.167200  0.073100  1
  H  H337  1  0.142500  0.286000  0.516600  1
  H  H338  1  0.357500  0.786000  0.983400  1
  H  H339  1  0.857500  0.714000  0.483400  1
  H  H340  1  0.642500  0.214000  0.016600  1
  H  H341  1  0.207000  0.336200  0.512100  1
  H  H342  1  0.293000  0.836200  0.987900  1
  H  H343  1  0.793000  0.663800  0.487900  1
  H  H344  1  0.707000  0.163800  0.012100  1
  H  H345  1  0.770900  0.536400  0.955200  1
  H  H346  1  0.729100  0.036400  0.544800  1
  H  H347  1  0.229100  0.463600  0.044800  1
  H  H348  1  0.270900  0.963600  0.455200  1
  H  H349  1  0.739100  0.486300  0.920200  1
  H  H350  1  0.760900  0.986300  0.579800  1
  H  H351  1  0.260900  0.513700  0.079800  1
  H  H352  1  0.239100  0.013700  0.420200  1
  H  H353  1  0.790100  0.532600  0.853900  1
  H  H354  1  0.709900  0.032600  0.646100  1
  H  H355  1  0.209900  0.467400  0.146100  1
  H  H356  1  0.290100  0.967400  0.353900  1
  H  H357  1  0.710000  0.565200  0.872200  1
  H  H358  1  0.790000  0.065200  0.627800  1
  H  H359  1  0.290000  0.434800  0.127800  1
  H  H360  1  0.210000  0.934800  0.372200  1
  H  H361  1  0.962400  0.608900  0.920000  1
  H  H362  1  0.537600  0.108900  0.580000  1
  H  H363  1  0.037600  0.391100  0.080000  1
  H  H364  1  0.462400  0.891100  0.420000  1
  H  H365  1  0.944500  0.561200  0.881400  1
  H  H366  1  0.555500  0.061200  0.618600  1
  H  H367  1  0.055500  0.438800  0.118600  1
  H  H368  1  0.444500  0.938800  0.381400  1
  H  H369  1  0.998300  0.525100  0.958900  1
  H  H370  1  0.501700  0.025100  0.541100  1
  H  H371  1  0.001700  0.474900  0.041100  1
  H  H372  1  0.498300  0.974900  0.458900  1
  H  H373  1  0.919300  0.554900  0.980600  1
  H  H374  1  0.580700  0.054900  0.519400  1
  H  H375  1  0.080700  0.445100  0.019400  1
  H  H376  1  0.419300  0.945100  0.480600  1
  H  H377  1  0.213500  0.187000  0.727900  1
  H  H378  1  0.286500  0.687000  0.772100  1
  H  H379  1  0.786500  0.813000  0.272100  1
  H  H380  1  0.713500  0.313000  0.227900  1
  H  H381  1  0.288300  0.146500  0.713300  1
  H  H382  1  0.211700  0.646500  0.786700  1
  H  H383  1  0.711700  0.853500  0.286700  1
  H  H384  1  0.788300  0.353500  0.213300  1
  H  H385  1  0.189200  0.047500  0.792400  1
  H  H386  1  0.310800  0.547500  0.707600  1
  H  H387  1  0.810800  0.952500  0.207600  1
  H  H388  1  0.689200  0.452500  0.292400  1
  H  H389  1  0.256600  0.003800  0.776100  1
  H  H390  1  0.243400  0.503800  0.723900  1
  H  H391  1  0.743400  0.996200  0.223900  1
  H  H392  1  0.756600  0.496200  0.276100  1
  H  H393  1  0.236800  0.046100  0.692900  1
  H  H394  1  0.263200  0.546100  0.807100  1
  H  H395  1  0.763200  0.953900  0.307100  1
  H  H396  1  0.736800  0.453900  0.192900  1
  H  H397  1  0.135500  0.032300  0.702600  1
  H  H398  1  0.364500  0.532300  0.797400  1
  H  H399  1  0.864500  0.967700  0.297400  1
  H  H400  1  0.635500  0.467700  0.202600  1
  H  H401  1  0.215200  0.133700  0.802500  1
  H  H402  1  0.284800  0.633700  0.697500  1
  H  H403  1  0.784800  0.866300  0.197500  1
  H  H404  1  0.715200  0.366300  0.302500  1
  H  H405  1  0.314000  0.160400  0.803000  1
  H  H406  1  0.186000  0.660400  0.697000  1
  H  H407  1  0.686000  0.839600  0.197000  1
  H  H408  1  0.814000  0.339600  0.303000  1
  H  H409  1  0.819300  0.011000  0.950600  1
  H  H410  1  0.680700  0.511000  0.549400  1
  H  H411  1  0.180700  0.989000  0.049400  1
  H  H412  1  0.319300  0.489000  0.450600  1
  H  H413  1  0.794500  0.952800  0.929200  1
  H  H414  1  0.705500  0.452800  0.570800  1
  H  H415  1  0.205500  0.047200  0.070800  1
  H  H416  1  0.294500  0.547200  0.429200  1
  H  H417  1  0.854700  0.987100  0.877100  1
  H  H418  1  0.645300  0.487100  0.622900  1
  H  H419  1  0.145300  0.012900  0.122900  1
  H  H420  1  0.354700  0.512900  0.377100  1
  H  H421  1  0.813100  0.044500  0.883600  1
  H  H422  1  0.686900  0.544500  0.616400  1
  H  H423  1  0.186900  0.955500  0.116400  1
  H  H424  1  0.313100  0.455500  0.383600  1
  H  H425  1  0.837500  0.701100  0.888300  1
  H  H426  1  0.662500  0.201100  0.611700  1
  H  H427  1  0.162500  0.298900  0.111700  1
  H  H428  1  0.337500  0.798900  0.388300  1
  H  H429  1  0.839700  0.764000  0.883200  1
  H  H430  1  0.660300  0.264000  0.616800  1
  H  H431  1  0.160300  0.236000  0.116800  1
  H  H432  1  0.339700  0.736000  0.383200  1
  H  H433  1  0.784300  0.776000  0.943300  1
  H  H434  1  0.715700  0.276000  0.556700  1
  H  H435  1  0.215700  0.224000  0.056700  1
  H  H436  1  0.284300  0.724000  0.443300  1
  H  H437  1  0.812300  0.715500  0.955700  1
  H  H438  1  0.687700  0.215500  0.544300  1
  H  H439  1  0.187700  0.284500  0.044300  1
  H  H440  1  0.312300  0.784500  0.455700  1
  H  H441  1  0.751200  0.477200  0.899900  1
  H  H442  1  0.748800  0.977200  0.600100  1
  H  H443  1  0.248800  0.522800  0.100100  1
  H  H444  1  0.251200  0.022800  0.399900  1
  H  H445  1  0.779900  0.512300  0.857400  1
  H  H446  1  0.720100  0.012300  0.642600  1
  H  H447  1  0.220100  0.487700  0.142600  1
  H  H448  1  0.279900  0.987700  0.357400  1
  H  H449  1  0.700900  0.571000  0.892100  1
  H  H450  1  0.799100  0.071000  0.607900  1
  H  H451  1  0.299100  0.429000  0.107900  1
  H  H452  1  0.200900  0.929000  0.392100  1
  H  H453  1  0.734800  0.547300  0.945600  1
  H  H454  1  0.765200  0.047300  0.554400  1
  H  H455  1  0.265200  0.452700  0.054400  1
  H  H456  1  0.234800  0.952700  0.445600  1
  H  H457  1  0.900400  0.570400  0.981800  1
  H  H458  1  0.599600  0.070400  0.518200  1
  H  H459  1  0.099600  0.429600  0.018200  1
  H  H460  1  0.400400  0.929600  0.481800  1
  H  H461  1  0.944300  0.615600  0.952700  1
  H  H462  1  0.555700  0.115600  0.547300  1
  H  H463  1  0.055700  0.384400  0.047300  1
  H  H464  1  0.444300  0.884400  0.452700  1
  H  H465  1  0.945100  0.555100  0.885500  1
  H  H466  1  0.554900  0.055100  0.614500  1
  H  H467  1  0.054900  0.444900  0.114500  1
  H  H468  1  0.445100  0.944900  0.385500  1
  H  H469  1  0.001900  0.529000  0.934600  1
  H  H470  1  0.498100  0.029000  0.565400  1
  H  H471  1  0.998100  0.471000  0.065400  1
  H  H472  1  0.501900  0.971000  0.434600  1
  Pd  Pd473  1  0.606730  0.019520  0.860030  1
  Pd  Pd474  1  0.893270  0.519520  0.639970  1
  Pd  Pd475  1  0.393270  0.980480  0.139970  1
  Pd  Pd476  1  0.106730  0.480480  0.360030  1
  Pd  Pd477  1  0.610390  0.702150  0.861040  1
  Pd  Pd478  1  0.889610  0.202150  0.638960  1
  Pd  Pd479  1  0.389610  0.297850  0.138960  1
  Pd  Pd480  1  0.110390  0.797850  0.361040  1
  Pd  Pd481  1  0.738980  0.350010  0.890220  1
  Pd  Pd482  1  0.761020  0.850010  0.609780  1
  Pd  Pd483  1  0.261020  0.649990  0.109780  1
  Pd  Pd484  1  0.238980  0.149990  0.390220  1
  C  C485  1  0.680700  0.046400  0.964600  1
  C  C486  1  0.819300  0.546400  0.535400  1
  C  C487  1  0.319300  0.953600  0.035400  1
  C  C488  1  0.180700  0.453600  0.464600  1
  C  C489  1  0.632300  0.954600  0.952800  1
  C  C490  1  0.867700  0.454600  0.547200  1
  C  C491  1  0.367700  0.045400  0.047200  1
  C  C492  1  0.132300  0.545400  0.452800  1
  C  C493  1  0.719300  0.948000  0.808700  1
  C  C494  1  0.780700  0.448000  0.691300  1
  C  C495  1  0.280700  0.052000  0.191300  1
  C  C496  1  0.219300  0.552000  0.308700  1
  C  C497  1  0.762500  0.041500  0.808600  1
  C  C498  1  0.737500  0.541500  0.691400  1
  C  C499  1  0.237500  0.958500  0.191400  1
  C  C500  1  0.262500  0.458500  0.308600  1
  C  C501  1  0.498400  0.006710  0.756690  1
  C  C502  1  0.001600  0.506710  0.743310  1
  C  C503  1  0.501600  0.993290  0.243310  1
  C  C504  1  0.998400  0.493290  0.256690  1
  C  C505  1  0.454700  0.024490  0.709380  1
  C  C506  1  0.045300  0.524490  0.790620  1
  C  C507  1  0.545300  0.975510  0.290620  1
  C  C508  1  0.954700  0.475510  0.209380  1
  C  C509  1  0.451600  0.077680  0.698510  1
  C  C510  1  0.048400  0.577680  0.801490  1
  C  C511  1  0.548400  0.922320  0.301490  1
  C  C512  1  0.951600  0.422320  0.198510  1
  C  C513  1  0.494300  0.115820  0.734070  1
  C  C514  1  0.005700  0.615820  0.765930  1
  C  C515  1  0.505700  0.884180  0.265930  1
  C  C516  1  0.994300  0.384180  0.234070  1
  C  C517  1  0.539400  0.095460  0.779790  1
  C  C518  1  0.960600  0.595460  0.720210  1
  C  C519  1  0.460600  0.904540  0.220210  1
  C  C520  1  0.039400  0.404540  0.279790  1
  C  C521  1  0.514600  0.212900  0.755050  1
  C  C522  1  0.985400  0.712900  0.744950  1
  C  C523  1  0.485400  0.787100  0.244950  1
  C  C524  1  0.014600  0.287100  0.255050  1
  C  C525  1  0.556800  0.309650  0.754320  1
  C  C526  1  0.943200  0.809650  0.745680  1
  C  C527  1  0.443200  0.690350  0.245680  1
  C  C528  1  0.056800  0.190350  0.254320  1
  C  C529  1  0.530400  0.359390  0.732090  1
  C  C530  1  0.969600  0.859390  0.767910  1
  C  C531  1  0.469600  0.640610  0.267910  1
  C  C532  1  0.030400  0.140610  0.232090  1
  C  C533  1  0.566100  0.406920  0.755090  1
  C  C534  1  0.933900  0.906920  0.744910  1
  C  C535  1  0.433900  0.593080  0.244910  1
  C  C536  1  0.066100  0.093080  0.255090  1
  C  C537  1  0.630400  0.403630  0.800310  1
  C  C538  1  0.869600  0.903630  0.699690  1
  C  C539  1  0.369600  0.596370  0.199690  1
  C  C540  1  0.130400  0.096370  0.300310  1
  C  C541  1  0.622300  0.308860  0.799110  1
  C  C542  1  0.877700  0.808860  0.700890  1
  C  C543  1  0.377700  0.691140  0.200890  1
  C  C544  1  0.122300  0.191140  0.299110  1
  C  C545  1  0.551200  0.506510  0.753660  1
  C  C546  1  0.948800  0.006510  0.746340  1
  C  C547  1  0.448800  0.493490  0.246340  1
  C  C548  1  0.051200  0.993490  0.253660  1
  C  C549  1  0.515700  0.603060  0.734220  1
  C  C550  1  0.984300  0.103060  0.765780  1
  C  C551  1  0.484300  0.396940  0.265780  1
  C  C552  1  0.015700  0.896940  0.234220  1
  C  C553  1  0.474600  0.638820  0.697550  1
  C  C554  1  0.025400  0.138820  0.802450  1
  C  C555  1  0.525400  0.361180  0.302450  1
  C  C556  1  0.974600  0.861180  0.197550  1
  C  C557  1  0.471500  0.692800  0.708900  1
  C  C558  1  0.028500  0.192800  0.791100  1
  C  C559  1  0.528500  0.307200  0.291100  1
  C  C560  1  0.971500  0.807200  0.208900  1
  C  C561  1  0.509100  0.711410  0.756320  1
  C  C562  1  0.990900  0.211410  0.743680  1
  C  C563  1  0.490900  0.288590  0.243680  1
  C  C564  1  0.009100  0.788590  0.256320  1
  C  C565  1  0.555200  0.623420  0.780990  1
  C  C566  1  0.944800  0.123420  0.719010  1
  C  C567  1  0.444800  0.376580  0.219010  1
  C  C568  1  0.055200  0.876580  0.280990  1
  C  C569  1  0.779300  0.687400  0.817400  1
  C  C570  1  0.720700  0.187400  0.682600  1
  C  C571  1  0.220700  0.312600  0.182600  1
  C  C572  1  0.279300  0.812600  0.317400  1
  C  C573  1  0.715400  0.775900  0.804600  1
  C  C574  1  0.784600  0.275900  0.695400  1
  C  C575  1  0.284600  0.224100  0.195400  1
  C  C576  1  0.215400  0.724100  0.304600  1
  C  C577  1  0.685700  0.680200  0.968000  1
  C  C578  1  0.814300  0.180200  0.532000  1
  C  C579  1  0.314300  0.319800  0.032000  1
  C  C580  1  0.185700  0.819800  0.468000  1
  C  C581  1  0.619400  0.767900  0.952700  1
  C  C582  1  0.880600  0.267900  0.547300  1
  C  C583  1  0.380600  0.232100  0.047300  1
  C  C584  1  0.119400  0.732100  0.452700  1
  C  C585  1  0.490300  0.620730  0.897490  1
  C  C586  1  0.009700  0.120730  0.602510  1
  C  C587  1  0.509700  0.379270  0.102510  1
  C  C588  1  0.990300  0.879270  0.397490  1
  C  C589  1  0.410800  0.598190  0.909680  1
  C  C590  1  0.089200  0.098190  0.590320  1
  C  C591  1  0.589200  0.401810  0.090320  1
  C  C592  1  0.910800  0.901810  0.409680  1
  C  C593  1  0.333600  0.631590  0.908360  1
  C  C594  1  0.166400  0.131590  0.591640  1
  C  C595  1  0.666400  0.368410  0.091640  1
  C  C596  1  0.833600  0.868410  0.408360  1
  C  C597  1  0.337300  0.684780  0.894200  1
  C  C598  1  0.162700  0.184780  0.605800  1
  C  C599  1  0.662700  0.315220  0.105800  1
  C  C600  1  0.837300  0.815220  0.394200  1
  C  C601  1  0.417200  0.704390  0.881730  1
  C  C602  1  0.082800  0.204390  0.618270  1
  C  C603  1  0.582800  0.295610  0.118270  1
  C  C604  1  0.917200  0.795610  0.381730  1
  C  C605  1  0.472100  0.504660  0.925830  1
  C  C606  1  0.027900  0.004660  0.574170  1
  C  C607  1  0.527900  0.495340  0.074170  1
  C  C608  1  0.972100  0.995340  0.425830  1
  C  C609  1  0.485200  0.404490  0.928860  1
  C  C610  1  0.014800  0.904490  0.571140  1
  C  C611  1  0.514800  0.595510  0.071140  1
  C  C612  1  0.985200  0.095510  0.428860  1
  C  C613  1  0.433700  0.357750  0.929140  1
  C  C614  1  0.066300  0.857750  0.570860  1
  C  C615  1  0.566300  0.642250  0.070860  1
  C  C616  1  0.933700  0.142250  0.429140  1
  C  C617  1  0.474100  0.307770  0.921970  1
  C  C618  1  0.025900  0.807770  0.578030  1
  C  C619  1  0.525900  0.692230  0.078030  1
  C  C620  1  0.974100  0.192230  0.421970  1
  C  C621  1  0.565700  0.306590  0.914630  1
  C  C622  1  0.934300  0.806590  0.585370  1
  C  C623  1  0.434300  0.693410  0.085370  1
  C  C624  1  0.065700  0.193410  0.414630  1
  C  C625  1  0.576400  0.401070  0.922220  1
  C  C626  1  0.923600  0.901070  0.577780  1
  C  C627  1  0.423600  0.598930  0.077780  1
  C  C628  1  0.076400  0.098930  0.422220  1
  C  C629  1  0.451900  0.209260  0.922130  1
  C  C630  1  0.048100  0.709260  0.577870  1
  C  C631  1  0.548100  0.790740  0.077870  1
  C  C632  1  0.951900  0.290740  0.422130  1
  C  C633  1  0.397200  0.116020  0.905610  1
  C  C634  1  0.102800  0.616020  0.594390  1
  C  C635  1  0.602800  0.883980  0.094390  1
  C  C636  1  0.897200  0.383980  0.405610  1
  C  C637  1  0.325700  0.078860  0.908830  1
  C  C638  1  0.174300  0.578860  0.591170  1
  C  C639  1  0.674300  0.921140  0.091170  1
  C  C640  1  0.825700  0.421140  0.408830  1
  C  C641  1  0.337700  0.025230  0.899280  1
  C  C642  1  0.162300  0.525230  0.600720  1
  C  C643  1  0.662300  0.974770  0.100720  1
  C  C644  1  0.837700  0.474770  0.399280  1
  C  C645  1  0.419300  0.007940  0.886770  1
  C  C646  1  0.080700  0.507940  0.613230  1
  C  C647  1  0.580700  0.992060  0.113230  1
  C  C648  1  0.919300  0.492060  0.386770  1
  C  C649  1  0.478500  0.096290  0.892830  1
  C  C650  1  0.021500  0.596290  0.607170  1
  C  C651  1  0.521500  0.903710  0.107170  1
  C  C652  1  0.978500  0.403710  0.392830  1
  C  C653  1  0.821900  0.388700  0.991210  1
  C  C654  1  0.678100  0.888700  0.508790  1
  C  C655  1  0.178100  0.611300  0.008790  1
  C  C656  1  0.321900  0.111300  0.491210  1
  C  C657  1  0.781800  0.294300  0.986890  1
  C  C658  1  0.718200  0.794300  0.513110  1
  C  C659  1  0.218200  0.705700  0.013110  1
  C  C660  1  0.281800  0.205700  0.486890  1
  C  C661  1  0.914200  0.322900  0.951230  1
  C  C662  1  0.585800  0.822900  0.548770  1
  C  C663  1  0.085800  0.677100  0.048770  1
  C  C664  1  0.414200  0.177100  0.451230  1
  C  C665  1  0.939800  0.353500  0.910400  1
  C  C666  1  0.560200  0.853500  0.589600  1
  C  C667  1  0.060200  0.646500  0.089600  1
  C  C668  1  0.439800  0.146500  0.410400  1
  C  C669  1  0.875600  0.300200  0.836100  1
  C  C670  1  0.624400  0.800200  0.663900  1
  C  C671  1  0.124400  0.699800  0.163900  1
  C  C672  1  0.375600  0.199800  0.336100  1
  C  C673  1  0.874200  0.397600  0.832700  1
  C  C674  1  0.625800  0.897600  0.667300  1
  C  C675  1  0.125800  0.602400  0.167300  1
  C  C676  1  0.374200  0.102400  0.332700  1
  C  C677  1  0.759000  0.973900  0.928900  1
  C  C678  1  0.741000  0.473900  0.571100  1
  C  C679  1  0.241000  0.026100  0.071100  1
  C  C680  1  0.259000  0.526100  0.428900  1
  C  C681  1  0.783900  0.966600  0.885900  1
  C  C682  1  0.716100  0.466600  0.614100  1
  C  C683  1  0.216100  0.033400  0.114100  1
  C  C684  1  0.283900  0.533400  0.385900  1
  C  C685  1  0.778400  0.765200  0.882900  1
  C  C686  1  0.721600  0.265200  0.617100  1
  C  C687  1  0.221600  0.234800  0.117100  1
  C  C688  1  0.278400  0.734800  0.382900  1
  C  C689  1  0.752500  0.756600  0.923200  1
  C  C690  1  0.747500  0.256600  0.576800  1
  C  C691  1  0.247500  0.243400  0.076800  1
  C  C692  1  0.252500  0.743400  0.423200  1
  C  C693  1  0.284600  0.340200  0.605900  1
  C  C694  1  0.215400  0.840200  0.894100  1
  C  C695  1  0.715400  0.659800  0.394100  1
  C  C696  1  0.784600  0.159800  0.105900  1
  C  C697  1  0.213300  0.378300  0.619400  1
  C  C698  1  0.286700  0.878300  0.880600  1
  C  C699  1  0.786700  0.621700  0.380600  1
  C  C700  1  0.713300  0.121700  0.119400  1
  C  C701  1  0.106100  0.352800  0.551400  1
  C  C702  1  0.393900  0.852800  0.948600  1
  C  C703  1  0.893900  0.647200  0.448600  1
  C  C704  1  0.606100  0.147200  0.051400  1
  C  C705  1  0.174700  0.316600  0.534600  1
  C  C706  1  0.325300  0.816600  0.965400  1
  C  C707  1  0.825300  0.683400  0.465400  1
  C  C708  1  0.674700  0.183400  0.034600  1
  C  C709  1  0.783400  0.516100  0.926700  1
  C  C710  1  0.716600  0.016100  0.573300  1
  C  C711  1  0.216600  0.483900  0.073300  1
  C  C712  1  0.283400  0.983900  0.426700  1
  C  C713  1  0.774000  0.552400  0.881700  1
  C  C714  1  0.726000  0.052400  0.618300  1
  C  C715  1  0.226000  0.447600  0.118300  1
  C  C716  1  0.274000  0.947600  0.381700  1
  C  C717  1  0.922900  0.577700  0.909400  1
  C  C718  1  0.577100  0.077700  0.590600  1
  C  C719  1  0.077100  0.422300  0.090600  1
  C  C720  1  0.422900  0.922300  0.409400  1
  C  C721  1  0.934100  0.537900  0.951000  1
  C  C722  1  0.565900  0.037900  0.549000  1
  C  C723  1  0.065900  0.462100  0.049000  1
  C  C724  1  0.434100  0.962100  0.451000  1
  C  C725  1  0.237600  0.150200  0.731500  1
  C  C726  1  0.262400  0.650200  0.768500  1
  C  C727  1  0.762400  0.849800  0.268500  1
  C  C728  1  0.737600  0.349800  0.231500  1
  C  C729  1  0.235400  0.041100  0.771700  1
  C  C730  1  0.264600  0.541100  0.728300  1
  C  C731  1  0.764600  0.958900  0.228300  1
  C  C732  1  0.735400  0.458900  0.271700  1
  C  C733  1  0.191900  0.053300  0.714100  1
  C  C734  1  0.308100  0.553300  0.785900  1
  C  C735  1  0.808100  0.946700  0.285900  1
  C  C736  1  0.691900  0.446700  0.214100  1
  C  C737  1  0.268300  0.134800  0.785800  1
  C  C738  1  0.231700  0.634800  0.714200  1
  C  C739  1  0.731700  0.865200  0.214200  1
  C  C740  1  0.768300  0.365200  0.285800  1
  C  C741  1  0.778900  0.991000  0.924300  1
  C  C742  1  0.721100  0.491000  0.575700  1
  C  C743  1  0.221100  0.009000  0.075700  1
  C  C744  1  0.278900  0.509000  0.424300  1
  C  C745  1  0.798400  0.006100  0.881500  1
  C  C746  1  0.701600  0.506100  0.618500  1
  C  C747  1  0.201600  0.993900  0.118500  1
  C  C748  1  0.298400  0.493900  0.381500  1
  C  C749  1  0.799000  0.733500  0.886400  1
  C  C750  1  0.701000  0.233500  0.613600  1
  C  C751  1  0.201000  0.266500  0.113600  1
  C  C752  1  0.299000  0.766500  0.386400  1
  C  C753  1  0.772700  0.738800  0.931900  1
  C  C754  1  0.727300  0.238800  0.568100  1
  C  C755  1  0.227300  0.261200  0.068100  1
  C  C756  1  0.272700  0.761200  0.431900  1
  C  C757  1  0.789000  0.507900  0.893300  1
  C  C758  1  0.711000  0.007900  0.606700  1
  C  C759  1  0.211000  0.492100  0.106700  1
  C  C760  1  0.289000  0.992100  0.393300  1
  C  C761  1  0.755300  0.557500  0.915200  1
  C  C762  1  0.744700  0.057500  0.584800  1
  C  C763  1  0.244700  0.442500  0.084800  1
  C  C764  1  0.255300  0.942500  0.415200  1
  C  C765  1  0.902700  0.584400  0.948900  1
  C  C766  1  0.597300  0.084400  0.551100  1
  C  C767  1  0.097300  0.415600  0.051100  1
  C  C768  1  0.402700  0.915600  0.448900  1
  C  C769  1  0.939900  0.540400  0.917800  1
  C  C770  1  0.560100  0.040400  0.582200  1
  C  C771  1  0.060100  0.459600  0.082200  1
  C  C772  1  0.439900  0.959600  0.417800  1
  N  N773  1  0.675300  0.999060  0.930680  1
  N  N774  1  0.824700  0.499060  0.569320  1
  N  N775  1  0.324700  0.000940  0.069320  1
  N  N776  1  0.175300  0.500940  0.430680  1
  N  N777  1  0.729100  0.997640  0.837870  1
  N  N778  1  0.770900  0.497640  0.662130  1
  N  N779  1  0.270900  0.002360  0.162130  1
  N  N780  1  0.229100  0.502360  0.337870  1
  N  N781  1  0.542000  0.042140  0.790230  1
  N  N782  1  0.958000  0.542140  0.709770  1
  N  N783  1  0.458000  0.957860  0.209770  1
  N  N784  1  0.042000  0.457860  0.290230  1
  N  N785  1  0.491100  0.170460  0.722030  1
  N  N786  1  0.008900  0.670460  0.777970  1
  N  N787  1  0.508900  0.829540  0.277970  1
  N  N788  1  0.991100  0.329540  0.222030  1
  N  N789  1  0.521500  0.261340  0.731140  1
  N  N790  1  0.978500  0.761340  0.768860  1
  N  N791  1  0.478500  0.738660  0.268860  1
  N  N792  1  0.021500  0.238660  0.231140  1
  N  N793  1  0.656900  0.355170  0.820500  1
  N  N794  1  0.843100  0.855170  0.679500  1
  N  N795  1  0.343100  0.644830  0.179500  1
  N  N796  1  0.156900  0.144830  0.320500  1
  N  N797  1  0.536500  0.456510  0.732540  1
  N  N798  1  0.963500  0.956510  0.767460  1
  N  N799  1  0.463500  0.543490  0.267460  1
  N  N800  1  0.036500  0.043490  0.232540  1
  N  N801  1  0.513200  0.547650  0.722850  1
  N  N802  1  0.986800  0.047650  0.777150  1
  N  N803  1  0.486800  0.452350  0.277150  1
  N  N804  1  0.013200  0.952350  0.222850  1
  N  N805  1  0.552600  0.677330  0.791130  1
  N  N806  1  0.947400  0.177330  0.708870  1
  N  N807  1  0.447400  0.322670  0.208870  1
  N  N808  1  0.052600  0.822670  0.291130  1
  N  N809  1  0.730900  0.730190  0.839680  1
  N  N810  1  0.769100  0.230190  0.660320  1
  N  N811  1  0.269100  0.269810  0.160320  1
  N  N812  1  0.230900  0.769810  0.339680  1
  N  N813  1  0.673200  0.725440  0.932480  1
  N  N814  1  0.826800  0.225440  0.567520  1
  N  N815  1  0.326800  0.274560  0.067520  1
  N  N816  1  0.173200  0.774560  0.432480  1
  N  N817  1  0.493700  0.673080  0.883420  1
  N  N818  1  0.006300  0.173080  0.616580  1
  N  N819  1  0.506300  0.326920  0.116580  1
  N  N820  1  0.993700  0.826920  0.383420  1
  N  N821  1  0.403200  0.543690  0.923220  1
  N  N822  1  0.096800  0.043690  0.576780  1
  N  N823  1  0.596800  0.456310  0.076780  1
  N  N824  1  0.903200  0.956310  0.423220  1
  N  N825  1  0.439700  0.454130  0.934170  1
  N  N826  1  0.060300  0.954130  0.565830  1
  N  N827  1  0.560300  0.545870  0.065830  1
  N  N828  1  0.939700  0.045870  0.434170  1
  N  N829  1  0.614300  0.352050  0.914490  1
  N  N830  1  0.885700  0.852050  0.585510  1
  N  N831  1  0.385700  0.647950  0.085510  1
  N  N832  1  0.114300  0.147950  0.414490  1
  N  N833  1  0.418900  0.261040  0.919910  1
  N  N834  1  0.081100  0.761040  0.580090  1
  N  N835  1  0.581100  0.738960  0.080090  1
  N  N836  1  0.918900  0.238960  0.419910  1
  N  N837  1  0.382500  0.170720  0.912870  1
  N  N838  1  0.117500  0.670720  0.587130  1
  N  N839  1  0.617500  0.829280  0.087130  1
  N  N840  1  0.882500  0.329280  0.412870  1
  N  N841  1  0.489000  0.042990  0.883900  1
  N  N842  1  0.011000  0.542990  0.616100  1
  N  N843  1  0.511000  0.957010  0.116100  1
  N  N844  1  0.989000  0.457010  0.383900  1
  N  N845  1  0.819600  0.338670  0.960300  1
  N  N846  1  0.680400  0.838670  0.539700  1
  N  N847  1  0.180400  0.661330  0.039700  1
  N  N848  1  0.319600  0.161330  0.460300  1
  N  N849  1  0.863900  0.349850  0.865070  1
  N  N850  1  0.636100  0.849850  0.634930  1
  N  N851  1  0.136100  0.650150  0.134930  1
  N  N852  1  0.363900  0.150150  0.365070  1
  N  N853  1  0.466500  0.222800  0.602630  1
  N  N854  1  0.033500  0.722800  0.897370  1
  N  N855  1  0.533500  0.777200  0.397370  1
  N  N856  1  0.966500  0.277200  0.102630  1
  N  N857  1  0.335600  0.736700  0.589300  1
  N  N858  1  0.164400  0.236700  0.910700  1
  N  N859  1  0.664400  0.263300  0.410700  1
  N  N860  1  0.835600  0.763300  0.089300  1
  N  N861  1  0.312100  0.971500  0.578000  1
  N  N862  1  0.187900  0.471500  0.922000  1
  N  N863  1  0.687900  0.028500  0.422000  1
  N  N864  1  0.812100  0.528500  0.078000  1
  N  N865  1  0.730300  0.180900  0.861100  1
  N  N866  1  0.769700  0.680900  0.638900  1
  N  N867  1  0.269700  0.819100  0.138900  1
  N  N868  1  0.230300  0.319100  0.361100  1
  N  N869  1  0.977000  0.357500  0.678400  1
  N  N870  1  0.523000  0.857500  0.821600  1
  N  N871  1  0.023000  0.642500  0.321600  1
  N  N872  1  0.477000  0.142500  0.178400  1
  N  N873  1  0.412600  0.484500  0.607430  1
  N  N874  1  0.087400  0.984500  0.892570  1
  N  N875  1  0.587400  0.515500  0.392570  1
  N  N876  1  0.912600  0.015500  0.107430  1
  O  O877  1  0.535200  0.197910  0.932880  1
  O  O878  1  0.964800  0.697910  0.567120  1
  O  O879  1  0.464800  0.802090  0.067120  1
  O  O880  1  0.035200  0.302090  0.432880  1
  O  O881  1  0.551900  0.514190  0.922400  1
  O  O882  1  0.948100  0.014190  0.577600  1
  O  O883  1  0.448100  0.485810  0.077600  1
  O  O884  1  0.051900  0.985810  0.422400  1
  O  O885  1  0.596700  0.514160  0.795370  1
  O  O886  1  0.903300  0.014160  0.704630  1
  O  O887  1  0.403300  0.485840  0.204630  1
  O  O888  1  0.096700  0.985840  0.295370  1
  O  O889  1  0.528100  0.207870  0.800390  1
  O  O890  1  0.971900  0.707870  0.699610  1
  O  O891  1  0.471900  0.792130  0.199610  1
  O  O892  1  0.028100  0.292130  0.300390  1
  O  O893  1  0.149700  0.396900  0.576700  1
  O  O894  1  0.350300  0.896900  0.923300  1
  O  O895  1  0.850300  0.603100  0.423300  1
  O  O896  1  0.649700  0.103100  0.076700  1
  O  O897  1  0.240800  0.297560  0.576300  1
  O  O898  1  0.259200  0.797560  0.923700  1
  O  O899  1  0.759200  0.702440  0.423700  1
  O  O900  1  0.740800  0.202440  0.076300  1
  O  O901  1  0.875500  0.496000  0.936800  1
  O  O902  1  0.624500  0.996000  0.563200  1
  O  O903  1  0.124500  0.504000  0.063200  1
  O  O904  1  0.375500  0.004000  0.436800  1
  O  O905  1  0.832900  0.595100  0.893700  1
  O  O906  1  0.667100  0.095100  0.606300  1
  O  O907  1  0.167100  0.404900  0.106300  1
  O  O908  1  0.332900  0.904900  0.393700  1
  O  O909  1  0.170700  0.114100  0.716500  1
  O  O910  1  0.329300  0.614100  0.783500  1
  O  O911  1  0.829300  0.885900  0.283500  1
  O  O912  1  0.670700  0.385900  0.216500  1
  O  O913  1  0.312100  0.077700  0.784300  1
  O  O914  1  0.187900  0.577700  0.715700  1
  O  O915  1  0.687900  0.922300  0.215700  1
  O  O916  1  0.812100  0.422300  0.284300  1
  O  O917  1  0.423200  0.185100  0.617600  1
  O  O918  1  0.076800  0.685100  0.882400  1
  O  O919  1  0.576800  0.814900  0.382400  1
  O  O920  1  0.923200  0.314900  0.117600  1
  O  O921  1  0.485000  0.264700  0.628110  1
  O  O922  1  0.015000  0.764700  0.871890  1
  O  O923  1  0.515000  0.735300  0.371890  1
  O  O924  1  0.985000  0.235300  0.128110  1
  O  O925  1  0.491100  0.220200  0.562340  1
  O  O926  1  0.008900  0.720200  0.937660  1
  O  O927  1  0.508900  0.779800  0.437660  1
  O  O928  1  0.991100  0.279800  0.062340  1
  O  O929  1  0.312600  0.693300  0.606300  1
  O  O930  1  0.187400  0.193300  0.893700  1
  O  O931  1  0.687400  0.306700  0.393700  1
  O  O932  1  0.812600  0.806700  0.106300  1
  O  O933  1  0.274800  0.769500  0.573900  1
  O  O934  1  0.225200  0.269500  0.926100  1
  O  O935  1  0.725200  0.230500  0.426100  1
  O  O936  1  0.774800  0.730500  0.073900  1
  O  O937  1  0.417000  0.747600  0.591200  1
  O  O938  1  0.083000  0.247600  0.908800  1
  O  O939  1  0.583000  0.252400  0.408800  1
  O  O940  1  0.917000  0.752400  0.091200  1
  O  O941  1  0.392400  0.955900  0.589200  1
  O  O942  1  0.107600  0.455900  0.910800  1
  O  O943  1  0.607600  0.044100  0.410800  1
  O  O944  1  0.892400  0.544100  0.089200  1
  O  O945  1  0.248300  0.940900  0.556100  1
  O  O946  1  0.251700  0.440900  0.943900  1
  O  O947  1  0.751700  0.059100  0.443900  1
  O  O948  1  0.748300  0.559100  0.056100  1
  O  O949  1  0.291200  0.017400  0.587600  1
  O  O950  1  0.208800  0.517400  0.912400  1
  O  O951  1  0.708800  0.982600  0.412400  1
  O  O952  1  0.791200  0.482600  0.087600  1
  O  O953  1  0.705200  0.137300  0.879500  1
  O  O954  1  0.794800  0.637300  0.620500  1
  O  O955  1  0.294800  0.862700  0.120500  1
  O  O956  1  0.205200  0.362700  0.379500  1
  O  O957  1  0.734400  0.223710  0.885000  1
  O  O958  1  0.765600  0.723710  0.615000  1
  O  O959  1  0.265600  0.776290  0.115000  1
  O  O960  1  0.234400  0.276290  0.385000  1
  O  O961  1  0.743900  0.180900  0.817200  1
  O  O962  1  0.756100  0.680900  0.682800  1
  O  O963  1  0.256100  0.819100  0.182800  1
  O  O964  1  0.243900  0.319100  0.317200  1
  O  O965  1  0.993700  0.313460  0.664500  1
  O  O966  1  0.506300  0.813460  0.835500  1
  O  O967  1  0.006300  0.686540  0.335500  1
  O  O968  1  0.493700  0.186540  0.164500  1
  O  O969  1  0.966000  0.360900  0.724700  1
  O  O970  1  0.534000  0.860900  0.775300  1
  O  O971  1  0.034000  0.639100  0.275300  1
  O  O972  1  0.466000  0.139100  0.224700  1
  O  O973  1  0.980100  0.398100  0.659900  1
  O  O974  1  0.519900  0.898100  0.840100  1
  O  O975  1  0.019900  0.601900  0.340100  1
  O  O976  1  0.480100  0.101900  0.159900  1
  O  O977  1  0.444800  0.448000  0.633400  1
  O  O978  1  0.055200  0.948000  0.866600  1
  O  O979  1  0.555200  0.552000  0.366600  1
  O  O980  1  0.944800  0.052000  0.133400  1
  O  O981  1  0.418200  0.526900  0.625800  1
  O  O982  1  0.081800  0.026900  0.874200  1
  O  O983  1  0.581800  0.473100  0.374200  1
  O  O984  1  0.918200  0.973100  0.125800  1
  O  O985  1  0.370200  0.478300  0.564960  1
  O  O986  1  0.129800  0.978300  0.935040  1
  O  O987  1  0.629800  0.521700  0.435040  1
  O  O988  1  0.870200  0.021700  0.064960  1
  O  O989  1  0.881000  0.496400  0.911400  1
  O  O990  1  0.619000  0.996400  0.588600  1
  O  O991  1  0.119000  0.503600  0.088600  1
  O  O992  1  0.381000  0.003600  0.411400  1
  O  O993  1  0.818000  0.599200  0.926100  1
  O  O994  1  0.682000  0.099200  0.573900  1
  O  O995  1  0.182000  0.400800  0.073900  1
  O  O996  1  0.318000  0.900800  0.426100  1
