# generated using pymatgen
data_H54Pd3C64(N3O4)10
_symmetry_space_group_name_H-M   'P 1'
_cell_length_a   25.36792420
_cell_length_b   25.36792420
_cell_length_c   25.36792420
_cell_angle_alpha   94.77327500
_cell_angle_beta   94.77327500
_cell_angle_gamma   94.77327500
_symmetry_Int_Tables_number   1
_chemical_formula_structural   H54Pd3C64(N3O4)10
_chemical_formula_sum   'H324 Pd18 C384 N180 O240'
_cell_volume   16145.09979186
_cell_formula_units_Z   6
loop_
 _symmetry_equiv_pos_site_id
 _symmetry_equiv_pos_as_xyz
  1  'x, y, z'
loop_
 _atom_site_type_symbol
 _atom_site_label
 _atom_site_symmetry_multiplicity
 _atom_site_fract_x
 _atom_site_fract_y
 _atom_site_fract_z
 _atom_site_occupancy
  C  C1  1  0.686700  0.435600  0.564700  1
  C  C2  1  0.564700  0.686700  0.435600  1
  C  C3  1  0.435600  0.564700  0.686700  1
  C  C4  1  0.313300  0.564400  0.435300  1
  C  C5  1  0.435300  0.313300  0.564400  1
  C  C6  1  0.564400  0.435300  0.313300  1
  C  C7  1  0.668800  0.475900  0.535700  1
  C  C8  1  0.535700  0.668800  0.475900  1
  C  C9  1  0.475900  0.535700  0.668800  1
  C  C10  1  0.331200  0.524100  0.464300  1
  C  C11  1  0.464300  0.331200  0.524100  1
  C  C12  1  0.524100  0.464300  0.331200  1
  C  C13  1  0.700700  0.523200  0.535700  1
  C  C14  1  0.535700  0.700700  0.523200  1
  C  C15  1  0.523200  0.535700  0.700700  1
  C  C16  1  0.299300  0.476800  0.464300  1
  C  C17  1  0.464300  0.299300  0.476800  1
  C  C18  1  0.476800  0.464300  0.299300  1
  C  C19  1  0.750200  0.530200  0.564400  1
  C  C20  1  0.564400  0.750200  0.530200  1
  C  C21  1  0.530200  0.564400  0.750200  1
  C  C22  1  0.249800  0.469800  0.435600  1
  C  C23  1  0.435600  0.249800  0.469800  1
  C  C24  1  0.469800  0.435600  0.249800  1
  C  C25  1  0.767900  0.490000  0.593200  1
  C  C26  1  0.593200  0.767900  0.490000  1
  C  C27  1  0.490000  0.593200  0.767900  1
  C  C28  1  0.232100  0.510000  0.406800  1
  C  C29  1  0.406800  0.232100  0.510000  1
  C  C30  1  0.510000  0.406800  0.232100  1
  C  C31  1  0.818000  0.494000  0.623400  1
  C  C32  1  0.623400  0.818000  0.494000  1
  C  C33  1  0.494000  0.623400  0.818000  1
  C  C34  1  0.182000  0.506000  0.376600  1
  C  C35  1  0.376600  0.182000  0.506000  1
  C  C36  1  0.506000  0.376600  0.182000  1
  C  C37  1  0.853500  0.531900  0.628900  1
  C  C38  1  0.628900  0.853500  0.531900  1
  C  C39  1  0.531900  0.628900  0.853500  1
  C  C40  1  0.146500  0.468100  0.371100  1
  C  C41  1  0.371100  0.146500  0.468100  1
  C  C42  1  0.468100  0.371100  0.146500  1
  C  C43  1  0.898000  0.534700  0.664100  1
  C  C44  1  0.664100  0.898000  0.534700  1
  C  C45  1  0.534700  0.664100  0.898000  1
  C  C46  1  0.102000  0.465300  0.335900  1
  C  C47  1  0.335900  0.102000  0.465300  1
  C  C48  1  0.465300  0.335900  0.102000  1
  C  C49  1  0.907100  0.492800  0.688800  1
  C  C50  1  0.688800  0.907100  0.492800  1
  C  C51  1  0.492800  0.688800  0.907100  1
  C  C52  1  0.092900  0.507200  0.311200  1
  C  C53  1  0.311200  0.092900  0.507200  1
  C  C54  1  0.507200  0.311200  0.092900  1
  C  C55  1  0.870900  0.449400  0.683500  1
  C  C56  1  0.683500  0.870900  0.449400  1
  C  C57  1  0.449400  0.683500  0.870900  1
  C  C58  1  0.129100  0.550600  0.316500  1
  C  C59  1  0.316500  0.129100  0.550600  1
  C  C60  1  0.550600  0.316500  0.129100  1
  C  C61  1  0.845780  0.312000  0.653450  1
  C  C62  1  0.653450  0.845780  0.312000  1
  C  C63  1  0.312000  0.653450  0.845780  1
  C  C64  1  0.154220  0.688000  0.346550  1
  C  C65  1  0.346550  0.154220  0.688000  1
  C  C66  1  0.688000  0.346550  0.154220  1
  C  C67  1  0.873660  0.276820  0.681690  1
  C  C68  1  0.681690  0.873660  0.276820  1
  C  C69  1  0.276820  0.681690  0.873660  1
  C  C70  1  0.126340  0.723180  0.318310  1
  C  C71  1  0.318310  0.126340  0.723180  1
  C  C72  1  0.723180  0.318310  0.126340  1
  C  C73  1  0.862280  0.268220  0.733050  1
  C  C74  1  0.733050  0.862280  0.268220  1
  C  C75  1  0.268220  0.733050  0.862280  1
  C  C76  1  0.137720  0.731780  0.266950  1
  C  C77  1  0.266950  0.137720  0.731780  1
  C  C78  1  0.731780  0.266950  0.137720  1
  C  C79  1  0.823030  0.294690  0.756270  1
  C  C80  1  0.756270  0.823030  0.294690  1
  C  C81  1  0.294690  0.756270  0.823030  1
  C  C82  1  0.176970  0.705310  0.243730  1
  C  C83  1  0.243730  0.176970  0.705310  1
  C  C84  1  0.705310  0.243730  0.176970  1
  C  C85  1  0.795160  0.329810  0.728080  1
  C  C86  1  0.728080  0.795160  0.329810  1
  C  C87  1  0.329810  0.728080  0.795160  1
  C  C88  1  0.204840  0.670190  0.271920  1
  C  C89  1  0.271920  0.204840  0.670190  1
  C  C90  1  0.670190  0.271920  0.204840  1
  C  C91  1  0.774300  0.301800  0.838000  1
  C  C92  1  0.838000  0.774300  0.301800  1
  C  C93  1  0.301800  0.838000  0.774300  1
  C  C94  1  0.225700  0.698200  0.162000  1
  C  C95  1  0.162000  0.225700  0.698200  1
  C  C96  1  0.698200  0.162000  0.225700  1
  C  C97  1  0.729470  0.283270  0.917170  1
  C  C98  1  0.917170  0.729470  0.283270  1
  C  C99  1  0.283270  0.917170  0.729470  1
  C  C100  1  0.270530  0.716730  0.082830  1
  C  C101  1  0.082830  0.270530  0.716730  1
  C  C102  1  0.716730  0.082830  0.270530  1
  C  C103  1  0.722130  0.244630  0.953430  1
  C  C104  1  0.953430  0.722130  0.244630  1
  C  C105  1  0.244630  0.953430  0.722130  1
  C  C106  1  0.277870  0.755370  0.046570  1
  C  C107  1  0.046570  0.277870  0.755370  1
  C  C108  1  0.755370  0.046570  0.277870  1
  C  C109  1  0.681530  0.245730  0.986630  1
  C  C110  1  0.986630  0.681530  0.245730  1
  C  C111  1  0.245730  0.986630  0.681530  1
  C  C112  1  0.318470  0.754270  0.013370  1
  C  C113  1  0.013370  0.318470  0.754270  1
  C  C114  1  0.754270  0.013370  0.318470  1
  C  C115  1  0.649070  0.285970  0.982270  1
  C  C116  1  0.982270  0.649070  0.285970  1
  C  C117  1  0.285970  0.982270  0.649070  1
  C  C118  1  0.350930  0.714030  0.017730  1
  C  C119  1  0.017730  0.350930  0.714030  1
  C  C120  1  0.714030  0.017730  0.350930  1
  C  C121  1  0.694970  0.322070  0.916470  1
  C  C122  1  0.916470  0.694970  0.322070  1
  C  C123  1  0.322070  0.916470  0.694970  1
  C  C124  1  0.305030  0.677930  0.083530  1
  C  C125  1  0.083530  0.305030  0.677930  1
  C  C126  1  0.677930  0.083530  0.305030  1
  C  C127  1  0.638660  0.199860  0.055060  1
  C  C128  1  0.055060  0.638660  0.199860  1
  C  C129  1  0.199860  0.055060  0.638660  1
  C  C130  1  0.361340  0.800140  0.944940  1
  C  C131  1  0.944940  0.361340  0.800140  1
  C  C132  1  0.800140  0.944940  0.361340  1
  C  C133  1  0.559810  0.161930  0.125490  1
  C  C134  1  0.125490  0.559810  0.161930  1
  C  C135  1  0.161930  0.125490  0.559810  1
  C  C136  1  0.440190  0.838070  0.874510  1
  C  C137  1  0.874510  0.440190  0.838070  1
  C  C138  1  0.838070  0.874510  0.440190  1
  C  C139  1  0.603100  0.134560  0.113260  1
  C  C140  1  0.113260  0.603100  0.134560  1
  C  C141  1  0.134560  0.113260  0.603100  1
  C  C142  1  0.396900  0.865440  0.886740  1
  C  C143  1  0.886740  0.396900  0.865440  1
  C  C144  1  0.865440  0.886740  0.396900  1
  C  C145  1  0.612950  0.088770  0.137560  1
  C  C146  1  0.137560  0.612950  0.088770  1
  C  C147  1  0.088770  0.137560  0.612950  1
  C  C148  1  0.387050  0.911230  0.862440  1
  C  C149  1  0.862440  0.387050  0.911230  1
  C  C150  1  0.911230  0.862440  0.387050  1
  C  C151  1  0.579550  0.070350  0.174050  1
  C  C152  1  0.174050  0.579550  0.070350  1
  C  C153  1  0.070350  0.174050  0.579550  1
  C  C154  1  0.420450  0.929650  0.825950  1
  C  C155  1  0.825950  0.420450  0.929650  1
  C  C156  1  0.929650  0.825950  0.420450  1
  C  C157  1  0.536220  0.097760  0.186280  1
  C  C158  1  0.186280  0.536220  0.097760  1
  C  C159  1  0.097760  0.186280  0.536220  1
  C  C160  1  0.463780  0.902240  0.813720  1
  C  C161  1  0.813720  0.463780  0.902240  1
  C  C162  1  0.902240  0.813720  0.463780  1
  C  C163  1  0.542000  0.222300  0.263200  1
  C  C164  1  0.263200  0.542000  0.222300  1
  C  C165  1  0.222300  0.263200  0.542000  1
  C  C166  1  0.458000  0.777700  0.736800  1
  C  C167  1  0.736800  0.458000  0.777700  1
  C  C168  1  0.777700  0.736800  0.458000  1
  C  C169  1  0.559100  0.253400  0.311600  1
  C  C170  1  0.311600  0.559100  0.253400  1
  C  C171  1  0.253400  0.311600  0.559100  1
  C  C172  1  0.440900  0.746600  0.688400  1
  C  C173  1  0.688400  0.440900  0.746600  1
  C  C174  1  0.746600  0.688400  0.440900  1
  C  C175  1  0.528900  0.291600  0.329700  1
  C  C176  1  0.329700  0.528900  0.291600  1
  C  C177  1  0.291600  0.329700  0.528900  1
  C  C178  1  0.471100  0.708400  0.670300  1
  C  C179  1  0.670300  0.471100  0.708400  1
  C  C180  1  0.708400  0.670300  0.471100  1
  C  C181  1  0.480100  0.296000  0.304800  1
  C  C182  1  0.304800  0.480100  0.296000  1
  C  C183  1  0.296000  0.304800  0.480100  1
  C  C184  1  0.519900  0.704000  0.695200  1
  C  C185  1  0.695200  0.519900  0.704000  1
  C  C186  1  0.704000  0.695200  0.519900  1
  C  C187  1  0.463500  0.265300  0.257900  1
  C  C188  1  0.257900  0.463500  0.265300  1
  C  C189  1  0.265300  0.257900  0.463500  1
  C  C190  1  0.536500  0.734700  0.742100  1
  C  C191  1  0.742100  0.536500  0.734700  1
  C  C192  1  0.734700  0.742100  0.536500  1
  C  C193  1  0.414260  0.269160  0.227560  1
  C  C194  1  0.227560  0.414260  0.269160  1
  C  C195  1  0.269160  0.227560  0.414260  1
  C  C196  1  0.585740  0.730840  0.772440  1
  C  C197  1  0.772440  0.585740  0.730840  1
  C  C198  1  0.730840  0.772440  0.585740  1
  C  C199  1  0.377600  0.305200  0.238800  1
  C  C200  1  0.238800  0.377600  0.305200  1
  C  C201  1  0.305200  0.238800  0.377600  1
  C  C202  1  0.622400  0.694800  0.761200  1
  C  C203  1  0.761200  0.622400  0.694800  1
  C  C204  1  0.694800  0.761200  0.622400  1
  C  C205  1  0.331900  0.306000  0.204500  1
  C  C206  1  0.204500  0.331900  0.306000  1
  C  C207  1  0.306000  0.204500  0.331900  1
  C  C208  1  0.668100  0.694000  0.795500  1
  C  C209  1  0.795500  0.668100  0.694000  1
  C  C210  1  0.694000  0.795500  0.668100  1
  C  C211  1  0.323100  0.270800  0.159100  1
  C  C212  1  0.159100  0.323100  0.270800  1
  C  C213  1  0.270800  0.159100  0.323100  1
  C  C214  1  0.676900  0.729200  0.840900  1
  C  C215  1  0.840900  0.676900  0.729200  1
  C  C216  1  0.729200  0.840900  0.676900  1
  C  C217  1  0.359870  0.234670  0.147870  1
  C  C218  1  0.147870  0.359870  0.234670  1
  C  C219  1  0.234670  0.147870  0.359870  1
  C  C220  1  0.640130  0.765330  0.852130  1
  C  C221  1  0.852130  0.640130  0.765330  1
  C  C222  1  0.765330  0.852130  0.640130  1
  C  C223  1  0.399800  0.098700  0.105400  1
  C  C224  1  0.105400  0.399800  0.098700  1
  C  C225  1  0.098700  0.105400  0.399800  1
  C  C226  1  0.600200  0.901300  0.894600  1
  C  C227  1  0.894600  0.600200  0.901300  1
  C  C228  1  0.901300  0.894600  0.600200  1
  C  C229  1  0.379600  0.067500  0.059000  1
  C  C230  1  0.059000  0.379600  0.067500  1
  C  C231  1  0.067500  0.059000  0.379600  1
  C  C232  1  0.620400  0.932500  0.941000  1
  C  C233  1  0.941000  0.620400  0.932500  1
  C  C234  1  0.932500  0.941000  0.620400  1
  C  C235  1  0.390800  0.085000  0.009900  1
  C  C236  1  0.009900  0.390800  0.085000  1
  C  C237  1  0.085000  0.009900  0.390800  1
  C  C238  1  0.609200  0.915000  0.990100  1
  C  C239  1  0.990100  0.609200  0.915000  1
  C  C240  1  0.915000  0.990100  0.609200  1
  C  C241  1  0.420100  0.133400  0.009900  1
  C  C242  1  0.009900  0.420100  0.133400  1
  C  C243  1  0.133400  0.009900  0.420100  1
  C  C244  1  0.579900  0.866600  0.990100  1
  C  C245  1  0.990100  0.579900  0.866600  1
  C  C246  1  0.866600  0.990100  0.579900  1
  C  C247  1  0.441000  0.161900  0.058300  1
  C  C248  1  0.058300  0.441000  0.161900  1
  C  C249  1  0.161900  0.058300  0.441000  1
  C  C250  1  0.559000  0.838100  0.941700  1
  C  C251  1  0.941700  0.559000  0.838100  1
  C  C252  1  0.838100  0.941700  0.559000  1
  C  C253  1  0.462470  0.194570  0.951570  1
  C  C254  1  0.951570  0.462470  0.194570  1
  C  C255  1  0.194570  0.951570  0.462470  1
  C  C256  1  0.537530  0.805430  0.048430  1
  C  C257  1  0.048430  0.537530  0.805430  1
  C  C258  1  0.805430  0.048430  0.537530  1
  C  C259  1  0.501290  0.238090  0.879790  1
  C  C260  1  0.879790  0.501290  0.238090  1
  C  C261  1  0.238090  0.879790  0.501290  1
  C  C262  1  0.498710  0.761910  0.120210  1
  C  C263  1  0.120210  0.498710  0.761910  1
  C  C264  1  0.761910  0.120210  0.498710  1
  C  C265  1  0.512790  0.231490  0.826890  1
  C  C266  1  0.826890  0.512790  0.231490  1
  C  C267  1  0.231490  0.826890  0.512790  1
  C  C268  1  0.487210  0.768510  0.173110  1
  C  C269  1  0.173110  0.487210  0.768510  1
  C  C270  1  0.768510  0.173110  0.487210  1
  C  C271  1  0.546800  0.267100  0.807400  1
  C  C272  1  0.807400  0.546800  0.267100  1
  C  C273  1  0.267100  0.807400  0.546800  1
  C  C274  1  0.453200  0.732900  0.192600  1
  C  C275  1  0.192600  0.453200  0.732900  1
  C  C276  1  0.732900  0.192600  0.453200  1
  C  C277  1  0.569870  0.312870  0.839570  1
  C  C278  1  0.839570  0.569870  0.312870  1
  C  C279  1  0.312870  0.839570  0.569870  1
  C  C280  1  0.430130  0.687130  0.160430  1
  C  C281  1  0.160430  0.430130  0.687130  1
  C  C282  1  0.687130  0.160430  0.430130  1
  C  C283  1  0.526530  0.283430  0.910730  1
  C  C284  1  0.910730  0.526530  0.283430  1
  C  C285  1  0.283430  0.910730  0.526530  1
  C  C286  1  0.473470  0.716570  0.089270  1
  C  C287  1  0.089270  0.473470  0.716570  1
  C  C288  1  0.716570  0.089270  0.473470  1
  C  C289  1  0.595540  0.284040  0.728940  1
  C  C290  1  0.728940  0.595540  0.284040  1
  C  C291  1  0.284040  0.728940  0.595540  1
  C  C292  1  0.404460  0.715960  0.271060  1
  C  C293  1  0.271060  0.404460  0.715960  1
  C  C294  1  0.715960  0.271060  0.404460  1
  C  C295  1  0.632800  0.277700  0.641200  1
  C  C296  1  0.641200  0.632800  0.277700  1
  C  C297  1  0.277700  0.641200  0.632800  1
  C  C298  1  0.367200  0.722300  0.358800  1
  C  C299  1  0.358800  0.367200  0.722300  1
  C  C300  1  0.722300  0.358800  0.367200  1
  C  C301  1  0.620800  0.260000  0.586000  1
  C  C302  1  0.586000  0.620800  0.260000  1
  C  C303  1  0.260000  0.586000  0.620800  1
  C  C304  1  0.379200  0.740000  0.414000  1
  C  C305  1  0.414000  0.379200  0.740000  1
  C  C306  1  0.740000  0.414000  0.379200  1
  C  C307  1  0.655600  0.274200  0.551400  1
  C  C308  1  0.551400  0.655600  0.274200  1
  C  C309  1  0.274200  0.551400  0.655600  1
  C  C310  1  0.344400  0.725800  0.448600  1
  C  C311  1  0.448600  0.344400  0.725800  1
  C  C312  1  0.725800  0.448600  0.344400  1
  C  C313  1  0.699700  0.312600  0.566700  1
  C  C314  1  0.566700  0.699700  0.312600  1
  C  C315  1  0.312600  0.566700  0.699700  1
  C  C316  1  0.300300  0.687400  0.433300  1
  C  C317  1  0.433300  0.300300  0.687400  1
  C  C318  1  0.687400  0.433300  0.300300  1
  C  C319  1  0.673900  0.319600  0.650600  1
  C  C320  1  0.650600  0.673900  0.319600  1
  C  C321  1  0.319600  0.650600  0.673900  1
  C  C322  1  0.326100  0.680400  0.349400  1
  C  C323  1  0.349400  0.326100  0.680400  1
  C  C324  1  0.680400  0.349400  0.326100  1
  C  C325  1  0.689260  0.431660  0.017460  1
  C  C326  1  0.017460  0.689260  0.431660  1
  C  C327  1  0.431660  0.017460  0.689260  1
  C  C328  1  0.310740  0.568340  0.982540  1
  C  C329  1  0.982540  0.310740  0.568340  1
  C  C330  1  0.568340  0.982540  0.310740  1
  C  C331  1  0.714740  0.472240  0.047640  1
  C  C332  1  0.047640  0.714740  0.472240  1
  C  C333  1  0.472240  0.047640  0.714740  1
  C  C334  1  0.285260  0.527760  0.952360  1
  C  C335  1  0.952360  0.285260  0.527760  1
  C  C336  1  0.527760  0.952360  0.285260  1
  C  C337  1  0.693800  0.519200  0.050000  1
  C  C338  1  0.050000  0.693800  0.519200  1
  C  C339  1  0.519200  0.050000  0.693800  1
  C  C340  1  0.306200  0.480800  0.950000  1
  C  C341  1  0.950000  0.306200  0.480800  1
  C  C342  1  0.480800  0.950000  0.306200  1
  C  C343  1  0.644970  0.525170  0.021970  1
  C  C344  1  0.021970  0.644970  0.525170  1
  C  C345  1  0.525170  0.021970  0.644970  1
  C  C346  1  0.355030  0.474830  0.978030  1
  C  C347  1  0.978030  0.355030  0.474830  1
  C  C348  1  0.474830  0.978030  0.355030  1
  C  C349  1  0.620540  0.481240  0.990640  1
  C  C350  1  0.990640  0.620540  0.481240  1
  C  C351  1  0.481240  0.990640  0.620540  1
  C  C352  1  0.379460  0.518760  0.009360  1
  C  C353  1  0.009360  0.379460  0.518760  1
  C  C354  1  0.518760  0.009360  0.379460  1
  C  C355  1  0.569200  0.480800  0.957400  1
  C  C356  1  0.957400  0.569200  0.480800  1
  C  C357  1  0.480800  0.957400  0.569200  1
  C  C358  1  0.430800  0.519200  0.042600  1
  C  C359  1  0.042600  0.430800  0.519200  1
  C  C360  1  0.519200  0.042600  0.430800  1
  C  C361  1  0.539600  0.524800  0.953800  1
  C  C362  1  0.953800  0.539600  0.524800  1
  C  C363  1  0.524800  0.953800  0.539600  1
  C  C364  1  0.460400  0.475200  0.046200  1
  C  C365  1  0.046200  0.460400  0.475200  1
  C  C366  1  0.475200  0.046200  0.460400  1
  C  C367  1  0.492700  0.518600  0.924400  1
  C  C368  1  0.924400  0.492700  0.518600  1
  C  C369  1  0.518600  0.924400  0.492700  1
  C  C370  1  0.507300  0.481400  0.075600  1
  C  C371  1  0.075600  0.507300  0.481400  1
  C  C372  1  0.481400  0.075600  0.507300  1
  C  C373  1  0.474500  0.471000  0.899300  1
  C  C374  1  0.899300  0.474500  0.471000  1
  C  C375  1  0.471000  0.899300  0.474500  1
  C  C376  1  0.525500  0.529000  0.100700  1
  C  C377  1  0.100700  0.525500  0.529000  1
  C  C378  1  0.529000  0.100700  0.525500  1
  C  C379  1  0.504440  0.428040  0.904340  1
  C  C380  1  0.904340  0.504440  0.428040  1
  C  C381  1  0.428040  0.904340  0.504440  1
  C  C382  1  0.495560  0.571960  0.095660  1
  C  C383  1  0.095660  0.495560  0.571960  1
  C  C384  1  0.571960  0.095660  0.495560  1
  H  H385  1  0.665300  0.403900  0.564700  1
  H  H386  1  0.564700  0.665300  0.403900  1
  H  H387  1  0.403900  0.564700  0.665300  1
  H  H388  1  0.334700  0.596100  0.435300  1
  H  H389  1  0.435300  0.334700  0.596100  1
  H  H390  1  0.596100  0.435300  0.334700  1
  H  H391  1  0.635700  0.471200  0.516500  1
  H  H392  1  0.516500  0.635700  0.471200  1
  H  H393  1  0.471200  0.516500  0.635700  1
  H  H394  1  0.364300  0.528800  0.483500  1
  H  H395  1  0.483500  0.364300  0.528800  1
  H  H396  1  0.528800  0.483500  0.364300  1
  H  H397  1  0.688700  0.550100  0.516300  1
  H  H398  1  0.516300  0.688700  0.550100  1
  H  H399  1  0.550100  0.516300  0.688700  1
  H  H400  1  0.311300  0.449900  0.483700  1
  H  H401  1  0.483700  0.311300  0.449900  1
  H  H402  1  0.449900  0.483700  0.311300  1
  H  H403  1  0.771500  0.561800  0.564300  1
  H  H404  1  0.564300  0.771500  0.561800  1
  H  H405  1  0.561800  0.564300  0.771500  1
  H  H406  1  0.228500  0.438200  0.435700  1
  H  H407  1  0.435700  0.228500  0.438200  1
  H  H408  1  0.438200  0.435700  0.228500  1
  H  H409  1  0.849500  0.559900  0.607900  1
  H  H410  1  0.607900  0.849500  0.559900  1
  H  H411  1  0.559900  0.607900  0.849500  1
  H  H412  1  0.150500  0.440100  0.392100  1
  H  H413  1  0.392100  0.150500  0.440100  1
  H  H414  1  0.440100  0.392100  0.150500  1
  H  H415  1  0.920900  0.565500  0.670100  1
  H  H416  1  0.670100  0.920900  0.565500  1
  H  H417  1  0.565500  0.670100  0.920900  1
  H  H418  1  0.079100  0.434500  0.329900  1
  H  H419  1  0.329900  0.079100  0.434500  1
  H  H420  1  0.434500  0.329900  0.079100  1
  H  H421  1  0.938500  0.492400  0.710300  1
  H  H422  1  0.710300  0.938500  0.492400  1
  H  H423  1  0.492400  0.710300  0.938500  1
  H  H424  1  0.061500  0.507600  0.289700  1
  H  H425  1  0.289700  0.061500  0.507600  1
  H  H426  1  0.507600  0.289700  0.061500  1
  H  H427  1  0.877300  0.420000  0.701700  1
  H  H428  1  0.701700  0.877300  0.420000  1
  H  H429  1  0.420000  0.701700  0.877300  1
  H  H430  1  0.122700  0.580000  0.298300  1
  H  H431  1  0.298300  0.122700  0.580000  1
  H  H432  1  0.580000  0.298300  0.122700  1
  H  H433  1  0.853400  0.317800  0.619000  1
  H  H434  1  0.619000  0.853400  0.317800  1
  H  H435  1  0.317800  0.619000  0.853400  1
  H  H436  1  0.146600  0.682200  0.381000  1
  H  H437  1  0.381000  0.146600  0.682200  1
  H  H438  1  0.682200  0.381000  0.146600  1
  H  H439  1  0.900000  0.259200  0.666100  1
  H  H440  1  0.666100  0.900000  0.259200  1
  H  H441  1  0.259200  0.666100  0.900000  1
  H  H442  1  0.100000  0.740800  0.333900  1
  H  H443  1  0.333900  0.100000  0.740800  1
  H  H444  1  0.740800  0.333900  0.100000  1
  H  H445  1  0.880900  0.244700  0.751900  1
  H  H446  1  0.751900  0.880900  0.244700  1
  H  H447  1  0.244700  0.751900  0.880900  1
  H  H448  1  0.119100  0.755300  0.248100  1
  H  H449  1  0.248100  0.119100  0.755300  1
  H  H450  1  0.755300  0.248100  0.119100  1
  H  H451  1  0.768900  0.347600  0.743600  1
  H  H452  1  0.743600  0.768900  0.347600  1
  H  H453  1  0.347600  0.743600  0.768900  1
  H  H454  1  0.231100  0.652400  0.256400  1
  H  H455  1  0.256400  0.231100  0.652400  1
  H  H456  1  0.652400  0.256400  0.231100  1
  H  H457  1  0.745000  0.218000  0.955000  1
  H  H458  1  0.955000  0.745000  0.218000  1
  H  H459  1  0.218000  0.955000  0.745000  1
  H  H460  1  0.255000  0.782000  0.045000  1
  H  H461  1  0.045000  0.255000  0.782000  1
  H  H462  1  0.782000  0.045000  0.255000  1
  H  H463  1  0.621500  0.287800  0.004200  1
  H  H464  1  0.004200  0.621500  0.287800  1
  H  H465  1  0.287800  0.004200  0.621500  1
  H  H466  1  0.378500  0.712200  0.995800  1
  H  H467  1  0.995800  0.378500  0.712200  1
  H  H468  1  0.712200  0.995800  0.378500  1
  H  H469  1  0.699400  0.348600  0.893700  1
  H  H470  1  0.893700  0.699400  0.348600  1
  H  H471  1  0.348600  0.893700  0.699400  1
  H  H472  1  0.300600  0.651400  0.106300  1
  H  H473  1  0.106300  0.300600  0.651400  1
  H  H474  1  0.651400  0.106300  0.300600  1
  H  H475  1  0.553200  0.192600  0.109200  1
  H  H476  1  0.109200  0.553200  0.192600  1
  H  H477  1  0.192600  0.109200  0.553200  1
  H  H478  1  0.446800  0.807400  0.890800  1
  H  H479  1  0.890800  0.446800  0.807400  1
  H  H480  1  0.807400  0.890800  0.446800  1
  H  H481  1  0.641900  0.070500  0.129400  1
  H  H482  1  0.129400  0.641900  0.070500  1
  H  H483  1  0.070500  0.129400  0.641900  1
  H  H484  1  0.358100  0.929500  0.870600  1
  H  H485  1  0.870600  0.358100  0.929500  1
  H  H486  1  0.929500  0.870600  0.358100  1
  H  H487  1  0.586100  0.039800  0.190400  1
  H  H488  1  0.190400  0.586100  0.039800  1
  H  H489  1  0.039800  0.190400  0.586100  1
  H  H490  1  0.413900  0.960200  0.809600  1
  H  H491  1  0.809600  0.413900  0.960200  1
  H  H492  1  0.960200  0.809600  0.413900  1
  H  H493  1  0.513800  0.085500  0.210700  1
  H  H494  1  0.210700  0.513800  0.085500  1
  H  H495  1  0.085500  0.210700  0.513800  1
  H  H496  1  0.486200  0.914500  0.789300  1
  H  H497  1  0.789300  0.486200  0.914500  1
  H  H498  1  0.914500  0.789300  0.486200  1
  H  H499  1  0.563400  0.198000  0.248400  1
  H  H500  1  0.248400  0.563400  0.198000  1
  H  H501  1  0.198000  0.248400  0.563400  1
  H  H502  1  0.436600  0.802000  0.751600  1
  H  H503  1  0.751600  0.436600  0.802000  1
  H  H504  1  0.802000  0.751600  0.436600  1
  H  H505  1  0.590800  0.247700  0.330900  1
  H  H506  1  0.330900  0.590800  0.247700  1
  H  H507  1  0.247700  0.330900  0.590800  1
  H  H508  1  0.409200  0.752300  0.669100  1
  H  H509  1  0.669100  0.409200  0.752300  1
  H  H510  1  0.752300  0.669100  0.409200  1
  H  H511  1  0.541600  0.314800  0.359200  1
  H  H512  1  0.359200  0.541600  0.314800  1
  H  H513  1  0.314800  0.359200  0.541600  1
  H  H514  1  0.458400  0.685200  0.640800  1
  H  H515  1  0.640800  0.458400  0.685200  1
  H  H516  1  0.685200  0.640800  0.458400  1
  H  H517  1  0.457900  0.319500  0.319400  1
  H  H518  1  0.319400  0.457900  0.319500  1
  H  H519  1  0.319500  0.319400  0.457900  1
  H  H520  1  0.542100  0.680500  0.680600  1
  H  H521  1  0.680600  0.542100  0.680500  1
  H  H522  1  0.680500  0.680600  0.542100  1
  H  H523  1  0.383400  0.328800  0.269100  1
  H  H524  1  0.269100  0.383400  0.328800  1
  H  H525  1  0.328800  0.269100  0.383400  1
  H  H526  1  0.616600  0.671200  0.730900  1
  H  H527  1  0.730900  0.616600  0.671200  1
  H  H528  1  0.671200  0.730900  0.616600  1
  H  H529  1  0.307400  0.330200  0.212000  1
  H  H530  1  0.212000  0.307400  0.330200  1
  H  H531  1  0.330200  0.212000  0.307400  1
  H  H532  1  0.692600  0.669800  0.788000  1
  H  H533  1  0.788000  0.692600  0.669800  1
  H  H534  1  0.669800  0.788000  0.692600  1
  H  H535  1  0.292600  0.271400  0.136200  1
  H  H536  1  0.136200  0.292600  0.271400  1
  H  H537  1  0.271400  0.136200  0.292600  1
  H  H538  1  0.707400  0.728600  0.863800  1
  H  H539  1  0.863800  0.707400  0.728600  1
  H  H540  1  0.728600  0.863800  0.707400  1
  H  H541  1  0.354000  0.211100  0.117400  1
  H  H542  1  0.117400  0.354000  0.211100  1
  H  H543  1  0.211100  0.117400  0.354000  1
  H  H544  1  0.646000  0.788900  0.882600  1
  H  H545  1  0.882600  0.646000  0.788900  1
  H  H546  1  0.788900  0.882600  0.646000  1
  H  H547  1  0.392100  0.087300  0.138000  1
  H  H548  1  0.138000  0.392100  0.087300  1
  H  H549  1  0.087300  0.138000  0.392100  1
  H  H550  1  0.607900  0.912700  0.862000  1
  H  H551  1  0.862000  0.607900  0.912700  1
  H  H552  1  0.912700  0.862000  0.607900  1
  H  H553  1  0.359100  0.035600  0.060700  1
  H  H554  1  0.060700  0.359100  0.035600  1
  H  H555  1  0.035600  0.060700  0.359100  1
  H  H556  1  0.640900  0.964400  0.939300  1
  H  H557  1  0.939300  0.640900  0.964400  1
  H  H558  1  0.964400  0.939300  0.640900  1
  H  H559  1  0.378900  0.064600  0.978300  1
  H  H560  1  0.978300  0.378900  0.064600  1
  H  H561  1  0.064600  0.978300  0.378900  1
  H  H562  1  0.621100  0.935400  0.021700  1
  H  H563  1  0.021700  0.621100  0.935400  1
  H  H564  1  0.935400  0.021700  0.621100  1
  H  H565  1  0.462800  0.193200  0.058300  1
  H  H566  1  0.058300  0.462800  0.193200  1
  H  H567  1  0.193200  0.058300  0.462800  1
  H  H568  1  0.537200  0.806800  0.941700  1
  H  H569  1  0.941700  0.537200  0.806800  1
  H  H570  1  0.806800  0.941700  0.537200  1
  H  H571  1  0.496800  0.202300  0.804900  1
  H  H572  1  0.804900  0.496800  0.202300  1
  H  H573  1  0.202300  0.804900  0.496800  1
  H  H574  1  0.503200  0.797700  0.195100  1
  H  H575  1  0.195100  0.503200  0.797700  1
  H  H576  1  0.797700  0.195100  0.503200  1
  H  H577  1  0.591600  0.338700  0.825700  1
  H  H578  1  0.825700  0.591600  0.338700  1
  H  H579  1  0.338700  0.825700  0.591600  1
  H  H580  1  0.408400  0.661300  0.174300  1
  H  H581  1  0.174300  0.408400  0.661300  1
  H  H582  1  0.661300  0.174300  0.408400  1
  H  H583  1  0.520100  0.289400  0.946200  1
  H  H584  1  0.946200  0.520100  0.289400  1
  H  H585  1  0.289400  0.946200  0.520100  1
  H  H586  1  0.479900  0.710600  0.053800  1
  H  H587  1  0.053800  0.479900  0.710600  1
  H  H588  1  0.710600  0.053800  0.479900  1
  H  H589  1  0.589500  0.239000  0.574400  1
  H  H590  1  0.574400  0.589500  0.239000  1
  H  H591  1  0.239000  0.574400  0.589500  1
  H  H592  1  0.410500  0.761000  0.425600  1
  H  H593  1  0.425600  0.410500  0.761000  1
  H  H594  1  0.761000  0.425600  0.410500  1
  H  H595  1  0.650800  0.258600  0.516600  1
  H  H596  1  0.516600  0.650800  0.258600  1
  H  H597  1  0.258600  0.516600  0.650800  1
  H  H598  1  0.349200  0.741400  0.483400  1
  H  H599  1  0.483400  0.349200  0.741400  1
  H  H600  1  0.741400  0.483400  0.349200  1
  H  H601  1  0.722900  0.322600  0.541900  1
  H  H602  1  0.541900  0.722900  0.322600  1
  H  H603  1  0.322600  0.541900  0.722900  1
  H  H604  1  0.277100  0.677400  0.458100  1
  H  H605  1  0.458100  0.277100  0.677400  1
  H  H606  1  0.677400  0.458100  0.277100  1
  H  H607  1  0.677500  0.338600  0.683800  1
  H  H608  1  0.683800  0.677500  0.338600  1
  H  H609  1  0.338600  0.683800  0.677500  1
  H  H610  1  0.322500  0.661400  0.316200  1
  H  H611  1  0.316200  0.322500  0.661400  1
  H  H612  1  0.661400  0.316200  0.322500  1
  H  H613  1  0.704500  0.399600  0.015200  1
  H  H614  1  0.015200  0.704500  0.399600  1
  H  H615  1  0.399600  0.015200  0.704500  1
  H  H616  1  0.295500  0.600400  0.984800  1
  H  H617  1  0.984800  0.295500  0.600400  1
  H  H618  1  0.600400  0.984800  0.295500  1
  H  H619  1  0.746800  0.468400  0.067000  1
  H  H620  1  0.067000  0.746800  0.468400  1
  H  H621  1  0.468400  0.067000  0.746800  1
  H  H622  1  0.253200  0.531600  0.933000  1
  H  H623  1  0.933000  0.253200  0.531600  1
  H  H624  1  0.531600  0.933000  0.253200  1
  H  H625  1  0.712000  0.548200  0.070600  1
  H  H626  1  0.070600  0.712000  0.548200  1
  H  H627  1  0.548200  0.070600  0.712000  1
  H  H628  1  0.288000  0.451800  0.929400  1
  H  H629  1  0.929400  0.288000  0.451800  1
  H  H630  1  0.451800  0.929400  0.288000  1
  H  H631  1  0.629800  0.557200  0.024400  1
  H  H632  1  0.024400  0.629800  0.557200  1
  H  H633  1  0.557200  0.024400  0.629800  1
  H  H634  1  0.370200  0.442800  0.975600  1
  H  H635  1  0.975600  0.370200  0.442800  1
  H  H636  1  0.442800  0.975600  0.370200  1
  H  H637  1  0.552200  0.557500  0.971500  1
  H  H638  1  0.971500  0.552200  0.557500  1
  H  H639  1  0.557500  0.971500  0.552200  1
  H  H640  1  0.447800  0.442500  0.028500  1
  H  H641  1  0.028500  0.447800  0.442500  1
  H  H642  1  0.442500  0.028500  0.447800  1
  H  H643  1  0.472700  0.547500  0.921500  1
  H  H644  1  0.921500  0.472700  0.547500  1
  H  H645  1  0.547500  0.921500  0.472700  1
  H  H646  1  0.527300  0.452500  0.078500  1
  H  H647  1  0.078500  0.527300  0.452500  1
  H  H648  1  0.452500  0.078500  0.527300  1
  H  H649  1  0.442100  0.467000  0.878700  1
  H  H650  1  0.878700  0.442100  0.467000  1
  H  H651  1  0.467000  0.878700  0.442100  1
  H  H652  1  0.557900  0.533000  0.121300  1
  H  H653  1  0.121300  0.557900  0.533000  1
  H  H654  1  0.533000  0.121300  0.557900  1
  H  H655  1  0.491500  0.395100  0.887400  1
  H  H656  1  0.887400  0.491500  0.395100  1
  H  H657  1  0.395100  0.887400  0.491500  1
  H  H658  1  0.508500  0.604900  0.112600  1
  H  H659  1  0.112600  0.508500  0.604900  1
  H  H660  1  0.604900  0.112600  0.508500  1
  H  H661  1  0.834100  0.262100  0.823600  1
  H  H662  1  0.823600  0.834100  0.262100  1
  H  H663  1  0.262100  0.823600  0.834100  1
  H  H664  1  0.165900  0.737900  0.176400  1
  H  H665  1  0.176400  0.165900  0.737900  1
  H  H666  1  0.737900  0.176400  0.165900  1
  H  H667  1  0.795800  0.259900  0.893200  1
  H  H668  1  0.893200  0.795800  0.259900  1
  H  H669  1  0.259900  0.893200  0.795800  1
  H  H670  1  0.204200  0.740100  0.106800  1
  H  H671  1  0.106800  0.204200  0.740100  1
  H  H672  1  0.740100  0.106800  0.204200  1
  H  H673  1  0.696000  0.178000  0.014600  1
  H  H674  1  0.014600  0.696000  0.178000  1
  H  H675  1  0.178000  0.014600  0.696000  1
  H  H676  1  0.304000  0.822000  0.985400  1
  H  H677  1  0.985400  0.304000  0.822000  1
  H  H678  1  0.822000  0.985400  0.304000  1
  H  H679  1  0.660200  0.130000  0.067200  1
  H  H680  1  0.067200  0.660200  0.130000  1
  H  H681  1  0.130000  0.067200  0.660200  1
  H  H682  1  0.339800  0.870000  0.932800  1
  H  H683  1  0.932800  0.339800  0.870000  1
  H  H684  1  0.870000  0.932800  0.339800  1
  H  H685  1  0.415800  0.132300  0.932500  1
  H  H686  1  0.932500  0.415800  0.132300  1
  H  H687  1  0.132300  0.932500  0.415800  1
  H  H688  1  0.584200  0.867700  0.067500  1
  H  H689  1  0.067500  0.584200  0.867700  1
  H  H690  1  0.867700  0.067500  0.584200  1
  H  H691  1  0.449400  0.177300  0.876400  1
  H  H692  1  0.876400  0.449400  0.177300  1
  H  H693  1  0.177300  0.876400  0.449400  1
  H  H694  1  0.550600  0.822700  0.123600  1
  H  H695  1  0.123600  0.550600  0.822700  1
  H  H696  1  0.822700  0.123600  0.550600  1
  H  H697  1  0.533600  0.237900  0.732800  1
  H  H698  1  0.732800  0.533600  0.237900  1
  H  H699  1  0.237900  0.732800  0.533600  1
  H  H700  1  0.466400  0.762100  0.267200  1
  H  H701  1  0.267200  0.466400  0.762100  1
  H  H702  1  0.762100  0.267200  0.466400  1
  H  H703  1  0.568400  0.242700  0.662900  1
  H  H704  1  0.662900  0.568400  0.242700  1
  H  H705  1  0.242700  0.662900  0.568400  1
  H  H706  1  0.431600  0.757300  0.337100  1
  H  H707  1  0.337100  0.431600  0.757300  1
  H  H708  1  0.757300  0.337100  0.431600  1
  N  N709  1  0.736200  0.442600  0.593400  1
  N  N710  1  0.593400  0.736200  0.442600  1
  N  N711  1  0.442600  0.593400  0.736200  1
  N  N712  1  0.263800  0.557400  0.406600  1
  N  N713  1  0.406600  0.263800  0.557400  1
  N  N714  1  0.557400  0.406600  0.263800  1
  N  N715  1  0.806540  0.338460  0.676670  1
  N  N716  1  0.676670  0.806540  0.338460  1
  N  N717  1  0.338460  0.676670  0.806540  1
  N  N718  1  0.193460  0.661540  0.323330  1
  N  N719  1  0.323330  0.193460  0.661540  1
  N  N720  1  0.661540  0.323330  0.193460  1
  N  N721  1  0.526370  0.143530  0.162000  1
  N  N722  1  0.162000  0.526370  0.143530  1
  N  N723  1  0.143530  0.162000  0.526370  1
  N  N724  1  0.473630  0.856470  0.838000  1
  N  N725  1  0.838000  0.473630  0.856470  1
  N  N726  1  0.856470  0.838000  0.473630  1
  N  N727  1  0.405470  0.233850  0.182110  1
  N  N728  1  0.182110  0.405470  0.233850  1
  N  N729  1  0.233850  0.182110  0.405470  1
  N  N730  1  0.594530  0.766150  0.817890  1
  N  N731  1  0.817890  0.594530  0.766150  1
  N  N732  1  0.766150  0.817890  0.594530  1
  N  N733  1  0.707380  0.333980  0.616480  1
  N  N734  1  0.616480  0.707380  0.333980  1
  N  N735  1  0.333980  0.616480  0.707380  1
  N  N736  1  0.292620  0.666020  0.383520  1
  N  N737  1  0.383520  0.292620  0.666020  1
  N  N738  1  0.666020  0.383520  0.292620  1
  N  N739  1  0.825280  0.449780  0.651280  1
  N  N740  1  0.651280  0.825280  0.449780  1
  N  N741  1  0.449780  0.651280  0.825280  1
  N  N742  1  0.174720  0.550220  0.348720  1
  N  N743  1  0.348720  0.174720  0.550220  1
  N  N744  1  0.550220  0.348720  0.174720  1
  N  N745  1  0.813600  0.282800  0.808700  1
  N  N746  1  0.808700  0.813600  0.282800  1
  N  N747  1  0.282800  0.808700  0.813600  1
  N  N748  1  0.186400  0.717200  0.191300  1
  N  N749  1  0.191300  0.186400  0.717200  1
  N  N750  1  0.717200  0.191300  0.186400  1
  N  N751  1  0.770700  0.278900  0.883700  1
  N  N752  1  0.883700  0.770700  0.278900  1
  N  N753  1  0.278900  0.883700  0.770700  1
  N  N754  1  0.229300  0.721100  0.116300  1
  N  N755  1  0.116300  0.229300  0.721100  1
  N  N756  1  0.721100  0.116300  0.229300  1
  N  N757  1  0.655000  0.322480  0.948170  1
  N  N758  1  0.948170  0.655000  0.322480  1
  N  N759  1  0.322480  0.948170  0.655000  1
  N  N760  1  0.345000  0.677520  0.051830  1
  N  N761  1  0.051830  0.345000  0.677520  1
  N  N762  1  0.677520  0.051830  0.345000  1
  N  N763  1  0.675550  0.203250  0.018350  1
  N  N764  1  0.018350  0.675550  0.203250  1
  N  N765  1  0.203250  0.018350  0.675550  1
  N  N766  1  0.324450  0.796750  0.981650  1
  N  N767  1  0.981650  0.324450  0.796750  1
  N  N768  1  0.796750  0.981650  0.324450  1
  N  N769  1  0.637570  0.151470  0.076970  1
  N  N770  1  0.076970  0.637570  0.151470  1
  N  N771  1  0.151470  0.076970  0.637570  1
  N  N772  1  0.362430  0.848530  0.923030  1
  N  N773  1  0.923030  0.362430  0.848530  1
  N  N774  1  0.848530  0.923030  0.362430  1
  N  N775  1  0.494480  0.228680  0.239480  1
  N  N776  1  0.239480  0.494480  0.228680  1
  N  N777  1  0.228680  0.239480  0.494480  1
  N  N778  1  0.505520  0.771320  0.760520  1
  N  N779  1  0.760520  0.505520  0.771320  1
  N  N780  1  0.771320  0.760520  0.505520  1
  N  N781  1  0.429220  0.143520  0.104120  1
  N  N782  1  0.104120  0.429220  0.143520  1
  N  N783  1  0.143520  0.104120  0.429220  1
  N  N784  1  0.570780  0.856480  0.895880  1
  N  N785  1  0.895880  0.570780  0.856480  1
  N  N786  1  0.856480  0.895880  0.570780  1
  N  N787  1  0.430940  0.151140  0.960140  1
  N  N788  1  0.960140  0.430940  0.151140  1
  N  N789  1  0.151140  0.960140  0.430940  1
  N  N790  1  0.569060  0.848860  0.039860  1
  N  N791  1  0.039860  0.569060  0.848860  1
  N  N792  1  0.848860  0.039860  0.569060  1
  N  N793  1  0.468090  0.199670  0.899210  1
  N  N794  1  0.899210  0.468090  0.199670  1
  N  N795  1  0.199670  0.899210  0.468090  1
  N  N796  1  0.531910  0.800330  0.100790  1
  N  N797  1  0.100790  0.531910  0.800330  1
  N  N798  1  0.800330  0.100790  0.531910  1
  N  N799  1  0.559370  0.318010  0.889540  1
  N  N800  1  0.889540  0.559370  0.318010  1
  N  N801  1  0.318010  0.889540  0.559370  1
  N  N802  1  0.440630  0.681990  0.110460  1
  N  N803  1  0.110460  0.440630  0.681990  1
  N  N804  1  0.681990  0.110460  0.440630  1
  N  N805  1  0.555850  0.259910  0.752710  1
  N  N806  1  0.752710  0.555850  0.259910  1
  N  N807  1  0.259910  0.752710  0.555850  1
  N  N808  1  0.444150  0.740090  0.247290  1
  N  N809  1  0.247290  0.444150  0.740090  1
  N  N810  1  0.740090  0.247290  0.444150  1
  N  N811  1  0.594880  0.264580  0.675680  1
  N  N812  1  0.675680  0.594880  0.264580  1
  N  N813  1  0.264580  0.675680  0.594880  1
  N  N814  1  0.405120  0.735420  0.324320  1
  N  N815  1  0.324320  0.405120  0.735420  1
  N  N816  1  0.735420  0.324320  0.405120  1
  N  N817  1  0.551330  0.432990  0.933020  1
  N  N818  1  0.933020  0.551330  0.432990  1
  N  N819  1  0.432990  0.933020  0.551330  1
  N  N820  1  0.448670  0.567010  0.066980  1
  N  N821  1  0.066980  0.448670  0.567010  1
  N  N822  1  0.567010  0.066980  0.448670  1
  N  N823  1  0.641600  0.434680  0.989320  1
  N  N824  1  0.989320  0.641600  0.434680  1
  N  N825  1  0.434680  0.989320  0.641600  1
  N  N826  1  0.358400  0.565320  0.010680  1
  N  N827  1  0.010680  0.358400  0.565320  1
  N  N828  1  0.565320  0.010680  0.358400  1
  N  N829  1  0.484430  0.167730  0.648230  1
  N  N830  1  0.648230  0.484430  0.167730  1
  N  N831  1  0.167730  0.648230  0.484430  1
  N  N832  1  0.515570  0.832270  0.351770  1
  N  N833  1  0.351770  0.515570  0.832270  1
  N  N834  1  0.832270  0.351770  0.515570  1
  N  N835  1  0.394580  0.079580  0.834780  1
  N  N836  1  0.834780  0.394580  0.079580  1
  N  N837  1  0.079580  0.834780  0.394580  1
  N  N838  1  0.605420  0.920420  0.165220  1
  N  N839  1  0.165220  0.605420  0.920420  1
  N  N840  1  0.920420  0.165220  0.605420  1
  N  N841  1  0.715400  0.064700  0.000200  1
  N  N842  1  0.000200  0.715400  0.064700  1
  N  N843  1  0.064700  0.000200  0.715400  1
  N  N844  1  0.284600  0.935300  0.999800  1
  N  N845  1  0.999800  0.284600  0.935300  1
  N  N846  1  0.935300  0.999800  0.284600  1
  N  N847  1  0.603000  0.121700  0.820100  1
  N  N848  1  0.820100  0.603000  0.121700  1
  N  N849  1  0.121700  0.820100  0.603000  1
  N  N850  1  0.397000  0.878300  0.179900  1
  N  N851  1  0.179900  0.397000  0.878300  1
  N  N852  1  0.878300  0.179900  0.397000  1
  N  N853  1  0.664700  0.059400  0.603800  1
  N  N854  1  0.603800  0.664700  0.059400  1
  N  N855  1  0.059400  0.603800  0.664700  1
  N  N856  1  0.335300  0.940600  0.396200  1
  N  N857  1  0.396200  0.335300  0.940600  1
  N  N858  1  0.940600  0.396200  0.335300  1
  N  N859  1  0.835600  0.144300  0.156200  1
  N  N860  1  0.156200  0.835600  0.144300  1
  N  N861  1  0.144300  0.156200  0.835600  1
  N  N862  1  0.164400  0.855700  0.843800  1
  N  N863  1  0.843800  0.164400  0.855700  1
  N  N864  1  0.855700  0.843800  0.164400  1
  N  N865  1  0.773000  0.004700  0.155300  1
  N  N866  1  0.155300  0.773000  0.004700  1
  N  N867  1  0.004700  0.155300  0.773000  1
  N  N868  1  0.227000  0.995300  0.844700  1
  N  N869  1  0.844700  0.227000  0.995300  1
  N  N870  1  0.995300  0.844700  0.227000  1
  N  N871  1  0.537500  0.055400  0.909600  1
  N  N872  1  0.909600  0.537500  0.055400  1
  N  N873  1  0.055400  0.909600  0.537500  1
  N  N874  1  0.462500  0.944600  0.090400  1
  N  N875  1  0.090400  0.462500  0.944600  1
  N  N876  1  0.944600  0.090400  0.462500  1
  N  N877  1  0.708600  0.172400  0.676700  1
  N  N878  1  0.676700  0.708600  0.172400  1
  N  N879  1  0.172400  0.676700  0.708600  1
  N  N880  1  0.291400  0.827600  0.323300  1
  N  N881  1  0.323300  0.291400  0.827600  1
  N  N882  1  0.827600  0.323300  0.291400  1
  N  N883  1  0.293200  0.217800  0.003200  1
  N  N884  1  0.003200  0.293200  0.217800  1
  N  N885  1  0.217800  0.003200  0.293200  1
  N  N886  1  0.706800  0.782200  0.996800  1
  N  N887  1  0.996800  0.706800  0.782200  1
  N  N888  1  0.782200  0.996800  0.706800  1
  O  O889  1  0.749180  0.338570  0.825030  1
  O  O890  1  0.825030  0.749180  0.338570  1
  O  O891  1  0.338570  0.825030  0.749180  1
  O  O892  1  0.250820  0.661430  0.174970  1
  O  O893  1  0.174970  0.250820  0.661430  1
  O  O894  1  0.661430  0.174970  0.250820  1
  O  O895  1  0.609510  0.232750  0.065750  1
  O  O896  1  0.065750  0.609510  0.232750  1
  O  O897  1  0.232750  0.065750  0.609510  1
  O  O898  1  0.390490  0.767250  0.934250  1
  O  O899  1  0.934250  0.390490  0.767250  1
  O  O900  1  0.767250  0.934250  0.390490  1
  O  O901  1  0.490020  0.223070  0.987770  1
  O  O902  1  0.987770  0.490020  0.223070  1
  O  O903  1  0.223070  0.987770  0.490020  1
  O  O904  1  0.509980  0.776930  0.012230  1
  O  O905  1  0.012230  0.509980  0.776930  1
  O  O906  1  0.776930  0.012230  0.509980  1
  O  O907  1  0.628960  0.317080  0.750740  1
  O  O908  1  0.750740  0.628960  0.317080  1
  O  O909  1  0.317080  0.750740  0.628960  1
  O  O910  1  0.371040  0.682920  0.249260  1
  O  O911  1  0.249260  0.371040  0.682920  1
  O  O912  1  0.682920  0.249260  0.371040  1
  O  O913  1  0.534100  0.164800  0.640100  1
  O  O914  1  0.640100  0.534100  0.164800  1
  O  O915  1  0.164800  0.640100  0.534100  1
  O  O916  1  0.465900  0.835200  0.359900  1
  O  O917  1  0.359900  0.465900  0.835200  1
  O  O918  1  0.835200  0.359900  0.465900  1
  O  O919  1  0.477800  0.171700  0.698200  1
  O  O920  1  0.698200  0.477800  0.171700  1
  O  O921  1  0.171700  0.698200  0.477800  1
  O  O922  1  0.522200  0.828300  0.301800  1
  O  O923  1  0.301800  0.522200  0.828300  1
  O  O924  1  0.828300  0.301800  0.522200  1
  O  O925  1  0.453580  0.130480  0.619580  1
  O  O926  1  0.619580  0.453580  0.130480  1
  O  O927  1  0.130480  0.619580  0.453580  1
  O  O928  1  0.546420  0.869520  0.380420  1
  O  O929  1  0.380420  0.546420  0.869520  1
  O  O930  1  0.869520  0.380420  0.546420  1
  O  O931  1  0.417900  0.120900  0.821200  1
  O  O932  1  0.821200  0.417900  0.120900  1
  O  O933  1  0.120900  0.821200  0.417900  1
  O  O934  1  0.582100  0.879100  0.178800  1
  O  O935  1  0.178800  0.582100  0.879100  1
  O  O936  1  0.879100  0.178800  0.582100  1
  O  O937  1  0.394400  0.068100  0.883100  1
  O  O938  1  0.883100  0.394400  0.068100  1
  O  O939  1  0.068100  0.883100  0.394400  1
  O  O940  1  0.605600  0.931900  0.116900  1
  O  O941  1  0.116900  0.605600  0.931900  1
  O  O942  1  0.931900  0.116900  0.605600  1
  O  O943  1  0.372130  0.043230  0.798330  1
  O  O944  1  0.798330  0.372130  0.043230  1
  O  O945  1  0.043230  0.798330  0.372130  1
  O  O946  1  0.627870  0.956770  0.201670  1
  O  O947  1  0.201670  0.627870  0.956770  1
  O  O948  1  0.956770  0.201670  0.627870  1
  O  O949  1  0.730800  0.022800  0.974800  1
  O  O950  1  0.974800  0.730800  0.022800  1
  O  O951  1  0.022800  0.974800  0.730800  1
  O  O952  1  0.269200  0.977200  0.025200  1
  O  O953  1  0.025200  0.269200  0.977200  1
  O  O954  1  0.977200  0.025200  0.269200  1
  O  O955  1  0.728100  0.112000  0.987000  1
  O  O956  1  0.987000  0.728100  0.112000  1
  O  O957  1  0.112000  0.987000  0.728100  1
  O  O958  1  0.271900  0.888000  0.013000  1
  O  O959  1  0.013000  0.271900  0.888000  1
  O  O960  1  0.888000  0.013000  0.271900  1
  O  O961  1  0.680000  0.056000  0.032000  1
  O  O962  1  0.032000  0.680000  0.056000  1
  O  O963  1  0.056000  0.032000  0.680000  1
  O  O964  1  0.320000  0.944000  0.968000  1
  O  O965  1  0.968000  0.320000  0.944000  1
  O  O966  1  0.944000  0.968000  0.320000  1
  O  O967  1  0.592800  0.137000  0.771800  1
  O  O968  1  0.771800  0.592800  0.137000  1
  O  O969  1  0.137000  0.771800  0.592800  1
  O  O970  1  0.407200  0.863000  0.228200  1
  O  O971  1  0.228200  0.407200  0.863000  1
  O  O972  1  0.863000  0.228200  0.407200  1
  O  O973  1  0.633300  0.159300  0.850900  1
  O  O974  1  0.850900  0.633300  0.159300  1
  O  O975  1  0.159300  0.850900  0.633300  1
  O  O976  1  0.366700  0.840700  0.149100  1
  O  O977  1  0.149100  0.366700  0.840700  1
  O  O978  1  0.840700  0.149100  0.366700  1
  O  O979  1  0.559900  0.104300  0.841900  1
  O  O980  1  0.841900  0.559900  0.104300  1
  O  O981  1  0.104300  0.841900  0.559900  1
  O  O982  1  0.440100  0.895700  0.158100  1
  O  O983  1  0.158100  0.440100  0.895700  1
  O  O984  1  0.895700  0.158100  0.440100  1
  O  O985  1  0.645400  0.048700  0.649700  1
  O  O986  1  0.649700  0.645400  0.048700  1
  O  O987  1  0.048700  0.649700  0.645400  1
  O  O988  1  0.354600  0.951300  0.350300  1
  O  O989  1  0.350300  0.354600  0.951300  1
  O  O990  1  0.951300  0.350300  0.354600  1
  O  O991  1  0.644800  0.023000  0.566800  1
  O  O992  1  0.566800  0.644800  0.023000  1
  O  O993  1  0.023000  0.566800  0.644800  1
  O  O994  1  0.355200  0.977000  0.433200  1
  O  O995  1  0.433200  0.355200  0.977000  1
  O  O996  1  0.977000  0.433200  0.355200  1
  O  O997  1  0.659700  0.109200  0.593500  1
  O  O998  1  0.593500  0.659700  0.109200  1
  O  O999  1  0.109200  0.593500  0.659700  1
  O  O1000  1  0.340300  0.890800  0.406500  1
  O  O1001  1  0.406500  0.340300  0.890800  1
  O  O1002  1  0.890800  0.406500  0.340300  1
  O  O1003  1  0.831400  0.193300  0.176200  1
  O  O1004  1  0.176200  0.831400  0.193300  1
  O  O1005  1  0.193300  0.176200  0.831400  1
  O  O1006  1  0.168600  0.806700  0.823800  1
  O  O1007  1  0.823800  0.168600  0.806700  1
  O  O1008  1  0.806700  0.823800  0.168600  1
  O  O1009  1  0.801800  0.129800  0.113900  1
  O  O1010  1  0.113900  0.801800  0.129800  1
  O  O1011  1  0.129800  0.113900  0.801800  1
  O  O1012  1  0.198200  0.870200  0.886100  1
  O  O1013  1  0.886100  0.198200  0.870200  1
  O  O1014  1  0.870200  0.886100  0.198200  1
  O  O1015  1  0.831500  0.110300  0.192200  1
  O  O1016  1  0.192200  0.831500  0.110300  1
  O  O1017  1  0.110300  0.192200  0.831500  1
  O  O1018  1  0.168500  0.889700  0.807800  1
  O  O1019  1  0.807800  0.168500  0.889700  1
  O  O1020  1  0.889700  0.807800  0.168500  1
  O  O1021  1  0.511100  0.198900  0.619700  1
  O  O1022  1  0.619700  0.511100  0.198900  1
  O  O1023  1  0.198900  0.619700  0.511100  1
  O  O1024  1  0.488900  0.801100  0.380300  1
  O  O1025  1  0.380300  0.488900  0.801100  1
  O  O1026  1  0.801100  0.380300  0.488900  1
  O  O1027  1  0.477700  0.191600  0.694000  1
  O  O1028  1  0.694000  0.477700  0.191600  1
  O  O1029  1  0.191600  0.694000  0.477700  1
  O  O1030  1  0.522300  0.808400  0.306000  1
  O  O1031  1  0.306000  0.522300  0.808400  1
  O  O1032  1  0.808400  0.306000  0.522300  1
  O  O1033  1  0.441700  0.142500  0.622500  1
  O  O1034  1  0.622500  0.441700  0.142500  1
  O  O1035  1  0.142500  0.622500  0.441700  1
  O  O1036  1  0.558300  0.857500  0.377500  1
  O  O1037  1  0.377500  0.558300  0.857500  1
  O  O1038  1  0.857500  0.377500  0.558300  1
  O  O1039  1  0.444000  0.097900  0.842100  1
  O  O1040  1  0.842100  0.444000  0.097900  1
  O  O1041  1  0.097900  0.842100  0.444000  1
  O  O1042  1  0.556000  0.902100  0.157900  1
  O  O1043  1  0.157900  0.556000  0.902100  1
  O  O1044  1  0.902100  0.157900  0.556000  1
  O  O1045  1  0.365600  0.093300  0.873500  1
  O  O1046  1  0.873500  0.365600  0.093300  1
  O  O1047  1  0.093300  0.873500  0.365600  1
  O  O1048  1  0.634400  0.906700  0.126500  1
  O  O1049  1  0.126500  0.634400  0.906700  1
  O  O1050  1  0.906700  0.126500  0.634400  1
  O  O1051  1  0.382500  0.031900  0.811200  1
  O  O1052  1  0.811200  0.382500  0.031900  1
  O  O1053  1  0.031900  0.811200  0.382500  1
  O  O1054  1  0.617500  0.968100  0.188800  1
  O  O1055  1  0.188800  0.617500  0.968100  1
  O  O1056  1  0.968100  0.188800  0.617500  1
  O  O1057  1  0.801500  0.965500  0.166600  1
  O  O1058  1  0.166600  0.801500  0.965500  1
  O  O1059  1  0.965500  0.166600  0.801500  1
  O  O1060  1  0.198500  0.034500  0.833400  1
  O  O1061  1  0.833400  0.198500  0.034500  1
  O  O1062  1  0.034500  0.833400  0.198500  1
  O  O1063  1  0.801400  0.044500  0.137200  1
  O  O1064  1  0.137200  0.801400  0.044500  1
  O  O1065  1  0.044500  0.137200  0.801400  1
  O  O1066  1  0.198600  0.955500  0.862800  1
  O  O1067  1  0.862800  0.198600  0.955500  1
  O  O1068  1  0.955500  0.862800  0.198600  1
  O  O1069  1  0.728100  0.990300  0.126700  1
  O  O1070  1  0.126700  0.728100  0.990300  1
  O  O1071  1  0.990300  0.126700  0.728100  1
  O  O1072  1  0.271900  0.009700  0.873300  1
  O  O1073  1  0.873300  0.271900  0.009700  1
  O  O1074  1  0.009700  0.873300  0.271900  1
  O  O1075  1  0.505200  0.058100  0.866300  1
  O  O1076  1  0.866300  0.505200  0.058100  1
  O  O1077  1  0.058100  0.866300  0.505200  1
  O  O1078  1  0.494800  0.941900  0.133700  1
  O  O1079  1  0.133700  0.494800  0.941900  1
  O  O1080  1  0.941900  0.133700  0.494800  1
  O  O1081  1  0.569800  0.098800  0.922700  1
  O  O1082  1  0.922700  0.569800  0.098800  1
  O  O1083  1  0.098800  0.922700  0.569800  1
  O  O1084  1  0.430200  0.901200  0.077300  1
  O  O1085  1  0.077300  0.430200  0.901200  1
  O  O1086  1  0.901200  0.077300  0.430200  1
  O  O1087  1  0.515400  0.033200  0.948800  1
  O  O1088  1  0.948800  0.515400  0.033200  1
  O  O1089  1  0.033200  0.948800  0.515400  1
  O  O1090  1  0.484600  0.966800  0.051200  1
  O  O1091  1  0.051200  0.484600  0.966800  1
  O  O1092  1  0.966800  0.051200  0.484600  1
  O  O1093  1  0.661000  0.153500  0.655900  1
  O  O1094  1  0.655900  0.661000  0.153500  1
  O  O1095  1  0.153500  0.655900  0.661000  1
  O  O1096  1  0.339000  0.846500  0.344100  1
  O  O1097  1  0.344100  0.339000  0.846500  1
  O  O1098  1  0.846500  0.344100  0.339000  1
  O  O1099  1  0.710700  0.192600  0.726400  1
  O  O1100  1  0.726400  0.710700  0.192600  1
  O  O1101  1  0.192600  0.726400  0.710700  1
  O  O1102  1  0.289300  0.807400  0.273600  1
  O  O1103  1  0.273600  0.289300  0.807400  1
  O  O1104  1  0.807400  0.273600  0.289300  1
  O  O1105  1  0.739700  0.197400  0.645500  1
  O  O1106  1  0.645500  0.739700  0.197400  1
  O  O1107  1  0.197400  0.645500  0.739700  1
  O  O1108  1  0.260300  0.802600  0.354500  1
  O  O1109  1  0.354500  0.260300  0.802600  1
  O  O1110  1  0.802600  0.354500  0.260300  1
  O  O1111  1  0.286200  0.197000  0.953000  1
  O  O1112  1  0.953000  0.286200  0.197000  1
  O  O1113  1  0.197000  0.953000  0.286200  1
  O  O1114  1  0.713800  0.803000  0.047000  1
  O  O1115  1  0.047000  0.713800  0.803000  1
  O  O1116  1  0.803000  0.047000  0.713800  1
  O  O1117  1  0.290000  0.182200  0.038100  1
  O  O1118  1  0.038100  0.290000  0.182200  1
  O  O1119  1  0.182200  0.038100  0.290000  1
  O  O1120  1  0.710000  0.817800  0.961900  1
  O  O1121  1  0.961900  0.710000  0.817800  1
  O  O1122  1  0.817800  0.961900  0.710000  1
  O  O1123  1  0.334900  0.252900  0.014900  1
  O  O1124  1  0.014900  0.334900  0.252900  1
  O  O1125  1  0.252900  0.014900  0.334900  1
  O  O1126  1  0.665100  0.747100  0.985100  1
  O  O1127  1  0.985100  0.665100  0.747100  1
  O  O1128  1  0.747100  0.985100  0.665100  1
  Pd  Pd1129  1  0.768140  0.388510  0.636010  1
  Pd  Pd1130  1  0.636010  0.768140  0.388510  1
  Pd  Pd1131  1  0.388510  0.636010  0.768140  1
  Pd  Pd1132  1  0.231860  0.611490  0.363990  1
  Pd  Pd1133  1  0.363990  0.231860  0.611490  1
  Pd  Pd1134  1  0.611490  0.363990  0.231860  1
  Pd  Pd1135  1  0.601550  0.376520  0.939990  1
  Pd  Pd1136  1  0.939990  0.601550  0.376520  1
  Pd  Pd1137  1  0.376520  0.939990  0.601550  1
  Pd  Pd1138  1  0.398450  0.623480  0.060010  1
  Pd  Pd1139  1  0.060010  0.398450  0.623480  1
  Pd  Pd1140  1  0.623480  0.060010  0.398450  1
  Pd  Pd1141  1  0.463490  0.185280  0.172180  1
  Pd  Pd1142  1  0.172180  0.463490  0.185280  1
  Pd  Pd1143  1  0.185280  0.172180  0.463490  1
  Pd  Pd1144  1  0.536510  0.814720  0.827820  1
  Pd  Pd1145  1  0.827820  0.536510  0.814720  1
  Pd  Pd1146  1  0.814720  0.827820  0.536510  1
