
#######################################################################
#
#                 Cambridge Crystallographic Data Centre
#                                CCDC 
#
#######################################################################
#
# If this CIF has been generated from an entry in the Cambridge 
# Structural Database, then it will include bibliographic, chemical, 
# crystal, experimental, refinement or atomic coordinate data resulting 
# from the CCDC's data processing and validation procedures.
#
#######################################################################

data_YUDGOV
_chemical_formula_moiety         'C64 H54 N20 O4 Pd3 6+,6(N1 O3 1-)'
_chemical_name_systematic        
"bis(\m~3~-1,1'-pyridine-3,5-diylbis(3-pyridin-3-ylurea))-tris(2,2'-bipyridine)-tri-palladium hexakis(nitrate) unknown solvate"
_symmetry_cell_setting           rhombohedral
_symmetry_space_group_name_H-M   'R -3'
_symmetry_Int_Tables_number      148
_space_group_name_Hall           '-R 3'
loop_
_symmetry_equiv_pos_site_id
_symmetry_equiv_pos_as_xyz
1 x,y,z
2 -y,x-y,z
3 -x+y,-x,z
4 2/3+x,1/3+y,1/3+z
5 2/3-y,1/3+x-y,1/3+z
6 2/3-x+y,1/3-x,1/3+z
7 1/3+x,2/3+y,2/3+z
8 1/3-y,2/3+x-y,2/3+z
9 1/3-x+y,2/3-x,2/3+z
10 -x,-y,-z
11 y,-x+y,-z
12 x-y,x,-z
13 1/3-x,2/3-y,2/3-z
14 1/3+y,2/3-x+y,2/3-z
15 1/3+x-y,2/3+x,2/3-z
16 2/3-x,1/3-y,1/3-z
17 2/3+y,1/3-x+y,1/3-z
18 2/3+x-y,1/3+x,1/3-z
_cell_length_a                   37.3385(5)
_cell_length_b                   37.3385(5)
_cell_length_c                   40.1160(8)
_cell_angle_alpha                90
_cell_angle_beta                 90
_cell_angle_gamma                120
_cell_volume                     48435.3
_exptl_crystal_description       block
_cell_formula_units_Z            18
loop_
_atom_site_label
_atom_site_type_symbol
_atom_site_fract_x
_atom_site_fract_y
_atom_site_fract_z
N1 N 0.4788(3) 0.6640(3) 0.2574(2)
C1 C 0.4577(4) 0.6643(4) 0.2290(2)
H1 H 0.4540 0.6466 0.2113
C2 C 0.4420(5) 0.6911(5) 0.2268(3)
H2 H 0.4279 0.6913 0.2078
C3 C 0.4475(5) 0.7175(4) 0.2532(4)
H3 H 0.4370 0.7354 0.2517
C4 C 0.4686(5) 0.7172(4) 0.2816(3)
H4 H 0.4723 0.7349 0.2992
C5 C 0.4842(3) 0.6905(3) 0.2837(2)
C6 C 0.5062(4) 0.6884(3) 0.3118(3)
C7 C 0.5154(4) 0.7092(4) 0.3381(4)
H5 H 0.5104 0.7312 0.3391
C8 C 0.5324(4) 0.7015(4) 0.3656(3)
H6 H 0.5354 0.7154 0.3855
C9 C 0.5442(3) 0.6741(4) 0.3629(2)
H7 H 0.5581 0.6701 0.3804
C10 C 0.5363(3) 0.6511(3) 0.3346(2)
H8 H 0.5443 0.6313 0.3330
N2 N 0.53265(19) 0.59722(18) 0.27389(13)
C11 C 0.57537(19) 0.61696(15) 0.27041(13)
H9 H 0.5900 0.6444 0.2634
C12 C 0.59627(13) 0.5957(2) 0.27739(14)
H10 H 0.6249 0.6090 0.2751
C13 C 0.57443(18) 0.5548(2) 0.28785(14)
H11 H 0.5884 0.5406 0.2925
C14 C 0.53170(18) 0.53506(15) 0.29133(13)
C15 C 0.51081(13) 0.55627(19) 0.28435(13)
H12 H 0.4822 0.5431 0.2867
C16 C 0.4696(3) 0.4667(3) 0.30470(19)
C17 C 0.4195(2) 0.3928(3) 0.30997(18)
C18 C 0.4154(2) 0.3533(3) 0.30673(19)
H13 H 0.4390 0.3510 0.3060
C19 C 0.3769(3) 0.3180(2) 0.30463(17)
C20 C 0.3433(2) 0.3235(2) 0.30577(16)
H14 H 0.3170 0.3003 0.3045
C21 C 0.3838(2) 0.3947(3) 0.31117(15)
H15 H 0.3855 0.4202 0.3139
C22 C 0.3408(3) 0.2428(3) 0.29786(18)
C23 C 0.2774(2) 0.15692(17) 0.28241(12)
H16 H 0.2682 0.1758 0.2850
C24 C 0.31946(19) 0.17038(16) 0.28364(13)
C25 C 0.33319(18) 0.1422(2) 0.27976(14)
H17 H 0.3613 0.1512 0.2806
C26 C 0.3049(3) 0.1006(2) 0.27465(14)
H18 H 0.3140 0.0817 0.2721
C27 C 0.2628(2) 0.08714(14) 0.27342(13)
H19 H 0.2438 0.0593 0.2700
N3 N 0.24907(17) 0.11530(19) 0.27730(12)
C28 C 0.1995(3) 0.0793(3) 0.3425(2)
H20 H 0.2268 0.0882 0.3366
C29 C 0.1844(4) 0.0631(3) 0.3747(2)
H21 H 0.2010 0.0589 0.3898
C30 C 0.1455(5) 0.0537(4) 0.3834(3)
H22 H 0.1364 0.0460 0.4052
C31 C 0.1198(5) 0.0555(5) 0.3603(3)
H23 H 0.0923 0.0462 0.3656
C32 C 0.1346(4) 0.0710(3) 0.3289(3)
N4 N 0.13166(19) 0.0917(2) 0.27381(19)
C33 C 0.1106(3) 0.0761(3) 0.30366(17)
C34 C 0.0704(3) 0.0684(3) 0.3072(2)
H24 H 0.0563 0.0580 0.3271
C35 C 0.0511(2) 0.0763(4) 0.2808(3)
H25 H 0.0242 0.0712 0.2832
C36 C 0.0721(3) 0.0919(4) 0.2510(3)
H26 H 0.0592 0.0972 0.2334
C37 C 0.1124(3) 0.0996(3) 0.24747(16)
H27 H 0.1265 0.1101 0.2275
C38 C 0.1985(4) 0.0959(3) 0.2013(3)
H28 H 0.1863 0.0678 0.2058
C39 C 0.2109(5) 0.1097(4) 0.1687(3)
H29 H 0.2073 0.0911 0.1518
C40 C 0.2289(4) 0.1520(3) 0.1619(2)
H30 H 0.2383 0.1623 0.1406
C41 C 0.2323(4) 0.1779(3) 0.1878(2)
C42 C 0.2206(3) 0.1621(3) 0.2204(2)
H31 H 0.2247 0.1798 0.2381
C43 C 0.2596(3) 0.2513(3) 0.20287(19)
C44 C 0.2949(2) 0.3266(2) 0.20639(16)
C45 C 0.3224(2) 0.3635(2) 0.19039(14)
H32 H 0.3288 0.3631 0.1680
C46 C 0.3397(2) 0.3997(2) 0.20710(14)
C47 C 0.3291(2) 0.4012(2) 0.24077(15)
H33 H 0.3396 0.4263 0.2520
C48 C 0.2863(2) 0.3295(2) 0.24023(15)
H34 H 0.2682 0.3057 0.2519
C49 C 0.3927(2) 0.4739(2) 0.20284(17)
N5 N 0.4881(3) 0.6028(3) 0.21928(17)
C50 C 0.4489(3) 0.5427(3) 0.18390(19)
C51 C 0.4652(4) 0.5696(3) 0.1556(2)
H35 H 0.4552 0.5599 0.1343
C52 C 0.4952(4) 0.6090(4) 0.1604(3)
H36 H 0.5088 0.6254 0.1420
C53 C 0.5067(5) 0.6263(5) 0.1930(3)
H37 H 0.5271 0.6539 0.1958
C54 C 0.4592(3) 0.5641(3) 0.2147(2)
H38 H 0.4442 0.5495 0.2333
C55 C 0.3098(2) 0.3620(2) 0.37946(16)
H39 H 0.3314 0.3579 0.3731
C56 C 0.3032(3) 0.3639(3) 0.41154(18)
H40 H 0.3194 0.3604 0.4274
C57 C 0.2728(4) 0.3710(4) 0.42100(18)
H41 H 0.2684 0.3730 0.4436
C58 C 0.2476(3) 0.3754(3) 0.39737(19)
H42 H 0.2260 0.3794 0.4038
C59 C 0.2564(2) 0.3735(2) 0.36414(15)
C60 C 0.2334(2) 0.3784(2) 0.33580(15)
C61 C 0.2002(3) 0.3856(3) 0.3394(2)
H43 H 0.1918 0.3889 0.3604
C62 C 0.1808(3) 0.3875(3) 0.3119(2)
H44 H 0.1588 0.3924 0.3139
C63 C 0.1929(3) 0.3823(3) 0.2816(2)
H45 H 0.1795 0.3839 0.2626
C64 C 0.2255(2) 0.3746(2) 0.27894(18)
H46 H 0.2335 0.3706 0.2580
N6 N 0.5165(2) 0.6575(2) 0.30878(16)
N7 N 0.5119(2) 0.4930(2) 0.30170(19)
H47 H 0.5275 0.4830 0.3066
N8 N 0.4596(2) 0.4274(2) 0.3111(2)
H48 H 0.4795 0.4231 0.3163
N9 N 0.34645(16) 0.36038(18) 0.30855(12)
N10 N 0.3765(2) 0.2807(2) 0.29905(17)
H49 H 0.3998 0.2816 0.2962
N11 N 0.3489(2) 0.2117(2) 0.28867(17)
H50 H 0.3744 0.2186 0.2858
N12 N 0.1736(3) 0.0814(2) 0.32088(17)
N13 N 0.2036(3) 0.1215(2) 0.22562(17)
N14 N 0.2502(3) 0.2206(2) 0.18074(15)
H51 H 0.2556 0.2277 0.1602
N15 N 0.2791(2) 0.28978(18) 0.18899(13)
H52 H 0.2817 0.2913 0.1677
N16 N 0.30373(16) 0.36610(18) 0.25564(11)
N17 N 0.36636(18) 0.43678(19) 0.18949(12)
H53 H 0.3655 0.4353 0.1681
N18 N 0.4165(2) 0.5027(2) 0.17838(13)
H54 H 0.4104 0.4951 0.1580
N19 N 0.24555(16) 0.37276(16) 0.30578(11)
N20 N 0.28640(18) 0.36588(16) 0.35520(11)
O1 O 0.44492(17) 0.47923(17) 0.30426(14)
O2 O 0.30684(18) 0.23692(16) 0.30267(13)
O3 O 0.2564(2) 0.24585(17) 0.23362(13)
O4 O 0.3967(2) 0.48152(16) 0.23226(11)
Pd1 Pd 0.50392(3) 0.62821(2) 0.26422(2)
Pd2 Pd 0.29553(2) 0.36603(2) 0.30602(2)
Pd3 Pd 0.18984(3) 0.10147(2) 0.27365(2)
N21 N 0.3843(2) 0.4519(2) 0.10013(13)
O5 O 0.4211(4) 0.4729(6) 0.1130(2)
O6 O 0.3619(5) 0.4177(3) 0.1159(3)
O7 O 0.3857(5) 0.4483(6) 0.06788(18)
N22 N 0.2916(3) 0.2682(3) 0.10298(17)
O11 O 0.2979(4) 0.2988(3) 0.1200(2)
O12 O 0.2792(8) 0.2321(3) 0.1152(3)
O13 O 0.3009(4) 0.2729(4) 0.07123(18)
N24 N 0.4553(5) 0.2599(6) 0.2601(6)
O20 O 0.4880(5) 0.2680(6) 0.2428(5)
O21 O 0.4524(5) 0.2887(6) 0.2757(6)
O22 O 0.4240(4) 0.2240(5) 0.2560(5)
N27 N 0.4214(9) 0.3615(8) 0.1816(7)
O29 O 0.4256(7) 0.3954(8) 0.1672(4)
O30 O 0.4188(12) 0.3636(11) 0.2145(6)
O31 O 0.3912(12) 0.3268(9) 0.1687(8)
N28 N 0.5554(8) 0.5055(7) 0.1093(4)
O32 O 0.5308(13) 0.4649(7) 0.1146(8)
O33 O 0.5666(3) 0.5114(4) 0.0782(3)
O34 O 0.5389(8) 0.5273(7) 0.1208(4)
N30 N 0.4569(8) 0.2225(6) 0.3787(6)
O38 O 0.4311(9) 0.2241(9) 0.4003(6)
O39 O 0.4533(10) 0.2346(8) 0.3485(6)
O40 O 0.4535(6) 0.1858(5) 0.3780(6)
O8? O 0.4012(6) 0.4902(3) 0.1099(3)
O9? O 0.3566(5) 0.4271(4) 0.1211(4)
O10? O 0.3728(7) 0.4464(8) 0.0689(2)
O14? O 0.3160(7) 0.2859(12) 0.1280(5)
O15? O 0.2548(5) 0.2373(9) 0.1108(5)
O16? O 0.3073(10) 0.2640(13) 0.0752(5)
N23? N 0.4620(10) 0.1557(10) 0.3110(7)
O17? O 0.4903(12) 0.1446(14) 0.3112(9)
O18? O 0.4737(18) 0.1905(14) 0.3277(10)
O19? O 0.4464(10) 0.1550(10) 0.2817(8)
N25? N 0.3700(12) 0.2579(13) 0.1675(8)
O23? O 0.362(2) 0.2769(18) 0.1432(10)
O24? O 0.3727(14) 0.2744(15) 0.1971(9)
O25? O 0.3496(17) 0.2170(13) 0.1658(14)
N26? N 0.5227(7) 0.5092(6) 0.1859(4)
O26? O 0.5042(7) 0.5009(8) 0.1568(5)
O27? O 0.5008(7) 0.4835(6) 0.2099(4)
O28? O 0.5455(7) 0.5487(6) 0.1942(5)
N29? N 0.1218(10) 0.1682(9) 0.1714(7)
O35? O 0.1408(12) 0.1924(10) 0.1454(7)
O36? O 0.1199(11) 0.1320(9) 0.1701(8)
O37? O 0.1340(12) 0.1860(10) 0.2009(6)
loop_
_geom_bond_atom_site_label_1
_geom_bond_atom_site_label_2
_geom_bond_site_symmetry_1
_geom_bond_site_symmetry_2
N1 C1 1_555 1_555
C1 H1 1_555 1_555
C2 C1 1_555 1_555
H2 C2 1_555 1_555
C3 C2 1_555 1_555
H3 C3 1_555 1_555
C4 C3 1_555 1_555
H4 C4 1_555 1_555
C5 N1 1_555 1_555
C6 C5 1_555 1_555
C7 C6 1_555 1_555
H5 C7 1_555 1_555
C8 C7 1_555 1_555
H6 C8 1_555 1_555
C9 C8 1_555 1_555
H7 C9 1_555 1_555
C10 C9 1_555 1_555
H8 C10 1_555 1_555
N2 C11 1_555 1_555
C11 H9 1_555 1_555
C12 C11 1_555 1_555
H10 C12 1_555 1_555
C13 C12 1_555 1_555
H11 C13 1_555 1_555
C14 C13 1_555 1_555
C15 N2 1_555 1_555
H12 C15 1_555 1_555
C16 N7 1_555 1_555
C17 C18 1_555 1_555
C18 H13 1_555 1_555
C19 C18 1_555 1_555
C20 C19 1_555 1_555
H14 C20 1_555 1_555
C21 C17 1_555 1_555
H15 C21 1_555 1_555
C22 N10 1_555 1_555
C23 H16 1_555 1_555
C24 C23 1_555 1_555
C25 C24 1_555 1_555
H17 C25 1_555 1_555
C26 C25 1_555 1_555
H18 C26 1_555 1_555
C27 C26 1_555 1_555
H19 C27 1_555 1_555
N3 C23 1_555 1_555
C28 H20 1_555 1_555
C29 C28 1_555 1_555
H21 C29 1_555 1_555
C30 C29 1_555 1_555
H22 C30 1_555 1_555
C31 C30 1_555 1_555
H23 C31 1_555 1_555
C32 C31 1_555 1_555
N4 C33 1_555 1_555
C33 C32 1_555 1_555
C34 C33 1_555 1_555
H24 C34 1_555 1_555
C35 C34 1_555 1_555
H25 C35 1_555 1_555
C36 C35 1_555 1_555
H26 C36 1_555 1_555
C37 N4 1_555 1_555
H27 C37 1_555 1_555
C38 H28 1_555 1_555
C39 C38 1_555 1_555
H29 C39 1_555 1_555
C40 C39 1_555 1_555
H30 C40 1_555 1_555
C41 C40 1_555 1_555
C42 C41 1_555 1_555
H31 C42 1_555 1_555
C43 N14 1_555 1_555
C44 C45 1_555 1_555
C45 H32 1_555 1_555
C46 C45 1_555 1_555
C47 C46 1_555 1_555
H33 C47 1_555 1_555
C48 C44 1_555 1_555
H34 C48 1_555 1_555
C49 N17 1_555 1_555
N5 C53 1_555 1_555
C50 C51 1_555 1_555
C51 H35 1_555 1_555
C52 C51 1_555 1_555
H36 C52 1_555 1_555
C53 C52 1_555 1_555
H37 C53 1_555 1_555
C54 N5 1_555 1_555
H38 C54 1_555 1_555
C55 H39 1_555 1_555
C56 C55 1_555 1_555
H40 C56 1_555 1_555
C57 C56 1_555 1_555
H41 C57 1_555 1_555
C58 C57 1_555 1_555
H42 C58 1_555 1_555
C59 C58 1_555 1_555
C60 C59 1_555 1_555
C61 C60 1_555 1_555
H43 C61 1_555 1_555
C62 C61 1_555 1_555
H44 C62 1_555 1_555
C63 C62 1_555 1_555
H45 C63 1_555 1_555
C64 C63 1_555 1_555
H46 C64 1_555 1_555
N6 C6 1_555 1_555
N7 C14 1_555 1_555
H47 N7 1_555 1_555
N8 C16 1_555 1_555
H48 N8 1_555 1_555
N9 C20 1_555 1_555
N10 C19 1_555 1_555
H49 N10 1_555 1_555
N11 C22 1_555 1_555
H50 N11 1_555 1_555
N12 C28 1_555 1_555
N13 C38 1_555 1_555
N14 C41 1_555 1_555
H51 N14 1_555 1_555
N15 C43 1_555 1_555
H52 N15 1_555 1_555
N16 C47 1_555 1_555
N17 C46 1_555 1_555
H53 N17 1_555 1_555
N18 C49 1_555 1_555
H54 N18 1_555 1_555
N19 C60 1_555 1_555
N20 C55 1_555 1_555
O1 C16 1_555 1_555
O2 C22 1_555 1_555
O3 C43 1_555 1_555
O4 C49 1_555 1_555
Pd1 N1 1_555 1_555
Pd2 N9 1_555 1_555
Pd3 N3 1_555 1_555
N21 O5 1_555 1_555
O6 N21 1_555 1_555
O7 N21 1_555 1_555
N22 O11 1_555 1_555
O12 N22 1_555 1_555
O13 N22 1_555 1_555
N24 O20 1_555 1_555
O21 N24 1_555 1_555
O22 N24 1_555 1_555
N27 O29 1_555 1_555
O30 N27 1_555 1_555
O31 N27 1_555 1_555
N28 O32 1_555 1_555
O33 N28 1_555 1_555
O34 N28 1_555 1_555
N30 O38 1_555 1_555
O39 N30 1_555 1_555
O40 N30 1_555 1_555
C4 C5 1_555 1_555
C10 N6 1_555 1_555
N2 Pd1 1_555 1_555
C14 C15 1_555 1_555
C17 N8 1_555 1_555
C21 N9 1_555 1_555
C24 N11 1_555 1_555
C27 N3 1_555 1_555
C32 N12 1_555 1_555
N4 Pd3 1_555 1_555
C36 C37 1_555 1_555
C42 N13 1_555 1_555
C44 N15 1_555 1_555
C48 N16 1_555 1_555
N5 Pd1 1_555 1_555
C50 C54 1_555 1_555
C50 N18 1_555 1_555
C59 N20 1_555 1_555
C64 N19 1_555 1_555
N6 Pd1 1_555 1_555
N12 Pd3 1_555 1_555
N13 Pd3 1_555 1_555
N16 Pd2 1_555 1_555
N19 Pd2 1_555 1_555
N20 Pd2 1_555 1_555

#END
