# generated using pymatgen
data_H54Pd3C70N29O37
_symmetry_space_group_name_H-M   'P 1'
_cell_length_a   25.27752081
_cell_length_b   25.27752081
_cell_length_c   25.27752081
_cell_angle_alpha   96.08940875
_cell_angle_beta   96.08940875
_cell_angle_gamma   96.08940875
_symmetry_Int_Tables_number   1
_chemical_formula_structural   H54Pd3C70N29O37
_chemical_formula_sum   'H324 Pd18 C420 N174 O222'
_cell_volume   15856.55875595
_cell_formula_units_Z   6
loop_
 _symmetry_equiv_pos_site_id
 _symmetry_equiv_pos_as_xyz
  1  'x, y, z'
loop_
 _atom_site_type_symbol
 _atom_site_label
 _atom_site_symmetry_multiplicity
 _atom_site_fract_x
 _atom_site_fract_y
 _atom_site_fract_z
 _atom_site_occupancy
  C  C1  1  0.059600  0.191200  0.925900  1
  C  C2  1  0.925900  0.059600  0.191200  1
  C  C3  1  0.191200  0.925900  0.059600  1
  C  C4  1  0.940400  0.808800  0.074100  1
  C  C5  1  0.074100  0.940400  0.808800  1
  C  C6  1  0.808800  0.074100  0.940400  1
  C  C7  1  0.026000  0.179400  0.965000  1
  C  C8  1  0.965000  0.026000  0.179400  1
  C  C9  1  0.179400  0.965000  0.026000  1
  C  C10  1  0.974000  0.820600  0.035000  1
  C  C11  1  0.035000  0.974000  0.820600  1
  C  C12  1  0.820600  0.035000  0.974000  1
  C  C13  1  0.027400  0.213500  0.010500  1
  C  C14  1  0.010500  0.027400  0.213500  1
  C  C15  1  0.213500  0.010500  0.027400  1
  C  C16  1  0.972600  0.786500  0.989500  1
  C  C17  1  0.989500  0.972600  0.786500  1
  C  C18  1  0.786500  0.989500  0.972600  1
  C  C19  1  0.061700  0.264600  0.020800  1
  C  C20  1  0.020800  0.061700  0.264600  1
  C  C21  1  0.264600  0.020800  0.061700  1
  C  C22  1  0.938300  0.735400  0.979200  1
  C  C23  1  0.979200  0.938300  0.735400  1
  C  C24  1  0.735400  0.979200  0.938300  1
  C  C25  1  0.069100  0.300800  0.063300  1
  C  C26  1  0.063300  0.069100  0.300800  1
  C  C27  1  0.300800  0.063300  0.069100  1
  C  C28  1  0.930900  0.699200  0.936700  1
  C  C29  1  0.936700  0.930900  0.699200  1
  C  C30  1  0.699200  0.936700  0.930900  1
  C  C31  1  0.102200  0.342200  0.069500  1
  C  C32  1  0.069500  0.102200  0.342200  1
  C  C33  1  0.342200  0.069500  0.102200  1
  C  C34  1  0.897800  0.657800  0.930500  1
  C  C35  1  0.930500  0.897800  0.657800  1
  C  C36  1  0.657800  0.930500  0.897800  1
  C  C37  1  0.137000  0.357000  0.027700  1
  C  C38  1  0.027700  0.137000  0.357000  1
  C  C39  1  0.357000  0.027700  0.137000  1
  C  C40  1  0.863000  0.643000  0.972300  1
  C  C41  1  0.972300  0.863000  0.643000  1
  C  C42  1  0.643000  0.972300  0.863000  1
  C  C43  1  0.174100  0.400600  0.029200  1
  C  C44  1  0.029200  0.174100  0.400600  1
  C  C45  1  0.400600  0.029200  0.174100  1
  C  C46  1  0.825900  0.599400  0.970800  1
  C  C47  1  0.970800  0.825900  0.599400  1
  C  C48  1  0.599400  0.970800  0.825900  1
  C  C49  1  0.200800  0.406600  0.988100  1
  C  C50  1  0.988100  0.200800  0.406600  1
  C  C51  1  0.406600  0.988100  0.200800  1
  C  C52  1  0.799200  0.593400  0.011900  1
  C  C53  1  0.011900  0.799200  0.593400  1
  C  C54  1  0.593400  0.011900  0.799200  1
  C  C55  1  0.193900  0.369100  0.943400  1
  C  C56  1  0.943400  0.193900  0.369100  1
  C  C57  1  0.369100  0.943400  0.193900  1
  C  C58  1  0.806100  0.630900  0.056600  1
  C  C59  1  0.056600  0.806100  0.630900  1
  C  C60  1  0.630900  0.056600  0.806100  1
  C  C61  1  0.131100  0.318700  0.979800  1
  C  C62  1  0.979800  0.131100  0.318700  1
  C  C63  1  0.318700  0.979800  0.131100  1
  C  C64  1  0.868900  0.681300  0.020200  1
  C  C65  1  0.020200  0.868900  0.681300  1
  C  C66  1  0.681300  0.020200  0.868900  1
  C  C67  1  0.096690  0.272390  0.980600  1
  C  C68  1  0.980600  0.096690  0.272390  1
  C  C69  1  0.272390  0.980600  0.096690  1
  C  C70  1  0.903310  0.727610  0.019400  1
  C  C71  1  0.019400  0.903310  0.727610  1
  C  C72  1  0.727610  0.019400  0.903310  1
  C  C73  1  0.159790  0.340420  0.811310  1
  C  C74  1  0.811310  0.159790  0.340420  1
  C  C75  1  0.340420  0.811310  0.159790  1
  C  C76  1  0.840210  0.659580  0.188690  1
  C  C77  1  0.188690  0.840210  0.659580  1
  C  C78  1  0.659580  0.188690  0.840210  1
  C  C79  1  0.186210  0.372780  0.778840  1
  C  C80  1  0.778840  0.186210  0.372780  1
  C  C81  1  0.372780  0.778840  0.186210  1
  C  C82  1  0.813790  0.627220  0.221160  1
  C  C83  1  0.221160  0.813790  0.627220  1
  C  C84  1  0.627220  0.221160  0.813790  1
  C  C85  1  0.237730  0.364680  0.768060  1
  C  C86  1  0.768060  0.237730  0.364680  1
  C  C87  1  0.364680  0.768060  0.237730  1
  C  C88  1  0.762270  0.635320  0.231940  1
  C  C89  1  0.231940  0.762270  0.635320  1
  C  C90  1  0.635320  0.231940  0.762270  1
  C  C91  1  0.262820  0.324230  0.789750  1
  C  C92  1  0.789750  0.262820  0.324230  1
  C  C93  1  0.324230  0.789750  0.262820  1
  C  C94  1  0.737180  0.675770  0.210250  1
  C  C95  1  0.210250  0.737180  0.675770  1
  C  C96  1  0.675770  0.210250  0.737180  1
  C  C97  1  0.236390  0.291860  0.822210  1
  C  C98  1  0.822210  0.236390  0.291860  1
  C  C99  1  0.291860  0.822210  0.236390  1
  C  C100  1  0.763610  0.708140  0.177790  1
  C  C101  1  0.177790  0.763610  0.708140  1
  C  C102  1  0.708140  0.177790  0.763610  1
  C  C103  1  0.346090  0.277230  0.795630  1
  C  C104  1  0.795630  0.346090  0.277230  1
  C  C105  1  0.277230  0.795630  0.346090  1
  C  C106  1  0.653910  0.722770  0.204370  1
  C  C107  1  0.204370  0.653910  0.722770  1
  C  C108  1  0.722770  0.204370  0.653910  1
  C  C109  1  0.421390  0.231720  0.777000  1
  C  C110  1  0.777000  0.421390  0.231720  1
  C  C111  1  0.231720  0.777000  0.421390  1
  C  C112  1  0.578610  0.768280  0.223000  1
  C  C113  1  0.223000  0.578610  0.768280  1
  C  C114  1  0.768280  0.223000  0.578610  1
  C  C115  1  0.453860  0.223880  0.737100  1
  C  C116  1  0.737100  0.453860  0.223880  1
  C  C117  1  0.223880  0.737100  0.453860  1
  C  C118  1  0.546140  0.776120  0.262900  1
  C  C119  1  0.262900  0.546140  0.776120  1
  C  C120  1  0.776120  0.262900  0.546140  1
  C  C121  1  0.485310  0.182490  0.737110  1
  C  C122  1  0.737110  0.485310  0.182490  1
  C  C123  1  0.182490  0.737110  0.485310  1
  C  C124  1  0.514690  0.817510  0.262890  1
  C  C125  1  0.262890  0.514690  0.817510  1
  C  C126  1  0.817510  0.262890  0.514690  1
  C  C127  1  0.482960  0.148950  0.777980  1
  C  C128  1  0.777980  0.482960  0.148950  1
  C  C129  1  0.148950  0.777980  0.482960  1
  C  C130  1  0.517040  0.851050  0.222020  1
  C  C131  1  0.222020  0.517040  0.851050  1
  C  C132  1  0.851050  0.222020  0.517040  1
  C  C133  1  0.419410  0.196900  0.817460  1
  C  C134  1  0.817460  0.419410  0.196900  1
  C  C135  1  0.196900  0.817460  0.419410  1
  C  C136  1  0.580590  0.803100  0.182540  1
  C  C137  1  0.182540  0.580590  0.803100  1
  C  C138  1  0.803100  0.182540  0.580590  1
  C  C139  1  0.550190  0.138580  0.687520  1
  C  C140  1  0.687520  0.550190  0.138580  1
  C  C141  1  0.138580  0.687520  0.550190  1
  C  C142  1  0.449810  0.861420  0.312480  1
  C  C143  1  0.312480  0.449810  0.861420  1
  C  C144  1  0.861420  0.312480  0.449810  1
  C  C145  1  0.604950  0.100880  0.623690  1
  C  C146  1  0.623690  0.604950  0.100880  1
  C  C147  1  0.100880  0.623690  0.604950  1
  C  C148  1  0.395050  0.899120  0.376310  1
  C  C149  1  0.376310  0.395050  0.899120  1
  C  C150  1  0.899120  0.376310  0.395050  1
  C  C151  1  0.630900  0.110880  0.578620  1
  C  C152  1  0.578620  0.630900  0.110880  1
  C  C153  1  0.110880  0.578620  0.630900  1
  C  C154  1  0.369100  0.889120  0.421380  1
  C  C155  1  0.421380  0.369100  0.889120  1
  C  C156  1  0.889120  0.421380  0.369100  1
  C  C157  1  0.664590  0.078050  0.561800  1
  C  C158  1  0.561800  0.664590  0.078050  1
  C  C159  1  0.078050  0.561800  0.664590  1
  C  C160  1  0.335410  0.921950  0.438200  1
  C  C161  1  0.438200  0.335410  0.921950  1
  C  C162  1  0.921950  0.438200  0.335410  1
  C  C163  1  0.675440  0.034390  0.589150  1
  C  C164  1  0.589150  0.675440  0.034390  1
  C  C165  1  0.034390  0.589150  0.675440  1
  C  C166  1  0.324560  0.965610  0.410850  1
  C  C167  1  0.410850  0.324560  0.965610  1
  C  C168  1  0.965610  0.410850  0.324560  1
  C  C169  1  0.616580  0.058750  0.649630  1
  C  C170  1  0.649630  0.616580  0.058750  1
  C  C171  1  0.058750  0.649630  0.616580  1
  C  C172  1  0.383420  0.941250  0.350370  1
  C  C173  1  0.350370  0.383420  0.941250  1
  C  C174  1  0.941250  0.350370  0.383420  1
  C  C175  1  0.598150  0.886440  0.595600  1
  C  C176  1  0.595600  0.598150  0.886440  1
  C  C177  1  0.886440  0.595600  0.598150  1
  C  C178  1  0.401850  0.113560  0.404400  1
  C  C179  1  0.404400  0.401850  0.113560  1
  C  C180  1  0.113560  0.404400  0.401850  1
  C  C181  1  0.549390  0.861870  0.567590  1
  C  C182  1  0.567590  0.549390  0.861870  1
  C  C183  1  0.861870  0.567590  0.549390  1
  C  C184  1  0.450610  0.138130  0.432410  1
  C  C185  1  0.432410  0.450610  0.138130  1
  C  C186  1  0.138130  0.432410  0.450610  1
  C  C187  1  0.501220  0.873160  0.584790  1
  C  C188  1  0.584790  0.501220  0.873160  1
  C  C189  1  0.873160  0.584790  0.501220  1
  C  C190  1  0.498780  0.126840  0.415210  1
  C  C191  1  0.415210  0.498780  0.126840  1
  C  C192  1  0.126840  0.415210  0.498780  1
  C  C193  1  0.500090  0.909960  0.628950  1
  C  C194  1  0.628950  0.500090  0.909960  1
  C  C195  1  0.909960  0.628950  0.500090  1
  C  C196  1  0.499910  0.090040  0.371050  1
  C  C197  1  0.371050  0.499910  0.090040  1
  C  C198  1  0.090040  0.371050  0.499910  1
  C  C199  1  0.550240  0.934340  0.655280  1
  C  C200  1  0.655280  0.550240  0.934340  1
  C  C201  1  0.934340  0.655280  0.550240  1
  C  C202  1  0.449760  0.065660  0.344720  1
  C  C203  1  0.344720  0.449760  0.065660  1
  C  C204  1  0.065660  0.344720  0.449760  1
  C  C205  1  0.444900  0.959220  0.682580  1
  C  C206  1  0.682580  0.444900  0.959220  1
  C  C207  1  0.959220  0.682580  0.444900  1
  C  C208  1  0.555100  0.040780  0.317420  1
  C  C209  1  0.317420  0.555100  0.040780  1
  C  C210  1  0.040780  0.317420  0.555100  1
  C  C211  1  0.375470  0.998520  0.729300  1
  C  C212  1  0.729300  0.375470  0.998520  1
  C  C213  1  0.998520  0.729300  0.375470  1
  C  C214  1  0.624530  0.001480  0.270700  1
  C  C215  1  0.270700  0.624530  0.001480  1
  C  C216  1  0.001480  0.270700  0.624530  1
  C  C217  1  0.322310  0.008440  0.723880  1
  C  C218  1  0.723880  0.322310  0.008440  1
  C  C219  1  0.008440  0.723880  0.322310  1
  C  C220  1  0.677690  0.991560  0.276120  1
  C  C221  1  0.276120  0.677690  0.991560  1
  C  C222  1  0.991560  0.276120  0.677690  1
  C  C223  1  0.302740  0.043860  0.758700  1
  C  C224  1  0.758700  0.302740  0.043860  1
  C  C225  1  0.043860  0.758700  0.302740  1
  C  C226  1  0.697260  0.956140  0.241300  1
  C  C227  1  0.241300  0.697260  0.956140  1
  C  C228  1  0.956140  0.241300  0.697260  1
  C  C229  1  0.338180  0.068950  0.801430  1
  C  C230  1  0.801430  0.338180  0.068950  1
  C  C231  1  0.068950  0.801430  0.338180  1
  C  C232  1  0.661820  0.931050  0.198570  1
  C  C233  1  0.198570  0.661820  0.931050  1
  C  C234  1  0.931050  0.198570  0.661820  1
  C  C235  1  0.408490  0.024000  0.773850  1
  C  C236  1  0.773850  0.408490  0.024000  1
  C  C237  1  0.024000  0.773850  0.408490  1
  C  C238  1  0.591510  0.976000  0.226150  1
  C  C239  1  0.226150  0.591510  0.976000  1
  C  C240  1  0.976000  0.226150  0.591510  1
  C  C241  1  0.399180  0.004620  0.915940  1
  C  C242  1  0.915940  0.399180  0.004620  1
  C  C243  1  0.004620  0.915940  0.399180  1
  C  C244  1  0.600820  0.995380  0.084060  1
  C  C245  1  0.084060  0.600820  0.995380  1
  C  C246  1  0.995380  0.084060  0.600820  1
  C  C247  1  0.395340  0.975640  0.962080  1
  C  C248  1  0.962080  0.395340  0.975640  1
  C  C249  1  0.975640  0.962080  0.395340  1
  C  C250  1  0.604660  0.024360  0.037920  1
  C  C251  1  0.037920  0.604660  0.024360  1
  C  C252  1  0.024360  0.037920  0.604660  1
  C  C253  1  0.421540  0.995560  0.011900  1
  C  C254  1  0.011900  0.421540  0.995560  1
  C  C255  1  0.995560  0.011900  0.421540  1
  C  C256  1  0.578460  0.004440  0.988100  1
  C  C257  1  0.988100  0.578460  0.004440  1
  C  C258  1  0.004440  0.988100  0.578460  1
  C  C259  1  0.454580  0.045040  0.016350  1
  C  C260  1  0.016350  0.454580  0.045040  1
  C  C261  1  0.045040  0.016350  0.454580  1
  C  C262  1  0.545420  0.954960  0.983650  1
  C  C263  1  0.983650  0.545420  0.954960  1
  C  C264  1  0.954960  0.983650  0.545420  1
  C  C265  1  0.483160  0.067130  0.064560  1
  C  C266  1  0.064560  0.483160  0.067130  1
  C  C267  1  0.067130  0.064560  0.483160  1
  C  C268  1  0.516840  0.932870  0.935440  1
  C  C269  1  0.935440  0.516840  0.932870  1
  C  C270  1  0.932870  0.935440  0.516840  1
  C  C271  1  0.515330  0.114770  0.069950  1
  C  C272  1  0.069950  0.515330  0.114770  1
  C  C273  1  0.114770  0.069950  0.515330  1
  C  C274  1  0.484670  0.885230  0.930050  1
  C  C275  1  0.930050  0.484670  0.885230  1
  C  C276  1  0.885230  0.930050  0.484670  1
  C  C277  1  0.519870  0.144360  0.022740  1
  C  C278  1  0.022740  0.519870  0.144360  1
  C  C279  1  0.144360  0.022740  0.519870  1
  C  C280  1  0.480130  0.855640  0.977260  1
  C  C281  1  0.977260  0.480130  0.855640  1
  C  C282  1  0.855640  0.977260  0.480130  1
  C  C283  1  0.549580  0.193300  0.024250  1
  C  C284  1  0.024250  0.549580  0.193300  1
  C  C285  1  0.193300  0.024250  0.549580  1
  C  C286  1  0.450420  0.806700  0.975750  1
  C  C287  1  0.975750  0.450420  0.806700  1
  C  C288  1  0.806700  0.975750  0.450420  1
  C  C289  1  0.550360  0.214490  0.977440  1
  C  C290  1  0.977440  0.550360  0.214490  1
  C  C291  1  0.214490  0.977440  0.550360  1
  C  C292  1  0.449640  0.785510  0.022560  1
  C  C293  1  0.022560  0.449640  0.785510  1
  C  C294  1  0.785510  0.022560  0.449640  1
  C  C295  1  0.520260  0.190090  0.930180  1
  C  C296  1  0.930180  0.520260  0.190090  1
  C  C297  1  0.190090  0.930180  0.520260  1
  C  C298  1  0.479740  0.809910  0.069820  1
  C  C299  1  0.069820  0.479740  0.809910  1
  C  C300  1  0.809910  0.069820  0.479740  1
  C  C301  1  0.457960  0.070460  0.970270  1
  C  C302  1  0.970270  0.457960  0.070460  1
  C  C303  1  0.070460  0.970270  0.457960  1
  C  C304  1  0.542040  0.929540  0.029730  1
  C  C305  1  0.029730  0.542040  0.929540  1
  C  C306  1  0.929540  0.029730  0.542040  1
  C  C307  1  0.491010  0.119840  0.973490  1
  C  C308  1  0.973490  0.491010  0.119840  1
  C  C309  1  0.119840  0.973490  0.491010  1
  C  C310  1  0.508990  0.880160  0.026510  1
  C  C311  1  0.026510  0.508990  0.880160  1
  C  C312  1  0.880160  0.026510  0.508990  1
  C  C313  1  0.225860  0.089250  0.773690  1
  C  C314  1  0.773690  0.225860  0.089250  1
  C  C315  1  0.089250  0.773690  0.225860  1
  C  C316  1  0.774140  0.910750  0.226310  1
  C  C317  1  0.226310  0.774140  0.910750  1
  C  C318  1  0.910750  0.226310  0.774140  1
  C  C319  1  0.139320  0.126720  0.773440  1
  C  C320  1  0.773440  0.139320  0.126720  1
  C  C321  1  0.126720  0.773440  0.139320  1
  C  C322  1  0.860680  0.873280  0.226560  1
  C  C323  1  0.226560  0.860680  0.873280  1
  C  C324  1  0.873280  0.226560  0.860680  1
  C  C325  1  0.082760  0.113530  0.754150  1
  C  C326  1  0.754150  0.082760  0.113530  1
  C  C327  1  0.113530  0.754150  0.082760  1
  C  C328  1  0.917240  0.886470  0.245850  1
  C  C329  1  0.245850  0.917240  0.886470  1
  C  C330  1  0.886470  0.245850  0.917240  1
  C  C331  1  0.046780  0.150850  0.765380  1
  C  C332  1  0.765380  0.046780  0.150850  1
  C  C333  1  0.150850  0.765380  0.046780  1
  C  C334  1  0.953220  0.849150  0.234620  1
  C  C335  1  0.234620  0.953220  0.849150  1
  C  C336  1  0.849150  0.234620  0.953220  1
  C  C337  1  0.065200  0.196150  0.799760  1
  C  C338  1  0.799760  0.065200  0.196150  1
  C  C339  1  0.196150  0.799760  0.065200  1
  C  C340  1  0.934800  0.803850  0.200240  1
  C  C341  1  0.200240  0.934800  0.803850  1
  C  C342  1  0.803850  0.200240  0.934800  1
  C  C343  1  0.154410  0.168950  0.812030  1
  C  C344  1  0.812030  0.154410  0.168950  1
  C  C345  1  0.168950  0.812030  0.154410  1
  C  C346  1  0.845590  0.831050  0.187970  1
  C  C347  1  0.187970  0.845590  0.831050  1
  C  C348  1  0.831050  0.187970  0.845590  1
  C  C349  1  0.757420  0.051320  0.711430  1
  C  C350  1  0.711430  0.757420  0.051320  1
  C  C351  1  0.051320  0.711430  0.757420  1
  C  C352  1  0.242580  0.948680  0.288570  1
  C  C353  1  0.288570  0.242580  0.948680  1
  C  C354  1  0.948680  0.288570  0.242580  1
  C  C355  1  0.805600  0.073730  0.743020  1
  C  C356  1  0.743020  0.805600  0.073730  1
  C  C357  1  0.073730  0.743020  0.805600  1
  C  C358  1  0.194400  0.926270  0.256980  1
  C  C359  1  0.256980  0.194400  0.926270  1
  C  C360  1  0.926270  0.256980  0.194400  1
  C  C361  1  0.824960  0.047610  0.783710  1
  C  C362  1  0.783710  0.824960  0.047610  1
  C  C363  1  0.047610  0.783710  0.824960  1
  C  C364  1  0.175040  0.952390  0.216290  1
  C  C365  1  0.216290  0.175040  0.952390  1
  C  C366  1  0.952390  0.216290  0.175040  1
  C  C367  1  0.801110  0.994970  0.789040  1
  C  C368  1  0.789040  0.801110  0.994970  1
  C  C369  1  0.994970  0.789040  0.801110  1
  C  C370  1  0.198890  0.005030  0.210960  1
  C  C371  1  0.210960  0.198890  0.005030  1
  C  C372  1  0.005030  0.210960  0.198890  1
  C  C373  1  0.822410  0.967180  0.829310  1
  C  C374  1  0.829310  0.822410  0.967180  1
  C  C375  1  0.967180  0.829310  0.822410  1
  C  C376  1  0.177590  0.032820  0.170690  1
  C  C377  1  0.170690  0.177590  0.032820  1
  C  C378  1  0.032820  0.170690  0.177590  1
  C  C379  1  0.789200  0.911270  0.832900  1
  C  C380  1  0.832900  0.789200  0.911270  1
  C  C381  1  0.911270  0.832900  0.789200  1
  C  C382  1  0.210800  0.088730  0.167100  1
  C  C383  1  0.167100  0.210800  0.088730  1
  C  C384  1  0.088730  0.167100  0.210800  1
  C  C385  1  0.737610  0.894820  0.799330  1
  C  C386  1  0.799330  0.737610  0.894820  1
  C  C387  1  0.894820  0.799330  0.737610  1
  C  C388  1  0.262390  0.105180  0.200670  1
  C  C389  1  0.200670  0.262390  0.105180  1
  C  C390  1  0.105180  0.200670  0.262390  1
  C  C391  1  0.713860  0.840370  0.797910  1
  C  C392  1  0.797910  0.713860  0.840370  1
  C  C393  1  0.840370  0.797910  0.713860  1
  C  C394  1  0.286140  0.159630  0.202090  1
  C  C395  1  0.202090  0.286140  0.159630  1
  C  C396  1  0.159630  0.202090  0.286140  1
  C  C397  1  0.670050  0.822310  0.759910  1
  C  C398  1  0.759910  0.670050  0.822310  1
  C  C399  1  0.822310  0.759910  0.670050  1
  C  C400  1  0.329950  0.177690  0.240090  1
  C  C401  1  0.240090  0.329950  0.177690  1
  C  C402  1  0.177690  0.240090  0.329950  1
  C  C403  1  0.652000  0.855880  0.723540  1
  C  C404  1  0.723540  0.652000  0.855880  1
  C  C405  1  0.855880  0.723540  0.652000  1
  C  C406  1  0.348000  0.144120  0.276460  1
  C  C407  1  0.276460  0.348000  0.144120  1
  C  C408  1  0.144120  0.276460  0.348000  1
  C  C409  1  0.727600  0.928420  0.760650  1
  C  C410  1  0.760650  0.727600  0.928420  1
  C  C411  1  0.928420  0.760650  0.727600  1
  C  C412  1  0.272400  0.071580  0.239350  1
  C  C413  1  0.239350  0.272400  0.071580  1
  C  C414  1  0.071580  0.239350  0.272400  1
  C  C415  1  0.753960  0.975850  0.756580  1
  C  C416  1  0.756580  0.753960  0.975850  1
  C  C417  1  0.975850  0.756580  0.753960  1
  C  C418  1  0.246040  0.024150  0.243420  1
  C  C419  1  0.243420  0.246040  0.024150  1
  C  C420  1  0.024150  0.243420  0.246040  1
  H  H421  1  0.058600  0.166900  0.895400  1
  H  H422  1  0.895400  0.058600  0.166900  1
  H  H423  1  0.166900  0.895400  0.058600  1
  H  H424  1  0.941400  0.833100  0.104600  1
  H  H425  1  0.104600  0.941400  0.833100  1
  H  H426  1  0.833100  0.104600  0.941400  1
  H  H427  1  0.002500  0.148000  0.959600  1
  H  H428  1  0.959600  0.002500  0.148000  1
  H  H429  1  0.148000  0.959600  0.002500  1
  H  H430  1  0.997500  0.852000  0.040400  1
  H  H431  1  0.040400  0.997500  0.852000  1
  H  H432  1  0.852000  0.040400  0.997500  1
  H  H433  1  0.005600  0.203900  0.036200  1
  H  H434  1  0.036200  0.005600  0.203900  1
  H  H435  1  0.203900  0.036200  0.005600  1
  H  H436  1  0.994400  0.796100  0.963800  1
  H  H437  1  0.963800  0.994400  0.796100  1
  H  H438  1  0.796100  0.963800  0.994400  1
  H  H439  1  0.048200  0.295200  0.090700  1
  H  H440  1  0.090700  0.048200  0.295200  1
  H  H441  1  0.295200  0.090700  0.048200  1
  H  H442  1  0.951800  0.704800  0.909300  1
  H  H443  1  0.909300  0.951800  0.704800  1
  H  H444  1  0.704800  0.909300  0.951800  1
  H  H445  1  0.105300  0.364700  0.101500  1
  H  H446  1  0.101500  0.105300  0.364700  1
  H  H447  1  0.364700  0.101500  0.105300  1
  H  H448  1  0.894700  0.635300  0.898500  1
  H  H449  1  0.898500  0.894700  0.635300  1
  H  H450  1  0.635300  0.898500  0.894700  1
  H  H451  1  0.180400  0.425900  0.059400  1
  H  H452  1  0.059400  0.180400  0.425900  1
  H  H453  1  0.425900  0.059400  0.180400  1
  H  H454  1  0.819600  0.574100  0.940600  1
  H  H455  1  0.940600  0.819600  0.574100  1
  H  H456  1  0.574100  0.940600  0.819600  1
  H  H457  1  0.225200  0.437200  0.989200  1
  H  H458  1  0.989200  0.225200  0.437200  1
  H  H459  1  0.437200  0.989200  0.225200  1
  H  H460  1  0.774800  0.562800  0.010800  1
  H  H461  1  0.010800  0.774800  0.562800  1
  H  H462  1  0.562800  0.010800  0.774800  1
  H  H463  1  0.213800  0.375000  0.915200  1
  H  H464  1  0.915200  0.213800  0.375000  1
  H  H465  1  0.375000  0.915200  0.213800  1
  H  H466  1  0.786200  0.625000  0.084800  1
  H  H467  1  0.084800  0.786200  0.625000  1
  H  H468  1  0.625000  0.084800  0.786200  1
  H  H469  1  0.125400  0.345800  0.818600  1
  H  H470  1  0.818600  0.125400  0.345800  1
  H  H471  1  0.345800  0.818600  0.125400  1
  H  H472  1  0.874600  0.654200  0.181400  1
  H  H473  1  0.181400  0.874600  0.654200  1
  H  H474  1  0.654200  0.181400  0.874600  1
  H  H475  1  0.169400  0.399900  0.764300  1
  H  H476  1  0.764300  0.169400  0.399900  1
  H  H477  1  0.399900  0.764300  0.169400  1
  H  H478  1  0.830600  0.600100  0.235700  1
  H  H479  1  0.235700  0.830600  0.600100  1
  H  H480  1  0.600100  0.235700  0.830600  1
  H  H481  1  0.255400  0.386400  0.746400  1
  H  H482  1  0.746400  0.255400  0.386400  1
  H  H483  1  0.386400  0.746400  0.255400  1
  H  H484  1  0.744600  0.613600  0.253600  1
  H  H485  1  0.253600  0.744600  0.613600  1
  H  H486  1  0.613600  0.253600  0.744600  1
  H  H487  1  0.253200  0.264700  0.836700  1
  H  H488  1  0.836700  0.253200  0.264700  1
  H  H489  1  0.264700  0.836700  0.253200  1
  H  H490  1  0.746800  0.735300  0.163300  1
  H  H491  1  0.163300  0.746800  0.735300  1
  H  H492  1  0.735300  0.163300  0.746800  1
  H  H493  1  0.328600  0.335000  0.755500  1
  H  H494  1  0.755500  0.328600  0.335000  1
  H  H495  1  0.335000  0.755500  0.328600  1
  H  H496  1  0.671400  0.665000  0.244500  1
  H  H497  1  0.244500  0.671400  0.665000  1
  H  H498  1  0.665000  0.244500  0.671400  1
  H  H499  1  0.399300  0.298000  0.754500  1
  H  H500  1  0.754500  0.399300  0.298000  1
  H  H501  1  0.298000  0.754500  0.399300  1
  H  H502  1  0.600700  0.702000  0.245500  1
  H  H503  1  0.245500  0.600700  0.702000  1
  H  H504  1  0.702000  0.245500  0.600700  1
  H  H505  1  0.454600  0.246400  0.710300  1
  H  H506  1  0.710300  0.454600  0.246400  1
  H  H507  1  0.246400  0.710300  0.454600  1
  H  H508  1  0.545400  0.753600  0.289700  1
  H  H509  1  0.289700  0.545400  0.753600  1
  H  H510  1  0.753600  0.289700  0.545400  1
  H  H511  1  0.503800  0.120700  0.778400  1
  H  H512  1  0.778400  0.503800  0.120700  1
  H  H513  1  0.120700  0.778400  0.503800  1
  H  H514  1  0.496200  0.879300  0.221600  1
  H  H515  1  0.221600  0.496200  0.879300  1
  H  H516  1  0.879300  0.221600  0.496200  1
  H  H517  1  0.396900  0.201300  0.844000  1
  H  H518  1  0.844000  0.396900  0.201300  1
  H  H519  1  0.201300  0.844000  0.396900  1
  H  H520  1  0.603100  0.798700  0.156000  1
  H  H521  1  0.156000  0.603100  0.798700  1
  H  H522  1  0.798700  0.156000  0.603100  1
  H  H523  1  0.511200  0.196400  0.669800  1
  H  H524  1  0.669800  0.511200  0.196400  1
  H  H525  1  0.196400  0.669800  0.511200  1
  H  H526  1  0.488800  0.803600  0.330200  1
  H  H527  1  0.330200  0.488800  0.803600  1
  H  H528  1  0.803600  0.330200  0.488800  1
  H  H529  1  0.562500  0.159000  0.619300  1
  H  H530  1  0.619300  0.562500  0.159000  1
  H  H531  1  0.159000  0.619300  0.562500  1
  H  H532  1  0.437500  0.841000  0.380700  1
  H  H533  1  0.380700  0.437500  0.841000  1
  H  H534  1  0.841000  0.380700  0.437500  1
  H  H535  1  0.624400  0.140300  0.560800  1
  H  H536  1  0.560800  0.624400  0.140300  1
  H  H537  1  0.140300  0.560800  0.624400  1
  H  H538  1  0.375600  0.859700  0.439200  1
  H  H539  1  0.439200  0.375600  0.859700  1
  H  H540  1  0.859700  0.439200  0.375600  1
  H  H541  1  0.681200  0.084000  0.531500  1
  H  H542  1  0.531500  0.681200  0.084000  1
  H  H543  1  0.084000  0.531500  0.681200  1
  H  H544  1  0.318800  0.916000  0.468500  1
  H  H545  1  0.468500  0.318800  0.916000  1
  H  H546  1  0.916000  0.468500  0.318800  1
  H  H547  1  0.700600  0.012700  0.577700  1
  H  H548  1  0.577700  0.700600  0.012700  1
  H  H549  1  0.012700  0.577700  0.700600  1
  H  H550  1  0.299400  0.987300  0.422300  1
  H  H551  1  0.422300  0.299400  0.987300  1
  H  H552  1  0.987300  0.422300  0.299400  1
  H  H553  1  0.601300  0.053600  0.680800  1
  H  H554  1  0.680800  0.601300  0.053600  1
  H  H555  1  0.053600  0.680800  0.601300  1
  H  H556  1  0.398700  0.946400  0.319200  1
  H  H557  1  0.319200  0.398700  0.946400  1
  H  H558  1  0.946400  0.319200  0.398700  1
  H  H559  1  0.630500  0.877100  0.585400  1
  H  H560  1  0.585400  0.630500  0.877100  1
  H  H561  1  0.877100  0.585400  0.630500  1
  H  H562  1  0.369500  0.122900  0.414600  1
  H  H563  1  0.414600  0.369500  0.122900  1
  H  H564  1  0.122900  0.414600  0.369500  1
  H  H565  1  0.549500  0.837700  0.537200  1
  H  H566  1  0.537200  0.549500  0.837700  1
  H  H567  1  0.837700  0.537200  0.549500  1
  H  H568  1  0.450500  0.162300  0.462800  1
  H  H569  1  0.462800  0.450500  0.162300  1
  H  H570  1  0.162300  0.462800  0.450500  1
  H  H571  1  0.469200  0.855800  0.566400  1
  H  H572  1  0.566400  0.469200  0.855800  1
  H  H573  1  0.855800  0.566400  0.469200  1
  H  H574  1  0.530800  0.144200  0.433600  1
  H  H575  1  0.433600  0.530800  0.144200  1
  H  H576  1  0.144200  0.433600  0.530800  1
  H  H577  1  0.551500  0.958600  0.685800  1
  H  H578  1  0.685800  0.551500  0.958600  1
  H  H579  1  0.958600  0.685800  0.551500  1
  H  H580  1  0.448500  0.041400  0.314200  1
  H  H581  1  0.314200  0.448500  0.041400  1
  H  H582  1  0.041400  0.314200  0.448500  1
  H  H583  1  0.423400  0.902200  0.628200  1
  H  H584  1  0.628200  0.423400  0.902200  1
  H  H585  1  0.902200  0.628200  0.423400  1
  H  H586  1  0.576600  0.097800  0.371800  1
  H  H587  1  0.371800  0.576600  0.097800  1
  H  H588  1  0.097800  0.371800  0.576600  1
  H  H589  1  0.368700  0.940800  0.672500  1
  H  H590  1  0.672500  0.368700  0.940800  1
  H  H591  1  0.940800  0.672500  0.368700  1
  H  H592  1  0.631300  0.059200  0.327500  1
  H  H593  1  0.327500  0.631300  0.059200  1
  H  H594  1  0.059200  0.327500  0.631300  1
  H  H595  1  0.299200  0.990000  0.695200  1
  H  H596  1  0.695200  0.299200  0.990000  1
  H  H597  1  0.990000  0.695200  0.299200  1
  H  H598  1  0.700800  0.010000  0.304800  1
  H  H599  1  0.304800  0.700800  0.010000  1
  H  H600  1  0.010000  0.304800  0.700800  1
  H  H601  1  0.326300  0.093100  0.826600  1
  H  H602  1  0.826600  0.326300  0.093100  1
  H  H603  1  0.093100  0.826600  0.326300  1
  H  H604  1  0.673700  0.906900  0.173400  1
  H  H605  1  0.173400  0.673700  0.906900  1
  H  H606  1  0.906900  0.173400  0.673700  1
  H  H607  1  0.443700  0.016400  0.780200  1
  H  H608  1  0.780200  0.443700  0.016400  1
  H  H609  1  0.016400  0.780200  0.443700  1
  H  H610  1  0.556300  0.983600  0.219800  1
  H  H611  1  0.219800  0.556300  0.983600  1
  H  H612  1  0.983600  0.219800  0.556300  1
  H  H613  1  0.379800  0.991300  0.883000  1
  H  H614  1  0.883000  0.379800  0.991300  1
  H  H615  1  0.991300  0.883000  0.379800  1
  H  H616  1  0.620200  0.008700  0.117000  1
  H  H617  1  0.117000  0.620200  0.008700  1
  H  H618  1  0.008700  0.117000  0.620200  1
  H  H619  1  0.374500  0.942600  0.958000  1
  H  H620  1  0.958000  0.374500  0.942600  1
  H  H621  1  0.942600  0.958000  0.374500  1
  H  H622  1  0.625500  0.057400  0.042000  1
  H  H623  1  0.042000  0.625500  0.057400  1
  H  H624  1  0.057400  0.042000  0.625500  1
  H  H625  1  0.417700  0.977300  0.041500  1
  H  H626  1  0.041500  0.417700  0.977300  1
  H  H627  1  0.977300  0.041500  0.417700  1
  H  H628  1  0.582300  0.022700  0.958500  1
  H  H629  1  0.958500  0.582300  0.022700  1
  H  H630  1  0.022700  0.958500  0.582300  1
  H  H631  1  0.480400  0.048900  0.094400  1
  H  H632  1  0.094400  0.480400  0.048900  1
  H  H633  1  0.048900  0.094400  0.480400  1
  H  H634  1  0.519600  0.951100  0.905600  1
  H  H635  1  0.905600  0.519600  0.951100  1
  H  H636  1  0.951100  0.905600  0.519600  1
  H  H637  1  0.534300  0.128600  0.103000  1
  H  H638  1  0.103000  0.534300  0.128600  1
  H  H639  1  0.128600  0.103000  0.534300  1
  H  H640  1  0.465700  0.871400  0.897000  1
  H  H641  1  0.897000  0.465700  0.871400  1
  H  H642  1  0.871400  0.897000  0.465700  1
  H  H643  1  0.568200  0.211100  0.055900  1
  H  H644  1  0.055900  0.568200  0.211100  1
  H  H645  1  0.211100  0.055900  0.568200  1
  H  H646  1  0.431800  0.788900  0.944100  1
  H  H647  1  0.944100  0.431800  0.788900  1
  H  H648  1  0.788900  0.944100  0.431800  1
  H  H649  1  0.571900  0.246600  0.976800  1
  H  H650  1  0.976800  0.571900  0.246600  1
  H  H651  1  0.246600  0.976800  0.571900  1
  H  H652  1  0.428100  0.753400  0.023200  1
  H  H653  1  0.023200  0.428100  0.753400  1
  H  H654  1  0.753400  0.023200  0.428100  1
  H  H655  1  0.520900  0.207100  0.899300  1
  H  H656  1  0.899300  0.520900  0.207100  1
  H  H657  1  0.207100  0.899300  0.520900  1
  H  H658  1  0.479100  0.792900  0.100700  1
  H  H659  1  0.100700  0.479100  0.792900  1
  H  H660  1  0.792900  0.100700  0.479100  1
  H  H661  1  0.228600  0.026300  0.727700  1
  H  H662  1  0.727700  0.228600  0.026300  1
  H  H663  1  0.026300  0.727700  0.228600  1
  H  H664  1  0.771400  0.973700  0.272300  1
  H  H665  1  0.272300  0.771400  0.973700  1
  H  H666  1  0.973700  0.272300  0.771400  1
  H  H667  1  0.158200  0.061800  0.735600  1
  H  H668  1  0.735600  0.158200  0.061800  1
  H  H669  1  0.061800  0.735600  0.158200  1
  H  H670  1  0.841800  0.938200  0.264400  1
  H  H671  1  0.264400  0.841800  0.938200  1
  H  H672  1  0.938200  0.264400  0.841800  1
  H  H673  1  0.070400  0.080500  0.734500  1
  H  H674  1  0.734500  0.070400  0.080500  1
  H  H675  1  0.080500  0.734500  0.070400  1
  H  H676  1  0.929600  0.919500  0.265500  1
  H  H677  1  0.265500  0.929600  0.919500  1
  H  H678  1  0.919500  0.265500  0.929600  1
  H  H679  1  0.011300  0.145000  0.749800  1
  H  H680  1  0.749800  0.011300  0.145000  1
  H  H681  1  0.145000  0.749800  0.011300  1
  H  H682  1  0.988700  0.855000  0.250200  1
  H  H683  1  0.250200  0.988700  0.855000  1
  H  H684  1  0.855000  0.250200  0.988700  1
  H  H685  1  0.042200  0.221600  0.807600  1
  H  H686  1  0.807600  0.042200  0.221600  1
  H  H687  1  0.221600  0.807600  0.042200  1
  H  H688  1  0.957800  0.778400  0.192400  1
  H  H689  1  0.192400  0.957800  0.778400  1
  H  H690  1  0.778400  0.192400  0.957800  1
  H  H691  1  0.188700  0.173800  0.830700  1
  H  H692  1  0.830700  0.188700  0.173800  1
  H  H693  1  0.173800  0.830700  0.188700  1
  H  H694  1  0.811300  0.826200  0.169300  1
  H  H695  1  0.169300  0.811300  0.826200  1
  H  H696  1  0.826200  0.169300  0.811300  1
  H  H697  1  0.743100  0.070000  0.684600  1
  H  H698  1  0.684600  0.743100  0.070000  1
  H  H699  1  0.070000  0.684600  0.743100  1
  H  H700  1  0.256900  0.930000  0.315400  1
  H  H701  1  0.315400  0.256900  0.930000  1
  H  H702  1  0.930000  0.315400  0.256900  1
  H  H703  1  0.823700  0.105700  0.736000  1
  H  H704  1  0.736000  0.823700  0.105700  1
  H  H705  1  0.105700  0.736000  0.823700  1
  H  H706  1  0.176300  0.894300  0.264000  1
  H  H707  1  0.264000  0.176300  0.894300  1
  H  H708  1  0.894300  0.264000  0.176300  1
  H  H709  1  0.853700  0.063900  0.808100  1
  H  H710  1  0.808100  0.853700  0.063900  1
  H  H711  1  0.063900  0.808100  0.853700  1
  H  H712  1  0.146300  0.936100  0.191900  1
  H  H713  1  0.191900  0.146300  0.936100  1
  H  H714  1  0.936100  0.191900  0.146300  1
  H  H715  1  0.853400  0.980300  0.852100  1
  H  H716  1  0.852100  0.853400  0.980300  1
  H  H717  1  0.980300  0.852100  0.853400  1
  H  H718  1  0.146600  0.019700  0.147900  1
  H  H719  1  0.147900  0.146600  0.019700  1
  H  H720  1  0.019700  0.147900  0.146600  1
  H  H721  1  0.802400  0.888600  0.856500  1
  H  H722  1  0.856500  0.802400  0.888600  1
  H  H723  1  0.888600  0.856500  0.802400  1
  H  H724  1  0.197600  0.111400  0.143500  1
  H  H725  1  0.143500  0.197600  0.111400  1
  H  H726  1  0.111400  0.143500  0.197600  1
  H  H727  1  0.727300  0.818000  0.821600  1
  H  H728  1  0.821600  0.727300  0.818000  1
  H  H729  1  0.818000  0.821600  0.727300  1
  H  H730  1  0.272700  0.182000  0.178400  1
  H  H731  1  0.178400  0.272700  0.182000  1
  H  H732  1  0.182000  0.178400  0.272700  1
  H  H733  1  0.652800  0.787800  0.758900  1
  H  H734  1  0.758900  0.652800  0.787800  1
  H  H735  1  0.787800  0.758900  0.652800  1
  H  H736  1  0.347200  0.212200  0.241100  1
  H  H737  1  0.241100  0.347200  0.212200  1
  H  H738  1  0.212200  0.241100  0.347200  1
  H  H739  1  0.622700  0.843900  0.698100  1
  H  H740  1  0.698100  0.622700  0.843900  1
  H  H741  1  0.843900  0.698100  0.622700  1
  H  H742  1  0.377300  0.156100  0.301900  1
  H  H743  1  0.301900  0.377300  0.156100  1
  H  H744  1  0.156100  0.301900  0.377300  1
  N  N745  1  0.160700  0.326500  0.939400  1
  N  N746  1  0.939400  0.160700  0.326500  1
  N  N747  1  0.326500  0.939400  0.160700  1
  N  N748  1  0.839300  0.673500  0.060600  1
  N  N749  1  0.060600  0.839300  0.673500  1
  N  N750  1  0.673500  0.060600  0.839300  1
  N  N751  1  0.093400  0.237000  0.931800  1
  N  N752  1  0.931800  0.093400  0.237000  1
  N  N753  1  0.237000  0.931800  0.093400  1
  N  N754  1  0.906600  0.763000  0.068200  1
  N  N755  1  0.068200  0.906600  0.763000  1
  N  N756  1  0.763000  0.068200  0.906600  1
  N  N757  1  0.184880  0.299960  0.833010  1
  N  N758  1  0.833010  0.184880  0.299960  1
  N  N759  1  0.299960  0.833010  0.184880  1
  N  N760  1  0.815120  0.700040  0.166990  1
  N  N761  1  0.166990  0.815120  0.700040  1
  N  N762  1  0.700040  0.166990  0.815120  1
  N  N763  1  0.314910  0.314950  0.777120  1
  N  N764  1  0.777120  0.314910  0.314950  1
  N  N765  1  0.314950  0.777120  0.314910  1
  N  N766  1  0.685090  0.685050  0.222880  1
  N  N767  1  0.222880  0.685090  0.685050  1
  N  N768  1  0.685050  0.222880  0.685090  1
  N  N769  1  0.389420  0.273100  0.773260  1
  N  N770  1  0.773260  0.389420  0.273100  1
  N  N771  1  0.273100  0.773260  0.389420  1
  N  N772  1  0.610580  0.726900  0.226740  1
  N  N773  1  0.226740  0.610580  0.726900  1
  N  N774  1  0.726900  0.226740  0.610580  1
  N  N775  1  0.515230  0.175460  0.694300  1
  N  N776  1  0.694300  0.515230  0.175460  1
  N  N777  1  0.175460  0.694300  0.515230  1
  N  N778  1  0.484770  0.824540  0.305700  1
  N  N779  1  0.305700  0.484770  0.824540  1
  N  N780  1  0.824540  0.305700  0.484770  1
  N  N781  1  0.571140  0.136230  0.640540  1
  N  N782  1  0.640540  0.571140  0.136230  1
  N  N783  1  0.136230  0.640540  0.571140  1
  N  N784  1  0.428860  0.863770  0.359460  1
  N  N785  1  0.359460  0.428860  0.863770  1
  N  N786  1  0.863770  0.359460  0.428860  1
  N  N787  1  0.451740  0.921400  0.644650  1
  N  N788  1  0.644650  0.451740  0.921400  1
  N  N789  1  0.921400  0.644650  0.451740  1
  N  N790  1  0.548260  0.078600  0.355350  1
  N  N791  1  0.355350  0.548260  0.078600  1
  N  N792  1  0.078600  0.355350  0.548260  1
  N  N793  1  0.393000  0.963090  0.692090  1
  N  N794  1  0.692090  0.393000  0.963090  1
  N  N795  1  0.963090  0.692090  0.393000  1
  N  N796  1  0.607000  0.036910  0.307910  1
  N  N797  1  0.307910  0.607000  0.036910  1
  N  N798  1  0.036910  0.307910  0.607000  1
  N  N799  1  0.248750  0.049910  0.750090  1
  N  N800  1  0.750090  0.248750  0.049910  1
  N  N801  1  0.049910  0.750090  0.248750  1
  N  N802  1  0.751250  0.950090  0.249910  1
  N  N803  1  0.249910  0.751250  0.950090  1
  N  N804  1  0.950090  0.249910  0.751250  1
  N  N805  1  0.172930  0.088720  0.757880  1
  N  N806  1  0.757880  0.172930  0.088720  1
  N  N807  1  0.088720  0.757880  0.172930  1
  N  N808  1  0.827070  0.911280  0.242120  1
  N  N809  1  0.242120  0.827070  0.911280  1
  N  N810  1  0.911280  0.242120  0.827070  1
  N  N811  1  0.650240  0.023080  0.631510  1
  N  N812  1  0.631510  0.650240  0.023080  1
  N  N813  1  0.023080  0.631510  0.650240  1
  N  N814  1  0.349760  0.976920  0.368490  1
  N  N815  1  0.368490  0.349760  0.976920  1
  N  N816  1  0.976920  0.368490  0.349760  1
  N  N817  1  0.597310  0.922640  0.636320  1
  N  N818  1  0.636320  0.597310  0.922640  1
  N  N819  1  0.922640  0.636320  0.597310  1
  N  N820  1  0.402690  0.077360  0.363680  1
  N  N821  1  0.363680  0.402690  0.077360  1
  N  N822  1  0.077360  0.363680  0.402690  1
  N  N823  1  0.431420  0.051170  0.921870  1
  N  N824  1  0.921870  0.431420  0.051170  1
  N  N825  1  0.051170  0.921870  0.431420  1
  N  N826  1  0.568580  0.948830  0.078130  1
  N  N827  1  0.078130  0.568580  0.948830  1
  N  N828  1  0.948830  0.078130  0.568580  1
  N  N829  1  0.389460  0.059370  0.807580  1
  N  N830  1  0.807580  0.389460  0.059370  1
  N  N831  1  0.059370  0.807580  0.389460  1
  N  N832  1  0.610540  0.940630  0.192420  1
  N  N833  1  0.192420  0.610540  0.940630  1
  N  N834  1  0.940630  0.192420  0.610540  1
  N  N835  1  0.451260  0.157240  0.816210  1
  N  N836  1  0.816210  0.451260  0.157240  1
  N  N837  1  0.157240  0.816210  0.451260  1
  N  N838  1  0.548740  0.842760  0.183790  1
  N  N839  1  0.183790  0.548740  0.842760  1
  N  N840  1  0.842760  0.183790  0.548740  1
  N  N841  1  0.491260  0.144030  0.928380  1
  N  N842  1  0.928380  0.491260  0.144030  1
  N  N843  1  0.144030  0.928380  0.491260  1
  N  N844  1  0.508740  0.855970  0.071620  1
  N  N845  1  0.071620  0.508740  0.855970  1
  N  N846  1  0.855970  0.071620  0.508740  1
  N  N847  1  0.118310  0.204070  0.822880  1
  N  N848  1  0.822880  0.118310  0.204070  1
  N  N849  1  0.204070  0.822880  0.118310  1
  N  N850  1  0.881690  0.795930  0.177120  1
  N  N851  1  0.177120  0.881690  0.795930  1
  N  N852  1  0.795930  0.177120  0.881690  1
  N  N853  1  0.677760  0.907510  0.725170  1
  N  N854  1  0.725170  0.677760  0.907510  1
  N  N855  1  0.907510  0.725170  0.677760  1
  N  N856  1  0.322240  0.092490  0.274830  1
  N  N857  1  0.274830  0.322240  0.092490  1
  N  N858  1  0.092490  0.274830  0.322240  1
  N  N859  1  0.730960  0.002680  0.719150  1
  N  N860  1  0.719150  0.730960  0.002680  1
  N  N861  1  0.002680  0.719150  0.730960  1
  N  N862  1  0.269040  0.997320  0.280850  1
  N  N863  1  0.280850  0.269040  0.997320  1
  N  N864  1  0.997320  0.280850  0.269040  1
  N  N865  1  0.339190  0.857650  0.027710  1
  N  N866  1  0.027710  0.339190  0.857650  1
  N  N867  1  0.857650  0.027710  0.339190  1
  N  N868  1  0.660810  0.142350  0.972290  1
  N  N869  1  0.972290  0.660810  0.142350  1
  N  N870  1  0.142350  0.972290  0.660810  1
  N  N871  1  0.373920  0.162720  0.973030  1
  N  N872  1  0.973030  0.373920  0.162720  1
  N  N873  1  0.162720  0.973030  0.373920  1
  N  N874  1  0.626080  0.837280  0.026970  1
  N  N875  1  0.026970  0.626080  0.837280  1
  N  N876  1  0.837280  0.026970  0.626080  1
  N  N877  1  0.107490  0.434120  0.678530  1
  N  N878  1  0.678530  0.107490  0.434120  1
  N  N879  1  0.434120  0.678530  0.107490  1
  N  N880  1  0.892510  0.565880  0.321470  1
  N  N881  1  0.321470  0.892510  0.565880  1
  N  N882  1  0.565880  0.321470  0.892510  1
  N  N883  1  0.495710  0.218690  0.558990  1
  N  N884  1  0.558990  0.495710  0.218690  1
  N  N885  1  0.218690  0.558990  0.495710  1
  N  N886  1  0.504290  0.781310  0.441010  1
  N  N887  1  0.441010  0.504290  0.781310  1
  N  N888  1  0.781310  0.441010  0.504290  1
  N  N889  1  0.631070  0.245290  0.479290  1
  N  N890  1  0.479290  0.631070  0.245290  1
  N  N891  1  0.245290  0.479290  0.631070  1
  N  N892  1  0.368930  0.754710  0.520710  1
  N  N893  1  0.520710  0.368930  0.754710  1
  N  N894  1  0.754710  0.520710  0.368930  1
  N  N895  1  0.957020  0.082760  0.856200  1
  N  N896  1  0.856200  0.957020  0.082760  1
  N  N897  1  0.082760  0.856200  0.957020  1
  N  N898  1  0.042980  0.917240  0.143800  1
  N  N899  1  0.143800  0.042980  0.917240  1
  N  N900  1  0.917240  0.143800  0.042980  1
  N  N901  1  0.124220  0.424620  0.675530  1
  N  N902  1  0.675530  0.124220  0.424620  1
  N  N903  1  0.424620  0.675530  0.124220  1
  N  N904  1  0.875780  0.575380  0.324470  1
  N  N905  1  0.324470  0.875780  0.575380  1
  N  N906  1  0.575380  0.324470  0.875780  1
  N  N907  1  0.662650  0.316350  0.632130  1
  N  N908  1  0.632130  0.662650  0.316350  1
  N  N909  1  0.316350  0.632130  0.662650  1
  N  N910  1  0.337350  0.683650  0.367870  1
  N  N911  1  0.367870  0.337350  0.683650  1
  N  N912  1  0.683650  0.367870  0.337350  1
  N  N913  1  0.563410  0.248650  0.540500  1
  N  N914  1  0.540500  0.563410  0.248650  1
  N  N915  1  0.248650  0.540500  0.563410  1
  N  N916  1  0.436590  0.751350  0.459500  1
  N  N917  1  0.459500  0.436590  0.751350  1
  N  N918  1  0.751350  0.459500  0.436590  1
  O  O919  1  0.248990  0.126440  0.808230  1
  O  O920  1  0.808230  0.248990  0.126440  1
  O  O921  1  0.126440  0.808230  0.248990  1
  O  O922  1  0.751010  0.873560  0.191770  1
  O  O923  1  0.191770  0.751010  0.873560  1
  O  O924  1  0.873560  0.191770  0.751010  1
  O  O925  1  0.329940  0.249900  0.831100  1
  O  O926  1  0.831100  0.329940  0.249900  1
  O  O927  1  0.249900  0.831100  0.329940  1
  O  O928  1  0.670060  0.750100  0.168900  1
  O  O929  1  0.168900  0.670060  0.750100  1
  O  O930  1  0.750100  0.168900  0.670060  1
  O  O931  1  0.562370  0.111370  0.722860  1
  O  O932  1  0.722860  0.562370  0.111370  1
  O  O933  1  0.111370  0.722860  0.562370  1
  O  O934  1  0.437630  0.888630  0.277140  1
  O  O935  1  0.277140  0.437630  0.888630  1
  O  O936  1  0.888630  0.277140  0.437630  1
  O  O937  1  0.482270  0.990840  0.708690  1
  O  O938  1  0.708690  0.482270  0.990840  1
  O  O939  1  0.990840  0.708690  0.482270  1
  O  O940  1  0.517730  0.009160  0.291310  1
  O  O941  1  0.291310  0.517730  0.009160  1
  O  O942  1  0.009160  0.291310  0.517730  1
  O  O943  1  0.309380  0.885360  0.000380  1
  O  O944  1  0.000380  0.309380  0.885360  1
  O  O945  1  0.885360  0.000380  0.309380  1
  O  O946  1  0.690620  0.114640  0.999620  1
  O  O947  1  0.999620  0.690620  0.114640  1
  O  O948  1  0.114640  0.999620  0.690620  1
  O  O949  1  0.327420  0.807210  0.025960  1
  O  O950  1  0.025960  0.327420  0.807210  1
  O  O951  1  0.807210  0.025960  0.327420  1
  O  O952  1  0.672580  0.192790  0.974040  1
  O  O953  1  0.974040  0.672580  0.192790  1
  O  O954  1  0.192790  0.974040  0.672580  1
  O  O955  1  0.382190  0.878860  0.057460  1
  O  O956  1  0.057460  0.382190  0.878860  1
  O  O957  1  0.878860  0.057460  0.382190  1
  O  O958  1  0.617810  0.121140  0.942540  1
  O  O959  1  0.942540  0.617810  0.121140  1
  O  O960  1  0.121140  0.942540  0.617810  1
  O  O961  1  0.401190  0.206680  0.996990  1
  O  O962  1  0.996990  0.401190  0.206680  1
  O  O963  1  0.206680  0.996990  0.401190  1
  O  O964  1  0.598810  0.793320  0.003010  1
  O  O965  1  0.003010  0.598810  0.793320  1
  O  O966  1  0.793320  0.003010  0.598810  1
  O  O967  1  0.362340  0.154320  0.921280  1
  O  O968  1  0.921280  0.362340  0.154320  1
  O  O969  1  0.154320  0.921280  0.362340  1
  O  O970  1  0.637660  0.845680  0.078720  1
  O  O971  1  0.078720  0.637660  0.845680  1
  O  O972  1  0.845680  0.078720  0.637660  1
  O  O973  1  0.351220  0.128990  0.001200  1
  O  O974  1  0.001200  0.351220  0.128990  1
  O  O975  1  0.128990  0.001200  0.351220  1
  O  O976  1  0.648780  0.871010  0.998800  1
  O  O977  1  0.998800  0.648780  0.871010  1
  O  O978  1  0.871010  0.998800  0.648780  1
  O  O979  1  0.145450  0.460330  0.714140  1
  O  O980  1  0.714140  0.145450  0.460330  1
  O  O981  1  0.460330  0.714140  0.145450  1
  O  O982  1  0.854550  0.539670  0.285860  1
  O  O983  1  0.285860  0.854550  0.539670  1
  O  O984  1  0.539670  0.285860  0.854550  1
  O  O985  1  0.116020  0.438980  0.629140  1
  O  O986  1  0.629140  0.116020  0.438980  1
  O  O987  1  0.438980  0.629140  0.116020  1
  O  O988  1  0.883980  0.561020  0.370860  1
  O  O989  1  0.370860  0.883980  0.561020  1
  O  O990  1  0.561020  0.370860  0.883980  1
  O  O991  1  0.094130  0.385410  0.688310  1
  O  O992  1  0.688310  0.094130  0.385410  1
  O  O993  1  0.385410  0.688310  0.094130  1
  O  O994  1  0.905870  0.614590  0.311690  1
  O  O995  1  0.311690  0.905870  0.614590  1
  O  O996  1  0.614590  0.311690  0.905870  1
  O  O997  1  0.494960  0.255610  0.525760  1
  O  O998  1  0.525760  0.494960  0.255610  1
  O  O999  1  0.255610  0.525760  0.494960  1
  O  O1000  1  0.505040  0.744390  0.474240  1
  O  O1001  1  0.474240  0.505040  0.744390  1
  O  O1002  1  0.744390  0.474240  0.505040  1
  O  O1003  1  0.535940  0.190290  0.556070  1
  O  O1004  1  0.556070  0.535940  0.190290  1
  O  O1005  1  0.190290  0.556070  0.535940  1
  O  O1006  1  0.464060  0.809710  0.443930  1
  O  O1007  1  0.443930  0.464060  0.809710  1
  O  O1008  1  0.809710  0.443930  0.464060  1
  O  O1009  1  0.484500  0.233330  0.607310  1
  O  O1010  1  0.607310  0.484500  0.233330  1
  O  O1011  1  0.233330  0.607310  0.484500  1
  O  O1012  1  0.515500  0.766670  0.392690  1
  O  O1013  1  0.392690  0.515500  0.766670  1
  O  O1014  1  0.766670  0.392690  0.515500  1
  O  O1015  1  0.657520  0.290820  0.470790  1
  O  O1016  1  0.470790  0.657520  0.290820  1
  O  O1017  1  0.290820  0.470790  0.657520  1
  O  O1018  1  0.342480  0.709180  0.529210  1
  O  O1019  1  0.529210  0.342480  0.709180  1
  O  O1020  1  0.709180  0.529210  0.342480  1
  O  O1021  1  0.649830  0.230040  0.525340  1
  O  O1022  1  0.525340  0.649830  0.230040  1
  O  O1023  1  0.230040  0.525340  0.649830  1
  O  O1024  1  0.350170  0.769960  0.474660  1
  O  O1025  1  0.474660  0.350170  0.769960  1
  O  O1026  1  0.769960  0.474660  0.350170  1
  O  O1027  1  0.579120  0.248240  0.478220  1
  O  O1028  1  0.478220  0.579120  0.248240  1
  O  O1029  1  0.248240  0.478220  0.579120  1
  O  O1030  1  0.420880  0.751760  0.521780  1
  O  O1031  1  0.521780  0.420880  0.751760  1
  O  O1032  1  0.751760  0.521780  0.420880  1
  O  O1033  1  0.008530  0.085430  0.872790  1
  O  O1034  1  0.872790  0.008530  0.085430  1
  O  O1035  1  0.085430  0.872790  0.008530  1
  O  O1036  1  0.991470  0.914570  0.127210  1
  O  O1037  1  0.127210  0.991470  0.914570  1
  O  O1038  1  0.914570  0.127210  0.991470  1
  O  O1039  1  0.924980  0.069160  0.891580  1
  O  O1040  1  0.891580  0.924980  0.069160  1
  O  O1041  1  0.069160  0.891580  0.924980  1
  O  O1042  1  0.075020  0.930840  0.108420  1
  O  O1043  1  0.108420  0.075020  0.930840  1
  O  O1044  1  0.930840  0.108420  0.075020  1
  O  O1045  1  0.944500  0.122690  0.829480  1
  O  O1046  1  0.829480  0.944500  0.122690  1
  O  O1047  1  0.122690  0.829480  0.944500  1
  O  O1048  1  0.055500  0.877310  0.170520  1
  O  O1049  1  0.170520  0.055500  0.877310  1
  O  O1050  1  0.877310  0.170520  0.055500  1
  O  O1051  1  0.339650  0.864580  0.978200  1
  O  O1052  1  0.978200  0.339650  0.864580  1
  O  O1053  1  0.864580  0.978200  0.339650  1
  O  O1054  1  0.660350  0.135420  0.021800  1
  O  O1055  1  0.021800  0.660350  0.135420  1
  O  O1056  1  0.135420  0.021800  0.660350  1
  O  O1057  1  0.314840  0.814290  0.040130  1
  O  O1058  1  0.040130  0.314840  0.814290  1
  O  O1059  1  0.814290  0.040130  0.314840  1
  O  O1060  1  0.685160  0.185710  0.959870  1
  O  O1061  1  0.959870  0.685160  0.185710  1
  O  O1062  1  0.185710  0.959870  0.685160  1
  O  O1063  1  0.367610  0.889650  0.065300  1
  O  O1064  1  0.065300  0.367610  0.889650  1
  O  O1065  1  0.889650  0.065300  0.367610  1
  O  O1066  1  0.632390  0.110350  0.934700  1
  O  O1067  1  0.934700  0.632390  0.110350  1
  O  O1068  1  0.110350  0.934700  0.632390  1
  O  O1069  1  0.395910  0.205800  0.955090  1
  O  O1070  1  0.955090  0.395910  0.205800  1
  O  O1071  1  0.205800  0.955090  0.395910  1
  O  O1072  1  0.604090  0.794200  0.044910  1
  O  O1073  1  0.044910  0.604090  0.794200  1
  O  O1074  1  0.794200  0.044910  0.604090  1
  O  O1075  1  0.342660  0.128250  0.937540  1
  O  O1076  1  0.937540  0.342660  0.128250  1
  O  O1077  1  0.128250  0.937540  0.342660  1
  O  O1078  1  0.657340  0.871750  0.062460  1
  O  O1079  1  0.062460  0.657340  0.871750  1
  O  O1080  1  0.871750  0.062460  0.657340  1
  O  O1081  1  0.354020  0.170790  0.019060  1
  O  O1082  1  0.019060  0.354020  0.170790  1
  O  O1083  1  0.170790  0.019060  0.354020  1
  O  O1084  1  0.645980  0.829210  0.980940  1
  O  O1085  1  0.980940  0.645980  0.829210  1
  O  O1086  1  0.829210  0.980940  0.645980  1
  O  O1087  1  0.138080  0.471590  0.702870  1
  O  O1088  1  0.702870  0.138080  0.471590  1
  O  O1089  1  0.471590  0.702870  0.138080  1
  O  O1090  1  0.861920  0.528410  0.297130  1
  O  O1091  1  0.297130  0.861920  0.528410  1
  O  O1092  1  0.528410  0.297130  0.861920  1
  O  O1093  1  0.149410  0.411980  0.634630  1
  O  O1094  1  0.634630  0.149410  0.411980  1
  O  O1095  1  0.411980  0.634630  0.149410  1
  O  O1096  1  0.850590  0.588020  0.365370  1
  O  O1097  1  0.365370  0.850590  0.588020  1
  O  O1098  1  0.588020  0.365370  0.850590  1
  O  O1099  1  0.075130  0.404770  0.676010  1
  O  O1100  1  0.676010  0.075130  0.404770  1
  O  O1101  1  0.404770  0.676010  0.075130  1
  O  O1102  1  0.924870  0.595230  0.323990  1
  O  O1103  1  0.323990  0.924870  0.595230  1
  O  O1104  1  0.595230  0.323990  0.924870  1
  O  O1105  1  0.677050  0.368270  0.644170  1
  O  O1106  1  0.644170  0.677050  0.368270  1
  O  O1107  1  0.368270  0.644170  0.677050  1
  O  O1108  1  0.322950  0.631730  0.355830  1
  O  O1109  1  0.355830  0.322950  0.631730  1
  O  O1110  1  0.631730  0.355830  0.322950  1
  O  O1111  1  0.618040  0.298920  0.650970  1
  O  O1112  1  0.650970  0.618040  0.298920  1
  O  O1113  1  0.298920  0.650970  0.618040  1
  O  O1114  1  0.381960  0.701080  0.349030  1
  O  O1115  1  0.349030  0.381960  0.701080  1
  O  O1116  1  0.701080  0.349030  0.381960  1
  O  O1117  1  0.662290  0.299820  0.580650  1
  O  O1118  1  0.580650  0.662290  0.299820  1
  O  O1119  1  0.299820  0.580650  0.662290  1
  O  O1120  1  0.337710  0.700180  0.419350  1
  O  O1121  1  0.419350  0.337710  0.700180  1
  O  O1122  1  0.700180  0.419350  0.337710  1
  O  O1123  1  0.576610  0.300810  0.552390  1
  O  O1124  1  0.552390  0.576610  0.300810  1
  O  O1125  1  0.300810  0.552390  0.576610  1
  O  O1126  1  0.423390  0.699190  0.447610  1
  O  O1127  1  0.447610  0.423390  0.699190  1
  O  O1128  1  0.699190  0.447610  0.423390  1
  O  O1129  1  0.518670  0.236980  0.507420  1
  O  O1130  1  0.507420  0.518670  0.236980  1
  O  O1131  1  0.236980  0.507420  0.518670  1
  O  O1132  1  0.481330  0.763020  0.492580  1
  O  O1133  1  0.492580  0.481330  0.763020  1
  O  O1134  1  0.763020  0.492580  0.481330  1
  O  O1135  1  0.563380  0.223320  0.583530  1
  O  O1136  1  0.583530  0.563380  0.223320  1
  O  O1137  1  0.223320  0.583530  0.563380  1
  O  O1138  1  0.436620  0.776680  0.416470  1
  O  O1139  1  0.416470  0.436620  0.776680  1
  O  O1140  1  0.776680  0.416470  0.436620  1
  Pd  Pd1141  1  0.140620  0.266810  0.880000  1
  Pd  Pd1142  1  0.880000  0.140620  0.266810  1
  Pd  Pd1143  1  0.266810  0.880000  0.140620  1
  Pd  Pd1144  1  0.859380  0.733190  0.120000  1
  Pd  Pd1145  1  0.120000  0.859380  0.733190  1
  Pd  Pd1146  1  0.733190  0.120000  0.859380  1
  Pd  Pd1147  1  0.440880  0.102930  0.867670  1
  Pd  Pd1148  1  0.867670  0.440880  0.102930  1
  Pd  Pd1149  1  0.102930  0.867670  0.440880  1
  Pd  Pd1150  1  0.559120  0.897070  0.132330  1
  Pd  Pd1151  1  0.132330  0.559120  0.897070  1
  Pd  Pd1152  1  0.897070  0.132330  0.559120  1
  Pd  Pd1153  1  0.664570  0.963570  0.676090  1
  Pd  Pd1154  1  0.676090  0.664570  0.963570  1
  Pd  Pd1155  1  0.963570  0.676090  0.664570  1
  Pd  Pd1156  1  0.335430  0.036430  0.323910  1
  Pd  Pd1157  1  0.323910  0.335430  0.036430  1
  Pd  Pd1158  1  0.036430  0.323910  0.335430  1
