
#######################################################################
#
#                 Cambridge Crystallographic Data Centre
#                                CCDC 
#
#######################################################################
#
# If this CIF has been generated from an entry in the Cambridge 
# Structural Database, then it will include bibliographic, chemical, 
# crystal, experimental, refinement or atomic coordinate data resulting 
# from the CCDC's data processing and validation procedures.
#
#######################################################################

data_YUDGIP
_chemical_formula_moiety         'C70 H54 N20 O4 Pd3 6+,6(N1 O3 1-)'
_chemical_name_systematic        
"bis(\m~3~-1,1'-pyridine-3,5-diylbis(3-pyridin-3-ylurea))-tris(1,10-phenanthroline)-tri-palladium hexakis(nitrate) unknown solvate"
_symmetry_cell_setting           rhombohedral
_symmetry_space_group_name_H-M   'R -3'
_symmetry_Int_Tables_number      148
_space_group_name_Hall           '-R 3'
loop_
_symmetry_equiv_pos_site_id
_symmetry_equiv_pos_as_xyz
1 x,y,z
2 -y,x-y,z
3 -x+y,-x,z
4 2/3+x,1/3+y,1/3+z
5 2/3-y,1/3+x-y,1/3+z
6 2/3-x+y,1/3-x,1/3+z
7 1/3+x,2/3+y,2/3+z
8 1/3-y,2/3+x-y,2/3+z
9 1/3-x+y,2/3-x,2/3+z
10 -x,-y,-z
11 y,-x+y,-z
12 x-y,x,-z
13 1/3-x,2/3-y,2/3-z
14 1/3+y,2/3-x+y,2/3-z
15 1/3+x-y,2/3+x,2/3-z
16 2/3-x,1/3-y,1/3-z
17 2/3+y,1/3-x+y,1/3-z
18 2/3+x-y,1/3+x,1/3-z
_cell_length_a                   37.5961(15)
_cell_length_b                   37.5961(15)
_cell_length_c                   38.861(3)
_cell_angle_alpha                90
_cell_angle_beta                 90
_cell_angle_gamma                120
_cell_volume                     47569.7
_exptl_crystal_description       block
_cell_formula_units_Z            18
loop_
_atom_site_label
_atom_site_type_symbol
_atom_site_fract_x
_atom_site_fract_y
_atom_site_fract_z
C1 C 0.0007(4) 0.1330(5) 0.0589(4)
H1 H 0.0183 0.1449 0.0403
C2 C -0.0308(7) 0.0918(7) 0.0568(6)
H2 H -0.0342 0.0771 0.0367
C3 C -0.0564(5) 0.0733(6) 0.0838(5)
H3 H -0.0763 0.0457 0.0819
C4 C -0.0540(4) 0.0949(4) 0.1157(4)
C5 C -0.0753(5) 0.0811(5) 0.1444(5)
H4 H -0.0965 0.0540 0.1447
C6 C -0.0691(4) 0.1018(4) 0.1713(4)
H5 H -0.0852 0.0890 0.1905
C7 C -0.0369(3) 0.1462(4) 0.1739(4)
C8 C -0.0272(4) 0.1721(4) 0.2013(3)
H6 H -0.0415 0.1625 0.2219
C9 C 0.0023(3) 0.2104(4) 0.1985(3)
H7 H 0.0080 0.2280 0.2172
C10 C 0.0251(3) 0.2254(3) 0.1688(2)
H8 H 0.0458 0.2528 0.1680
N1 N 0.0185(2) 0.2028(3) 0.1422(2)
N2 N 0.0060(3) 0.1556(3) 0.0874(3)
C11 C -0.0121(4) 0.1634(4) 0.1432(3)
C12 C -0.01987(2) 0.13596(2) 0.11656(2)
N3 N 0.07893(2) 0.27294(2) 0.10595(2)
C13 C 0.05595(2) 0.29253(2) 0.10384(2)
H9 H 0.0288 0.2780 0.0966
C14 C 0.07360(2) 0.33377(2) 0.11261(2)
H10 H 0.0582 0.3469 0.1112
C15 C 0.11424(2) 0.35543(2) 0.12349(2)
H11 H 0.1260 0.3830 0.1294
C16 C 0.13722(2) 0.33585(2) 0.12560(2)
C17 C 0.11957(2) 0.29461(2) 0.11682(2)
H12 H 0.1350 0.2815 0.1182
N4 N 0.17925(2) 0.35854(2) 0.13566(2)
H13 H 0.1889 0.3842 0.1397
C18 C 0.20644(2) 0.34402(2) 0.13965(2)
N5 N 0.24416(2) 0.37200(2) 0.14526(2)
H14 H 0.2487 0.3961 0.1506
C19 C 0.27802(2) 0.36637(2) 0.14337(2)
C20 C 0.31558(2) 0.40118(2) 0.13828(2)
H15 H 0.3175 0.4268 0.1371
C21 C 0.35034(2) 0.39786(2) 0.13497(2)
C22 C 0.34633(2) 0.35865(2) 0.13663(2)
H16 H 0.3695 0.3559 0.1343
C23 C 0.27482(2) 0.32713(2) 0.14459(2)
H17 H 0.2495 0.3034 0.1474
N6 N 0.38690(2) 0.43403(2) 0.12833(2)
H18 H 0.3854 0.4560 0.1258
C24 C 0.42476(2) 0.43791(2) 0.12543(2)
N7 N 0.45517(2) 0.47543(2) 0.11597(2)
H19 H 0.4489 0.4943 0.1136
C25 C 0.49511(2) 0.48615(2) 0.10984(2)
C26 C 0.52410(2) 0.52818(2) 0.10680(2)
H20 H 0.5159 0.5477 0.1085
C27 C 0.56311(2) 0.53968(2) 0.10148(2)
H21 H 0.5823 0.5674 0.0989
C28 C 0.57578(2) 0.51051(2) 0.09966(2)
H22 H 0.6036 0.5193 0.0970
C29 C 0.50826(2) 0.45869(2) 0.10832(2)
H23 H 0.4894 0.4311 0.1119
C30 C 0.57142(2) 0.43113(2) 0.02673(2)
H24 H 0.5995 0.4456 0.0310
C31 C 0.55644(2) 0.42536(2) -0.00705(2)
H25 H 0.5747 0.4376 -0.0252
C32 C 0.51483(2) 0.40160(2) -0.01361(2)
H26 H 0.5054 0.3974 -0.0362
C33 C 0.48709(2) 0.38405(2) 0.01300(2)
C34 C 0.50362(2) 0.39134(2) 0.04662(2)
H27 H 0.4862 0.3795 0.0653
N8 N 0.44581(2) 0.36128(2) 0.00593(2)
H28 H 0.4388 0.3564 -0.0154
C35 C 0.41600(2) 0.34632(2) 0.02890(2)
N9 N 0.37694(2) 0.32397(2) 0.01606(2)
H29 H 0.3747 0.3215 -0.0060
C36 C 0.34104(2) 0.30513(2) 0.03443(2)
C37 C 0.30410(2) 0.29433(2) 0.01821(2)
H30 H 0.3044 0.2996 -0.0052
C38 C 0.26764(2) 0.27640(2) 0.03510(2)
C39 C 0.26866(2) 0.26809(2) 0.06952(2)
H31 H 0.2443 0.2554 0.0820
C40 C 0.33971(2) 0.29493(2) 0.06878(2)
H32 H 0.3636 0.2999 0.0801
C41 C 0.29260(2) 0.19064(2) 0.10658(2)
H33 H 0.2951 0.2017 0.0847
C42 C 0.28432(2) 0.14894(2) 0.11102(2)
H34 H 0.2828 0.1337 0.0917
C43 C 0.27854(2) 0.13110(2) 0.14300(2)
H35 H 0.2722 0.1040 0.1455
C44 C 0.28259(2) 0.15564(2) 0.17199(2)
C45 C 0.27821(2) 0.14039(2) 0.20495(2)
H36 H 0.2725 0.1135 0.2079
C46 C 0.28198(2) 0.16340(2) 0.23335(2)
H37 H 0.2790 0.1523 0.2553
C47 C 0.29088(2) 0.20625(2) 0.22899(2)
C48 C 0.29387(2) 0.23146(2) 0.25571(2)
H38 H 0.2898 0.2225 0.2784
C49 C 0.30293(2) 0.26999(2) 0.24743(2)
H39 H 0.3068 0.2883 0.2651
C50 C 0.30675(2) 0.28333(2) 0.21351(2)
H40 H 0.3118 0.3098 0.2091
C51 C 0.29173(2) 0.19596(2) 0.16623(2)
C52 C 0.29623(2) 0.22129(2) 0.19478(2)
N10 N 0.23250(2) 0.26616(2) 0.01625(2)
H41 H 0.2344 0.2665 -0.0058
C53 C 0.19626(2) 0.25591(2) 0.02960(2)
N11 N 0.16642(2) 0.24863(2) 0.00651(2)
H42 H 0.1730 0.2496 -0.0148
C54 C 0.12616(2) 0.23972(2) 0.01316(2)
C55 C 0.09928(2) 0.22933(2) -0.01652(2)
H43 H 0.1086 0.2273 -0.0382
C56 C 0.05911(2) 0.22229(2) -0.01233(2)
H44 H 0.0426 0.2189 -0.0313
C57 C 0.04483(2) 0.22061(2) 0.02037(2)
H45 H 0.0184 0.2162 0.0238
C58 C 0.10928(2) 0.23310(2) 0.04513(2)
H46 H 0.1243 0.2337 0.0644
N12 N 0.54863(2) 0.47010(2) 0.10161(2)
N13 N 0.54522(2) 0.41577(2) 0.05209(2)
N14 N 0.29660(2) 0.21295(2) 0.13482(2)
N15 N 0.30399(2) 0.27789(2) 0.08547(2)
N16 N 0.30969(2) 0.32536(2) 0.14157(2)
N17 N 0.30337(2) 0.25951(2) 0.18789(2)
N18 N 0.06989(2) 0.22554(2) 0.04842(2)
O1 O 0.18777(2) 0.25299(2) 0.06122(2)
O2 O 0.19296(2) 0.30588(2) 0.13698(2)
O3 O 0.43017(2) 0.40934(2) 0.13220(2)
O4 O 0.42167(2) 0.35191(2) 0.06060(2)
Pd1 Pd 0.04481(2) 0.21581(2) 0.09581(2)
Pd2 Pd 0.30372(2) 0.26949(2) 0.13716(2)
Pd3 Pd 0.56316(2) 0.42532(2) 0.10141(2)
C59 C 0.58403(2) 0.46196(2) 0.17339(2)
H47 H 0.5772 0.4813 0.1659
C60 C 0.59815(2) 0.46443(2) 0.20745(2)
H48 H 0.6019 0.4858 0.2218
C61 C 0.60620(2) 0.43505(2) 0.21876(2)
H49 H 0.6118 0.4338 0.2419
C62 C 0.60607(2) 0.40600(2) 0.19504(2)
C63 C 0.61611(2) 0.37699(2) 0.20630(2)
H50 H 0.6248 0.3765 0.2286
C64 C 0.61141(2) 0.34489(2) 0.17779(2)
H51 H 0.6199 0.3260 0.1825
C65 C 0.59369(2) 0.34459(2) 0.14392(2)
C66 C 0.59648(2) 0.31947(2) 0.11738(2)
H52 H 0.6050 0.3007 0.1223
C67 C 0.58596(2) 0.32418(2) 0.08409(2)
H53 H 0.5863 0.3076 0.0665
C68 C 0.57486(2) 0.35360(2) 0.07714(2)
H54 H 0.5678 0.3568 0.0549
C69 C 0.58871(2) 0.37824(2) 0.13889(2)
N19 N 0.57428(2) 0.37831(2) 0.10348(2)
C70 C 0.59183(2) 0.40555(2) 0.16213(2)
N20 N 0.58003(2) 0.43178(2) 0.15093(2)
N21 N 0.26434(2) 0.04714(2) 0.07485(2)
O5 O 0.24434(2) 0.06466(2) 0.06504(2)
O6 O 0.27389(2) 0.02757(2) 0.05353(2)
O7 O 0.27602(2) 0.04871(2) 0.10617(2)
N22 N 0.20403(2) 0.19686(2) 0.16989(2)
O11 O 0.19957(2) 0.20463(2) 0.20162(2)
O12 O 0.21636(2) 0.22470(2) 0.14598(2)
O13 O 0.19075(2) 0.15927(2) 0.16047(2)
N23 N 0.03411(2) 0.39485(2) 0.07338(2)
O17 O 0.03881(2) 0.39250(2) 0.10664(2)
O18 O 0.05464(2) 0.43224(2) 0.06138(2)
O19 O 0.03818(2) 0.36764(2) 0.05595(2)
N27 N 0.40458(2) 0.53214(2) 0.09113(2)
O29 O 0.40285(2) 0.56635(2) 0.09211(2)
O30 O 0.44184(2) 0.53803(2) 0.09410(2)
O31 O 0.37612(2) 0.50107(2) 0.10838(2)
N28 N 0.51252(2) 0.63926(2) 0.11855(2)
O32 O 0.51781(2) 0.66892(2) 0.13971(2)
O33 O 0.51476(2) 0.60973(2) 0.13507(2)
O34 O 0.47726(2) 0.62364(2) 0.10186(2)
N29 N 0.65836(2) 0.44246(2) 0.29866(2)
O35 O 0.68628(2) 0.44946(2) 0.32225(2)
O36 O 0.62974(2) 0.40366(2) 0.29524(2)
O37 O 0.64561(2) 0.46941(2) 0.29889(2)
loop_
_geom_bond_atom_site_label_1
_geom_bond_atom_site_label_2
_geom_bond_site_symmetry_1
_geom_bond_site_symmetry_2
C1 H1 1_555 1_555
C2 C1 1_555 1_555
H2 C2 1_555 1_555
C3 C2 1_555 1_555
H3 C3 1_555 1_555
C4 C3 1_555 1_555
C5 C4 1_555 1_555
H4 C5 1_555 1_555
C6 C5 1_555 1_555
H5 C6 1_555 1_555
C7 C6 1_555 1_555
C8 C7 1_555 1_555
H6 C8 1_555 1_555
C9 C8 1_555 1_555
H7 C9 1_555 1_555
C10 C9 1_555 1_555
H8 C10 1_555 1_555
N1 C10 1_555 1_555
N2 C1 1_555 1_555
C11 C7 1_555 1_555
C12 C4 1_555 1_555
N3 C13 1_555 1_555
C13 H9 1_555 1_555
C14 C13 1_555 1_555
H10 C14 1_555 1_555
C15 C14 1_555 1_555
H11 C15 1_555 1_555
C16 C15 1_555 1_555
C17 N3 1_555 1_555
H12 C17 1_555 1_555
N4 C16 1_555 1_555
H13 N4 1_555 1_555
C18 N4 1_555 1_555
N5 C18 1_555 1_555
H14 N5 1_555 1_555
C19 N5 1_555 1_555
C20 C19 1_555 1_555
H15 C20 1_555 1_555
C21 C20 1_555 1_555
C22 C21 1_555 1_555
H16 C22 1_555 1_555
C23 C19 1_555 1_555
H17 C23 1_555 1_555
N6 C21 1_555 1_555
H18 N6 1_555 1_555
C24 N6 1_555 1_555
N7 C24 1_555 1_555
H19 N7 1_555 1_555
C25 N7 1_555 1_555
C26 C25 1_555 1_555
H20 C26 1_555 1_555
C27 C26 1_555 1_555
H21 C27 1_555 1_555
C28 C27 1_555 1_555
H22 C28 1_555 1_555
C29 C25 1_555 1_555
H23 C29 1_555 1_555
C30 H24 1_555 1_555
C31 C30 1_555 1_555
H25 C31 1_555 1_555
C32 C31 1_555 1_555
H26 C32 1_555 1_555
C33 C32 1_555 1_555
C34 C33 1_555 1_555
H27 C34 1_555 1_555
N8 C33 1_555 1_555
H28 N8 1_555 1_555
C35 N8 1_555 1_555
N9 C35 1_555 1_555
H29 N9 1_555 1_555
C36 N9 1_555 1_555
C37 C36 1_555 1_555
H30 C37 1_555 1_555
C38 C37 1_555 1_555
C39 C38 1_555 1_555
H31 C39 1_555 1_555
C40 C36 1_555 1_555
H32 C40 1_555 1_555
C41 H33 1_555 1_555
C42 C41 1_555 1_555
H34 C42 1_555 1_555
C43 C42 1_555 1_555
H35 C43 1_555 1_555
C44 C43 1_555 1_555
C45 C44 1_555 1_555
H36 C45 1_555 1_555
C46 C45 1_555 1_555
H37 C46 1_555 1_555
C47 C46 1_555 1_555
C48 C47 1_555 1_555
H38 C48 1_555 1_555
C49 C48 1_555 1_555
H39 C49 1_555 1_555
C50 C49 1_555 1_555
H40 C50 1_555 1_555
C51 C44 1_555 1_555
C52 C47 1_555 1_555
N10 C38 1_555 1_555
H41 N10 1_555 1_555
C53 N10 1_555 1_555
N11 C53 1_555 1_555
H42 N11 1_555 1_555
C54 N11 1_555 1_555
C55 C54 1_555 1_555
H43 C55 1_555 1_555
C56 C55 1_555 1_555
H44 C56 1_555 1_555
C57 C56 1_555 1_555
H45 C57 1_555 1_555
C58 C54 1_555 1_555
H46 C58 1_555 1_555
N12 C28 1_555 1_555
N13 C30 1_555 1_555
N14 C41 1_555 1_555
N15 C39 1_555 1_555
N16 C22 1_555 1_555
N17 C50 1_555 1_555
N18 C57 1_555 1_555
O1 C53 1_555 1_555
O2 C18 1_555 1_555
O3 C24 1_555 1_555
O4 C35 1_555 1_555
Pd1 N1 1_555 1_555
Pd2 N14 1_555 1_555
Pd3 N12 1_555 1_555
C59 H47 1_555 1_555
C60 C59 1_555 1_555
H48 C60 1_555 1_555
C61 C60 1_555 1_555
H49 C61 1_555 1_555
C62 C61 1_555 1_555
C63 C62 1_555 1_555
H50 C63 1_555 1_555
C64 C63 1_555 1_555
H51 C64 1_555 1_555
C65 C64 1_555 1_555
C66 C65 1_555 1_555
H52 C66 1_555 1_555
C67 C66 1_555 1_555
H53 C67 1_555 1_555
C68 C67 1_555 1_555
H54 C68 1_555 1_555
C69 C65 1_555 1_555
N19 Pd3 1_555 1_555
C70 C62 1_555 1_555
N20 Pd3 1_555 1_555
N21 O5 1_555 1_555
O6 N21 1_555 1_555
O7 N21 1_555 1_555
N22 O11 1_555 1_555
O12 N22 1_555 1_555
O13 N22 1_555 1_555
N23 O17 1_555 1_555
O18 N23 1_555 1_555
O19 N23 1_555 1_555
N27 O29 1_555 1_555
O30 N27 1_555 1_555
O31 N27 1_555 1_555
N28 O32 1_555 1_555
O33 N28 1_555 1_555
O34 N28 1_555 1_555
N29 O35 1_555 1_555
O36 N29 1_555 1_555
O37 N29 1_555 1_555
N1 C11 1_555 1_555
N2 C12 1_555 1_555
N2 Pd1 1_555 1_555
C11 C12 1_555 1_555
N3 Pd1 1_555 1_555
C16 C17 1_555 1_555
C23 N16 1_555 1_555
C29 N12 1_555 1_555
C34 N13 1_555 1_555
C40 N15 1_555 1_555
C51 C52 1_555 1_555
C51 N14 1_555 1_555
C52 N17 1_555 1_555
C58 N18 1_555 1_555
N13 Pd3 1_555 1_555
N15 Pd2 1_555 1_555
N16 Pd2 1_555 1_555
N17 Pd2 1_555 1_555
N18 Pd1 1_555 1_555
C59 N20 1_555 1_555
C68 N19 1_555 1_555
C69 N19 1_555 1_555
C69 C70 1_555 1_555
C70 N20 1_555 1_555

#END
