
#######################################################################
#
#                 Cambridge Crystallographic Data Centre
#                                CCDC 
#
#######################################################################
#
# If this CIF has been generated from an entry in the Cambridge 
# Structural Database, then it will include bibliographic, chemical, 
# crystal, experimental, refinement or atomic coordinate data resulting 
# from the CCDC's data processing and validation procedures.
#
#######################################################################

data_YUJLEW
_chemical_formula_moiety         'C18 H32 Cl6 O9 Ti2'
_chemical_name_systematic        
'(\m-oxo)-hexachloro-bis(diisopropyl malonate)-di-titanium(iv)'
_symmetry_cell_setting           monoclinic
_symmetry_space_group_name_H-M   'P 21/c'
_symmetry_Int_Tables_number      14
_space_group_name_Hall           '-P 2ybc'
loop_
_symmetry_equiv_pos_site_id
_symmetry_equiv_pos_as_xyz
1 x,y,z
2 -x,1/2+y,1/2-z
3 -x,-y,-z
4 x,1/2-y,1/2+z
_cell_length_a                   18.335(16)
_cell_length_b                   12.436(12)
_cell_length_c                   13.683(11)
_cell_angle_alpha                90
_cell_angle_beta                 102.474(14)
_cell_angle_gamma                90
_cell_volume                     3046.27
_exptl_crystal_colour            colorless
_exptl_crystal_description       plate
_cell_formula_units_Z            4
loop_
_atom_site_label
_atom_site_type_symbol
_atom_site_fract_x
_atom_site_fract_y
_atom_site_fract_z
C1 C 0.5755(7) -0.4371(10) 0.4154(8)
H1 H 0.6192 -0.4321 0.4709
H2 H 0.5913 -0.4598 0.3546
H3 H 0.5403 -0.4899 0.4318
C2 C 0.3668(10) 0.0088(12) 0.8157(10)
H4 H 0.3638 -0.0544 0.8574
H5 H 0.3372 0.0674 0.8351
H6 H 0.4190 0.0316 0.8249
C3 C 0.3916(6) -0.1217(8) 0.5955(8)
C4 C 0.1412(7) 0.0382(10) -0.0049(9)
H7 H 0.1254 0.1097 0.0168
C5 C 0.4328(6) -0.2246(8) 0.5819(8)
H8 H 0.4782 -0.2290 0.6363
H9 H 0.4006 -0.2864 0.5899
C6 C 0.5374(6) -0.3272(9) 0.3979(8)
H10 H 0.4933 -0.3325 0.3405
C7 C 0.1373(6) -0.0268(9) 0.1588(8)
C8 C 0.0015(8) -0.2577(10) 0.4596(10)
H11 H -0.0370 -0.2888 0.4060
H12 H -0.0183 -0.2504 0.5203
H13 H 0.0453 -0.3047 0.4731
C9 C 0.0939(11) 0.0090(14) -0.1050(11)
H14 H 0.1044 -0.0654 -0.1213
H15 H 0.1054 0.0574 -0.1562
H16 H 0.0410 0.0159 -0.1029
C10 C 0.1240(6) -0.1232(9) 0.2194(8)
H17 H 0.0850 -0.1687 0.1777
H18 H 0.1705 -0.1661 0.2358
C11 C 0.0231(7) -0.1499(10) 0.4281(9)
H19 H 0.0603 -0.1150 0.4832
C12 C 0.2238(8) 0.0391(11) -0.0015(12)
H20 H 0.2510 0.0573 0.0663
H21 H 0.2347 0.0927 -0.0488
H22 H 0.2394 -0.0321 -0.0199
C13 C 0.4558(6) -0.2367(8) 0.4846(8)
C14 C 0.2581(8) -0.0630(11) 0.6891(12)
H23 H 0.2414 -0.0799 0.6179
H24 H 0.2248 -0.0090 0.7083
H25 H 0.2572 -0.1284 0.7288
C15 C 0.3371(7) -0.0191(10) 0.7084(9)
H26 H 0.3399 0.0445 0.6647
C16 C 0.5869(7) -0.2383(12) 0.3781(11)
H27 H 0.5595 -0.1701 0.3725
H28 H 0.6029 -0.2525 0.3155
H29 H 0.6309 -0.2338 0.4333
C17 C 0.1004(6) -0.0965(9) 0.3144(8)
C18 C -0.0448(8) -0.0758(11) 0.3924(10)
H30 H -0.0285 -0.0092 0.3652
H31 H -0.0676 -0.0587 0.4489
H32 H -0.0814 -0.1124 0.3402
O1 O 0.5109(4) -0.3054(6) 0.4910(5)
O2 O 0.4259(4) -0.1929(6) 0.4075(6)
O3 O 0.0561(4) -0.1686(6) 0.3390(6)
O4 O 0.1187(4) -0.0155(6) 0.3657(6)
O5 O 0.1260(5) -0.0478(7) 0.0649(6)
O6 O 0.3619(4) -0.0616(6) 0.5259(6)
O7 O 0.1568(4) 0.0612(6) 0.1956(6)
O8 O 0.3872(4) -0.1074(6) 0.6873(5)
O9 O 0.2617(4) 0.0129(6) 0.3594(6)
Cl1 Cl 0.31528(15) -0.1311(2) 0.2076(2)
Cl2 Cl 0.42698(15) 0.0434(2) 0.3644(2)
Cl3 Cl 0.26296(15) -0.2264(2) 0.4115(2)
Cl4 Cl 0.2515(2) 0.2475(2) 0.2905(3)
Cl5 Cl 0.20997(16) 0.1580(2) 0.5083(2)
Cl6 Cl 0.07338(18) 0.2037(3) 0.3099(2)
Ti1 Ti 0.33410(10) -0.07997(15) 0.37114(14)
Ti2 Ti 0.18739(11) 0.11742(15) 0.34643(15)
loop_
_geom_bond_atom_site_label_1
_geom_bond_atom_site_label_2
_geom_bond_site_symmetry_1
_geom_bond_site_symmetry_2
C1 H1 1_555 1_555
H2 C1 1_555 1_555
H3 C1 1_555 1_555
C2 H4 1_555 1_555
H5 C2 1_555 1_555
H6 C2 1_555 1_555
C3 C5 1_555 1_555
C4 H7 1_555 1_555
C5 H8 1_555 1_555
H9 C5 1_555 1_555
C6 C1 1_555 1_555
H10 C6 1_555 1_555
C7 C10 1_555 1_555
C8 H11 1_555 1_555
H12 C8 1_555 1_555
H13 C8 1_555 1_555
C9 C4 1_555 1_555
H14 C9 1_555 1_555
H15 C9 1_555 1_555
H16 C9 1_555 1_555
C10 H17 1_555 1_555
H18 C10 1_555 1_555
C11 C8 1_555 1_555
H19 C11 1_555 1_555
C12 C4 1_555 1_555
H20 C12 1_555 1_555
H21 C12 1_555 1_555
H22 C12 1_555 1_555
C13 C5 1_555 1_555
C14 H23 1_555 1_555
H24 C14 1_555 1_555
H25 C14 1_555 1_555
C15 C2 1_555 1_555
H26 C15 1_555 1_555
C16 C6 1_555 1_555
H27 C16 1_555 1_555
H28 C16 1_555 1_555
H29 C16 1_555 1_555
C17 C10 1_555 1_555
C18 C11 1_555 1_555
H30 C18 1_555 1_555
H31 C18 1_555 1_555
H32 C18 1_555 1_555
O1 C6 1_555 1_555
O2 C13 1_555 1_555
O3 C11 1_555 1_555
O4 C17 1_555 1_555
O5 C4 1_555 1_555
O6 C3 1_555 1_555
O7 C7 1_555 1_555
O8 C3 1_555 1_555
O9 Ti1 1_555 1_555
Cl1 Ti1 1_555 1_555
Cl2 Ti1 1_555 1_555
Cl3 Ti1 1_555 1_555
Cl4 Ti2 1_555 1_555
Cl5 Ti2 1_555 1_555
Cl6 Ti2 1_555 1_555
Ti1 O2 1_555 1_555
Ti2 O4 1_555 1_555
C7 O5 1_555 1_555
C13 O1 1_555 1_555
C14 C15 1_555 1_555
C15 O8 1_555 1_555
C17 O3 1_555 1_555
O6 Ti1 1_555 1_555
O7 Ti2 1_555 1_555
O9 Ti2 1_555 1_555

#END
