# generated using pymatgen
data_H177Pd6C154N43O126
_symmetry_space_group_name_H-M   'P 1'
_cell_length_a   20.25200000
_cell_length_b   33.47700000
_cell_length_c   36.36000000
_cell_angle_alpha   90.00000000
_cell_angle_beta   90.00000000
_cell_angle_gamma   90.00000000
_symmetry_Int_Tables_number   1
_chemical_formula_structural   H177Pd6C154N43O126
_chemical_formula_sum   'H708 Pd24 C616 N172 O504'
_cell_volume   24651.21477744
_cell_formula_units_Z   4
loop_
 _symmetry_equiv_pos_site_id
 _symmetry_equiv_pos_as_xyz
  1  'x, y, z'
loop_
 _atom_site_type_symbol
 _atom_site_label
 _atom_site_symmetry_multiplicity
 _atom_site_fract_x
 _atom_site_fract_y
 _atom_site_fract_z
 _atom_site_occupancy
  H  H1  1  0.081500  0.016400  0.180700  1
  H  H2  1  0.581500  0.983600  0.819300  1
  H  H3  1  0.081500  0.516400  0.319300  1
  H  H4  1  0.581500  0.483600  0.680700  1
  H  H5  1  0.022500  0.033100  0.234900  1
  H  H6  1  0.522500  0.966900  0.765100  1
  H  H7  1  0.022500  0.533100  0.265100  1
  H  H8  1  0.522500  0.466900  0.734900  1
  H  H9  1  0.198600  0.057500  0.285800  1
  H  H10  1  0.698600  0.942500  0.714200  1
  H  H11  1  0.198600  0.557500  0.214200  1
  H  H12  1  0.698600  0.442500  0.785800  1
  H  H13  1  0.257100  0.038500  0.233700  1
  H  H14  1  0.757100  0.961500  0.766300  1
  H  H15  1  0.257100  0.538500  0.266300  1
  H  H16  1  0.757100  0.461500  0.733700  1
  H  H17  1  0.179500  0.008200  0.155000  1
  H  H18  1  0.679500  0.991800  0.845000  1
  H  H19  1  0.179500  0.508200  0.345000  1
  H  H20  1  0.679500  0.491800  0.655000  1
  H  H21  1  0.974500  0.113000  0.289500  1
  H  H22  1  0.474500  0.887000  0.710500  1
  H  H23  1  0.974500  0.613000  0.210500  1
  H  H24  1  0.474500  0.387000  0.789500  1
  H  H25  1  0.861400  0.102100  0.283900  1
  H  H26  1  0.361400  0.897900  0.716100  1
  H  H27  1  0.861400  0.602100  0.216100  1
  H  H28  1  0.361400  0.397900  0.783900  1
  H  H29  1  0.887800  0.987100  0.313400  1
  H  H30  1  0.387800  0.012900  0.686600  1
  H  H31  1  0.887800  0.487100  0.186600  1
  H  H32  1  0.387800  0.512900  0.813400  1
  H  H33  1  0.002500  0.997100  0.313000  1
  H  H34  1  0.502500  0.002900  0.687000  1
  H  H35  1  0.002500  0.497100  0.187000  1
  H  H36  1  0.502500  0.502900  0.813000  1
  H  H37  1  0.788100  0.014100  0.298900  1
  H  H38  1  0.288100  0.985900  0.701100  1
  H  H39  1  0.788100  0.514100  0.201100  1
  H  H40  1  0.288100  0.485900  0.798900  1
  H  H41  1  0.081200  0.139900  0.270700  1
  H  H42  1  0.581200  0.860100  0.729300  1
  H  H43  1  0.081200  0.639900  0.229300  1
  H  H44  1  0.581200  0.360100  0.770700  1
  H  H45  1  0.126500  0.193700  0.299100  1
  H  H46  1  0.626500  0.806300  0.700900  1
  H  H47  1  0.126500  0.693700  0.200900  1
  H  H48  1  0.626500  0.306300  0.799100  1
  H  H49  1  0.175800  0.189500  0.355600  1
  H  H50  1  0.675800  0.810500  0.644400  1
  H  H51  1  0.175800  0.689500  0.144400  1
  H  H52  1  0.675800  0.310500  0.855600  1
  H  H53  1  0.177600  0.127100  0.385100  1
  H  H54  1  0.677600  0.872900  0.614900  1
  H  H55  1  0.177600  0.627100  0.114900  1
  H  H56  1  0.677600  0.372900  0.885100  1
  H  H57  1  0.842000  0.358800  0.202200  1
  H  H58  1  0.342000  0.641200  0.797800  1
  H  H59  1  0.842000  0.858800  0.297800  1
  H  H60  1  0.342000  0.141200  0.702200  1
  H  H61  1  0.961800  0.324500  0.121900  1
  H  H62  1  0.461800  0.675500  0.878100  1
  H  H63  1  0.961800  0.824500  0.378100  1
  H  H64  1  0.461800  0.175500  0.621900  1
  H  H65  1  0.036400  0.300600  0.167100  1
  H  H66  1  0.536400  0.699400  0.832900  1
  H  H67  1  0.036400  0.800600  0.332900  1
  H  H68  1  0.536400  0.199400  0.667100  1
  H  H69  1  0.912400  0.335500  0.246200  1
  H  H70  1  0.412400  0.664500  0.753800  1
  H  H71  1  0.912400  0.835500  0.253800  1
  H  H72  1  0.412400  0.164500  0.746200  1
  H  H73  1  0.814700  0.365900  0.141800  1
  H  H74  1  0.314700  0.634100  0.858200  1
  H  H75  1  0.814700  0.865900  0.358200  1
  H  H76  1  0.314700  0.134100  0.641800  1
  H  H77  1  0.080000  0.126500  0.187800  1
  H  H78  1  0.580000  0.873500  0.812200  1
  H  H79  1  0.080000  0.626500  0.312200  1
  H  H80  1  0.580000  0.373500  0.687800  1
  H  H81  1  0.135600  0.326100  0.191400  1
  H  H82  1  0.635600  0.673900  0.808600  1
  H  H83  1  0.135600  0.826100  0.308600  1
  H  H84  1  0.635600  0.173900  0.691400  1
  H  H85  1  0.231500  0.353600  0.214500  1
  H  H86  1  0.731500  0.646400  0.785500  1
  H  H87  1  0.231500  0.853600  0.285500  1
  H  H88  1  0.731500  0.146400  0.714500  1
  H  H89  1  0.247800  0.361700  0.276600  1
  H  H90  1  0.747800  0.638300  0.723400  1
  H  H91  1  0.247800  0.861700  0.223400  1
  H  H92  1  0.747800  0.138300  0.776600  1
  H  H93  1  0.166300  0.347200  0.319400  1
  H  H94  1  0.666300  0.652800  0.680600  1
  H  H95  1  0.166300  0.847200  0.180600  1
  H  H96  1  0.666300  0.152800  0.819400  1
  H  H97  1  0.131100  0.254500  0.209300  1
  H  H98  1  0.631100  0.745500  0.790700  1
  H  H99  1  0.131100  0.754500  0.290700  1
  H  H100  1  0.631100  0.245500  0.709300  1
  H  H101  1  0.136500  0.186500  0.190600  1
  H  H102  1  0.636500  0.813500  0.809400  1
  H  H103  1  0.136500  0.686500  0.309400  1
  H  H104  1  0.636500  0.313500  0.690600  1
  H  H105  1  0.953400  0.167900  0.232300  1
  H  H106  1  0.453400  0.832100  0.767700  1
  H  H107  1  0.953400  0.667900  0.267700  1
  H  H108  1  0.453400  0.332100  0.732300  1
  H  H109  1  0.944700  0.235600  0.248800  1
  H  H110  1  0.444700  0.764400  0.751200  1
  H  H111  1  0.944700  0.735600  0.251200  1
  H  H112  1  0.444700  0.264400  0.748800  1
  H  H113  1  0.001600  0.863400  0.061100  1
  H  H114  1  0.501600  0.136600  0.938900  1
  H  H115  1  0.001600  0.363400  0.438900  1
  H  H116  1  0.501600  0.636600  0.561100  1
  H  H117  1  0.010300  0.851300  0.103400  1
  H  H118  1  0.510300  0.148700  0.896600  1
  H  H119  1  0.010300  0.351300  0.396600  1
  H  H120  1  0.510300  0.648700  0.603400  1
  H  H121  1  0.978800  0.820200  0.075000  1
  H  H122  1  0.478800  0.179800  0.925000  1
  H  H123  1  0.978800  0.320200  0.425000  1
  H  H124  1  0.478800  0.679800  0.575000  1
  H  H125  1  0.915700  0.843300  0.141900  1
  H  H126  1  0.415700  0.156700  0.858100  1
  H  H127  1  0.915700  0.343300  0.358100  1
  H  H128  1  0.415700  0.656700  0.641900  1
  H  H129  1  0.843000  0.853600  0.127400  1
  H  H130  1  0.343000  0.146400  0.872600  1
  H  H131  1  0.843000  0.353600  0.372600  1
  H  H132  1  0.343000  0.646400  0.627400  1
  H  H133  1  0.879700  0.814100  0.113400  1
  H  H134  1  0.379700  0.185900  0.886600  1
  H  H135  1  0.879700  0.314100  0.386600  1
  H  H136  1  0.379700  0.685900  0.613400  1
  H  H137  1  0.821100  0.863400  0.068500  1
  H  H138  1  0.321100  0.136600  0.931500  1
  H  H139  1  0.821100  0.363400  0.431500  1
  H  H140  1  0.321100  0.636600  0.568500  1
  H  H141  1  0.871800  0.835100  0.046800  1
  H  H142  1  0.371800  0.164900  0.953200  1
  H  H143  1  0.871800  0.335100  0.453200  1
  H  H144  1  0.371800  0.664900  0.546800  1
  H  H145  1  0.847600  0.892500  0.010800  1
  H  H146  1  0.347600  0.107500  0.989200  1
  H  H147  1  0.847600  0.392500  0.489200  1
  H  H148  1  0.347600  0.607500  0.510800  1
  H  H149  1  0.924700  0.892700  0.021800  1
  H  H150  1  0.424700  0.107300  0.978200  1
  H  H151  1  0.924700  0.392700  0.478200  1
  H  H152  1  0.424700  0.607300  0.521800  1
  H  H153  1  0.778900  0.926600  0.078000  1
  H  H154  1  0.278900  0.073400  0.922000  1
  H  H155  1  0.778900  0.426600  0.422000  1
  H  H156  1  0.278900  0.573400  0.578000  1
  H  H157  1  0.800300  0.972400  0.073700  1
  H  H158  1  0.300300  0.027600  0.926300  1
  H  H159  1  0.800300  0.472400  0.426300  1
  H  H160  1  0.300300  0.527600  0.573700  1
  H  H161  1  0.775200  0.947800  0.038600  1
  H  H162  1  0.275200  0.052200  0.961400  1
  H  H163  1  0.775200  0.447800  0.461400  1
  H  H164  1  0.275200  0.552200  0.538600  1
  H  H165  1  0.943300  0.955700  0.024200  1
  H  H166  1  0.443300  0.044300  0.975800  1
  H  H167  1  0.943300  0.455700  0.475800  1
  H  H168  1  0.443300  0.544300  0.524200  1
  H  H169  1  0.872100  0.964800  0.007000  1
  H  H170  1  0.372100  0.035200  0.993000  1
  H  H171  1  0.872100  0.464800  0.493000  1
  H  H172  1  0.372100  0.535200  0.507000  1
  H  H173  1  0.897200  0.989300  0.042100  1
  H  H174  1  0.397200  0.010700  0.957900  1
  H  H175  1  0.897200  0.489300  0.457900  1
  H  H176  1  0.397200  0.510700  0.542100  1
  H  H177  1  0.236100  0.230800  0.993000  1
  H  H178  1  0.736100  0.769200  0.007000  1
  H  H179  1  0.236100  0.730800  0.507000  1
  H  H180  1  0.736100  0.269200  0.493000  1
  H  H181  1  0.159200  0.226400  0.002400  1
  H  H182  1  0.659200  0.773600  0.997600  1
  H  H183  1  0.159200  0.726400  0.497600  1
  H  H184  1  0.659200  0.273600  0.502400  1
  H  H185  1  0.182200  0.253100  0.968200  1
  H  H186  1  0.682200  0.746900  0.031800  1
  H  H187  1  0.182200  0.753100  0.531800  1
  H  H188  1  0.682200  0.246900  0.468200  1
  H  H189  1  0.141000  0.325900  0.036100  1
  H  H190  1  0.641000  0.674100  0.963900  1
  H  H191  1  0.141000  0.825900  0.463900  1
  H  H192  1  0.641000  0.174100  0.536100  1
  H  H193  1  0.122900  0.312400  0.995100  1
  H  H194  1  0.622900  0.687600  0.004900  1
  H  H195  1  0.122900  0.812400  0.504900  1
  H  H196  1  0.622900  0.187600  0.495100  1
  H  H197  1  0.099900  0.285800  0.029300  1
  H  H198  1  0.599900  0.714200  0.970700  1
  H  H199  1  0.099900  0.785800  0.470700  1
  H  H200  1  0.599900  0.214200  0.529300  1
  H  H201  1  0.243200  0.312900  0.977600  1
  H  H202  1  0.743200  0.687100  0.022400  1
  H  H203  1  0.243200  0.812900  0.522400  1
  H  H204  1  0.743200  0.187100  0.477600  1
  H  H205  1  0.232500  0.337200  0.015000  1
  H  H206  1  0.732500  0.662800  0.985000  1
  H  H207  1  0.232500  0.837200  0.485000  1
  H  H208  1  0.732500  0.162800  0.515000  1
  H  H209  1  0.340100  0.326500  0.010300  1
  H  H210  1  0.840100  0.673500  0.989700  1
  H  H211  1  0.340100  0.826500  0.489700  1
  H  H212  1  0.840100  0.173500  0.510300  1
  H  H213  1  0.329700  0.280500  0.000100  1
  H  H214  1  0.829700  0.719500  0.999900  1
  H  H215  1  0.329700  0.780500  0.499900  1
  H  H216  1  0.829700  0.219500  0.500100  1
  H  H217  1  0.335500  0.319600  0.102800  1
  H  H218  1  0.835500  0.680400  0.897200  1
  H  H219  1  0.335500  0.819600  0.397200  1
  H  H220  1  0.835500  0.180400  0.602800  1
  H  H221  1  0.372200  0.340100  0.068600  1
  H  H222  1  0.872200  0.659900  0.931400  1
  H  H223  1  0.372200  0.840100  0.431400  1
  H  H224  1  0.872200  0.159900  0.568600  1
  H  H225  1  0.294300  0.345800  0.074000  1
  H  H226  1  0.794300  0.654200  0.926000  1
  H  H227  1  0.294300  0.845800  0.426000  1
  H  H228  1  0.794300  0.154200  0.574000  1
  H  H229  1  0.371000  0.239600  0.044900  1
  H  H230  1  0.871000  0.760400  0.955100  1
  H  H231  1  0.371000  0.739600  0.455100  1
  H  H232  1  0.871000  0.260400  0.544900  1
  H  H233  1  0.418300  0.277200  0.051300  1
  H  H234  1  0.918300  0.722800  0.948700  1
  H  H235  1  0.418300  0.777200  0.448700  1
  H  H236  1  0.918300  0.222800  0.551300  1
  H  H237  1  0.382600  0.256500  0.085600  1
  H  H238  1  0.882600  0.743500  0.914400  1
  H  H239  1  0.382600  0.756500  0.414400  1
  H  H240  1  0.882600  0.243500  0.585600  1
  H  H241  1  0.938200  0.869100  0.428800  1
  H  H242  1  0.438200  0.130900  0.571200  1
  H  H243  1  0.938200  0.369100  0.071200  1
  H  H244  1  0.438200  0.630900  0.928800  1
  H  H245  1  0.913400  0.843100  0.463000  1
  H  H246  1  0.413400  0.156900  0.537000  1
  H  H247  1  0.913400  0.343100  0.037000  1
  H  H248  1  0.413400  0.656900  0.963000  1
  H  H249  1  0.869200  0.879300  0.448100  1
  H  H250  1  0.369200  0.120700  0.551900  1
  H  H251  1  0.869200  0.379300  0.051900  1
  H  H252  1  0.369200  0.620700  0.948100  1
  H  H253  1  0.041500  0.885100  0.460200  1
  H  H254  1  0.541500  0.114900  0.539800  1
  H  H255  1  0.041500  0.385100  0.039800  1
  H  H256  1  0.541500  0.614900  0.960200  1
  H  H257  1  0.038400  0.899800  0.502000  1
  H  H258  1  0.538400  0.100200  0.498000  1
  H  H259  1  0.038400  0.399800  0.998000  1
  H  H260  1  0.538400  0.600200  0.002000  1
  H  H261  1  0.016000  0.855400  0.491600  1
  H  H262  1  0.516000  0.144600  0.508400  1
  H  H263  1  0.016000  0.355400  0.008400  1
  H  H264  1  0.516000  0.644600  0.991600  1
  H  H265  1  0.932000  0.878600  0.528300  1
  H  H266  1  0.432000  0.121400  0.471700  1
  H  H267  1  0.932000  0.378600  0.971700  1
  H  H268  1  0.432000  0.621400  0.028300  1
  H  H269  1  0.866900  0.882000  0.503900  1
  H  H270  1  0.366900  0.118000  0.496100  1
  H  H271  1  0.866900  0.382000  0.996100  1
  H  H272  1  0.366900  0.618000  0.003900  1
  H  H273  1  0.845300  0.931100  0.538400  1
  H  H274  1  0.345300  0.068900  0.461600  1
  H  H275  1  0.845300  0.431100  0.961600  1
  H  H276  1  0.345300  0.568900  0.038400  1
  H  H277  1  0.920400  0.936400  0.550900  1
  H  H278  1  0.420400  0.063600  0.449100  1
  H  H279  1  0.920400  0.436400  0.949100  1
  H  H280  1  0.420400  0.563600  0.050900  1
  H  H281  1  0.932100  0.025400  0.510500  1
  H  H282  1  0.432100  0.974600  0.489500  1
  H  H283  1  0.932100  0.525400  0.989500  1
  H  H284  1  0.432100  0.474600  0.010500  1
  H  H285  1  0.902900  0.008500  0.548300  1
  H  H286  1  0.402900  0.991500  0.451700  1
  H  H287  1  0.902900  0.508500  0.951700  1
  H  H288  1  0.402900  0.491500  0.048300  1
  H  H289  1  0.973400  0.993600  0.533900  1
  H  H290  1  0.473400  0.006400  0.466100  1
  H  H291  1  0.973400  0.493600  0.966100  1
  H  H292  1  0.473400  0.506400  0.033900  1
  H  H293  1  0.822300  0.004400  0.482900  1
  H  H294  1  0.322300  0.995600  0.517100  1
  H  H295  1  0.822300  0.504400  0.017100  1
  H  H296  1  0.322300  0.495600  0.982900  1
  H  H297  1  0.801600  0.958300  0.485700  1
  H  H298  1  0.301600  0.041700  0.514300  1
  H  H299  1  0.801600  0.458300  0.014300  1
  H  H300  1  0.301600  0.541700  0.985700  1
  H  H301  1  0.801000  0.985800  0.521700  1
  H  H302  1  0.301000  0.014200  0.478300  1
  H  H303  1  0.801000  0.485800  0.978300  1
  H  H304  1  0.301000  0.514200  0.021700  1
  H  H305  1  0.355700  0.343900  0.390600  1
  H  H306  1  0.855700  0.656100  0.609400  1
  H  H307  1  0.355700  0.843900  0.109400  1
  H  H308  1  0.855700  0.156100  0.890600  1
  H  H309  1  0.317800  0.377200  0.414000  1
  H  H310  1  0.817800  0.622800  0.586000  1
  H  H311  1  0.317800  0.877200  0.086000  1
  H  H312  1  0.817800  0.122800  0.914000  1
  H  H313  1  0.395500  0.370700  0.419500  1
  H  H314  1  0.895500  0.629300  0.580500  1
  H  H315  1  0.395500  0.870700  0.080500  1
  H  H316  1  0.895500  0.129300  0.919500  1
  H  H317  1  0.403000  0.288500  0.419300  1
  H  H318  1  0.903000  0.711500  0.580700  1
  H  H319  1  0.403000  0.788500  0.080700  1
  H  H320  1  0.903000  0.211500  0.919300  1
  H  H321  1  0.437700  0.315900  0.449800  1
  H  H322  1  0.937700  0.684100  0.550200  1
  H  H323  1  0.437700  0.815900  0.050200  1
  H  H324  1  0.937700  0.184100  0.949800  1
  H  H325  1  0.391400  0.279500  0.462000  1
  H  H326  1  0.891400  0.720500  0.538000  1
  H  H327  1  0.391400  0.779500  0.038000  1
  H  H328  1  0.891400  0.220500  0.962000  1
  H  H329  1  0.362000  0.369300  0.482300  1
  H  H330  1  0.862000  0.630700  0.517700  1
  H  H331  1  0.362000  0.869300  0.017700  1
  H  H332  1  0.862000  0.130700  0.982300  1
  H  H333  1  0.353400  0.325300  0.498900  1
  H  H334  1  0.853400  0.674700  0.501100  1
  H  H335  1  0.353400  0.825300  0.001100  1
  H  H336  1  0.853400  0.174700  0.998900  1
  H  H337  1  0.263300  0.359100  0.517700  1
  H  H338  1  0.763300  0.640900  0.482300  1
  H  H339  1  0.263300  0.859100  0.982300  1
  H  H340  1  0.763300  0.140900  0.017700  1
  H  H341  1  0.252300  0.378800  0.478100  1
  H  H342  1  0.752300  0.621200  0.521900  1
  H  H343  1  0.252300  0.878800  0.021900  1
  H  H344  1  0.752300  0.121200  0.978100  1
  H  H345  1  0.183400  0.273900  0.504600  1
  H  H346  1  0.683400  0.726100  0.495400  1
  H  H347  1  0.183400  0.773900  0.995400  1
  H  H348  1  0.683400  0.226100  0.004600  1
  H  H349  1  0.258300  0.282600  0.516000  1
  H  H350  1  0.758300  0.717400  0.484000  1
  H  H351  1  0.258300  0.782600  0.984000  1
  H  H352  1  0.758300  0.217400  0.016000  1
  H  H353  1  0.199800  0.308200  0.533900  1
  H  H354  1  0.699800  0.691800  0.466100  1
  H  H355  1  0.199800  0.808200  0.966100  1
  H  H356  1  0.699800  0.191800  0.033900  1
  H  H357  1  0.120600  0.320800  0.471100  1
  H  H358  1  0.620600  0.679200  0.528900  1
  H  H359  1  0.120600  0.820800  0.028900  1
  H  H360  1  0.620600  0.179200  0.971100  1
  H  H361  1  0.139100  0.354800  0.500300  1
  H  H362  1  0.639100  0.645200  0.499700  1
  H  H363  1  0.139100  0.854800  0.999700  1
  H  H364  1  0.639100  0.145200  0.000300  1
  H  H365  1  0.153800  0.361600  0.457500  1
  H  H366  1  0.653800  0.638400  0.542500  1
  H  H367  1  0.153800  0.861600  0.042500  1
  H  H368  1  0.653800  0.138400  0.957500  1
  H  H369  1  0.802000  0.274100  0.210500  1
  H  H370  1  0.302000  0.725900  0.789500  1
  H  H371  1  0.802000  0.774100  0.289500  1
  H  H372  1  0.302000  0.225900  0.710500  1
  H  H373  1  0.878200  0.243200  0.172100  1
  H  H374  1  0.378200  0.756800  0.827900  1
  H  H375  1  0.878200  0.743200  0.327900  1
  H  H376  1  0.378200  0.256800  0.672100  1
  H  H377  1  0.785300  0.138600  0.189400  1
  H  H378  1  0.285300  0.861400  0.810600  1
  H  H379  1  0.785300  0.638600  0.310600  1
  H  H380  1  0.285300  0.361400  0.689400  1
  H  H381  1  0.710300  0.171200  0.225300  1
  H  H382  1  0.210300  0.828800  0.774700  1
  H  H383  1  0.710300  0.671200  0.274700  1
  H  H384  1  0.210300  0.328800  0.725300  1
  H  H385  1  0.010900  0.246000  0.123500  1
  H  H386  1  0.510900  0.754000  0.876500  1
  H  H387  1  0.010900  0.746000  0.376500  1
  H  H388  1  0.510900  0.254000  0.623500  1
  H  H389  1  0.098400  0.281000  0.100800  1
  H  H390  1  0.598400  0.719000  0.899200  1
  H  H391  1  0.098400  0.781000  0.399200  1
  H  H392  1  0.598400  0.219000  0.600800  1
  H  H393  1  0.175700  0.180900  0.062400  1
  H  H394  1  0.675700  0.819100  0.937600  1
  H  H395  1  0.175700  0.680900  0.437600  1
  H  H396  1  0.675700  0.319100  0.562400  1
  H  H397  1  0.091100  0.144200  0.083800  1
  H  H398  1  0.591100  0.855800  0.916200  1
  H  H399  1  0.091100  0.644200  0.416200  1
  H  H400  1  0.591100  0.355800  0.583800  1
  H  H401  1  0.017800  0.059400  0.098700  1
  H  H402  1  0.517800  0.940600  0.901300  1
  H  H403  1  0.017800  0.559400  0.401300  1
  H  H404  1  0.517800  0.440600  0.598700  1
  H  H405  1  0.847500  0.055800  0.155300  1
  H  H406  1  0.347500  0.944200  0.844700  1
  H  H407  1  0.847500  0.555800  0.344700  1
  H  H408  1  0.347500  0.444200  0.655300  1
  H  H409  1  0.842100  0.987800  0.142100  1
  H  H410  1  0.342100  0.012200  0.857900  1
  H  H411  1  0.842100  0.487800  0.357900  1
  H  H412  1  0.342100  0.512200  0.642100  1
  H  H413  1  0.009800  0.992600  0.089000  1
  H  H414  1  0.509800  0.007400  0.911000  1
  H  H415  1  0.009800  0.492600  0.411000  1
  H  H416  1  0.509800  0.507400  0.589000  1
  H  H417  1  0.914500  0.927600  0.382100  1
  H  H418  1  0.414500  0.072400  0.617900  1
  H  H419  1  0.914500  0.427600  0.117900  1
  H  H420  1  0.414500  0.572400  0.882100  1
  H  H421  1  0.966000  0.922700  0.326200  1
  H  H422  1  0.466000  0.077300  0.673800  1
  H  H423  1  0.966000  0.422700  0.173800  1
  H  H424  1  0.466000  0.577300  0.826200  1
  H  H425  1  0.082400  0.954200  0.430200  1
  H  H426  1  0.582400  0.045800  0.569800  1
  H  H427  1  0.082400  0.454200  0.069800  1
  H  H428  1  0.582400  0.545800  0.930200  1
  H  H429  1  0.140000  0.948800  0.376300  1
  H  H430  1  0.640000  0.051200  0.623700  1
  H  H431  1  0.140000  0.448800  0.123700  1
  H  H432  1  0.640000  0.551200  0.876300  1
  H  H433  1  0.123600  0.930300  0.176100  1
  H  H434  1  0.623600  0.069700  0.823900  1
  H  H435  1  0.123600  0.430300  0.323900  1
  H  H436  1  0.623600  0.569700  0.676100  1
  H  H437  1  0.961300  0.915700  0.236700  1
  H  H438  1  0.461300  0.084300  0.763300  1
  H  H439  1  0.961300  0.415700  0.263300  1
  H  H440  1  0.461300  0.584300  0.736700  1
  H  H441  1  0.899000  0.910500  0.182700  1
  H  H442  1  0.399000  0.089500  0.817300  1
  H  H443  1  0.899000  0.410500  0.317300  1
  H  H444  1  0.399000  0.589500  0.682700  1
  H  H445  1  0.059700  0.923300  0.123700  1
  H  H446  1  0.559700  0.076700  0.876300  1
  H  H447  1  0.059700  0.423300  0.376300  1
  H  H448  1  0.559700  0.576700  0.623700  1
  H  H449  1  0.268800  0.961200  0.327300  1
  H  H450  1  0.768800  0.038800  0.672700  1
  H  H451  1  0.268800  0.461200  0.172700  1
  H  H452  1  0.768800  0.538800  0.827300  1
  H  H453  1  0.381500  0.975700  0.324200  1
  H  H454  1  0.881500  0.024300  0.675800  1
  H  H455  1  0.381500  0.475700  0.175800  1
  H  H456  1  0.881500  0.524300  0.824200  1
  H  H457  1  0.379400  0.956800  0.216700  1
  H  H458  1  0.879400  0.043200  0.783300  1
  H  H459  1  0.379400  0.456800  0.283300  1
  H  H460  1  0.879400  0.543200  0.716700  1
  H  H461  1  0.268700  0.944000  0.217200  1
  H  H462  1  0.768700  0.056000  0.782800  1
  H  H463  1  0.268700  0.444000  0.282800  1
  H  H464  1  0.768700  0.556000  0.717200  1
  H  H465  1  0.255000  0.313800  0.351400  1
  H  H466  1  0.755000  0.686200  0.648600  1
  H  H467  1  0.255000  0.813800  0.148600  1
  H  H468  1  0.755000  0.186200  0.851400  1
  H  H469  1  0.318200  0.222500  0.410200  1
  H  H470  1  0.818200  0.777500  0.589800  1
  H  H471  1  0.318200  0.722500  0.089800  1
  H  H472  1  0.818200  0.277500  0.910200  1
  H  H473  1  0.330700  0.184900  0.356300  1
  H  H474  1  0.830700  0.815100  0.643700  1
  H  H475  1  0.330700  0.684900  0.143700  1
  H  H476  1  0.830700  0.315100  0.856300  1
  H  H477  1  0.266100  0.279600  0.298600  1
  H  H478  1  0.766100  0.720400  0.701400  1
  H  H479  1  0.266100  0.779600  0.201400  1
  H  H480  1  0.766100  0.220400  0.798600  1
  H  H481  1  0.402300  0.110800  0.316800  1
  H  H482  1  0.902300  0.889200  0.683200  1
  H  H483  1  0.402300  0.610800  0.183200  1
  H  H484  1  0.902300  0.389200  0.816800  1
  H  H485  1  0.451300  0.047600  0.319500  1
  H  H486  1  0.951300  0.952400  0.680500  1
  H  H487  1  0.451300  0.547600  0.180500  1
  H  H488  1  0.951300  0.452400  0.819500  1
  H  H489  1  0.382400  0.098200  0.206800  1
  H  H490  1  0.882400  0.901800  0.793200  1
  H  H491  1  0.382400  0.598200  0.293200  1
  H  H492  1  0.882400  0.401800  0.706800  1
  H  H493  1  0.446000  0.039200  0.211000  1
  H  H494  1  0.946000  0.960800  0.789000  1
  H  H495  1  0.446000  0.539200  0.289000  1
  H  H496  1  0.946000  0.460800  0.711000  1
  H  H497  1  0.316800  0.165600  0.160200  1
  H  H498  1  0.816800  0.834400  0.839800  1
  H  H499  1  0.316800  0.665600  0.339800  1
  H  H500  1  0.816800  0.334400  0.660200  1
  H  H501  1  0.295000  0.193700  0.102100  1
  H  H502  1  0.795000  0.806300  0.897900  1
  H  H503  1  0.295000  0.693700  0.397900  1
  H  H504  1  0.795000  0.306300  0.602100  1
  H  H505  1  0.241600  0.295700  0.146800  1
  H  H506  1  0.741600  0.704300  0.853200  1
  H  H507  1  0.241600  0.795700  0.353200  1
  H  H508  1  0.741600  0.204300  0.646800  1
  H  H509  1  0.260100  0.271300  0.204700  1
  H  H510  1  0.760100  0.728700  0.795300  1
  H  H511  1  0.260100  0.771300  0.295300  1
  H  H512  1  0.760100  0.228700  0.704700  1
  H  H513  1  0.862800  0.009800  0.413600  1
  H  H514  1  0.362800  0.990200  0.586400  1
  H  H515  1  0.862800  0.509800  0.086400  1
  H  H516  1  0.362800  0.490200  0.913600  1
  H  H517  1  0.033600  0.026300  0.461500  1
  H  H518  1  0.533600  0.973700  0.538500  1
  H  H519  1  0.033600  0.526300  0.038500  1
  H  H520  1  0.533600  0.473700  0.961500  1
  H  H521  1  0.042400  0.088900  0.438000  1
  H  H522  1  0.542400  0.911100  0.562000  1
  H  H523  1  0.042400  0.588900  0.062000  1
  H  H524  1  0.542400  0.411100  0.938000  1
  H  H525  1  0.868300  0.075100  0.387900  1
  H  H526  1  0.368300  0.924900  0.612100  1
  H  H527  1  0.868300  0.575100  0.112100  1
  H  H528  1  0.368300  0.424900  0.887900  1
  H  H529  1  0.112400  0.176500  0.440300  1
  H  H530  1  0.612400  0.823500  0.559700  1
  H  H531  1  0.112400  0.676500  0.059700  1
  H  H532  1  0.612400  0.323500  0.940300  1
  H  H533  1  0.196200  0.218200  0.457000  1
  H  H534  1  0.696200  0.781800  0.543000  1
  H  H535  1  0.196200  0.718200  0.043000  1
  H  H536  1  0.696200  0.281800  0.957000  1
  H  H537  1  0.125800  0.304400  0.393600  1
  H  H538  1  0.625800  0.695600  0.606400  1
  H  H539  1  0.125800  0.804400  0.106400  1
  H  H540  1  0.625800  0.195600  0.893600  1
  H  H541  1  0.039200  0.264500  0.374000  1
  H  H542  1  0.539200  0.735500  0.626000  1
  H  H543  1  0.039200  0.764500  0.126000  1
  H  H544  1  0.539200  0.235500  0.874000  1
  H  H545  1  0.905200  0.252600  0.331400  1
  H  H546  1  0.405200  0.747400  0.668600  1
  H  H547  1  0.905200  0.752600  0.168600  1
  H  H548  1  0.405200  0.247400  0.831400  1
  H  H549  1  0.820200  0.278800  0.296700  1
  H  H550  1  0.320200  0.721200  0.703300  1
  H  H551  1  0.820200  0.778800  0.203300  1
  H  H552  1  0.320200  0.221200  0.796700  1
  H  H553  1  0.803500  0.147900  0.339000  1
  H  H554  1  0.303500  0.852100  0.661000  1
  H  H555  1  0.803500  0.647900  0.161000  1
  H  H556  1  0.303500  0.352100  0.839000  1
  H  H557  1  0.719300  0.176800  0.305300  1
  H  H558  1  0.219300  0.823200  0.694700  1
  H  H559  1  0.719300  0.676800  0.194700  1
  H  H560  1  0.219300  0.323200  0.805300  1
  H  H561  1  0.584200  0.214800  0.215200  1
  H  H562  1  0.084200  0.785200  0.784800  1
  H  H563  1  0.584200  0.714800  0.284800  1
  H  H564  1  0.084200  0.285200  0.715200  1
  H  H565  1  0.563300  0.247700  0.185500  1
  H  H566  1  0.063300  0.752300  0.814500  1
  H  H567  1  0.563300  0.747700  0.314500  1
  H  H568  1  0.063300  0.252300  0.685500  1
  H  H569  1  0.636200  0.229300  0.184900  1
  H  H570  1  0.136200  0.770700  0.815100  1
  H  H571  1  0.636200  0.729300  0.315100  1
  H  H572  1  0.136200  0.270700  0.684900  1
  H  H573  1  0.660100  0.324800  0.219100  1
  H  H574  1  0.160100  0.675200  0.780900  1
  H  H575  1  0.660100  0.824800  0.280900  1
  H  H576  1  0.160100  0.175200  0.719100  1
  H  H577  1  0.681200  0.294600  0.187100  1
  H  H578  1  0.181200  0.705400  0.812900  1
  H  H579  1  0.681200  0.794600  0.312900  1
  H  H580  1  0.181200  0.205400  0.687100  1
  H  H581  1  0.608300  0.313000  0.187700  1
  H  H582  1  0.108300  0.687000  0.812300  1
  H  H583  1  0.608300  0.813000  0.312300  1
  H  H584  1  0.108300  0.187000  0.687700  1
  H  H585  1  0.535700  0.299600  0.235500  1
  H  H586  1  0.035700  0.700400  0.764500  1
  H  H587  1  0.535700  0.799600  0.264500  1
  H  H588  1  0.035700  0.200400  0.735500  1
  H  H589  1  0.538700  0.257100  0.255800  1
  H  H590  1  0.038700  0.742900  0.744200  1
  H  H591  1  0.538700  0.757100  0.244200  1
  H  H592  1  0.038700  0.242900  0.755800  1
  H  H593  1  0.607600  0.327100  0.277600  1
  H  H594  1  0.107600  0.672900  0.722400  1
  H  H595  1  0.607600  0.827100  0.222400  1
  H  H596  1  0.107600  0.172900  0.777600  1
  H  H597  1  0.548700  0.306000  0.299900  1
  H  H598  1  0.048700  0.694000  0.700100  1
  H  H599  1  0.548700  0.806000  0.200100  1
  H  H600  1  0.048700  0.194000  0.799900  1
  H  H601  1  0.691700  0.325200  0.311400  1
  H  H602  1  0.191700  0.674800  0.688600  1
  H  H603  1  0.691700  0.825200  0.188600  1
  H  H604  1  0.191700  0.174800  0.811400  1
  H  H605  1  0.643100  0.315600  0.344900  1
  H  H606  1  0.143100  0.684400  0.655100  1
  H  H607  1  0.643100  0.815600  0.155100  1
  H  H608  1  0.143100  0.184400  0.844900  1
  H  H609  1  0.708500  0.289500  0.339100  1
  H  H610  1  0.208500  0.710500  0.660900  1
  H  H611  1  0.708500  0.789500  0.160900  1
  H  H612  1  0.208500  0.210500  0.839100  1
  H  H613  1  0.644200  0.229500  0.337200  1
  H  H614  1  0.144200  0.770500  0.662800  1
  H  H615  1  0.644200  0.729500  0.162800  1
  H  H616  1  0.144200  0.270500  0.837200  1
  H  H617  1  0.580800  0.256800  0.345000  1
  H  H618  1  0.080800  0.743200  0.655000  1
  H  H619  1  0.580800  0.756800  0.155000  1
  H  H620  1  0.080800  0.243200  0.845000  1
  H  H621  1  0.581100  0.226700  0.310800  1
  H  H622  1  0.081100  0.773300  0.689200  1
  H  H623  1  0.581100  0.726700  0.189200  1
  H  H624  1  0.081100  0.273300  0.810800  1
  H  H625  1  0.454000  0.908000  0.312800  1
  H  H626  1  0.954000  0.092000  0.687200  1
  H  H627  1  0.454000  0.408000  0.187200  1
  H  H628  1  0.954000  0.592000  0.812800  1
  H  H629  1  0.515600  0.878200  0.310800  1
  H  H630  1  0.015600  0.121800  0.689200  1
  H  H631  1  0.515600  0.378200  0.189200  1
  H  H632  1  0.015600  0.621800  0.810800  1
  H  H633  1  0.523400  0.920900  0.330200  1
  H  H634  1  0.023400  0.079100  0.669800  1
  H  H635  1  0.523400  0.420900  0.169800  1
  H  H636  1  0.023400  0.579100  0.830200  1
  H  H637  1  0.438600  0.895900  0.253800  1
  H  H638  1  0.938600  0.104100  0.746200  1
  H  H639  1  0.438600  0.395900  0.246200  1
  H  H640  1  0.938600  0.604100  0.753800  1
  H  H641  1  0.492000  0.906100  0.222700  1
  H  H642  1  0.992000  0.093900  0.777300  1
  H  H643  1  0.492000  0.406100  0.277300  1
  H  H644  1  0.992000  0.593900  0.722700  1
  H  H645  1  0.503800  0.869300  0.250000  1
  H  H646  1  0.003800  0.130700  0.750000  1
  H  H647  1  0.503800  0.369300  0.250000  1
  H  H648  1  0.003800  0.630700  0.750000  1
  H  H649  1  0.597200  0.917200  0.239300  1
  H  H650  1  0.097200  0.082800  0.760700  1
  H  H651  1  0.597200  0.417200  0.260700  1
  H  H652  1  0.097200  0.582800  0.739300  1
  H  H653  1  0.614500  0.903300  0.280200  1
  H  H654  1  0.114500  0.096700  0.719800  1
  H  H655  1  0.614500  0.403300  0.219800  1
  H  H656  1  0.114500  0.596700  0.780200  1
  H  H657  1  0.641800  0.963400  0.298000  1
  H  H658  1  0.141800  0.036600  0.702000  1
  H  H659  1  0.641800  0.463400  0.202000  1
  H  H660  1  0.141800  0.536600  0.798000  1
  H  H661  1  0.663900  0.965300  0.255900  1
  H  H662  1  0.163900  0.034700  0.744100  1
  H  H663  1  0.663900  0.465300  0.244100  1
  H  H664  1  0.163900  0.534700  0.755900  1
  H  H665  1  0.582000  0.049100  0.296400  1
  H  H666  1  0.082000  0.950900  0.703600  1
  H  H667  1  0.582000  0.549100  0.203600  1
  H  H668  1  0.082000  0.450900  0.796400  1
  H  H669  1  0.599700  0.010500  0.320400  1
  H  H670  1  0.099700  0.989500  0.679600  1
  H  H671  1  0.599700  0.510500  0.179600  1
  H  H672  1  0.099700  0.489500  0.820400  1
  H  H673  1  0.653800  0.029300  0.293400  1
  H  H674  1  0.153800  0.970700  0.706600  1
  H  H675  1  0.653800  0.529300  0.206600  1
  H  H676  1  0.153800  0.470700  0.793400  1
  H  H677  1  0.567900  0.039400  0.226900  1
  H  H678  1  0.067900  0.960600  0.773100  1
  H  H679  1  0.567900  0.539400  0.273100  1
  H  H680  1  0.067900  0.460600  0.726900  1
  H  H681  1  0.642700  0.024100  0.229000  1
  H  H682  1  0.142700  0.975900  0.771000  1
  H  H683  1  0.642700  0.524100  0.271000  1
  H  H684  1  0.142700  0.475900  0.729000  1
  H  H685  1  0.587100  0.996300  0.211100  1
  H  H686  1  0.087100  0.003700  0.788900  1
  H  H687  1  0.587100  0.496300  0.288900  1
  H  H688  1  0.087100  0.503700  0.711100  1
  H  H689  1  0.989600  0.101500  0.249900  1
  H  H690  1  0.489600  0.898500  0.750100  1
  H  H691  1  0.989600  0.601500  0.250100  1
  H  H692  1  0.489600  0.398500  0.749900  1
  H  H693  1  0.876100  0.114900  0.245500  1
  H  H694  1  0.376100  0.885100  0.754500  1
  H  H695  1  0.876100  0.614900  0.254500  1
  H  H696  1  0.376100  0.385100  0.745500  1
  H  H697  1  0.843100  0.041100  0.331300  1
  H  H698  1  0.343100  0.958900  0.668700  1
  H  H699  1  0.843100  0.541100  0.168700  1
  H  H700  1  0.343100  0.458900  0.831300  1
  H  H701  1  0.957200  0.028400  0.335800  1
  H  H702  1  0.457200  0.971600  0.664200  1
  H  H703  1  0.957200  0.528400  0.164200  1
  H  H704  1  0.457200  0.471600  0.835800  1
  H  H705  1  0.761700  0.075700  0.301900  1
  H  H706  1  0.261700  0.924300  0.698100  1
  H  H707  1  0.761700  0.575700  0.198100  1
  H  H708  1  0.261700  0.424300  0.801900  1
  Pd  Pd709  1  0.233090  0.263170  0.068630  1
  Pd  Pd710  1  0.733090  0.736830  0.931370  1
  Pd  Pd711  1  0.233090  0.763170  0.431370  1
  Pd  Pd712  1  0.733090  0.236830  0.568630  1
  Pd  Pd713  1  0.253870  0.297180  0.433950  1
  Pd  Pd714  1  0.753870  0.702820  0.566050  1
  Pd  Pd715  1  0.253870  0.797180  0.066050  1
  Pd  Pd716  1  0.753870  0.202820  0.933950  1
  Pd  Pd717  1  0.920020  0.925070  0.101780  1
  Pd  Pd718  1  0.420020  0.074930  0.898220  1
  Pd  Pd719  1  0.920020  0.425070  0.398220  1
  Pd  Pd720  1  0.420020  0.574930  0.601780  1
  Pd  Pd721  1  0.693310  0.250240  0.261640  1
  Pd  Pd722  1  0.193310  0.749760  0.738360  1
  Pd  Pd723  1  0.693310  0.750240  0.238360  1
  Pd  Pd724  1  0.193310  0.249760  0.761640  1
  Pd  Pd725  1  0.945540  0.955270  0.458540  1
  Pd  Pd726  1  0.445540  0.044730  0.541460  1
  Pd  Pd727  1  0.945540  0.455270  0.041460  1
  Pd  Pd728  1  0.445540  0.544730  0.958540  1
  Pd  Pd729  1  0.487350  0.981700  0.268870  1
  Pd  Pd730  1  0.987350  0.018300  0.731130  1
  Pd  Pd731  1  0.487350  0.481700  0.231130  1
  Pd  Pd732  1  0.987350  0.518300  0.768870  1
  C  C733  1  0.171800  0.026900  0.202900  1
  C  C734  1  0.671800  0.973100  0.797100  1
  C  C735  1  0.171800  0.526900  0.297100  1
  C  C736  1  0.671800  0.473100  0.702900  1
  C  C737  1  0.104200  0.024700  0.202300  1
  C  C738  1  0.604200  0.975300  0.797700  1
  C  C739  1  0.104200  0.524700  0.297700  1
  C  C740  1  0.604200  0.475300  0.702300  1
  C  C741  1  0.069300  0.034900  0.234300  1
  C  C742  1  0.569300  0.965100  0.765700  1
  C  C743  1  0.069300  0.534900  0.265700  1
  C  C744  1  0.569300  0.465100  0.734300  1
  C  C745  1  0.103500  0.047600  0.265200  1
  C  C746  1  0.603500  0.952400  0.734800  1
  C  C747  1  0.103500  0.547600  0.234800  1
  C  C748  1  0.603500  0.452400  0.765200  1
  C  C749  1  0.175400  0.049000  0.264500  1
  C  C750  1  0.675400  0.951000  0.735500  1
  C  C751  1  0.175400  0.549000  0.235500  1
  C  C752  1  0.675400  0.451000  0.764500  1
  C  C753  1  0.210200  0.038300  0.234100  1
  C  C754  1  0.710200  0.961700  0.765900  1
  C  C755  1  0.210200  0.538300  0.265900  1
  C  C756  1  0.710200  0.461700  0.734100  1
  C  C757  1  0.998800  0.057000  0.303000  1
  C  C758  1  0.498800  0.943000  0.697000  1
  C  C759  1  0.998800  0.557000  0.197000  1
  C  C760  1  0.498800  0.443000  0.803000  1
  C  C761  1  0.957100  0.087100  0.293900  1
  C  C762  1  0.457100  0.912900  0.706100  1
  C  C763  1  0.957100  0.587100  0.206100  1
  C  C764  1  0.457100  0.412900  0.793900  1
  C  C765  1  0.890000  0.081000  0.290900  1
  C  C766  1  0.390000  0.919000  0.709100  1
  C  C767  1  0.890000  0.581000  0.209100  1
  C  C768  1  0.390000  0.419000  0.790900  1
  C  C769  1  0.865200  0.043500  0.298300  1
  C  C770  1  0.365200  0.956500  0.701700  1
  C  C771  1  0.865200  0.543500  0.201700  1
  C  C772  1  0.365200  0.456500  0.798300  1
  C  C773  1  0.905700  0.012500  0.307600  1
  C  C774  1  0.405700  0.987500  0.692400  1
  C  C775  1  0.905700  0.512500  0.192400  1
  C  C776  1  0.405700  0.487500  0.807600  1
  C  C777  1  0.973400  0.018900  0.308500  1
  C  C778  1  0.473400  0.981100  0.691500  1
  C  C779  1  0.973400  0.518900  0.191500  1
  C  C780  1  0.473400  0.481100  0.808500  1
  C  C781  1  0.068100  0.062200  0.301000  1
  C  C782  1  0.568100  0.937800  0.699000  1
  C  C783  1  0.068100  0.562200  0.199000  1
  C  C784  1  0.568100  0.437800  0.801000  1
  C  C785  1  0.122300  0.057900  0.357900  1
  C  C786  1  0.622300  0.942100  0.642100  1
  C  C787  1  0.122300  0.557900  0.142100  1
  C  C788  1  0.622300  0.442100  0.857900  1
  C  C789  1  0.125100  0.097600  0.346300  1
  C  C790  1  0.625100  0.902400  0.653700  1
  C  C791  1  0.125100  0.597600  0.153700  1
  C  C792  1  0.625100  0.402400  0.846300  1
  C  C793  1  0.094500  0.101600  0.312800  1
  C  C794  1  0.594500  0.898400  0.687200  1
  C  C795  1  0.094500  0.601600  0.187200  1
  C  C796  1  0.594500  0.398400  0.812800  1
  C  C797  1  0.098500  0.137300  0.294800  1
  C  C798  1  0.598500  0.862700  0.705200  1
  C  C799  1  0.098500  0.637300  0.205200  1
  C  C800  1  0.598500  0.362700  0.794800  1
  C  C801  1  0.127000  0.168700  0.311400  1
  C  C802  1  0.627000  0.831300  0.688600  1
  C  C803  1  0.127000  0.668700  0.188600  1
  C  C804  1  0.627000  0.331300  0.811400  1
  C  C805  1  0.156100  0.166700  0.344600  1
  C  C806  1  0.656100  0.833300  0.655400  1
  C  C807  1  0.156100  0.666700  0.155400  1
  C  C808  1  0.656100  0.333300  0.844600  1
  C  C809  1  0.156100  0.130000  0.362100  1
  C  C810  1  0.656100  0.870000  0.637900  1
  C  C811  1  0.156100  0.630000  0.137900  1
  C  C812  1  0.656100  0.370000  0.862100  1
  C  C813  1  0.881800  0.346300  0.194400  1
  C  C814  1  0.381800  0.653700  0.805600  1
  C  C815  1  0.881800  0.846300  0.305600  1
  C  C816  1  0.381800  0.153700  0.694400  1
  C  C817  1  0.892600  0.343600  0.159000  1
  C  C818  1  0.392600  0.656400  0.841000  1
  C  C819  1  0.892600  0.843600  0.341000  1
  C  C820  1  0.392600  0.156400  0.659000  1
  C  C821  1  0.951500  0.326400  0.147400  1
  C  C822  1  0.451500  0.673600  0.852600  1
  C  C823  1  0.951500  0.826400  0.352600  1
  C  C824  1  0.451500  0.173600  0.647400  1
  C  C825  1  0.995500  0.312100  0.174400  1
  C  C826  1  0.495500  0.687900  0.825600  1
  C  C827  1  0.995500  0.812100  0.325600  1
  C  C828  1  0.495500  0.187900  0.674400  1
  C  C829  1  0.980200  0.314400  0.210100  1
  C  C830  1  0.480200  0.685600  0.789900  1
  C  C831  1  0.980200  0.814400  0.289900  1
  C  C832  1  0.480200  0.185600  0.710100  1
  C  C833  1  0.922900  0.332600  0.220900  1
  C  C834  1  0.422900  0.667400  0.779100  1
  C  C835  1  0.922900  0.832600  0.279100  1
  C  C836  1  0.422900  0.167400  0.720900  1
  C  C837  1  0.028100  0.295400  0.237500  1
  C  C838  1  0.528100  0.704600  0.762500  1
  C  C839  1  0.028100  0.795400  0.262500  1
  C  C840  1  0.528100  0.204600  0.737500  1
  C  C841  1  0.043200  0.313400  0.299000  1
  C  C842  1  0.543200  0.686600  0.701000  1
  C  C843  1  0.043200  0.813400  0.201000  1
  C  C844  1  0.543200  0.186600  0.799000  1
  C  C845  1  0.101500  0.324400  0.279000  1
  C  C846  1  0.601500  0.675600  0.721000  1
  C  C847  1  0.101500  0.824400  0.221000  1
  C  C848  1  0.601500  0.175600  0.779000  1
  C  C849  1  0.093000  0.315900  0.243500  1
  C  C850  1  0.593000  0.684100  0.756500  1
  C  C851  1  0.093000  0.815900  0.256500  1
  C  C852  1  0.593000  0.184100  0.743500  1
  C  C853  1  0.142100  0.329000  0.217100  1
  C  C854  1  0.642100  0.671000  0.782900  1
  C  C855  1  0.142100  0.829000  0.282900  1
  C  C856  1  0.642100  0.171000  0.717100  1
  C  C857  1  0.197600  0.345500  0.231000  1
  C  C858  1  0.697600  0.654500  0.769000  1
  C  C859  1  0.197600  0.845500  0.269000  1
  C  C860  1  0.697600  0.154500  0.731000  1
  C  C861  1  0.206900  0.351100  0.268400  1
  C  C862  1  0.706900  0.648900  0.731600  1
  C  C863  1  0.206900  0.851100  0.231600  1
  C  C864  1  0.706900  0.148900  0.768400  1
  C  C865  1  0.160500  0.342200  0.293900  1
  C  C866  1  0.660500  0.657800  0.706100  1
  C  C867  1  0.160500  0.842200  0.206100  1
  C  C868  1  0.660500  0.157800  0.793900  1
  C  C869  1  0.036100  0.250500  0.229700  1
  C  C870  1  0.536100  0.749500  0.770300  1
  C  C871  1  0.036100  0.750500  0.270300  1
  C  C872  1  0.536100  0.249500  0.729700  1
  C  C873  1  0.094800  0.237000  0.213100  1
  C  C874  1  0.594800  0.763000  0.786900  1
  C  C875  1  0.094800  0.737000  0.286900  1
  C  C876  1  0.594800  0.263000  0.713100  1
  C  C877  1  0.097800  0.196400  0.202300  1
  C  C878  1  0.597800  0.803600  0.797700  1
  C  C879  1  0.097800  0.696400  0.297700  1
  C  C880  1  0.597800  0.303600  0.702300  1
  C  C881  1  0.045400  0.171300  0.208500  1
  C  C882  1  0.545400  0.828700  0.791500  1
  C  C883  1  0.045400  0.671300  0.291500  1
  C  C884  1  0.545400  0.328700  0.708500  1
  C  C885  1  0.988600  0.185800  0.226900  1
  C  C886  1  0.488600  0.814200  0.773100  1
  C  C887  1  0.988600  0.685800  0.273100  1
  C  C888  1  0.488600  0.314200  0.726900  1
  C  C889  1  0.983300  0.225700  0.237100  1
  C  C890  1  0.483300  0.774300  0.762900  1
  C  C891  1  0.983300  0.725700  0.262900  1
  C  C892  1  0.483300  0.274300  0.737100  1
  C  C893  1  0.982200  0.848500  0.081600  1
  C  C894  1  0.482200  0.151500  0.918400  1
  C  C895  1  0.982200  0.348500  0.418400  1
  C  C896  1  0.482200  0.651500  0.581600  1
  C  C897  1  0.885800  0.842000  0.120800  1
  C  C898  1  0.385800  0.158000  0.879200  1
  C  C899  1  0.885800  0.342000  0.379200  1
  C  C900  1  0.385800  0.658000  0.620800  1
  C  C901  1  0.866800  0.861400  0.058900  1
  C  C902  1  0.366800  0.138600  0.941100  1
  C  C903  1  0.866800  0.361400  0.441100  1
  C  C904  1  0.366800  0.638600  0.558900  1
  C  C905  1  0.879100  0.894200  0.031600  1
  C  C906  1  0.379100  0.105800  0.968400  1
  C  C907  1  0.879100  0.394200  0.468400  1
  C  C908  1  0.379100  0.605800  0.531600  1
  C  C909  1  0.799900  0.946100  0.061700  1
  C  C910  1  0.299900  0.053900  0.938300  1
  C  C911  1  0.799900  0.446100  0.438300  1
  C  C912  1  0.299900  0.553900  0.561700  1
  C  C913  1  0.897600  0.963200  0.029900  1
  C  C914  1  0.397600  0.036800  0.970100  1
  C  C915  1  0.897600  0.463200  0.470100  1
  C  C916  1  0.397600  0.536800  0.529900  1
  C  C917  1  0.193400  0.244600  0.993200  1
  C  C918  1  0.693400  0.755400  0.006800  1
  C  C919  1  0.193400  0.744600  0.506800  1
  C  C920  1  0.693400  0.255400  0.493200  1
  C  C921  1  0.135000  0.303000  0.019700  1
  C  C922  1  0.635000  0.697000  0.980300  1
  C  C923  1  0.135000  0.803000  0.480300  1
  C  C924  1  0.635000  0.197000  0.519700  1
  C  C925  1  0.245600  0.311000  0.004800  1
  C  C926  1  0.745600  0.689000  0.995200  1
  C  C927  1  0.245600  0.811000  0.495200  1
  C  C928  1  0.745600  0.189000  0.504800  1
  C  C929  1  0.312600  0.302700  0.015300  1
  C  C930  1  0.812600  0.697300  0.984700  1
  C  C931  1  0.312600  0.802700  0.484700  1
  C  C932  1  0.812600  0.197300  0.515300  1
  C  C933  1  0.331300  0.327200  0.076900  1
  C  C934  1  0.831300  0.672800  0.923100  1
  C  C935  1  0.331300  0.827200  0.423100  1
  C  C936  1  0.831300  0.172800  0.576900  1
  C  C937  1  0.378000  0.263800  0.059600  1
  C  C938  1  0.878000  0.736200  0.940400  1
  C  C939  1  0.378000  0.763800  0.440400  1
  C  C940  1  0.878000  0.236200  0.559600  1
  C  C941  1  0.914500  0.870000  0.452200  1
  C  C942  1  0.414500  0.130000  0.547800  1
  C  C943  1  0.914500  0.370000  0.047800  1
  C  C944  1  0.414500  0.630000  0.952200  1
  C  C945  1  0.016800  0.883300  0.483300  1
  C  C946  1  0.516800  0.116700  0.516700  1
  C  C947  1  0.016800  0.383300  0.016700  1
  C  C948  1  0.516800  0.616700  0.983300  1
  C  C949  1  0.908600  0.895700  0.510300  1
  C  C950  1  0.408600  0.104300  0.489700  1
  C  C951  1  0.908600  0.395700  0.989700  1
  C  C952  1  0.408600  0.604300  0.010300  1
  C  C953  1  0.891200  0.933200  0.529300  1
  C  C954  1  0.391200  0.066800  0.470700  1
  C  C955  1  0.891200  0.433200  0.970700  1
  C  C956  1  0.391200  0.566800  0.029300  1
  C  C957  1  0.929000  0.001900  0.526400  1
  C  C958  1  0.429000  0.998100  0.473600  1
  C  C959  1  0.929000  0.501900  0.973600  1
  C  C960  1  0.429000  0.498100  0.026400  1
  C  C961  1  0.823700  0.980400  0.498400  1
  C  C962  1  0.323700  0.019600  0.501600  1
  C  C963  1  0.823700  0.480400  0.001600  1
  C  C964  1  0.323700  0.519600  0.998400  1
  C  C965  1  0.353400  0.357400  0.414500  1
  C  C966  1  0.853400  0.642600  0.585500  1
  C  C967  1  0.353400  0.857400  0.085500  1
  C  C968  1  0.853400  0.142600  0.914500  1
  C  C969  1  0.397900  0.300600  0.443700  1
  C  C970  1  0.897900  0.699400  0.556300  1
  C  C971  1  0.397900  0.800600  0.056300  1
  C  C972  1  0.897900  0.199400  0.943700  1
  C  C973  1  0.335200  0.344600  0.481000  1
  C  C974  1  0.835200  0.655400  0.519000  1
  C  C975  1  0.335200  0.844600  0.019000  1
  C  C976  1  0.835200  0.155400  0.981000  1
  C  C977  1  0.265700  0.354000  0.491000  1
  C  C978  1  0.765700  0.646000  0.509000  1
  C  C979  1  0.265700  0.854000  0.009000  1
  C  C980  1  0.765700  0.146000  0.991000  1
  C  C981  1  0.215100  0.294700  0.511500  1
  C  C982  1  0.715100  0.705300  0.488500  1
  C  C983  1  0.215100  0.794700  0.988500  1
  C  C984  1  0.715100  0.205300  0.011500  1
  C  C985  1  0.152500  0.341800  0.477300  1
  C  C986  1  0.652500  0.658200  0.522700  1
  C  C987  1  0.152500  0.841800  0.022700  1
  C  C988  1  0.652500  0.158200  0.977300  1
  C  C989  1  0.798600  0.246300  0.205900  1
  C  C990  1  0.298600  0.753700  0.794100  1
  C  C991  1  0.798600  0.746300  0.294100  1
  C  C992  1  0.298600  0.253700  0.705900  1
  C  C993  1  0.844200  0.227900  0.183400  1
  C  C994  1  0.344200  0.772100  0.816600  1
  C  C995  1  0.844200  0.727900  0.316600  1
  C  C996  1  0.344200  0.272100  0.683400  1
  C  C997  1  0.840300  0.186700  0.177200  1
  C  C998  1  0.340300  0.813300  0.822800  1
  C  C999  1  0.840300  0.686700  0.322800  1
  C  C1000  1  0.340300  0.313300  0.677200  1
  C  C1001  1  0.789700  0.166500  0.193200  1
  C  C1002  1  0.289700  0.833500  0.806800  1
  C  C1003  1  0.789700  0.666500  0.306800  1
  C  C1004  1  0.289700  0.333500  0.693200  1
  C  C1005  1  0.745400  0.186100  0.214700  1
  C  C1006  1  0.245400  0.813900  0.785300  1
  C  C1007  1  0.745400  0.686100  0.285300  1
  C  C1008  1  0.245400  0.313900  0.714700  1
  C  C1009  1  0.891500  0.166100  0.154900  1
  C  C1010  1  0.391500  0.833900  0.845100  1
  C  C1011  1  0.891500  0.666100  0.345100  1
  C  C1012  1  0.391500  0.333900  0.654900  1
  C  C1013  1  0.983300  0.167100  0.121800  1
  C  C1014  1  0.483300  0.832900  0.878200  1
  C  C1015  1  0.983300  0.667100  0.378200  1
  C  C1016  1  0.483300  0.332900  0.621800  1
  C  C1017  1  0.040700  0.191000  0.106000  1
  C  C1018  1  0.540700  0.809000  0.894000  1
  C  C1019  1  0.040700  0.691000  0.394000  1
  C  C1020  1  0.540700  0.309000  0.606000  1
  C  C1021  1  0.045100  0.232200  0.111000  1
  C  C1022  1  0.545100  0.767800  0.889000  1
  C  C1023  1  0.045100  0.732200  0.389000  1
  C  C1024  1  0.545100  0.267800  0.611000  1
  C  C1025  1  0.097500  0.252700  0.098100  1
  C  C1026  1  0.597500  0.747300  0.901900  1
  C  C1027  1  0.097500  0.752700  0.401900  1
  C  C1028  1  0.597500  0.247300  0.598100  1
  C  C1029  1  0.142000  0.194100  0.075900  1
  C  C1030  1  0.642000  0.805900  0.924100  1
  C  C1031  1  0.142000  0.694100  0.424100  1
  C  C1032  1  0.642000  0.305900  0.575900  1
  C  C1033  1  0.091900  0.172200  0.087800  1
  C  C1034  1  0.591900  0.827800  0.912200  1
  C  C1035  1  0.091900  0.672200  0.412200  1
  C  C1036  1  0.591900  0.327800  0.587800  1
  C  C1037  1  0.935400  0.109600  0.132800  1
  C  C1038  1  0.435400  0.890400  0.867200  1
  C  C1039  1  0.935400  0.609600  0.367200  1
  C  C1040  1  0.435400  0.390400  0.632800  1
  C  C1041  1  0.931800  0.065500  0.127900  1
  C  C1042  1  0.431800  0.934500  0.872100  1
  C  C1043  1  0.931800  0.565500  0.372100  1
  C  C1044  1  0.431800  0.434500  0.627900  1
  C  C1045  1  0.980700  0.045200  0.107900  1
  C  C1046  1  0.480700  0.954800  0.892100  1
  C  C1047  1  0.980700  0.545200  0.392100  1
  C  C1048  1  0.480700  0.454800  0.607900  1
  C  C1049  1  0.881000  0.043600  0.140900  1
  C  C1050  1  0.381000  0.956400  0.859100  1
  C  C1051  1  0.881000  0.543600  0.359100  1
  C  C1052  1  0.381000  0.456400  0.640900  1
  C  C1053  1  0.878100  0.002900  0.132800  1
  C  C1054  1  0.378100  0.997100  0.867200  1
  C  C1055  1  0.878100  0.502900  0.367200  1
  C  C1056  1  0.378100  0.497100  0.632800  1
  C  C1057  1  0.975100  0.005800  0.101800  1
  C  C1058  1  0.475100  0.994200  0.898200  1
  C  C1059  1  0.975100  0.505800  0.398200  1
  C  C1060  1  0.475100  0.494200  0.601800  1
  C  C1061  1  0.960600  0.932300  0.380400  1
  C  C1062  1  0.460600  0.067700  0.619600  1
  C  C1063  1  0.960600  0.432300  0.119600  1
  C  C1064  1  0.460600  0.567700  0.880400  1
  C  C1065  1  0.991100  0.929600  0.347400  1
  C  C1066  1  0.491100  0.070400  0.652600  1
  C  C1067  1  0.991100  0.429600  0.152600  1
  C  C1068  1  0.491100  0.570400  0.847400  1
  C  C1069  1  0.058700  0.947600  0.408400  1
  C  C1070  1  0.558700  0.052400  0.591600  1
  C  C1071  1  0.058700  0.447600  0.091600  1
  C  C1072  1  0.558700  0.552400  0.908400  1
  C  C1073  1  0.093400  0.945100  0.376800  1
  C  C1074  1  0.593400  0.054900  0.623200  1
  C  C1075  1  0.093400  0.445100  0.123200  1
  C  C1076  1  0.593400  0.554900  0.876800  1
  C  C1077  1  0.056800  0.936600  0.343800  1
  C  C1078  1  0.556800  0.063400  0.656200  1
  C  C1079  1  0.056800  0.436600  0.156200  1
  C  C1080  1  0.556800  0.563400  0.843800  1
  C  C1081  1  0.092000  0.935600  0.308200  1
  C  C1082  1  0.592000  0.064400  0.691800  1
  C  C1083  1  0.092000  0.435600  0.191800  1
  C  C1084  1  0.592000  0.564400  0.808200  1
  C  C1085  1  0.183600  0.944000  0.274300  1
  C  C1086  1  0.683600  0.056000  0.725700  1
  C  C1087  1  0.183600  0.444000  0.225700  1
  C  C1088  1  0.683600  0.556000  0.774300  1
  C  C1089  1  0.087000  0.930400  0.246600  1
  C  C1090  1  0.587000  0.069600  0.753400  1
  C  C1091  1  0.087000  0.430400  0.253400  1
  C  C1092  1  0.587000  0.569600  0.746600  1
  C  C1093  1  0.046600  0.924300  0.212100  1
  C  C1094  1  0.546600  0.075700  0.787900  1
  C  C1095  1  0.046600  0.424300  0.287900  1
  C  C1096  1  0.546600  0.575700  0.712100  1
  C  C1097  1  0.077300  0.926400  0.178000  1
  C  C1098  1  0.577300  0.073600  0.822000  1
  C  C1099  1  0.077300  0.426400  0.322000  1
  C  C1100  1  0.577300  0.573600  0.678000  1
  C  C1101  1  0.982500  0.918100  0.213500  1
  C  C1102  1  0.482500  0.081900  0.786500  1
  C  C1103  1  0.982500  0.418100  0.286500  1
  C  C1104  1  0.482500  0.581900  0.713500  1
  C  C1105  1  0.945300  0.914900  0.181200  1
  C  C1106  1  0.445300  0.085100  0.818800  1
  C  C1107  1  0.945300  0.414900  0.318800  1
  C  C1108  1  0.445300  0.585100  0.681200  1
  C  C1109  1  0.038900  0.922600  0.147100  1
  C  C1110  1  0.538900  0.077400  0.852900  1
  C  C1111  1  0.038900  0.422600  0.352900  1
  C  C1112  1  0.538900  0.577400  0.647100  1
  C  C1113  1  0.254600  0.951400  0.272800  1
  C  C1114  1  0.754600  0.048600  0.727200  1
  C  C1115  1  0.254600  0.451400  0.227200  1
  C  C1116  1  0.754600  0.548600  0.772800  1
  C  C1117  1  0.290700  0.960400  0.304100  1
  C  C1118  1  0.790700  0.039600  0.695900  1
  C  C1119  1  0.290700  0.460400  0.195900  1
  C  C1120  1  0.790700  0.539600  0.804100  1
  C  C1121  1  0.358200  0.968300  0.302500  1
  C  C1122  1  0.858200  0.031700  0.697500  1
  C  C1123  1  0.358200  0.468300  0.197500  1
  C  C1124  1  0.858200  0.531700  0.802500  1
  C  C1125  1  0.356500  0.957300  0.239500  1
  C  C1126  1  0.856500  0.042700  0.760500  1
  C  C1127  1  0.356500  0.457300  0.260500  1
  C  C1128  1  0.856500  0.542700  0.739500  1
  C  C1129  1  0.290700  0.950100  0.239600  1
  C  C1130  1  0.790700  0.049900  0.760400  1
  C  C1131  1  0.290700  0.450100  0.260400  1
  C  C1132  1  0.790700  0.549900  0.739600  1
  C  C1133  1  0.270300  0.287000  0.352400  1
  C  C1134  1  0.770300  0.713000  0.647600  1
  C  C1135  1  0.270300  0.787000  0.147600  1
  C  C1136  1  0.770300  0.213000  0.852400  1
  C  C1137  1  0.306900  0.234100  0.387200  1
  C  C1138  1  0.806900  0.765900  0.612800  1
  C  C1139  1  0.306900  0.734100  0.112800  1
  C  C1140  1  0.806900  0.265900  0.887200  1
  C  C1141  1  0.314800  0.211600  0.354900  1
  C  C1142  1  0.814800  0.788400  0.645100  1
  C  C1143  1  0.314800  0.711600  0.145100  1
  C  C1144  1  0.814800  0.288400  0.854900  1
  C  C1145  1  0.299900  0.227700  0.321700  1
  C  C1146  1  0.799900  0.772300  0.678300  1
  C  C1147  1  0.299900  0.727700  0.178300  1
  C  C1148  1  0.799900  0.272300  0.821700  1
  C  C1149  1  0.276900  0.267100  0.321300  1
  C  C1150  1  0.776900  0.732900  0.678700  1
  C  C1151  1  0.276900  0.767100  0.178700  1
  C  C1152  1  0.776900  0.232900  0.821300  1
  C  C1153  1  0.309700  0.204600  0.287700  1
  C  C1154  1  0.809700  0.795400  0.712300  1
  C  C1155  1  0.309700  0.704600  0.212300  1
  C  C1156  1  0.809700  0.295400  0.787700  1
  C  C1157  1  0.349800  0.150300  0.260100  1
  C  C1158  1  0.849800  0.849700  0.739900  1
  C  C1159  1  0.349800  0.650300  0.239900  1
  C  C1160  1  0.849800  0.349700  0.760100  1
  C  C1161  1  0.308700  0.200400  0.226100  1
  C  C1162  1  0.808700  0.799600  0.773900  1
  C  C1163  1  0.308700  0.700400  0.273900  1
  C  C1164  1  0.808700  0.299600  0.726100  1
  C  C1165  1  0.384900  0.110500  0.262000  1
  C  C1166  1  0.884900  0.889500  0.738000  1
  C  C1167  1  0.384900  0.610500  0.238000  1
  C  C1168  1  0.884900  0.389500  0.762000  1
  C  C1169  1  0.407800  0.095600  0.294900  1
  C  C1170  1  0.907800  0.904400  0.705100  1
  C  C1171  1  0.407800  0.595600  0.205100  1
  C  C1172  1  0.907800  0.404400  0.794900  1
  C  C1173  1  0.438900  0.058700  0.296500  1
  C  C1174  1  0.938900  0.941300  0.703500  1
  C  C1175  1  0.438900  0.558700  0.203500  1
  C  C1176  1  0.938900  0.441300  0.796500  1
  C  C1177  1  0.397700  0.089000  0.230000  1
  C  C1178  1  0.897700  0.911000  0.770000  1
  C  C1179  1  0.397700  0.589000  0.270000  1
  C  C1180  1  0.897700  0.411000  0.730000  1
  C  C1181  1  0.433900  0.053000  0.232800  1
  C  C1182  1  0.933900  0.947000  0.767200  1
  C  C1183  1  0.433900  0.553000  0.267200  1
  C  C1184  1  0.933900  0.447000  0.732800  1
  C  C1185  1  0.294200  0.217100  0.189500  1
  C  C1186  1  0.794200  0.782900  0.810500  1
  C  C1187  1  0.294200  0.717100  0.310500  1
  C  C1188  1  0.794200  0.282900  0.689500  1
  C  C1189  1  0.302100  0.192500  0.158000  1
  C  C1190  1  0.802100  0.807500  0.842000  1
  C  C1191  1  0.302100  0.692500  0.342000  1
  C  C1192  1  0.802100  0.307500  0.658000  1
  C  C1193  1  0.287300  0.209300  0.123500  1
  C  C1194  1  0.787300  0.790700  0.876500  1
  C  C1195  1  0.287300  0.709300  0.376500  1
  C  C1196  1  0.787300  0.290700  0.623500  1
  C  C1197  1  0.256100  0.268900  0.149800  1
  C  C1198  1  0.756100  0.731100  0.850200  1
  C  C1199  1  0.256100  0.768900  0.350200  1
  C  C1200  1  0.756100  0.231100  0.649800  1
  C  C1201  1  0.268900  0.254800  0.184100  1
  C  C1202  1  0.768900  0.745200  0.815900  1
  C  C1203  1  0.268900  0.754800  0.315900  1
  C  C1204  1  0.768900  0.245200  0.684100  1
  C  C1205  1  0.899700  0.026300  0.419000  1
  C  C1206  1  0.399700  0.973700  0.581000  1
  C  C1207  1  0.899700  0.526300  0.081000  1
  C  C1208  1  0.399700  0.473700  0.919000  1
  C  C1209  1  0.999000  0.036400  0.446500  1
  C  C1210  1  0.499000  0.963600  0.553500  1
  C  C1211  1  0.999000  0.536400  0.053500  1
  C  C1212  1  0.499000  0.463600  0.946500  1
  C  C1213  1  0.004600  0.073200  0.432600  1
  C  C1214  1  0.504600  0.926800  0.567400  1
  C  C1215  1  0.004600  0.573200  0.067400  1
  C  C1216  1  0.504600  0.426800  0.932600  1
  C  C1217  1  0.902800  0.065500  0.403200  1
  C  C1218  1  0.402800  0.934500  0.596800  1
  C  C1219  1  0.902800  0.565500  0.096800  1
  C  C1220  1  0.402800  0.434500  0.903200  1
  C  C1221  1  0.955700  0.088200  0.410600  1
  C  C1222  1  0.455700  0.911800  0.589400  1
  C  C1223  1  0.955700  0.588200  0.089400  1
  C  C1224  1  0.455700  0.411800  0.910600  1
  C  C1225  1  0.960000  0.130600  0.395100  1
  C  C1226  1  0.460000  0.869400  0.604900  1
  C  C1227  1  0.960000  0.630600  0.104900  1
  C  C1228  1  0.460000  0.369400  0.895100  1
  C  C1229  1  0.011500  0.189200  0.393200  1
  C  C1230  1  0.511500  0.810800  0.606800  1
  C  C1231  1  0.011500  0.689200  0.106800  1
  C  C1232  1  0.511500  0.310800  0.893200  1
  C  C1233  1  0.917600  0.180200  0.362300  1
  C  C1234  1  0.417600  0.819800  0.637700  1
  C  C1235  1  0.917600  0.680200  0.137700  1
  C  C1236  1  0.417600  0.319800  0.862300  1
  C  C1237  1  0.066800  0.215600  0.405700  1
  C  C1238  1  0.566800  0.784400  0.594300  1
  C  C1239  1  0.066800  0.715600  0.094300  1
  C  C1240  1  0.566800  0.284400  0.905700  1
  C  C1241  1  0.114600  0.202600  0.430300  1
  C  C1242  1  0.614600  0.797400  0.569700  1
  C  C1243  1  0.114600  0.702600  0.069700  1
  C  C1244  1  0.614600  0.297400  0.930300  1
  C  C1245  1  0.164000  0.227200  0.439900  1
  C  C1246  1  0.664000  0.772800  0.560100  1
  C  C1247  1  0.164000  0.727200  0.060100  1
  C  C1248  1  0.664000  0.272800  0.939900  1
  C  C1249  1  0.122800  0.277800  0.402500  1
  C  C1250  1  0.622800  0.722200  0.597500  1
  C  C1251  1  0.122800  0.777800  0.097500  1
  C  C1252  1  0.622800  0.222200  0.902500  1
  C  C1253  1  0.070900  0.254800  0.391000  1
  C  C1254  1  0.570900  0.745200  0.609000  1
  C  C1255  1  0.070900  0.754800  0.109000  1
  C  C1256  1  0.570900  0.245200  0.891000  1
  C  C1257  1  0.864100  0.197500  0.338500  1
  C  C1258  1  0.364100  0.802500  0.661500  1
  C  C1259  1  0.864100  0.697500  0.161500  1
  C  C1260  1  0.364100  0.302500  0.838500  1
  C  C1261  1  0.867700  0.236700  0.325800  1
  C  C1262  1  0.367700  0.763300  0.674200  1
  C  C1263  1  0.867700  0.736700  0.174200  1
  C  C1264  1  0.367700  0.263300  0.825800  1
  C  C1265  1  0.817300  0.252000  0.305200  1
  C  C1266  1  0.317300  0.748000  0.694800  1
  C  C1267  1  0.817300  0.752000  0.194800  1
  C  C1268  1  0.317300  0.248000  0.805200  1
  C  C1269  1  0.807300  0.174700  0.330500  1
  C  C1270  1  0.307300  0.825300  0.669500  1
  C  C1271  1  0.807300  0.674700  0.169500  1
  C  C1272  1  0.307300  0.325300  0.830500  1
  C  C1273  1  0.758200  0.191700  0.310300  1
  C  C1274  1  0.258200  0.808300  0.689700  1
  C  C1275  1  0.758200  0.691700  0.189700  1
  C  C1276  1  0.258200  0.308300  0.810300  1
  C  C1277  1  0.599500  0.237700  0.200800  1
  C  C1278  1  0.099500  0.762300  0.799200  1
  C  C1279  1  0.599500  0.737700  0.299200  1
  C  C1280  1  0.099500  0.262300  0.700800  1
  C  C1281  1  0.644800  0.303300  0.202900  1
  C  C1282  1  0.144800  0.696700  0.797100  1
  C  C1283  1  0.644800  0.803300  0.297100  1
  C  C1284  1  0.144800  0.196700  0.702900  1
  C  C1285  1  0.564800  0.281200  0.249400  1
  C  C1286  1  0.064800  0.718800  0.750600  1
  C  C1287  1  0.564800  0.781200  0.250600  1
  C  C1288  1  0.064800  0.218800  0.749400  1
  C  C1289  1  0.587100  0.301000  0.283600  1
  C  C1290  1  0.087100  0.699000  0.716400  1
  C  C1291  1  0.587100  0.801000  0.216400  1
  C  C1292  1  0.087100  0.199000  0.783600  1
  C  C1293  1  0.672900  0.303900  0.326600  1
  C  C1294  1  0.172900  0.696100  0.673400  1
  C  C1295  1  0.672900  0.803900  0.173400  1
  C  C1296  1  0.172900  0.196100  0.826600  1
  C  C1297  1  0.608200  0.244700  0.325800  1
  C  C1298  1  0.108200  0.755300  0.674200  1
  C  C1299  1  0.608200  0.744700  0.174200  1
  C  C1300  1  0.108200  0.255300  0.825800  1
  C  C1301  1  0.502000  0.906300  0.310100  1
  C  C1302  1  0.002000  0.093700  0.689900  1
  C  C1303  1  0.502000  0.406300  0.189900  1
  C  C1304  1  0.002000  0.593700  0.810100  1
  C  C1305  1  0.486000  0.896300  0.247900  1
  C  C1306  1  0.986000  0.103700  0.752100  1
  C  C1307  1  0.486000  0.396300  0.252100  1
  C  C1308  1  0.986000  0.603700  0.747900  1
  C  C1309  1  0.592000  0.924200  0.265600  1
  C  C1310  1  0.092000  0.075800  0.734400  1
  C  C1311  1  0.592000  0.424200  0.234400  1
  C  C1312  1  0.092000  0.575800  0.765600  1
  C  C1313  1  0.625200  0.963100  0.272400  1
  C  C1314  1  0.125200  0.036900  0.727600  1
  C  C1315  1  0.625200  0.463100  0.227600  1
  C  C1316  1  0.125200  0.536900  0.772400  1
  C  C1317  1  0.606600  0.023900  0.296700  1
  C  C1318  1  0.106600  0.976100  0.703300  1
  C  C1319  1  0.606600  0.523900  0.203300  1
  C  C1320  1  0.106600  0.476100  0.796700  1
  C  C1321  1  0.596300  0.016000  0.230400  1
  C  C1322  1  0.096300  0.984000  0.769600  1
  C  C1323  1  0.596300  0.516000  0.269600  1
  C  C1324  1  0.096300  0.484000  0.730400  1
  C  C1325  1  0.983600  0.064200  0.293500  1
  C  C1326  1  0.483600  0.935800  0.706500  1
  C  C1327  1  0.983600  0.564200  0.206500  1
  C  C1328  1  0.483600  0.435800  0.793500  1
  C  C1329  1  0.959800  0.089500  0.266800  1
  C  C1330  1  0.459800  0.910500  0.733200  1
  C  C1331  1  0.959800  0.589500  0.233200  1
  C  C1332  1  0.459800  0.410500  0.766800  1
  C  C1333  1  0.892600  0.097700  0.264200  1
  C  C1334  1  0.392600  0.902300  0.735800  1
  C  C1335  1  0.892600  0.597700  0.235800  1
  C  C1336  1  0.392600  0.402300  0.764200  1
  C  C1337  1  0.850100  0.080100  0.289400  1
  C  C1338  1  0.350100  0.919900  0.710600  1
  C  C1339  1  0.850100  0.580100  0.210600  1
  C  C1340  1  0.350100  0.419900  0.789400  1
  C  C1341  1  0.873000  0.054000  0.315100  1
  C  C1342  1  0.373000  0.946000  0.684900  1
  C  C1343  1  0.873000  0.554000  0.184900  1
  C  C1344  1  0.373000  0.446000  0.815100  1
  C  C1345  1  0.940900  0.046200  0.317500  1
  C  C1346  1  0.440900  0.953800  0.682500  1
  C  C1347  1  0.940900  0.546200  0.182500  1
  C  C1348  1  0.440900  0.453800  0.817500  1
  N  N1349  1  0.197400  0.280100  0.017500  1
  N  N1350  1  0.697400  0.719900  0.982500  1
  N  N1351  1  0.197400  0.780100  0.482500  1
  N  N1352  1  0.697400  0.219900  0.517500  1
  N  N1353  1  0.319200  0.291800  0.054900  1
  N  N1354  1  0.819200  0.708200  0.945100  1
  N  N1355  1  0.319200  0.791800  0.445100  1
  N  N1356  1  0.819200  0.208200  0.554900  1
  N  N1357  1  0.948400  0.897500  0.477500  1
  N  N1358  1  0.448400  0.102500  0.522500  1
  N  N1359  1  0.948400  0.397500  0.022500  1
  N  N1360  1  0.448400  0.602500  0.977500  1
  N  N1361  1  0.896700  0.969000  0.506200  1
  N  N1362  1  0.396700  0.031000  0.493800  1
  N  N1363  1  0.896700  0.469000  0.993800  1
  N  N1364  1  0.396700  0.531000  0.006200  1
  N  N1365  1  0.748600  0.225000  0.221600  1
  N  N1366  1  0.248600  0.775000  0.778400  1
  N  N1367  1  0.748600  0.725000  0.278400  1
  N  N1368  1  0.248600  0.275000  0.721600  1
  N  N1369  1  0.451300  0.038400  0.264600  1
  N  N1370  1  0.951300  0.961600  0.735400  1
  N  N1371  1  0.451300  0.538400  0.235400  1
  N  N1372  1  0.951300  0.461600  0.764600  1
  N  N1373  1  0.521700  0.924000  0.274700  1
  N  N1374  1  0.021700  0.076000  0.725300  1
  N  N1375  1  0.521700  0.424000  0.225300  1
  N  N1376  1  0.021700  0.576000  0.774700  1
  N  N1377  1  0.583100  0.998100  0.266900  1
  N  N1378  1  0.083100  0.001900  0.733100  1
  N  N1379  1  0.583100  0.498100  0.233100  1
  N  N1380  1  0.083100  0.501900  0.766900  1
  N  N1381  1  0.914500  0.864700  0.089900  1
  N  N1382  1  0.414500  0.135300  0.910100  1
  N  N1383  1  0.914500  0.364700  0.410100  1
  N  N1384  1  0.414500  0.635300  0.589900  1
  N  N1385  1  0.868500  0.933500  0.054000  1
  N  N1386  1  0.368500  0.066500  0.946000  1
  N  N1387  1  0.868500  0.433500  0.446000  1
  N  N1388  1  0.368500  0.566500  0.554000  1
  N  N1389  1  0.621900  0.269100  0.225500  1
  N  N1390  1  0.121900  0.730900  0.774500  1
  N  N1391  1  0.621900  0.769100  0.274500  1
  N  N1392  1  0.121900  0.230900  0.725500  1
  N  N1393  1  0.635300  0.275500  0.302800  1
  N  N1394  1  0.135300  0.724500  0.697200  1
  N  N1395  1  0.635300  0.775500  0.197200  1
  N  N1396  1  0.135300  0.224500  0.802800  1
  N  N1397  1  0.339900  0.327600  0.443600  1
  N  N1398  1  0.839900  0.672400  0.556400  1
  N  N1399  1  0.339900  0.827600  0.056400  1
  N  N1400  1  0.839900  0.172400  0.943600  1
  N  N1401  1  0.220400  0.323400  0.482000  1
  N  N1402  1  0.720400  0.676600  0.518000  1
  N  N1403  1  0.220400  0.823400  0.018000  1
  N  N1404  1  0.720400  0.176600  0.982000  1
  N  N1405  1  0.938400  0.188800  0.139700  1
  N  N1406  1  0.438400  0.811200  0.860300  1
  N  N1407  1  0.938400  0.688800  0.360300  1
  N  N1408  1  0.438400  0.311200  0.639700  1
  N  N1409  1  0.985300  0.128900  0.117400  1
  N  N1410  1  0.485300  0.871100  0.882600  1
  N  N1411  1  0.985300  0.628900  0.382600  1
  N  N1412  1  0.485300  0.371100  0.617400  1
  N  N1413  1  0.888100  0.126400  0.153200  1
  N  N1414  1  0.388100  0.873600  0.846800  1
  N  N1415  1  0.888100  0.626400  0.346800  1
  N  N1416  1  0.388100  0.373600  0.653200  1
  N  N1417  1  0.923800  0.984300  0.112600  1
  N  N1418  1  0.423800  0.015700  0.887400  1
  N  N1419  1  0.923800  0.484300  0.387400  1
  N  N1420  1  0.423800  0.515700  0.612600  1
  N  N1421  1  0.148800  0.234200  0.081600  1
  N  N1422  1  0.648800  0.765800  0.918400  1
  N  N1423  1  0.148800  0.734200  0.418400  1
  N  N1424  1  0.648800  0.265800  0.581600  1
  N  N1425  1  0.996000  0.941700  0.411600  1
  N  N1426  1  0.496000  0.058300  0.588400  1
  N  N1427  1  0.996000  0.441700  0.088400  1
  N  N1428  1  0.496000  0.558300  0.911600  1
  N  N1429  1  0.053900  0.928700  0.278400  1
  N  N1430  1  0.553900  0.071300  0.721600  1
  N  N1431  1  0.053900  0.428700  0.221600  1
  N  N1432  1  0.553900  0.571300  0.778400  1
  N  N1433  1  0.155500  0.943000  0.307600  1
  N  N1434  1  0.655500  0.057000  0.692400  1
  N  N1435  1  0.155500  0.443000  0.192400  1
  N  N1436  1  0.655500  0.557000  0.807600  1
  N  N1437  1  0.149400  0.938300  0.242600  1
  N  N1438  1  0.649400  0.061700  0.757400  1
  N  N1439  1  0.149400  0.438300  0.257400  1
  N  N1440  1  0.649400  0.561700  0.742600  1
  N  N1441  1  0.390600  0.965200  0.270100  1
  N  N1442  1  0.890600  0.034800  0.729900  1
  N  N1443  1  0.390600  0.465200  0.229900  1
  N  N1444  1  0.890600  0.534800  0.770100  1
  N  N1445  1  0.973600  0.917900  0.148700  1
  N  N1446  1  0.473600  0.082100  0.851300  1
  N  N1447  1  0.973600  0.417900  0.351300  1
  N  N1448  1  0.473600  0.582100  0.648700  1
  N  N1449  1  0.284300  0.271000  0.386100  1
  N  N1450  1  0.784300  0.729000  0.613900  1
  N  N1451  1  0.284300  0.771000  0.113900  1
  N  N1452  1  0.784300  0.229000  0.886100  1
  N  N1453  1  0.338500  0.168800  0.290300  1
  N  N1454  1  0.838500  0.831200  0.709700  1
  N  N1455  1  0.338500  0.668800  0.209700  1
  N  N1456  1  0.838500  0.331200  0.790300  1
  N  N1457  1  0.339000  0.164600  0.226700  1
  N  N1458  1  0.839000  0.835400  0.773300  1
  N  N1459  1  0.339000  0.664600  0.273300  1
  N  N1460  1  0.839000  0.335400  0.726700  1
  N  N1461  1  0.295700  0.222300  0.255100  1
  N  N1462  1  0.795700  0.777700  0.744900  1
  N  N1463  1  0.295700  0.722300  0.244900  1
  N  N1464  1  0.795700  0.277700  0.755100  1
  N  N1465  1  0.263700  0.245100  0.119300  1
  N  N1466  1  0.763700  0.754900  0.880700  1
  N  N1467  1  0.263700  0.745100  0.380700  1
  N  N1468  1  0.763700  0.254900  0.619300  1
  N  N1469  1  0.945200  0.012900  0.440000  1
  N  N1470  1  0.445200  0.987100  0.560000  1
  N  N1471  1  0.945200  0.512900  0.060000  1
  N  N1472  1  0.445200  0.487100  0.940000  1
  N  N1473  1  0.011200  0.151600  0.406100  1
  N  N1474  1  0.511200  0.848400  0.593900  1
  N  N1475  1  0.011200  0.651600  0.093900  1
  N  N1476  1  0.511200  0.348400  0.906100  1
  N  N1477  1  0.966600  0.204800  0.371100  1
  N  N1478  1  0.466600  0.795200  0.628900  1
  N  N1479  1  0.966600  0.704800  0.128900  1
  N  N1480  1  0.466600  0.295200  0.871100  1
  N  N1481  1  0.912300  0.142900  0.373400  1
  N  N1482  1  0.412300  0.857100  0.626600  1
  N  N1483  1  0.912300  0.642900  0.126600  1
  N  N1484  1  0.412300  0.357100  0.873400  1
  N  N1485  1  0.764100  0.230300  0.297000  1
  N  N1486  1  0.264100  0.769700  0.703000  1
  N  N1487  1  0.764100  0.730300  0.203000  1
  N  N1488  1  0.264100  0.269700  0.797000  1
  N  N1489  1  0.169200  0.265000  0.425600  1
  N  N1490  1  0.669200  0.735000  0.574400  1
  N  N1491  1  0.169200  0.765000  0.074400  1
  N  N1492  1  0.669200  0.235000  0.925600  1
  N  N1493  1  0.394400  0.272900  0.944600  1
  N  N1494  1  0.894400  0.727100  0.055400  1
  N  N1495  1  0.394400  0.772900  0.555400  1
  N  N1496  1  0.894400  0.227100  0.444600  1
  N  N1497  1  0.202700  0.396800  0.382600  1
  N  N1498  1  0.702700  0.603200  0.617400  1
  N  N1499  1  0.202700  0.896800  0.117400  1
  N  N1500  1  0.702700  0.103200  0.882600  1
  N  N1501  1  0.177000  0.115900  0.154000  1
  N  N1502  1  0.677000  0.884100  0.846000  1
  N  N1503  1  0.177000  0.615900  0.346000  1
  N  N1504  1  0.677000  0.384100  0.654000  1
  N  N1505  1  0.157500  0.360900  0.103600  1
  N  N1506  1  0.657500  0.639100  0.896400  1
  N  N1507  1  0.157500  0.860900  0.396400  1
  N  N1508  1  0.657500  0.139100  0.603600  1
  N  N1509  1  0.768200  0.359500  0.268300  1
  N  N1510  1  0.268200  0.640500  0.731700  1
  N  N1511  1  0.768200  0.859500  0.231700  1
  N  N1512  1  0.268200  0.140500  0.768300  1
  N  N1513  1  0.950700  0.232300  0.042000  1
  N  N1514  1  0.450700  0.767700  0.958000  1
  N  N1515  1  0.950700  0.732300  0.458000  1
  N  N1516  1  0.450700  0.267700  0.542000  1
  N  N1517  1  0.289900  0.266000  0.913800  1
  N  N1518  1  0.789900  0.734000  0.086200  1
  N  N1519  1  0.289900  0.766000  0.586200  1
  N  N1520  1  0.789900  0.234000  0.413800  1
  O  O1521  1  0.206400  0.014600  0.171600  1
  O  O1522  1  0.706400  0.985400  0.828400  1
  O  O1523  1  0.206400  0.514600  0.328400  1
  O  O1524  1  0.706400  0.485400  0.671600  1
  O  O1525  1  0.798100  0.037600  0.293000  1
  O  O1526  1  0.298100  0.962400  0.707000  1
  O  O1527  1  0.798100  0.537600  0.207000  1
  O  O1528  1  0.298100  0.462400  0.793000  1
  O  O1529  1  0.088200  0.035100  0.330800  1
  O  O1530  1  0.588200  0.964900  0.669200  1
  O  O1531  1  0.088200  0.535100  0.169200  1
  O  O1532  1  0.588200  0.464900  0.830800  1
  O  O1533  1  0.141200  0.038400  0.384200  1
  O  O1534  1  0.641200  0.961600  0.615800  1
  O  O1535  1  0.141200  0.538400  0.115800  1
  O  O1536  1  0.641200  0.461600  0.884200  1
  O  O1537  1  0.027500  0.317200  0.331800  1
  O  O1538  1  0.527500  0.682800  0.668200  1
  O  O1539  1  0.027500  0.817200  0.168200  1
  O  O1540  1  0.527500  0.182800  0.831800  1
  O  O1541  1  0.999400  0.298000  0.274800  1
  O  O1542  1  0.499400  0.702000  0.725200  1
  O  O1543  1  0.999400  0.798000  0.225200  1
  O  O1544  1  0.499400  0.202000  0.774800  1
  O  O1545  1  0.848600  0.356100  0.131800  1
  O  O1546  1  0.348600  0.643900  0.868200  1
  O  O1547  1  0.848600  0.856100  0.368200  1
  O  O1548  1  0.348600  0.143900  0.631800  1
  O  O1549  1  0.045100  0.132100  0.199100  1
  O  O1550  1  0.545100  0.867900  0.800900  1
  O  O1551  1  0.045100  0.632100  0.300900  1
  O  O1552  1  0.545100  0.367900  0.699100  1
  O  O1553  1  0.588700  0.258300  0.100000  1
  O  O1554  1  0.088700  0.741700  0.900000  1
  O  O1555  1  0.588700  0.758300  0.400000  1
  O  O1556  1  0.088700  0.241700  0.600000  1
  O  O1557  1  0.379800  0.235700  0.942400  1
  O  O1558  1  0.879800  0.764300  0.057600  1
  O  O1559  1  0.379800  0.735700  0.557600  1
  O  O1560  1  0.879800  0.264300  0.442400  1
  O  O1561  1  0.444300  0.283900  0.959000  1
  O  O1562  1  0.944300  0.716100  0.041000  1
  O  O1563  1  0.444300  0.783900  0.541000  1
  O  O1564  1  0.944300  0.216100  0.459000  1
  O  O1565  1  0.352900  0.295900  0.929400  1
  O  O1566  1  0.852900  0.704100  0.070600  1
  O  O1567  1  0.352900  0.795900  0.570600  1
  O  O1568  1  0.852900  0.204100  0.429400  1
  O  O1569  1  0.252000  0.247400  0.900000  1
  O  O1570  1  0.752000  0.752600  0.100000  1
  O  O1571  1  0.252000  0.747400  0.600000  1
  O  O1572  1  0.752000  0.252600  0.400000  1
  O  O1573  1  0.698000  0.891600  0.121200  1
  O  O1574  1  0.198000  0.108400  0.878800  1
  O  O1575  1  0.698000  0.391600  0.378800  1
  O  O1576  1  0.198000  0.608400  0.621200  1
  O  O1577  1  0.791000  0.986100  0.215700  1
  O  O1578  1  0.291000  0.013900  0.784300  1
  O  O1579  1  0.791000  0.486100  0.284300  1
  O  O1580  1  0.291000  0.513900  0.715700  1
  O  O1581  1  0.489000  0.199000  0.111500  1
  O  O1582  1  0.989000  0.801000  0.888500  1
  O  O1583  1  0.489000  0.699000  0.388500  1
  O  O1584  1  0.989000  0.301000  0.611500  1
  O  O1585  1  0.704700  0.233300  0.126700  1
  O  O1586  1  0.204700  0.766700  0.873300  1
  O  O1587  1  0.704700  0.733300  0.373300  1
  O  O1588  1  0.204700  0.266700  0.626700  1
  O  O1589  1  0.797000  0.176900  0.092700  1
  O  O1590  1  0.297000  0.823100  0.907300  1
  O  O1591  1  0.797000  0.676900  0.407300  1
  O  O1592  1  0.297000  0.323100  0.592700  1
  O  O1593  1  0.236400  0.403500  0.354700  1
  O  O1594  1  0.736400  0.596500  0.645300  1
  O  O1595  1  0.236400  0.903500  0.145300  1
  O  O1596  1  0.736400  0.096500  0.854700  1
  O  O1597  1  0.179700  0.366600  0.385200  1
  O  O1598  1  0.679700  0.633400  0.614800  1
  O  O1599  1  0.179700  0.866600  0.114800  1
  O  O1600  1  0.679700  0.133400  0.885200  1
  O  O1601  1  0.203200  0.422800  0.409100  1
  O  O1602  1  0.703200  0.577200  0.590900  1
  O  O1603  1  0.203200  0.922800  0.090900  1
  O  O1604  1  0.703200  0.077200  0.909100  1
  O  O1605  1  0.206000  0.123000  0.183600  1
  O  O1606  1  0.706000  0.877000  0.816400  1
  O  O1607  1  0.206000  0.623000  0.316400  1
  O  O1608  1  0.706000  0.377000  0.683600  1
  O  O1609  1  0.126000  0.109200  0.153300  1
  O  O1610  1  0.626000  0.890800  0.846700  1
  O  O1611  1  0.126000  0.609200  0.346700  1
  O  O1612  1  0.626000  0.390800  0.653300  1
  O  O1613  1  0.223000  0.108500  0.122700  1
  O  O1614  1  0.723000  0.891500  0.877300  1
  O  O1615  1  0.223000  0.608500  0.377300  1
  O  O1616  1  0.723000  0.391500  0.622700  1
  O  O1617  1  0.094900  0.350300  0.099900  1
  O  O1618  1  0.594900  0.649700  0.900100  1
  O  O1619  1  0.094900  0.850300  0.400100  1
  O  O1620  1  0.594900  0.149700  0.599900  1
  O  O1621  1  0.189000  0.357500  0.129500  1
  O  O1622  1  0.689000  0.642500  0.870500  1
  O  O1623  1  0.189000  0.857500  0.370500  1
  O  O1624  1  0.689000  0.142500  0.629500  1
  O  O1625  1  0.177200  0.378100  0.078600  1
  O  O1626  1  0.677200  0.621900  0.921400  1
  O  O1627  1  0.177200  0.878100  0.421400  1
  O  O1628  1  0.677200  0.121900  0.578600  1
  O  O1629  1  0.720800  0.383000  0.267100  1
  O  O1630  1  0.220800  0.617000  0.732900  1
  O  O1631  1  0.720800  0.883000  0.232900  1
  O  O1632  1  0.220800  0.117000  0.767100  1
  O  O1633  1  0.762400  0.327200  0.254200  1
  O  O1634  1  0.262400  0.672800  0.745800  1
  O  O1635  1  0.762400  0.827200  0.245800  1
  O  O1636  1  0.262400  0.172800  0.754200  1
  O  O1637  1  0.810800  0.357500  0.294500  1
  O  O1638  1  0.310800  0.642500  0.705500  1
  O  O1639  1  0.810800  0.857500  0.205500  1
  O  O1640  1  0.310800  0.142500  0.794500  1
  O  O1641  1  0.617700  0.148600  0.269000  1
  O  O1642  1  0.117700  0.851400  0.731000  1
  O  O1643  1  0.617700  0.648600  0.231000  1
  O  O1644  1  0.117700  0.351400  0.769000  1
  O  O1645  1  0.106000  0.977700  0.499700  1
  O  O1646  1  0.606000  0.022300  0.500300  1
  O  O1647  1  0.106000  0.477700  0.000300  1
  O  O1648  1  0.606000  0.522300  0.999700  1
  O  O1649  1  0.404000  0.922100  0.398700  1
  O  O1650  1  0.904000  0.077900  0.601300  1
  O  O1651  1  0.404000  0.422100  0.101300  1
  O  O1652  1  0.904000  0.577900  0.898700  1
  O  O1653  1  0.929000  0.264300  0.054200  1
  O  O1654  1  0.429000  0.735700  0.945800  1
  O  O1655  1  0.929000  0.764300  0.445800  1
  O  O1656  1  0.429000  0.235700  0.554200  1
  O  O1657  1  0.921200  0.200900  0.048500  1
  O  O1658  1  0.421200  0.799100  0.951500  1
  O  O1659  1  0.921200  0.700900  0.451500  1
  O  O1660  1  0.421200  0.299100  0.548500  1
  O  O1661  1  0.002000  0.232700  0.021800  1
  O  O1662  1  0.502000  0.767300  0.978200  1
  O  O1663  1  0.002000  0.732700  0.478200  1
  O  O1664  1  0.502000  0.267300  0.521800  1
  O  O1665  1  0.873000  0.226900  0.067400  1
  O  O1666  1  0.373000  0.773100  0.932600  1
  O  O1667  1  0.873000  0.726900  0.432600  1
  O  O1668  1  0.373000  0.273100  0.567400  1
  O  O1669  1  0.125000  0.348000  0.909000  1
  O  O1670  1  0.625000  0.652000  0.091000  1
  O  O1671  1  0.125000  0.848000  0.591000  1
  O  O1672  1  0.625000  0.152000  0.409000  1
  O  O1673  1  0.150000  0.308900  0.905200  1
  O  O1674  1  0.650000  0.691100  0.094800  1
  O  O1675  1  0.150000  0.808900  0.594800  1
  O  O1676  1  0.650000  0.191100  0.405200  1
  O  O1677  1  0.152000  0.372100  0.947300  1
  O  O1678  1  0.652000  0.627900  0.052700  1
  O  O1679  1  0.152000  0.872100  0.552700  1
  O  O1680  1  0.652000  0.127900  0.447300  1
  O  O1681  1  0.412600  0.306900  0.215700  1
  O  O1682  1  0.912600  0.693100  0.784300  1
  O  O1683  1  0.412600  0.806900  0.284300  1
  O  O1684  1  0.912600  0.193100  0.715700  1
  O  O1685  1  0.370000  0.334800  0.199100  1
  O  O1686  1  0.870000  0.665200  0.800900  1
  O  O1687  1  0.370000  0.834800  0.300900  1
  O  O1688  1  0.870000  0.165200  0.699100  1
  O  O1689  1  0.441100  0.274800  0.355400  1
  O  O1690  1  0.941100  0.725200  0.644600  1
  O  O1691  1  0.441100  0.774800  0.144600  1
  O  O1692  1  0.941100  0.225200  0.855400  1
  O  O1693  1  0.437100  0.251000  0.301900  1
  O  O1694  1  0.937100  0.749000  0.698100  1
  O  O1695  1  0.437100  0.751000  0.198100  1
  O  O1696  1  0.937100  0.249000  0.801900  1
  O  O1697  1  0.471600  0.200500  0.347800  1
  O  O1698  1  0.971600  0.799500  0.652200  1
  O  O1699  1  0.471600  0.700500  0.152200  1
  O  O1700  1  0.971600  0.299500  0.847800  1
  O  O1701  1  0.452000  0.231400  0.338100  1
  O  O1702  1  0.952000  0.768600  0.661900  1
  O  O1703  1  0.452000  0.731400  0.161900  1
  O  O1704  1  0.952000  0.268600  0.838100  1
  O  O1705  1  0.499000  0.992400  0.365800  1
  O  O1706  1  0.999000  0.007600  0.634200  1
  O  O1707  1  0.499000  0.492400  0.134200  1
  O  O1708  1  0.999000  0.507600  0.865800  1
  O  O1709  1  0.712900  0.856300  0.010300  1
  O  O1710  1  0.212900  0.143700  0.989700  1
  O  O1711  1  0.712900  0.356300  0.489700  1
  O  O1712  1  0.212900  0.643700  0.510300  1
  O  O1713  1  0.953000  0.325400  0.525800  1
  O  O1714  1  0.453000  0.674600  0.474200  1
  O  O1715  1  0.953000  0.825400  0.974200  1
  O  O1716  1  0.453000  0.174600  0.025800  1
  O  O1717  1  0.846100  0.087800  0.496500  1
  O  O1718  1  0.346100  0.912200  0.503500  1
  O  O1719  1  0.846100  0.587800  0.003500  1
  O  O1720  1  0.346100  0.412200  0.996500  1
  O  O1721  1  0.138400  0.998100  0.109000  1
  O  O1722  1  0.638400  0.001900  0.891000  1
  O  O1723  1  0.138400  0.498100  0.391000  1
  O  O1724  1  0.638400  0.501900  0.609000  1
  O  O1725  1  0.062000  0.933300  0.049000  1
  O  O1726  1  0.562000  0.066700  0.951000  1
  O  O1727  1  0.062000  0.433300  0.451000  1
  O  O1728  1  0.562000  0.566700  0.549000  1
  O  O1729  1  0.701600  0.822600  0.079600  1
  O  O1730  1  0.201600  0.177400  0.920400  1
  O  O1731  1  0.701600  0.322600  0.420400  1
  O  O1732  1  0.201600  0.677400  0.579600  1
  O  O1733  1  0.239400  0.189800  0.538000  1
  O  O1734  1  0.739400  0.810200  0.462000  1
  O  O1735  1  0.239400  0.689800  0.962000  1
  O  O1736  1  0.739400  0.310200  0.038000  1
  O  O1737  1  0.320100  0.205700  0.477000  1
  O  O1738  1  0.820100  0.794300  0.523000  1
  O  O1739  1  0.320100  0.705700  0.023000  1
  O  O1740  1  0.820100  0.294300  0.977000  1
  O  O1741  1  0.274300  0.144600  0.433100  1
  O  O1742  1  0.774300  0.855400  0.566900  1
  O  O1743  1  0.274300  0.644600  0.066900  1
  O  O1744  1  0.774300  0.355400  0.933100  1
  O  O1745  1  0.953800  0.793700  0.522200  1
  O  O1746  1  0.453800  0.206300  0.477800  1
  O  O1747  1  0.953800  0.293700  0.977800  1
  O  O1748  1  0.453800  0.706300  0.022200  1
  O  O1749  1  0.796900  0.948200  0.406800  1
  O  O1750  1  0.296900  0.051800  0.593200  1
  O  O1751  1  0.796900  0.448200  0.093200  1
  O  O1752  1  0.296900  0.551800  0.906800  1
  O  O1753  1  0.571600  0.801600  0.076100  1
  O  O1754  1  0.071600  0.198400  0.923900  1
  O  O1755  1  0.571600  0.301600  0.423900  1
  O  O1756  1  0.071600  0.698400  0.576100  1
  O  O1757  1  0.034700  0.268100  0.492100  1
  O  O1758  1  0.534700  0.731900  0.507900  1
  O  O1759  1  0.034700  0.768100  0.007900  1
  O  O1760  1  0.534700  0.231900  0.992100  1
  O  O1761  1  0.527900  0.726900  0.083300  1
  O  O1762  1  0.027900  0.273100  0.916700  1
  O  O1763  1  0.527900  0.226900  0.416700  1
  O  O1764  1  0.027900  0.773100  0.583300  1
  O  O1765  1  0.311400  0.173000  0.038000  1
  O  O1766  1  0.811400  0.827000  0.962000  1
  O  O1767  1  0.311400  0.673000  0.462000  1
  O  O1768  1  0.811400  0.327000  0.538000  1
  O  O1769  1  0.364700  0.036700  0.375600  1
  O  O1770  1  0.864700  0.963300  0.624400  1
  O  O1771  1  0.364700  0.536700  0.124400  1
  O  O1772  1  0.864700  0.463300  0.875600  1
  O  O1773  1  0.726900  0.081900  0.357200  1
  O  O1774  1  0.226900  0.918100  0.642800  1
  O  O1775  1  0.726900  0.581900  0.142800  1
  O  O1776  1  0.226900  0.418100  0.857200  1
  O  O1777  1  0.108200  0.209500  0.529900  1
  O  O1778  1  0.608200  0.790500  0.470100  1
  O  O1779  1  0.108200  0.709500  0.970100  1
  O  O1780  1  0.608200  0.290500  0.029900  1
  O  O1781  1  0.446500  0.358300  0.992800  1
  O  O1782  1  0.946500  0.641700  0.007200  1
  O  O1783  1  0.446500  0.858300  0.507200  1
  O  O1784  1  0.946500  0.141700  0.492800  1
  O  O1785  1  0.759200  0.063000  0.215000  1
  O  O1786  1  0.259200  0.937000  0.785000  1
  O  O1787  1  0.759200  0.563000  0.285000  1
  O  O1788  1  0.259200  0.437000  0.715000  1
  O  O1789  1  0.737400  0.893900  0.455000  1
  O  O1790  1  0.237400  0.106100  0.545000  1
  O  O1791  1  0.737400  0.393900  0.045000  1
  O  O1792  1  0.237400  0.606100  0.955000  1
  O  O1793  1  0.322900  0.387600  0.146000  1
  O  O1794  1  0.822900  0.612400  0.854000  1
  O  O1795  1  0.322900  0.887600  0.354000  1
  O  O1796  1  0.822900  0.112400  0.646000  1
  O  O1797  1  0.433000  0.287000  0.152800  1
  O  O1798  1  0.933000  0.713000  0.847200  1
  O  O1799  1  0.433000  0.787000  0.347200  1
  O  O1800  1  0.933000  0.213000  0.652800  1
  O  O1801  1  0.330700  0.018900  0.164900  1
  O  O1802  1  0.830700  0.981100  0.835100  1
  O  O1803  1  0.330700  0.518900  0.335100  1
  O  O1804  1  0.830700  0.481100  0.664900  1
  O  O1805  1  0.253000  0.993900  0.403500  1
  O  O1806  1  0.753000  0.006100  0.596500  1
  O  O1807  1  0.253000  0.493900  0.096500  1
  O  O1808  1  0.753000  0.506100  0.903500  1
  O  O1809  1  0.349300  0.954200  0.131900  1
  O  O1810  1  0.849300  0.045800  0.868100  1
  O  O1811  1  0.349300  0.454200  0.368100  1
  O  O1812  1  0.849300  0.545800  0.631900  1
  O  O1813  1  0.520600  0.856300  0.125700  1
  O  O1814  1  0.020600  0.143700  0.874300  1
  O  O1815  1  0.520600  0.356300  0.374300  1
  O  O1816  1  0.020600  0.643700  0.625700  1
  O  O1817  1  0.487900  0.973600  0.177600  1
  O  O1818  1  0.987900  0.026400  0.822400  1
  O  O1819  1  0.487900  0.473600  0.322400  1
  O  O1820  1  0.987900  0.526400  0.677600  1
  O  O1821  1  0.297500  0.213000  0.598800  1
  O  O1822  1  0.797500  0.787000  0.401200  1
  O  O1823  1  0.297500  0.713000  0.901200  1
  O  O1824  1  0.797500  0.287000  0.098800  1
  O  O1825  1  0.698000  0.079800  0.166800  1
  O  O1826  1  0.198000  0.920200  0.833200  1
  O  O1827  1  0.698000  0.579800  0.333200  1
  O  O1828  1  0.198000  0.420200  0.666800  1
  O  O1829  1  0.562100  0.362200  0.017700  1
  O  O1830  1  0.062100  0.637800  0.982300  1
  O  O1831  1  0.562100  0.862200  0.482300  1
  O  O1832  1  0.062100  0.137800  0.517700  1
  O  O1833  1  0.159000  0.072400  0.078600  1
  O  O1834  1  0.659000  0.927600  0.921400  1
  O  O1835  1  0.159000  0.572400  0.421400  1
  O  O1836  1  0.659000  0.427600  0.578600  1
  O  O1837  1  0.363000  0.093100  0.133100  1
  O  O1838  1  0.863000  0.906900  0.866900  1
  O  O1839  1  0.363000  0.593100  0.366900  1
  O  O1840  1  0.863000  0.406900  0.633100  1
  O  O1841  1  0.481000  0.187300  0.262000  1
  O  O1842  1  0.981000  0.812700  0.738000  1
  O  O1843  1  0.481000  0.687300  0.238000  1
  O  O1844  1  0.981000  0.312700  0.762000  1
  O  O1845  1  0.035900  0.905200  0.978600  1
  O  O1846  1  0.535900  0.094800  0.021400  1
  O  O1847  1  0.035900  0.405200  0.521400  1
  O  O1848  1  0.535900  0.594800  0.478600  1
  O  O1849  1  0.565000  0.906000  0.170900  1
  O  O1850  1  0.065000  0.094000  0.829100  1
  O  O1851  1  0.565000  0.406000  0.329100  1
  O  O1852  1  0.065000  0.594000  0.670900  1
  O  O1853  1  0.138000  0.100700  0.018900  1
  O  O1854  1  0.638000  0.899300  0.981100  1
  O  O1855  1  0.138000  0.600700  0.481100  1
  O  O1856  1  0.638000  0.399300  0.518900  1
  O  O1857  1  0.849300  0.066500  0.043200  1
  O  O1858  1  0.349300  0.933500  0.956800  1
  O  O1859  1  0.849300  0.566500  0.456800  1
  O  O1860  1  0.349300  0.433500  0.543200  1
  O  O1861  1  0.378000  0.116300  0.388600  1
  O  O1862  1  0.878000  0.883700  0.611400  1
  O  O1863  1  0.378000  0.616300  0.111400  1
  O  O1864  1  0.878000  0.383700  0.888600  1
  O  O1865  1  0.551300  0.836600  0.006900  1
  O  O1866  1  0.051300  0.163400  0.993100  1
  O  O1867  1  0.551300  0.336600  0.493100  1
  O  O1868  1  0.051300  0.663400  0.506900  1
  O  O1869  1  0.185000  0.090500  0.461600  1
  O  O1870  1  0.685000  0.909500  0.538400  1
  O  O1871  1  0.185000  0.590500  0.038400  1
  O  O1872  1  0.685000  0.409500  0.961600  1
  O  O1873  1  0.783000  0.089100  0.286400  1
  O  O1874  1  0.283000  0.910900  0.713600  1
  O  O1875  1  0.783000  0.589100  0.213600  1
  O  O1876  1  0.283000  0.410900  0.786400  1
  O  O1877  1  0.158000  0.343200  0.137000  1
  O  O1878  1  0.658000  0.656800  0.863000  1
  O  O1879  1  0.158000  0.843200  0.363000  1
  O  O1880  1  0.658000  0.156800  0.637000  1
  O  O1881  1  0.238000  0.265300  0.895500  1
  O  O1882  1  0.738000  0.734700  0.104500  1
  O  O1883  1  0.238000  0.765300  0.604500  1
  O  O1884  1  0.738000  0.234700  0.395500  1
  O  O1885  1  0.317000  0.298400  0.920000  1
  O  O1886  1  0.817000  0.701600  0.080000  1
  O  O1887  1  0.317000  0.798400  0.580000  1
  O  O1888  1  0.817000  0.201600  0.420000  1
  O  O1889  1  0.318100  0.235100  0.923400  1
  O  O1890  1  0.818100  0.764900  0.076600  1
  O  O1891  1  0.318100  0.735100  0.576600  1
  O  O1892  1  0.818100  0.264900  0.423400  1
  O  O1893  1  0.450000  0.264000  0.960000  1
  O  O1894  1  0.950000  0.736000  0.040000  1
  O  O1895  1  0.450000  0.764000  0.540000  1
  O  O1896  1  0.950000  0.236000  0.460000  1
  O  O1897  1  0.463000  0.990200  0.373500  1
  O  O1898  1  0.963000  0.009800  0.626500  1
  O  O1899  1  0.463000  0.490200  0.126500  1
  O  O1900  1  0.963000  0.509800  0.873500  1
  O  O1901  1  0.813000  0.395700  0.265000  1
  O  O1902  1  0.313000  0.604300  0.735000  1
  O  O1903  1  0.813000  0.895700  0.235000  1
  O  O1904  1  0.313000  0.104300  0.765000  1
  O  O1905  1  0.541000  0.192000  0.096000  1
  O  O1906  1  0.041000  0.808000  0.904000  1
  O  O1907  1  0.541000  0.692000  0.404000  1
  O  O1908  1  0.041000  0.308000  0.596000  1
  O  O1909  1  0.724000  0.281000  0.134500  1
  O  O1910  1  0.224000  0.719000  0.865500  1
  O  O1911  1  0.724000  0.781000  0.365500  1
  O  O1912  1  0.224000  0.219000  0.634500  1
  O  O1913  1  0.842000  0.138700  0.071600  1
  O  O1914  1  0.342000  0.861300  0.928400  1
  O  O1915  1  0.842000  0.638700  0.428400  1
  O  O1916  1  0.342000  0.361300  0.571600  1
  O  O1917  1  0.593000  0.119000  0.220000  1
  O  O1918  1  0.093000  0.881000  0.780000  1
  O  O1919  1  0.593000  0.619000  0.280000  1
  O  O1920  1  0.093000  0.381000  0.720000  1
  O  O1921  1  0.609000  0.128000  0.254000  1
  O  O1922  1  0.109000  0.872000  0.746000  1
  O  O1923  1  0.609000  0.628000  0.246000  1
  O  O1924  1  0.109000  0.372000  0.754000  1
  O  O1925  1  0.151000  0.002000  0.471000  1
  O  O1926  1  0.651000  0.998000  0.529000  1
  O  O1927  1  0.151000  0.502000  0.029000  1
  O  O1928  1  0.651000  0.498000  0.971000  1
  O  O1929  1  0.246000  0.933600  0.453800  1
  O  O1930  1  0.746000  0.066400  0.546200  1
  O  O1931  1  0.246000  0.433600  0.046200  1
  O  O1932  1  0.746000  0.566400  0.953800  1
  O  O1933  1  0.297000  0.932600  0.434600  1
  O  O1934  1  0.797000  0.067400  0.565400  1
  O  O1935  1  0.297000  0.432600  0.065400  1
  O  O1936  1  0.797000  0.567400  0.934600  1
  O  O1937  1  0.372000  0.844200  0.211800  1
  O  O1938  1  0.872000  0.155800  0.788200  1
  O  O1939  1  0.372000  0.344200  0.288200  1
  O  O1940  1  0.872000  0.655800  0.711800  1
  O  O1941  1  0.403000  0.831000  0.197800  1
  O  O1942  1  0.903000  0.169000  0.802200  1
  O  O1943  1  0.403000  0.331000  0.302200  1
  O  O1944  1  0.903000  0.669000  0.697800  1
  O  O1945  1  0.002000  0.323000  0.539400  1
  O  O1946  1  0.502000  0.677000  0.460600  1
  O  O1947  1  0.002000  0.823000  0.960600  1
  O  O1948  1  0.502000  0.177000  0.039400  1
  O  O1949  1  0.549000  0.103000  0.404000  1
  O  O1950  1  0.049000  0.897000  0.596000  1
  O  O1951  1  0.549000  0.603000  0.096000  1
  O  O1952  1  0.049000  0.397000  0.904000  1
  O  O1953  1  0.527000  0.084000  0.379000  1
  O  O1954  1  0.027000  0.916000  0.621000  1
  O  O1955  1  0.527000  0.584000  0.121000  1
  O  O1956  1  0.027000  0.416000  0.879000  1
  O  O1957  1  0.778000  0.943000  0.293000  1
  O  O1958  1  0.278000  0.057000  0.707000  1
  O  O1959  1  0.778000  0.443000  0.207000  1
  O  O1960  1  0.278000  0.557000  0.793000  1
  O  O1961  1  0.809000  0.948000  0.326000  1
  O  O1962  1  0.309000  0.052000  0.674000  1
  O  O1963  1  0.809000  0.448000  0.174000  1
  O  O1964  1  0.309000  0.552000  0.826000  1
  O  O1965  1  0.946000  0.951000  0.929200  1
  O  O1966  1  0.446000  0.049000  0.070800  1
  O  O1967  1  0.946000  0.451000  0.570800  1
  O  O1968  1  0.446000  0.549000  0.429200  1
  O  O1969  1  0.980000  0.966000  0.938000  1
  O  O1970  1  0.480000  0.034000  0.062000  1
  O  O1971  1  0.980000  0.466000  0.562000  1
  O  O1972  1  0.480000  0.534000  0.438000  1
  O  O1973  1  0.810000  0.087400  0.482200  1
  O  O1974  1  0.310000  0.912600  0.517800  1
  O  O1975  1  0.810000  0.587400  0.017800  1
  O  O1976  1  0.310000  0.412600  0.982200  1
  O  O1977  1  0.733000  0.378500  0.161900  1
  O  O1978  1  0.233000  0.621500  0.838100  1
  O  O1979  1  0.733000  0.878500  0.338100  1
  O  O1980  1  0.233000  0.121500  0.661900  1
  O  O1981  1  0.629000  0.127200  0.349600  1
  O  O1982  1  0.129000  0.872800  0.650400  1
  O  O1983  1  0.629000  0.627200  0.150400  1
  O  O1984  1  0.129000  0.372800  0.849600  1
  O  O1985  1  0.146000  0.403000  0.562000  1
  O  O1986  1  0.646000  0.597000  0.438000  1
  O  O1987  1  0.146000  0.903000  0.938000  1
  O  O1988  1  0.646000  0.097000  0.062000  1
  O  O1989  1  0.507000  0.378800  0.088300  1
  O  O1990  1  0.007000  0.621200  0.911700  1
  O  O1991  1  0.507000  0.878800  0.411700  1
  O  O1992  1  0.007000  0.121200  0.588300  1
  O  O1993  1  0.265000  0.372700  0.924900  1
  O  O1994  1  0.765000  0.627300  0.075100  1
  O  O1995  1  0.265000  0.872700  0.575100  1
  O  O1996  1  0.765000  0.127300  0.424900  1
  O  O1997  1  0.009000  0.960000  0.869100  1
  O  O1998  1  0.509000  0.040000  0.130900  1
  O  O1999  1  0.009000  0.460000  0.630900  1
  O  O2000  1  0.509000  0.540000  0.369100  1
  O  O2001  1  0.602000  0.970000  0.375000  1
  O  O2002  1  0.102000  0.030000  0.625000  1
  O  O2003  1  0.602000  0.470000  0.125000  1
  O  O2004  1  0.102000  0.530000  0.875000  1
  O  O2005  1  0.719000  0.018100  0.407700  1
  O  O2006  1  0.219000  0.981900  0.592300  1
  O  O2007  1  0.719000  0.518100  0.092300  1
  O  O2008  1  0.219000  0.481900  0.907700  1
  O  O2009  1  0.635000  0.887000  0.373000  1
  O  O2010  1  0.135000  0.113000  0.627000  1
  O  O2011  1  0.635000  0.387000  0.127000  1
  O  O2012  1  0.135000  0.613000  0.873000  1
  O  O2013  1  0.439000  0.428000  0.507000  1
  O  O2014  1  0.939000  0.572000  0.493000  1
  O  O2015  1  0.439000  0.928000  0.993000  1
  O  O2016  1  0.939000  0.072000  0.007000  1
  O  O2017  1  0.778400  0.927400  0.159200  1
  O  O2018  1  0.278400  0.072600  0.840800  1
  O  O2019  1  0.778400  0.427400  0.340800  1
  O  O2020  1  0.278400  0.572600  0.659200  1
  O  O2021  1  0.520700  0.319400  0.134200  1
  O  O2022  1  0.020700  0.680600  0.865800  1
  O  O2023  1  0.520700  0.819400  0.365800  1
  O  O2024  1  0.020700  0.180600  0.634200  1
