
#######################################################################
#
#                 Cambridge Crystallographic Data Centre
#                                CCDC 
#
#######################################################################
#
# If this CIF has been generated from an entry in the Cambridge 
# Structural Database, then it will include bibliographic, chemical, 
# crystal, experimental, refinement or atomic coordinate data resulting 
# from the CCDC's data processing and validation procedures.
#
#######################################################################

data_YUNMIF
_chemical_name_common            
"tetrakis(mu!3$-2,4,6-tri(pyridin-4-yl)-1,3,5-triazine)-hexakis(N,N,N',N'-tetramethylethane-1,2-diamine)-hexa-palladium(ii) bis(phenolphthalein) dodecanitrate hydrate"
_chemical_formula_moiety         
'C108 H144 N36 Pd6 12+,2(C20 H14 O4),12(N1 O3 1-),49.2(H2 O1)'
_chemical_name_systematic        
"tetrakis(\m~3~-2,4,6-tri(pyridin-4-yl)-1,3,5-triazine)-hexakis(N,N,N',N'-tetramethylethane-1,2-diamine)-hexa-palladium(ii) bis(3,3-bis(4-hydroxyphenyl)-2-benzofuran-1(3H)-one) dodecanitrate hydrate"
_symmetry_cell_setting           orthorhombic
_symmetry_space_group_name_H-M   'P n a 21'
_symmetry_Int_Tables_number      33
_space_group_name_Hall           'P 2c -2n'
loop_
_symmetry_equiv_pos_site_id
_symmetry_equiv_pos_as_xyz
1 x,y,z
2 -x,-y,1/2+z
3 1/2+x,1/2-y,z
4 1/2-x,1/2+y,1/2+z
_cell_length_a                   33.477(4)
_cell_length_b                   36.360(4)
_cell_length_c                   20.252(2)
_cell_angle_alpha                90
_cell_angle_beta                 90
_cell_angle_gamma                90
_cell_volume                     24651.2
_exptl_crystal_colour            'pale yellow'
_exptl_crystal_description       plate
_cell_formula_units_Z            4
loop_
_atom_site_label
_atom_site_type_symbol
_atom_site_fract_x
_atom_site_fract_y
_atom_site_fract_z
C1 C 0.0269(7) 0.2029(8) 0.1718(18)
C2 C 0.0247(5) 0.2023(6) 0.1042(12)
H1 H 0.0164 0.1807 0.0815
C3 C 0.0349(5) 0.2343(6) 0.0693(13)
H2 H 0.0331 0.2349 0.0225
C4 C 0.0476(5) 0.2652(6) 0.1035(13)
C5 C 0.0490(6) 0.2645(7) 0.1754(14)
H3 H 0.0575 0.2858 0.1986
C6 C 0.0383(8) 0.2341(6) 0.2102(15)
H4 H 0.0385 0.2337 0.2571
O1 O 0.0146(5) 0.1716(5) 0.2064(12)
H5 H 0.0082 0.1550 0.1795
C7 C 0.0570(10) 0.3030(11) -0.0012(14)
C8 C 0.0871(8) 0.2939(11) -0.0429(16)
H6 H 0.1130 0.2895 -0.0255
C9 C 0.0810(9) 0.2909(11) -0.1100(15)
H7 H 0.1021 0.2839 -0.1386
C10 C 0.0435(10) 0.2983(12) -0.1348(12)
C11 C 0.0125(9) 0.3076(12) -0.0943(13)
H8 H -0.0129 0.3134 -0.1122
C12 C 0.0189(9) 0.3085(12) -0.0266(14)
H9 H -0.0029 0.3130 0.0025
O2 O 0.0376(12) 0.2930(14) -0.2019(11)
H10 H 0.0141 0.2989 -0.2119
C13 C 0.0622(6) 0.3010(6) 0.0681(12)
C14 C 0.0579(11) 0.3579(6) 0.1223(14)
C15 C 0.0976(6) 0.3463(4) 0.1251(10)
C16 C 0.1016(5) 0.3128(4) 0.0945(9)
C17 C 0.1373(5) 0.2948(4) 0.0985(9)
H11 H 0.1399 0.2707 0.0812
C18 C 0.1687(6) 0.3114(5) 0.1270(10)
H12 H 0.1937 0.2991 0.1265
C19 C 0.1667(6) 0.3446(5) 0.1561(11)
H13 H 0.1895 0.3556 0.1758
C20 C 0.1300(7) 0.3621(5) 0.1561(10)
H14 H 0.1271 0.3851 0.1776
O3 O 0.0351(5) 0.3308(5) 0.0882(11)
O4 O 0.0384(9) 0.3842(6) 0.1412(15)
C21 C 0.3463(6) 0.1944(5) -0.1182(11)
H15 H 0.3588 0.2022 -0.1580
C22 C 0.3436(5) 0.1590(4) -0.1074(8)
C23 C 0.3264(5) 0.1474(5) -0.0485(10)
H16 H 0.3245 0.1219 -0.0382
C24 C 0.3121(5) 0.1744(4) -0.0045(10)
H17 H 0.3006 0.1671 0.0364
C25 C 0.3144(5) 0.2101(4) -0.0198(8)
C26 C 0.3326(5) 0.2209(5) -0.0771(9)
H18 H 0.3355 0.2462 -0.0876
C27 C 0.2954(5) 0.2375(4) 0.0281(8)
C28 C 0.3134(5) 0.2990(5) 0.0432(10)
O5 O 0.3172(4) 0.3318(3) 0.0275(8)
O6 O 0.2980(4) 0.2748(3) -0.0006(7)
O7 O 0.3561(5) 0.1318(4) -0.1514(8)
H19 H 0.3659 0.1418 -0.1853
O8 O 0.1321(4) 0.1991(4) 0.0451(8)
H20 H 0.1265 0.1878 0.0800
C29 C 0.3244(5) 0.2790(4) 0.1015(9)
C30 C 0.3159(5) 0.2435(4) 0.0930(8)
C31 C 0.3290(5) 0.2171(5) 0.1421(8)
H21 H 0.3261 0.1914 0.1356
C32 C 0.3455(5) 0.2310(5) 0.1976(9)
H22 H 0.3536 0.2145 0.2315
C33 C 0.3511(5) 0.2684(6) 0.2069(9)
H23 H 0.3617 0.2766 0.2478
C34 C 0.3422(5) 0.2939(4) 0.1605(11)
H24 H 0.3472 0.3194 0.1663
C35 C 0.2505(6) 0.2297(4) 0.0361(11)
C36 C 0.2370(5) 0.2131(5) 0.0948(12)
H25 H 0.2545 0.2093 0.1311
C37 C 0.1964(6) 0.2023(5) 0.0978(12)
H26 H 0.1865 0.1906 0.1365
C38 C 0.1713(6) 0.2085(5) 0.0454(10)
C39 C 0.1858(5) 0.2269(5) -0.0114(10)
H27 H 0.1679 0.2323 -0.0466
C40 C 0.2257(5) 0.2371(5) -0.0167(12)
H28 H 0.2356 0.2488 -0.0553
O9 O 0.2583(9) 0.1000(9) -0.4113(16)
C41 C -0.1515(4) 0.0816(5) -0.0178(10)
H29 H -0.1366 0.0611 0.0016
H30 H -0.1487 0.1034 0.0103
H31 H -0.1798 0.0750 -0.0212
C42 C -0.1580(5) 0.1208(4) -0.1142(10)
H32 H -0.1567 0.1419 -0.0843
H33 H -0.1464 0.1274 -0.1570
H34 H -0.1859 0.1134 -0.1203
C43 C -0.1386(4) 0.0589(4) -0.1332(11)
H35 H -0.1366 0.0685 -0.1789
H36 H -0.1649 0.0468 -0.1282
C44 C -0.1058(5) 0.0316(5) -0.1209(13)
H37 H -0.1075 0.0108 -0.1524
H38 H -0.1073 0.0218 -0.0753
C45 C -0.0539(9) 0.0617(6) -0.2001(10)
H39 H -0.0734 0.0780 -0.2211
H40 H -0.0276 0.0737 -0.1997
H41 H -0.0522 0.0386 -0.2248
C46 C -0.0368(6) 0.0299(5) -0.1024(11)
H42 H -0.0443 0.0242 -0.0567
H43 H -0.0352 0.0070 -0.1279
H44 H -0.0107 0.0421 -0.1028
N1 N 0.2801(3) 0.0175(3) 0.1974(6)
N2 N 0.2918(3) 0.0549(3) 0.3192(6)
C47 C 0.2446(6) -0.0068(4) 0.1934(15)
H45 H 0.2308 -0.0070 0.2361
H46 H 0.2264 0.0024 0.1592
H47 H 0.2531 -0.0318 0.1822
C48 C 0.3030(6) 0.0197(4) 0.1350(11)
H48 H 0.3259 0.0361 0.1410
H49 H 0.3124 -0.0049 0.1229
H50 H 0.2858 0.0293 0.0999
C49 C 0.3110(6) 0.0048(5) 0.2456(8)
H51 H 0.3129 -0.0224 0.2432
H52 H 0.3372 0.0150 0.2325
C50 C 0.3027(6) 0.0153(3) 0.3126(9)
H53 H 0.3265 0.0103 0.3401
H54 H 0.2805 0.0001 0.3297
C51 C 0.3272(5) 0.0769(4) 0.3313(9)
H55 H 0.3196 0.1028 0.3355
H56 H 0.3401 0.0686 0.3722
H57 H 0.3458 0.0740 0.2943
C52 C 0.2638(7) 0.0596(9) 0.3780(9)
H58 H 0.2396 0.0449 0.3710
H59 H 0.2772 0.0513 0.4183
H60 H 0.2565 0.0856 0.3826
N3 N -0.1025(3) 0.4775(3) -0.0516(6)
N4 N -0.0310(3) 0.5062(3) -0.1033(10)
C53 C -0.1300(4) 0.4522(5) -0.0855(12)
H61 H -0.1309 0.4288 -0.0618
H62 H -0.1569 0.4630 -0.0866
H63 H -0.1207 0.4481 -0.1308
C54 C -0.1167(6) 0.4833(7) 0.0168(7)
H64 H -0.1149 0.4602 0.0415
H65 H -0.1002 0.5020 0.0384
H66 H -0.1446 0.4916 0.0160
C55 C -0.1043(4) 0.5103(5) -0.0914(11)
H67 H -0.1214 0.5283 -0.0680
H68 H -0.1180 0.5039 -0.1331
C56 C -0.0668(4) 0.5293(5) -0.1088(16)
H69 H -0.0689 0.5384 -0.1547
H70 H -0.0636 0.5509 -0.0796
C57 C 0.0019(6) 0.5264(5) -0.0710(14)
H71 H 0.0254 0.5105 -0.0679
H72 H 0.0085 0.5483 -0.0971
H73 H -0.0064 0.5339 -0.0266
C58 C -0.0196(6) 0.4984(6) -0.1763(13)
H74 H 0.0044 0.4829 -0.1777
H75 H -0.0417 0.4857 -0.1984
H76 H -0.0142 0.5217 -0.1990
C59 C 0.3574(6) 0.4145(5) 0.3534(10)
H77 H 0.3439 0.3906 0.3557
H78 H 0.3772 0.4140 0.3178
H79 H 0.3707 0.4195 0.3955
C60 C 0.3006(5) 0.4437(6) 0.3979(8)
H80 H 0.2885 0.4193 0.4030
H81 H 0.3159 0.4498 0.4377
H82 H 0.2795 0.4620 0.3914
C61 C 0.3446(7) 0.4810(5) 0.3352(10)
H83 H 0.3693 0.4823 0.3620
H84 H 0.3253 0.4989 0.3534
C62 C 0.3540(6) 0.4910(6) 0.2657(11)
H85 H 0.3591 0.5177 0.2633
H86 H 0.3788 0.4781 0.2523
C63 C 0.2947(5) 0.5115(4) 0.2151(10)
H87 H 0.2739 0.5046 0.1834
H88 H 0.2826 0.5160 0.2583
H89 H 0.3082 0.5339 0.1998
C64 C 0.3418(6) 0.4773(5) 0.1525(10)
H90 H 0.3208 0.4711 0.1206
H91 H 0.3548 0.5003 0.1391
H92 H 0.3616 0.4575 0.1538
N5 N 0.2250(3) 0.2216(3) -0.2514(5)
C65 C 0.2463(3) 0.2059(3) -0.2014(6)
H93 H 0.2741 0.2105 -0.1980
C66 C 0.2279(3) 0.1834(3) -0.1558(6)
H94 H 0.2432 0.1721 -0.1218
C67 C 0.1867(4) 0.1772(3) -0.1597(6)
C68 C 0.1665(4) 0.1932(4) -0.2103(7)
H95 H 0.1386 0.1894 -0.2147
C69 C 0.1861(4) 0.2147(4) -0.2546(7)
H96 H 0.1712 0.2253 -0.2897
C70 C 0.1661(4) 0.1549(3) -0.1085(7)
C71 C 0.1671(3) 0.1218(3) -0.0167(7)
C72 C 0.1910(4) 0.1060(3) 0.0407(7)
C73 C 0.2322(4) 0.1110(4) 0.0451(8)
H97 H 0.2460 0.1235 0.0109
C74 C 0.2527(3) 0.0981(4) 0.0975(8)
H98 H 0.2810 0.1008 0.0984
C75 C 0.1941(3) 0.0759(3) 0.1420(7)
H99 H 0.1809 0.0624 0.1757
C76 C 0.1722(4) 0.0878(3) 0.0919(7)
H100 H 0.1442 0.0838 0.0911
C77 C 0.1096(3) 0.1328(3) -0.0646(6)
C78 C 0.0655(3) 0.1279(3) -0.0682(7)
C79 C 0.0452(4) 0.1079(4) -0.0193(7)
H101 H 0.0594 0.0987 0.0178
C80 C 0.0436(4) 0.1409(4) -0.1190(7)
H102 H 0.0558 0.1553 -0.1525
C81 C 0.0029(4) 0.1328(4) -0.1219(7)
H103 H -0.0122 0.1421 -0.1579
C82 C 0.0058(4) 0.1018(4) -0.0249(7)
H104 H -0.0074 0.0890 0.0098
C83 C -0.0677(5) 0.3804(3) -0.0394(8)
H105 H -0.0724 0.3821 -0.0855
C84 C -0.0704(5) 0.3474(4) -0.0089(9)
H106 H -0.0773 0.3262 -0.0340
C85 C -0.0524(4) 0.4084(3) 0.0587(7)
H107 H -0.0458 0.4302 0.0824
C86 C -0.0549(4) 0.3768(3) 0.0934(6)
H108 H -0.0512 0.3763 0.1400
C87 C -0.0634(4) 0.3438(3) 0.0568(7)
C88 C -0.0644(3) 0.3082(3) 0.0920(7)
C89 C -0.0560(4) 0.2743(3) 0.1836(8)
C90 C -0.0696(3) 0.2466(3) 0.0870(7)
C91 C -0.0757(3) 0.2121(3) 0.0466(6)
C92 C -0.0736(3) 0.1780(3) 0.0773(6)
H109 H -0.0697 0.1761 0.1236
C93 C -0.0819(4) 0.2135(3) -0.0175(8)
H110 H -0.0843 0.2367 -0.0387
C94 C -0.0851(4) 0.1812(4) -0.0547(8)
H111 H -0.0895 0.1827 -0.1010
C95 C -0.0774(3) 0.1471(3) 0.0389(7)
H112 H -0.0767 0.1237 0.0597
C96 C -0.0486(4) 0.2728(3) 0.2546(7)
C97 C -0.0396(4) 0.3041(3) 0.2907(7)
H113 H -0.0388 0.3273 0.2688
C98 C -0.0317(4) 0.3025(4) 0.3582(7)
H114 H -0.0243 0.3242 0.3815
C99 C -0.0427(4) 0.2395(3) 0.3565(7)
H115 H -0.0432 0.2167 0.3794
C100 C -0.0499(4) 0.2396(3) 0.2907(8)
H116 H -0.0560 0.2172 0.2687
C101 C 0.2870(4) 0.3524(3) 0.2703(6)
H117 H 0.3138 0.3514 0.2550
C102 C 0.2341(4) 0.3872(4) 0.3069(7)
H118 H 0.2225 0.4102 0.3182
C103 C 0.2116(4) 0.3549(4) 0.3148(8)
H119 H 0.1849 0.3563 0.3307
C104 C 0.2277(4) 0.3217(4) 0.2999(8)
C105 C 0.2671(4) 0.3213(3) 0.2769(8)
H120 H 0.2796 0.2986 0.2661
C106 C 0.2046(4) 0.2877(4) 0.3097(9)
C107 C 0.1503(4) 0.2601(4) 0.3498(12)
C108 C 0.2004(4) 0.2261(4) 0.3087(9)
N6 N 0.0384(3) 0.2646(3) 0.4513(7)
C109 C 0.1105(4) 0.2620(4) 0.3849(11)
C110 C 0.0956(4) 0.2949(4) 0.4078(13)
H121 H 0.1108 0.3168 0.4023
C111 C 0.0587(5) 0.2965(4) 0.4389(11)
H122 H 0.0476 0.3195 0.4513
C112 C 0.0890(5) 0.2300(4) 0.3977(12)
H123 H 0.0982 0.2068 0.3824
C113 C 0.0530(5) 0.2328(4) 0.4339(13)
H124 H 0.0392 0.2110 0.4460
C114 C 0.2171(4) 0.1895(4) 0.2942(9)
C115 C 0.1925(4) 0.1580(4) 0.3021(10)
H125 H 0.1656 0.1602 0.3168
C116 C 0.2093(4) 0.1235(4) 0.2873(9)
H126 H 0.1937 0.1021 0.2950
C117 C 0.2689(4) 0.1498(3) 0.2561(7)
H127 H 0.2957 0.1468 0.2416
C118 C 0.2548(4) 0.1841(4) 0.2689(8)
H128 H 0.2713 0.2047 0.2601
C119 C 0.0263(4) 0.4190(4) -0.1003(8)
H129 H 0.0098 0.4136 -0.1372
C120 C 0.0364(4) 0.4465(4) -0.0010(8)
H130 H 0.0263 0.4615 0.0336
C121 C 0.0732(4) 0.4326(4) 0.0046(10)
H131 H 0.0889 0.4380 0.0424
C122 C 0.0655(4) 0.4032(5) -0.0972(8)
H132 H 0.0751 0.3879 -0.1317
C123 C 0.0882(3) 0.4106(3) -0.0443(7)
C124 C 0.1306(3) 0.3951(3) -0.0400(6)
C125 C 0.1892(3) 0.3932(3) 0.0115(6)
C126 C 0.1802(3) 0.3623(3) -0.0824(6)
C127 C 0.2156(3) 0.4057(3) 0.0668(6)
C128 C 0.2026(3) 0.4303(3) 0.1146(7)
H133 H 0.1765 0.4403 0.1124
C129 C 0.2272(4) 0.4399(3) 0.1640(7)
H134 H 0.2182 0.4570 0.1962
C130 C 0.2778(4) 0.4025(3) 0.1228(6)
H135 H 0.3044 0.3936 0.1258
C131 C 0.2548(3) 0.3910(4) 0.0709(6)
H136 H 0.2645 0.3740 0.0392
C132 C 0.1975(3) 0.3385(3) -0.1359(6)
C133 C 0.2367(4) 0.3258(3) -0.1323(6)
H137 H 0.2526 0.3314 -0.0948
C134 C 0.2520(4) 0.3052(3) -0.1827(7)
H138 H 0.2788 0.2967 -0.1798
C135 C 0.1747(4) 0.3305(4) -0.1927(7)
H139 H 0.1479 0.3390 -0.1965
C136 C 0.1917(4) 0.3103(4) -0.2418(7)
H140 H 0.1768 0.3053 -0.2807
C137 C 0.2377(6) 0.2008(5) -0.4005(9)
H141 H 0.2148 0.2152 -0.4158
H142 H 0.2477 0.1855 -0.4367
H143 H 0.2293 0.1849 -0.3638
C138 C 0.3033(8) 0.2029(8) -0.3552(11)
H144 H 0.3248 0.2191 -0.3399
H145 H 0.2946 0.1871 -0.3188
H146 H 0.3130 0.1877 -0.3917
C139 C 0.2812(6) 0.2494(6) -0.4352(9)
H147 H 0.2996 0.2355 -0.4643
H148 H 0.2571 0.2558 -0.4613
C140 C 0.3010(7) 0.2836(5) -0.4129(9)
H149 H 0.3271 0.2776 -0.3924
H150 H 0.3060 0.2999 -0.4513
C141 C 0.3039(7) 0.3266(6) -0.3271(12)
H151 H 0.3252 0.3114 -0.3083
H152 H 0.3156 0.3449 -0.3569
H153 H 0.2895 0.3391 -0.2915
C142 C 0.2447(7) 0.3258(5) -0.3918(10)
H154 H 0.2295 0.3372 -0.3558
H155 H 0.2568 0.3450 -0.4192
H156 H 0.2267 0.3108 -0.4189
N7 N -0.0760(4) 0.2747(5) 0.5217(7)
N8 N -0.0019(4) 0.2669(5) 0.5831(7)
C143 C -0.0937(6) 0.3101(8) 0.5020(11)
H157 H -0.0920 0.3128 0.4540
H158 H -0.1218 0.3108 0.5156
H159 H -0.0791 0.3302 0.5234
C144 C -0.1037(8) 0.2479(11) 0.486(2)
H160 H -0.1041 0.2538 0.4386
H161 H -0.0939 0.2227 0.4920
H162 H -0.1307 0.2500 0.5038
C145 C -0.0758(5) 0.2656(9) 0.5920(9)
H163 H -0.0828 0.2393 0.5972
H164 H -0.0967 0.2802 0.6145
C146 C -0.0369(6) 0.2724(11) 0.6252(8)
H165 H -0.0366 0.2980 0.6418
H166 H -0.0347 0.2559 0.6639
C147 C 0.0239(9) 0.2967(7) 0.6066(17)
H167 H 0.0491 0.2964 0.5820
H168 H 0.0105 0.3204 0.5997
H169 H 0.0293 0.2934 0.6538
C148 C 0.0160(12) 0.2304(7) 0.5963(15)
H170 H 0.0394 0.2269 0.5679
H171 H 0.0241 0.2290 0.6427
H172 H -0.0037 0.2111 0.5871
N9 N -0.1353(3) 0.0899(3) -0.0855(6)
N10 N -0.0665(4) 0.0540(4) -0.1315(7)
N11 N 0.2691(4) 0.2255(4) -0.3781(7)
N12 N 0.2755(5) 0.3028(4) -0.3647(6)
N13 N 0.3276(3) 0.4436(3) 0.3399(6)
N14 N 0.3234(3) 0.4820(3) 0.2204(7)
N15 N 0.1888(3) 0.1397(3) -0.0616(5)
N16 N 0.1289(3) 0.1174(3) -0.0147(6)
N17 N 0.1264(3) 0.1532(3) -0.1119(5)
N18 N -0.0157(3) 0.1126(3) -0.0762(5)
N19 N 0.2342(3) 0.0816(3) 0.1488(6)
N20 N -0.0583(3) 0.4116(2) -0.0040(6)
N21 N -0.0713(3) 0.2784(3) 0.0539(5)
N22 N -0.0570(3) 0.3076(3) 0.1555(6)
N23 N -0.0617(3) 0.2426(3) 0.1494(6)
N24 N -0.0348(3) 0.2701(3) 0.3906(6)
N25 N -0.0821(3) 0.1487(3) -0.0264(5)
N26 N 0.2710(3) 0.3861(3) 0.2843(5)
N27 N 0.1688(4) 0.2903(3) 0.3385(8)
N28 N 0.1646(4) 0.2267(3) 0.3390(10)
N29 N 0.2223(3) 0.2551(3) 0.2957(7)
N30 N 0.2451(3) 0.1193(3) 0.2637(6)
N31 N 0.0129(3) 0.4400(3) -0.0548(6)
N32 N 0.1516(3) 0.4061(3) 0.0112(5)
N33 N 0.2048(3) 0.3711(3) -0.0334(5)
N34 N 0.1429(3) 0.3734(2) -0.0877(5)
N35 N 0.2303(3) 0.2970(3) -0.2359(6)
N36 N 0.2650(3) 0.4256(3) 0.1692(5)
Pd1 Pd 0.26317(3) 0.06863(2) 0.23309(5)
Pd2 Pd 0.29718(2) 0.43395(2) 0.25387(5)
Pd3 Pd -0.07493(3) 0.10178(2) -0.07998(5)
Pd4 Pd 0.25024(3) 0.26164(3) -0.30669(5)
Pd5 Pd -0.04473(3) 0.45854(2) -0.05446(7)
Pd6 Pd -0.01830(3) 0.26887(3) 0.48735(5)
N37 N 0.2729(6) -0.0554(6) 0.3944(13)
O10 O 0.2357(4) -0.0576(7) 0.3798(15)
O11 O 0.2839(6) -0.0410(7) 0.4443(14)
O12 O 0.2959(7) -0.0706(8) 0.3529(14)
O13 O 0.2474(11) -0.1000(9) 0.252(2)
O14 O -0.1084(8) 0.1212(9) -0.3020(17)
O15 O -0.0139(19) 0.2157(17) -0.209(3)
O16 O 0.1990(17) 0.1115(15) -0.511(3)
O17 O 0.2333(9) 0.1267(6) -0.2953(12)
O18 O 0.1769(12) 0.0927(11) -0.203(2)
N38 N 0.3968(5) 0.3826(5) 0.2027(10)
O19 O 0.4035(7) 0.3547(5) 0.2364(9)
O20 O 0.3666(3) 0.3852(3) 0.1797(8)
O21 O 0.4228(4) 0.4091(5) 0.2032(12)
N39 N 0.1159(13) 0.1540(19) 0.177(3)
O22 O 0.1230(9) 0.1836(12) 0.206(2)
O23 O 0.1092(10) 0.1533(13) 0.126(2)
O24 O 0.1085(9) 0.1227(12) 0.223(2)
N40 N 0.3609(5) 0.1036(5) 0.1575(13)
O25 O 0.3503(5) 0.0999(8) 0.0949(14)
O26 O 0.3575(12) 0.1295(8) 0.189(3)
O27 O 0.3781(4) 0.0786(4) 0.1772(9)
N41 N 0.3595(8) 0.2683(7) -0.2318(14)
O28 O 0.3830(8) 0.2671(11) -0.2792(17)
O29 O 0.3272(5) 0.2542(4) -0.2376(10)
O30 O 0.3575(6) 0.2945(6) -0.1892(9)
O31 O 0.1486(10) 0.2690(9) -0.3823(16)
O32 O -0.0223(13) 0.4997(12) 0.106(2)
O33 O -0.0779(14) 0.3987(13) 0.404(2)
N42 N 0.2323(8) 0.0420(8) -0.0493(15)
O34 O 0.2643(7) 0.0542(8) -0.0710(16)
O35 O 0.2009(8) 0.0485(7) -0.0788(15)
O36 O 0.2327(7) 0.0218(5) 0.0020(10)
O37 O 0.2269(15) 0.0674(12) -0.127(2)
O38 O 0.348(3) -0.091(3) 0.125(5)
O39 O 0.3089(14) -0.0948(12) 0.150(2)
O40 O 0.3721(17) -0.0527(16) 0.152(3)
O41 O 0.3069(10) 0.2157(9) 0.4126(17)
O42 O 0.3348(12) 0.1991(11) 0.3700(19)
O43 O 0.2748(9) 0.3554(8) 0.4411(16)
O44 O 0.2510(9) 0.3019(9) 0.4371(16)
O45 O 0.2005(12) 0.3478(10) 0.4716(19)
O46 O 0.2314(13) 0.3381(12) 0.452(2)
O47 O -0.0076(12) 0.3658(11) 0.499(2)
O48 O -0.1437(7) 0.0103(5) -0.2871(18)
O49 O 0.3254(12) 0.5258(11) -0.047(2)
O50 O 0.0878(8) 0.4965(8) -0.1539(14)
O51 O -0.0019(7) 0.1090(6) 0.1384(10)
O52 O -0.0667(6) 0.0490(5) 0.0620(10)
O53 O -0.1774(4) 0.0796(4) -0.2984(6)
O54 O 0.1898(6) 0.5380(4) 0.2394(10)
O55 O 0.2057(4) 0.4770(4) 0.3201(7)
O56 O 0.1446(6) 0.4331(5) 0.2743(9)
O57 O -0.2063(4) 0.5222(4) -0.0462(7)
O58 O -0.0518(6) 0.4068(5) -0.2031(11)
O59 O -0.1984(9) 0.0761(7) -0.4284(10)
O60 O 0.2681(6) 0.4921(5) 0.0347(9)
O61 O -0.2731(10) 0.0833(7) -0.4721(15)
O62 O 0.1730(7) 0.0380(6) 0.3114(11)
O63 O 0.0367(9) 0.3756(9) 0.3647(15)
O64 O 0.0819(11) 0.3572(11) -0.2731(19)
O65 O 0.2095(6) 0.5299(6) 0.1082(10)
O66 O 0.3583(9) -0.0072(8) 0.4465(15)
O67 O 0.0630(8) 0.2150(7) -0.2408(14)
O68 O -0.1061(9) 0.4550(8) -0.2626(15)
O69 O 0.3876(12) 0.1460(10) 0.3229(19)
O70 O 0.287(2) 0.1528(18) -0.567(4)
O71 O 0.0189(10) 0.1649(10) 0.3307(17)
O72 O -0.0061(12) 0.4035(11) 0.253(2)
O73 O -0.0458(12) 0.1319(11) 0.3493(19)
O74 O -0.1437(14) 0.1257(11) -0.4794(13)
O75 O -0.0264(10) 0.1776(7) 0.4879(19)
O76 O 0.2130(15) 0.5988(10) 0.2975(19)
O77 O 0.0798(12) 0.1668(13) -0.302(3)
O78 O 0.3622(11) 0.0177(10) 0.5621(18)
O79 O 0.0724(12) 0.0786(11) 0.1590(19)
O80 O 0.0931(13) 0.1331(11) 0.363(2)
O81 O 0.1873(14) 0.2620(11) -0.519(2)
O82 O -0.0948(11) -0.0214(10) 0.0359(18)
O83 O -0.0940(14) 0.1709(9) -0.435(3)
O84 O 0.1007(14) 0.0189(12) 0.138(2)
O85 O 0.0665(12) 0.0432(11) -0.1507(19)
O86 O 0.1163(9) 0.3886(5) 0.378(3)
O87 O -0.1634(11) 0.0069(9) -0.4487(17)
O88 O 0.0905(14) 0.4616(15) 0.185(2)
loop_
_geom_bond_atom_site_label_1
_geom_bond_atom_site_label_2
_geom_bond_site_symmetry_1
_geom_bond_site_symmetry_2
C1 C2 1_555 1_555
C2 H1 1_555 1_555
C3 C2 1_555 1_555
H2 C3 1_555 1_555
C4 C3 1_555 1_555
C5 C4 1_555 1_555
H3 C5 1_555 1_555
C6 C1 1_555 1_555
H4 C6 1_555 1_555
O1 C1 1_555 1_555
H5 O1 1_555 1_555
C7 C8 1_555 1_555
C8 H6 1_555 1_555
C9 C8 1_555 1_555
H7 C9 1_555 1_555
C10 C9 1_555 1_555
C11 C10 1_555 1_555
H8 C11 1_555 1_555
C12 C7 1_555 1_555
H9 C12 1_555 1_555
O2 C10 1_555 1_555
H10 O2 1_555 1_555
C13 C4 1_555 1_555
C14 C15 1_555 1_555
C15 C16 1_555 1_555
C16 C13 1_555 1_555
C17 C16 1_555 1_555
H11 C17 1_555 1_555
C18 C17 1_555 1_555
H12 C18 1_555 1_555
C19 C18 1_555 1_555
H13 C19 1_555 1_555
C20 C15 1_555 1_555
H14 C20 1_555 1_555
O3 C13 1_555 1_555
O4 C14 1_555 1_555
C21 H15 1_555 1_555
C22 C21 1_555 1_555
C23 C22 1_555 1_555
H16 C23 1_555 1_555
C24 C23 1_555 1_555
H17 C24 1_555 1_555
C25 C24 1_555 1_555
C26 C21 1_555 1_555
H18 C26 1_555 1_555
C27 C25 1_555 1_555
C28 O5 1_555 1_555
O6 C27 1_555 1_555
O7 C22 1_555 1_555
H19 O7 1_555 1_555
O8 H20 1_555 1_555
C29 C28 1_555 1_555
C30 C27 1_555 1_555
C31 C30 1_555 1_555
H21 C31 1_555 1_555
C32 C31 1_555 1_555
H22 C32 1_555 1_555
C33 C32 1_555 1_555
H23 C33 1_555 1_555
C34 C29 1_555 1_555
H24 C34 1_555 1_555
C35 C27 1_555 1_555
C36 C35 1_555 1_555
H25 C36 1_555 1_555
C37 C36 1_555 1_555
H26 C37 1_555 1_555
C38 O8 1_555 1_555
C39 C38 1_555 1_555
H27 C39 1_555 1_555
C40 C35 1_555 1_555
H28 C40 1_555 1_555
C41 H29 1_555 1_555
H30 C41 1_555 1_555
H31 C41 1_555 1_555
C42 H32 1_555 1_555
H33 C42 1_555 1_555
H34 C42 1_555 1_555
C43 H35 1_555 1_555
H36 C43 1_555 1_555
C44 C43 1_555 1_555
H37 C44 1_555 1_555
H38 C44 1_555 1_555
C45 H39 1_555 1_555
H40 C45 1_555 1_555
H41 C45 1_555 1_555
C46 H42 1_555 1_555
H43 C46 1_555 1_555
H44 C46 1_555 1_555
N1 C47 1_555 1_555
N2 C50 1_555 1_555
C47 H45 1_555 1_555
H46 C47 1_555 1_555
H47 C47 1_555 1_555
C48 N1 1_555 1_555
H48 C48 1_555 1_555
H49 C48 1_555 1_555
H50 C48 1_555 1_555
C49 N1 1_555 1_555
H51 C49 1_555 1_555
H52 C49 1_555 1_555
C50 C49 1_555 1_555
H53 C50 1_555 1_555
H54 C50 1_555 1_555
C51 N2 1_555 1_555
H55 C51 1_555 1_555
H56 C51 1_555 1_555
H57 C51 1_555 1_555
C52 N2 1_555 1_555
H58 C52 1_555 1_555
H59 C52 1_555 1_555
H60 C52 1_555 1_555
N3 C53 1_555 1_555
N4 C56 1_555 1_555
C53 H61 1_555 1_555
H62 C53 1_555 1_555
H63 C53 1_555 1_555
C54 N3 1_555 1_555
H64 C54 1_555 1_555
H65 C54 1_555 1_555
H66 C54 1_555 1_555
C55 N3 1_555 1_555
H67 C55 1_555 1_555
H68 C55 1_555 1_555
C56 C55 1_555 1_555
H69 C56 1_555 1_555
H70 C56 1_555 1_555
C57 N4 1_555 1_555
H71 C57 1_555 1_555
H72 C57 1_555 1_555
H73 C57 1_555 1_555
C58 N4 1_555 1_555
H74 C58 1_555 1_555
H75 C58 1_555 1_555
H76 C58 1_555 1_555
C59 H77 1_555 1_555
H78 C59 1_555 1_555
H79 C59 1_555 1_555
C60 H80 1_555 1_555
H81 C60 1_555 1_555
H82 C60 1_555 1_555
C61 H83 1_555 1_555
H84 C61 1_555 1_555
C62 C61 1_555 1_555
H85 C62 1_555 1_555
H86 C62 1_555 1_555
C63 H87 1_555 1_555
H88 C63 1_555 1_555
H89 C63 1_555 1_555
C64 H90 1_555 1_555
H91 C64 1_555 1_555
H92 C64 1_555 1_555
N5 C65 1_555 1_555
C65 H93 1_555 1_555
C66 C65 1_555 1_555
H94 C66 1_555 1_555
C67 C66 1_555 1_555
C68 C67 1_555 1_555
H95 C68 1_555 1_555
C69 N5 1_555 1_555
H96 C69 1_555 1_555
C70 C67 1_555 1_555
C71 C72 1_555 1_555
C72 C73 1_555 1_555
C73 H97 1_555 1_555
C74 C73 1_555 1_555
H98 C74 1_555 1_555
C75 H99 1_555 1_555
C76 C72 1_555 1_555
H100 C76 1_555 1_555
C77 C78 1_555 1_555
C78 C79 1_555 1_555
C79 H101 1_555 1_555
C80 C78 1_555 1_555
H102 C80 1_555 1_555
C81 C80 1_555 1_555
H103 C81 1_555 1_555
C82 C79 1_555 1_555
H104 C82 1_555 1_555
C83 H105 1_555 1_555
C84 C83 1_555 1_555
H106 C84 1_555 1_555
C85 H107 1_555 1_555
C86 C85 1_555 1_555
H108 C86 1_555 1_555
C87 C84 1_555 1_555
C88 C87 1_555 1_555
C89 C96 1_555 1_555
C90 C91 1_555 1_555
C91 C92 1_555 1_555
C92 H109 1_555 1_555
C93 C91 1_555 1_555
H110 C93 1_555 1_555
C94 C93 1_555 1_555
H111 C94 1_555 1_555
C95 C92 1_555 1_555
H112 C95 1_555 1_555
C96 C97 1_555 1_555
C97 H113 1_555 1_555
C98 C97 1_555 1_555
H114 C98 1_555 1_555
C99 H115 1_555 1_555
C100 C96 1_555 1_555
H116 C100 1_555 1_555
C101 H117 1_555 1_555
C102 H118 1_555 1_555
C103 C102 1_555 1_555
H119 C103 1_555 1_555
C104 C103 1_555 1_555
C105 C101 1_555 1_555
H120 C105 1_555 1_555
C106 C104 1_555 1_555
C107 C109 1_555 1_555
C108 C114 1_555 1_555
N6 C111 1_555 1_555
C109 C110 1_555 1_555
C110 H121 1_555 1_555
C111 C110 1_555 1_555
H122 C111 1_555 1_555
C112 C109 1_555 1_555
H123 C112 1_555 1_555
C113 N6 1_555 1_555
H124 C113 1_555 1_555
C114 C115 1_555 1_555
C115 H125 1_555 1_555
C116 C115 1_555 1_555
H126 C116 1_555 1_555
C117 H127 1_555 1_555
C118 C114 1_555 1_555
H128 C118 1_555 1_555
C119 H129 1_555 1_555
C120 H130 1_555 1_555
C121 C120 1_555 1_555
H131 C121 1_555 1_555
C122 C119 1_555 1_555
H132 C122 1_555 1_555
C123 C121 1_555 1_555
C124 C123 1_555 1_555
C125 C127 1_555 1_555
C126 C132 1_555 1_555
C127 C128 1_555 1_555
C128 H133 1_555 1_555
C129 C128 1_555 1_555
H134 C129 1_555 1_555
C130 H135 1_555 1_555
C131 C127 1_555 1_555
H136 C131 1_555 1_555
C132 C133 1_555 1_555
C133 H137 1_555 1_555
C134 C133 1_555 1_555
H138 C134 1_555 1_555
C135 C132 1_555 1_555
H139 C135 1_555 1_555
C136 C135 1_555 1_555
H140 C136 1_555 1_555
C137 H141 1_555 1_555
H142 C137 1_555 1_555
H143 C137 1_555 1_555
C138 H144 1_555 1_555
H145 C138 1_555 1_555
H146 C138 1_555 1_555
C139 H147 1_555 1_555
H148 C139 1_555 1_555
C140 C139 1_555 1_555
H149 C140 1_555 1_555
H150 C140 1_555 1_555
C141 H151 1_555 1_555
H152 C141 1_555 1_555
H153 C141 1_555 1_555
C142 H154 1_555 1_555
H155 C142 1_555 1_555
H156 C142 1_555 1_555
N7 C143 1_555 1_555
N8 C146 1_555 1_555
C143 H157 1_555 1_555
H158 C143 1_555 1_555
H159 C143 1_555 1_555
C144 N7 1_555 1_555
H160 C144 1_555 1_555
H161 C144 1_555 1_555
H162 C144 1_555 1_555
C145 N7 1_555 1_555
H163 C145 1_555 1_555
H164 C145 1_555 1_555
C146 C145 1_555 1_555
H165 C146 1_555 1_555
H166 C146 1_555 1_555
C147 N8 1_555 1_555
H167 C147 1_555 1_555
H168 C147 1_555 1_555
H169 C147 1_555 1_555
C148 N8 1_555 1_555
H170 C148 1_555 1_555
H171 C148 1_555 1_555
H172 C148 1_555 1_555
N9 C41 1_555 1_555
N10 C44 1_555 1_555
N11 C137 1_555 1_555
N12 C140 1_555 1_555
N13 C59 1_555 1_555
N14 C62 1_555 1_555
N15 C70 1_555 1_555
N16 C71 1_555 1_555
N17 C70 1_555 1_555
N18 C81 1_555 1_555
N19 C74 1_555 1_555
N20 C83 1_555 1_555
N21 C88 1_555 1_555
N22 C88 1_555 1_555
N23 C89 1_555 1_555
N24 C98 1_555 1_555
N25 C94 1_555 1_555
N26 C101 1_555 1_555
N27 C106 1_555 1_555
N28 C107 1_555 1_555
N29 C106 1_555 1_555
N30 C116 1_555 1_555
N31 C119 1_555 1_555
N32 C124 1_555 1_555
N33 C125 1_555 1_555
N34 C124 1_555 1_555
N35 C134 1_555 1_555
N36 C129 1_555 1_555
Pd1 N1 1_555 1_555
Pd2 N13 1_555 1_555
Pd3 N9 1_555 1_555
Pd4 N5 1_555 1_555
Pd5 N3 1_555 1_555
Pd6 N6 1_555 1_555
N37 O10 1_555 1_555
O11 N37 1_555 1_555
O12 N37 1_555 1_555
N38 O19 1_555 1_555
O20 N38 1_555 1_555
O21 N38 1_555 1_555
N39 O22 1_555 1_555
O23 N39 1_555 1_555
O24 N39 1_555 1_555
N40 O25 1_555 1_555
O26 N40 1_555 1_555
O27 N40 1_555 1_555
N41 O28 1_555 1_555
O29 N41 1_555 1_555
O30 N41 1_555 1_555
N42 O34 1_555 1_555
O35 N42 1_555 1_555
O36 N42 1_555 1_555
C5 C6 1_555 1_555
C7 C13 1_555 1_555
C11 C12 1_555 1_555
C14 O3 1_555 1_555
C19 C20 1_555 1_555
C25 C26 1_555 1_555
C28 O6 1_555 1_555
C29 C30 1_555 1_555
C33 C34 1_555 1_555
C37 C38 1_555 1_555
C39 C40 1_555 1_555
C42 N9 1_555 1_555
C43 N9 1_555 1_555
C45 N10 1_555 1_555
C46 N10 1_555 1_555
N2 Pd1 1_555 1_555
N4 Pd5 1_555 1_555
C60 N13 1_555 1_555
C61 N13 1_555 1_555
C63 N14 1_555 1_555
C64 N14 1_555 1_555
C68 C69 1_555 1_555
C71 N15 1_555 1_555
C75 C76 1_555 1_555
C75 N19 1_555 1_555
C77 N16 1_555 1_555
C77 N17 1_555 1_555
C82 N18 1_555 1_555
C85 N20 1_555 1_555
C86 C87 1_555 1_555
C89 N22 1_555 1_555
C90 N21 1_555 1_555
C90 N23 1_555 1_555
C95 N25 1_555 1_555
C99 C100 1_555 1_555
C99 N24 1_555 1_555
C102 N26 1_555 1_555
C104 C105 1_555 1_555
C107 N27 1_555 1_555
C108 N28 1_555 1_555
C108 N29 1_555 1_555
C112 C113 1_555 1_555
C117 C118 1_555 1_555
C117 N30 1_555 1_555
C120 N31 1_555 1_555
C122 C123 1_555 1_555
C125 N32 1_555 1_555
C126 N33 1_555 1_555
C126 N34 1_555 1_555
C130 C131 1_555 1_555
C130 N36 1_555 1_555
C136 N35 1_555 1_555
C138 N11 1_555 1_555
C139 N11 1_555 1_555
C141 N12 1_555 1_555
C142 N12 1_555 1_555
N7 Pd6 1_555 1_555
N8 Pd6 1_555 1_555
N10 Pd3 1_555 1_555
N11 Pd4 1_555 1_555
N12 Pd4 1_555 1_555
N14 Pd2 1_555 1_555
N18 Pd3 1_555 1_555
N19 Pd1 1_555 1_555
N20 Pd5 1_555 1_555
N24 Pd6 1_555 1_555
N25 Pd3 1_555 1_555
N26 Pd2 1_555 1_555
N30 Pd1 1_555 1_555
N31 Pd5 1_555 1_555
N35 Pd4 1_555 1_555
N36 Pd2 1_555 1_555

#END
