
#######################################################################
#
#                 Cambridge Crystallographic Data Centre
#                                CCDC 
#
#######################################################################
#
# If this CIF has been generated from an entry in the Cambridge 
# Structural Database, then it will include bibliographic, chemical, 
# crystal, experimental, refinement or atomic coordinate data resulting 
# from the CCDC's data processing and validation procedures.
#
#######################################################################

data_YUTQAG
_chemical_formula_moiety         'C51 H76 Cl2 N2 O6 Pd1'
_chemical_name_systematic        
(Acetonitrile)-(dichloro)-(6,21,27,42,45,53-hexaoxa-56-azapentacyclo[20.20.13.1^47,51^.0^5,43^.0^26,55^]hexapentaconta-1(43),2,4,22(55),23,25,47(56),48,50-nonaene)-palladium(ii)
_symmetry_cell_setting           monoclinic
_symmetry_space_group_name_H-M   'P 21/c'
_symmetry_Int_Tables_number      14
_space_group_name_Hall           '-P 2ybc'
loop_
_symmetry_equiv_pos_site_id
_symmetry_equiv_pos_as_xyz
1 x,y,z
2 -x,1/2+y,1/2-z
3 -x,-y,-z
4 x,1/2-y,1/2+z
_cell_length_a                   18.431(5)
_cell_length_b                   21.805(6)
_cell_length_c                   12.751(4)
_cell_angle_alpha                90
_cell_angle_beta                 102.806(4)
_cell_angle_gamma                90
_cell_volume                     4997.01
_exptl_crystal_colour            yellow
_exptl_crystal_description       prism
_cell_formula_units_Z            4
loop_
_atom_site_label
_atom_site_type_symbol
_atom_site_fract_x
_atom_site_fract_y
_atom_site_fract_z
Pd1 Pd 0.18857(2) 0.005385(19) 0.50186(3)
Cl1 Cl 0.20144(8) -0.08707(7) 0.42440(14)
Cl2 Cl 0.17443(8) 0.09957(7) 0.57372(11)
C1 C 0.1307(4) 0.1141(3) 0.1212(4)
H1 H 0.1195 0.1570 0.0974
H2 H 0.0889 0.0986 0.1507
O1 O 0.1981(3) 0.1125(2) 0.2034(3)
C2 C 0.1957(3) 0.0737(3) 0.2910(4)
H3 H 0.1752 0.0332 0.2643
H4 H 0.1629 0.0917 0.3348
C3 C 0.2725(3) 0.0661(3) 0.3582(4)
N1 N 0.2792(2) 0.0369(2) 0.4545(4)
C4 C 0.3465(3) 0.0277(4) 0.5192(5)
C5 C 0.4105(3) 0.0466(4) 0.4871(6)
H5 H 0.4582 0.0396 0.5322
C6 C 0.4037(4) 0.0758(5) 0.3883(5)
H6 H 0.4469 0.0886 0.3654
C7 C 0.3353(3) 0.0859(4) 0.3249(5)
H7 H 0.3304 0.1064 0.2579
C8 C 0.3486(3) -0.0067(4) 0.6222(6)
H8 H 0.3225 0.0174 0.6683
H9 H 0.3223 -0.0463 0.6056
O2 O 0.4233(2) -0.0179(3) 0.6790(4)
C9 C 0.4483(3) 0.0189(3) 0.7730(5)
H10 H 0.4074 0.0250 0.8107
H11 H 0.4647 0.0596 0.7526
C10 C 0.5120(3) -0.0136(3) 0.8452(4)
C11 C 0.5856(3) 0.0042(3) 0.8554(5)
C12 C 0.6428(4) -0.0292(4) 0.9218(6)
H12 H 0.6934 -0.0176 0.9292
C13 C 0.6241(5) -0.0793(4) 0.9763(5)
H13 H 0.6628 -0.1023 1.0209
C14 C 0.5529(5) -0.0968(4) 0.9687(6)
H14 H 0.5415 -0.1312 1.0078
C15 C 0.4970(4) -0.0636(3) 0.9025(5)
O3 O 0.4228(3) -0.0779(2) 0.8880(4)
C16 C 0.4018(6) -0.1273(4) 0.9482(8)
H15 H 0.4217 -0.1207 1.0261
H16 H 0.4220 -0.1664 0.9274
C17 C 0.3187(7) -0.1295(5) 0.9242(10)
H17 H 0.2995 -0.0889 0.9397
H18 H 0.3028 -0.1599 0.9722
C18 C 0.2853(7) -0.1465(6) 0.8085(11)
H19 H 0.2887 -0.1099 0.7637
H20 H 0.3173 -0.1785 0.7872
C19 C 0.2065(6) -0.1691(6) 0.779(2)
H21 H 0.2079 -0.2075 0.8210
H22 H 0.1790 -0.1393 0.8146
C20 C 0.1534(16) -0.1830(17) 0.6749(19)
H23 H 0.1074 -0.2044 0.6821
H24 H 0.1427 -0.1481 0.6243
C21 C 0.2147(18) -0.2244(13) 0.6583(18)
H25 H 0.2568 -0.2017 0.6399
H26 H 0.2330 -0.2520 0.7201
C22 C 0.1680(9) -0.2570(7) 0.564(3)
H27 H 0.1670 -0.3008 0.5837
H28 H 0.1950 -0.2546 0.5048
C23 C 0.0890(9) -0.2386(6) 0.5165(9)
H29 H 0.0869 -0.1934 0.5215
H30 H 0.0585 -0.2552 0.5649
C24 C 0.0498(6) -0.2556(5) 0.4033(10)
H31 H 0.0871 -0.2503 0.3588
H32 H 0.0400 -0.3002 0.4048
C25 C -0.0208(6) -0.2273(4) 0.3403(9)
H33 H -0.0601 -0.2309 0.3817
H34 H -0.0375 -0.2499 0.2718
C26 C -0.0097(5) -0.1591(4) 0.3158(6)
H35 H -0.0577 -0.1375 0.3092
H36 H 0.0260 -0.1409 0.3775
C27 C 0.0181(4) -0.1478(3) 0.2158(5)
H37 H -0.0194 -0.1630 0.1531
H38 H 0.0644 -0.1716 0.2197
C28 C 0.0335(3) -0.0808(2) 0.1988(4)
H39 H -0.0138 -0.0576 0.1862
H40 H 0.0666 -0.0643 0.2647
C29 C 0.0696(4) -0.0713(2) 0.1045(5)
H41 H 0.1148 -0.0969 0.1128
H42 H 0.0347 -0.0828 0.0366
O4 O 0.0888(3) -0.00708(17) 0.1025(3)
C30 C 0.1197(3) 0.0133(3) 0.0213(4)
C31 C 0.1386(3) 0.0752(3) 0.0263(4)
C32 C 0.1670(4) 0.1000(3) -0.0572(4)
C33 C 0.1785(4) 0.0645(3) -0.1426(4)
H43 H 0.1974 0.0820 -0.1994
C34 C 0.1618(4) 0.0031(3) -0.1420(5)
H44 H 0.1708 -0.0220 -0.1987
C35 C 0.1324(3) -0.0237(3) -0.0626(4)
H45 H 0.1211 -0.0662 -0.0647
O5 O 0.5958(2) 0.0550(2) 0.7993(4)
C36 C 0.6712(4) 0.0722(4) 0.7971(8)
H46 H 0.6946 0.0397 0.7614
H47 H 0.7010 0.0774 0.8713
C37 C 0.6690(6) 0.1295(4) 0.7381(9)
H48 H 0.7202 0.1408 0.7333
H49 H 0.6498 0.1624 0.7783
C38 C 0.6214(5) 0.1258(3) 0.6280(9)
H50 H 0.5689 0.1216 0.6338
H51 H 0.6347 0.0881 0.5932
C39 C 0.6272(6) 0.1798(4) 0.5561(9)
H52 H 0.6192 0.2180 0.5939
H53 H 0.6782 0.1812 0.5432
C40 C 0.5750(6) 0.1779(4) 0.4544(9)
H54 H 0.5241 0.1813 0.4672
H55 H 0.5790 0.1375 0.4207
C41 C 0.5854(12) 0.2263(6) 0.3786(9)
H56 H 0.5806 0.2665 0.4124
H57 H 0.6368 0.2234 0.3678
C42 C 0.5368(7) 0.2252(7) 0.2785(12)
H58 H 0.5251 0.1822 0.2565
H59 H 0.5610 0.2445 0.2247
C43 C 0.4665(7) 0.2587(10) 0.2809(10)
H60 H 0.4791 0.2989 0.3163
H61 H 0.4382 0.2350 0.3245
C44 C 0.4183(6) 0.2689(14) 0.1712(10)
H62 H 0.4187 0.2321 0.1259
H63 H 0.4372 0.3042 0.1360
C45 C 0.3408(5) 0.2817(6) 0.1841(7)
H64 H 0.3343 0.3266 0.1879
H65 H 0.3351 0.2641 0.2534
C46 C 0.2799(5) 0.2566(4) 0.0960(6)
H66 H 0.2823 0.2112 0.0988
H67 H 0.2314 0.2689 0.1106
C47 C 0.2821(4) 0.2764(4) -0.0145(6)
H68 H 0.3277 0.2592 -0.0319
H69 H 0.2872 0.3216 -0.0140
C48 C 0.2168(4) 0.2593(3) -0.1049(5)
H70 H 0.2217 0.2821 -0.1701
H71 H 0.1706 0.2737 -0.0852
C49 C 0.2074(4) 0.1916(3) -0.1336(5)
H72 H 0.1709 0.1864 -0.2028
H73 H 0.2555 0.1739 -0.1410
O6 O 0.1816(3) 0.1611(2) -0.0485(3)
N2 N 0.1013(2) -0.0273(2) 0.5551(4)
C50 C 0.0560(3) -0.0478(3) 0.5918(4)
C51 C -0.0023(4) -0.0742(3) 0.6387(6)
H74 H -0.0435 -0.0881 0.5811
H75 H -0.0204 -0.0430 0.6821
H76 H 0.0178 -0.1091 0.6844
loop_
_geom_bond_atom_site_label_1
_geom_bond_atom_site_label_2
_geom_bond_site_symmetry_1
_geom_bond_site_symmetry_2
Pd1 Cl1 1_555 1_555
Cl2 Pd1 1_555 1_555
C1 H1 1_555 1_555
H2 C1 1_555 1_555
O1 C1 1_555 1_555
C2 O1 1_555 1_555
H3 C2 1_555 1_555
H4 C2 1_555 1_555
C3 C2 1_555 1_555
N1 Pd1 1_555 1_555
C4 N1 1_555 1_555
C5 C4 1_555 1_555
H5 C5 1_555 1_555
C6 C5 1_555 1_555
H6 C6 1_555 1_555
C7 C3 1_555 1_555
H7 C7 1_555 1_555
C8 C4 1_555 1_555
H8 C8 1_555 1_555
H9 C8 1_555 1_555
O2 C8 1_555 1_555
C9 O2 1_555 1_555
H10 C9 1_555 1_555
H11 C9 1_555 1_555
C10 C9 1_555 1_555
C11 C10 1_555 1_555
C12 C11 1_555 1_555
H12 C12 1_555 1_555
C13 C12 1_555 1_555
H13 C13 1_555 1_555
C14 C13 1_555 1_555
H14 C14 1_555 1_555
C15 C10 1_555 1_555
O3 C15 1_555 1_555
C16 O3 1_555 1_555
H15 C16 1_555 1_555
H16 C16 1_555 1_555
C17 C16 1_555 1_555
H17 C17 1_555 1_555
H18 C17 1_555 1_555
C18 C17 1_555 1_555
H19 C18 1_555 1_555
H20 C18 1_555 1_555
C19 C18 1_555 1_555
H21 C19 1_555 1_555
H22 C19 1_555 1_555
C20 C19 1_555 1_555
H23 C20 1_555 1_555
H24 C20 1_555 1_555
C21 C20 1_555 1_555
H25 C21 1_555 1_555
H26 C21 1_555 1_555
C22 C21 1_555 1_555
H27 C22 1_555 1_555
H28 C22 1_555 1_555
C23 C22 1_555 1_555
H29 C23 1_555 1_555
H30 C23 1_555 1_555
C24 C23 1_555 1_555
H31 C24 1_555 1_555
H32 C24 1_555 1_555
C25 C24 1_555 1_555
H33 C25 1_555 1_555
H34 C25 1_555 1_555
C26 C25 1_555 1_555
H35 C26 1_555 1_555
H36 C26 1_555 1_555
C27 C26 1_555 1_555
H37 C27 1_555 1_555
H38 C27 1_555 1_555
C28 C27 1_555 1_555
H39 C28 1_555 1_555
H40 C28 1_555 1_555
C29 C28 1_555 1_555
H41 C29 1_555 1_555
H42 C29 1_555 1_555
O4 C29 1_555 1_555
C30 O4 1_555 1_555
C31 C1 1_555 1_555
C32 C31 1_555 1_555
C33 C32 1_555 1_555
H43 C33 1_555 1_555
C34 C33 1_555 1_555
H44 C34 1_555 1_555
C35 C30 1_555 1_555
H45 C35 1_555 1_555
O5 C11 1_555 1_555
C36 O5 1_555 1_555
H46 C36 1_555 1_555
H47 C36 1_555 1_555
C37 C36 1_555 1_555
H48 C37 1_555 1_555
H49 C37 1_555 1_555
C38 C37 1_555 1_555
H50 C38 1_555 1_555
H51 C38 1_555 1_555
C39 C38 1_555 1_555
H52 C39 1_555 1_555
H53 C39 1_555 1_555
C40 C39 1_555 1_555
H54 C40 1_555 1_555
H55 C40 1_555 1_555
C41 C40 1_555 1_555
H56 C41 1_555 1_555
H57 C41 1_555 1_555
C42 C41 1_555 1_555
H58 C42 1_555 1_555
H59 C42 1_555 1_555
C43 C42 1_555 1_555
H60 C43 1_555 1_555
H61 C43 1_555 1_555
C44 C43 1_555 1_555
H62 C44 1_555 1_555
H63 C44 1_555 1_555
C45 C44 1_555 1_555
H64 C45 1_555 1_555
H65 C45 1_555 1_555
C46 C45 1_555 1_555
H66 C46 1_555 1_555
H67 C46 1_555 1_555
C47 C46 1_555 1_555
H68 C47 1_555 1_555
H69 C47 1_555 1_555
C48 C47 1_555 1_555
H70 C48 1_555 1_555
H71 C48 1_555 1_555
C49 C48 1_555 1_555
H72 C49 1_555 1_555
H73 C49 1_555 1_555
O6 C32 1_555 1_555
N2 Pd1 1_555 1_555
C50 N2 1_555 1_555
C51 C50 1_555 1_555
H74 C51 1_555 1_555
H75 C51 1_555 1_555
H76 C51 1_555 1_555
C3 N1 1_555 1_555
C6 C7 1_555 1_555
C14 C15 1_555 1_555
C30 C31 1_555 1_555
C34 C35 1_555 1_555
C49 O6 1_555 1_555

#END
