
#######################################################################
#
#                 Cambridge Crystallographic Data Centre
#                                CCDC 
#
#######################################################################
#
# If this CIF has been generated from an entry in the Cambridge 
# Structural Database, then it will include bibliographic, chemical, 
# crystal, experimental, refinement or atomic coordinate data resulting 
# from the CCDC's data processing and validation procedures.
#
#######################################################################

data_ZAGCIT
_chemical_formula_moiety         'C148 H136 N8 P8 Pt4 8+,8(C1 F3 O3 S1 1-)'
_chemical_name_systematic        
"tetrakis((\m~2~-4,4'-Bipyridinyl-N,N')-(1,3-bis(diphenylphosphino)propane-P,P')-platinum) octakis(trifluoromethanesulfonate)"
_symmetry_cell_setting           monoclinic
_symmetry_space_group_name_H-M   'P 2/n'
_symmetry_Int_Tables_number      13
_space_group_name_Hall           '-P 2yac'
loop_
_symmetry_equiv_pos_site_id
_symmetry_equiv_pos_as_xyz
1 x,y,z
2 1/2-x,y,1/2-z
3 -x,-y,-z
4 1/2+x,-y,1/2+z
_cell_length_a                   22.833(6)
_cell_length_b                   15.869(4)
_cell_length_c                   34.192(9)
_cell_angle_alpha                90
_cell_angle_beta                 100.35(2)
_cell_angle_gamma                90
_cell_volume                     12187.4
_chemical_melting_point          '288-290 deg.C (dec)'
_cell_formula_units_Z            2
loop_
_atom_site_label
_atom_site_type_symbol
_atom_site_fract_x
_atom_site_fract_y
_atom_site_fract_z
Pt1 Pt 0.42862(5) 0.12059(7) 0.16726(3)
Pt2 Pt 0.68052(4) 0.35563(7) 0.45930(3)
P1 P 0.3844(3) 0.0843(5) 0.1059(2)
P2 P 0.3531(3) 0.0720(5) 0.1939(2)
P3 P 0.5985(3) 0.3966(5) 0.4820(2)
P4 P 0.7409(3) 0.4071(5) 0.5122(2)
N1 N 0.5013(7) 0.168(1) 0.1477(5)
N2 N 0.6299(7) 0.304(1) 0.4087(4)
N3 N 0.4724(8) 0.161(1) 0.2220(5)
N4 N 0.7504(8) 0.314(1) 0.4352(5)
C1 C 0.544(1) 0.115(2) 0.1451(8)
C2 C 0.603(1) 0.136(2) 0.1264(8)
C3 C 0.598(1) 0.229(2) 0.1150(7)
C4 C 0.552(1) 0.282(2) 0.1198(7)
C5 C 0.502(1) 0.255(2) 0.1347(7)
C6 C 0.400(1) -0.021(2) 0.0899(8)
C7 C 0.442(1) -0.070(2) 0.1161(9)
C8 C 0.458(2) -0.155(2) 0.100(1)
C9 C 0.432(2) -0.183(3) 0.064(1)
C10 C 0.386(1) -0.127(2) 0.0407(9)
C11 C 0.366(1) -0.046(2) 0.0513(9)
C12 C 0.407(1) 0.155(2) 0.0687(7)
C13 C 0.456(1) 0.122(2) 0.0492(8)
C14 C 0.472(1) 0.179(3) 0.021(1)
C15 C 0.446(2) 0.263(3) 0.014(1)
C16 C 0.400(2) 0.296(2) 0.037(1)
C17 C 0.381(1) 0.242(2) 0.064(1)
C18 C 0.301(1) 0.094(2) 0.0939(8)
C19 C 0.271(1) 0.039(2) 0.1222(9)
C20 C 0.279(1) 0.081(2) 0.1654(7)
C21 C 0.349(1) 0.124(2) 0.2417(8)
C22 C 0.326(1) 0.209(2) 0.240(1)
C23 C 0.325(1) 0.250(3) 0.277(1)
C24 C 0.352(1) 0.198(3) 0.3141(8)
C25 C 0.375(1) 0.120(3) 0.3136(9)
C26 C 0.369(2) 0.072(3) 0.2774(8)
C27 C 0.357(1) -0.042(2) 0.2050(8)
C28 C 0.411(1) -0.079(2) 0.206(1)
C29 C 0.423(2) -0.170(3) 0.225(1)
C30 C 0.368(2) -0.208(3) 0.227(1)
C31 C 0.319(2) -0.181(3) 0.223(1)
C32 C 0.308(1) -0.087(2) 0.2128(9)
C33 C 0.462(1) 0.238(2) 0.2356(9)
C34 C 0.491(1) 0.276(2) 0.2735(7)
C35 C 0.535(1) 0.222(2) 0.2957(7)
C36 C 0.544(1) 0.137(2) 0.2837(6)
C37 C 0.511(1) 0.114(2) 0.2463(8)
C38 C 0.570(1) 0.252(2) 0.3341(7)
C39 C 0.587(1) 0.335(2) 0.3366(8)
C40 C 0.615(1) 0.357(2) 0.3794(8)
C41 C 0.613(1) 0.223(2) 0.4047(8)
C42 C 0.583(1) 0.193(2) 0.3677(7)
C43 C 0.777(1) 0.365(2) 0.4133(7)
C44 C 0.826(1) 0.341(2) 0.3921(8)
C45 C 0.650(1) 0.259(2) 0.0981(7)
C46 C 0.679(1) 0.203(2) 0.0749(8)
C47 C 0.772(1) 0.229(2) 0.4421(7)
C48 C 0.602(1) 0.499(2) 0.5084(7)
C49 C 0.657(1) 0.498(3) 0.5458(9)
C50 C 0.719(1) 0.507(2) 0.5332(8)
C51 C 0.536(1) 0.415(2) 0.4415(6)
C52 C 0.540(1) 0.490(2) 0.4189(8)
C53 C 0.493(1) 0.512(3) 0.387(1)
C54 C 0.455(2) 0.455(2) 0.3763(9)
C55 C 0.448(2) 0.369(3) 0.3974(9)
C56 C 0.492(1) 0.352(2) 0.4338(9)
C57 C 0.570(1) 0.312(2) 0.5118(8)
C58 C 0.525(1) 0.342(2) 0.535(1)
C59 C 0.500(2) 0.279(3) 0.557(1)
C60 C 0.519(2) 0.190(4) 0.558(2)
C61 C 0.568(2) 0.161(2) 0.535(1)
C62 C 0.590(1) 0.229(2) 0.513(1)
C63 C 0.760(1) 0.336(2) 0.5552(9)
C64 C 0.795(1) 0.370(2) 0.5928(7)
C65 C 0.810(2) 0.310(2) 0.622(1)
C66 C 0.794(1) 0.221(2) 0.6158(8)
C67 C 0.756(1) 0.183(2) 0.5813(8)
C68 C 0.746(1) 0.248(2) 0.5497(9)
C69 C 0.817(1) 0.433(2) 0.5004(7)
C70 C 0.819(1) 0.516(2) 0.480(1)
C71 C 0.873(2) 0.533(3) 0.461(1)
C72 C 0.920(1) 0.468(3) 0.472(1)
C73 C 0.912(2) 0.392(2) 0.4960(9)
C74 C 0.863(1) 0.375(2) 0.5089(9)
C45A C 0.850(1) 0.259(2) 0.4019(7)
C44A C 0.674(1) 0.341(2) 0.1079(8)
C47A C 0.728(1) 0.229(2) 0.0579(7)
C46A C 0.821(1) 0.203(2) 0.4251(8)
C3A C 0.902(1) 0.229(2) 0.3850(7)
C43A C 0.723(1) 0.365(2) 0.0867(7)
N4A N 0.7496(8) 0.314(1) 0.0648(5)
C2A C 0.897(1) 0.136(2) 0.3736(8)
C4A C 0.948(1) 0.282(2) 0.3802(7)
Pt2A Pt 0.81948(4) 0.35563(7) 0.04070(3)
C1A C 0.956(1) 0.115(2) 0.3549(8)
C5A C 0.998(1) 0.255(2) 0.3653(7)
P3A P 0.9015(3) 0.3966(5) 0.0180(2)
P4A P 0.7591(3) 0.4071(5) -0.0122(2)
N2A N 0.8701(7) 0.304(1) 0.0913(4)
N1A N 0.9987(7) 0.168(1) 0.3523(5)
C48A C 0.898(1) 0.499(2) -0.0084(7)
C51A C 0.964(1) 0.415(2) 0.0585(6)
C57A C 0.930(1) 0.312(2) -0.0118(8)
C50A C 0.781(1) 0.507(2) -0.0332(8)
C63A C 0.740(1) 0.336(2) -0.0552(9)
C69A C 0.683(1) 0.433(2) -0.0004(7)
C40A C 0.885(1) 0.357(2) 0.1206(8)
C41A C 0.887(1) 0.223(2) 0.0953(8)
Pt1A Pt 1.07138(5) 0.12059(7) 0.33274(3)
C49A C 0.843(1) 0.498(3) -0.0458(9)
C52A C 0.960(1) 0.490(2) 0.0811(8)
C56A C 1.008(1) 0.352(2) 0.0662(9)
C58A C 0.975(1) 0.342(2) -0.035(1)
C62A C 0.910(1) 0.229(2) -0.013(1)
C64A C 0.705(1) 0.370(2) -0.0928(7)
C68A C 0.754(1) 0.248(2) -0.0497(9)
C70A C 0.681(1) 0.516(2) 0.020(1)
C74A C 0.637(1) 0.375(2) -0.0089(9)
C39A C 0.913(1) 0.335(2) 0.1634(8)
C42A C 0.917(1) 0.193(2) 0.1323(7)
P1A P 1.1156(3) 0.0843(5) 0.3941(2)
P2A P 1.1469(3) 0.0720(5) 0.3061(2)
N3A N 1.0276(8) 0.161(1) 0.2780(5)
C53A C 1.007(1) 0.512(3) 0.113(1)
C55A C 1.052(2) 0.369(3) 0.1026(9)
C59A C 1.000(2) 0.279(3) -0.057(1)
C61A C 0.932(2) 0.161(2) -0.035(1)
C65A C 0.690(2) 0.310(2) -0.122(1)
C67A C 0.744(1) 0.183(2) -0.0813(8)
C71A C 0.627(2) 0.533(3) 0.039(1)
C73A C 0.588(2) 0.392(2) 0.0040(9)
C38A C 0.930(1) 0.252(2) 0.1659(7)
C6A C 1.100(1) -0.021(2) 0.4101(8)
C12A C 1.093(1) 0.155(2) 0.4313(7)
C18A C 1.199(1) 0.094(2) 0.4061(8)
C20A C 1.221(1) 0.081(2) 0.3346(7)
C21A C 1.151(1) 0.124(2) 0.2583(8)
C27A C 1.143(1) -0.042(2) 0.2950(8)
C33A C 1.038(1) 0.238(2) 0.2644(9)
C37A C 0.989(1) 0.114(2) 0.2537(8)
C54A C 1.045(2) 0.455(2) 0.1237(9)
C60A C 0.981(2) 0.190(4) -0.058(2)
C66A C 0.706(1) 0.221(2) -0.1158(8)
C72A C 0.580(1) 0.468(3) 0.028(1)
C35A C 0.965(1) 0.222(2) 0.2043(7)
C7A C 1.058(1) -0.070(2) 0.3839(9)
C11A C 1.134(1) -0.046(2) 0.4487(9)
C13A C 1.044(1) 0.122(2) 0.4508(8)
C17A C 1.119(1) 0.242(2) 0.436(1)
C19A C 1.229(1) 0.039(2) 0.3778(9)
C22A C 1.174(1) 0.209(2) 0.260(1)
C26A C 1.131(2) 0.072(3) 0.2226(8)
C28A C 1.089(1) -0.079(2) 0.294(1)
C32A C 1.192(1) -0.087(2) 0.2872(9)
C34A C 1.009(1) 0.276(2) 0.2265(7)
C36A C 0.956(1) 0.137(2) 0.2163(6)
C8A C 1.042(2) -0.155(2) 0.400(1)
C10A C 1.114(1) -0.127(2) 0.4593(9)
C14A C 1.028(1) 0.179(3) 0.479(1)
C16A C 1.100(2) 0.296(2) 0.463(1)
C23A C 1.175(1) 0.250(3) 0.223(1)
C25A C 1.125(1) 0.120(3) 0.1864(9)
C29A C 1.077(2) -0.170(3) 0.275(1)
C31A C 1.181(2) -0.181(3) 0.277(1)
C9A C 1.068(2) -0.183(3) 0.436(1)
C15A C 1.054(2) 0.263(3) 0.486(1)
C24A C 1.148(1) 0.198(3) 0.1859(8)
C30A C 1.132(2) -0.208(3) 0.273(1)
loop_
_geom_bond_atom_site_label_1
_geom_bond_atom_site_label_2
_geom_bond_site_symmetry_1
_geom_bond_site_symmetry_2
Pt1 P1 1_555 1_555
Pt2 P3 1_555 1_555
P1 C6 1_555 1_555
P2 Pt1 1_555 1_555
P3 C48 1_555 1_555
P4 Pt2 1_555 1_555
N1 Pt1 1_555 1_555
N2 Pt2 1_555 1_555
N3 Pt1 1_555 1_555
N4 Pt2 1_555 1_555
C1 N1 1_555 1_555
C2 C1 1_555 1_555
C3 C2 1_555 1_555
C4 C3 1_555 1_555
C5 N1 1_555 1_555
C6 C7 1_555 1_555
C7 C8 1_555 1_555
C8 C9 1_555 1_555
C9 C10 1_555 1_555
C10 C11 1_555 1_555
C11 C6 1_555 1_555
C12 P1 1_555 1_555
C13 C12 1_555 1_555
C14 C13 1_555 1_555
C15 C14 1_555 1_555
C16 C15 1_555 1_555
C17 C12 1_555 1_555
C18 P1 1_555 1_555
C19 C18 1_555 1_555
C20 P2 1_555 1_555
C21 P2 1_555 1_555
C22 C21 1_555 1_555
C23 C22 1_555 1_555
C24 C23 1_555 1_555
C25 C24 1_555 1_555
C26 C21 1_555 1_555
C27 P2 1_555 1_555
C28 C27 1_555 1_555
C29 C28 1_555 1_555
C30 C29 1_555 1_555
C31 C30 1_555 1_555
C32 C27 1_555 1_555
C33 N3 1_555 1_555
C34 C33 1_555 1_555
C35 C34 1_555 1_555
C36 C35 1_555 1_555
C37 N3 1_555 1_555
C38 C35 1_555 1_555
C39 C38 1_555 1_555
C40 N2 1_555 1_555
C41 N2 1_555 1_555
C42 C38 1_555 1_555
C43 N4 1_555 1_555
C44 C43 1_555 1_555
C45 C3 1_555 1_555
C46 C45 1_555 1_555
C47 N4 1_555 1_555
C48 C49 1_555 1_555
C49 C50 1_555 1_555
C50 P4 1_555 1_555
C51 P3 1_555 1_555
C52 C51 1_555 1_555
C53 C52 1_555 1_555
C54 C53 1_555 1_555
C55 C54 1_555 1_555
C56 C51 1_555 1_555
C57 P3 1_555 1_555
C58 C57 1_555 1_555
C59 C58 1_555 1_555
C60 C59 1_555 1_555
C61 C60 1_555 1_555
C62 C57 1_555 1_555
C63 P4 1_555 1_555
C64 C63 1_555 1_555
C65 C64 1_555 1_555
C66 C65 1_555 1_555
C67 C66 1_555 1_555
C68 C63 1_555 1_555
C69 P4 1_555 1_555
C70 C69 1_555 1_555
C71 C70 1_555 1_555
C72 C71 1_555 1_555
C73 C72 1_555 1_555
C74 C69 1_555 1_555
C45A C44 1_555 1_555
C44A C45 1_555 1_555
C47A C46 1_555 1_555
C46A C47 1_555 1_555
C3A C45A 1_555 1_555
C43A C44A 1_555 1_555
N4A C47A 1_555 1_555
C2A C3A 1_555 1_555
C4A C3A 1_555 1_555
Pt2A N4A 1_555 1_555
C1A C2A 1_555 1_555
C5A C4A 1_555 1_555
P3A Pt2A 1_555 1_555
P4A Pt2A 1_555 1_555
N2A Pt2A 1_555 1_555
N1A C1A 1_555 1_555
C48A P3A 1_555 1_555
C51A P3A 1_555 1_555
C57A P3A 1_555 1_555
C50A P4A 1_555 1_555
C63A P4A 1_555 1_555
C69A P4A 1_555 1_555
C40A N2A 1_555 1_555
C41A N2A 1_555 1_555
Pt1A N1A 1_555 1_555
C49A C48A 1_555 1_555
C52A C51A 1_555 1_555
C56A C51A 1_555 1_555
C58A C57A 1_555 1_555
C62A C57A 1_555 1_555
C64A C63A 1_555 1_555
C68A C63A 1_555 1_555
C70A C69A 1_555 1_555
C74A C69A 1_555 1_555
C39A C40A 1_555 1_555
C42A C41A 1_555 1_555
P1A Pt1A 1_555 1_555
P2A Pt1A 1_555 1_555
N3A Pt1A 1_555 1_555
C53A C52A 1_555 1_555
C55A C56A 1_555 1_555
C59A C58A 1_555 1_555
C61A C62A 1_555 1_555
C65A C64A 1_555 1_555
C67A C68A 1_555 1_555
C71A C70A 1_555 1_555
C73A C74A 1_555 1_555
C38A C39A 1_555 1_555
C6A P1A 1_555 1_555
C12A P1A 1_555 1_555
C18A P1A 1_555 1_555
C20A P2A 1_555 1_555
C21A P2A 1_555 1_555
C27A P2A 1_555 1_555
C33A N3A 1_555 1_555
C37A N3A 1_555 1_555
C54A C53A 1_555 1_555
C60A C59A 1_555 1_555
C66A C65A 1_555 1_555
C72A C71A 1_555 1_555
C35A C38A 1_555 1_555
C7A C6A 1_555 1_555
C11A C6A 1_555 1_555
C13A C12A 1_555 1_555
C17A C12A 1_555 1_555
C19A C18A 1_555 1_555
C22A C21A 1_555 1_555
C26A C21A 1_555 1_555
C28A C27A 1_555 1_555
C32A C27A 1_555 1_555
C34A C33A 1_555 1_555
C36A C37A 1_555 1_555
C8A C7A 1_555 1_555
C10A C11A 1_555 1_555
C14A C13A 1_555 1_555
C16A C17A 1_555 1_555
C23A C22A 1_555 1_555
C25A C26A 1_555 1_555
C29A C28A 1_555 1_555
C31A C32A 1_555 1_555
C9A C8A 1_555 1_555
C15A C14A 1_555 1_555
C24A C23A 1_555 1_555
C30A C29A 1_555 1_555
C4 C5 1_555 1_555
C16 C17 1_555 1_555
C19 C20 1_555 1_555
C25 C26 1_555 1_555
C31 C32 1_555 1_555
C36 C37 1_555 1_555
C39 C40 1_555 1_555
C41 C42 1_555 1_555
C55 C56 1_555 1_555
C61 C62 1_555 1_555
C67 C68 1_555 1_555
C73 C74 1_555 1_555
C45A C46A 1_555 1_555
C43A N4A 1_555 1_555
C5A N1A 1_555 1_555
C50A C49A 1_555 1_555
C42A C38A 1_555 1_555
C55A C54A 1_555 1_555
C61A C60A 1_555 1_555
C67A C66A 1_555 1_555
C73A C72A 1_555 1_555
C20A C19A 1_555 1_555
C35A C34A 1_555 1_555
C35A C36A 1_555 1_555
C10A C9A 1_555 1_555
C16A C15A 1_555 1_555
C25A C24A 1_555 1_555
C31A C30A 1_555 1_555

#END
