
#######################################################################
#
#                 Cambridge Crystallographic Data Centre
#                                CCDC 
#
#######################################################################
#
# If this CIF has been generated from an entry in the Cambridge 
# Structural Database, then it will include bibliographic, chemical, 
# crystal, experimental, refinement or atomic coordinate data resulting 
# from the CCDC's data processing and validation procedures.
#
#######################################################################

data_ZAKRUB
_chemical_formula_moiety         'C150 H174 Cu4 N10 O26,3(C3 H7 N1 O1)'
_chemical_name_systematic        
'bis(\m-5,10,15,20-Tetramethyl-5,10,15,20-tetrakis(4-[(5-carboxylatopentyl)oxy]phenyl)calix(4)pyrrole)-bis(N,N-dimethylformamide)-tetra-copper N,N-dimethylformamide solvate'
_symmetry_cell_setting           triclinic
_symmetry_space_group_name_H-M   'P -1'
_symmetry_Int_Tables_number      2
_space_group_name_Hall           '-P 1'
loop_
_symmetry_equiv_pos_site_id
_symmetry_equiv_pos_as_xyz
1 x,y,z
2 -x,-y,-z
_cell_length_a                   17.8930(4)
_cell_length_b                   20.4413(5)
_cell_length_c                   21.0342(5)
_cell_angle_alpha                79.281(2)
_cell_angle_beta                 84.283(2)
_cell_angle_gamma                75.326(2)
_cell_volume                     7301.43
_exptl_crystal_colour            blue
_exptl_crystal_description       Block
_cell_formula_units_Z            2
loop_
_atom_site_label
_atom_site_type_symbol
_atom_site_fract_x
_atom_site_fract_y
_atom_site_fract_z
Cu1 Cu 0.31386(2) 0.61348(2) -0.07784(2)
Cu2 Cu 0.43327(2) 0.57226(2) -0.00539(2)
N1 N 0.05892(15) 0.76735(13) 0.53219(12)
H1 H 0.1005 0.7355 0.5299
N2 N 0.09759(15) 0.60594(13) 0.58064(13)
H2 H 0.1221 0.6173 0.5447
N3 N 0.28152(15) 0.61309(13) 0.60824(12)
H3 H 0.2615 0.6303 0.5715
N4 N 0.24126(15) 0.77306(13) 0.54877(12)
H4 H 0.2364 0.7438 0.5259
N5 N 0.14834(17) 0.68810(15) -0.22494(14)
O1 O 0.24816(14) 0.82496(12) 0.24635(11)
O2 O 0.01596(12) 0.62972(11) 0.28890(10)
O3 O 0.30753(13) 0.44974(12) 0.37688(11)
O4 O 0.50411(13) 0.62731(11) 0.35597(11)
O5 O 0.30715(13) 0.70065(11) -0.04672(11)
O6 O 0.40438(13) 0.66198(11) 0.02071(11)
O7 O 0.25570(12) 0.58176(11) -0.00007(10)
O8 O 0.35926(13) 0.54177(11) 0.06126(10)
O9 O 0.51326(13) 0.38849(11) 0.08391(10)
O10 O 0.61381(13) 0.35962(12) 0.14805(11)
O11 O 0.54498(12) 0.51493(10) 0.03976(10)
O12 O 0.65073(12) 0.48162(11) 0.09738(10)
O13 O 0.21374(13) 0.64617(12) -0.13348(11)
C1 C 0.12721(19) 0.86443(15) 0.50286(16)
C2 C 0.05658(19) 0.83647(16) 0.52344(16)
C3 C -0.0197(2) 0.86893(17) 0.53061(17)
H5 H -0.0391 0.9161 0.5270
C4 C -0.0642(2) 0.82015(17) 0.54421(17)
H6 H -0.1177 0.8292 0.5514
C5 C -0.01439(18) 0.75632(17) 0.54506(15)
C6 C -0.03114(18) 0.68723(16) 0.54821(15)
C7 C 0.01970(19) 0.63326(16) 0.59545(16)
C8 C 0.0047(2) 0.60347(17) 0.65776(16)
H7 H -0.0427 0.6124 0.6811
C9 C 0.0729(2) 0.55721(17) 0.68045(16)
H8 H 0.0784 0.5306 0.7215
C10 C 0.12985(19) 0.55790(16) 0.63197(15)
C11 C 0.21312(19) 0.51681(16) 0.63004(15)
C12 C 0.26593(19) 0.55649(15) 0.64899(15)
C13 C 0.3075(2) 0.54722(17) 0.70224(16)
H9 H 0.3076 0.5131 0.7383
C14 C 0.3506(2) 0.59806(17) 0.69387(16)
H10 H 0.3838 0.6031 0.7230
C15 C 0.33405(18) 0.63845(16) 0.63473(15)
C16 C 0.36436(19) 0.69788(16) 0.59810(15)
C17 C 0.29986(19) 0.76270(16) 0.58984(15)
C18 C 0.2857(2) 0.81936(19) 0.6181(2)
H11 H 0.3154 0.8264 0.6489
C19 C 0.2179(2) 0.86618(19) 0.5927(2)
H12 H 0.1956 0.9092 0.6038
C20 C 0.1915(2) 0.83644(16) 0.54915(16)
C21 C 0.1024(2) 0.94292(16) 0.50009(18)
H13 H 0.1462 0.9622 0.4865
H14 H 0.0828 0.9530 0.5423
H15 H 0.0627 0.9623 0.4698
C22 C 0.15882(19) 0.85144(16) 0.43418(16)
C23 C 0.1175(2) 0.82896(17) 0.39338(16)
H16 H 0.0701 0.8196 0.4087
C24 C 0.1445(2) 0.81998(17) 0.33066(17)
H17 H 0.1152 0.8052 0.3046
C25 C 0.2143(2) 0.83295(17) 0.30739(16)
C26 C 0.2568(2) 0.8556(2) 0.34728(19)
H18 H 0.3044 0.8646 0.3320
C27 C 0.2287(2) 0.86470(18) 0.40911(17)
H19 H 0.2577 0.8803 0.4348
C28 C -0.11679(19) 0.69189(18) 0.57284(17)
H20 H -0.1288 0.6484 0.5741
H21 H -0.1501 0.7265 0.5441
H22 H -0.1245 0.7036 0.6156
C29 C -0.02129(18) 0.66909(16) 0.47932(15)
C30 C -0.00692(18) 0.60202(17) 0.46765(16)
H23 H -0.0030 0.5664 0.5028
C31 C 0.00177(18) 0.58632(17) 0.40539(15)
H24 H 0.0099 0.5411 0.3993
C32 C -0.00177(18) 0.63886(17) 0.35230(15)
C33 C -0.02168(18) 0.70634(17) 0.36275(16)
H25 H -0.0284 0.7420 0.3276
C34 C -0.03161(18) 0.72092(17) 0.42531(16)
H26 H -0.0455 0.7665 0.4314
C35 C 0.2198(2) 0.44922(17) 0.67801(16)
H27 H 0.2715 0.4213 0.6748
H28 H 0.1840 0.4252 0.6679
H29 H 0.2080 0.4589 0.7213
C36 C 0.23719(19) 0.49819(15) 0.56141(15)
C37 C 0.31288(19) 0.49378(16) 0.53490(16)
H30 H 0.3497 0.5017 0.5589
C38 C 0.3337(2) 0.47782(16) 0.47337(16)
H31 H 0.3838 0.4768 0.4560
C39 C 0.2809(2) 0.46340(16) 0.43759(16)
C40 C 0.2066(2) 0.46378(16) 0.46440(16)
H32 H 0.1710 0.4525 0.4416
C41 C 0.18620(19) 0.48115(16) 0.52574(16)
H33 H 0.1364 0.4813 0.5434
C42 C 0.4277(2) 0.70959(18) 0.63577(17)
H34 H 0.4470 0.7474 0.6122
H35 H 0.4691 0.6690 0.6411
H36 H 0.4064 0.7197 0.6776
C43 C 0.40140(18) 0.68112(16) 0.53155(16)
C44 C 0.40395(18) 0.73198(16) 0.47813(16)
H37 H 0.3817 0.7775 0.4821
C45 C 0.43878(19) 0.71667(17) 0.41904(16)
H38 H 0.4399 0.7518 0.3840
C46 C 0.47171(18) 0.64953(16) 0.41214(16)
C47 C 0.47194(18) 0.59795(16) 0.46548(16)
H39 H 0.4953 0.5526 0.4616
C48 C 0.43762(18) 0.61358(16) 0.52425(16)
H40 H 0.4386 0.5786 0.5596
C49 C 0.2027(2) 0.80872(19) 0.20176(16)
H41 H 0.1518 0.8398 0.2008
H42 H 0.1966 0.7623 0.2155
C50 C 0.2429(2) 0.81535(18) 0.13553(17)
H43 H 0.2495 0.8618 0.1230
H44 H 0.2101 0.8080 0.1048
C51 C 0.3215(2) 0.76546(18) 0.13120(17)
H45 H 0.3140 0.7200 0.1316
H46 H 0.3492 0.7635 0.1691
C52 C 0.3706(2) 0.78489(18) 0.07071(18)
H47 H 0.3750 0.8315 0.0692
H48 H 0.4222 0.7551 0.0744
C53 C 0.3402(2) 0.78042(17) 0.00743(18)
H49 H 0.3658 0.8061 -0.0276
H50 H 0.2854 0.8026 0.0076
C54 C 0.35077(19) 0.70864(16) -0.00687(16)
C55 C 0.04891(19) 0.56086(16) 0.27620(16)
H51 H 0.0083 0.5368 0.2778
H52 H 0.0851 0.5359 0.3088
C56 C 0.09025(19) 0.56513(17) 0.20957(16)
H53 H 0.1092 0.5192 0.1995
H54 H 0.0534 0.5909 0.1777
C57 C 0.15729(19) 0.59866(17) 0.20389(16)
H55 H 0.1947 0.5719 0.2349
H56 H 0.1384 0.6438 0.2159
C58 C 0.1988(2) 0.60641(17) 0.13684(16)
H57 H 0.1622 0.6355 0.1063
H58 H 0.2394 0.6297 0.1382
C59 C 0.23453(19) 0.53973(16) 0.11140(15)
H59 H 0.2634 0.5063 0.1447
H60 H 0.1942 0.5211 0.0994
C60 C 0.28798(19) 0.55437(16) 0.05273(16)
C61 C 0.2577(2) 0.43155(18) 0.33726(16)
H61 H 0.2078 0.4643 0.3357
H62 H 0.2497 0.3863 0.3548
C62 C 0.2971(2) 0.43216(18) 0.27008(16)
H63 H 0.2616 0.4254 0.2413
H64 H 0.3068 0.4772 0.2548
C63 C 0.3722(2) 0.37919(18) 0.26510(16)
H65 H 0.3618 0.3340 0.2723
H66 H 0.4050 0.3804 0.2987
C64 C 0.4142(2) 0.39132(17) 0.19971(15)
H67 H 0.4208 0.4379 0.1914
H68 H 0.3825 0.3870 0.1666
C65 C 0.49293(19) 0.34207(17) 0.19422(15)
H69 H 0.5190 0.3365 0.2339
H70 H 0.4856 0.2976 0.1902
C66 C 0.5443(2) 0.36490(16) 0.13761(15)
C67 C 0.5112(2) 0.67714(18) 0.30025(16)
H71 H 0.5471 0.7034 0.3069
H72 H 0.4614 0.7084 0.2910
C68 C 0.5412(2) 0.63765(18) 0.24495(17)
H73 H 0.5853 0.6007 0.2587
H74 H 0.5588 0.6680 0.2088
C69 C 0.48053(19) 0.60763(18) 0.22219(17)
H75 H 0.4547 0.5858 0.2599
H76 H 0.4419 0.6448 0.1999
C70 C 0.5127(2) 0.55617(17) 0.17790(17)
H77 H 0.4702 0.5414 0.1645
H78 H 0.5461 0.5163 0.2022
C71 C 0.55947(19) 0.58235(16) 0.11615(15)
H79 H 0.5266 0.6203 0.0891
H80 H 0.6025 0.5976 0.1279
C72 C 0.58806(18) 0.52278(16) 0.08119(14)
C73 C 0.2113(2) 0.66950(18) -0.19123(18)
H81 H 0.2576 0.6747 -0.2135
C74 C 0.1481(2) 0.7141(2) -0.29383(18)
H82 H 0.1274 0.6856 -0.3153
H83 H 0.2000 0.7139 -0.3107
H84 H 0.1166 0.7602 -0.3012
C75 C 0.0754(2) 0.6801(3) -0.1931(2)
H85 H 0.0489 0.6613 -0.2201
H86 H 0.0443 0.7240 -0.1856
H87 H 0.0843 0.6497 -0.1525
Cu1A Cu 0.68614(2) 0.38652(2) 0.07784(2)
Cu2A Cu 0.56673(2) 0.42774(2) 0.00539(2)
N1A N 0.94108(15) 0.23265(13) -0.53219(12)
H1A H 0.8995 0.2645 -0.5299
N2A N 0.90241(15) 0.39406(13) -0.58064(13)
H2A H 0.8779 0.3827 -0.5447
N3A N 0.71848(15) 0.38691(13) -0.60824(12)
H3A H 0.7385 0.3697 -0.5715
N4A N 0.75874(15) 0.22694(13) -0.54877(12)
H4A H 0.7636 0.2562 -0.5259
N5A N 0.85166(17) 0.31190(15) 0.22494(14)
O1A O 0.75184(14) 0.17504(12) -0.24635(11)
O2A O 0.98404(12) 0.37028(11) -0.28890(10)
O3A O 0.69247(13) 0.55026(12) -0.37688(11)
O4A O 0.49589(13) 0.37269(11) -0.35597(11)
O5A O 0.69285(13) 0.29935(11) 0.04672(11)
O6A O 0.59562(13) 0.33802(11) -0.02071(11)
O7A O 0.74430(12) 0.41824(11) 0.00007(10)
O8A O 0.64074(13) 0.45823(11) -0.06126(10)
O9A O 0.48674(13) 0.61151(11) -0.08391(10)
O10A O 0.38619(13) 0.64038(12) -0.14805(11)
O11A O 0.45502(12) 0.48507(10) -0.03976(10)
O12A O 0.34927(12) 0.51838(11) -0.09738(10)
O13A O 0.78626(13) 0.35383(12) 0.13348(11)
C1A C 0.87279(19) 0.13557(15) -0.50286(16)
C2A C 0.94342(19) 0.16353(16) -0.52344(16)
C3A C 1.0197(2) 0.13107(17) -0.53061(17)
H5A H 1.0391 0.0839 -0.5270
C4A C 1.0642(2) 0.17985(17) -0.54421(17)
H6A H 1.1177 0.1708 -0.5514
C5A C 1.01439(18) 0.24368(17) -0.54506(15)
C6A C 1.03114(18) 0.31277(16) -0.54821(15)
C7A C 0.98030(19) 0.36674(16) -0.59545(16)
C8A C 0.9953(2) 0.39653(17) -0.65776(16)
H7A H 1.0427 0.3876 -0.6811
C9A C 0.9271(2) 0.44279(17) -0.68045(16)
H8A H 0.9216 0.4694 -0.7215
C10A C 0.87015(19) 0.44210(16) -0.63197(15)
C11A C 0.78688(19) 0.48319(16) -0.63004(15)
C12A C 0.73407(19) 0.44351(15) -0.64899(15)
C13A C 0.6925(2) 0.45278(17) -0.70224(16)
H9A H 0.6924 0.4869 -0.7383
C14A C 0.6494(2) 0.40194(17) -0.69387(16)
H10A H 0.6162 0.3969 -0.7230
C15A C 0.66595(18) 0.36155(16) -0.63473(15)
C16A C 0.63564(19) 0.30212(16) -0.59810(15)
C17A C 0.70014(19) 0.23730(16) -0.58984(15)
C18A C 0.7143(2) 0.18064(19) -0.6181(2)
H11A H 0.6846 0.1736 -0.6489
C19A C 0.7821(2) 0.13382(19) -0.5927(2)
H12A H 0.8044 0.0908 -0.6038
C20A C 0.8085(2) 0.16356(16) -0.54915(16)
C21A C 0.8976(2) 0.05708(16) -0.50009(18)
H13A H 0.8538 0.0378 -0.4865
H14A H 0.9172 0.0470 -0.5423
H15A H 0.9373 0.0377 -0.4698
C22A C 0.84118(19) 0.14856(16) -0.43418(16)
C23A C 0.8825(2) 0.17104(17) -0.39338(16)
H16A H 0.9299 0.1804 -0.4087
C24A C 0.8555(2) 0.18002(17) -0.33066(17)
H17A H 0.8848 0.1948 -0.3046
C25A C 0.7857(2) 0.16705(17) -0.30739(16)
C26A C 0.7432(2) 0.1444(2) -0.34728(19)
H18A H 0.6956 0.1354 -0.3320
C27A C 0.7713(2) 0.13530(18) -0.40911(17)
H19A H 0.7423 0.1197 -0.4348
C28A C 1.11679(19) 0.30811(18) -0.57284(17)
H20A H 1.1288 0.3516 -0.5741
H21A H 1.1501 0.2735 -0.5441
H22A H 1.1245 0.2964 -0.6156
C29A C 1.02129(18) 0.33091(16) -0.47932(15)
C30A C 1.00692(18) 0.39798(17) -0.46765(16)
H23A H 1.0030 0.4336 -0.5028
C31A C 0.99823(18) 0.41368(17) -0.40539(15)
H24A H 0.9901 0.4589 -0.3993
C32A C 1.00177(18) 0.36114(17) -0.35230(15)
C33A C 1.02168(18) 0.29366(17) -0.36275(16)
H25A H 1.0284 0.2580 -0.3276
C34A C 1.03161(18) 0.27908(17) -0.42531(16)
H26A H 1.0455 0.2335 -0.4314
C35A C 0.7802(2) 0.55078(17) -0.67801(16)
H27A H 0.7285 0.5787 -0.6748
H28A H 0.8160 0.5748 -0.6679
H29A H 0.7920 0.5411 -0.7213
C36A C 0.76281(19) 0.50181(15) -0.56141(15)
C37A C 0.68712(19) 0.50622(16) -0.53490(16)
H30A H 0.6503 0.4983 -0.5589
C38A C 0.6663(2) 0.52218(16) -0.47337(16)
H31A H 0.6162 0.5232 -0.4560
C39A C 0.7191(2) 0.53660(16) -0.43759(16)
C40A C 0.7934(2) 0.53622(16) -0.46440(16)
H32A H 0.8290 0.5475 -0.4416
C41A C 0.81380(19) 0.51885(16) -0.52574(16)
H33A H 0.8636 0.5187 -0.5434
C42A C 0.5723(2) 0.29041(18) -0.63577(17)
H34A H 0.5530 0.2526 -0.6122
H35A H 0.5309 0.3310 -0.6411
H36A H 0.5936 0.2803 -0.6776
C43A C 0.59860(18) 0.31888(16) -0.53155(16)
C44A C 0.59605(18) 0.26802(16) -0.47813(16)
H37A H 0.6183 0.2225 -0.4821
C45A C 0.56122(19) 0.28333(17) -0.41904(16)
H38A H 0.5601 0.2482 -0.3840
C46A C 0.52829(18) 0.35047(16) -0.41214(16)
C47A C 0.52806(18) 0.40205(16) -0.46548(16)
H39A H 0.5047 0.4474 -0.4616
C48A C 0.56238(18) 0.38642(16) -0.52425(16)
H40A H 0.5614 0.4214 -0.5596
C49A C 0.7973(2) 0.19128(19) -0.20176(16)
H41A H 0.8482 0.1602 -0.2008
H42A H 0.8034 0.2377 -0.2155
C50A C 0.7571(2) 0.18465(18) -0.13553(17)
H43A H 0.7505 0.1382 -0.1230
H44A H 0.7899 0.1920 -0.1048
C51A C 0.6785(2) 0.23454(18) -0.13120(17)
H45A H 0.6860 0.2800 -0.1316
H46A H 0.6508 0.2365 -0.1691
C52A C 0.6294(2) 0.21511(18) -0.07071(18)
H47A H 0.6250 0.1685 -0.0692
H48A H 0.5778 0.2449 -0.0744
C53A C 0.6598(2) 0.21958(17) -0.00743(18)
H49A H 0.6342 0.1939 0.0276
H50A H 0.7146 0.1974 -0.0076
C54A C 0.64923(19) 0.29136(16) 0.00687(16)
C55A C 0.95109(19) 0.43914(16) -0.27620(16)
H51A H 0.9917 0.4632 -0.2778
H52A H 0.9149 0.4641 -0.3088
C56A C 0.90975(19) 0.43487(17) -0.20957(16)
H53A H 0.8908 0.4808 -0.1995
H54A H 0.9466 0.4091 -0.1777
C57A C 0.84271(19) 0.40134(17) -0.20389(16)
H55A H 0.8053 0.4281 -0.2349
H56A H 0.8616 0.3562 -0.2159
C58A C 0.8012(2) 0.39359(17) -0.13684(16)
H57A H 0.8378 0.3645 -0.1063
H58A H 0.7606 0.3703 -0.1382
C59A C 0.76547(19) 0.46027(16) -0.11140(15)
H59A H 0.7366 0.4937 -0.1447
H60A H 0.8058 0.4789 -0.0994
C60A C 0.71202(19) 0.44563(16) -0.05273(16)
C61A C 0.7423(2) 0.56845(18) -0.33726(16)
H61A H 0.7922 0.5357 -0.3357
H62A H 0.7503 0.6137 -0.3548
C62A C 0.7029(2) 0.56784(18) -0.27008(16)
H63A H 0.7384 0.5746 -0.2413
H64A H 0.6932 0.5228 -0.2548
C63A C 0.6278(2) 0.62081(18) -0.26510(16)
H65A H 0.6382 0.6660 -0.2723
H66A H 0.5950 0.6196 -0.2987
C64A C 0.5858(2) 0.60868(17) -0.19971(15)
H67A H 0.5792 0.5621 -0.1914
H68A H 0.6175 0.6130 -0.1666
C65A C 0.50707(19) 0.65793(17) -0.19422(15)
H69A H 0.4810 0.6635 -0.2339
H70A H 0.5144 0.7024 -0.1902
C66A C 0.4557(2) 0.63510(16) -0.13761(15)
C67A C 0.4888(2) 0.32286(18) -0.30025(16)
H71A H 0.4529 0.2966 -0.3069
H72A H 0.5386 0.2916 -0.2910
C68A C 0.4588(2) 0.36235(18) -0.24495(17)
H73A H 0.4147 0.3993 -0.2587
H74A H 0.4412 0.3320 -0.2088
C69A C 0.51947(19) 0.39237(18) -0.22219(17)
H75A H 0.5453 0.4142 -0.2599
H76A H 0.5581 0.3552 -0.1999
C70A C 0.4873(2) 0.44383(17) -0.17790(17)
H77A H 0.5298 0.4586 -0.1645
H78A H 0.4539 0.4837 -0.2022
C71A C 0.44053(19) 0.41765(16) -0.11615(15)
H79A H 0.4734 0.3797 -0.0891
H80A H 0.3975 0.4024 -0.1279
C72A C 0.41194(18) 0.47722(16) -0.08119(14)
C73A C 0.7887(2) 0.33050(18) 0.19123(18)
H81A H 0.7424 0.3253 0.2135
C74A C 0.8519(2) 0.2859(2) 0.29383(18)
H82A H 0.8726 0.3144 0.3153
H83A H 0.8000 0.2861 0.3107
H84A H 0.8834 0.2398 0.3012
C75A C 0.9246(2) 0.3199(3) 0.1931(2)
H85A H 0.9511 0.3387 0.2201
H86A H 0.9557 0.2760 0.1856
H87A H 0.9157 0.3503 0.1525
Cu3 Cu 0.32456(2) 1.10088(2) 0.40744(2)
Cu4 Cu 0.44775(2) 1.07413(2) 0.47155(2)
N6 N 0.91525(15) 0.85533(13) -0.05298(12)
H88 H 0.8835 0.8458 -0.0212
N7 N 0.73445(15) 0.85650(13) -0.07952(13)
H89 H 0.7478 0.8480 -0.0401
N8 N 0.75343(16) 0.70574(14) 0.00842(13)
H90 H 0.7660 0.7406 0.0178
N9 N 0.93159(15) 0.70481(13) 0.03688(13)
H91 H 0.8955 0.7400 0.0437
N10 N 0.11889(19) 1.09503(19) 0.32716(16)
O14 O 0.70471(14) 1.07264(12) 0.10645(12)
O15 O 0.98686(13) 0.87029(11) 0.24070(11)
O16 O 0.72612(14) 0.75522(13) 0.29738(12)
O17 O 0.48234(16) 0.91457(15) 0.14788(12)
O18 O 0.62444(13) 0.93102(12) 0.45384(11)
O19 O 0.72839(13) 0.92687(12) 0.50828(11)
O20 O 0.68862(14) 0.80731(12) 0.57124(12)
O21 O 0.57110(14) 0.82824(12) 0.53208(12)
O22 O 0.45427(12) 0.97691(11) 0.46565(10)
O23 O 0.36065(13) 1.00246(12) 0.39610(11)
O24 O 0.22524(15) 1.12331(14) 0.35227(12)
C76 C 0.81300(18) 0.94593(16) -0.11656(16)
C77 C 0.89502(19) 0.90287(16) -0.10786(15)
C78 C 0.9617(2) 0.90214(17) -0.14629(16)
H92 H 0.9658 0.9290 -0.1868
C79 C 1.0232(2) 0.85383(17) -0.11412(16)
H93 H 1.0746 0.8434 -0.1297
C80 C 0.99384(18) 0.82498(16) -0.05594(15)
C81 C 1.03313(18) 0.77286(16) -0.00109(15)
C82 C 1.00513(18) 0.70711(16) 0.01043(15)
C83 C 1.0436(2) 0.64084(16) 0.00599(16)
H94 H 1.0941 0.6266 -0.0107
C84 C 0.9930(2) 0.59790(17) 0.03127(16)
H95 H 1.0045 0.5505 0.0341
C85 C 0.9244(2) 0.63814(17) 0.05074(16)
C86 C 0.84963(19) 0.61979(16) 0.08127(17)
C87 C 0.7887(2) 0.63815(16) 0.03172(16)
C88 C 0.7536(2) 0.59889(18) 0.00440(18)
H96 H 0.7657 0.5512 0.0105
C89 C 0.6953(2) 0.64364(19) -0.03504(18)
H97 H 0.6626 0.6302 -0.0590
C90 C 0.6955(2) 0.71001(18) -0.03184(17)
C91 C 0.6421(2) 0.77767(18) -0.05792(17)
C92 C 0.6852(2) 0.82578(17) -0.10260(16)
C93 C 0.6807(2) 0.85152(19) -0.16756(17)
H98 H 0.6521 0.8396 -0.1963
C94 C 0.7271(2) 0.89917(18) -0.18304(16)
H99 H 0.7344 0.9241 -0.2239
C95 C 0.75977(19) 0.90287(17) -0.12800(16)
C96 C 0.8132(2) 1.00259(18) -0.17671(16)
H100 H 0.7618 1.0311 -0.1819
H101 H 0.8304 0.9818 -0.2146
H102 H 0.8475 1.0301 -0.1709
C97 C 0.78470(19) 0.98166(16) -0.05699(16)
C98 C 0.8353(2) 1.00263(16) -0.02428(16)
H103 H 0.8872 0.9946 -0.0387
C99 C 0.8121(2) 1.03533(17) 0.02948(17)
H104 H 0.8476 1.0490 0.0503
C100 C 0.7346(2) 1.04714(16) 0.05139(17)
C101 C 0.6817(2) 1.03026(17) 0.01642(17)
H105 H 0.6295 1.0403 0.0295
C102 C 0.7062(2) 0.99898(16) -0.03722(16)
H106 H 0.6700 0.9893 -0.0606
C103 C 1.12131(18) 0.75492(17) -0.01932(17)
H107 H 1.1480 0.7237 0.0158
H108 H 1.1398 0.7961 -0.0276
H109 H 1.1307 0.7339 -0.0575
C104 C 1.02208(17) 0.80244(16) 0.06248(15)
C105 C 1.02478(18) 0.75840(17) 0.12175(16)
H110 H 1.0331 0.7115 0.1223
C106 C 1.01542(18) 0.78255(17) 0.17953(16)
H111 H 1.0175 0.7520 0.2184
C107 C 1.00287(18) 0.85225(17) 0.18021(16)
C108 C 1.00533(19) 0.89709(17) 0.12234(16)
H112 H 1.0013 0.9434 0.1222
C109 C 1.01400(17) 0.87160(16) 0.06393(16)
H113 H 1.0143 0.9018 0.0250
C110 C 0.8664(2) 0.54169(17) 0.10617(18)
H114 H 0.8201 0.5300 0.1267
H115 H 0.9060 0.5291 0.1369
H116 H 0.8836 0.5175 0.0704
C111 C 0.81896(19) 0.65685(16) 0.13945(15)
C112 C 0.7394(2) 0.67532(17) 0.15559(17)
H117 H 0.7049 0.6654 0.1307
C113 C 0.7114(2) 0.70816(18) 0.20813(17)
H118 H 0.6583 0.7210 0.2173
C114 C 0.76092(19) 0.72204(17) 0.24698(16)
C115 C 0.83966(19) 0.70293(16) 0.23358(16)
H119 H 0.8738 0.7117 0.2597
C116 C 0.86732(19) 0.67033(16) 0.18032(16)
H120 H 0.9205 0.6571 0.1719
C117 C 0.5814(2) 0.7635(2) -0.09728(19)
H121 H 0.5458 0.8059 -0.1129
H122 H 0.5537 0.7333 -0.0701
H123 H 0.6069 0.7424 -0.1333
C118 C 0.5987(2) 0.81287(18) -0.00131(17)
C119 C 0.5730(2) 0.88395(19) -0.00824(18)
H124 H 0.5817 0.9108 -0.0478
C120 C 0.5349(2) 0.91530(19) 0.04247(18)
H125 H 0.5201 0.9629 0.0371
C121 C 0.5184(2) 0.8769(2) 0.10114(18)
C122 C 0.5404(2) 0.8065(2) 0.10868(18)
H126 H 0.5287 0.7801 0.1476
C123 C 0.5806(2) 0.77453(18) 0.05761(18)
H127 H 0.5954 0.7269 0.0632
O25 O 0.3914(3) 1.1303(3) 0.3354(3)
O26 O 0.5023(6) 1.0893(3) 0.3879(3)
C124 C 0.7545(5) 1.1023(6) 0.1376(3)
H128 H 0.7533 1.1490 0.1168
H129 H 0.8075 1.0752 0.1369
C125 C 0.7191(3) 1.1002(4) 0.2067(3)
H130 H 0.7243 1.0526 0.2269
H131 H 0.7482 1.1203 0.2310
C126 C 0.6343(3) 1.1377(3) 0.2113(3)
H132 H 0.6092 1.1334 0.1740
H133 H 0.6304 1.1860 0.2104
C127 C 0.5924(3) 1.1095(3) 0.2729(2)
H134 H 0.5984 1.0607 0.2746
H135 H 0.6164 1.1154 0.3102
C128 C 0.5085(3) 1.1436(3) 0.2772(2)
H136 H 0.4849 1.1373 0.2399
H137 H 0.5030 1.1925 0.2746
C129 C 0.4644(3) 1.1179(3) 0.3381(3)
C130 C 0.9776(2) 0.93980(18) 0.24780(18)
H138 H 0.9444 0.9702 0.2154
H139 H 1.0274 0.9515 0.2426
C131 C 0.9414(2) 0.9468(2) 0.31527(18)
H140 H 0.9711 0.9111 0.3465
H141 H 0.9441 0.9907 0.3250
C132 C 0.8584(2) 0.94195(19) 0.32266(17)
H142 H 0.8549 0.9025 0.3048
H143 H 0.8277 0.9824 0.2969
C133 C 0.8224(2) 0.93577(17) 0.39156(16)
H144 H 0.8441 0.8905 0.4152
H145 H 0.8349 0.9692 0.4133
C134 C 0.7363(2) 0.94722(19) 0.39208(17)
H146 H 0.7251 0.9185 0.3642
H147 H 0.7153 0.9945 0.3728
C135 C 0.6933(2) 0.93344(16) 0.45700(16)
C136 C 0.7713(2) 0.75229(19) 0.35115(17)
H148 H 0.7976 0.7894 0.3429
H149 H 0.8098 0.7090 0.3582
C137 C 0.7152(2) 0.75909(17) 0.40950(17)
H150 H 0.6745 0.8005 0.4000
H151 H 0.7421 0.7634 0.4458
C138 C 0.6795(2) 0.69762(18) 0.42815(19)
H152 H 0.6567 0.6916 0.3903
H153 H 0.7205 0.6570 0.4400
C139 C 0.6182(2) 0.70220(18) 0.48338(19)
H154 H 0.6009 0.6599 0.4925
H155 H 0.5741 0.7393 0.4698
C140 C 0.6460(2) 0.71430(18) 0.54542(19)
H156 H 0.6181 0.6933 0.5822
H157 H 0.7005 0.6916 0.5484
C141 C 0.6355(2) 0.78889(18) 0.54952(17)
C142 C 0.4550(4) 0.8787(3) 0.2072(3)
H158 H 0.4971 0.8443 0.2281
H159 H 0.4158 0.8565 0.1992
C143 C 0.4209(3) 0.9339(3) 0.2491(2)
H160 H 0.3940 0.9751 0.2217
H161 H 0.3831 0.9183 0.2806
C144 C 0.4811(4) 0.9518(3) 0.2848(3)
H162 H 0.4588 0.9960 0.2980
H163 H 0.5248 0.9567 0.2547
C145 C 0.5115(2) 0.8996(2) 0.34551(18)
H164 H 0.5532 0.9127 0.3612
H165 H 0.5320 0.8554 0.3328
C146 C 0.4494(2) 0.89366(18) 0.40248(18)
H166 H 0.4077 0.8781 0.3887
H167 H 0.4725 0.8604 0.4387
C147 C 0.41794(19) 0.96238(18) 0.42332(16)
C148 C 0.1892(2) 1.0813(2) 0.35423(18)
H168 H 0.2096 1.0369 0.3751
C149 C 0.0842(3) 1.1630(2) 0.2960(2)
H169 H 0.0714 1.1616 0.2531
H170 H 0.1199 1.1915 0.2934
H171 H 0.0380 1.1815 0.3206
C150 C 0.0758(3) 1.0432(3) 0.3348(2)
H172 H 0.0607 1.0398 0.2932
H173 H 0.0305 1.0553 0.3627
H174 H 0.1075 0.9999 0.3536
Cu3A Cu 0.67544(2) 0.89912(2) 0.59256(2)
Cu4A Cu 0.55225(2) 0.92587(2) 0.52845(2)
N6A N 0.08475(15) 1.14467(13) 1.05298(12)
H88A H 0.1165 1.1542 1.0212
N7A N 0.26555(15) 1.14350(13) 1.07952(13)
H89A H 0.2522 1.1520 1.0401
N8A N 0.24657(16) 1.29426(14) 0.99158(13)
H90A H 0.2340 1.2594 0.9822
N9A N 0.06841(15) 1.29519(13) 0.96312(13)
H91A H 0.1045 1.2600 0.9563
N10A N 0.88111(19) 0.90497(19) 0.67284(16)
O14A O 0.29529(14) 0.92736(12) 0.89355(12)
O15A O 0.01314(13) 1.12971(11) 0.75930(11)
O16A O 0.27388(14) 1.24478(13) 0.70262(12)
O17A O 0.51766(16) 1.08543(15) 0.85212(12)
O18A O 0.37556(13) 1.06898(12) 0.54616(11)
O19A O 0.27161(13) 1.07313(12) 0.49172(11)
O20A O 0.31138(14) 1.19269(12) 0.42876(12)
O21A O 0.42890(14) 1.17176(12) 0.46792(12)
O22A O 0.54573(12) 1.02309(11) 0.53435(10)
O23A O 0.63935(13) 0.99754(12) 0.60390(11)
O24A O 0.77476(15) 0.87669(14) 0.64773(12)
C76A C 0.18700(18) 1.05407(16) 1.11656(16)
C77A C 0.10498(19) 1.09713(16) 1.10786(15)
C78A C 0.0383(2) 1.09786(17) 1.14629(16)
H92A H 0.0342 1.0710 1.1868
C79A C -0.0232(2) 1.14617(17) 1.11412(16)
H93A H -0.0746 1.1566 1.1297
C80A C 0.00616(18) 1.17502(16) 1.05594(15)
C81A C -0.03313(18) 1.22714(16) 1.00109(15)
C82A C -0.00513(18) 1.29289(16) 0.98957(15)
C83A C -0.0436(2) 1.35916(16) 0.99401(16)
H94A H -0.0941 1.3734 1.0107
C84A C 0.0070(2) 1.40210(17) 0.96873(16)
H95A H -0.0045 1.4495 0.9659
C85A C 0.0756(2) 1.36186(17) 0.94926(16)
C86A C 0.15037(19) 1.38021(16) 0.91873(17)
C87A C 0.2113(2) 1.36185(16) 0.96828(16)
C88A C 0.2464(2) 1.40111(18) 0.99560(18)
H96A H 0.2343 1.4488 0.9895
C89A C 0.3047(2) 1.35636(19) 1.03504(18)
H97A H 0.3374 1.3698 1.0590
C90A C 0.3045(2) 1.28999(18) 1.03184(17)
C91A C 0.3579(2) 1.22233(18) 1.05792(17)
C92A C 0.3148(2) 1.17422(17) 1.10260(16)
C93A C 0.3193(2) 1.14848(19) 1.16756(17)
H98A H 0.3479 1.1604 1.1963
C94A C 0.2729(2) 1.10083(18) 1.18304(16)
H99A H 0.2656 1.0759 1.2239
C95A C 0.24023(19) 1.09713(17) 1.12800(16)
C96A C 0.1868(2) 0.99741(18) 1.17671(16)
H100A H 0.2382 0.9689 1.1819
H101A H 0.1696 1.0182 1.2146
H102A H 0.1525 0.9699 1.1709
C97A C 0.21530(19) 1.01834(16) 1.05699(16)
C98A C 0.1647(2) 0.99737(16) 1.02428(16)
H103A H 0.1128 1.0054 1.0387
C99A C 0.1879(2) 0.96467(17) 0.97052(17)
H104A H 0.1524 0.9510 0.9497
C100A C 0.2654(2) 0.95286(16) 0.94861(17)
C101A C 0.3183(2) 0.96974(17) 0.98358(17)
H105A H 0.3705 0.9597 0.9705
C102A C 0.2938(2) 1.00102(16) 1.03722(16)
H106A H 0.3300 1.0107 1.0606
C103A C -0.12131(18) 1.24508(17) 1.01932(17)
H107A H -0.1480 1.2763 0.9842
H108A H -0.1398 1.2039 1.0276
H109A H -0.1307 1.2661 1.0575
C104A C -0.02208(17) 1.19756(16) 0.93752(15)
C105A C -0.02478(18) 1.24160(17) 0.87825(16)
H110A H -0.0331 1.2885 0.8777
C106A C -0.01542(18) 1.21745(17) 0.82047(16)
H111A H -0.0175 1.2480 0.7816
C107A C -0.00287(18) 1.14775(17) 0.81979(16)
C108A C -0.00533(19) 1.10291(17) 0.87766(16)
H112A H -0.0013 1.0566 0.8778
C109A C -0.01400(17) 1.12840(16) 0.93607(16)
H113A H -0.0143 1.0982 0.9750
C110A C 0.1336(2) 1.45831(17) 0.89383(18)
H114A H 0.1799 1.4700 0.8733
H115A H 0.0940 1.4709 0.8631
H116A H 0.1164 1.4825 0.9296
C111A C 0.18104(19) 1.34315(16) 0.86055(15)
C112A C 0.2606(2) 1.32468(17) 0.84441(17)
H117A H 0.2951 1.3346 0.8693
C113A C 0.2886(2) 1.29184(18) 0.79187(17)
H118A H 0.3417 1.2790 0.7827
C114A C 0.23908(19) 1.27796(17) 0.75302(16)
C115A C 0.16034(19) 1.29707(16) 0.76642(16)
H119A H 0.1262 1.2883 0.7403
C116A C 0.13268(19) 1.32967(16) 0.81968(16)
H120A H 0.0795 1.3429 0.8281
C117A C 0.4186(2) 1.2365(2) 1.09728(19)
H121A H 0.4542 1.1941 1.1129
H122A H 0.4463 1.2667 1.0701
H123A H 0.3931 1.2576 1.1333
C118A C 0.4013(2) 1.18713(18) 1.00131(17)
C119A C 0.4270(2) 1.11605(19) 1.00824(18)
H124A H 0.4183 1.0892 1.0478
C120A C 0.4651(2) 1.08470(19) 0.95753(18)
H125A H 0.4799 1.0371 0.9629
C121A C 0.4816(2) 1.1231(2) 0.89886(18)
C122A C 0.4596(2) 1.1935(2) 0.89132(18)
H126A H 0.4713 1.2199 0.8524
C123A C 0.4194(2) 1.22547(18) 0.94239(18)
H127A H 0.4046 1.2731 0.9368
O25A O 0.6086(3) 0.8697(3) 0.6646(3)
O26A O 0.4977(6) 0.9107(3) 0.6121(3)
C124A C 0.2455(5) 0.8977(6) 0.8624(3)
H128A H 0.2467 0.8510 0.8832
H129A H 0.1925 0.9248 0.8631
C125A C 0.2809(3) 0.8998(4) 0.7933(3)
H130A H 0.2757 0.9474 0.7731
H131A H 0.2518 0.8797 0.7690
C126A C 0.3657(3) 0.8623(3) 0.7887(3)
H132A H 0.3908 0.8666 0.8260
H133A H 0.3696 0.8140 0.7896
C127A C 0.4076(3) 0.8905(3) 0.7271(2)
H134A H 0.4016 0.9393 0.7254
H135A H 0.3836 0.8846 0.6898
C128A C 0.4915(3) 0.8564(3) 0.7228(2)
H136A H 0.5151 0.8627 0.7601
H137A H 0.4970 0.8075 0.7254
C129A C 0.5356(3) 0.8821(3) 0.6619(3)
C130A C 0.0224(2) 1.06020(18) 0.75220(18)
H138A H 0.0556 1.0298 0.7846
H139A H -0.0274 1.0485 0.7574
C131A C 0.0586(2) 1.0532(2) 0.68473(18)
H140A H 0.0289 1.0889 0.6535
H141A H 0.0559 1.0093 0.6750
C132A C 0.1416(2) 1.05805(19) 0.67734(17)
H142A H 0.1451 1.0975 0.6952
H143A H 0.1723 1.0176 0.7031
C133A C 0.1776(2) 1.06423(17) 0.60844(16)
H144A H 0.1559 1.1095 0.5848
H145A H 0.1651 1.0308 0.5867
C134A C 0.2637(2) 1.05278(19) 0.60792(17)
H146A H 0.2749 1.0815 0.6358
H147A H 0.2847 1.0055 0.6272
C135A C 0.3067(2) 1.06656(16) 0.54300(16)
C136A C 0.2287(2) 1.24771(19) 0.64885(17)
H148A H 0.2024 1.2106 0.6571
H149A H 0.1902 1.2910 0.6418
C137A C 0.2848(2) 1.24091(17) 0.59050(17)
H150A H 0.3255 1.1995 0.6000
H151A H 0.2579 1.2366 0.5542
C138A C 0.3205(2) 1.30238(18) 0.57185(19)
H152A H 0.3433 1.3084 0.6097
H153A H 0.2795 1.3430 0.5600
C139A C 0.3818(2) 1.29780(18) 0.51662(19)
H154A H 0.3991 1.3401 0.5075
H155A H 0.4259 1.2607 0.5302
C140A C 0.3540(2) 1.28570(18) 0.45458(19)
H156A H 0.3819 1.3067 0.4178
H157A H 0.2995 1.3084 0.4516
C141A C 0.3645(2) 1.21111(18) 0.45048(17)
C142A C 0.5450(4) 1.1213(3) 0.7928(3)
H158A H 0.5029 1.1557 0.7719
H159A H 0.5842 1.1435 0.8008
C143A C 0.5791(3) 1.0661(3) 0.7509(2)
H160A H 0.6060 1.0249 0.7783
H161A H 0.6169 1.0817 0.7194
C144A C 0.5189(4) 1.0482(3) 0.7152(3)
H162A H 0.5412 1.0040 0.7020
H163A H 0.4752 1.0433 0.7453
C145A C 0.4885(2) 1.1004(2) 0.65449(18)
H164A H 0.4468 1.0873 0.6388
H165A H 0.4680 1.1446 0.6672
C146A C 0.5506(2) 1.10634(18) 0.59752(18)
H166A H 0.5923 1.1219 0.6113
H167A H 0.5275 1.1396 0.5613
C147A C 0.58206(19) 1.03762(18) 0.57668(16)
C148A C 0.8108(2) 0.9187(2) 0.64577(18)
H168A H 0.7904 0.9631 0.6249
C149A C 0.9158(3) 0.8370(2) 0.7040(2)
H169A H 0.9286 0.8384 0.7469
H170A H 0.8801 0.8085 0.7066
H171A H 0.9620 0.8185 0.6794
C150A C 0.9242(3) 0.9568(3) 0.6652(2)
H172A H 0.9393 0.9602 0.7068
H173A H 0.9695 0.9447 0.6373
H174A H 0.8925 1.0001 0.6464
N11 N 0.24531(14) 0.64320(13) 0.38104(12)
O29 O 0.21084(12) 0.66834(10) 0.48269(10)
C160 C 0.25954(19) 0.65741(16) 0.43673(15)
H193 H 0.3098 0.6594 0.4421
C161 C 0.16869(18) 0.63809(18) 0.36910(16)
H194 H 0.1536 0.6649 0.3278
H195 H 0.1324 0.6550 0.4025
H196 H 0.1693 0.5910 0.3690
C162 C 0.30633(19) 0.62878(19) 0.33078(17)
H197 H 0.2934 0.6613 0.2919
H198 H 0.3116 0.5833 0.3222
H199 H 0.3543 0.6323 0.3450
N12 N 0.74753(15) 0.87708(13) 0.14095(13)
O30 O 0.79216(13) 0.82476(11) 0.05280(10)
C163 C 0.7386(2) 0.84908(17) 0.09144(16)
H200 H 0.6887 0.8472 0.0846
C164 C 0.8222(2) 0.8811(2) 0.15686(19)
H201 H 0.8224 0.9282 0.1556
H202 H 0.8609 0.8619 0.1261
H203 H 0.8332 0.8560 0.1995
C165 C 0.6804(2) 0.90415(19) 0.18289(18)
H204 H 0.6875 0.8803 0.2265
H205 H 0.6344 0.8976 0.1678
H206 H 0.6755 0.9522 0.1818
N13 N 0.11784(19) 0.33268(17) 0.16178(16)
O31 O 0.15445(19) 0.37746(18) 0.24122(15)
C166 C 0.1561(3) 0.3271(3) 0.2132(2)
H207 H 0.1859 0.2842 0.2300
C167 C 0.1236(2) 0.2750(2) 0.1287(2)
H208 H 0.0730 0.2676 0.1270
H209 H 0.1562 0.2346 0.1518
H210 H 0.1454 0.2847 0.0854
C168 C 0.0763(3) 0.4001(2) 0.1303(2)
H211 H 0.0318 0.3958 0.1110
H212 H 0.1098 0.4189 0.0973
H213 H 0.0601 0.4300 0.1619
loop_
_geom_bond_atom_site_label_1
_geom_bond_atom_site_label_2
_geom_bond_site_symmetry_1
_geom_bond_site_symmetry_2
Cu1 Cu2 1_555 1_555
Cu2 O6 1_555 1_555
N1 H1 1_555 1_555
N2 H2 1_555 1_555
N3 H3 1_555 1_555
N4 H4 1_555 1_555
N5 C73 1_555 1_555
O1 C25 1_555 1_555
O2 C32 1_555 1_555
O3 C39 1_555 1_555
O4 C46 1_555 1_555
O5 Cu1 1_555 1_555
O6 C54 1_555 1_555
O7 Cu1 1_555 1_555
O8 Cu2 1_555 1_555
O9 C66 1_555 1_555
O10 C66 1_555 1_555
O11 Cu2 1_555 1_555
O12 C72 1_555 1_555
O13 Cu1 1_555 1_555
C1 C2 1_555 1_555
C2 N1 1_555 1_555
C3 C2 1_555 1_555
H5 C3 1_555 1_555
C4 C3 1_555 1_555
H6 C4 1_555 1_555
C5 N1 1_555 1_555
C6 C5 1_555 1_555
C7 N2 1_555 1_555
C8 C7 1_555 1_555
H7 C8 1_555 1_555
C9 C8 1_555 1_555
H8 C9 1_555 1_555
C10 N2 1_555 1_555
C11 C10 1_555 1_555
C12 N3 1_555 1_555
C13 C12 1_555 1_555
H9 C13 1_555 1_555
C14 C13 1_555 1_555
H10 C14 1_555 1_555
C15 N3 1_555 1_555
C16 C15 1_555 1_555
C17 N4 1_555 1_555
C18 C17 1_555 1_555
H11 C18 1_555 1_555
C19 C18 1_555 1_555
H12 C19 1_555 1_555
C20 N4 1_555 1_555
C21 C1 1_555 1_555
H13 C21 1_555 1_555
H14 C21 1_555 1_555
H15 C21 1_555 1_555
C22 C1 1_555 1_555
C23 C22 1_555 1_555
H16 C23 1_555 1_555
C24 C23 1_555 1_555
H17 C24 1_555 1_555
C25 C24 1_555 1_555
C26 C25 1_555 1_555
H18 C26 1_555 1_555
C27 C22 1_555 1_555
H19 C27 1_555 1_555
C28 C6 1_555 1_555
H20 C28 1_555 1_555
H21 C28 1_555 1_555
H22 C28 1_555 1_555
C29 C6 1_555 1_555
C30 C29 1_555 1_555
H23 C30 1_555 1_555
C31 C30 1_555 1_555
H24 C31 1_555 1_555
C32 C31 1_555 1_555
C33 C32 1_555 1_555
H25 C33 1_555 1_555
C34 C29 1_555 1_555
H26 C34 1_555 1_555
C35 C11 1_555 1_555
H27 C35 1_555 1_555
H28 C35 1_555 1_555
H29 C35 1_555 1_555
C36 C11 1_555 1_555
C37 C36 1_555 1_555
H30 C37 1_555 1_555
C38 C37 1_555 1_555
H31 C38 1_555 1_555
C39 C38 1_555 1_555
C40 C39 1_555 1_555
H32 C40 1_555 1_555
C41 C36 1_555 1_555
H33 C41 1_555 1_555
C42 C16 1_555 1_555
H34 C42 1_555 1_555
H35 C42 1_555 1_555
H36 C42 1_555 1_555
C43 C16 1_555 1_555
C44 C43 1_555 1_555
H37 C44 1_555 1_555
C45 C44 1_555 1_555
H38 C45 1_555 1_555
C46 C45 1_555 1_555
C47 C46 1_555 1_555
H39 C47 1_555 1_555
C48 C43 1_555 1_555
H40 C48 1_555 1_555
C49 O1 1_555 1_555
H41 C49 1_555 1_555
H42 C49 1_555 1_555
C50 C49 1_555 1_555
H43 C50 1_555 1_555
H44 C50 1_555 1_555
C51 C50 1_555 1_555
H45 C51 1_555 1_555
H46 C51 1_555 1_555
C52 C51 1_555 1_555
H47 C52 1_555 1_555
H48 C52 1_555 1_555
C53 C52 1_555 1_555
H49 C53 1_555 1_555
H50 C53 1_555 1_555
C54 O5 1_555 1_555
C55 O2 1_555 1_555
H51 C55 1_555 1_555
H52 C55 1_555 1_555
C56 C55 1_555 1_555
H53 C56 1_555 1_555
H54 C56 1_555 1_555
C57 C56 1_555 1_555
H55 C57 1_555 1_555
H56 C57 1_555 1_555
C58 C57 1_555 1_555
H57 C58 1_555 1_555
H58 C58 1_555 1_555
C59 C58 1_555 1_555
H59 C59 1_555 1_555
H60 C59 1_555 1_555
C60 O7 1_555 1_555
C61 O3 1_555 1_555
H61 C61 1_555 1_555
H62 C61 1_555 1_555
C62 C61 1_555 1_555
H63 C62 1_555 1_555
H64 C62 1_555 1_555
C63 C62 1_555 1_555
H65 C63 1_555 1_555
H66 C63 1_555 1_555
C64 C63 1_555 1_555
H67 C64 1_555 1_555
H68 C64 1_555 1_555
C65 C64 1_555 1_555
H69 C65 1_555 1_555
H70 C65 1_555 1_555
C66 C65 1_555 1_555
C67 O4 1_555 1_555
H71 C67 1_555 1_555
H72 C67 1_555 1_555
C68 C67 1_555 1_555
H73 C68 1_555 1_555
H74 C68 1_555 1_555
C69 C68 1_555 1_555
H75 C69 1_555 1_555
H76 C69 1_555 1_555
C70 C69 1_555 1_555
H77 C70 1_555 1_555
H78 C70 1_555 1_555
C71 C70 1_555 1_555
H79 C71 1_555 1_555
H80 C71 1_555 1_555
C72 O11 1_555 1_555
C73 O13 1_555 1_555
H81 C73 1_555 1_555
C74 N5 1_555 1_555
H82 C74 1_555 1_555
H83 C74 1_555 1_555
H84 C74 1_555 1_555
C75 N5 1_555 1_555
H85 C75 1_555 1_555
H86 C75 1_555 1_555
H87 C75 1_555 1_555
Cu3 Cu4 1_555 1_555
Cu4 O22 1_555 1_555
N6 H88 1_555 1_555
N7 H89 1_555 1_555
N8 H90 1_555 1_555
N9 H91 1_555 1_555
N10 C148 1_555 1_555
O14 C100 1_555 1_555
O15 C107 1_555 1_555
O16 C114 1_555 1_555
O17 C121 1_555 1_555
O18 C135 1_555 1_555
O19 C135 1_555 1_555
O20 C141 1_555 1_555
O21 C141 1_555 1_555
O22 C147 1_555 1_555
O23 Cu3 1_555 1_555
O24 Cu3 1_555 1_555
C76 C77 1_555 1_555
C77 N6 1_555 1_555
C78 C77 1_555 1_555
H92 C78 1_555 1_555
C79 C78 1_555 1_555
H93 C79 1_555 1_555
C80 N6 1_555 1_555
C81 C80 1_555 1_555
C82 N9 1_555 1_555
C83 C82 1_555 1_555
H94 C83 1_555 1_555
C84 C83 1_555 1_555
H95 C84 1_555 1_555
C85 N9 1_555 1_555
C86 C85 1_555 1_555
C87 N8 1_555 1_555
C88 C87 1_555 1_555
H96 C88 1_555 1_555
C89 C88 1_555 1_555
H97 C89 1_555 1_555
C90 N8 1_555 1_555
C91 C90 1_555 1_555
C92 N7 1_555 1_555
C93 C92 1_555 1_555
H98 C93 1_555 1_555
C94 C93 1_555 1_555
H99 C94 1_555 1_555
C95 N7 1_555 1_555
C96 C76 1_555 1_555
H100 C96 1_555 1_555
H101 C96 1_555 1_555
H102 C96 1_555 1_555
C97 C76 1_555 1_555
C98 C97 1_555 1_555
H103 C98 1_555 1_555
C99 C98 1_555 1_555
H104 C99 1_555 1_555
C100 C99 1_555 1_555
C101 C100 1_555 1_555
H105 C101 1_555 1_555
C102 C97 1_555 1_555
H106 C102 1_555 1_555
C103 C81 1_555 1_555
H107 C103 1_555 1_555
H108 C103 1_555 1_555
H109 C103 1_555 1_555
C104 C81 1_555 1_555
C105 C104 1_555 1_555
H110 C105 1_555 1_555
C106 C105 1_555 1_555
H111 C106 1_555 1_555
C107 C106 1_555 1_555
C108 C107 1_555 1_555
H112 C108 1_555 1_555
C109 C104 1_555 1_555
H113 C109 1_555 1_555
C110 C86 1_555 1_555
H114 C110 1_555 1_555
H115 C110 1_555 1_555
H116 C110 1_555 1_555
C111 C86 1_555 1_555
C112 C111 1_555 1_555
H117 C112 1_555 1_555
C113 C112 1_555 1_555
H118 C113 1_555 1_555
C114 C113 1_555 1_555
C115 C114 1_555 1_555
H119 C115 1_555 1_555
C116 C111 1_555 1_555
H120 C116 1_555 1_555
C117 C91 1_555 1_555
H121 C117 1_555 1_555
H122 C117 1_555 1_555
H123 C117 1_555 1_555
C118 C91 1_555 1_555
C119 C118 1_555 1_555
H124 C119 1_555 1_555
C120 C119 1_555 1_555
H125 C120 1_555 1_555
C121 C120 1_555 1_555
C122 C121 1_555 1_555
H126 C122 1_555 1_555
C123 C118 1_555 1_555
H127 C123 1_555 1_555
O25 Cu3 1_555 1_555
O26 Cu4 1_555 1_555
C124 O14 1_555 1_555
H128 C124 1_555 1_555
H129 C124 1_555 1_555
C125 C124 1_555 1_555
H130 C125 1_555 1_555
H131 C125 1_555 1_555
C126 C125 1_555 1_555
H132 C126 1_555 1_555
H133 C126 1_555 1_555
C127 C126 1_555 1_555
H134 C127 1_555 1_555
H135 C127 1_555 1_555
C128 C127 1_555 1_555
H136 C128 1_555 1_555
H137 C128 1_555 1_555
C129 O25 1_555 1_555
C130 O15 1_555 1_555
H138 C130 1_555 1_555
H139 C130 1_555 1_555
C131 C130 1_555 1_555
H140 C131 1_555 1_555
H141 C131 1_555 1_555
C132 C131 1_555 1_555
H142 C132 1_555 1_555
H143 C132 1_555 1_555
C133 C132 1_555 1_555
H144 C133 1_555 1_555
H145 C133 1_555 1_555
C134 C133 1_555 1_555
H146 C134 1_555 1_555
H147 C134 1_555 1_555
C135 C134 1_555 1_555
C136 O16 1_555 1_555
H148 C136 1_555 1_555
H149 C136 1_555 1_555
C137 C136 1_555 1_555
H150 C137 1_555 1_555
H151 C137 1_555 1_555
C138 C137 1_555 1_555
H152 C138 1_555 1_555
H153 C138 1_555 1_555
C139 C138 1_555 1_555
H154 C139 1_555 1_555
H155 C139 1_555 1_555
C140 C139 1_555 1_555
H156 C140 1_555 1_555
H157 C140 1_555 1_555
C141 C140 1_555 1_555
C142 O17 1_555 1_555
H158 C142 1_555 1_555
H159 C142 1_555 1_555
C143 C142 1_555 1_555
H160 C143 1_555 1_555
H161 C143 1_555 1_555
C144 C143 1_555 1_555
H162 C144 1_555 1_555
H163 C144 1_555 1_555
C145 C144 1_555 1_555
H164 C145 1_555 1_555
H165 C145 1_555 1_555
C146 C145 1_555 1_555
H166 C146 1_555 1_555
H167 C146 1_555 1_555
C147 O23 1_555 1_555
C148 O24 1_555 1_555
H168 C148 1_555 1_555
C149 N10 1_555 1_555
H169 C149 1_555 1_555
H170 C149 1_555 1_555
H171 C149 1_555 1_555
C150 N10 1_555 1_555
H172 C150 1_555 1_555
H173 C150 1_555 1_555
H174 C150 1_555 1_555
N11 C160 1_555 1_555
O29 C160 1_555 1_555
C160 H193 1_555 1_555
C161 N11 1_555 1_555
H194 C161 1_555 1_555
H195 C161 1_555 1_555
H196 C161 1_555 1_555
C162 N11 1_555 1_555
H197 C162 1_555 1_555
H198 C162 1_555 1_555
H199 C162 1_555 1_555
N12 C163 1_555 1_555
O30 C163 1_555 1_555
C163 H200 1_555 1_555
C164 N12 1_555 1_555
H201 C164 1_555 1_555
H202 C164 1_555 1_555
H203 C164 1_555 1_555
C165 N12 1_555 1_555
H204 C165 1_555 1_555
H205 C165 1_555 1_555
H206 C165 1_555 1_555
N13 C166 1_555 1_555
O31 C166 1_555 1_555
C166 H207 1_555 1_555
C167 N13 1_555 1_555
H208 C167 1_555 1_555
H209 C167 1_555 1_555
H210 C167 1_555 1_555
C168 N13 1_555 1_555
H211 C168 1_555 1_555
H212 C168 1_555 1_555
H213 C168 1_555 1_555
Cu1A O10 1_555 1_555
Cu2A O9 1_555 1_555
N1A H1A 1_555 1_555
N2A H2A 1_555 1_555
N3A H3A 1_555 1_555
N4A H4A 1_555 1_555
N5A C73A 1_555 1_555
O1A C25A 1_555 1_555
O2A C32A 1_555 1_555
O3A C39A 1_555 1_555
O4A C46A 1_555 1_555
O5A Cu1A 1_555 1_555
O6A Cu2A 1_555 1_555
O7A Cu1A 1_555 1_555
O8A Cu2A 1_555 1_555
O9A Cu2 1_555 1_555
O10A Cu1 1_555 1_555
O11A Cu2 1_555 1_555
O12A Cu1 1_555 1_555
O13A Cu1A 1_555 1_555
C1A C2A 1_555 1_555
C2A N1A 1_555 1_555
C3A C2A 1_555 1_555
H5A C3A 1_555 1_555
C4A C3A 1_555 1_555
H6A C4A 1_555 1_555
C5A N1A 1_555 1_555
C6A C5A 1_555 1_555
C7A N2A 1_555 1_555
C8A C7A 1_555 1_555
H7A C8A 1_555 1_555
C9A C8A 1_555 1_555
H8A C9A 1_555 1_555
C10A N2A 1_555 1_555
C11A C10A 1_555 1_555
C12A N3A 1_555 1_555
C13A C12A 1_555 1_555
H9A C13A 1_555 1_555
C14A C13A 1_555 1_555
H10A C14A 1_555 1_555
C15A N3A 1_555 1_555
C16A C15A 1_555 1_555
C17A N4A 1_555 1_555
C18A C17A 1_555 1_555
H11A C18A 1_555 1_555
C19A C18A 1_555 1_555
H12A C19A 1_555 1_555
C20A N4A 1_555 1_555
C21A C1A 1_555 1_555
H13A C21A 1_555 1_555
H14A C21A 1_555 1_555
H15A C21A 1_555 1_555
C22A C1A 1_555 1_555
C23A C22A 1_555 1_555
H16A C23A 1_555 1_555
C24A C23A 1_555 1_555
H17A C24A 1_555 1_555
C25A C24A 1_555 1_555
C26A C25A 1_555 1_555
H18A C26A 1_555 1_555
C27A C22A 1_555 1_555
H19A C27A 1_555 1_555
C28A C6A 1_555 1_555
H20A C28A 1_555 1_555
H21A C28A 1_555 1_555
H22A C28A 1_555 1_555
C29A C6A 1_555 1_555
C30A C29A 1_555 1_555
H23A C30A 1_555 1_555
C31A C30A 1_555 1_555
H24A C31A 1_555 1_555
C32A C31A 1_555 1_555
C33A C32A 1_555 1_555
H25A C33A 1_555 1_555
C34A C29A 1_555 1_555
H26A C34A 1_555 1_555
C35A C11A 1_555 1_555
H27A C35A 1_555 1_555
H28A C35A 1_555 1_555
H29A C35A 1_555 1_555
C36A C11A 1_555 1_555
C37A C36A 1_555 1_555
H30A C37A 1_555 1_555
C38A C37A 1_555 1_555
H31A C38A 1_555 1_555
C39A C38A 1_555 1_555
C40A C39A 1_555 1_555
H32A C40A 1_555 1_555
C41A C36A 1_555 1_555
H33A C41A 1_555 1_555
C42A C16A 1_555 1_555
H34A C42A 1_555 1_555
H35A C42A 1_555 1_555
H36A C42A 1_555 1_555
C43A C16A 1_555 1_555
C44A C43A 1_555 1_555
H37A C44A 1_555 1_555
C45A C44A 1_555 1_555
H38A C45A 1_555 1_555
C46A C45A 1_555 1_555
C47A C46A 1_555 1_555
H39A C47A 1_555 1_555
C48A C43A 1_555 1_555
H40A C48A 1_555 1_555
C49A O1A 1_555 1_555
H41A C49A 1_555 1_555
H42A C49A 1_555 1_555
C50A C49A 1_555 1_555
H43A C50A 1_555 1_555
H44A C50A 1_555 1_555
C51A C50A 1_555 1_555
H45A C51A 1_555 1_555
H46A C51A 1_555 1_555
C52A C51A 1_555 1_555
H47A C52A 1_555 1_555
H48A C52A 1_555 1_555
C53A C52A 1_555 1_555
H49A C53A 1_555 1_555
H50A C53A 1_555 1_555
C54A O5A 1_555 1_555
C55A O2A 1_555 1_555
H51A C55A 1_555 1_555
H52A C55A 1_555 1_555
C56A C55A 1_555 1_555
H53A C56A 1_555 1_555
H54A C56A 1_555 1_555
C57A C56A 1_555 1_555
H55A C57A 1_555 1_555
H56A C57A 1_555 1_555
C58A C57A 1_555 1_555
H57A C58A 1_555 1_555
H58A C58A 1_555 1_555
C59A C58A 1_555 1_555
H59A C59A 1_555 1_555
H60A C59A 1_555 1_555
C60A O7A 1_555 1_555
C61A O3A 1_555 1_555
H61A C61A 1_555 1_555
H62A C61A 1_555 1_555
C62A C61A 1_555 1_555
H63A C62A 1_555 1_555
H64A C62A 1_555 1_555
C63A C62A 1_555 1_555
H65A C63A 1_555 1_555
H66A C63A 1_555 1_555
C64A C63A 1_555 1_555
H67A C64A 1_555 1_555
H68A C64A 1_555 1_555
C65A C64A 1_555 1_555
H69A C65A 1_555 1_555
H70A C65A 1_555 1_555
C66A O9A 1_555 1_555
C67A O4A 1_555 1_555
H71A C67A 1_555 1_555
H72A C67A 1_555 1_555
C68A C67A 1_555 1_555
H73A C68A 1_555 1_555
H74A C68A 1_555 1_555
C69A C68A 1_555 1_555
H75A C69A 1_555 1_555
H76A C69A 1_555 1_555
C70A C69A 1_555 1_555
H77A C70A 1_555 1_555
H78A C70A 1_555 1_555
C71A C70A 1_555 1_555
H79A C71A 1_555 1_555
H80A C71A 1_555 1_555
C72A O11A 1_555 1_555
C73A O13A 1_555 1_555
H81A C73A 1_555 1_555
C74A N5A 1_555 1_555
H82A C74A 1_555 1_555
H83A C74A 1_555 1_555
H84A C74A 1_555 1_555
C75A N5A 1_555 1_555
H85A C75A 1_555 1_555
H86A C75A 1_555 1_555
H87A C75A 1_555 1_555
Cu3A O19 1_555 1_555
Cu4A O18 1_555 1_555
N6A H88A 1_555 1_555
N7A H89A 1_555 1_555
N8A H90A 1_555 1_555
N9A H91A 1_555 1_555
N10A C148A 1_555 1_555
O14A C100A 1_555 1_555
O15A C107A 1_555 1_555
O16A C114A 1_555 1_555
O17A C121A 1_555 1_555
O18A Cu4 1_555 1_555
O19A Cu3 1_555 1_555
O20A Cu3 1_555 1_555
O21A Cu4 1_555 1_555
O22A Cu4 1_555 1_555
O23A Cu3A 1_555 1_555
O24A Cu3A 1_555 1_555
C76A C77A 1_555 1_555
C77A N6A 1_555 1_555
C78A C77A 1_555 1_555
H92A C78A 1_555 1_555
C79A C78A 1_555 1_555
H93A C79A 1_555 1_555
C80A N6A 1_555 1_555
C81A C80A 1_555 1_555
C82A N9A 1_555 1_555
C83A C82A 1_555 1_555
H94A C83A 1_555 1_555
C84A C83A 1_555 1_555
H95A C84A 1_555 1_555
C85A N9A 1_555 1_555
C86A C85A 1_555 1_555
C87A N8A 1_555 1_555
C88A C87A 1_555 1_555
H96A C88A 1_555 1_555
C89A C88A 1_555 1_555
H97A C89A 1_555 1_555
C90A N8A 1_555 1_555
C91A C90A 1_555 1_555
C92A N7A 1_555 1_555
C93A C92A 1_555 1_555
H98A C93A 1_555 1_555
C94A C93A 1_555 1_555
H99A C94A 1_555 1_555
C95A N7A 1_555 1_555
C96A C76A 1_555 1_555
H100A C96A 1_555 1_555
H101A C96A 1_555 1_555
H102A C96A 1_555 1_555
C97A C76A 1_555 1_555
C98A C97A 1_555 1_555
H103A C98A 1_555 1_555
C99A C98A 1_555 1_555
H104A C99A 1_555 1_555
C100A C99A 1_555 1_555
C101A C100A 1_555 1_555
H105A C101A 1_555 1_555
C102A C97A 1_555 1_555
H106A C102A 1_555 1_555
C103A C81A 1_555 1_555
H107A C103A 1_555 1_555
H108A C103A 1_555 1_555
H109A C103A 1_555 1_555
C104A C81A 1_555 1_555
C105A C104A 1_555 1_555
H110A C105A 1_555 1_555
C106A C105A 1_555 1_555
H111A C106A 1_555 1_555
C107A C106A 1_555 1_555
C108A C107A 1_555 1_555
H112A C108A 1_555 1_555
C109A C104A 1_555 1_555
H113A C109A 1_555 1_555
C110A C86A 1_555 1_555
H114A C110A 1_555 1_555
H115A C110A 1_555 1_555
H116A C110A 1_555 1_555
C111A C86A 1_555 1_555
C112A C111A 1_555 1_555
H117A C112A 1_555 1_555
C113A C112A 1_555 1_555
H118A C113A 1_555 1_555
C114A C113A 1_555 1_555
C115A C114A 1_555 1_555
H119A C115A 1_555 1_555
C116A C111A 1_555 1_555
H120A C116A 1_555 1_555
C117A C91A 1_555 1_555
H121A C117A 1_555 1_555
H122A C117A 1_555 1_555
H123A C117A 1_555 1_555
C118A C91A 1_555 1_555
C119A C118A 1_555 1_555
H124A C119A 1_555 1_555
C120A C119A 1_555 1_555
H125A C120A 1_555 1_555
C121A C120A 1_555 1_555
C122A C121A 1_555 1_555
H126A C122A 1_555 1_555
C123A C118A 1_555 1_555
H127A C123A 1_555 1_555
O25A Cu3A 1_555 1_555
O26A Cu4A 1_555 1_555
C124A O14A 1_555 1_555
H128A C124A 1_555 1_555
H129A C124A 1_555 1_555
C125A C124A 1_555 1_555
H130A C125A 1_555 1_555
H131A C125A 1_555 1_555
C126A C125A 1_555 1_555
H132A C126A 1_555 1_555
H133A C126A 1_555 1_555
C127A C126A 1_555 1_555
H134A C127A 1_555 1_555
H135A C127A 1_555 1_555
C128A C127A 1_555 1_555
H136A C128A 1_555 1_555
H137A C128A 1_555 1_555
C129A O25A 1_555 1_555
C130A O15A 1_555 1_555
H138A C130A 1_555 1_555
H139A C130A 1_555 1_555
C131A C130A 1_555 1_555
H140A C131A 1_555 1_555
H141A C131A 1_555 1_555
C132A C131A 1_555 1_555
H142A C132A 1_555 1_555
H143A C132A 1_555 1_555
C133A C132A 1_555 1_555
H144A C133A 1_555 1_555
H145A C133A 1_555 1_555
C134A C133A 1_555 1_555
H146A C134A 1_555 1_555
H147A C134A 1_555 1_555
C135A O18A 1_555 1_555
C136A O16A 1_555 1_555
H148A C136A 1_555 1_555
H149A C136A 1_555 1_555
C137A C136A 1_555 1_555
H150A C137A 1_555 1_555
H151A C137A 1_555 1_555
C138A C137A 1_555 1_555
H152A C138A 1_555 1_555
H153A C138A 1_555 1_555
C139A C138A 1_555 1_555
H154A C139A 1_555 1_555
H155A C139A 1_555 1_555
C140A C139A 1_555 1_555
H156A C140A 1_555 1_555
H157A C140A 1_555 1_555
C141A O20A 1_555 1_555
C142A O17A 1_555 1_555
H158A C142A 1_555 1_555
H159A C142A 1_555 1_555
C143A C142A 1_555 1_555
H160A C143A 1_555 1_555
H161A C143A 1_555 1_555
C144A C143A 1_555 1_555
H162A C144A 1_555 1_555
H163A C144A 1_555 1_555
C145A C144A 1_555 1_555
H164A C145A 1_555 1_555
H165A C145A 1_555 1_555
C146A C145A 1_555 1_555
H166A C146A 1_555 1_555
H167A C146A 1_555 1_555
C147A O22A 1_555 1_555
C148A O24A 1_555 1_555
H168A C148A 1_555 1_555
C149A N10A 1_555 1_555
H169A C149A 1_555 1_555
H170A C149A 1_555 1_555
H171A C149A 1_555 1_555
C150A N10A 1_555 1_555
H172A C150A 1_555 1_555
H173A C150A 1_555 1_555
H174A C150A 1_555 1_555
O8 C60 1_555 1_555
O11 Cu2A 1_555 1_555
O12 Cu1A 1_555 1_555
C1 C20 1_555 1_555
C4 C5 1_555 1_555
C6 C7 1_555 1_555
C9 C10 1_555 1_555
C11 C12 1_555 1_555
C14 C15 1_555 1_555
C16 C17 1_555 1_555
C19 C20 1_555 1_555
C26 C27 1_555 1_555
C33 C34 1_555 1_555
C40 C41 1_555 1_555
C47 C48 1_555 1_555
C53 C54 1_555 1_555
C59 C60 1_555 1_555
C71 C72 1_555 1_555
O20 Cu3A 1_555 1_555
O21 Cu4A 1_555 1_555
O22 Cu4A 1_555 1_555
C76 C95 1_555 1_555
C79 C80 1_555 1_555
C81 C82 1_555 1_555
C84 C85 1_555 1_555
C86 C87 1_555 1_555
C89 C90 1_555 1_555
C91 C92 1_555 1_555
C94 C95 1_555 1_555
C101 C102 1_555 1_555
C108 C109 1_555 1_555
C115 C116 1_555 1_555
C122 C123 1_555 1_555
O26 C129 1_555 1_555
C128 C129 1_555 1_555
C146 C147 1_555 1_555
Cu1A Cu2A 1_555 1_555
Cu2A O11A 1_555 1_555
O6A C54A 1_555 1_555
O8A C60A 1_555 1_555
O10A C66A 1_555 1_555
O12A C72A 1_555 1_555
C1A C20A 1_555 1_555
C4A C5A 1_555 1_555
C6A C7A 1_555 1_555
C9A C10A 1_555 1_555
C11A C12A 1_555 1_555
C14A C15A 1_555 1_555
C16A C17A 1_555 1_555
C19A C20A 1_555 1_555
C26A C27A 1_555 1_555
C33A C34A 1_555 1_555
C40A C41A 1_555 1_555
C47A C48A 1_555 1_555
C53A C54A 1_555 1_555
C59A C60A 1_555 1_555
C65A C66A 1_555 1_555
C71A C72A 1_555 1_555
Cu3A Cu4A 1_555 1_555
Cu4A O22A 1_555 1_555
O19A C135A 1_555 1_555
O21A C141A 1_555 1_555
O23A C147A 1_555 1_555
C76A C95A 1_555 1_555
C79A C80A 1_555 1_555
C81A C82A 1_555 1_555
C84A C85A 1_555 1_555
C86A C87A 1_555 1_555
C89A C90A 1_555 1_555
C91A C92A 1_555 1_555
C94A C95A 1_555 1_555
C101A C102A 1_555 1_555
C108A C109A 1_555 1_555
C115A C116A 1_555 1_555
C122A C123A 1_555 1_555
O26A C129A 1_555 1_555
C128A C129A 1_555 1_555
C134A C135A 1_555 1_555
C140A C141A 1_555 1_555
C146A C147A 1_555 1_555

#END
