# generated using pymatgen
data_Cu16H269C257N27O67
_symmetry_space_group_name_H-M   'P 1'
_cell_length_a   21.92200000
_cell_length_b   23.51080000
_cell_length_c   23.60940000
_cell_angle_alpha   90.00000000
_cell_angle_beta   90.00000000
_cell_angle_gamma   90.00000000
_symmetry_Int_Tables_number   1
_chemical_formula_structural   Cu16H269C257N27O67
_chemical_formula_sum   'Cu64 H1076 C1028 N108 O268'
_cell_volume   12168.37347468
_cell_formula_units_Z   4
loop_
 _symmetry_equiv_pos_site_id
 _symmetry_equiv_pos_as_xyz
  1  'x, y, z'
loop_
 _atom_site_type_symbol
 _atom_site_label
 _atom_site_symmetry_multiplicity
 _atom_site_fract_x
 _atom_site_fract_y
 _atom_site_fract_z
 _atom_site_occupancy
  Cu  Cu1  1  0.339600  0.001700  0.005100  1
  Cu  Cu2  1  0.160400  0.998300  0.505100  1
  Cu  Cu3  1  0.160400  0.001700  0.494900  1
  Cu  Cu4  1  0.339600  0.998300  0.994900  1
  Cu  Cu5  1  0.660400  0.998300  0.994900  1
  Cu  Cu6  1  0.839600  0.001700  0.494900  1
  Cu  Cu7  1  0.839600  0.998300  0.505100  1
  Cu  Cu8  1  0.660400  0.001700  0.005100  1
  Cu  Cu9  1  0.336590  0.505000  0.505500  1
  Cu  Cu10  1  0.163410  0.495000  0.005500  1
  Cu  Cu11  1  0.163410  0.505000  0.994500  1
  Cu  Cu12  1  0.336590  0.495000  0.494500  1
  Cu  Cu13  1  0.663410  0.495000  0.494500  1
  Cu  Cu14  1  0.836590  0.505000  0.994500  1
  Cu  Cu15  1  0.836590  0.495000  0.005500  1
  Cu  Cu16  1  0.663410  0.505000  0.505500  1
  Cu  Cu17  1  0.216660  0.506000  0.498000  1
  Cu  Cu18  1  0.283340  0.494000  0.998000  1
  Cu  Cu19  1  0.283340  0.506000  0.002000  1
  Cu  Cu20  1  0.216660  0.494000  0.502000  1
  Cu  Cu21  1  0.783340  0.494000  0.502000  1
  Cu  Cu22  1  0.716660  0.506000  0.002000  1
  Cu  Cu23  1  0.716660  0.494000  0.998000  1
  Cu  Cu24  1  0.783340  0.506000  0.498000  1
  Cu  Cu25  1  0.206500  0.003600  0.993800  1
  Cu  Cu26  1  0.293500  0.996400  0.493800  1
  Cu  Cu27  1  0.293500  0.003600  0.506200  1
  Cu  Cu28  1  0.206500  0.996400  0.006200  1
  Cu  Cu29  1  0.793500  0.996400  0.006200  1
  Cu  Cu30  1  0.706500  0.003600  0.506200  1
  Cu  Cu31  1  0.706500  0.996400  0.493800  1
  Cu  Cu32  1  0.793500  0.003600  0.993800  1
  Cu  Cu33  1  0.326490  0.003200  0.003400  1.0
  Cu  Cu34  1  0.173510  0.996800  0.503400  1.0
  Cu  Cu35  1  0.173510  0.003200  0.496600  1.0
  Cu  Cu36  1  0.326490  0.996800  0.996600  1.0
  Cu  Cu37  1  0.673510  0.996800  0.996600  1.0
  Cu  Cu38  1  0.826490  0.003200  0.496600  1.0
  Cu  Cu39  1  0.826490  0.996800  0.503400  1.0
  Cu  Cu40  1  0.673510  0.003200  0.003400  1.0
  Cu  Cu41  1  0.220000  0.004800  0.995600  1.0
  Cu  Cu42  1  0.280000  0.995200  0.495600  1.0
  Cu  Cu43  1  0.280000  0.004800  0.504400  1.0
  Cu  Cu44  1  0.220000  0.995200  0.004400  1.0
  Cu  Cu45  1  0.780000  0.995200  0.004400  1.0
  Cu  Cu46  1  0.720000  0.004800  0.504400  1.0
  Cu  Cu47  1  0.720000  0.995200  0.495600  1.0
  Cu  Cu48  1  0.780000  0.004800  0.995600  1.0
  Cu  Cu49  1  0.362300  0.513700  0.511200  1.0
  Cu  Cu50  1  0.137700  0.486300  0.011200  1.0
  Cu  Cu51  1  0.137700  0.513700  0.988800  1.0
  Cu  Cu52  1  0.362300  0.486300  0.488800  1.0
  Cu  Cu53  1  0.637700  0.486300  0.488800  1.0
  Cu  Cu54  1  0.862300  0.513700  0.988800  1.0
  Cu  Cu55  1  0.862300  0.486300  0.011200  1.0
  Cu  Cu56  1  0.637700  0.513700  0.511200  1.0
  Cu  Cu57  1  0.242020  0.508700  0.503500  1.0
  Cu  Cu58  1  0.257980  0.491300  0.003500  1.0
  Cu  Cu59  1  0.257980  0.508700  0.996500  1.0
  Cu  Cu60  1  0.242020  0.491300  0.496500  1.0
  Cu  Cu61  1  0.757980  0.491300  0.496500  1.0
  Cu  Cu62  1  0.742020  0.508700  0.996500  1.0
  Cu  Cu63  1  0.742020  0.491300  0.003500  1.0
  Cu  Cu64  1  0.757980  0.508700  0.503500  1.0
  H  H65  1  0.500000  0.726100  0.817500  1
  H  H66  1  0.000000  0.273900  0.317500  1
  H  H67  1  0.000000  0.726100  0.682500  1
  H  H68  1  0.500000  0.273900  0.182500  1
  H  H69  1  0.437600  0.585300  0.756900  1
  H  H70  1  0.062400  0.414700  0.256900  1
  H  H71  1  0.062400  0.585300  0.743100  1
  H  H72  1  0.437600  0.414700  0.243100  1
  H  H73  1  0.562400  0.414700  0.243100  1
  H  H74  1  0.937600  0.585300  0.743100  1
  H  H75  1  0.937600  0.414700  0.256900  1
  H  H76  1  0.562400  0.585300  0.756900  1
  H  H77  1  0.416700  0.783300  0.759900  1
  H  H78  1  0.083300  0.216700  0.259900  1
  H  H79  1  0.083300  0.783300  0.740100  1
  H  H80  1  0.416700  0.216700  0.240100  1
  H  H81  1  0.583300  0.216700  0.240100  1
  H  H82  1  0.916700  0.783300  0.740100  1
  H  H83  1  0.916700  0.216700  0.259900  1
  H  H84  1  0.583300  0.783300  0.759900  1
  H  H85  1  0.313700  0.662800  0.704700  1
  H  H86  1  0.186300  0.337200  0.204700  1
  H  H87  1  0.186300  0.662800  0.795300  1
  H  H88  1  0.313700  0.337200  0.295300  1
  H  H89  1  0.686300  0.337200  0.295300  1
  H  H90  1  0.813700  0.662800  0.795300  1
  H  H91  1  0.813700  0.337200  0.204700  1
  H  H92  1  0.686300  0.662800  0.704700  1
  H  H93  1  0.307400  0.750000  0.632800  1
  H  H94  1  0.192600  0.250000  0.132800  1
  H  H95  1  0.192600  0.750000  0.867200  1
  H  H96  1  0.307400  0.250000  0.367200  1
  H  H97  1  0.692600  0.250000  0.367200  1
  H  H98  1  0.807400  0.750000  0.867200  1
  H  H99  1  0.807400  0.250000  0.132800  1
  H  H100  1  0.692600  0.750000  0.632800  1
  H  H101  1  0.500000  0.813400  0.705700  1
  H  H102  1  0.000000  0.186600  0.205700  1
  H  H103  1  0.000000  0.813400  0.794300  1
  H  H104  1  0.500000  0.186600  0.294300  1
  H  H105  1  0.441100  0.864000  0.549100  1
  H  H106  1  0.058900  0.136000  0.049100  1
  H  H107  1  0.058900  0.864000  0.950900  1
  H  H108  1  0.441100  0.136000  0.450900  1
  H  H109  1  0.558900  0.136000  0.450900  1
  H  H110  1  0.941100  0.864000  0.950900  1
  H  H111  1  0.941100  0.136000  0.049100  1
  H  H112  1  0.558900  0.864000  0.549100  1
  H  H113  1  0.333600  0.624300  0.854600  1
  H  H114  1  0.166400  0.375700  0.354600  1
  H  H115  1  0.166400  0.624300  0.645400  1
  H  H116  1  0.333600  0.375700  0.145400  1
  H  H117  1  0.666400  0.375700  0.145400  1
  H  H118  1  0.833600  0.624300  0.645400  1
  H  H119  1  0.833600  0.375700  0.354600  1
  H  H120  1  0.666400  0.624300  0.854600  1
  H  H121  1  0.359000  0.599500  0.797700  1
  H  H122  1  0.141000  0.400500  0.297700  1
  H  H123  1  0.141000  0.599500  0.702300  1
  H  H124  1  0.359000  0.400500  0.202300  1
  H  H125  1  0.641000  0.400500  0.202300  1
  H  H126  1  0.859000  0.599500  0.702300  1
  H  H127  1  0.859000  0.400500  0.297700  1
  H  H128  1  0.641000  0.599500  0.797700  1
  H  H129  1  0.303200  0.641200  0.796900  1
  H  H130  1  0.196800  0.358800  0.296900  1
  H  H131  1  0.196800  0.641200  0.703100  1
  H  H132  1  0.303200  0.358800  0.203100  1
  H  H133  1  0.696800  0.358800  0.203100  1
  H  H134  1  0.803200  0.641200  0.703100  1
  H  H135  1  0.803200  0.358800  0.296900  1
  H  H136  1  0.696800  0.641200  0.796900  1
  H  H137  1  0.339400  0.893300  0.608600  1
  H  H138  1  0.160600  0.106700  0.108600  1
  H  H139  1  0.160600  0.893300  0.891400  1
  H  H140  1  0.339400  0.106700  0.391400  1
  H  H141  1  0.660600  0.106700  0.391400  1
  H  H142  1  0.839400  0.893300  0.891400  1
  H  H143  1  0.839400  0.106700  0.108600  1
  H  H144  1  0.660600  0.893300  0.608600  1
  H  H145  1  0.300100  0.841200  0.628200  1
  H  H146  1  0.199900  0.158800  0.128200  1
  H  H147  1  0.199900  0.841200  0.871800  1
  H  H148  1  0.300100  0.158800  0.371800  1
  H  H149  1  0.699900  0.158800  0.371800  1
  H  H150  1  0.800100  0.841200  0.871800  1
  H  H151  1  0.800100  0.158800  0.128200  1
  H  H152  1  0.699900  0.841200  0.628200  1
  H  H153  1  0.352300  0.832700  0.583700  1
  H  H154  1  0.147700  0.167300  0.083700  1
  H  H155  1  0.147700  0.832700  0.916300  1
  H  H156  1  0.352300  0.167300  0.416300  1
  H  H157  1  0.647700  0.167300  0.416300  1
  H  H158  1  0.852300  0.832700  0.916300  1
  H  H159  1  0.852300  0.167300  0.083700  1
  H  H160  1  0.647700  0.832700  0.583700  1
  H  H161  1  0.312100  0.770800  0.825900  1
  H  H162  1  0.187900  0.229200  0.325900  1
  H  H163  1  0.187900  0.770800  0.674100  1
  H  H164  1  0.312100  0.229200  0.174100  1
  H  H165  1  0.687900  0.229200  0.174100  1
  H  H166  1  0.812100  0.770800  0.674100  1
  H  H167  1  0.812100  0.229200  0.325900  1
  H  H168  1  0.687900  0.770800  0.825900  1
  H  H169  1  0.283800  0.818600  0.907700  1
  H  H170  1  0.216200  0.181400  0.407700  1
  H  H171  1  0.216200  0.818600  0.592300  1
  H  H172  1  0.283800  0.181400  0.092300  1
  H  H173  1  0.716200  0.181400  0.092300  1
  H  H174  1  0.783800  0.818600  0.592300  1
  H  H175  1  0.783800  0.181400  0.407700  1
  H  H176  1  0.716200  0.818600  0.907700  1
  H  H177  1  0.404600  0.726600  0.997000  1
  H  H178  1  0.095400  0.273400  0.497000  1
  H  H179  1  0.095400  0.726600  0.503000  1
  H  H180  1  0.404600  0.273400  0.003000  1
  H  H181  1  0.595400  0.273400  0.003000  1
  H  H182  1  0.904600  0.726600  0.503000  1
  H  H183  1  0.904600  0.273400  0.497000  1
  H  H184  1  0.595400  0.726600  0.997000  1
  H  H185  1  0.432900  0.678800  0.915200  1
  H  H186  1  0.067100  0.321200  0.415200  1
  H  H187  1  0.067100  0.678800  0.584800  1
  H  H188  1  0.432900  0.321200  0.084800  1
  H  H189  1  0.567100  0.321200  0.084800  1
  H  H190  1  0.932900  0.678800  0.584800  1
  H  H191  1  0.932900  0.321200  0.415200  1
  H  H192  1  0.567100  0.678800  0.915200  1
  H  H193  1  0.446600  0.935000  0.682500  1
  H  H194  1  0.053400  0.065000  0.182500  1
  H  H195  1  0.053400  0.935000  0.817500  1
  H  H196  1  0.446600  0.065000  0.317500  1
  H  H197  1  0.553400  0.065000  0.317500  1
  H  H198  1  0.946600  0.935000  0.817500  1
  H  H199  1  0.946600  0.065000  0.182500  1
  H  H200  1  0.553400  0.935000  0.682500  1
  H  H201  1  0.426200  0.013500  0.738800  1
  H  H202  1  0.073800  0.986500  0.238800  1
  H  H203  1  0.073800  0.013500  0.761200  1
  H  H204  1  0.426200  0.986500  0.261200  1
  H  H205  1  0.573800  0.986500  0.261200  1
  H  H206  1  0.926200  0.013500  0.761200  1
  H  H207  1  0.926200  0.986500  0.238800  1
  H  H208  1  0.573800  0.013500  0.738800  1
  H  H209  1  0.291300  0.926700  0.815100  1
  H  H210  1  0.208700  0.073300  0.315100  1
  H  H211  1  0.208700  0.926700  0.684900  1
  H  H212  1  0.291300  0.073300  0.184900  1
  H  H213  1  0.708700  0.073300  0.184900  1
  H  H214  1  0.791300  0.926700  0.684900  1
  H  H215  1  0.791300  0.073300  0.315100  1
  H  H216  1  0.708700  0.926700  0.815100  1
  H  H217  1  0.300100  0.855700  0.747000  1
  H  H218  1  0.199900  0.144300  0.247000  1
  H  H219  1  0.199900  0.855700  0.753000  1
  H  H220  1  0.300100  0.144300  0.253000  1
  H  H221  1  0.699900  0.144300  0.253000  1
  H  H222  1  0.800100  0.855700  0.753000  1
  H  H223  1  0.800100  0.144300  0.247000  1
  H  H224  1  0.699900  0.855700  0.747000  1
  H  H225  1  0.251400  0.821000  0.047400  1
  H  H226  1  0.248600  0.179000  0.547400  1
  H  H227  1  0.248600  0.821000  0.452600  1
  H  H228  1  0.251400  0.179000  0.952600  1
  H  H229  1  0.748600  0.179000  0.952600  1
  H  H230  1  0.751400  0.821000  0.452600  1
  H  H231  1  0.751400  0.179000  0.547400  1
  H  H232  1  0.748600  0.821000  0.047400  1
  H  H233  1  0.250100  0.813200  0.981800  1
  H  H234  1  0.249900  0.186800  0.481800  1
  H  H235  1  0.249900  0.813200  0.518200  1
  H  H236  1  0.250100  0.186800  0.018200  1
  H  H237  1  0.749900  0.186800  0.018200  1
  H  H238  1  0.750100  0.813200  0.518200  1
  H  H239  1  0.750100  0.186800  0.481800  1
  H  H240  1  0.749900  0.813200  0.981800  1
  H  H241  1  0.246400  0.024200  0.817000  1
  H  H242  1  0.253600  0.975800  0.317000  1
  H  H243  1  0.253600  0.024200  0.683000  1
  H  H244  1  0.246400  0.975800  0.183000  1
  H  H245  1  0.753600  0.975800  0.183000  1
  H  H246  1  0.746400  0.024200  0.683000  1
  H  H247  1  0.746400  0.975800  0.317000  1
  H  H248  1  0.753600  0.024200  0.817000  1
  H  H249  1  0.282000  0.074100  0.845200  1
  H  H250  1  0.218000  0.925900  0.345200  1
  H  H251  1  0.218000  0.074100  0.654800  1
  H  H252  1  0.282000  0.925900  0.154800  1
  H  H253  1  0.718000  0.925900  0.154800  1
  H  H254  1  0.782000  0.074100  0.654800  1
  H  H255  1  0.782000  0.925900  0.345200  1
  H  H256  1  0.718000  0.074100  0.845200  1
  H  H257  1  0.500000  0.694700  0.221700  1
  H  H258  1  0.000000  0.305300  0.721700  1
  H  H259  1  0.000000  0.694700  0.278300  1
  H  H260  1  0.500000  0.305300  0.778300  1
  H  H261  1  0.439900  0.672700  0.063900  1
  H  H262  1  0.060100  0.327300  0.563900  1
  H  H263  1  0.060100  0.672700  0.436100  1
  H  H264  1  0.439900  0.327300  0.936100  1
  H  H265  1  0.560100  0.327300  0.936100  1
  H  H266  1  0.939900  0.672700  0.436100  1
  H  H267  1  0.939900  0.327300  0.563900  1
  H  H268  1  0.560100  0.672700  0.063900  1
  H  H269  1  0.417300  0.731200  0.276100  1
  H  H270  1  0.082700  0.268800  0.776100  1
  H  H271  1  0.082700  0.731200  0.223900  1
  H  H272  1  0.417300  0.268800  0.723900  1
  H  H273  1  0.582700  0.268800  0.723900  1
  H  H274  1  0.917300  0.731200  0.223900  1
  H  H275  1  0.917300  0.268800  0.776100  1
  H  H276  1  0.582700  0.731200  0.276100  1
  H  H277  1  0.310500  0.782700  0.152000  1
  H  H278  1  0.189500  0.217300  0.652000  1
  H  H279  1  0.189500  0.782700  0.348000  1
  H  H280  1  0.310500  0.217300  0.848000  1
  H  H281  1  0.689500  0.217300  0.848000  1
  H  H282  1  0.810500  0.782700  0.348000  1
  H  H283  1  0.810500  0.217300  0.652000  1
  H  H284  1  0.689500  0.782700  0.152000  1
  H  H285  1  0.312400  0.855900  0.228700  1
  H  H286  1  0.187600  0.144100  0.728700  1
  H  H287  1  0.187600  0.855900  0.271300  1
  H  H288  1  0.312400  0.144100  0.771300  1
  H  H289  1  0.687600  0.144100  0.771300  1
  H  H290  1  0.812400  0.855900  0.271300  1
  H  H291  1  0.812400  0.144100  0.728700  1
  H  H292  1  0.687600  0.855900  0.228700  1
  H  H293  1  0.500000  0.787700  0.310400  1
  H  H294  1  0.000000  0.212300  0.810400  1
  H  H295  1  0.000000  0.787700  0.189600  1
  H  H296  1  0.500000  0.212300  0.689600  1
  H  H297  1  0.437400  0.939100  0.342900  1
  H  H298  1  0.062600  0.060900  0.842900  1
  H  H299  1  0.062600  0.939100  0.157100  1
  H  H300  1  0.437400  0.060900  0.657100  1
  H  H301  1  0.562600  0.060900  0.657100  1
  H  H302  1  0.937400  0.939100  0.157100  1
  H  H303  1  0.937400  0.060900  0.842900  1
  H  H304  1  0.562600  0.939100  0.342900  1
  H  H305  1  0.299100  0.691700  0.139500  1
  H  H306  1  0.200900  0.308300  0.639500  1
  H  H307  1  0.200900  0.691700  0.360500  1
  H  H308  1  0.299100  0.308300  0.860500  1
  H  H309  1  0.700900  0.308300  0.860500  1
  H  H310  1  0.799100  0.691700  0.360500  1
  H  H311  1  0.799100  0.308300  0.639500  1
  H  H312  1  0.700900  0.691700  0.139500  1
  H  H313  1  0.334800  0.637700  0.119100  1
  H  H314  1  0.165200  0.362300  0.619100  1
  H  H315  1  0.165200  0.637700  0.380900  1
  H  H316  1  0.334800  0.362300  0.880900  1
  H  H317  1  0.665200  0.362300  0.880900  1
  H  H318  1  0.834800  0.637700  0.380900  1
  H  H319  1  0.834800  0.362300  0.619100  1
  H  H320  1  0.665200  0.637700  0.119100  1
  H  H321  1  0.352500  0.698000  0.095800  1
  H  H322  1  0.147500  0.302000  0.595800  1
  H  H323  1  0.147500  0.698000  0.404200  1
  H  H324  1  0.352500  0.302000  0.904200  1
  H  H325  1  0.647500  0.302000  0.904200  1
  H  H326  1  0.852500  0.698000  0.404200  1
  H  H327  1  0.852500  0.302000  0.595800  1
  H  H328  1  0.647500  0.698000  0.095800  1
  H  H329  1  0.331600  0.880500  0.387000  1
  H  H330  1  0.168400  0.119500  0.887000  1
  H  H331  1  0.168400  0.880500  0.113000  1
  H  H332  1  0.331600  0.119500  0.613000  1
  H  H333  1  0.668400  0.119500  0.613000  1
  H  H334  1  0.831600  0.880500  0.113000  1
  H  H335  1  0.831600  0.119500  0.887000  1
  H  H336  1  0.668400  0.880500  0.387000  1
  H  H337  1  0.301200  0.867400  0.328300  1
  H  H338  1  0.198800  0.132600  0.828300  1
  H  H339  1  0.198800  0.867400  0.171700  1
  H  H340  1  0.301200  0.132600  0.671700  1
  H  H341  1  0.698800  0.132600  0.671700  1
  H  H342  1  0.801200  0.867400  0.171700  1
  H  H343  1  0.801200  0.132600  0.828300  1
  H  H344  1  0.698800  0.867400  0.328300  1
  H  H345  1  0.354900  0.911300  0.332200  1
  H  H346  1  0.145100  0.088700  0.832200  1
  H  H347  1  0.145100  0.911300  0.167800  1
  H  H348  1  0.354900  0.088700  0.667800  1
  H  H349  1  0.645100  0.088700  0.667800  1
  H  H350  1  0.854900  0.911300  0.167800  1
  H  H351  1  0.854900  0.088700  0.832200  1
  H  H352  1  0.645100  0.911300  0.332200  1
  H  H353  1  0.310800  0.668900  0.267700  1
  H  H354  1  0.189200  0.331100  0.767700  1
  H  H355  1  0.189200  0.668900  0.232300  1
  H  H356  1  0.310800  0.331100  0.732300  1
  H  H357  1  0.689200  0.331100  0.732300  1
  H  H358  1  0.810800  0.668900  0.232300  1
  H  H359  1  0.810800  0.331100  0.767700  1
  H  H360  1  0.689200  0.668900  0.267700  1
  H  H361  1  0.285800  0.587300  0.314400  1
  H  H362  1  0.214200  0.412700  0.814400  1
  H  H363  1  0.214200  0.587300  0.185600  1
  H  H364  1  0.285800  0.412700  0.685600  1
  H  H365  1  0.714200  0.412700  0.685600  1
  H  H366  1  0.785800  0.587300  0.185600  1
  H  H367  1  0.785800  0.412700  0.814400  1
  H  H368  1  0.714200  0.587300  0.314400  1
  H  H369  1  0.400900  0.500300  0.220700  1
  H  H370  1  0.099100  0.499700  0.720700  1
  H  H371  1  0.099100  0.500300  0.279300  1
  H  H372  1  0.400900  0.499700  0.779300  1
  H  H373  1  0.599100  0.499700  0.779300  1
  H  H374  1  0.900900  0.500300  0.279300  1
  H  H375  1  0.900900  0.499700  0.720700  1
  H  H376  1  0.599100  0.500300  0.220700  1
  H  H377  1  0.428500  0.581900  0.175300  1
  H  H378  1  0.071500  0.418100  0.675300  1
  H  H379  1  0.071500  0.581900  0.324700  1
  H  H380  1  0.428500  0.418100  0.824700  1
  H  H381  1  0.571500  0.418100  0.824700  1
  H  H382  1  0.928500  0.581900  0.324700  1
  H  H383  1  0.928500  0.418100  0.675300  1
  H  H384  1  0.571500  0.581900  0.175300  1
  H  H385  1  0.436400  0.820100  0.438800  1
  H  H386  1  0.063600  0.179900  0.938800  1
  H  H387  1  0.063600  0.820100  0.061200  1
  H  H388  1  0.436400  0.179900  0.561200  1
  H  H389  1  0.563600  0.179900  0.561200  1
  H  H390  1  0.936400  0.820100  0.061200  1
  H  H391  1  0.936400  0.179900  0.938800  1
  H  H392  1  0.563600  0.820100  0.438800  1
  H  H393  1  0.408600  0.766500  0.517200  1
  H  H394  1  0.091400  0.233500  0.017200  1
  H  H395  1  0.091400  0.766500  0.982800  1
  H  H396  1  0.408600  0.233500  0.482800  1
  H  H397  1  0.591400  0.233500  0.482800  1
  H  H398  1  0.908600  0.766500  0.982800  1
  H  H399  1  0.908600  0.233500  0.017200  1
  H  H400  1  0.591400  0.766500  0.517200  1
  H  H401  1  0.283500  0.684500  0.423400  1
  H  H402  1  0.216500  0.315500  0.923400  1
  H  H403  1  0.216500  0.684500  0.076600  1
  H  H404  1  0.283500  0.315500  0.576600  1
  H  H405  1  0.716500  0.315500  0.576600  1
  H  H406  1  0.783500  0.684500  0.076600  1
  H  H407  1  0.783500  0.315500  0.923400  1
  H  H408  1  0.716500  0.684500  0.423400  1
  H  H409  1  0.311200  0.738100  0.345000  1
  H  H410  1  0.188800  0.261900  0.845000  1
  H  H411  1  0.188800  0.738100  0.155000  1
  H  H412  1  0.311200  0.261900  0.655000  1
  H  H413  1  0.688800  0.261900  0.655000  1
  H  H414  1  0.811200  0.738100  0.155000  1
  H  H415  1  0.811200  0.261900  0.845000  1
  H  H416  1  0.688800  0.738100  0.345000  1
  H  H417  1  0.262600  0.439100  0.327100  1
  H  H418  1  0.237400  0.560900  0.827100  1
  H  H419  1  0.237400  0.439100  0.172900  1
  H  H420  1  0.262600  0.560900  0.672900  1
  H  H421  1  0.737400  0.560900  0.672900  1
  H  H422  1  0.762600  0.439100  0.172900  1
  H  H423  1  0.762600  0.560900  0.827100  1
  H  H424  1  0.737400  0.439100  0.327100  1
  H  H425  1  0.238400  0.500000  0.313600  1
  H  H426  1  0.261600  0.500000  0.813600  1
  H  H427  1  0.261600  0.500000  0.186400  1
  H  H428  1  0.238400  0.500000  0.686400  1
  H  H429  1  0.761600  0.500000  0.686400  1
  H  H430  1  0.738400  0.500000  0.186400  1
  H  H431  1  0.738400  0.500000  0.813600  1
  H  H432  1  0.761600  0.500000  0.313600  1
  H  H433  1  0.246700  0.689900  0.501000  1
  H  H434  1  0.253300  0.310100  0.001000  1
  H  H435  1  0.253300  0.689900  0.999000  1
  H  H436  1  0.246700  0.310100  0.499000  1
  H  H437  1  0.753300  0.310100  0.499000  1
  H  H438  1  0.746700  0.689900  0.999000  1
  H  H439  1  0.746700  0.310100  0.001000  1
  H  H440  1  0.753300  0.689900  0.501000  1
  H  H441  1  0.253300  0.667900  0.563300  1
  H  H442  1  0.246700  0.332100  0.063300  1
  H  H443  1  0.246700  0.667900  0.936700  1
  H  H444  1  0.253300  0.332100  0.436700  1
  H  H445  1  0.746700  0.332100  0.436700  1
  H  H446  1  0.753300  0.667900  0.936700  1
  H  H447  1  0.753300  0.332100  0.063300  1
  H  H448  1  0.746700  0.667900  0.563300  1
  H  H449  1  0.559800  0.682700  0.358900  1
  H  H450  1  0.940200  0.317300  0.858900  1
  H  H451  1  0.940200  0.682700  0.141100  1
  H  H452  1  0.559800  0.317300  0.641100  1
  H  H453  1  0.440200  0.317300  0.641100  1
  H  H454  1  0.059800  0.682700  0.141100  1
  H  H455  1  0.059800  0.317300  0.858900  1
  H  H456  1  0.440200  0.682700  0.358900  1
  H  H457  1  0.430200  0.574300  0.390300  1
  H  H458  1  0.069800  0.425700  0.890300  1
  H  H459  1  0.069800  0.574300  0.109700  1
  H  H460  1  0.430200  0.425700  0.609700  1
  H  H461  1  0.569800  0.425700  0.609700  1
  H  H462  1  0.930200  0.574300  0.109700  1
  H  H463  1  0.930200  0.425700  0.890300  1
  H  H464  1  0.569800  0.574300  0.390300  1
  H  H465  1  0.409900  0.635600  0.372000  1
  H  H466  1  0.090100  0.364400  0.872000  1
  H  H467  1  0.090100  0.635600  0.128000  1
  H  H468  1  0.409900  0.364400  0.628000  1
  H  H469  1  0.590100  0.364400  0.628000  1
  H  H470  1  0.909900  0.635600  0.128000  1
  H  H471  1  0.909900  0.364400  0.872000  1
  H  H472  1  0.590100  0.635600  0.372000  1
  H  H473  1  0.437500  0.593700  0.327100  1
  H  H474  1  0.062500  0.406300  0.827100  1
  H  H475  1  0.062500  0.593700  0.172900  1
  H  H476  1  0.437500  0.406300  0.672900  1
  H  H477  1  0.562500  0.406300  0.672900  1
  H  H478  1  0.937500  0.593700  0.172900  1
  H  H479  1  0.937500  0.406300  0.827100  1
  H  H480  1  0.562500  0.593700  0.327100  1
  H  H481  1  0.511800  0.568800  0.438700  1
  H  H482  1  0.988200  0.431200  0.938700  1
  H  H483  1  0.988200  0.568800  0.061300  1
  H  H484  1  0.511800  0.431200  0.561300  1
  H  H485  1  0.488200  0.431200  0.561300  1
  H  H486  1  0.011800  0.568800  0.061300  1
  H  H487  1  0.011800  0.431200  0.938700  1
  H  H488  1  0.488200  0.568800  0.438700  1
  H  H489  1  0.572300  0.584700  0.407000  1
  H  H490  1  0.927700  0.415300  0.907000  1
  H  H491  1  0.927700  0.584700  0.093000  1
  H  H492  1  0.572300  0.415300  0.593000  1
  H  H493  1  0.427700  0.415300  0.593000  1
  H  H494  1  0.072300  0.584700  0.093000  1
  H  H495  1  0.072300  0.415300  0.907000  1
  H  H496  1  0.427700  0.584700  0.407000  1
  H  H497  1  0.544700  0.626600  0.451900  1
  H  H498  1  0.955300  0.373400  0.951900  1
  H  H499  1  0.955300  0.626600  0.048100  1
  H  H500  1  0.544700  0.373400  0.548100  1
  H  H501  1  0.455300  0.373400  0.548100  1
  H  H502  1  0.044700  0.626600  0.048100  1
  H  H503  1  0.044700  0.373400  0.951900  1
  H  H504  1  0.455300  0.626600  0.451900  1
  H  H505  1  0.491100  0.601800  0.275900  1
  H  H506  1  0.008900  0.398200  0.775900  1
  H  H507  1  0.008900  0.601800  0.224100  1
  H  H508  1  0.491100  0.398200  0.724100  1
  H  H509  1  0.508900  0.398200  0.724100  1
  H  H510  1  0.991100  0.601800  0.224100  1
  H  H511  1  0.991100  0.398200  0.775900  1
  H  H512  1  0.508900  0.601800  0.275900  1
  H  H513  1  0.501300  0.541100  0.405300  1
  H  H514  1  0.998700  0.458900  0.905300  1
  H  H515  1  0.998700  0.541100  0.094700  1
  H  H516  1  0.501300  0.458900  0.594700  1
  H  H517  1  0.498700  0.458900  0.594700  1
  H  H518  1  0.001300  0.541100  0.094700  1
  H  H519  1  0.001300  0.458900  0.905300  1
  H  H520  1  0.498700  0.541100  0.405300  1
  H  H521  1  0.458100  0.535500  0.352700  1
  H  H522  1  0.041900  0.464500  0.852700  1
  H  H523  1  0.041900  0.535500  0.147300  1
  H  H524  1  0.458100  0.464500  0.647300  1
  H  H525  1  0.541900  0.464500  0.647300  1
  H  H526  1  0.958100  0.535500  0.147300  1
  H  H527  1  0.958100  0.464500  0.852700  1
  H  H528  1  0.541900  0.535500  0.352700  1
  H  H529  1  0.528800  0.529500  0.345200  1
  H  H530  1  0.971200  0.470500  0.845200  1
  H  H531  1  0.971200  0.529500  0.154800  1
  H  H532  1  0.528800  0.470500  0.654800  1
  H  H533  1  0.471200  0.470500  0.654800  1
  H  H534  1  0.028800  0.529500  0.154800  1
  H  H535  1  0.028800  0.470500  0.845200  1
  H  H536  1  0.471200  0.529500  0.345200  1
  H  H537  1  0.513500  0.624600  0.438300  1
  H  H538  1  0.986500  0.375400  0.938300  1
  H  H539  1  0.986500  0.624600  0.061700  1
  H  H540  1  0.513500  0.375400  0.561700  1
  H  H541  1  0.486500  0.375400  0.561700  1
  H  H542  1  0.013500  0.624600  0.061700  1
  H  H543  1  0.013500  0.375400  0.938300  1
  H  H544  1  0.486500  0.624600  0.438300  1
  H  H545  1  0.548900  0.667300  0.399400  1
  H  H546  1  0.951100  0.332700  0.899400  1
  H  H547  1  0.951100  0.667300  0.100600  1
  H  H548  1  0.548900  0.332700  0.600600  1
  H  H549  1  0.451100  0.332700  0.600600  1
  H  H550  1  0.048900  0.667300  0.100600  1
  H  H551  1  0.048900  0.332700  0.899400  1
  H  H552  1  0.451100  0.667300  0.399400  1
  H  H553  1  0.478200  0.673300  0.407000  1
  H  H554  1  0.021800  0.326700  0.907000  1
  H  H555  1  0.021800  0.673300  0.093000  1
  H  H556  1  0.478200  0.326700  0.593000  1
  H  H557  1  0.521800  0.326700  0.593000  1
  H  H558  1  0.978200  0.673300  0.093000  1
  H  H559  1  0.978200  0.326700  0.907000  1
  H  H560  1  0.521800  0.673300  0.407000  1
  H  H561  1  0.556800  0.810900  0.872500  1
  H  H562  1  0.943200  0.189100  0.372500  1
  H  H563  1  0.943200  0.810900  0.627500  1
  H  H564  1  0.556800  0.189100  0.127500  1
  H  H565  1  0.443200  0.189100  0.127500  1
  H  H566  1  0.056800  0.810900  0.627500  1
  H  H567  1  0.056800  0.189100  0.372500  1
  H  H568  1  0.443200  0.810900  0.872500  1
  H  H569  1  0.431100  0.925400  0.890400  1
  H  H570  1  0.068900  0.074600  0.390400  1
  H  H571  1  0.068900  0.925400  0.609600  1
  H  H572  1  0.431100  0.074600  0.109600  1
  H  H573  1  0.568900  0.074600  0.109600  1
  H  H574  1  0.931100  0.925400  0.609600  1
  H  H575  1  0.931100  0.074600  0.390400  1
  H  H576  1  0.568900  0.925400  0.890400  1
  H  H577  1  0.431700  0.894800  0.831400  1
  H  H578  1  0.068300  0.105200  0.331400  1
  H  H579  1  0.068300  0.894800  0.668600  1
  H  H580  1  0.431700  0.105200  0.168600  1
  H  H581  1  0.568300  0.105200  0.168600  1
  H  H582  1  0.931700  0.894800  0.668600  1
  H  H583  1  0.931700  0.105200  0.331400  1
  H  H584  1  0.568300  0.894800  0.831400  1
  H  H585  1  0.411900  0.861400  0.885900  1
  H  H586  1  0.088100  0.138600  0.385900  1
  H  H587  1  0.088100  0.861400  0.614100  1
  H  H588  1  0.411900  0.138600  0.114100  1
  H  H589  1  0.588100  0.138600  0.114100  1
  H  H590  1  0.911900  0.861400  0.614100  1
  H  H591  1  0.911900  0.138600  0.385900  1
  H  H592  1  0.588100  0.861400  0.885900  1
  H  H593  1  0.517200  0.940600  0.929800  1
  H  H594  1  0.982800  0.059400  0.429800  1
  H  H595  1  0.982800  0.940600  0.570200  1
  H  H596  1  0.517200  0.059400  0.070200  1
  H  H597  1  0.482800  0.059400  0.070200  1
  H  H598  1  0.017200  0.940600  0.570200  1
  H  H599  1  0.017200  0.059400  0.429800  1
  H  H600  1  0.482800  0.940600  0.929800  1
  H  H601  1  0.551900  0.885900  0.949800  1
  H  H602  1  0.948100  0.114100  0.449800  1
  H  H603  1  0.948100  0.885900  0.550200  1
  H  H604  1  0.551900  0.114100  0.050200  1
  H  H605  1  0.448100  0.114100  0.050200  1
  H  H606  1  0.051900  0.885900  0.550200  1
  H  H607  1  0.051900  0.114100  0.449800  1
  H  H608  1  0.448100  0.885900  0.949800  1
  H  H609  1  0.575400  0.919900  0.897000  1
  H  H610  1  0.924600  0.080100  0.397000  1
  H  H611  1  0.924600  0.919900  0.603000  1
  H  H612  1  0.575400  0.080100  0.103000  1
  H  H613  1  0.424600  0.080100  0.103000  1
  H  H614  1  0.075400  0.919900  0.603000  1
  H  H615  1  0.075400  0.080100  0.397000  1
  H  H616  1  0.424600  0.919900  0.897000  1
  H  H617  1  0.500000  0.892800  0.769500  1
  H  H618  1  0.000000  0.107200  0.269500  1
  H  H619  1  0.000000  0.892800  0.730500  1
  H  H620  1  0.500000  0.107200  0.230500  1
  H  H621  1  0.500000  0.882800  0.933800  1
  H  H622  1  0.000000  0.117200  0.433800  1
  H  H623  1  0.000000  0.882800  0.566200  1
  H  H624  1  0.500000  0.117200  0.066200  1
  H  H625  1  0.464200  0.835300  0.901200  1
  H  H626  1  0.035800  0.164700  0.401200  1
  H  H627  1  0.035800  0.835300  0.598800  1
  H  H628  1  0.464200  0.164700  0.098800  1
  H  H629  1  0.535800  0.164700  0.098800  1
  H  H630  1  0.964200  0.835300  0.598800  1
  H  H631  1  0.964200  0.164700  0.401200  1
  H  H632  1  0.535800  0.835300  0.901200  1
  H  H633  1  0.500000  0.965400  0.896100  1
  H  H634  1  0.000000  0.034600  0.396100  1
  H  H635  1  0.000000  0.965400  0.603900  1
  H  H636  1  0.500000  0.034600  0.103900  1
  H  H637  1  0.535800  0.971100  0.838900  1
  H  H638  1  0.964200  0.028900  0.338900  1
  H  H639  1  0.964200  0.971100  0.661100  1
  H  H640  1  0.535800  0.028900  0.161100  1
  H  H641  1  0.464200  0.028900  0.161100  1
  H  H642  1  0.035800  0.971100  0.661100  1
  H  H643  1  0.035800  0.028900  0.338900  1
  H  H644  1  0.464200  0.971100  0.838900  1
  H  H645  1  0.431600  0.890400  0.093600  1
  H  H646  1  0.068400  0.109600  0.593600  1
  H  H647  1  0.068400  0.890400  0.406400  1
  H  H648  1  0.431600  0.109600  0.906400  1
  H  H649  1  0.568400  0.109600  0.906400  1
  H  H650  1  0.931600  0.890400  0.406400  1
  H  H651  1  0.931600  0.109600  0.593600  1
  H  H652  1  0.568400  0.890400  0.093600  1
  H  H653  1  0.597100  0.860800  0.143600  1
  H  H654  1  0.902900  0.139200  0.643600  1
  H  H655  1  0.902900  0.860800  0.356400  1
  H  H656  1  0.597100  0.139200  0.856400  1
  H  H657  1  0.402900  0.139200  0.856400  1
  H  H658  1  0.097100  0.860800  0.356400  1
  H  H659  1  0.097100  0.139200  0.643600  1
  H  H660  1  0.402900  0.860800  0.143600  1
  H  H661  1  0.591800  0.893400  0.085900  1
  H  H662  1  0.908200  0.106600  0.585900  1
  H  H663  1  0.908200  0.893400  0.414100  1
  H  H664  1  0.591800  0.106600  0.914100  1
  H  H665  1  0.408200  0.106600  0.914100  1
  H  H666  1  0.091800  0.893400  0.414100  1
  H  H667  1  0.091800  0.106600  0.585900  1
  H  H668  1  0.408200  0.893400  0.085900  1
  H  H669  1  0.573800  0.923800  0.142600  1
  H  H670  1  0.926200  0.076200  0.642600  1
  H  H671  1  0.926200  0.923800  0.357400  1
  H  H672  1  0.573800  0.076200  0.857400  1
  H  H673  1  0.426200  0.076200  0.857400  1
  H  H674  1  0.073800  0.923800  0.357400  1
  H  H675  1  0.073800  0.076200  0.642600  1
  H  H676  1  0.426200  0.923800  0.142600  1
  H  H677  1  0.529800  0.798100  0.161100  1
  H  H678  1  0.970200  0.201900  0.661100  1
  H  H679  1  0.970200  0.798100  0.338900  1
  H  H680  1  0.529800  0.201900  0.838900  1
  H  H681  1  0.470200  0.201900  0.838900  1
  H  H682  1  0.029800  0.798100  0.338900  1
  H  H683  1  0.029800  0.201900  0.661100  1
  H  H684  1  0.470200  0.798100  0.161100  1
  H  H685  1  0.463700  0.821600  0.171200  1
  H  H686  1  0.036300  0.178400  0.671200  1
  H  H687  1  0.036300  0.821600  0.328800  1
  H  H688  1  0.463700  0.178400  0.828800  1
  H  H689  1  0.536300  0.178400  0.828800  1
  H  H690  1  0.963700  0.821600  0.328800  1
  H  H691  1  0.963700  0.178400  0.671200  1
  H  H692  1  0.536300  0.821600  0.171200  1
  H  H693  1  0.479100  0.788900  0.115100  1
  H  H694  1  0.020900  0.211100  0.615100  1
  H  H695  1  0.020900  0.788900  0.384900  1
  H  H696  1  0.479100  0.211100  0.884900  1
  H  H697  1  0.520900  0.211100  0.884900  1
  H  H698  1  0.979100  0.788900  0.384900  1
  H  H699  1  0.979100  0.211100  0.615100  1
  H  H700  1  0.520900  0.788900  0.115100  1
  H  H701  1  0.429800  0.374300  0.415300  1
  H  H702  1  0.070200  0.625700  0.915300  1
  H  H703  1  0.070200  0.374300  0.084700  1
  H  H704  1  0.429800  0.625700  0.584700  1
  H  H705  1  0.570200  0.625700  0.584700  1
  H  H706  1  0.929800  0.374300  0.084700  1
  H  H707  1  0.929800  0.625700  0.915300  1
  H  H708  1  0.570200  0.374300  0.415300  1
  H  H709  1  0.592700  0.376500  0.350200  1
  H  H710  1  0.907300  0.623500  0.850200  1
  H  H711  1  0.907300  0.376500  0.149800  1
  H  H712  1  0.592700  0.623500  0.649800  1
  H  H713  1  0.407300  0.623500  0.649800  1
  H  H714  1  0.092700  0.376500  0.149800  1
  H  H715  1  0.092700  0.623500  0.850200  1
  H  H716  1  0.407300  0.376500  0.350200  1
  H  H717  1  0.567700  0.435100  0.371600  1
  H  H718  1  0.932300  0.564900  0.871600  1
  H  H719  1  0.932300  0.435100  0.128400  1
  H  H720  1  0.567700  0.564900  0.628400  1
  H  H721  1  0.432300  0.564900  0.628400  1
  H  H722  1  0.067700  0.435100  0.128400  1
  H  H723  1  0.067700  0.564900  0.871600  1
  H  H724  1  0.432300  0.435100  0.371600  1
  H  H725  1  0.586200  0.388000  0.415300  1
  H  H726  1  0.913800  0.612000  0.915300  1
  H  H727  1  0.913800  0.388000  0.084700  1
  H  H728  1  0.586200  0.612000  0.584700  1
  H  H729  1  0.413800  0.612000  0.584700  1
  H  H730  1  0.086200  0.388000  0.084700  1
  H  H731  1  0.086200  0.612000  0.915300  1
  H  H732  1  0.413800  0.388000  0.415300  1
  H  H733  1  0.530700  0.310500  0.323800  1
  H  H734  1  0.969300  0.689500  0.823800  1
  H  H735  1  0.969300  0.310500  0.176200  1
  H  H736  1  0.530700  0.689500  0.676200  1
  H  H737  1  0.469300  0.689500  0.676200  1
  H  H738  1  0.030700  0.310500  0.176200  1
  H  H739  1  0.030700  0.689500  0.823800  1
  H  H740  1  0.469300  0.310500  0.323800  1
  H  H741  1  0.493500  0.288500  0.376100  1
  H  H742  1  0.006500  0.711500  0.876100  1
  H  H743  1  0.006500  0.288500  0.123900  1
  H  H744  1  0.493500  0.711500  0.623900  1
  H  H745  1  0.506500  0.711500  0.623900  1
  H  H746  1  0.993500  0.288500  0.123900  1
  H  H747  1  0.993500  0.711500  0.876100  1
  H  H748  1  0.506500  0.288500  0.376100  1
  H  H749  1  0.460100  0.320200  0.326700  1
  H  H750  1  0.039900  0.679800  0.826700  1
  H  H751  1  0.039900  0.320200  0.173300  1
  H  H752  1  0.460100  0.679800  0.673300  1
  H  H753  1  0.539900  0.679800  0.673300  1
  H  H754  1  0.960100  0.320200  0.173300  1
  H  H755  1  0.960100  0.679800  0.826700  1
  H  H756  1  0.539900  0.320200  0.326700  1
  H  H757  1  0.420300  0.714300  0.248700  1
  H  H758  1  0.079700  0.285700  0.748700  1
  H  H759  1  0.079700  0.714300  0.251300  1
  H  H760  1  0.420300  0.285700  0.751300  1
  H  H761  1  0.579700  0.285700  0.751300  1
  H  H762  1  0.920300  0.714300  0.251300  1
  H  H763  1  0.920300  0.285700  0.748700  1
  H  H764  1  0.579700  0.714300  0.248700  1
  H  H765  1  0.500000  0.707000  0.828300  1
  H  H766  1  0.000000  0.293000  0.328300  1
  H  H767  1  0.000000  0.707000  0.671700  1
  H  H768  1  0.500000  0.293000  0.171700  1
  H  H769  1  0.500000  0.799800  0.732700  1
  H  H770  1  0.000000  0.200200  0.232700  1
  H  H771  1  0.000000  0.799800  0.767300  1
  H  H772  1  0.500000  0.200200  0.267300  1
  H  H773  1  0.500000  0.678300  0.199900  1.0
  H  H774  1  0.000000  0.321700  0.699900  1.0
  H  H775  1  0.000000  0.678300  0.300100  1.0
  H  H776  1  0.500000  0.321700  0.800100  1.0
  H  H777  1  0.500000  0.771500  0.307300  1.0
  H  H778  1  0.000000  0.228500  0.807300  1.0
  H  H779  1  0.000000  0.771500  0.192700  1.0
  H  H780  1  0.500000  0.228500  0.692700  1.0
  H  H781  1  0.442500  0.555700  0.868800  1.0
  H  H782  1  0.057500  0.444300  0.368800  1.0
  H  H783  1  0.057500  0.555700  0.631200  1.0
  H  H784  1  0.442500  0.444300  0.131200  1.0
  H  H785  1  0.557500  0.444300  0.131200  1.0
  H  H786  1  0.942500  0.555700  0.631200  1.0
  H  H787  1  0.942500  0.444300  0.368800  1.0
  H  H788  1  0.557500  0.555700  0.868800  1.0
  H  H789  1  0.420900  0.755400  0.784600  1.0
  H  H790  1  0.079100  0.244600  0.284600  1.0
  H  H791  1  0.079100  0.755400  0.715400  1.0
  H  H792  1  0.420900  0.244600  0.215400  1.0
  H  H793  1  0.579100  0.244600  0.215400  1.0
  H  H794  1  0.920900  0.755400  0.715400  1.0
  H  H795  1  0.920900  0.244600  0.284600  1.0
  H  H796  1  0.579100  0.755400  0.784600  1.0
  H  H797  1  0.313400  0.631200  0.747100  1.0
  H  H798  1  0.186600  0.368800  0.247100  1.0
  H  H799  1  0.186600  0.631200  0.752900  1.0
  H  H800  1  0.313400  0.368800  0.252900  1.0
  H  H801  1  0.686600  0.368800  0.252900  1.0
  H  H802  1  0.813400  0.631200  0.752900  1.0
  H  H803  1  0.813400  0.368800  0.247100  1.0
  H  H804  1  0.686600  0.631200  0.747100  1.0
  H  H805  1  0.302900  0.711200  0.667800  1.0
  H  H806  1  0.197100  0.288800  0.167800  1.0
  H  H807  1  0.197100  0.711200  0.832200  1.0
  H  H808  1  0.302900  0.288800  0.332200  1.0
  H  H809  1  0.697100  0.288800  0.332200  1.0
  H  H810  1  0.802900  0.711200  0.832200  1.0
  H  H811  1  0.802900  0.288800  0.167800  1.0
  H  H812  1  0.697100  0.711200  0.667800  1.0
  H  H813  1  0.441900  0.809900  0.568100  1.0
  H  H814  1  0.058100  0.190100  0.068100  1.0
  H  H815  1  0.058100  0.809900  0.931900  1.0
  H  H816  1  0.441900  0.190100  0.431900  1.0
  H  H817  1  0.558100  0.190100  0.431900  1.0
  H  H818  1  0.941900  0.809900  0.931900  1.0
  H  H819  1  0.941900  0.190100  0.068100  1.0
  H  H820  1  0.558100  0.809900  0.568100  1.0
  H  H821  1  0.300900  0.626500  0.850100  1.0
  H  H822  1  0.199100  0.373500  0.350100  1.0
  H  H823  1  0.199100  0.626500  0.649900  1.0
  H  H824  1  0.300900  0.373500  0.149900  1.0
  H  H825  1  0.699100  0.373500  0.149900  1.0
  H  H826  1  0.800900  0.626500  0.649900  1.0
  H  H827  1  0.800900  0.373500  0.350100  1.0
  H  H828  1  0.699100  0.626500  0.850100  1.0
  H  H829  1  0.341800  0.607300  0.901100  1.0
  H  H830  1  0.158200  0.392700  0.401100  1.0
  H  H831  1  0.158200  0.607300  0.598900  1.0
  H  H832  1  0.341800  0.392700  0.098900  1.0
  H  H833  1  0.658200  0.392700  0.098900  1.0
  H  H834  1  0.841800  0.607300  0.598900  1.0
  H  H835  1  0.841800  0.392700  0.401100  1.0
  H  H836  1  0.658200  0.607300  0.901100  1.0
  H  H837  1  0.353600  0.582400  0.840500  1.0
  H  H838  1  0.146400  0.417600  0.340500  1.0
  H  H839  1  0.146400  0.582400  0.659500  1.0
  H  H840  1  0.353600  0.417600  0.159500  1.0
  H  H841  1  0.646400  0.417600  0.159500  1.0
  H  H842  1  0.853600  0.582400  0.659500  1.0
  H  H843  1  0.853600  0.417600  0.340500  1.0
  H  H844  1  0.646400  0.582400  0.840500  1.0
  H  H845  1  0.354600  0.835300  0.608000  1.0
  H  H846  1  0.145400  0.164700  0.108000  1.0
  H  H847  1  0.145400  0.835300  0.892000  1.0
  H  H848  1  0.354600  0.164700  0.392000  1.0
  H  H849  1  0.645400  0.164700  0.392000  1.0
  H  H850  1  0.854600  0.835300  0.892000  1.0
  H  H851  1  0.854600  0.164700  0.108000  1.0
  H  H852  1  0.645400  0.835300  0.608000  1.0
  H  H853  1  0.300700  0.816400  0.647300  1.0
  H  H854  1  0.199300  0.183600  0.147300  1.0
  H  H855  1  0.199300  0.816400  0.852700  1.0
  H  H856  1  0.300700  0.183600  0.352700  1.0
  H  H857  1  0.699300  0.183600  0.352700  1.0
  H  H858  1  0.800700  0.816400  0.852700  1.0
  H  H859  1  0.800700  0.183600  0.147300  1.0
  H  H860  1  0.699300  0.816400  0.647300  1.0
  H  H861  1  0.339600  0.770600  0.615400  1.0
  H  H862  1  0.160400  0.229400  0.115400  1.0
  H  H863  1  0.160400  0.770600  0.884600  1.0
  H  H864  1  0.339600  0.229400  0.384600  1.0
  H  H865  1  0.660400  0.229400  0.384600  1.0
  H  H866  1  0.839600  0.770600  0.884600  1.0
  H  H867  1  0.839600  0.229400  0.115400  1.0
  H  H868  1  0.660400  0.770600  0.615400  1.0
  H  H869  1  0.309900  0.752900  0.849700  1.0
  H  H870  1  0.190100  0.247100  0.349700  1.0
  H  H871  1  0.190100  0.752900  0.650300  1.0
  H  H872  1  0.309900  0.247100  0.150300  1.0
  H  H873  1  0.690100  0.247100  0.150300  1.0
  H  H874  1  0.809900  0.752900  0.650300  1.0
  H  H875  1  0.809900  0.247100  0.349700  1.0
  H  H876  1  0.690100  0.752900  0.849700  1.0
  H  H877  1  0.277000  0.808000  0.926000  1.0
  H  H878  1  0.223000  0.192000  0.426000  1.0
  H  H879  1  0.223000  0.808000  0.574000  1.0
  H  H880  1  0.277000  0.192000  0.074000  1.0
  H  H881  1  0.723000  0.192000  0.074000  1.0
  H  H882  1  0.777000  0.808000  0.574000  1.0
  H  H883  1  0.777000  0.192000  0.426000  1.0
  H  H884  1  0.723000  0.808000  0.926000  1.0
  H  H885  1  0.408500  0.741100  0.023600  1.0
  H  H886  1  0.091500  0.258900  0.523600  1.0
  H  H887  1  0.091500  0.741100  0.476400  1.0
  H  H888  1  0.408500  0.258900  0.976400  1.0
  H  H889  1  0.591500  0.258900  0.976400  1.0
  H  H890  1  0.908500  0.741100  0.476400  1.0
  H  H891  1  0.908500  0.258900  0.523600  1.0
  H  H892  1  0.591500  0.741100  0.023600  1.0
  H  H893  1  0.444300  0.689500  0.946000  1.0
  H  H894  1  0.055700  0.310500  0.446000  1.0
  H  H895  1  0.055700  0.689500  0.554000  1.0
  H  H896  1  0.444300  0.310500  0.054000  1.0
  H  H897  1  0.555700  0.310500  0.054000  1.0
  H  H898  1  0.944300  0.689500  0.554000  1.0
  H  H899  1  0.944300  0.310500  0.446000  1.0
  H  H900  1  0.555700  0.689500  0.946000  1.0
  H  H901  1  0.431900  0.905600  0.677000  1.0
  H  H902  1  0.068100  0.094400  0.177000  1.0
  H  H903  1  0.068100  0.905600  0.823000  1.0
  H  H904  1  0.431900  0.094400  0.323000  1.0
  H  H905  1  0.568100  0.094400  0.323000  1.0
  H  H906  1  0.931900  0.905600  0.823000  1.0
  H  H907  1  0.931900  0.094400  0.177000  1.0
  H  H908  1  0.568100  0.905600  0.677000  1.0
  H  H909  1  0.405300  0.990500  0.720400  1.0
  H  H910  1  0.094700  0.009500  0.220400  1.0
  H  H911  1  0.094700  0.990500  0.779600  1.0
  H  H912  1  0.405300  0.009500  0.279600  1.0
  H  H913  1  0.594700  0.009500  0.279600  1.0
  H  H914  1  0.905300  0.990500  0.779600  1.0
  H  H915  1  0.905300  0.009500  0.220400  1.0
  H  H916  1  0.594700  0.990500  0.720400  1.0
  H  H917  1  0.285900  0.907100  0.819300  1.0
  H  H918  1  0.214100  0.092900  0.319300  1.0
  H  H919  1  0.214100  0.907100  0.680700  1.0
  H  H920  1  0.285900  0.092900  0.180700  1.0
  H  H921  1  0.714100  0.092900  0.180700  1.0
  H  H922  1  0.785900  0.907100  0.680700  1.0
  H  H923  1  0.785900  0.092900  0.319300  1.0
  H  H924  1  0.714100  0.907100  0.819300  1.0
  H  H925  1  0.312500  0.822100  0.775800  1.0
  H  H926  1  0.187500  0.177900  0.275800  1.0
  H  H927  1  0.187500  0.822100  0.724200  1.0
  H  H928  1  0.312500  0.177900  0.224200  1.0
  H  H929  1  0.687500  0.177900  0.224200  1.0
  H  H930  1  0.812500  0.822100  0.724200  1.0
  H  H931  1  0.812500  0.177900  0.275800  1.0
  H  H932  1  0.687500  0.822100  0.775800  1.0
  H  H933  1  0.246900  0.827400  0.060700  1.0
  H  H934  1  0.253100  0.172600  0.560700  1.0
  H  H935  1  0.253100  0.827400  0.439300  1.0
  H  H936  1  0.246900  0.172600  0.939300  1.0
  H  H937  1  0.753100  0.172600  0.939300  1.0
  H  H938  1  0.746900  0.827400  0.439300  1.0
  H  H939  1  0.746900  0.172600  0.560700  1.0
  H  H940  1  0.753100  0.827400  0.060700  1.0
  H  H941  1  0.247800  0.808300  0.997300  1.0
  H  H942  1  0.252200  0.191700  0.497300  1.0
  H  H943  1  0.252200  0.808300  0.502700  1.0
  H  H944  1  0.247800  0.191700  0.002700  1.0
  H  H945  1  0.752200  0.191700  0.002700  1.0
  H  H946  1  0.747800  0.808300  0.502700  1.0
  H  H947  1  0.747800  0.191700  0.497300  1.0
  H  H948  1  0.752200  0.808300  0.997300  1.0
  H  H949  1  0.240000  0.995000  0.810800  1.0
  H  H950  1  0.260000  0.005000  0.310800  1.0
  H  H951  1  0.260000  0.995000  0.689200  1.0
  H  H952  1  0.240000  0.005000  0.189200  1.0
  H  H953  1  0.760000  0.005000  0.189200  1.0
  H  H954  1  0.740000  0.995000  0.689200  1.0
  H  H955  1  0.740000  0.005000  0.310800  1.0
  H  H956  1  0.760000  0.995000  0.810800  1.0
  H  H957  1  0.265300  0.055400  0.824300  1.0
  H  H958  1  0.234700  0.944600  0.324300  1.0
  H  H959  1  0.234700  0.055400  0.675700  1.0
  H  H960  1  0.265300  0.944600  0.175700  1.0
  H  H961  1  0.734700  0.944600  0.175700  1.0
  H  H962  1  0.765300  0.055400  0.675700  1.0
  H  H963  1  0.765300  0.944600  0.324300  1.0
  H  H964  1  0.734700  0.055400  0.824300  1.0
  H  H965  1  0.441800  0.633700  0.046400  1.0
  H  H966  1  0.058200  0.366300  0.546400  1.0
  H  H967  1  0.058200  0.633700  0.453600  1.0
  H  H968  1  0.441800  0.366300  0.953600  1.0
  H  H969  1  0.558200  0.366300  0.953600  1.0
  H  H970  1  0.941800  0.633700  0.453600  1.0
  H  H971  1  0.941800  0.366300  0.546400  1.0
  H  H972  1  0.558200  0.633700  0.046400  1.0
  H  H973  1  0.303600  0.742800  0.124600  1.0
  H  H974  1  0.196400  0.257200  0.624600  1.0
  H  H975  1  0.196400  0.742800  0.375400  1.0
  H  H976  1  0.303600  0.257200  0.875400  1.0
  H  H977  1  0.696400  0.257200  0.875400  1.0
  H  H978  1  0.803600  0.742800  0.375400  1.0
  H  H979  1  0.803600  0.257200  0.624600  1.0
  H  H980  1  0.696400  0.742800  0.124600  1.0
  H  H981  1  0.295200  0.819700  0.197200  1.0
  H  H982  1  0.204800  0.180300  0.697200  1.0
  H  H983  1  0.204800  0.819700  0.302800  1.0
  H  H984  1  0.295200  0.180300  0.802800  1.0
  H  H985  1  0.704800  0.180300  0.802800  1.0
  H  H986  1  0.795200  0.819700  0.302800  1.0
  H  H987  1  0.795200  0.180300  0.697200  1.0
  H  H988  1  0.704800  0.819700  0.197200  1.0
  H  H989  1  0.438900  0.918200  0.254400  1.0
  H  H990  1  0.061100  0.081800  0.754400  1.0
  H  H991  1  0.061100  0.918200  0.245600  1.0
  H  H992  1  0.438900  0.081800  0.745600  1.0
  H  H993  1  0.561100  0.081800  0.745600  1.0
  H  H994  1  0.938900  0.918200  0.245600  1.0
  H  H995  1  0.938900  0.081800  0.754400  1.0
  H  H996  1  0.561100  0.918200  0.254400  1.0
  H  H997  1  0.299400  0.651000  0.121900  1.0
  H  H998  1  0.200600  0.349000  0.621900  1.0
  H  H999  1  0.200600  0.651000  0.378100  1.0
  H  H1000  1  0.299400  0.349000  0.878100  1.0
  H  H1001  1  0.700600  0.349000  0.878100  1.0
  H  H1002  1  0.799400  0.651000  0.378100  1.0
  H  H1003  1  0.799400  0.349000  0.621900  1.0
  H  H1004  1  0.700600  0.651000  0.121900  1.0
  H  H1005  1  0.338600  0.597300  0.106900  1.0
  H  H1006  1  0.161400  0.402700  0.606900  1.0
  H  H1007  1  0.161400  0.597300  0.393100  1.0
  H  H1008  1  0.338600  0.402700  0.893100  1.0
  H  H1009  1  0.661400  0.402700  0.893100  1.0
  H  H1010  1  0.838600  0.597300  0.393100  1.0
  H  H1011  1  0.838600  0.402700  0.606900  1.0
  H  H1012  1  0.661400  0.597300  0.106900  1.0
  H  H1013  1  0.351600  0.655500  0.076800  1.0
  H  H1014  1  0.148400  0.344500  0.576800  1.0
  H  H1015  1  0.148400  0.655500  0.423200  1.0
  H  H1016  1  0.351600  0.344500  0.923200  1.0
  H  H1017  1  0.648400  0.344500  0.923200  1.0
  H  H1018  1  0.851600  0.655500  0.423200  1.0
  H  H1019  1  0.851600  0.344500  0.576800  1.0
  H  H1020  1  0.648400  0.655500  0.076800  1.0
  H  H1021  1  0.302300  0.856600  0.315400  1.0
  H  H1022  1  0.197700  0.143400  0.815400  1.0
  H  H1023  1  0.197700  0.856600  0.184600  1.0
  H  H1024  1  0.302300  0.143400  0.684600  1.0
  H  H1025  1  0.697700  0.143400  0.684600  1.0
  H  H1026  1  0.802300  0.856600  0.184600  1.0
  H  H1027  1  0.802300  0.143400  0.815400  1.0
  H  H1028  1  0.697700  0.856600  0.315400  1.0
  H  H1029  1  0.333333  0.881500  0.260900  1.0
  H  H1030  1  0.166667  0.118500  0.760900  1.0
  H  H1031  1  0.166667  0.881500  0.239100  1.0
  H  H1032  1  0.333333  0.118500  0.739100  1.0
  H  H1033  1  0.666667  0.118500  0.739100  1.0
  H  H1034  1  0.833333  0.881500  0.239100  1.0
  H  H1035  1  0.833333  0.118500  0.760900  1.0
  H  H1036  1  0.666667  0.881500  0.260900  1.0
  H  H1037  1  0.357600  0.898500  0.321000  1.0
  H  H1038  1  0.142400  0.101500  0.821000  1.0
  H  H1039  1  0.142400  0.898500  0.179000  1.0
  H  H1040  1  0.357600  0.101500  0.679000  1.0
  H  H1041  1  0.642400  0.101500  0.679000  1.0
  H  H1042  1  0.857600  0.898500  0.179000  1.0
  H  H1043  1  0.857600  0.101500  0.821000  1.0
  H  H1044  1  0.642400  0.898500  0.321000  1.0
  H  H1045  1  0.309400  0.643700  0.248900  1.0
  H  H1046  1  0.190600  0.356300  0.748900  1.0
  H  H1047  1  0.190600  0.643700  0.251100  1.0
  H  H1048  1  0.309400  0.356300  0.751100  1.0
  H  H1049  1  0.690600  0.356300  0.751100  1.0
  H  H1050  1  0.809400  0.643700  0.251100  1.0
  H  H1051  1  0.809400  0.356300  0.748900  1.0
  H  H1052  1  0.690600  0.643700  0.248900  1.0
  H  H1053  1  0.291700  0.567100  0.306200  1.0
  H  H1054  1  0.208300  0.432900  0.806200  1.0
  H  H1055  1  0.208300  0.567100  0.193800  1.0
  H  H1056  1  0.291700  0.432900  0.693800  1.0
  H  H1057  1  0.708300  0.432900  0.693800  1.0
  H  H1058  1  0.791700  0.567100  0.193800  1.0
  H  H1059  1  0.791700  0.432900  0.806200  1.0
  H  H1060  1  0.708300  0.567100  0.306200  1.0
  H  H1061  1  0.436400  0.490200  0.244000  1.0
  H  H1062  1  0.063600  0.509800  0.744000  1.0
  H  H1063  1  0.063600  0.490200  0.256000  1.0
  H  H1064  1  0.436400  0.509800  0.756000  1.0
  H  H1065  1  0.563600  0.509800  0.756000  1.0
  H  H1066  1  0.936400  0.490200  0.256000  1.0
  H  H1067  1  0.936400  0.509800  0.744000  1.0
  H  H1068  1  0.563600  0.490200  0.244000  1.0
  H  H1069  1  0.438900  0.555800  0.172200  1.0
  H  H1070  1  0.061100  0.444200  0.672200  1.0
  H  H1071  1  0.061100  0.555800  0.327800  1.0
  H  H1072  1  0.438900  0.444200  0.827800  1.0
  H  H1073  1  0.561100  0.444200  0.827800  1.0
  H  H1074  1  0.938900  0.555800  0.327800  1.0
  H  H1075  1  0.938900  0.444200  0.672200  1.0
  H  H1076  1  0.561100  0.555800  0.172200  1.0
  H  H1077  1  0.434700  0.828200  0.400100  1.0
  H  H1078  1  0.065300  0.171800  0.900100  1.0
  H  H1079  1  0.065300  0.828200  0.099900  1.0
  H  H1080  1  0.434700  0.171800  0.599900  1.0
  H  H1081  1  0.565300  0.171800  0.599900  1.0
  H  H1082  1  0.934700  0.828200  0.099900  1.0
  H  H1083  1  0.934700  0.171800  0.900100  1.0
  H  H1084  1  0.565300  0.828200  0.400100  1.0
  H  H1085  1  0.420100  0.776200  0.482600  1.0
  H  H1086  1  0.079900  0.223800  0.982600  1.0
  H  H1087  1  0.079900  0.776200  0.017400  1.0
  H  H1088  1  0.420100  0.223800  0.517400  1.0
  H  H1089  1  0.579900  0.223800  0.517400  1.0
  H  H1090  1  0.920100  0.776200  0.017400  1.0
  H  H1091  1  0.920100  0.223800  0.982600  1.0
  H  H1092  1  0.579900  0.776200  0.482600  1.0
  H  H1093  1  0.291400  0.683100  0.404400  1.0
  H  H1094  1  0.208600  0.316900  0.904400  1.0
  H  H1095  1  0.208600  0.683100  0.095600  1.0
  H  H1096  1  0.291400  0.316900  0.595600  1.0
  H  H1097  1  0.708600  0.316900  0.595600  1.0
  H  H1098  1  0.791400  0.683100  0.095600  1.0
  H  H1099  1  0.791400  0.316900  0.904400  1.0
  H  H1100  1  0.708600  0.683100  0.404400  1.0
  H  H1101  1  0.313600  0.728700  0.319800  1.0
  H  H1102  1  0.186400  0.271300  0.819800  1.0
  H  H1103  1  0.186400  0.728700  0.180200  1.0
  H  H1104  1  0.313600  0.271300  0.680200  1.0
  H  H1105  1  0.686400  0.271300  0.680200  1.0
  H  H1106  1  0.813600  0.728700  0.180200  1.0
  H  H1107  1  0.813600  0.271300  0.819800  1.0
  H  H1108  1  0.686400  0.728700  0.319800  1.0
  H  H1109  1  0.295400  0.421400  0.346500  1.0
  H  H1110  1  0.204600  0.578600  0.846500  1.0
  H  H1111  1  0.204600  0.421400  0.153500  1.0
  H  H1112  1  0.295400  0.578600  0.653500  1.0
  H  H1113  1  0.704600  0.578600  0.653500  1.0
  H  H1114  1  0.795400  0.421400  0.153500  1.0
  H  H1115  1  0.795400  0.578600  0.846500  1.0
  H  H1116  1  0.704600  0.421400  0.346500  1.0
  H  H1117  1  0.260800  0.474800  0.323700  1.0
  H  H1118  1  0.239200  0.525200  0.823700  1.0
  H  H1119  1  0.239200  0.474800  0.176300  1.0
  H  H1120  1  0.260800  0.525200  0.676300  1.0
  H  H1121  1  0.739200  0.525200  0.676300  1.0
  H  H1122  1  0.760800  0.474800  0.176300  1.0
  H  H1123  1  0.760800  0.525200  0.823700  1.0
  H  H1124  1  0.739200  0.474800  0.323700  1.0
  H  H1125  1  0.262900  0.683600  0.464000  1.0
  H  H1126  1  0.237100  0.316400  0.964000  1.0
  H  H1127  1  0.237100  0.683600  0.036000  1.0
  H  H1128  1  0.262900  0.316400  0.536000  1.0
  H  H1129  1  0.737100  0.316400  0.536000  1.0
  H  H1130  1  0.762900  0.683600  0.036000  1.0
  H  H1131  1  0.762900  0.316400  0.964000  1.0
  H  H1132  1  0.737100  0.683600  0.464000  1.0
  H  H1133  1  0.253200  0.686300  0.529700  1.0
  H  H1134  1  0.246800  0.313700  0.029700  1.0
  H  H1135  1  0.246800  0.686300  0.970300  1.0
  H  H1136  1  0.253200  0.313700  0.470300  1.0
  H  H1137  1  0.746800  0.313700  0.470300  1.0
  H  H1138  1  0.753200  0.686300  0.970300  1.0
  H  H1139  1  0.753200  0.313700  0.029700  1.0
  H  H1140  1  0.746800  0.686300  0.529700  1.0
  C  C1141  1  0.463700  0.611700  0.773500  1
  C  C1142  1  0.036300  0.388300  0.273500  1
  C  C1143  1  0.036300  0.611700  0.726500  1
  C  C1144  1  0.463700  0.388300  0.226500  1
  C  C1145  1  0.536300  0.388300  0.226500  1
  C  C1146  1  0.963700  0.611700  0.726500  1
  C  C1147  1  0.963700  0.388300  0.273500  1
  C  C1148  1  0.536300  0.611700  0.773500  1
  C  C1149  1  0.448700  0.659200  0.803500  1
  C  C1150  1  0.051300  0.340800  0.303500  1
  C  C1151  1  0.051300  0.659200  0.696500  1
  C  C1152  1  0.448700  0.340800  0.196500  1
  C  C1153  1  0.551300  0.340800  0.196500  1
  C  C1154  1  0.948700  0.659200  0.696500  1
  C  C1155  1  0.948700  0.340800  0.303500  1
  C  C1156  1  0.551300  0.659200  0.803500  1
  C  C1157  1  0.384400  0.682600  0.810300  1
  C  C1158  1  0.115600  0.317400  0.310300  1
  C  C1159  1  0.115600  0.682600  0.689700  1
  C  C1160  1  0.384400  0.317400  0.189700  1
  C  C1161  1  0.615600  0.317400  0.189700  1
  C  C1162  1  0.884400  0.682600  0.689700  1
  C  C1163  1  0.884400  0.317400  0.310300  1
  C  C1164  1  0.615600  0.682600  0.810300  1
  C  C1165  1  0.368100  0.714300  0.756100  1
  C  C1166  1  0.131900  0.285700  0.256100  1
  C  C1167  1  0.131900  0.714300  0.743900  1
  C  C1168  1  0.368100  0.285700  0.243900  1
  C  C1169  1  0.631900  0.285700  0.243900  1
  C  C1170  1  0.868100  0.714300  0.743900  1
  C  C1171  1  0.868100  0.285700  0.256100  1
  C  C1172  1  0.631900  0.714300  0.756100  1
  C  C1173  1  0.332800  0.697900  0.709000  1
  C  C1174  1  0.167200  0.302100  0.209000  1
  C  C1175  1  0.167200  0.697900  0.791000  1
  C  C1176  1  0.332800  0.302100  0.291000  1
  C  C1177  1  0.667200  0.302100  0.291000  1
  C  C1178  1  0.832800  0.697900  0.791000  1
  C  C1179  1  0.832800  0.302100  0.209000  1
  C  C1180  1  0.667200  0.697900  0.709000  1
  C  C1181  1  0.330800  0.746600  0.665500  1
  C  C1182  1  0.169200  0.253400  0.165500  1
  C  C1183  1  0.169200  0.746600  0.834500  1
  C  C1184  1  0.330800  0.253400  0.334500  1
  C  C1185  1  0.669200  0.253400  0.334500  1
  C  C1186  1  0.830800  0.746600  0.834500  1
  C  C1187  1  0.830800  0.253400  0.165500  1
  C  C1188  1  0.669200  0.746600  0.665500  1
  C  C1189  1  0.371300  0.782600  0.687100  1
  C  C1190  1  0.128700  0.217400  0.187100  1
  C  C1191  1  0.128700  0.782600  0.812900  1
  C  C1192  1  0.371300  0.217400  0.312900  1
  C  C1193  1  0.628700  0.217400  0.312900  1
  C  C1194  1  0.871300  0.782600  0.812900  1
  C  C1195  1  0.871300  0.217400  0.187100  1
  C  C1196  1  0.628700  0.782600  0.687100  1
  C  C1197  1  0.385000  0.841900  0.664400  1
  C  C1198  1  0.115000  0.158100  0.164400  1
  C  C1199  1  0.115000  0.841900  0.835600  1
  C  C1200  1  0.385000  0.158100  0.335600  1
  C  C1201  1  0.615000  0.158100  0.335600  1
  C  C1202  1  0.885000  0.841900  0.835600  1
  C  C1203  1  0.885000  0.158100  0.164400  1
  C  C1204  1  0.615000  0.841900  0.664400  1
  C  C1205  1  0.448900  0.842100  0.639200  1
  C  C1206  1  0.051100  0.157900  0.139200  1
  C  C1207  1  0.051100  0.842100  0.860800  1
  C  C1208  1  0.448900  0.157900  0.360800  1
  C  C1209  1  0.551100  0.157900  0.360800  1
  C  C1210  1  0.948900  0.842100  0.860800  1
  C  C1211  1  0.948900  0.157900  0.139200  1
  C  C1212  1  0.551100  0.842100  0.639200  1
  C  C1213  1  0.466900  0.856600  0.579500  1
  C  C1214  1  0.033100  0.143400  0.079500  1
  C  C1215  1  0.033100  0.856600  0.920500  1
  C  C1216  1  0.466900  0.143400  0.420500  1
  C  C1217  1  0.533100  0.143400  0.420500  1
  C  C1218  1  0.966900  0.856600  0.920500  1
  C  C1219  1  0.966900  0.143400  0.079500  1
  C  C1220  1  0.533100  0.856600  0.579500  1
  C  C1221  1  0.341000  0.632200  0.815300  1
  C  C1222  1  0.159000  0.367800  0.315300  1
  C  C1223  1  0.159000  0.632200  0.684700  1
  C  C1224  1  0.341000  0.367800  0.184700  1
  C  C1225  1  0.659000  0.367800  0.184700  1
  C  C1226  1  0.841000  0.632200  0.684700  1
  C  C1227  1  0.841000  0.367800  0.315300  1
  C  C1228  1  0.659000  0.632200  0.815300  1
  C  C1229  1  0.340100  0.853300  0.616900  1
  C  C1230  1  0.159900  0.146700  0.116900  1
  C  C1231  1  0.159900  0.853300  0.883100  1
  C  C1232  1  0.340100  0.146700  0.383100  1
  C  C1233  1  0.659900  0.146700  0.383100  1
  C  C1234  1  0.840100  0.853300  0.883100  1
  C  C1235  1  0.840100  0.146700  0.116900  1
  C  C1236  1  0.659900  0.853300  0.616900  1
  C  C1237  1  0.375300  0.720100  0.862400  1
  C  C1238  1  0.124700  0.279900  0.362400  1
  C  C1239  1  0.124700  0.720100  0.637600  1
  C  C1240  1  0.375300  0.279900  0.137600  1
  C  C1241  1  0.624700  0.279900  0.137600  1
  C  C1242  1  0.875300  0.720100  0.637600  1
  C  C1243  1  0.875300  0.279900  0.362400  1
  C  C1244  1  0.624700  0.720100  0.862400  1
  C  C1245  1  0.330700  0.762000  0.860200  1
  C  C1246  1  0.169300  0.238000  0.360200  1
  C  C1247  1  0.169300  0.762000  0.639800  1
  C  C1248  1  0.330700  0.238000  0.139800  1
  C  C1249  1  0.669300  0.238000  0.139800  1
  C  C1250  1  0.830700  0.762000  0.639800  1
  C  C1251  1  0.830700  0.238000  0.360200  1
  C  C1252  1  0.669300  0.762000  0.860200  1
  C  C1253  1  0.313700  0.790600  0.909200  1
  C  C1254  1  0.186300  0.209400  0.409200  1
  C  C1255  1  0.186300  0.790600  0.590800  1
  C  C1256  1  0.313700  0.209400  0.090800  1
  C  C1257  1  0.686300  0.209400  0.090800  1
  C  C1258  1  0.813700  0.790600  0.590800  1
  C  C1259  1  0.813700  0.209400  0.409200  1
  C  C1260  1  0.686300  0.790600  0.909200  1
  C  C1261  1  0.341400  0.777300  0.960500  1
  C  C1262  1  0.158600  0.222700  0.460500  1
  C  C1263  1  0.158600  0.777300  0.539500  1
  C  C1264  1  0.341400  0.222700  0.039500  1
  C  C1265  1  0.658600  0.222700  0.039500  1
  C  C1266  1  0.841400  0.777300  0.539500  1
  C  C1267  1  0.841400  0.222700  0.460500  1
  C  C1268  1  0.658600  0.777300  0.960500  1
  C  C1269  1  0.386100  0.735400  0.962700  1
  C  C1270  1  0.113900  0.264600  0.462700  1
  C  C1271  1  0.113900  0.735400  0.537300  1
  C  C1272  1  0.386100  0.264600  0.037300  1
  C  C1273  1  0.613900  0.264600  0.037300  1
  C  C1274  1  0.886100  0.735400  0.537300  1
  C  C1275  1  0.886100  0.264600  0.462700  1
  C  C1276  1  0.613900  0.735400  0.962700  1
  C  C1277  1  0.403100  0.706800  0.913700  1
  C  C1278  1  0.096900  0.293200  0.413700  1
  C  C1279  1  0.096900  0.706800  0.586300  1
  C  C1280  1  0.403100  0.293200  0.086300  1
  C  C1281  1  0.596900  0.293200  0.086300  1
  C  C1282  1  0.903100  0.706800  0.586300  1
  C  C1283  1  0.903100  0.293200  0.413700  1
  C  C1284  1  0.596900  0.706800  0.913700  1
  C  C1285  1  0.376900  0.886400  0.710700  1
  C  C1286  1  0.123100  0.113600  0.210700  1
  C  C1287  1  0.123100  0.886400  0.789300  1
  C  C1288  1  0.376900  0.113600  0.289300  1
  C  C1289  1  0.623100  0.113600  0.289300  1
  C  C1290  1  0.876900  0.886400  0.789300  1
  C  C1291  1  0.876900  0.113600  0.210700  1
  C  C1292  1  0.623100  0.886400  0.710700  1
  C  C1293  1  0.414000  0.934300  0.707600  1
  C  C1294  1  0.086000  0.065700  0.207600  1
  C  C1295  1  0.086000  0.934300  0.792400  1
  C  C1296  1  0.414000  0.065700  0.292400  1
  C  C1297  1  0.586000  0.065700  0.292400  1
  C  C1298  1  0.914000  0.934300  0.792400  1
  C  C1299  1  0.914000  0.065700  0.207600  1
  C  C1300  1  0.586000  0.934300  0.707600  1
  C  C1301  1  0.402300  0.981000  0.742000  1
  C  C1302  1  0.097700  0.019000  0.242000  1
  C  C1303  1  0.097700  0.981000  0.758000  1
  C  C1304  1  0.402300  0.019000  0.258000  1
  C  C1305  1  0.597700  0.019000  0.258000  1
  C  C1306  1  0.902300  0.981000  0.758000  1
  C  C1307  1  0.902300  0.019000  0.242000  1
  C  C1308  1  0.597700  0.981000  0.742000  1
  C  C1309  1  0.355000  0.979000  0.781200  1
  C  C1310  1  0.145000  0.021000  0.281200  1
  C  C1311  1  0.145000  0.979000  0.718800  1
  C  C1312  1  0.355000  0.021000  0.218800  1
  C  C1313  1  0.645000  0.021000  0.218800  1
  C  C1314  1  0.855000  0.979000  0.718800  1
  C  C1315  1  0.855000  0.021000  0.281200  1
  C  C1316  1  0.645000  0.979000  0.781200  1
  C  C1317  1  0.319900  0.929900  0.786200  1
  C  C1318  1  0.180100  0.070100  0.286200  1
  C  C1319  1  0.180100  0.929900  0.713800  1
  C  C1320  1  0.319900  0.070100  0.213800  1
  C  C1321  1  0.680100  0.070100  0.213800  1
  C  C1322  1  0.819900  0.929900  0.713800  1
  C  C1323  1  0.819900  0.070100  0.286200  1
  C  C1324  1  0.680100  0.929900  0.786200  1
  C  C1325  1  0.327700  0.885700  0.747800  1
  C  C1326  1  0.172300  0.114300  0.247800  1
  C  C1327  1  0.172300  0.885700  0.752200  1
  C  C1328  1  0.327700  0.114300  0.252200  1
  C  C1329  1  0.672300  0.114300  0.252200  1
  C  C1330  1  0.827700  0.885700  0.752200  1
  C  C1331  1  0.827700  0.114300  0.247800  1
  C  C1332  1  0.672300  0.885700  0.747800  1
  C  C1333  1  0.273500  0.829200  0.012800  1
  C  C1334  1  0.226500  0.170800  0.512800  1
  C  C1335  1  0.226500  0.829200  0.487200  1
  C  C1336  1  0.273500  0.170800  0.987200  1
  C  C1337  1  0.726500  0.170800  0.987200  1
  C  C1338  1  0.773500  0.829200  0.487200  1
  C  C1339  1  0.773500  0.170800  0.512800  1
  C  C1340  1  0.726500  0.829200  0.012800  1
  C  C1341  1  0.274300  0.893400  0.005300  1
  C  C1342  1  0.225700  0.106600  0.505300  1
  C  C1343  1  0.225700  0.893400  0.494700  1
  C  C1344  1  0.274300  0.106600  0.994700  1
  C  C1345  1  0.725700  0.106600  0.994700  1
  C  C1346  1  0.774300  0.893400  0.494700  1
  C  C1347  1  0.774300  0.106600  0.505300  1
  C  C1348  1  0.725700  0.893400  0.005300  1
  C  C1349  1  0.283600  0.033600  0.837300  1
  C  C1350  1  0.216400  0.966400  0.337300  1
  C  C1351  1  0.216400  0.033600  0.662700  1
  C  C1352  1  0.283600  0.966400  0.162700  1
  C  C1353  1  0.716400  0.966400  0.162700  1
  C  C1354  1  0.783600  0.033600  0.662700  1
  C  C1355  1  0.783600  0.966400  0.337300  1
  C  C1356  1  0.716400  0.033600  0.837300  1
  C  C1357  1  0.281100  0.002800  0.894100  1
  C  C1358  1  0.218900  0.997200  0.394100  1
  C  C1359  1  0.218900  0.002800  0.605900  1
  C  C1360  1  0.281100  0.997200  0.105900  1
  C  C1361  1  0.718900  0.997200  0.105900  1
  C  C1362  1  0.781100  0.002800  0.605900  1
  C  C1363  1  0.781100  0.997200  0.394100  1
  C  C1364  1  0.718900  0.002800  0.894100  1
  C  C1365  1  0.465300  0.676400  0.095200  1
  C  C1366  1  0.034700  0.323600  0.595200  1
  C  C1367  1  0.034700  0.676400  0.404800  1
  C  C1368  1  0.465300  0.323600  0.904800  1
  C  C1369  1  0.534700  0.323600  0.904800  1
  C  C1370  1  0.965300  0.676400  0.404800  1
  C  C1371  1  0.965300  0.323600  0.595200  1
  C  C1372  1  0.534700  0.676400  0.095200  1
  C  C1373  1  0.447200  0.683200  0.152900  1
  C  C1374  1  0.052800  0.316800  0.652900  1
  C  C1375  1  0.052800  0.683200  0.347100  1
  C  C1376  1  0.447200  0.316800  0.847100  1
  C  C1377  1  0.552800  0.316800  0.847100  1
  C  C1378  1  0.947200  0.683200  0.347100  1
  C  C1379  1  0.947200  0.316800  0.652900  1
  C  C1380  1  0.552800  0.683200  0.152900  1
  C  C1381  1  0.383200  0.684700  0.176700  1
  C  C1382  1  0.116800  0.315300  0.676700  1
  C  C1383  1  0.116800  0.684700  0.323300  1
  C  C1384  1  0.383200  0.315300  0.823300  1
  C  C1385  1  0.616800  0.315300  0.823300  1
  C  C1386  1  0.883200  0.684700  0.323300  1
  C  C1387  1  0.883200  0.315300  0.676700  1
  C  C1388  1  0.616800  0.684700  0.176700  1
  C  C1389  1  0.369200  0.740600  0.205700  1
  C  C1390  1  0.130800  0.259400  0.705700  1
  C  C1391  1  0.130800  0.740600  0.294300  1
  C  C1392  1  0.369200  0.259400  0.794300  1
  C  C1393  1  0.630800  0.259400  0.794300  1
  C  C1394  1  0.869200  0.740600  0.294300  1
  C  C1395  1  0.869200  0.259400  0.705700  1
  C  C1396  1  0.630800  0.740600  0.205700  1
  C  C1397  1  0.331800  0.781400  0.186000  1
  C  C1398  1  0.168200  0.218600  0.686000  1
  C  C1399  1  0.168200  0.781400  0.314000  1
  C  C1400  1  0.331800  0.218600  0.814000  1
  C  C1401  1  0.668200  0.218600  0.814000  1
  C  C1402  1  0.831800  0.781400  0.314000  1
  C  C1403  1  0.831800  0.218600  0.686000  1
  C  C1404  1  0.668200  0.781400  0.186000  1
  C  C1405  1  0.333200  0.821400  0.230000  1
  C  C1406  1  0.166800  0.178600  0.730000  1
  C  C1407  1  0.166800  0.821400  0.270000  1
  C  C1408  1  0.333200  0.178600  0.770000  1
  C  C1409  1  0.666800  0.178600  0.770000  1
  C  C1410  1  0.833200  0.821400  0.270000  1
  C  C1411  1  0.833200  0.178600  0.730000  1
  C  C1412  1  0.666800  0.821400  0.230000  1
  C  C1413  1  0.371400  0.803400  0.279200  1
  C  C1414  1  0.128600  0.196600  0.779200  1
  C  C1415  1  0.128600  0.803400  0.220800  1
  C  C1416  1  0.371400  0.196600  0.720800  1
  C  C1417  1  0.628600  0.196600  0.720800  1
  C  C1418  1  0.871400  0.803400  0.220800  1
  C  C1419  1  0.871400  0.196600  0.779200  1
  C  C1420  1  0.628600  0.803400  0.279200  1
  C  C1421  1  0.384600  0.828600  0.337300  1
  C  C1422  1  0.115400  0.171400  0.837300  1
  C  C1423  1  0.115400  0.828600  0.162700  1
  C  C1424  1  0.384600  0.171400  0.662700  1
  C  C1425  1  0.615400  0.171400  0.662700  1
  C  C1426  1  0.884600  0.828600  0.162700  1
  C  C1427  1  0.884600  0.171400  0.837300  1
  C  C1428  1  0.615400  0.828600  0.337300  1
  C  C1429  1  0.448000  0.854700  0.336600  1
  C  C1430  1  0.052000  0.145300  0.836600  1
  C  C1431  1  0.052000  0.854700  0.163400  1
  C  C1432  1  0.448000  0.145300  0.663400  1
  C  C1433  1  0.552000  0.145300  0.663400  1
  C  C1434  1  0.948000  0.854700  0.163400  1
  C  C1435  1  0.948000  0.145300  0.836600  1
  C  C1436  1  0.552000  0.854700  0.336600  1
  C  C1437  1  0.463300  0.907900  0.340500  1
  C  C1438  1  0.036700  0.092100  0.840500  1
  C  C1439  1  0.036700  0.907900  0.159500  1
  C  C1440  1  0.463300  0.092100  0.659500  1
  C  C1441  1  0.536700  0.092100  0.659500  1
  C  C1442  1  0.963300  0.907900  0.159500  1
  C  C1443  1  0.963300  0.092100  0.840500  1
  C  C1444  1  0.536700  0.907900  0.340500  1
  C  C1445  1  0.338300  0.677400  0.128300  1
  C  C1446  1  0.161700  0.322600  0.628300  1
  C  C1447  1  0.161700  0.677400  0.371700  1
  C  C1448  1  0.338300  0.322600  0.871700  1
  C  C1449  1  0.661700  0.322600  0.871700  1
  C  C1450  1  0.838300  0.677400  0.371700  1
  C  C1451  1  0.838300  0.322600  0.628300  1
  C  C1452  1  0.661700  0.677400  0.128300  1
  C  C1453  1  0.338900  0.876300  0.347100  1
  C  C1454  1  0.161100  0.123700  0.847100  1
  C  C1455  1  0.161100  0.876300  0.152900  1
  C  C1456  1  0.338900  0.123700  0.652900  1
  C  C1457  1  0.661100  0.123700  0.652900  1
  C  C1458  1  0.838900  0.876300  0.152900  1
  C  C1459  1  0.838900  0.123700  0.847100  1
  C  C1460  1  0.661100  0.876300  0.347100  1
  C  C1461  1  0.377100  0.634900  0.217200  1
  C  C1462  1  0.122900  0.365100  0.717200  1
  C  C1463  1  0.122900  0.634900  0.282800  1
  C  C1464  1  0.377100  0.365100  0.782800  1
  C  C1465  1  0.622900  0.365100  0.782800  1
  C  C1466  1  0.877100  0.634900  0.282800  1
  C  C1467  1  0.877100  0.365100  0.717200  1
  C  C1468  1  0.622900  0.634900  0.217200  1
  C  C1469  1  0.331100  0.635200  0.259000  1
  C  C1470  1  0.168900  0.364800  0.759000  1
  C  C1471  1  0.168900  0.635200  0.241000  1
  C  C1472  1  0.331100  0.364800  0.741000  1
  C  C1473  1  0.668900  0.364800  0.741000  1
  C  C1474  1  0.831100  0.635200  0.241000  1
  C  C1475  1  0.831100  0.364800  0.759000  1
  C  C1476  1  0.668900  0.635200  0.259000  1
  C  C1477  1  0.316100  0.585800  0.286900  1
  C  C1478  1  0.183900  0.414200  0.786900  1
  C  C1479  1  0.183900  0.585800  0.213100  1
  C  C1480  1  0.316100  0.414200  0.713100  1
  C  C1481  1  0.683900  0.414200  0.713100  1
  C  C1482  1  0.816100  0.585800  0.213100  1
  C  C1483  1  0.816100  0.414200  0.786900  1
  C  C1484  1  0.683900  0.585800  0.286900  1
  C  C1485  1  0.343100  0.534900  0.276400  1
  C  C1486  1  0.156900  0.465100  0.776400  1
  C  C1487  1  0.156900  0.534900  0.223600  1
  C  C1488  1  0.343100  0.465100  0.723600  1
  C  C1489  1  0.656900  0.465100  0.723600  1
  C  C1490  1  0.843100  0.534900  0.223600  1
  C  C1491  1  0.843100  0.465100  0.776400  1
  C  C1492  1  0.656900  0.534900  0.276400  1
  C  C1493  1  0.383800  0.534600  0.232200  1
  C  C1494  1  0.116200  0.465400  0.732200  1
  C  C1495  1  0.116200  0.534600  0.267800  1
  C  C1496  1  0.383800  0.465400  0.767800  1
  C  C1497  1  0.616200  0.465400  0.767800  1
  C  C1498  1  0.883800  0.534600  0.267800  1
  C  C1499  1  0.883800  0.465400  0.732200  1
  C  C1500  1  0.616200  0.534600  0.232200  1
  C  C1501  1  0.400100  0.584200  0.204400  1
  C  C1502  1  0.099900  0.415800  0.704400  1
  C  C1503  1  0.099900  0.584200  0.295600  1
  C  C1504  1  0.400100  0.415800  0.795600  1
  C  C1505  1  0.599900  0.415800  0.795600  1
  C  C1506  1  0.900100  0.584200  0.295600  1
  C  C1507  1  0.900100  0.415800  0.704400  1
  C  C1508  1  0.599900  0.584200  0.204400  1
  C  C1509  1  0.376600  0.784400  0.384200  1
  C  C1510  1  0.123400  0.215600  0.884200  1
  C  C1511  1  0.123400  0.784400  0.115800  1
  C  C1512  1  0.376600  0.215600  0.615800  1
  C  C1513  1  0.623400  0.215600  0.615800  1
  C  C1514  1  0.876600  0.784400  0.115800  1
  C  C1515  1  0.876600  0.215600  0.884200  1
  C  C1516  1  0.623400  0.784400  0.384200  1
  C  C1517  1  0.405700  0.792900  0.435700  1
  C  C1518  1  0.094300  0.207100  0.935700  1
  C  C1519  1  0.094300  0.792900  0.064300  1
  C  C1520  1  0.405700  0.207100  0.564300  1
  C  C1521  1  0.594300  0.207100  0.564300  1
  C  C1522  1  0.905700  0.792900  0.064300  1
  C  C1523  1  0.905700  0.207100  0.935700  1
  C  C1524  1  0.594300  0.792900  0.435700  1
  C  C1525  1  0.389100  0.760800  0.482700  1
  C  C1526  1  0.110900  0.239200  0.982700  1
  C  C1527  1  0.110900  0.760800  0.017300  1
  C  C1528  1  0.389100  0.239200  0.517300  1
  C  C1529  1  0.610900  0.239200  0.517300  1
  C  C1530  1  0.889100  0.760800  0.017300  1
  C  C1531  1  0.889100  0.239200  0.982700  1
  C  C1532  1  0.610900  0.760800  0.482700  1
  C  C1533  1  0.343300  0.720200  0.478100  1
  C  C1534  1  0.156700  0.279800  0.978100  1
  C  C1535  1  0.156700  0.720200  0.021900  1
  C  C1536  1  0.343300  0.279800  0.521900  1
  C  C1537  1  0.656700  0.279800  0.521900  1
  C  C1538  1  0.843300  0.720200  0.021900  1
  C  C1539  1  0.843300  0.279800  0.978100  1
  C  C1540  1  0.656700  0.720200  0.478100  1
  C  C1541  1  0.314100  0.711700  0.426500  1
  C  C1542  1  0.185900  0.288300  0.926500  1
  C  C1543  1  0.185900  0.711700  0.073500  1
  C  C1544  1  0.314100  0.288300  0.573500  1
  C  C1545  1  0.685900  0.288300  0.573500  1
  C  C1546  1  0.814100  0.711700  0.073500  1
  C  C1547  1  0.814100  0.288300  0.926500  1
  C  C1548  1  0.685900  0.711700  0.426500  1
  C  C1549  1  0.330700  0.743800  0.379600  1
  C  C1550  1  0.169300  0.256200  0.879600  1
  C  C1551  1  0.169300  0.743800  0.120400  1
  C  C1552  1  0.330700  0.256200  0.620400  1
  C  C1553  1  0.669300  0.256200  0.620400  1
  C  C1554  1  0.830700  0.743800  0.120400  1
  C  C1555  1  0.830700  0.256200  0.879600  1
  C  C1556  1  0.669300  0.743800  0.379600  1
  C  C1557  1  0.272800  0.479200  0.329100  1
  C  C1558  1  0.227200  0.520800  0.829100  1
  C  C1559  1  0.227200  0.479200  0.170900  1
  C  C1560  1  0.272800  0.520800  0.670900  1
  C  C1561  1  0.727200  0.520800  0.670900  1
  C  C1562  1  0.772800  0.479200  0.170900  1
  C  C1563  1  0.772800  0.520800  0.829100  1
  C  C1564  1  0.727200  0.479200  0.329100  1
  C  C1565  1  0.278700  0.495200  0.391400  1
  C  C1566  1  0.221300  0.504800  0.891400  1
  C  C1567  1  0.221300  0.495200  0.108600  1
  C  C1568  1  0.278700  0.504800  0.608600  1
  C  C1569  1  0.721300  0.504800  0.608600  1
  C  C1570  1  0.778700  0.495200  0.108600  1
  C  C1571  1  0.778700  0.504800  0.891400  1
  C  C1572  1  0.721300  0.495200  0.391400  1
  C  C1573  1  0.271100  0.666100  0.525700  1
  C  C1574  1  0.228900  0.333900  0.025700  1
  C  C1575  1  0.228900  0.666100  0.974300  1
  C  C1576  1  0.271100  0.333900  0.474300  1
  C  C1577  1  0.728900  0.333900  0.474300  1
  C  C1578  1  0.771100  0.666100  0.974300  1
  C  C1579  1  0.771100  0.333900  0.025700  1
  C  C1580  1  0.728900  0.666100  0.525700  1
  C  C1581  1  0.268300  0.605200  0.504600  1
  C  C1582  1  0.231700  0.394800  0.004600  1
  C  C1583  1  0.231700  0.605200  0.995400  1
  C  C1584  1  0.268300  0.394800  0.495400  1
  C  C1585  1  0.731700  0.394800  0.495400  1
  C  C1586  1  0.768300  0.605200  0.995400  1
  C  C1587  1  0.768300  0.394800  0.004600  1
  C  C1588  1  0.731700  0.605200  0.504600  1
  C  C1589  1  0.520700  0.670300  0.349700  1
  C  C1590  1  0.979300  0.329700  0.849700  1
  C  C1591  1  0.979300  0.670300  0.150300  1
  C  C1592  1  0.520700  0.329700  0.650300  1
  C  C1593  1  0.479300  0.329700  0.650300  1
  C  C1594  1  0.020700  0.670300  0.150300  1
  C  C1595  1  0.020700  0.329700  0.849700  1
  C  C1596  1  0.479300  0.670300  0.349700  1
  C  C1597  1  0.439200  0.605900  0.365900  1
  C  C1598  1  0.060800  0.394100  0.865900  1
  C  C1599  1  0.060800  0.605900  0.134100  1
  C  C1600  1  0.439200  0.394100  0.634100  1
  C  C1601  1  0.560800  0.394100  0.634100  1
  C  C1602  1  0.939200  0.605900  0.134100  1
  C  C1603  1  0.939200  0.394100  0.865900  1
  C  C1604  1  0.560800  0.605900  0.365900  1
  C  C1605  1  0.535200  0.599400  0.422800  1
  C  C1606  1  0.964800  0.400600  0.922800  1
  C  C1607  1  0.964800  0.599400  0.077200  1
  C  C1608  1  0.535200  0.400600  0.577200  1
  C  C1609  1  0.464800  0.400600  0.577200  1
  C  C1610  1  0.035200  0.599400  0.077200  1
  C  C1611  1  0.035200  0.400600  0.922800  1
  C  C1612  1  0.464800  0.599400  0.422800  1
  C  C1613  1  0.497200  0.628700  0.304200  1
  C  C1614  1  0.002800  0.371300  0.804200  1
  C  C1615  1  0.002800  0.628700  0.195800  1
  C  C1616  1  0.497200  0.371300  0.695800  1
  C  C1617  1  0.502800  0.371300  0.695800  1
  C  C1618  1  0.997200  0.628700  0.195800  1
  C  C1619  1  0.997200  0.371300  0.804200  1
  C  C1620  1  0.502800  0.628700  0.304200  1
  C  C1621  1  0.497100  0.548800  0.365600  1
  C  C1622  1  0.002900  0.451200  0.865600  1
  C  C1623  1  0.002900  0.548800  0.134400  1
  C  C1624  1  0.497100  0.451200  0.634400  1
  C  C1625  1  0.502900  0.451200  0.634400  1
  C  C1626  1  0.997100  0.548800  0.134400  1
  C  C1627  1  0.997100  0.451200  0.865600  1
  C  C1628  1  0.502900  0.548800  0.365600  1
  C  C1629  1  0.511400  0.646800  0.404300  1
  C  C1630  1  0.988600  0.353200  0.904300  1
  C  C1631  1  0.988600  0.646800  0.095700  1
  C  C1632  1  0.511400  0.353200  0.595700  1
  C  C1633  1  0.488600  0.353200  0.595700  1
  C  C1634  1  0.011400  0.646800  0.095700  1
  C  C1635  1  0.011400  0.353200  0.904300  1
  C  C1636  1  0.488600  0.646800  0.404300  1
  C  C1637  1  0.520900  0.825900  0.857900  1
  C  C1638  1  0.979100  0.174100  0.357900  1
  C  C1639  1  0.979100  0.825900  0.642100  1
  C  C1640  1  0.520900  0.174100  0.142100  1
  C  C1641  1  0.479100  0.174100  0.142100  1
  C  C1642  1  0.020900  0.825900  0.642100  1
  C  C1643  1  0.020900  0.174100  0.357900  1
  C  C1644  1  0.479100  0.825900  0.857900  1
  C  C1645  1  0.438700  0.890100  0.871300  1
  C  C1646  1  0.061300  0.109900  0.371300  1
  C  C1647  1  0.061300  0.890100  0.628700  1
  C  C1648  1  0.438700  0.109900  0.128700  1
  C  C1649  1  0.561300  0.109900  0.128700  1
  C  C1650  1  0.938700  0.890100  0.628700  1
  C  C1651  1  0.938700  0.109900  0.371300  1
  C  C1652  1  0.561300  0.890100  0.871300  1
  C  C1653  1  0.539800  0.907900  0.917500  1
  C  C1654  1  0.960200  0.092100  0.417500  1
  C  C1655  1  0.960200  0.907900  0.582500  1
  C  C1656  1  0.539800  0.092100  0.082500  1
  C  C1657  1  0.460200  0.092100  0.082500  1
  C  C1658  1  0.039800  0.907900  0.582500  1
  C  C1659  1  0.039800  0.092100  0.417500  1
  C  C1660  1  0.460200  0.907900  0.917500  1
  C  C1661  1  0.500000  0.869200  0.801000  1
  C  C1662  1  0.000000  0.130800  0.301000  1
  C  C1663  1  0.000000  0.869200  0.699000  1
  C  C1664  1  0.500000  0.130800  0.199000  1
  C  C1665  1  0.500000  0.858900  0.900900  1
  C  C1666  1  0.000000  0.141100  0.400900  1
  C  C1667  1  0.000000  0.858900  0.599100  1
  C  C1668  1  0.500000  0.141100  0.099100  1
  C  C1669  1  0.500000  0.955600  0.856600  1
  C  C1670  1  0.000000  0.044400  0.356600  1
  C  C1671  1  0.000000  0.955600  0.643400  1
  C  C1672  1  0.500000  0.044400  0.143400  1
  C  C1673  1  0.472600  0.899500  0.088900  1
  C  C1674  1  0.027400  0.100500  0.588900  1
  C  C1675  1  0.027400  0.899500  0.411100  1
  C  C1676  1  0.472600  0.100500  0.911100  1
  C  C1677  1  0.527400  0.100500  0.911100  1
  C  C1678  1  0.972600  0.899500  0.411100  1
  C  C1679  1  0.972600  0.100500  0.588900  1
  C  C1680  1  0.527400  0.899500  0.088900  1
  C  C1681  1  0.573800  0.888200  0.122700  1
  C  C1682  1  0.926200  0.111800  0.622700  1
  C  C1683  1  0.926200  0.888200  0.377300  1
  C  C1684  1  0.573800  0.111800  0.877300  1
  C  C1685  1  0.426200  0.111800  0.877300  1
  C  C1686  1  0.073800  0.888200  0.377300  1
  C  C1687  1  0.073800  0.111800  0.622700  1
  C  C1688  1  0.426200  0.888200  0.122700  1
  C  C1689  1  0.494600  0.814600  0.143200  1
  C  C1690  1  0.005400  0.185400  0.643200  1
  C  C1691  1  0.005400  0.814600  0.356800  1
  C  C1692  1  0.494600  0.185400  0.856800  1
  C  C1693  1  0.505400  0.185400  0.856800  1
  C  C1694  1  0.994600  0.814600  0.356800  1
  C  C1695  1  0.994600  0.185400  0.643200  1
  C  C1696  1  0.505400  0.814600  0.143200  1
  C  C1697  1  0.467300  0.392700  0.413300  1
  C  C1698  1  0.032700  0.607300  0.913300  1
  C  C1699  1  0.032700  0.392700  0.086700  1
  C  C1700  1  0.467300  0.607300  0.586700  1
  C  C1701  1  0.532700  0.607300  0.586700  1
  C  C1702  1  0.967300  0.392700  0.086700  1
  C  C1703  1  0.967300  0.607300  0.913300  1
  C  C1704  1  0.532700  0.392700  0.413300  1
  C  C1705  1  0.568600  0.394900  0.378700  1
  C  C1706  1  0.931400  0.605100  0.878700  1
  C  C1707  1  0.931400  0.394900  0.121300  1
  C  C1708  1  0.568600  0.605100  0.621300  1
  C  C1709  1  0.431400  0.605100  0.621300  1
  C  C1710  1  0.068600  0.394900  0.121300  1
  C  C1711  1  0.068600  0.605100  0.878700  1
  C  C1712  1  0.431400  0.394900  0.378700  1
  C  C1713  1  0.496900  0.318300  0.348500  1
  C  C1714  1  0.003100  0.681700  0.848500  1
  C  C1715  1  0.003100  0.318300  0.151500  1
  C  C1716  1  0.496900  0.681700  0.651500  1
  C  C1717  1  0.503100  0.681700  0.651500  1
  C  C1718  1  0.996900  0.318300  0.151500  1
  C  C1719  1  0.996900  0.681700  0.848500  1
  C  C1720  1  0.503100  0.318300  0.348500  1
  C  C1721  1  0.467800  0.586700  0.861900  1.0
  C  C1722  1  0.032200  0.413300  0.361900  1.0
  C  C1723  1  0.032200  0.586700  0.638100  1.0
  C  C1724  1  0.467800  0.413300  0.138100  1.0
  C  C1725  1  0.532200  0.413300  0.138100  1.0
  C  C1726  1  0.967800  0.586700  0.638100  1.0
  C  C1727  1  0.967800  0.413300  0.361900  1.0
  C  C1728  1  0.532200  0.586700  0.861900  1.0
  C  C1729  1  0.450000  0.640600  0.850000  1.0
  C  C1730  1  0.050000  0.359400  0.350000  1.0
  C  C1731  1  0.050000  0.640600  0.650000  1.0
  C  C1732  1  0.450000  0.359400  0.150000  1.0
  C  C1733  1  0.550000  0.359400  0.150000  1.0
  C  C1734  1  0.950000  0.640600  0.650000  1.0
  C  C1735  1  0.950000  0.359400  0.350000  1.0
  C  C1736  1  0.550000  0.640600  0.850000  1.0
  C  C1737  1  0.385400  0.664100  0.849000  1.0
  C  C1738  1  0.114600  0.335900  0.349000  1.0
  C  C1739  1  0.114600  0.664100  0.651000  1.0
  C  C1740  1  0.385400  0.335900  0.151000  1.0
  C  C1741  1  0.614600  0.335900  0.151000  1.0
  C  C1742  1  0.885400  0.664100  0.651000  1.0
  C  C1743  1  0.885400  0.335900  0.349000  1.0
  C  C1744  1  0.614600  0.664100  0.849000  1.0
  C  C1745  1  0.372300  0.686300  0.789700  1.0
  C  C1746  1  0.127700  0.313700  0.289700  1.0
  C  C1747  1  0.127700  0.686300  0.710300  1.0
  C  C1748  1  0.372300  0.313700  0.210300  1.0
  C  C1749  1  0.627700  0.313700  0.210300  1.0
  C  C1750  1  0.872300  0.686300  0.710300  1.0
  C  C1751  1  0.872300  0.313700  0.289700  1.0
  C  C1752  1  0.627700  0.686300  0.789700  1.0
  C  C1753  1  0.333200  0.666200  0.746800  1.0
  C  C1754  1  0.166800  0.333800  0.246800  1.0
  C  C1755  1  0.166800  0.666200  0.753200  1.0
  C  C1756  1  0.333200  0.333800  0.253200  1.0
  C  C1757  1  0.666800  0.333800  0.253200  1.0
  C  C1758  1  0.833200  0.666200  0.753200  1.0
  C  C1759  1  0.833200  0.333800  0.246800  1.0
  C  C1760  1  0.666800  0.666200  0.746800  1.0
  C  C1761  1  0.328200  0.710900  0.699500  1.0
  C  C1762  1  0.171800  0.289100  0.199500  1.0
  C  C1763  1  0.171800  0.710900  0.800500  1.0
  C  C1764  1  0.328200  0.289100  0.300500  1.0
  C  C1765  1  0.671800  0.289100  0.300500  1.0
  C  C1766  1  0.828200  0.710900  0.800500  1.0
  C  C1767  1  0.828200  0.289100  0.199500  1.0
  C  C1768  1  0.671800  0.710900  0.699500  1.0
  C  C1769  1  0.369400  0.749000  0.715700  1.0
  C  C1770  1  0.130600  0.251000  0.215700  1.0
  C  C1771  1  0.130600  0.749000  0.784300  1.0
  C  C1772  1  0.369400  0.251000  0.284300  1.0
  C  C1773  1  0.630600  0.251000  0.284300  1.0
  C  C1774  1  0.869400  0.749000  0.784300  1.0
  C  C1775  1  0.869400  0.251000  0.215700  1.0
  C  C1776  1  0.630600  0.749000  0.715700  1.0
  C  C1777  1  0.384300  0.803800  0.684100  1.0
  C  C1778  1  0.115700  0.196200  0.184100  1.0
  C  C1779  1  0.115700  0.803800  0.815900  1.0
  C  C1780  1  0.384300  0.196200  0.315900  1.0
  C  C1781  1  0.615700  0.196200  0.315900  1.0
  C  C1782  1  0.884300  0.803800  0.815900  1.0
  C  C1783  1  0.884300  0.196200  0.184100  1.0
  C  C1784  1  0.615700  0.803800  0.684100  1.0
  C  C1785  1  0.448700  0.799400  0.660400  1.0
  C  C1786  1  0.051300  0.200600  0.160400  1.0
  C  C1787  1  0.051300  0.799400  0.839600  1.0
  C  C1788  1  0.448700  0.200600  0.339600  1.0
  C  C1789  1  0.551300  0.200600  0.339600  1.0
  C  C1790  1  0.948700  0.799400  0.839600  1.0
  C  C1791  1  0.948700  0.200600  0.160400  1.0
  C  C1792  1  0.551300  0.799400  0.660400  1.0
  C  C1793  1  0.467500  0.806400  0.599400  1.0
  C  C1794  1  0.032500  0.193600  0.099400  1.0
  C  C1795  1  0.032500  0.806400  0.900600  1.0
  C  C1796  1  0.467500  0.193600  0.400600  1.0
  C  C1797  1  0.532500  0.193600  0.400600  1.0
  C  C1798  1  0.967500  0.806400  0.900600  1.0
  C  C1799  1  0.967500  0.193600  0.099400  1.0
  C  C1800  1  0.532500  0.806400  0.599400  1.0
  C  C1801  1  0.341400  0.615600  0.861300  1.0
  C  C1802  1  0.158600  0.384400  0.361300  1.0
  C  C1803  1  0.158600  0.615600  0.638700  1.0
  C  C1804  1  0.341400  0.384400  0.138700  1.0
  C  C1805  1  0.658600  0.384400  0.138700  1.0
  C  C1806  1  0.841400  0.615600  0.638700  1.0
  C  C1807  1  0.841400  0.384400  0.361300  1.0
  C  C1808  1  0.658600  0.615600  0.861300  1.0
  C  C1809  1  0.340800  0.806800  0.634100  1.0
  C  C1810  1  0.159200  0.193200  0.134100  1.0
  C  C1811  1  0.159200  0.806800  0.865900  1.0
  C  C1812  1  0.340800  0.193200  0.365900  1.0
  C  C1813  1  0.659200  0.193200  0.365900  1.0
  C  C1814  1  0.840800  0.806800  0.865900  1.0
  C  C1815  1  0.840800  0.193200  0.134100  1.0
  C  C1816  1  0.659200  0.806800  0.634100  1.0
  C  C1817  1  0.374600  0.710000  0.893700  1.0
  C  C1818  1  0.125400  0.290000  0.393700  1.0
  C  C1819  1  0.125400  0.710000  0.606300  1.0
  C  C1820  1  0.374600  0.290000  0.106300  1.0
  C  C1821  1  0.625400  0.290000  0.106300  1.0
  C  C1822  1  0.874600  0.710000  0.606300  1.0
  C  C1823  1  0.874600  0.290000  0.393700  1.0
  C  C1824  1  0.625400  0.710000  0.893700  1.0
  C  C1825  1  0.328700  0.749800  0.884900  1.0
  C  C1826  1  0.171300  0.250200  0.384900  1.0
  C  C1827  1  0.171300  0.749800  0.615100  1.0
  C  C1828  1  0.328700  0.250200  0.115100  1.0
  C  C1829  1  0.671300  0.250200  0.115100  1.0
  C  C1830  1  0.828700  0.749800  0.615100  1.0
  C  C1831  1  0.828700  0.250200  0.384900  1.0
  C  C1832  1  0.671300  0.749800  0.884900  1.0
  C  C1833  1  0.311200  0.784900  0.929500  1.0
  C  C1834  1  0.188800  0.215100  0.429500  1.0
  C  C1835  1  0.188800  0.784900  0.570500  1.0
  C  C1836  1  0.311200  0.215100  0.070500  1.0
  C  C1837  1  0.688800  0.215100  0.070500  1.0
  C  C1838  1  0.811200  0.784900  0.570500  1.0
  C  C1839  1  0.811200  0.215100  0.429500  1.0
  C  C1840  1  0.688800  0.784900  0.929500  1.0
  C  C1841  1  0.345000  0.785400  0.979400  1.0
  C  C1842  1  0.155000  0.214600  0.479400  1.0
  C  C1843  1  0.155000  0.785400  0.520600  1.0
  C  C1844  1  0.345000  0.214600  0.020600  1.0
  C  C1845  1  0.655000  0.214600  0.020600  1.0
  C  C1846  1  0.845000  0.785400  0.520600  1.0
  C  C1847  1  0.845000  0.214600  0.479400  1.0
  C  C1848  1  0.655000  0.785400  0.979400  1.0
  C  C1849  1  0.390600  0.745200  0.988100  1.0
  C  C1850  1  0.109400  0.254800  0.488100  1.0
  C  C1851  1  0.109400  0.745200  0.511900  1.0
  C  C1852  1  0.390600  0.254800  0.011900  1.0
  C  C1853  1  0.609400  0.254800  0.011900  1.0
  C  C1854  1  0.890600  0.745200  0.511900  1.0
  C  C1855  1  0.890600  0.254800  0.488100  1.0
  C  C1856  1  0.609400  0.745200  0.988100  1.0
  C  C1857  1  0.409000  0.711300  0.943100  1.0
  C  C1858  1  0.091000  0.288700  0.443100  1.0
  C  C1859  1  0.091000  0.711300  0.556900  1.0
  C  C1860  1  0.409000  0.288700  0.056900  1.0
  C  C1861  1  0.591000  0.288700  0.056900  1.0
  C  C1862  1  0.909000  0.711300  0.556900  1.0
  C  C1863  1  0.909000  0.288700  0.443100  1.0
  C  C1864  1  0.591000  0.711300  0.943100  1.0
  C  C1865  1  0.374800  0.855400  0.722100  1.0
  C  C1866  1  0.125200  0.144600  0.222100  1.0
  C  C1867  1  0.125200  0.855400  0.777900  1.0
  C  C1868  1  0.374800  0.144600  0.277900  1.0
  C  C1869  1  0.625200  0.144600  0.277900  1.0
  C  C1870  1  0.874800  0.855400  0.777900  1.0
  C  C1871  1  0.874800  0.144600  0.222100  1.0
  C  C1872  1  0.625200  0.855400  0.722100  1.0
  C  C1873  1  0.402600  0.905900  0.705500  1.0
  C  C1874  1  0.097400  0.094100  0.205500  1.0
  C  C1875  1  0.097400  0.905900  0.794500  1.0
  C  C1876  1  0.402600  0.094100  0.294500  1.0
  C  C1877  1  0.597400  0.094100  0.294500  1.0
  C  C1878  1  0.902600  0.905900  0.794500  1.0
  C  C1879  1  0.902600  0.094100  0.205500  1.0
  C  C1880  1  0.597400  0.905900  0.705500  1.0
  C  C1881  1  0.386700  0.956800  0.731500  1.0
  C  C1882  1  0.113300  0.043200  0.231500  1.0
  C  C1883  1  0.113300  0.956800  0.768500  1.0
  C  C1884  1  0.386700  0.043200  0.268500  1.0
  C  C1885  1  0.613300  0.043200  0.268500  1.0
  C  C1886  1  0.886700  0.956800  0.768500  1.0
  C  C1887  1  0.886700  0.043200  0.231500  1.0
  C  C1888  1  0.613300  0.956800  0.731500  1.0
  C  C1889  1  0.343000  0.957200  0.774200  1.0
  C  C1890  1  0.157000  0.042800  0.274200  1.0
  C  C1891  1  0.157000  0.957200  0.725800  1.0
  C  C1892  1  0.343000  0.042800  0.225800  1.0
  C  C1893  1  0.657000  0.042800  0.225800  1.0
  C  C1894  1  0.843000  0.957200  0.725800  1.0
  C  C1895  1  0.843000  0.042800  0.274200  1.0
  C  C1896  1  0.657000  0.957200  0.774200  1.0
  C  C1897  1  0.315200  0.906800  0.790800  1.0
  C  C1898  1  0.184800  0.093200  0.290800  1.0
  C  C1899  1  0.184800  0.906800  0.709200  1.0
  C  C1900  1  0.315200  0.093200  0.209200  1.0
  C  C1901  1  0.684800  0.093200  0.209200  1.0
  C  C1902  1  0.815200  0.906800  0.709200  1.0
  C  C1903  1  0.815200  0.093200  0.290800  1.0
  C  C1904  1  0.684800  0.906800  0.790800  1.0
  C  C1905  1  0.331100  0.855900  0.764700  1.0
  C  C1906  1  0.168900  0.144100  0.264700  1.0
  C  C1907  1  0.168900  0.855900  0.735300  1.0
  C  C1908  1  0.331100  0.144100  0.235300  1.0
  C  C1909  1  0.668900  0.144100  0.235300  1.0
  C  C1910  1  0.831100  0.855900  0.735300  1.0
  C  C1911  1  0.831100  0.144100  0.264700  1.0
  C  C1912  1  0.668900  0.855900  0.764700  1.0
  C  C1913  1  0.268500  0.831800  0.025100  1.0
  C  C1914  1  0.231500  0.168200  0.525100  1.0
  C  C1915  1  0.231500  0.831800  0.474900  1.0
  C  C1916  1  0.268500  0.168200  0.974900  1.0
  C  C1917  1  0.731500  0.168200  0.974900  1.0
  C  C1918  1  0.768500  0.831800  0.474900  1.0
  C  C1919  1  0.768500  0.168200  0.525100  1.0
  C  C1920  1  0.731500  0.831800  0.025100  1.0
  C  C1921  1  0.263200  0.893600  0.006600  1.0
  C  C1922  1  0.236800  0.106400  0.506600  1.0
  C  C1923  1  0.236800  0.893600  0.493400  1.0
  C  C1924  1  0.263200  0.106400  0.993400  1.0
  C  C1925  1  0.736800  0.106400  0.993400  1.0
  C  C1926  1  0.763200  0.893600  0.493400  1.0
  C  C1927  1  0.763200  0.106400  0.506600  1.0
  C  C1928  1  0.736800  0.893600  0.006600  1.0
  C  C1929  1  0.273300  0.015100  0.829100  1.0
  C  C1930  1  0.226700  0.984900  0.329100  1.0
  C  C1931  1  0.226700  0.015100  0.670900  1.0
  C  C1932  1  0.273300  0.984900  0.170900  1.0
  C  C1933  1  0.726700  0.984900  0.170900  1.0
  C  C1934  1  0.773300  0.015100  0.670900  1.0
  C  C1935  1  0.773300  0.984900  0.329100  1.0
  C  C1936  1  0.726700  0.015100  0.829100  1.0
  C  C1937  1  0.268300  0.002700  0.892200  1.0
  C  C1938  1  0.231700  0.997300  0.392200  1.0
  C  C1939  1  0.231700  0.002700  0.607800  1.0
  C  C1940  1  0.268300  0.997300  0.107800  1.0
  C  C1941  1  0.731700  0.997300  0.107800  1.0
  C  C1942  1  0.768300  0.002700  0.607800  1.0
  C  C1943  1  0.768300  0.997300  0.392200  1.0
  C  C1944  1  0.731700  0.002700  0.892200  1.0
  C  C1945  1  0.467100  0.639600  0.077500  1.0
  C  C1946  1  0.032900  0.360400  0.577500  1.0
  C  C1947  1  0.032900  0.639600  0.422500  1.0
  C  C1948  1  0.467100  0.360400  0.922500  1.0
  C  C1949  1  0.532900  0.360400  0.922500  1.0
  C  C1950  1  0.967100  0.639600  0.422500  1.0
  C  C1951  1  0.967100  0.360400  0.577500  1.0
  C  C1952  1  0.532900  0.639600  0.077500  1.0
  C  C1953  1  0.448300  0.650300  0.134400  1.0
  C  C1954  1  0.051700  0.349700  0.634400  1.0
  C  C1955  1  0.051700  0.650300  0.365600  1.0
  C  C1956  1  0.448300  0.349700  0.865600  1.0
  C  C1957  1  0.551700  0.349700  0.865600  1.0
  C  C1958  1  0.948300  0.650300  0.365600  1.0
  C  C1959  1  0.948300  0.349700  0.634400  1.0
  C  C1960  1  0.551700  0.650300  0.134400  1.0
  C  C1961  1  0.384300  0.653300  0.158000  1.0
  C  C1962  1  0.115700  0.346700  0.658000  1.0
  C  C1963  1  0.115700  0.653300  0.342000  1.0
  C  C1964  1  0.384300  0.346700  0.842000  1.0
  C  C1965  1  0.615700  0.346700  0.842000  1.0
  C  C1966  1  0.884300  0.653300  0.342000  1.0
  C  C1967  1  0.884300  0.346700  0.658000  1.0
  C  C1968  1  0.615700  0.653300  0.158000  1.0
  C  C1969  1  0.369000  0.712100  0.179600  1.0
  C  C1970  1  0.131000  0.287900  0.679600  1.0
  C  C1971  1  0.131000  0.712100  0.320400  1.0
  C  C1972  1  0.369000  0.287900  0.820400  1.0
  C  C1973  1  0.631000  0.287900  0.820400  1.0
  C  C1974  1  0.869000  0.712100  0.320400  1.0
  C  C1975  1  0.869000  0.287900  0.679600  1.0
  C  C1976  1  0.631000  0.712100  0.179600  1.0
  C  C1977  1  0.325800  0.746600  0.158000  1.0
  C  C1978  1  0.174200  0.253400  0.658000  1.0
  C  C1979  1  0.174200  0.746600  0.342000  1.0
  C  C1980  1  0.325800  0.253400  0.842000  1.0
  C  C1981  1  0.674200  0.253400  0.842000  1.0
  C  C1982  1  0.825800  0.746600  0.342000  1.0
  C  C1983  1  0.825800  0.253400  0.658000  1.0
  C  C1984  1  0.674200  0.746600  0.158000  1.0
  C  C1985  1  0.322800  0.789700  0.198900  1.0
  C  C1986  1  0.177200  0.210300  0.698900  1.0
  C  C1987  1  0.177200  0.789700  0.301100  1.0
  C  C1988  1  0.322800  0.210300  0.801100  1.0
  C  C1989  1  0.677200  0.210300  0.801100  1.0
  C  C1990  1  0.822800  0.789700  0.301100  1.0
  C  C1991  1  0.822800  0.210300  0.698900  1.0
  C  C1992  1  0.677200  0.789700  0.198900  1.0
  C  C1993  1  0.368400  0.782900  0.245400  1.0
  C  C1994  1  0.131600  0.217100  0.745400  1.0
  C  C1995  1  0.131600  0.782900  0.254600  1.0
  C  C1996  1  0.368400  0.217100  0.754600  1.0
  C  C1997  1  0.631600  0.217100  0.754600  1.0
  C  C1998  1  0.868400  0.782900  0.254600  1.0
  C  C1999  1  0.868400  0.217100  0.745400  1.0
  C  C2000  1  0.631600  0.782900  0.245400  1.0
  C  C2001  1  0.384100  0.818000  0.297600  1.0
  C  C2002  1  0.115900  0.182000  0.797600  1.0
  C  C2003  1  0.115900  0.818000  0.202400  1.0
  C  C2004  1  0.384100  0.182000  0.702400  1.0
  C  C2005  1  0.615900  0.182000  0.702400  1.0
  C  C2006  1  0.884100  0.818000  0.202400  1.0
  C  C2007  1  0.884100  0.182000  0.797600  1.0
  C  C2008  1  0.615900  0.818000  0.297600  1.0
  C  C2009  1  0.448200  0.841700  0.290700  1.0
  C  C2010  1  0.051800  0.158300  0.790700  1.0
  C  C2011  1  0.051800  0.841700  0.209300  1.0
  C  C2012  1  0.448200  0.158300  0.709300  1.0
  C  C2013  1  0.551800  0.158300  0.709300  1.0
  C  C2014  1  0.948200  0.841700  0.209300  1.0
  C  C2015  1  0.948200  0.158300  0.790700  1.0
  C  C2016  1  0.551800  0.841700  0.290700  1.0
  C  C2017  1  0.464400  0.889700  0.267900  1.0
  C  C2018  1  0.035600  0.110300  0.767900  1.0
  C  C2019  1  0.035600  0.889700  0.232100  1.0
  C  C2020  1  0.464400  0.110300  0.732100  1.0
  C  C2021  1  0.535600  0.110300  0.732100  1.0
  C  C2022  1  0.964400  0.889700  0.232100  1.0
  C  C2023  1  0.964400  0.110300  0.767900  1.0
  C  C2024  1  0.535600  0.889700  0.267900  1.0
  C  C2025  1  0.339300  0.637800  0.111600  1.0
  C  C2026  1  0.160700  0.362200  0.611600  1.0
  C  C2027  1  0.160700  0.637800  0.388400  1.0
  C  C2028  1  0.339300  0.362200  0.888400  1.0
  C  C2029  1  0.660700  0.362200  0.888400  1.0
  C  C2030  1  0.839300  0.637800  0.388400  1.0
  C  C2031  1  0.839300  0.362200  0.611600  1.0
  C  C2032  1  0.660700  0.637800  0.111600  1.0
  C  C2033  1  0.340300  0.868300  0.298900  1.0
  C  C2034  1  0.159700  0.131700  0.798900  1.0
  C  C2035  1  0.159700  0.868300  0.201100  1.0
  C  C2036  1  0.340300  0.131700  0.701100  1.0
  C  C2037  1  0.659700  0.131700  0.701100  1.0
  C  C2038  1  0.840300  0.868300  0.201100  1.0
  C  C2039  1  0.840300  0.131700  0.798900  1.0
  C  C2040  1  0.659700  0.868300  0.298900  1.0
  C  C2041  1  0.380500  0.609300  0.204900  1.0
  C  C2042  1  0.119500  0.390700  0.704900  1.0
  C  C2043  1  0.119500  0.609300  0.295100  1.0
  C  C2044  1  0.380500  0.390700  0.795100  1.0
  C  C2045  1  0.619500  0.390700  0.795100  1.0
  C  C2046  1  0.880500  0.609300  0.295100  1.0
  C  C2047  1  0.880500  0.390700  0.704900  1.0
  C  C2048  1  0.619500  0.609300  0.204900  1.0
  C  C2049  1  0.333900  0.611500  0.245800  1.0
  C  C2050  1  0.166100  0.388500  0.745800  1.0
  C  C2051  1  0.166100  0.611500  0.254200  1.0
  C  C2052  1  0.333900  0.388500  0.754200  1.0
  C  C2053  1  0.666100  0.388500  0.754200  1.0
  C  C2054  1  0.833900  0.611500  0.254200  1.0
  C  C2055  1  0.833900  0.388500  0.745800  1.0
  C  C2056  1  0.666100  0.611500  0.245800  1.0
  C  C2057  1  0.324600  0.565900  0.281300  1.0
  C  C2058  1  0.175400  0.434100  0.781300  1.0
  C  C2059  1  0.175400  0.565900  0.218700  1.0
  C  C2060  1  0.324600  0.434100  0.718700  1.0
  C  C2061  1  0.675400  0.434100  0.718700  1.0
  C  C2062  1  0.824600  0.565900  0.218700  1.0
  C  C2063  1  0.824600  0.434100  0.781300  1.0
  C  C2064  1  0.675400  0.565900  0.281300  1.0
  C  C2065  1  0.360900  0.519100  0.281800  1.0
  C  C2066  1  0.139100  0.480900  0.781800  1.0
  C  C2067  1  0.139100  0.519100  0.218200  1.0
  C  C2068  1  0.360900  0.480900  0.718200  1.0
  C  C2069  1  0.639100  0.480900  0.718200  1.0
  C  C2070  1  0.860900  0.519100  0.218200  1.0
  C  C2071  1  0.860900  0.480900  0.781800  1.0
  C  C2072  1  0.639100  0.519100  0.281800  1.0
  C  C2073  1  0.407500  0.519100  0.243000  1.0
  C  C2074  1  0.092500  0.480900  0.743000  1.0
  C  C2075  1  0.092500  0.519100  0.257000  1.0
  C  C2076  1  0.407500  0.480900  0.757000  1.0
  C  C2077  1  0.592500  0.480900  0.757000  1.0
  C  C2078  1  0.907500  0.519100  0.257000  1.0
  C  C2079  1  0.907500  0.480900  0.743000  1.0
  C  C2080  1  0.592500  0.519100  0.243000  1.0
  C  C2081  1  0.412300  0.561300  0.202400  1.0
  C  C2082  1  0.087700  0.438700  0.702400  1.0
  C  C2083  1  0.087700  0.561300  0.297600  1.0
  C  C2084  1  0.412300  0.438700  0.797600  1.0
  C  C2085  1  0.587700  0.438700  0.797600  1.0
  C  C2086  1  0.912300  0.561300  0.297600  1.0
  C  C2087  1  0.912300  0.438700  0.702400  1.0
  C  C2088  1  0.587700  0.561300  0.202400  1.0
  C  C2089  1  0.375800  0.783400  0.351700  1.0
  C  C2090  1  0.124200  0.216600  0.851700  1.0
  C  C2091  1  0.124200  0.783400  0.148300  1.0
  C  C2092  1  0.375800  0.216600  0.648300  1.0
  C  C2093  1  0.624200  0.216600  0.648300  1.0
  C  C2094  1  0.875800  0.783400  0.148300  1.0
  C  C2095  1  0.875800  0.216600  0.851700  1.0
  C  C2096  1  0.624200  0.783400  0.351700  1.0
  C  C2097  1  0.407300  0.798100  0.400600  1.0
  C  C2098  1  0.092700  0.201900  0.900600  1.0
  C  C2099  1  0.092700  0.798100  0.099400  1.0
  C  C2100  1  0.407300  0.201900  0.599400  1.0
  C  C2101  1  0.592700  0.201900  0.599400  1.0
  C  C2102  1  0.907300  0.798100  0.099400  1.0
  C  C2103  1  0.907300  0.201900  0.900600  1.0
  C  C2104  1  0.592700  0.798100  0.400600  1.0
  C  C2105  1  0.397700  0.767500  0.450300  1.0
  C  C2106  1  0.102300  0.232500  0.950300  1.0
  C  C2107  1  0.102300  0.767500  0.049700  1.0
  C  C2108  1  0.397700  0.232500  0.549700  1.0
  C  C2109  1  0.602300  0.232500  0.549700  1.0
  C  C2110  1  0.897700  0.767500  0.049700  1.0
  C  C2111  1  0.897700  0.232500  0.950300  1.0
  C  C2112  1  0.602300  0.767500  0.450300  1.0
  C  C2113  1  0.354900  0.724000  0.451600  1.0
  C  C2114  1  0.145100  0.276000  0.951600  1.0
  C  C2115  1  0.145100  0.724000  0.048400  1.0
  C  C2116  1  0.354900  0.276000  0.548400  1.0
  C  C2117  1  0.645100  0.276000  0.548400  1.0
  C  C2118  1  0.854900  0.724000  0.048400  1.0
  C  C2119  1  0.854900  0.276000  0.951600  1.0
  C  C2120  1  0.645100  0.724000  0.451600  1.0
  C  C2121  1  0.321600  0.710800  0.403100  1.0
  C  C2122  1  0.178400  0.289200  0.903100  1.0
  C  C2123  1  0.178400  0.710800  0.096900  1.0
  C  C2124  1  0.321600  0.289200  0.596900  1.0
  C  C2125  1  0.678400  0.289200  0.596900  1.0
  C  C2126  1  0.821600  0.710800  0.096900  1.0
  C  C2127  1  0.821600  0.289200  0.903100  1.0
  C  C2128  1  0.678400  0.710800  0.403100  1.0
  C  C2129  1  0.333700  0.739300  0.352900  1.0
  C  C2130  1  0.166300  0.260700  0.852900  1.0
  C  C2131  1  0.166300  0.739300  0.147100  1.0
  C  C2132  1  0.333700  0.260700  0.647100  1.0
  C  C2133  1  0.666300  0.260700  0.647100  1.0
  C  C2134  1  0.833700  0.739300  0.147100  1.0
  C  C2135  1  0.833700  0.260700  0.852900  1.0
  C  C2136  1  0.666300  0.739300  0.352900  1.0
  C  C2137  1  0.298600  0.462100  0.340900  1.0
  C  C2138  1  0.201400  0.537900  0.840900  1.0
  C  C2139  1  0.201400  0.462100  0.159100  1.0
  C  C2140  1  0.298600  0.537900  0.659100  1.0
  C  C2141  1  0.701400  0.537900  0.659100  1.0
  C  C2142  1  0.798600  0.462100  0.159100  1.0
  C  C2143  1  0.798600  0.537900  0.840900  1.0
  C  C2144  1  0.701400  0.462100  0.340900  1.0
  C  C2145  1  0.304100  0.490100  0.398700  1.0
  C  C2146  1  0.195900  0.509900  0.898700  1.0
  C  C2147  1  0.195900  0.490100  0.101300  1.0
  C  C2148  1  0.304100  0.509900  0.601300  1.0
  C  C2149  1  0.695900  0.509900  0.601300  1.0
  C  C2150  1  0.804100  0.490100  0.101300  1.0
  C  C2151  1  0.804100  0.509900  0.898700  1.0
  C  C2152  1  0.695900  0.490100  0.398700  1.0
  C  C2153  1  0.281200  0.674200  0.500200  1.0
  C  C2154  1  0.218800  0.325800  0.000200  1.0
  C  C2155  1  0.218800  0.674200  0.999800  1.0
  C  C2156  1  0.281200  0.325800  0.499800  1.0
  C  C2157  1  0.718800  0.325800  0.499800  1.0
  C  C2158  1  0.781200  0.674200  0.999800  1.0
  C  C2159  1  0.781200  0.325800  0.000200  1.0
  C  C2160  1  0.718800  0.674200  0.500200  1.0
  C  C2161  1  0.289100  0.610100  0.503900  1.0
  C  C2162  1  0.210900  0.389900  0.003900  1.0
  C  C2163  1  0.210900  0.610100  0.996100  1.0
  C  C2164  1  0.289100  0.389900  0.496100  1.0
  C  C2165  1  0.710900  0.389900  0.496100  1.0
  C  C2166  1  0.789100  0.610100  0.996100  1.0
  C  C2167  1  0.789100  0.389900  0.003900  1.0
  C  C2168  1  0.710900  0.610100  0.503900  1.0
  N  N2169  1  0.500000  0.690300  0.810000  1
  N  N2170  1  0.000000  0.309700  0.310000  1
  N  N2171  1  0.000000  0.690300  0.690000  1
  N  N2172  1  0.500000  0.309700  0.190000  1
  N  N2173  1  0.391400  0.764200  0.739600  1
  N  N2174  1  0.108600  0.235800  0.239600  1
  N  N2175  1  0.108600  0.764200  0.760400  1
  N  N2176  1  0.391400  0.235800  0.260400  1
  N  N2177  1  0.608600  0.235800  0.260400  1
  N  N2178  1  0.891400  0.764200  0.760400  1
  N  N2179  1  0.891400  0.235800  0.239600  1
  N  N2180  1  0.608600  0.764200  0.739600  1
  N  N2181  1  0.500000  0.827800  0.672200  1
  N  N2182  1  0.000000  0.172200  0.172200  1
  N  N2183  1  0.000000  0.827800  0.827800  1
  N  N2184  1  0.500000  0.172200  0.327800  1
  N  N2185  1  0.500000  0.688700  0.185800  1
  N  N2186  1  0.000000  0.311300  0.685800  1
  N  N2187  1  0.000000  0.688700  0.314200  1
  N  N2188  1  0.500000  0.311300  0.814200  1
  N  N2189  1  0.392300  0.752900  0.258200  1
  N  N2190  1  0.107700  0.247100  0.758200  1
  N  N2191  1  0.107700  0.752900  0.241800  1
  N  N2192  1  0.392300  0.247100  0.741800  1
  N  N2193  1  0.607700  0.247100  0.741800  1
  N  N2194  1  0.892300  0.752900  0.241800  1
  N  N2195  1  0.892300  0.247100  0.758200  1
  N  N2196  1  0.607700  0.752900  0.258200  1
  N  N2197  1  0.500000  0.821700  0.323700  1
  N  N2198  1  0.000000  0.178300  0.823700  1
  N  N2199  1  0.000000  0.821700  0.176300  1
  N  N2200  1  0.500000  0.178300  0.676300  1
  N  N2201  1  0.499800  0.627200  0.378370  1
  N  N2202  1  0.000200  0.372800  0.878370  1
  N  N2203  1  0.000200  0.627200  0.121630  1
  N  N2204  1  0.499800  0.372800  0.621630  1
  N  N2205  1  0.500200  0.372800  0.621630  1
  N  N2206  1  0.999800  0.627200  0.121630  1
  N  N2207  1  0.999800  0.372800  0.878370  1
  N  N2208  1  0.500200  0.627200  0.378370  1
  N  N2209  1  0.501800  0.609400  0.355800  1
  N  N2210  1  0.998200  0.390600  0.855800  1
  N  N2211  1  0.998200  0.609400  0.144200  1
  N  N2212  1  0.501800  0.390600  0.644200  1
  N  N2213  1  0.498200  0.390600  0.644200  1
  N  N2214  1  0.001800  0.609400  0.144200  1
  N  N2215  1  0.001800  0.390600  0.855800  1
  N  N2216  1  0.498200  0.609400  0.355800  1
  N  N2217  1  0.501400  0.873100  0.880600  1
  N  N2218  1  0.998600  0.126900  0.380600  1
  N  N2219  1  0.998600  0.873100  0.619400  1
  N  N2220  1  0.501400  0.126900  0.119400  1
  N  N2221  1  0.498600  0.126900  0.119400  1
  N  N2222  1  0.001400  0.873100  0.619400  1
  N  N2223  1  0.001400  0.126900  0.380600  1
  N  N2224  1  0.498600  0.873100  0.880600  1
  N  N2225  1  0.500000  0.893900  0.850500  1
  N  N2226  1  0.000000  0.106100  0.350500  1
  N  N2227  1  0.000000  0.893900  0.649500  1
  N  N2228  1  0.500000  0.106100  0.149500  1
  N  N2229  1  0.511800  0.868100  0.116300  1
  N  N2230  1  0.988200  0.131900  0.616300  1
  N  N2231  1  0.988200  0.868100  0.383700  1
  N  N2232  1  0.511800  0.131900  0.883700  1
  N  N2233  1  0.488200  0.131900  0.883700  1
  N  N2234  1  0.011800  0.868100  0.383700  1
  N  N2235  1  0.011800  0.131900  0.616300  1
  N  N2236  1  0.488200  0.868100  0.116300  1
  N  N2237  1  0.506900  0.372600  0.377300  1
  N  N2238  1  0.993100  0.627400  0.877300  1
  N  N2239  1  0.993100  0.372600  0.122700  1
  N  N2240  1  0.506900  0.627400  0.622700  1
  N  N2241  1  0.493100  0.627400  0.622700  1
  N  N2242  1  0.006900  0.372600  0.122700  1
  N  N2243  1  0.006900  0.627400  0.877300  1
  N  N2244  1  0.493100  0.372600  0.377300  1
  N  N2245  1  0.500000  0.672300  0.839600  1.0
  N  N2246  1  0.000000  0.327700  0.339600  1.0
  N  N2247  1  0.000000  0.672300  0.660400  1.0
  N  N2248  1  0.500000  0.327700  0.160400  1.0
  N  N2249  1  0.500000  0.799600  0.696300  1.0
  N  N2250  1  0.000000  0.200400  0.196300  1.0
  N  N2251  1  0.000000  0.799600  0.803700  1.0
  N  N2252  1  0.500000  0.200400  0.303700  1.0
  N  N2253  1  0.500000  0.664000  0.166400  1.0
  N  N2254  1  0.000000  0.336000  0.666400  1.0
  N  N2255  1  0.000000  0.664000  0.333600  1.0
  N  N2256  1  0.500000  0.336000  0.833600  1.0
  N  N2257  1  0.500000  0.807100  0.298900  1.0
  N  N2258  1  0.000000  0.192900  0.798900  1.0
  N  N2259  1  0.000000  0.807100  0.201100  1.0
  N  N2260  1  0.500000  0.192900  0.701100  1.0
  N  N2261  1  0.394000  0.734800  0.767700  1.0
  N  N2262  1  0.106000  0.265200  0.267700  1.0
  N  N2263  1  0.106000  0.734800  0.732300  1.0
  N  N2264  1  0.394000  0.265200  0.232300  1.0
  N  N2265  1  0.606000  0.265200  0.232300  1.0
  N  N2266  1  0.894000  0.734800  0.732300  1.0
  N  N2267  1  0.894000  0.265200  0.267700  1.0
  N  N2268  1  0.606000  0.734800  0.767700  1.0
  N  N2269  1  0.392900  0.732000  0.229500  1.0
  N  N2270  1  0.107100  0.268000  0.729500  1.0
  N  N2271  1  0.107100  0.732000  0.270500  1.0
  N  N2272  1  0.392900  0.268000  0.770500  1.0
  N  N2273  1  0.607100  0.268000  0.770500  1.0
  N  N2274  1  0.892900  0.732000  0.270500  1.0
  N  N2275  1  0.892900  0.268000  0.729500  1.0
  N  N2276  1  0.607100  0.732000  0.229500  1.0
  O  O2277  1  0.328300  0.800500  0.015200  1
  O  O2278  1  0.171700  0.199500  0.515200  1
  O  O2279  1  0.171700  0.800500  0.484800  1
  O  O2280  1  0.328300  0.199500  0.984800  1
  O  O2281  1  0.671700  0.199500  0.984800  1
  O  O2282  1  0.828300  0.800500  0.484800  1
  O  O2283  1  0.828300  0.199500  0.515200  1
  O  O2284  1  0.671700  0.800500  0.015200  1
  O  O2285  1  0.332500  0.024700  0.799600  1
  O  O2286  1  0.167500  0.975300  0.299600  1
  O  O2287  1  0.167500  0.024700  0.700400  1
  O  O2288  1  0.332500  0.975300  0.200400  1
  O  O2289  1  0.667500  0.975300  0.200400  1
  O  O2290  1  0.832500  0.024700  0.700400  1
  O  O2291  1  0.832500  0.975300  0.299600  1
  O  O2292  1  0.667500  0.024700  0.799600  1
  O  O2293  1  0.326100  0.915900  0.004500  1
  O  O2294  1  0.173900  0.084100  0.504500  1
  O  O2295  1  0.173900  0.915900  0.495500  1
  O  O2296  1  0.326100  0.084100  0.995500  1
  O  O2297  1  0.673900  0.084100  0.995500  1
  O  O2298  1  0.826100  0.915900  0.495500  1
  O  O2299  1  0.826100  0.084100  0.504500  1
  O  O2300  1  0.673900  0.915900  0.004500  1
  O  O2301  1  0.229200  0.915200  0.006900  1
  O  O2302  1  0.270800  0.084800  0.506900  1
  O  O2303  1  0.270800  0.915200  0.493100  1
  O  O2304  1  0.229200  0.084800  0.993100  1
  O  O2305  1  0.770800  0.084800  0.993100  1
  O  O2306  1  0.729200  0.915200  0.493100  1
  O  O2307  1  0.729200  0.084800  0.506900  1
  O  O2308  1  0.770800  0.915200  0.006900  1
  O  O2309  1  0.336800  0.999200  0.918200  1
  O  O2310  1  0.163200  0.000800  0.418200  1
  O  O2311  1  0.163200  0.999200  0.581800  1
  O  O2312  1  0.336800  0.000800  0.081800  1
  O  O2313  1  0.663200  0.000800  0.081800  1
  O  O2314  1  0.836800  0.999200  0.581800  1
  O  O2315  1  0.836800  0.000800  0.418200  1
  O  O2316  1  0.663200  0.999200  0.918200  1
  O  O2317  1  0.233800  0.998700  0.918400  1
  O  O2318  1  0.266200  0.001300  0.418400  1
  O  O2319  1  0.266200  0.998700  0.581600  1
  O  O2320  1  0.233800  0.001300  0.081600  1
  O  O2321  1  0.766200  0.001300  0.081600  1
  O  O2322  1  0.733800  0.998700  0.581600  1
  O  O2323  1  0.733800  0.001300  0.418400  1
  O  O2324  1  0.766200  0.998700  0.918400  1
  O  O2325  1  0.434800  0.000000  0.000000  1
  O  O2326  1  0.065200  0.000000  0.500000  1
  O  O2327  1  0.565200  0.000000  0.000000  1
  O  O2328  1  0.934800  0.000000  0.500000  1
  O  O2329  1  0.324600  0.488900  0.292300  1
  O  O2330  1  0.175400  0.511100  0.792300  1
  O  O2331  1  0.175400  0.488900  0.207700  1
  O  O2332  1  0.324600  0.511100  0.707700  1
  O  O2333  1  0.675400  0.511100  0.707700  1
  O  O2334  1  0.824600  0.488900  0.207700  1
  O  O2335  1  0.824600  0.511100  0.792300  1
  O  O2336  1  0.675400  0.488900  0.292300  1
  O  O2337  1  0.334200  0.689100  0.528000  1
  O  O2338  1  0.165800  0.310900  0.028000  1
  O  O2339  1  0.165800  0.689100  0.972000  1
  O  O2340  1  0.334200  0.310900  0.472000  1
  O  O2341  1  0.665800  0.310900  0.472000  1
  O  O2342  1  0.834200  0.689100  0.972000  1
  O  O2343  1  0.834200  0.310900  0.028000  1
  O  O2344  1  0.665800  0.689100  0.528000  1
  O  O2345  1  0.330600  0.494900  0.417000  1
  O  O2346  1  0.169400  0.505100  0.917000  1
  O  O2347  1  0.169400  0.494900  0.083000  1
  O  O2348  1  0.330600  0.505100  0.583000  1
  O  O2349  1  0.669400  0.505100  0.583000  1
  O  O2350  1  0.830600  0.494900  0.083000  1
  O  O2351  1  0.830600  0.505100  0.917000  1
  O  O2352  1  0.669400  0.494900  0.417000  1
  O  O2353  1  0.226900  0.497200  0.415600  1
  O  O2354  1  0.273100  0.502800  0.915600  1
  O  O2355  1  0.273100  0.497200  0.084400  1
  O  O2356  1  0.226900  0.502800  0.584400  1
  O  O2357  1  0.773100  0.502800  0.584400  1
  O  O2358  1  0.726900  0.497200  0.084400  1
  O  O2359  1  0.726900  0.502800  0.915600  1
  O  O2360  1  0.773100  0.497200  0.415600  1
  O  O2361  1  0.314000  0.580300  0.495600  1
  O  O2362  1  0.186000  0.419700  0.995600  1
  O  O2363  1  0.186000  0.580300  0.004400  1
  O  O2364  1  0.314000  0.419700  0.504400  1
  O  O2365  1  0.686000  0.419700  0.504400  1
  O  O2366  1  0.814000  0.580300  0.004400  1
  O  O2367  1  0.814000  0.419700  0.995600  1
  O  O2368  1  0.686000  0.580300  0.495600  1
  O  O2369  1  0.222900  0.583100  0.501400  1
  O  O2370  1  0.277100  0.416900  0.001400  1
  O  O2371  1  0.277100  0.583100  0.998600  1
  O  O2372  1  0.222900  0.416900  0.498600  1
  O  O2373  1  0.777100  0.416900  0.498600  1
  O  O2374  1  0.722900  0.583100  0.998600  1
  O  O2375  1  0.722900  0.416900  0.001400  1
  O  O2376  1  0.777100  0.583100  0.501400  1
  O  O2377  1  0.433000  0.500000  0.500000  1
  O  O2378  1  0.067000  0.500000  0.000000  1
  O  O2379  1  0.567000  0.500000  0.500000  1
  O  O2380  1  0.933000  0.500000  0.000000  1
  O  O2381  1  0.118200  0.500000  0.500000  1
  O  O2382  1  0.381800  0.500000  0.000000  1
  O  O2383  1  0.881800  0.500000  0.500000  1
  O  O2384  1  0.618200  0.500000  0.000000  1
  O  O2385  1  0.494500  0.696400  0.311600  1
  O  O2386  1  0.005500  0.303600  0.811600  1
  O  O2387  1  0.005500  0.696400  0.188400  1
  O  O2388  1  0.494500  0.303600  0.688400  1
  O  O2389  1  0.505500  0.303600  0.688400  1
  O  O2390  1  0.994500  0.696400  0.188400  1
  O  O2391  1  0.994500  0.303600  0.811600  1
  O  O2392  1  0.505500  0.696400  0.311600  1
  O  O2393  1  0.500200  0.678600  0.288900  1
  O  O2394  1  0.999800  0.321400  0.788900  1
  O  O2395  1  0.999800  0.678600  0.211100  1
  O  O2396  1  0.500200  0.321400  0.711100  1
  O  O2397  1  0.499800  0.321400  0.711100  1
  O  O2398  1  0.000200  0.678600  0.211100  1
  O  O2399  1  0.000200  0.321400  0.788900  1
  O  O2400  1  0.499800  0.678600  0.288900  1
  O  O2401  1  0.496600  0.799400  0.819200  1
  O  O2402  1  0.003400  0.200600  0.319200  1
  O  O2403  1  0.003400  0.799400  0.680800  1
  O  O2404  1  0.496600  0.200600  0.180800  1
  O  O2405  1  0.503400  0.200600  0.180800  1
  O  O2406  1  0.996600  0.799400  0.680800  1
  O  O2407  1  0.996600  0.200600  0.319200  1
  O  O2408  1  0.503400  0.799400  0.819200  1
  O  O2409  1  0.500000  0.817700  0.792100  1
  O  O2410  1  0.000000  0.182300  0.292100  1
  O  O2411  1  0.000000  0.817700  0.707900  1
  O  O2412  1  0.500000  0.182300  0.207900  1
  O  O2413  1  0.484100  0.939900  0.057500  1
  O  O2414  1  0.015900  0.060100  0.557500  1
  O  O2415  1  0.015900  0.939900  0.442500  1
  O  O2416  1  0.484100  0.060100  0.942500  1
  O  O2417  1  0.515900  0.060100  0.942500  1
  O  O2418  1  0.984100  0.939900  0.442500  1
  O  O2419  1  0.984100  0.060100  0.557500  1
  O  O2420  1  0.515900  0.939900  0.057500  1
  O  O2421  1  0.474700  0.433700  0.444800  1
  O  O2422  1  0.025300  0.566300  0.944800  1
  O  O2423  1  0.025300  0.433700  0.055200  1
  O  O2424  1  0.474700  0.566300  0.555200  1
  O  O2425  1  0.525300  0.566300  0.555200  1
  O  O2426  1  0.974700  0.433700  0.055200  1
  O  O2427  1  0.974700  0.566300  0.944800  1
  O  O2428  1  0.525300  0.433700  0.444800  1
  O  O2429  1  0.125700  0.000000  0.000000  1
  O  O2430  1  0.374300  0.000000  0.500000  1
  O  O2431  1  0.874300  0.000000  0.000000  1
  O  O2432  1  0.625700  0.000000  0.500000  1
  O  O2433  1  0.421800  0.000000  0.000000  1.0
  O  O2434  1  0.078200  0.000000  0.500000  1.0
  O  O2435  1  0.578200  0.000000  0.000000  1.0
  O  O2436  1  0.921800  0.000000  0.500000  1.0
  O  O2437  1  0.112800  0.000000  0.000000  1.0
  O  O2438  1  0.387200  0.000000  0.500000  1.0
  O  O2439  1  0.887200  0.000000  0.000000  1.0
  O  O2440  1  0.612800  0.000000  0.500000  1.0
  O  O2441  1  0.457000  0.500000  0.500000  1.0
  O  O2442  1  0.043000  0.500000  0.000000  1.0
  O  O2443  1  0.543000  0.500000  0.500000  1.0
  O  O2444  1  0.957000  0.500000  0.000000  1.0
  O  O2445  1  0.143400  0.500000  0.500000  1.0
  O  O2446  1  0.356600  0.500000  0.000000  1.0
  O  O2447  1  0.856600  0.500000  0.500000  1.0
  O  O2448  1  0.643400  0.500000  0.000000  1.0
  O  O2449  1  0.327600  0.811000  0.032100  1.0
  O  O2450  1  0.172400  0.189000  0.532100  1.0
  O  O2451  1  0.172400  0.811000  0.467900  1.0
  O  O2452  1  0.327600  0.189000  0.967900  1.0
  O  O2453  1  0.672400  0.189000  0.967900  1.0
  O  O2454  1  0.827600  0.811000  0.467900  1.0
  O  O2455  1  0.827600  0.189000  0.532100  1.0
  O  O2456  1  0.672400  0.811000  0.032100  1.0
  O  O2457  1  0.326700  0.002800  0.797700  1.0
  O  O2458  1  0.173300  0.997200  0.297700  1.0
  O  O2459  1  0.173300  0.002800  0.702300  1.0
  O  O2460  1  0.326700  0.997200  0.202300  1.0
  O  O2461  1  0.673300  0.997200  0.202300  1.0
  O  O2462  1  0.826700  0.002800  0.702300  1.0
  O  O2463  1  0.826700  0.997200  0.297700  1.0
  O  O2464  1  0.673300  0.002800  0.797700  1.0
  O  O2465  1  0.314400  0.917200  0.004100  1.0
  O  O2466  1  0.185600  0.082800  0.504100  1.0
  O  O2467  1  0.185600  0.917200  0.495900  1.0
  O  O2468  1  0.314400  0.082800  0.995900  1.0
  O  O2469  1  0.685600  0.082800  0.995900  1.0
  O  O2470  1  0.814400  0.917200  0.495900  1.0
  O  O2471  1  0.814400  0.082800  0.504100  1.0
  O  O2472  1  0.685600  0.917200  0.004100  1.0
  O  O2473  1  0.217600  0.913900  0.001400  1.0
  O  O2474  1  0.282400  0.086100  0.501400  1.0
  O  O2475  1  0.282400  0.913900  0.498600  1.0
  O  O2476  1  0.217600  0.086100  0.998600  1.0
  O  O2477  1  0.782400  0.086100  0.998600  1.0
  O  O2478  1  0.717600  0.913900  0.498600  1.0
  O  O2479  1  0.717600  0.086100  0.501400  1.0
  O  O2480  1  0.782400  0.913900  0.001400  1.0
  O  O2481  1  0.323800  0.999300  0.916800  1.0
  O  O2482  1  0.176200  0.000700  0.416800  1.0
  O  O2483  1  0.176200  0.999300  0.583200  1.0
  O  O2484  1  0.323800  0.000700  0.083200  1.0
  O  O2485  1  0.676200  0.000700  0.083200  1.0
  O  O2486  1  0.823800  0.999300  0.583200  1.0
  O  O2487  1  0.823800  0.000700  0.416800  1.0
  O  O2488  1  0.676200  0.999300  0.916800  1.0
  O  O2489  1  0.220700  0.001700  0.916500  1.0
  O  O2490  1  0.279300  0.998300  0.416500  1.0
  O  O2491  1  0.279300  0.001700  0.583500  1.0
  O  O2492  1  0.220700  0.998300  0.083500  1.0
  O  O2493  1  0.779300  0.998300  0.083500  1.0
  O  O2494  1  0.720700  0.001700  0.583500  1.0
  O  O2495  1  0.720700  0.998300  0.416500  1.0
  O  O2496  1  0.779300  0.001700  0.916500  1.0
  O  O2497  1  0.347800  0.472800  0.301200  1.0
  O  O2498  1  0.152200  0.527200  0.801200  1.0
  O  O2499  1  0.152200  0.472800  0.198800  1.0
  O  O2500  1  0.347800  0.527200  0.698800  1.0
  O  O2501  1  0.652200  0.527200  0.698800  1.0
  O  O2502  1  0.847800  0.472800  0.198800  1.0
  O  O2503  1  0.847800  0.527200  0.801200  1.0
  O  O2504  1  0.652200  0.472800  0.301200  1.0
  O  O2505  1  0.339200  0.705900  0.506300  1.0
  O  O2506  1  0.160800  0.294100  0.006300  1.0
  O  O2507  1  0.160800  0.705900  0.993700  1.0
  O  O2508  1  0.339200  0.294100  0.493700  1.0
  O  O2509  1  0.660800  0.294100  0.493700  1.0
  O  O2510  1  0.839200  0.705900  0.993700  1.0
  O  O2511  1  0.839200  0.294100  0.006300  1.0
  O  O2512  1  0.660800  0.705900  0.506300  1.0
  O  O2513  1  0.354600  0.504000  0.422100  1.0
  O  O2514  1  0.145400  0.496000  0.922100  1.0
  O  O2515  1  0.145400  0.504000  0.077900  1.0
  O  O2516  1  0.354600  0.496000  0.577900  1.0
  O  O2517  1  0.645400  0.496000  0.577900  1.0
  O  O2518  1  0.854600  0.504000  0.077900  1.0
  O  O2519  1  0.854600  0.496000  0.922100  1.0
  O  O2520  1  0.645400  0.504000  0.422100  1.0
  O  O2521  1  0.252400  0.498300  0.420900  1.0
  O  O2522  1  0.247600  0.501700  0.920900  1.0
  O  O2523  1  0.247600  0.498300  0.079100  1.0
  O  O2524  1  0.252400  0.501700  0.579100  1.0
  O  O2525  1  0.747600  0.501700  0.579100  1.0
  O  O2526  1  0.752400  0.498300  0.079100  1.0
  O  O2527  1  0.752400  0.501700  0.920900  1.0
  O  O2528  1  0.747600  0.498300  0.420900  1.0
  O  O2529  1  0.337300  0.587700  0.502300  1.0
  O  O2530  1  0.162700  0.412300  0.002300  1.0
  O  O2531  1  0.162700  0.587700  0.997700  1.0
  O  O2532  1  0.337300  0.412300  0.497700  1.0
  O  O2533  1  0.662700  0.412300  0.497700  1.0
  O  O2534  1  0.837300  0.587700  0.997700  1.0
  O  O2535  1  0.837300  0.412300  0.002300  1.0
  O  O2536  1  0.662700  0.587700  0.502300  1.0
  O  O2537  1  0.244700  0.585800  0.504300  1.0
  O  O2538  1  0.255300  0.414200  0.004300  1.0
  O  O2539  1  0.255300  0.585800  0.995700  1.0
  O  O2540  1  0.244700  0.414200  0.495700  1.0
  O  O2541  1  0.755300  0.414200  0.495700  1.0
  O  O2542  1  0.744700  0.585800  0.995700  1.0
  O  O2543  1  0.744700  0.414200  0.004300  1.0
  O  O2544  1  0.755300  0.585800  0.504300  1.0
