
#######################################################################
#
#                 Cambridge Crystallographic Data Centre
#                                CCDC 
#
#######################################################################
#
# If this CIF has been generated from an entry in the Cambridge 
# Structural Database, then it will include bibliographic, chemical, 
# crystal, experimental, refinement or atomic coordinate data resulting 
# from the CCDC's data processing and validation procedures.
#
#######################################################################

data_ZAKREL
_chemical_formula_moiety         'C112 H104 Cu4 N8 O28,4(C3 H7 N1 O1)'
_chemical_name_systematic        
'bis(\m-5,10,15,20-Tetramethyl-5,10,15,20-tetrakis(4-(carboxylatomethoxy)phenyl)calix(4)pyrrole)-tetra-aqua-tetra-copper N,N-dimethylformamide solvate'
_symmetry_cell_setting           orthorhombic
_symmetry_space_group_name_H-M   'P m n a'
_symmetry_Int_Tables_number      53
_space_group_name_Hall           '-P 2ac 2'
loop_
_symmetry_equiv_pos_site_id
_symmetry_equiv_pos_as_xyz
1 x,y,z
2 1/2-x,-y,1/2+z
3 1/2-x,y,1/2-z
4 x,-y,-z
5 -x,-y,-z
6 1/2+x,y,1/2-z
7 1/2+x,-y,1/2+z
8 -x,y,z
_cell_length_a                   21.9220(6)
_cell_length_b                   23.5108(8)
_cell_length_c                   23.6094(7)
_cell_angle_alpha                90
_cell_angle_beta                 90
_cell_angle_gamma                90
_cell_volume                     12168.4
_exptl_crystal_colour            blue
_exptl_crystal_description       Block
_cell_formula_units_Z            4
loop_
_atom_site_label
_atom_site_type_symbol
_atom_site_fract_x
_atom_site_fract_y
_atom_site_fract_z
Cu1 Cu 0.32649(19) 1.0032(5) 1.0034(5)
N1 N 0.5000 0.6723(7) 0.8396(11)
C1 C 0.4678(7) 0.5867(6) 0.8619(9)
H1 H 0.4425 0.5557 0.8688
C2 C 0.4500(3) 0.6406(5) 0.8500(7)
C3 C 0.3854(3) 0.6641(3) 0.8490(3)
N2 N 0.3940(6) 0.7348(5) 0.7677(5)
H2 H 0.4209 0.7554 0.7846
C4 C 0.3723(6) 0.6863(5) 0.7897(4)
C5 C 0.3332(7) 0.6662(6) 0.7468(6)
H3 H 0.3134 0.6312 0.7471
C6 C 0.3282(7) 0.7109(6) 0.6995(6)
H4 H 0.3029 0.7112 0.6678
C7 C 0.3694(5) 0.7490(4) 0.7157(5)
C8 C 0.3843(3) 0.8038(3) 0.6841(3)
N3 N 0.5000 0.7996(12) 0.6963(7)
C9 C 0.4487(4) 0.7994(8) 0.6604(4)
C10 C 0.4675(7) 0.8064(11) 0.5994(4)
H5 H 0.4419 0.8099 0.5681
C11 C 0.3414(5) 0.6156(5) 0.8613(7)
H6 H 0.3009 0.6265 0.8501
H7 H 0.3418 0.6073 0.9011
H8 H 0.3536 0.5824 0.8405
C12 C 0.3408(5) 0.8068(7) 0.6341(4)
H9 H 0.3546 0.8353 0.6080
H10 H 0.3007 0.8164 0.6473
H11 H 0.3396 0.7706 0.6154
O1 O 0.3276(5) 0.8110(5) 1.0321(5)
C13 C 0.3746(5) 0.7100(4) 0.8937(4)
C14 C 0.3287(6) 0.7498(5) 0.8849(4)
H12 H 0.3099 0.7529 0.8497
C15 C 0.3112(7) 0.7849(6) 0.9295(4)
H13 H 0.2770 0.8080 0.9260
C16 C 0.3450(6) 0.7854(6) 0.9794(4)
C17 C 0.3906(6) 0.7452(6) 0.9881(4)
H14 H 0.4085 0.7411 1.0236
C18 C 0.4090(6) 0.7113(6) 0.9431(4)
H15 H 0.4443 0.6895 0.9460
O2 O 0.3267(5) 1.0028(5) 0.7977(5)
C19 C 0.3748(5) 0.8554(3) 0.7221(4)
C20 C 0.4026(5) 0.9059(4) 0.7055(5)
H16 H 0.4319 0.9056 0.6770
C21 C 0.3867(6) 0.9568(3) 0.7315(6)
H17 H 0.4053 0.9905 0.7204
C22 C 0.3430(6) 0.9572(4) 0.7742(6)
C23 C 0.3152(6) 0.9068(5) 0.7908(5)
H18 H 0.2859 0.9071 0.8193
C24 C 0.3311(5) 0.8559(4) 0.7647(5)
H19 H 0.3125 0.8221 0.7758
O3 O 0.3144(4) 0.9172(4) 1.0041(7)
O4 O 0.2176(4) 0.9139(4) 1.0014(7)
C25 C 0.2685(4) 0.8318(4) 1.0251(7)
H20 H 0.2469 0.8274 1.0607
H21 H 0.2478 0.8083 0.9973
C26 C 0.2632(5) 0.8936(4) 1.0066(10)
O5 O 0.3238(4) 0.9993(7) 0.9168(4)
O6 O 0.2207(4) 1.0017(7) 0.9165(4)
C27 C 0.2733(5) 1.0151(8) 0.8291(4)
H22 H 0.2400 0.9950 0.8108
H23 H 0.2653 1.0554 0.8243
C28 C 0.2683(5) 1.0027(10) 0.8922(4)
O7 O 0.4218(6) 1.0000 1.0000
Cu2 Cu 0.2200(2) 1.0048(4) 0.9956(4)
O8 O 0.1128(6) 1.0000 1.0000
C1G C 0.5322(7) 0.5867(6) 0.8619(9)
H1G H 0.5575 0.5557 0.8688
C2G C 0.5500(3) 0.6406(5) 0.8500(7)
C3G C 0.6146(3) 0.6641(3) 0.8490(3)
N2G N 0.6060(6) 0.7348(5) 0.7677(5)
H2G H 0.5791 0.7554 0.7846
C4G C 0.6277(6) 0.6863(5) 0.7897(4)
C5G C 0.6668(7) 0.6662(6) 0.7468(6)
H3G H 0.6866 0.6312 0.7471
C6G C 0.6718(7) 0.7109(6) 0.6995(6)
H4G H 0.6971 0.7112 0.6678
C7G C 0.6306(5) 0.7490(4) 0.7157(5)
C8G C 0.6157(3) 0.8038(3) 0.6841(3)
C9G C 0.5513(4) 0.7994(8) 0.6604(4)
C10G C 0.5325(7) 0.8064(11) 0.5994(4)
H5G H 0.5581 0.8099 0.5681
C11G C 0.6586(5) 0.6156(5) 0.8613(7)
H6G H 0.6991 0.6265 0.8501
H7G H 0.6582 0.6073 0.9011
H8G H 0.6464 0.5824 0.8405
C12G C 0.6592(5) 0.8068(7) 0.6341(4)
H9G H 0.6454 0.8353 0.6080
H10G H 0.6993 0.8164 0.6473
H11G H 0.6604 0.7706 0.6154
O1G O 0.6724(5) 0.8110(5) 1.0321(5)
C13G C 0.6254(5) 0.7100(4) 0.8937(4)
C14G C 0.6713(6) 0.7498(5) 0.8849(4)
H12G H 0.6901 0.7529 0.8497
C15G C 0.6888(7) 0.7849(6) 0.9295(4)
H13G H 0.7230 0.8080 0.9260
C16G C 0.6550(6) 0.7854(6) 0.9794(4)
C17G C 0.6094(6) 0.7452(6) 0.9881(4)
H14G H 0.5915 0.7411 1.0236
C18G C 0.5910(6) 0.7113(6) 0.9431(4)
H15G H 0.5557 0.6895 0.9460
O2G O 0.6733(5) 1.0028(5) 0.7977(5)
C19G C 0.6252(5) 0.8554(3) 0.7221(4)
C20G C 0.5974(5) 0.9059(4) 0.7055(5)
H16G H 0.5681 0.9056 0.6770
C21G C 0.6133(6) 0.9568(3) 0.7315(6)
H17G H 0.5947 0.9905 0.7204
C22G C 0.6570(6) 0.9572(4) 0.7742(6)
C23G C 0.6848(6) 0.9068(5) 0.7908(5)
H18G H 0.7141 0.9071 0.8193
C24G C 0.6689(5) 0.8559(4) 0.7647(5)
H19G H 0.6875 0.8221 0.7758
O3G O 0.6856(4) 0.9172(4) 1.0041(7)
O4G O 0.7824(4) 0.9139(4) 1.0014(7)
C25G C 0.7315(4) 0.8318(4) 1.0251(7)
H20G H 0.7531 0.8274 1.0607
H21G H 0.7522 0.8083 0.9973
C26G C 0.7368(5) 0.8936(4) 1.0066(10)
O5G O 0.6762(4) 0.9993(7) 0.9168(4)
O6G O 0.7793(4) 1.0017(7) 0.9165(4)
C27G C 0.7267(5) 1.0151(8) 0.8291(4)
H22G H 0.7600 0.9950 0.8108
H23G H 0.7347 1.0554 0.8243
C28G C 0.7317(5) 1.0027(10) 0.8922(4)
Cu1C Cu 0.32649(19) 0.9968(5) 0.9966(5)
N1C N 0.5000 1.3277(7) 1.1604(11)
C1C C 0.4678(7) 1.4133(6) 1.1381(9)
H1C H 0.4425 1.4443 1.1312
C2C C 0.4500(3) 1.3594(5) 1.1500(7)
C3C C 0.3854(3) 1.3359(3) 1.1510(3)
N2C N 0.3940(6) 1.2652(5) 1.2323(5)
H2C H 0.4209 1.2446 1.2154
C4C C 0.3723(6) 1.3137(5) 1.2103(4)
C5C C 0.3332(7) 1.3338(6) 1.2532(6)
H3C H 0.3134 1.3688 1.2529
C6C C 0.3282(7) 1.2891(6) 1.3005(6)
H4C H 0.3029 1.2888 1.3322
C7C C 0.3694(5) 1.2510(4) 1.2843(5)
C8C C 0.3843(3) 1.1962(3) 1.3159(3)
N3C N 0.5000 1.2004(12) 1.3037(7)
C9C C 0.4487(4) 1.2006(8) 1.3396(4)
C10C C 0.4675(7) 1.1936(11) 1.4006(4)
H5C H 0.4419 1.1901 1.4319
C11C C 0.3414(5) 1.3844(5) 1.1387(7)
H6C H 0.3009 1.3735 1.1499
H7C H 0.3418 1.3927 1.0989
H8C H 0.3536 1.4176 1.1595
C12C C 0.3408(5) 1.1932(7) 1.3659(4)
H9C H 0.3546 1.1647 1.3920
H10C H 0.3007 1.1836 1.3527
H11C H 0.3396 1.2294 1.3846
O1C O 0.3276(5) 1.1890(5) 0.9679(5)
C13C C 0.3746(5) 1.2900(4) 1.1063(4)
C14C C 0.3287(6) 1.2502(5) 1.1151(4)
H12C H 0.3099 1.2471 1.1503
C15C C 0.3112(7) 1.2151(6) 1.0705(4)
H13C H 0.2770 1.1920 1.0740
C16C C 0.3450(6) 1.2146(6) 1.0206(4)
C17C C 0.3906(6) 1.2548(6) 1.0119(4)
H14C H 0.4085 1.2589 0.9764
C18C C 0.4090(6) 1.2887(6) 1.0569(4)
H15C H 0.4443 1.3105 1.0540
O2C O 0.3267(5) 0.9972(5) 1.2023(5)
C19C C 0.3748(5) 1.1446(3) 1.2779(4)
C20C C 0.4026(5) 1.0941(4) 1.2945(5)
H16C H 0.4319 1.0944 1.3230
C21C C 0.3867(6) 1.0432(3) 1.2685(6)
H17C H 0.4053 1.0095 1.2796
C22C C 0.3430(6) 1.0428(4) 1.2258(6)
C23C C 0.3152(6) 1.0932(5) 1.2092(5)
H18C H 0.2859 1.0929 1.1807
C24C C 0.3311(5) 1.1441(4) 1.2353(5)
H19C H 0.3125 1.1779 1.2242
O3C O 0.3144(4) 1.0828(4) 0.9959(7)
O4C O 0.2176(4) 1.0861(4) 0.9986(7)
C25C C 0.2685(4) 1.1682(4) 0.9749(7)
H20C H 0.2469 1.1726 0.9393
H21C H 0.2478 1.1917 1.0027
C26C C 0.2632(5) 1.1064(4) 0.9934(10)
O5C O 0.3238(4) 1.0007(7) 1.0832(4)
O6C O 0.2207(4) 0.9983(7) 1.0835(4)
C27C C 0.2733(5) 0.9849(8) 1.1709(4)
H22C H 0.2400 1.0050 1.1892
H23C H 0.2653 0.9446 1.1757
C28C C 0.2683(5) 0.9973(10) 1.1078(4)
Cu2C Cu 0.2200(2) 0.9952(4) 1.0044(4)
C1D C 0.5322(7) 1.4133(6) 1.1381(9)
H1D H 0.5575 1.4443 1.1312
C2D C 0.5500(3) 1.3594(5) 1.1500(7)
C3D C 0.6146(3) 1.3359(3) 1.1510(3)
N2D N 0.6060(6) 1.2652(5) 1.2323(5)
H2D H 0.5791 1.2446 1.2154
C4D C 0.6277(6) 1.3137(5) 1.2103(4)
C5D C 0.6668(7) 1.3338(6) 1.2532(6)
H3D H 0.6866 1.3688 1.2529
C6D C 0.6718(7) 1.2891(6) 1.3005(6)
H4D H 0.6971 1.2888 1.3322
C7D C 0.6306(5) 1.2510(4) 1.2843(5)
C8D C 0.6157(3) 1.1962(3) 1.3159(3)
C9D C 0.5513(4) 1.2006(8) 1.3396(4)
C10D C 0.5325(7) 1.1936(11) 1.4006(4)
H5D H 0.5581 1.1901 1.4319
C11D C 0.6586(5) 1.3844(5) 1.1387(7)
H6D H 0.6991 1.3735 1.1499
H7D H 0.6582 1.3927 1.0989
H8D H 0.6464 1.4176 1.1595
C12D C 0.6592(5) 1.1932(7) 1.3659(4)
H9D H 0.6454 1.1647 1.3920
H10D H 0.6993 1.1836 1.3527
H11D H 0.6604 1.2294 1.3846
O1D O 0.6724(5) 1.1890(5) 0.9679(5)
C13D C 0.6254(5) 1.2900(4) 1.1063(4)
C14D C 0.6713(6) 1.2502(5) 1.1151(4)
H12D H 0.6901 1.2471 1.1503
C15D C 0.6888(7) 1.2151(6) 1.0705(4)
H13D H 0.7230 1.1920 1.0740
C16D C 0.6550(6) 1.2146(6) 1.0206(4)
C17D C 0.6094(6) 1.2548(6) 1.0119(4)
H14D H 0.5915 1.2589 0.9764
C18D C 0.5910(6) 1.2887(6) 1.0569(4)
H15D H 0.5557 1.3105 1.0540
O2D O 0.6733(5) 0.9972(5) 1.2023(5)
C19D C 0.6252(5) 1.1446(3) 1.2779(4)
C20D C 0.5974(5) 1.0941(4) 1.2945(5)
H16D H 0.5681 1.0944 1.3230
C21D C 0.6133(6) 1.0432(3) 1.2685(6)
H17D H 0.5947 1.0095 1.2796
C22D C 0.6570(6) 1.0428(4) 1.2258(6)
C23D C 0.6848(6) 1.0932(5) 1.2092(5)
H18D H 0.7141 1.0929 1.1807
C24D C 0.6689(5) 1.1441(4) 1.2353(5)
H19D H 0.6875 1.1779 1.2242
O3D O 0.6856(4) 1.0828(4) 0.9959(7)
O4D O 0.7824(4) 1.0861(4) 0.9986(7)
C25D C 0.7315(4) 1.1682(4) 0.9749(7)
H20D H 0.7531 1.1726 0.9393
H21D H 0.7522 1.1917 1.0027
C26D C 0.7368(5) 1.1064(4) 0.9934(10)
O5D O 0.6762(4) 1.0007(7) 1.0832(4)
O6D O 0.7793(4) 0.9983(7) 1.0835(4)
C27D C 0.7267(5) 0.9849(8) 1.1709(4)
H22D H 0.7600 1.0050 1.1892
H23D H 0.7347 0.9446 1.1757
C28D C 0.7317(5) 0.9973(10) 1.1078(4)
Cu1D Cu 0.67351(19) 0.9968(5) 0.9966(5)
O7D O 0.5782(6) 1.0000 1.0000
Cu2D Cu 0.7800(2) 0.9952(4) 1.0044(4)
O8D O 0.8872(6) 1.0000 1.0000
Cu1G Cu 0.67351(19) 1.0032(5) 1.0034(5)
Cu2G Cu 0.7800(2) 1.0048(4) 0.9956(4)
Cu3 Cu 0.3623(2) 0.5137(3) 0.5112(3)
Cu4 Cu 0.24202(19) 0.5087(3) 0.5035(4)
N4 N 0.5000 0.6640(12) 0.1664(8)
H24 H 0.5000 0.6783 0.1999
C29 C 0.4671(7) 0.6396(11) 0.0775(6)
H25 H 0.4418 0.6337 0.0464
C30 C 0.4483(4) 0.6503(7) 0.1344(5)
C31 C 0.3843(3) 0.6533(4) 0.1580(4)
N5 N 0.3929(6) 0.7320(5) 0.2295(6)
C32 C 0.3690(6) 0.7121(4) 0.1796(5)
C33 C 0.3258(7) 0.7466(6) 0.1580(7)
H26 H 0.3036 0.7428 0.1246
C34 C 0.3228(7) 0.7897(7) 0.1989(6)
H27 H 0.2952 0.8197 0.1972
C35 C 0.3684(6) 0.7829(5) 0.2454(4)
C36 C 0.3841(4) 0.8180(4) 0.2976(3)
N6 N 0.5000 0.8071(8) 0.2989(13)
H28 H 0.5000 0.7715 0.3073
C37 C 0.4482(4) 0.8417(5) 0.2907(8)
C38 C 0.4644(8) 0.8897(6) 0.2679(10)
H29 H 0.4389 0.9182 0.2544
C39 C 0.3393(5) 0.6378(7) 0.1116(5)
H30 H 0.2994 0.6510 0.1219
H31 H 0.3386 0.5973 0.1069
H32 H 0.3516 0.6555 0.0768
C40 C 0.3403(5) 0.8683(5) 0.2989(8)
H33 H 0.3023 0.8566 0.3154
H34 H 0.3333 0.8815 0.2609
H35 H 0.3576 0.8985 0.3210
O9 O 0.3478(6) 0.4728(5) 0.3012(5)
C41 C 0.3805(6) 0.6093(5) 0.2049(5)
C42 C 0.3339(7) 0.6115(6) 0.2458(7)
H36 H 0.3094 0.6437 0.2489
C43 C 0.3246(8) 0.5659(6) 0.2813(8)
H37 H 0.2917 0.5671 0.3062
C44 C 0.3609(7) 0.5191(5) 0.2818(7)
C45 C 0.4075(7) 0.5191(6) 0.2430(7)
H38 H 0.4364 0.4902 0.2440
C46 C 0.4123(8) 0.5613(6) 0.2024(7)
H39 H 0.4389 0.5558 0.1722
O10 O 0.3392(5) 0.7059(5) 0.5063(5)
C47 C 0.3758(6) 0.7834(5) 0.3517(3)
C48 C 0.4073(7) 0.7981(6) 0.4006(4)
H40 H 0.4347 0.8282 0.4001
C49 C 0.3977(7) 0.7675(6) 0.4503(4)
H41 H 0.4201 0.7762 0.4826
C50 C 0.3549(6) 0.7240(6) 0.4516(4)
C51 C 0.3216(7) 0.7108(7) 0.4031(4)
H42 H 0.2914 0.6831 0.4044
C52 C 0.3337(7) 0.7393(6) 0.3529(4)
H43 H 0.3136 0.7287 0.3198
O11 O 0.3546(5) 0.5040(7) 0.4221(5)
O12 O 0.2524(5) 0.4983(8) 0.4209(5)
C53 C 0.2986(6) 0.4621(6) 0.3409(4)
H44 H 0.2954 0.4214 0.3465
H45 H 0.2608 0.4748 0.3237
C54 C 0.3041(6) 0.4901(9) 0.3987(4)
O13 O 0.3373(5) 0.5877(4) 0.5023(7)
O14 O 0.2447(5) 0.5858(4) 0.5043(7)
C55 C 0.2812(5) 0.6742(4) 0.5002(8)
H46 H 0.2629 0.6836 0.4640
H47 H 0.2532 0.6863 0.5297
C56 C 0.2891(5) 0.6101(4) 0.5039(13)
O15 O 0.4570(6) 0.5000 0.5000
O16 O 0.1434(6) 0.5000 0.5000
C29G C 0.5329(7) 0.6396(11) 0.0775(6)
H25G H 0.5582 0.6337 0.0464
C30G C 0.5517(4) 0.6503(7) 0.1344(5)
C31G C 0.6157(3) 0.6533(4) 0.1580(4)
N5G N 0.6071(6) 0.7320(5) 0.2295(6)
C32G C 0.6310(6) 0.7121(4) 0.1796(5)
C33G C 0.6742(7) 0.7466(6) 0.1580(7)
H26G H 0.6964 0.7428 0.1246
C34G C 0.6772(7) 0.7897(7) 0.1989(6)
H27G H 0.7048 0.8197 0.1972
C35G C 0.6316(6) 0.7829(5) 0.2454(4)
C36G C 0.6159(4) 0.8180(4) 0.2976(3)
C37G C 0.5518(4) 0.8417(5) 0.2907(8)
C38G C 0.5356(8) 0.8897(6) 0.2679(10)
H29G H 0.5611 0.9182 0.2544
C39G C 0.6607(5) 0.6378(7) 0.1116(5)
H30G H 0.7006 0.6510 0.1219
H31G H 0.6614 0.5973 0.1069
H32G H 0.6484 0.6555 0.0768
C40G C 0.6597(5) 0.8683(5) 0.2989(8)
H33G H 0.6977 0.8566 0.3154
H34G H 0.6667 0.8815 0.2609
H35G H 0.6424 0.8985 0.3210
O9G O 0.6522(6) 0.4728(5) 0.3012(5)
C41G C 0.6195(6) 0.6093(5) 0.2049(5)
C42G C 0.6661(7) 0.6115(6) 0.2458(7)
H36G H 0.6906 0.6437 0.2489
C43G C 0.6754(8) 0.5659(6) 0.2813(8)
H37G H 0.7083 0.5671 0.3062
C44G C 0.6391(7) 0.5191(5) 0.2818(7)
C45G C 0.5925(7) 0.5191(6) 0.2430(7)
H38G H 0.5636 0.4902 0.2440
C46G C 0.5877(8) 0.5613(6) 0.2024(7)
H39G H 0.5611 0.5558 0.1722
O10G O 0.6608(5) 0.7059(5) 0.5063(5)
C47G C 0.6242(6) 0.7834(5) 0.3517(3)
C48G C 0.5927(7) 0.7981(6) 0.4006(4)
H40G H 0.5653 0.8282 0.4001
C49G C 0.6023(7) 0.7675(6) 0.4503(4)
H41G H 0.5799 0.7762 0.4826
C50G C 0.6451(6) 0.7240(6) 0.4516(4)
C51G C 0.6784(7) 0.7108(7) 0.4031(4)
H42G H 0.7086 0.6831 0.4044
C52G C 0.6663(7) 0.7393(6) 0.3529(4)
H43G H 0.6864 0.7287 0.3198
O11G O 0.6454(5) 0.5040(7) 0.4221(5)
O12G O 0.7476(5) 0.4983(8) 0.4209(5)
C53G C 0.7014(6) 0.4621(6) 0.3409(4)
H44G H 0.7046 0.4214 0.3465
H45G H 0.7392 0.4748 0.3237
C54G C 0.6959(6) 0.4901(9) 0.3987(4)
O13G O 0.6627(5) 0.5877(4) 0.5023(7)
O14G O 0.7553(5) 0.5858(4) 0.5043(7)
C55G C 0.7188(5) 0.6742(4) 0.5002(8)
H46G H 0.7371 0.6836 0.4640
H47G H 0.7468 0.6863 0.5297
C56G C 0.7109(5) 0.6101(4) 0.5039(13)
Cu3C Cu 0.3623(2) 0.4863(3) 0.4888(3)
Cu4C Cu 0.24202(19) 0.4913(3) 0.4965(4)
N4C N 0.5000 0.3360(12) 0.8336(8)
H24C H 0.5000 0.3217 0.8001
C29C C 0.4671(7) 0.3604(11) 0.9225(6)
H25C H 0.4418 0.3663 0.9536
C30C C 0.4483(4) 0.3497(7) 0.8656(5)
C31C C 0.3843(3) 0.3467(4) 0.8420(4)
N5C N 0.3929(6) 0.2680(5) 0.7705(6)
C32C C 0.3690(6) 0.2879(4) 0.8204(5)
C33C C 0.3258(7) 0.2534(6) 0.8420(7)
H26C H 0.3036 0.2572 0.8754
C34C C 0.3228(7) 0.2103(7) 0.8011(6)
H27C H 0.2952 0.1803 0.8028
C35C C 0.3684(6) 0.2171(5) 0.7546(4)
C36C C 0.3841(4) 0.1820(4) 0.7024(3)
N6C N 0.5000 0.1929(8) 0.7011(13)
H28C H 0.5000 0.2285 0.6927
C37C C 0.4482(4) 0.1583(5) 0.7093(8)
C38C C 0.4644(8) 0.1103(6) 0.7321(10)
H29C H 0.4389 0.0818 0.7456
C39C C 0.3393(5) 0.3622(7) 0.8884(5)
H30C H 0.2994 0.3490 0.8781
H31C H 0.3386 0.4027 0.8931
H32C H 0.3516 0.3445 0.9232
C40C C 0.3403(5) 0.1317(5) 0.7011(8)
H33C H 0.3023 0.1434 0.6846
H34C H 0.3333 0.1185 0.7391
H35C H 0.3576 0.1015 0.6790
O9C O 0.3478(6) 0.5272(5) 0.6988(5)
C41C C 0.3805(6) 0.3907(5) 0.7951(5)
C42C C 0.3339(7) 0.3885(6) 0.7542(7)
H36C H 0.3094 0.3563 0.7511
C43C C 0.3246(8) 0.4341(6) 0.7187(8)
H37C H 0.2917 0.4329 0.6938
C44C C 0.3609(7) 0.4809(5) 0.7182(7)
C45C C 0.4075(7) 0.4809(6) 0.7570(7)
H38C H 0.4364 0.5098 0.7560
C46C C 0.4123(8) 0.4387(6) 0.7976(7)
H39C H 0.4389 0.4442 0.8278
O10C O 0.3392(5) 0.2941(5) 0.4937(5)
C47C C 0.3758(6) 0.2166(5) 0.6483(3)
C48C C 0.4073(7) 0.2019(6) 0.5994(4)
H40C H 0.4347 0.1718 0.5999
C49C C 0.3977(7) 0.2325(6) 0.5497(4)
H41C H 0.4201 0.2238 0.5174
C50C C 0.3549(6) 0.2760(6) 0.5484(4)
C51C C 0.3216(7) 0.2892(7) 0.5969(4)
H42C H 0.2914 0.3169 0.5956
C52C C 0.3337(7) 0.2607(6) 0.6471(4)
H43C H 0.3136 0.2713 0.6802
O11C O 0.3546(5) 0.4960(7) 0.5779(5)
O12C O 0.2524(5) 0.5017(8) 0.5791(5)
C53C C 0.2986(6) 0.5379(6) 0.6591(4)
H44C H 0.2954 0.5786 0.6535
H45C H 0.2608 0.5252 0.6763
C54C C 0.3041(6) 0.5099(9) 0.6013(4)
O13C O 0.3373(5) 0.4123(4) 0.4977(7)
O14C O 0.2447(5) 0.4142(4) 0.4957(7)
C55C C 0.2812(5) 0.3258(4) 0.4998(8)
H46C H 0.2629 0.3164 0.5360
H47C H 0.2532 0.3137 0.4703
C56C C 0.2891(5) 0.3899(4) 0.4961(13)
C29D C 0.5329(7) 0.3604(11) 0.9225(6)
H25D H 0.5582 0.3663 0.9536
C30D C 0.5517(4) 0.3497(7) 0.8656(5)
C31D C 0.6157(3) 0.3467(4) 0.8420(4)
N5D N 0.6071(6) 0.2680(5) 0.7705(6)
C32D C 0.6310(6) 0.2879(4) 0.8204(5)
C33D C 0.6742(7) 0.2534(6) 0.8420(7)
H26D H 0.6964 0.2572 0.8754
C34D C 0.6772(7) 0.2103(7) 0.8011(6)
H27D H 0.7048 0.1803 0.8028
C35D C 0.6316(6) 0.2171(5) 0.7546(4)
C36D C 0.6159(4) 0.1820(4) 0.7024(3)
C37D C 0.5518(4) 0.1583(5) 0.7093(8)
C38D C 0.5356(8) 0.1103(6) 0.7321(10)
H29D H 0.5611 0.0818 0.7456
C39D C 0.6607(5) 0.3622(7) 0.8884(5)
H30D H 0.7006 0.3490 0.8781
H31D H 0.6614 0.4027 0.8931
H32D H 0.6484 0.3445 0.9232
C40D C 0.6597(5) 0.1317(5) 0.7011(8)
H33D H 0.6977 0.1434 0.6846
H34D H 0.6667 0.1185 0.7391
H35D H 0.6424 0.1015 0.6790
O9D O 0.6522(6) 0.5272(5) 0.6988(5)
C41D C 0.6195(6) 0.3907(5) 0.7951(5)
C42D C 0.6661(7) 0.3885(6) 0.7542(7)
H36D H 0.6906 0.3563 0.7511
C43D C 0.6754(8) 0.4341(6) 0.7187(8)
H37D H 0.7083 0.4329 0.6938
C44D C 0.6391(7) 0.4809(5) 0.7182(7)
C45D C 0.5925(7) 0.4809(6) 0.7570(7)
H38D H 0.5636 0.5098 0.7560
C46D C 0.5877(8) 0.4387(6) 0.7976(7)
H39D H 0.5611 0.4442 0.8278
O10D O 0.6608(5) 0.2941(5) 0.4937(5)
C47D C 0.6242(6) 0.2166(5) 0.6483(3)
C48D C 0.5927(7) 0.2019(6) 0.5994(4)
H40D H 0.5653 0.1718 0.5999
C49D C 0.6023(7) 0.2325(6) 0.5497(4)
H41D H 0.5799 0.2238 0.5174
C50D C 0.6451(6) 0.2760(6) 0.5484(4)
C51D C 0.6784(7) 0.2892(7) 0.5969(4)
H42D H 0.7086 0.3169 0.5956
C52D C 0.6663(7) 0.2607(6) 0.6471(4)
H43D H 0.6864 0.2713 0.6802
O11D O 0.6454(5) 0.4960(7) 0.5779(5)
O12D O 0.7476(5) 0.5017(8) 0.5791(5)
C53D C 0.7014(6) 0.5379(6) 0.6591(4)
H44D H 0.7046 0.5786 0.6535
H45D H 0.7392 0.5252 0.6763
C54D C 0.6959(6) 0.5099(9) 0.6013(4)
O13D O 0.6627(5) 0.4123(4) 0.4977(7)
O14D O 0.7553(5) 0.4142(4) 0.4957(7)
C55D C 0.7188(5) 0.3258(4) 0.4998(8)
H46D H 0.7371 0.3164 0.5360
H47D H 0.7468 0.3137 0.4703
C56D C 0.7109(5) 0.3899(4) 0.4961(13)
Cu3D Cu 0.6377(2) 0.4863(3) 0.4888(3)
Cu4D Cu 0.75798(19) 0.4913(3) 0.4965(4)
O15D O 0.5430(6) 0.5000 0.5000
O16D O 0.8566(6) 0.5000 0.5000
Cu3G Cu 0.6377(2) 0.5137(3) 0.5112(3)
Cu4G Cu 0.75798(19) 0.5087(3) 0.5035(4)
Cu5? Cu 0.3396(2) 1.0017(5) 1.0051(4)
N7? N 0.5000 0.6903(9) 0.8100(16)
H48? H 0.5000 0.7261 0.8175
C57? C 0.4637(9) 0.6117(7) 0.7735(11)
H49? H 0.4376 0.5853 0.7569
C58? C 0.4487(4) 0.6592(6) 0.8035(7)
C59? C 0.3844(4) 0.6826(4) 0.8103(4)
N8? N 0.3914(7) 0.7642(6) 0.7396(6)
H50? H 0.4167 0.7833 0.7599
C60? C 0.3681(6) 0.7143(5) 0.7561(4)
C61? C 0.3328(9) 0.6979(7) 0.7090(6)
H51? H 0.3137 0.6628 0.7047
C62? C 0.3308(8) 0.7466(6) 0.6655(7)
H52? H 0.3074 0.7500 0.6328
C63? C 0.3713(6) 0.7826(4) 0.6871(5)
C64? C 0.3850(4) 0.8419(4) 0.6644(4)
N9? N 0.5000 0.8278(15) 0.6722(8)
H53? H 0.5000 0.8134 0.7057
C65? C 0.4489(4) 0.8421(8) 0.6392(5)
C66? C 0.4669(8) 0.8566(12) 0.5795(5)
H54? H 0.4411 0.8640 0.5491
C67? C 0.3410(6) 0.6322(5) 0.8153(8)
H55? H 0.3336 0.6243 0.8546
H56? H 0.3590 0.5995 0.7977
H57? H 0.3032 0.6412 0.7969
C68? C 0.3401(5) 0.8533(8) 0.6169(5)
H58? H 0.3394 0.8933 0.6086
H59? H 0.3001 0.8412 0.6282
H60? H 0.3523 0.8327 0.5837
O17? O 0.3283(5) 0.8005(6) 1.0152(5)
C69? C 0.3753(6) 0.7201(5) 0.8624(4)
C70? C 0.3307(7) 0.7620(6) 0.8602(4)
H61? H 0.3121 0.7708 0.8259
C71? C 0.3137(8) 0.7906(7) 0.9092(6)
H62? H 0.2838 0.8186 0.9077
C72? C 0.3414(8) 0.7773(8) 0.9605(5)
C73? C 0.3861(7) 0.7354(7) 0.9627(4)
H63? H 0.4046 0.7266 0.9970
C74? C 0.4031(7) 0.7068(6) 0.9137(5)
H64? H 0.4329 0.6788 0.9152
O18? O 0.3325(6) 1.0247(5) 0.7996(6)
C75? C 0.3769(6) 0.8864(4) 0.7107(5)
C76? C 0.4140(7) 0.9343(5) 0.7076(8)
H65? H 0.4466 0.9350 0.6825
C77? C 0.4023(7) 0.9810(5) 0.7420(7)
H66? H 0.4262 1.0135 0.7388
C78? C 0.3550(6) 0.9790(4) 0.7812(7)
C79? C 0.3199(8) 0.9299(5) 0.7862(7)
H67? H 0.2913 0.9267 0.8151
C80? C 0.3277(7) 0.8857(5) 0.7478(7)
H68? H 0.3001 0.8557 0.7470
O19? O 0.3261(5) 0.9159(4) 1.0045(10)
O20? O 0.2292(5) 0.9152(4) 1.0069(9)
C81? C 0.2735(6) 0.8292(4) 1.0128(10)
H69? H 0.2514 0.8210 1.0474
H70? H 0.2501 0.8132 0.9818
C82? C 0.2743(5) 0.8934(4) 1.0053(17)
O21? O 0.3368(5) 0.9992(9) 0.9182(4)
O22? O 0.2338(5) 0.9987(9) 0.9184(5)
C83? C 0.2836(7) 1.0336(8) 0.8373(5)
H71? H 0.2464 1.0242 0.8170
H72? H 0.2820 1.0741 0.8452
C84? C 0.2811(5) 1.0028(9) 0.8941(4)
O23? O 0.4348(6) 1.0000 1.0000
Cu6? Cu 0.33659(19) 0.5050(4) 0.5055(3)
Cu7? Cu 0.21666(18) 0.5060(4) 0.4980(4)
N10? N 0.5000 0.6887(16) 0.1858(8)
H73? H 0.5000 0.6947 0.2217
C85? C 0.4653(8) 0.6764(13) 0.0952(6)
H74? H 0.4399 0.6727 0.0639
C86? C 0.4472(4) 0.6832(8) 0.1529(5)
C87? C 0.3832(4) 0.6847(4) 0.1767(4)
N11? N 0.3923(6) 0.7529(5) 0.2582(5)
H75? H 0.4173 0.7312 0.2761
C88? C 0.3692(6) 0.7406(4) 0.2057(5)
C89? C 0.3318(8) 0.7814(6) 0.1860(7)
H76? H 0.3105 0.7827 0.1520
C90? C 0.3332(8) 0.8214(7) 0.2300(6)
H77? H 0.3124 0.8559 0.2287
C91? C 0.3714(6) 0.8034(5) 0.2792(4)
C92? C 0.3846(4) 0.8286(4) 0.3373(3)
N12? N 0.5000 0.8217(8) 0.3237(14)
H78? H 0.5000 0.7877 0.3104
C93? C 0.4480(4) 0.8547(5) 0.3366(8)
C94? C 0.4633(8) 0.9079(6) 0.3405(12)
H79? H 0.4374 0.9391 0.3429
C95? C 0.3383(5) 0.6774(8) 0.1283(5)
H80? H 0.2991 0.6917 0.1395
H81? H 0.3348 0.6377 0.1191
H82? H 0.3525 0.6980 0.0958
C96? C 0.3389(5) 0.8763(5) 0.3471(8)
H83? H 0.3316 0.8805 0.3870
H84? H 0.3012 0.8674 0.3283
H85? H 0.3549 0.9113 0.3322
O24? O 0.3246(6) 0.4889(5) 0.2923(5)
C97? C 0.3771(6) 0.6349(4) 0.2172(5)
C98? C 0.3311(8) 0.6352(6) 0.2590(7)
H86? H 0.3108 0.6689 0.2677
C99? C 0.3161(9) 0.5858(5) 0.2869(8)
H87? H 0.2858 0.5873 0.3144
C100? C 0.3431(7) 0.5349(5) 0.2764(7)
C101? C 0.3838(8) 0.5346(6) 0.2322(7)
H88? H 0.4009 0.5003 0.2207
C102? C 0.4001(9) 0.5842(5) 0.2044(8)
H89? H 0.4285 0.5819 0.1753
O25? O 0.3342(5) 0.6891(6) 0.5280(5)
C103? C 0.3766(5) 0.7844(4) 0.3842(4)
C104? C 0.4057(6) 0.7929(6) 0.4357(5)
H90? H 0.4364 0.8201 0.4388
C105? C 0.3891(7) 0.7608(7) 0.4827(4)
H91? H 0.4086 0.7665 0.5172
C106? C 0.3433(7) 0.7202(7) 0.4781(5)
C107? C 0.3141(7) 0.7117(7) 0.4265(5)
H92? H 0.2835 0.6845 0.4234
C108? C 0.3307(7) 0.7438(5) 0.3796(4)
H93? H 0.3112 0.7381 0.3450
O26? O 0.3306(5) 0.4949(7) 0.4170(4)
O27? O 0.2269(5) 0.4972(7) 0.4156(4)
C109? C 0.2728(6) 0.4792(9) 0.3291(4)
H94? H 0.2626 0.4391 0.3271
H95? H 0.2384 0.5000 0.3136
C110? C 0.2787(5) 0.4952(11) 0.3914(4)
O28? O 0.3140(5) 0.5803(4) 0.4956(7)
O29? O 0.2229(5) 0.5831(4) 0.5014(7)
C111? C 0.2711(5) 0.6661(5) 0.5257(9)
H96? H 0.2467 0.6899 0.5010
H97? H 0.2533 0.6679 0.5633
C112? C 0.2683(5) 0.6052(4) 0.5046(11)
O30? O 0.4330(6) 0.5000 0.5000
O31? O 0.1182(6) 0.5000 0.5000
N13? N 0.4998(2) 0.6272(2) 0.37837(19)
O32? O 0.4945(5) 0.6964(3) 0.3116(2)
C113? C 0.5207(3) 0.6703(2) 0.3497(2)
H98? H 0.5598 0.6827 0.3589
C114? C 0.4392(3) 0.6059(4) 0.3659(5)
H99? H 0.4302 0.5743 0.3903
H100? H 0.4099 0.6356 0.3720
H101? H 0.4375 0.5937 0.3271
C115? C 0.5352(4) 0.5994(4) 0.4228(3)
H102? H 0.5118 0.5688 0.4387
H103? H 0.5723 0.5847 0.4070
H104? H 0.5447 0.6266 0.4519
N14? N 0.5018(3) 0.6094(2) 0.3558(2)
O33? O 0.5002(4) 0.6786(3) 0.2889(4)
C116? C 0.4972(2) 0.6287(2) 0.3042(2)
H105? H 0.4911 0.6018 0.2759
C117? C 0.4971(6) 0.5488(2) 0.3656(5)
H106? H 0.5013 0.5411 0.4053
H107? H 0.4581 0.5355 0.3527
H108? H 0.5288 0.5295 0.3452
C118? C 0.5114(7) 0.6468(3) 0.4043(3)
H109? H 0.5135 0.6246 0.4383
H110? H 0.5489 0.6673 0.3994
H111? H 0.4782 0.6733 0.4070
N15? N 0.5014(5) 0.8731(5) 0.8806(6)
O34? O 0.4966(12) 0.7994(5) 0.8192(5)
C119? C 0.5209(7) 0.8259(5) 0.8579(6)
H112? H 0.5568 0.8109 0.8725
C120? C 0.4387(5) 0.8901(9) 0.8713(12)
H113? H 0.4311 0.9254 0.8904
H114? H 0.4317 0.8948 0.8314
H115? H 0.4119 0.8614 0.8859
C121? C 0.5398(7) 0.9079(7) 0.9175(8)
H116? H 0.5172 0.9406 0.9298
H117? H 0.5519 0.8859 0.9498
H118? H 0.5754 0.9199 0.8970
N16? N 0.5000 0.8939(4) 0.8505(4)
O35? O 0.5000 0.8177(5) 0.7921(9)
C122? C 0.5000 0.8692(5) 0.8010(5)
H119? H 0.5000 0.8928 0.7695
C123? C 0.5000 0.8589(7) 0.9009(5)
H120? H 0.5000 0.8828 0.9338
H121? H 0.4642 0.8353 0.9012
C124? C 0.5000 0.9556(4) 0.8566(9)
H122? H 0.5000 0.9654 0.8961
H123? H 0.5358 0.9711 0.8389
N17? N 0.5118(2) 0.8681(2) 0.1163(3)
O36? O 0.4841(5) 0.9399(3) 0.0575(4)
C125? C 0.4726(3) 0.8995(3) 0.0889(3)
H124? H 0.4316 0.8904 0.0936
C126? C 0.5738(2) 0.8882(5) 0.1227(8)
H125? H 0.5971 0.8608 0.1436
H126? H 0.5918 0.8934 0.0859
H127? H 0.5738 0.9238 0.1426
C127? C 0.4946(5) 0.8146(3) 0.1432(5)
H128? H 0.5298 0.7981 0.1611
H129? H 0.4637 0.8216 0.1712
H130? H 0.4791 0.7889 0.1151
N18? N 0.5069(5) 0.3726(5) 0.3773(6)
O37? O 0.4747(8) 0.4337(6) 0.4448(7)
C128? C 0.4673(6) 0.3927(6) 0.4133(6)
H131? H 0.4298 0.3743 0.4153
C129? C 0.5686(5) 0.3949(10) 0.3787(12)
H132? H 0.5927 0.3765 0.3502
H133? H 0.5677 0.4351 0.3716
H134? H 0.5862 0.3880 0.4153
C130? C 0.4969(12) 0.3183(5) 0.3485(8)
H135? H 0.5307 0.3105 0.3238
H136? H 0.4935 0.2885 0.3761
H137? H 0.4601 0.3202 0.3267
Cu8? Cu 0.20650(16) 1.0036(4) 0.9938(4)
O38? O 0.1257(6) 1.0000 1.0000
H138? H 0.4203 0.7143 0.2487
H139? H 0.5000 0.7070 0.8283
H140? H 0.5000 0.7998 0.7327
loop_
_geom_bond_atom_site_label_1
_geom_bond_atom_site_label_2
_geom_bond_site_symmetry_1
_geom_bond_site_symmetry_2
Cu1 O3 1_555 1_555
N1 C2 1_555 1_555
C1 H1 1_555 1_555
C2 C1 1_555 1_555
C3 C2 1_555 1_555
N2 H2 1_555 1_555
C4 C3 1_555 1_555
C5 C4 1_555 1_555
H3 C5 1_555 1_555
C6 C5 1_555 1_555
H4 C6 1_555 1_555
C7 N2 1_555 1_555
C8 C7 1_555 1_555
N3 C9 1_555 1_555
C9 C8 1_555 1_555
C10 C9 1_555 1_555
H5 C10 1_555 1_555
C11 C3 1_555 1_555
H6 C11 1_555 1_555
H7 C11 1_555 1_555
H8 C11 1_555 1_555
C12 C8 1_555 1_555
H9 C12 1_555 1_555
H10 C12 1_555 1_555
H11 C12 1_555 1_555
O1 C16 1_555 1_555
C13 C3 1_555 1_555
C14 C13 1_555 1_555
H12 C14 1_555 1_555
C15 C14 1_555 1_555
H13 C15 1_555 1_555
C16 C15 1_555 1_555
C17 C16 1_555 1_555
H14 C17 1_555 1_555
C18 C13 1_555 1_555
H15 C18 1_555 1_555
O2 C22 1_555 1_555
C19 C8 1_555 1_555
C20 C19 1_555 1_555
H16 C20 1_555 1_555
C21 C20 1_555 1_555
H17 C21 1_555 1_555
C22 C21 1_555 1_555
C23 C22 1_555 1_555
H18 C23 1_555 1_555
C24 C19 1_555 1_555
H19 C24 1_555 1_555
O3 C26 1_555 1_555
O4 C26 1_555 1_555
C25 O1 1_555 1_555
H20 C25 1_555 1_555
H21 C25 1_555 1_555
C26 C25 1_555 1_555
O5 Cu1 1_555 1_555
O6 C28 1_555 1_555
C27 O2 1_555 1_555
H22 C27 1_555 1_555
H23 C27 1_555 1_555
C28 O5 1_555 1_555
O7 Cu1 1_555 1_555
Cu2 Cu1 1_555 1_555
O8 Cu2 1_555 1_555
Cu3 Cu4 1_555 1_555
Cu4 O12 1_555 1_555
N4 H24 1_555 1_555
C29 H25 1_555 1_555
C30 N4 1_555 1_555
C31 C30 1_555 1_555
N5 C32 1_555 1_555
C32 C31 1_555 1_555
C33 C32 1_555 1_555
H26 C33 1_555 1_555
C34 C33 1_555 1_555
H27 C34 1_555 1_555
C35 N5 1_555 1_555
C36 C35 1_555 1_555
N6 H28 1_555 1_555
C37 C36 1_555 1_555
C38 C37 1_555 1_555
H29 C38 1_555 1_555
C39 C31 1_555 1_555
H30 C39 1_555 1_555
H31 C39 1_555 1_555
H32 C39 1_555 1_555
C40 C36 1_555 1_555
H33 C40 1_555 1_555
H34 C40 1_555 1_555
H35 C40 1_555 1_555
O9 C44 1_555 1_555
C41 C31 1_555 1_555
C42 C41 1_555 1_555
H36 C42 1_555 1_555
C43 C42 1_555 1_555
H37 C43 1_555 1_555
C44 C43 1_555 1_555
C45 C44 1_555 1_555
H38 C45 1_555 1_555
C46 C41 1_555 1_555
H39 C46 1_555 1_555
O10 C50 1_555 1_555
C47 C36 1_555 1_555
C48 C47 1_555 1_555
H40 C48 1_555 1_555
C49 C48 1_555 1_555
H41 C49 1_555 1_555
C50 C49 1_555 1_555
C51 C50 1_555 1_555
H42 C51 1_555 1_555
C52 C47 1_555 1_555
H43 C52 1_555 1_555
O11 Cu3 1_555 1_555
O12 C54 1_555 1_555
C53 O9 1_555 1_555
H44 C53 1_555 1_555
H45 C53 1_555 1_555
C54 O11 1_555 1_555
O13 Cu3 1_555 1_555
O14 Cu4 1_555 1_555
C55 O10 1_555 1_555
H46 C55 1_555 1_555
H47 C55 1_555 1_555
C56 O13 1_555 1_555
O15 Cu3 1_555 1_555
O16 Cu4 1_555 1_555
C1G C1 1_555 1_555
H1G C1G 1_555 1_555
C2G N1 1_555 1_555
C3G C2G 1_555 1_555
N2G H2G 1_555 1_555
C4G C3G 1_555 1_555
C5G C4G 1_555 1_555
H3G C5G 1_555 1_555
C6G C5G 1_555 1_555
H4G C6G 1_555 1_555
C7G N2G 1_555 1_555
C8G C7G 1_555 1_555
C9G N3 1_555 1_555
C10G C10 1_555 1_555
H5G C10G 1_555 1_555
C11G C3G 1_555 1_555
H6G C11G 1_555 1_555
H7G C11G 1_555 1_555
H8G C11G 1_555 1_555
C12G C8G 1_555 1_555
H9G C12G 1_555 1_555
H10G C12G 1_555 1_555
H11G C12G 1_555 1_555
O1G C16G 1_555 1_555
C13G C3G 1_555 1_555
C14G C13G 1_555 1_555
H12G C14G 1_555 1_555
C15G C14G 1_555 1_555
H13G C15G 1_555 1_555
C16G C15G 1_555 1_555
C17G C16G 1_555 1_555
H14G C17G 1_555 1_555
C18G C13G 1_555 1_555
H15G C18G 1_555 1_555
O2G C22G 1_555 1_555
C19G C8G 1_555 1_555
C20G C19G 1_555 1_555
H16G C20G 1_555 1_555
C21G C20G 1_555 1_555
H17G C21G 1_555 1_555
C22G C21G 1_555 1_555
C23G C22G 1_555 1_555
H18G C23G 1_555 1_555
C24G C19G 1_555 1_555
H19G C24G 1_555 1_555
O3G C26G 1_555 1_555
O4G C26G 1_555 1_555
C25G O1G 1_555 1_555
H20G C25G 1_555 1_555
H21G C25G 1_555 1_555
C26G C25G 1_555 1_555
O5G C28G 1_555 1_555
O6G C28G 1_555 1_555
C27G O2G 1_555 1_555
H22G C27G 1_555 1_555
H23G C27G 1_555 1_555
C28G C27G 1_555 1_555
Cu1C O3 1_555 1_555
N1C C2C 1_555 1_555
C1C H1C 1_555 1_555
C2C C1C 1_555 1_555
C3C C2C 1_555 1_555
N2C H2C 1_555 1_555
C4C C3C 1_555 1_555
C5C C4C 1_555 1_555
H3C C5C 1_555 1_555
C6C C5C 1_555 1_555
H4C C6C 1_555 1_555
C7C N2C 1_555 1_555
C8C C7C 1_555 1_555
N3C C9C 1_555 1_555
C9C C8C 1_555 1_555
C10C C9C 1_555 1_555
H5C C10C 1_555 1_555
C11C C3C 1_555 1_555
H6C C11C 1_555 1_555
H7C C11C 1_555 1_555
H8C C11C 1_555 1_555
C12C C8C 1_555 1_555
H9C C12C 1_555 1_555
H10C C12C 1_555 1_555
H11C C12C 1_555 1_555
O1C C16C 1_555 1_555
C13C C3C 1_555 1_555
C14C C13C 1_555 1_555
H12C C14C 1_555 1_555
C15C C14C 1_555 1_555
H13C C15C 1_555 1_555
C16C C15C 1_555 1_555
C17C C16C 1_555 1_555
H14C C17C 1_555 1_555
C18C C13C 1_555 1_555
H15C C18C 1_555 1_555
O2C C22C 1_555 1_555
C19C C8C 1_555 1_555
C20C C19C 1_555 1_555
H16C C20C 1_555 1_555
C21C C20C 1_555 1_555
H17C C21C 1_555 1_555
C22C C21C 1_555 1_555
C23C C22C 1_555 1_555
H18C C23C 1_555 1_555
C24C C19C 1_555 1_555
H19C C24C 1_555 1_555
O3C Cu1 1_555 1_555
O4C Cu2 1_555 1_555
C25C O1C 1_555 1_555
H20C C25C 1_555 1_555
H21C C25C 1_555 1_555
C26C O3C 1_555 1_555
O5C Cu1 1_555 1_555
O6C Cu2 1_555 1_555
C27C O2C 1_555 1_555
H22C C27C 1_555 1_555
H23C C27C 1_555 1_555
C28C O5C 1_555 1_555
Cu2C Cu1 1_555 1_555
C1D C1C 1_555 1_555
H1D C1D 1_555 1_555
C2D N1C 1_555 1_555
C3D C2D 1_555 1_555
N2D H2D 1_555 1_555
C4D C3D 1_555 1_555
C5D C4D 1_555 1_555
H3D C5D 1_555 1_555
C6D C5D 1_555 1_555
H4D C6D 1_555 1_555
C7D N2D 1_555 1_555
C8D C7D 1_555 1_555
C9D N3C 1_555 1_555
C10D C10C 1_555 1_555
H5D C10D 1_555 1_555
C11D C3D 1_555 1_555
H6D C11D 1_555 1_555
H7D C11D 1_555 1_555
H8D C11D 1_555 1_555
C12D C8D 1_555 1_555
H9D C12D 1_555 1_555
H10D C12D 1_555 1_555
H11D C12D 1_555 1_555
O1D C16D 1_555 1_555
C13D C3D 1_555 1_555
C14D C13D 1_555 1_555
H12D C14D 1_555 1_555
C15D C14D 1_555 1_555
H13D C15D 1_555 1_555
C16D C15D 1_555 1_555
C17D C16D 1_555 1_555
H14D C17D 1_555 1_555
C18D C13D 1_555 1_555
H15D C18D 1_555 1_555
O2D C22D 1_555 1_555
C19D C8D 1_555 1_555
C20D C19D 1_555 1_555
H16D C20D 1_555 1_555
C21D C20D 1_555 1_555
H17D C21D 1_555 1_555
C22D C21D 1_555 1_555
C23D C22D 1_555 1_555
H18D C23D 1_555 1_555
C24D C19D 1_555 1_555
H19D C24D 1_555 1_555
O3D C26D 1_555 1_555
O4D C26D 1_555 1_555
C25D O1D 1_555 1_555
H20D C25D 1_555 1_555
H21D C25D 1_555 1_555
C26D C25D 1_555 1_555
O5D C28D 1_555 1_555
O6D C28D 1_555 1_555
C27D O2D 1_555 1_555
H22D C27D 1_555 1_555
H23D C27D 1_555 1_555
C28D C27D 1_555 1_555
Cu1D O3G 1_555 1_555
O7D Cu1D 1_555 1_555
Cu2D O3G 1_555 1_555
O8D Cu2D 1_555 1_555
Cu1G O3G 1_555 1_555
Cu2G O4G 1_555 1_555
C29G C29 1_555 1_555
H25G C29G 1_555 1_555
C30G N4 1_555 1_555
C31G C30G 1_555 1_555
N5G C32G 1_555 1_555
C32G C31G 1_555 1_555
C33G C32G 1_555 1_555
H26G C33G 1_555 1_555
C34G C33G 1_555 1_555
H27G C34G 1_555 1_555
C35G N5G 1_555 1_555
C36G C35G 1_555 1_555
C37G N6 1_555 1_555
C38G C38 1_555 1_555
H29G C38G 1_555 1_555
C39G C31G 1_555 1_555
H30G C39G 1_555 1_555
H31G C39G 1_555 1_555
H32G C39G 1_555 1_555
C40G C36G 1_555 1_555
H33G C40G 1_555 1_555
H34G C40G 1_555 1_555
H35G C40G 1_555 1_555
O9G C44G 1_555 1_555
C41G C31G 1_555 1_555
C42G C41G 1_555 1_555
H36G C42G 1_555 1_555
C43G C42G 1_555 1_555
H37G C43G 1_555 1_555
C44G C43G 1_555 1_555
C45G C44G 1_555 1_555
H38G C45G 1_555 1_555
C46G C41G 1_555 1_555
H39G C46G 1_555 1_555
O10G C50G 1_555 1_555
C47G C36G 1_555 1_555
C48G C47G 1_555 1_555
H40G C48G 1_555 1_555
C49G C48G 1_555 1_555
H41G C49G 1_555 1_555
C50G C49G 1_555 1_555
C51G C50G 1_555 1_555
H42G C51G 1_555 1_555
C52G C47G 1_555 1_555
H43G C52G 1_555 1_555
O11G C54G 1_555 1_555
O12G C54G 1_555 1_555
C53G O9G 1_555 1_555
H44G C53G 1_555 1_555
H45G C53G 1_555 1_555
C54G C53G 1_555 1_555
O13G C56G 1_555 1_555
O14G C56G 1_555 1_555
C55G O10G 1_555 1_555
H46G C55G 1_555 1_555
H47G C55G 1_555 1_555
C56G C55G 1_555 1_555
Cu3C Cu3 1_555 1_555
Cu4C Cu3 1_555 1_555
N4C H24C 1_555 1_555
C29C H25C 1_555 1_555
C30C N4C 1_555 1_555
C31C C30C 1_555 1_555
N5C C32C 1_555 1_555
C32C C31C 1_555 1_555
C33C C32C 1_555 1_555
H26C C33C 1_555 1_555
C34C C33C 1_555 1_555
H27C C34C 1_555 1_555
C35C N5C 1_555 1_555
C36C C35C 1_555 1_555
N6C H28C 1_555 1_555
C37C C36C 1_555 1_555
C38C C37C 1_555 1_555
H29C C38C 1_555 1_555
C39C C31C 1_555 1_555
H30C C39C 1_555 1_555
H31C C39C 1_555 1_555
H32C C39C 1_555 1_555
C40C C36C 1_555 1_555
H33C C40C 1_555 1_555
H34C C40C 1_555 1_555
H35C C40C 1_555 1_555
O9C C44C 1_555 1_555
C41C C31C 1_555 1_555
C42C C41C 1_555 1_555
H36C C42C 1_555 1_555
C43C C42C 1_555 1_555
H37C C43C 1_555 1_555
C44C C43C 1_555 1_555
C45C C44C 1_555 1_555
H38C C45C 1_555 1_555
C46C C41C 1_555 1_555
H39C C46C 1_555 1_555
O10C C50C 1_555 1_555
C47C C36C 1_555 1_555
C48C C47C 1_555 1_555
H40C C48C 1_555 1_555
C49C C48C 1_555 1_555
H41C C49C 1_555 1_555
C50C C49C 1_555 1_555
C51C C50C 1_555 1_555
H42C C51C 1_555 1_555
C52C C47C 1_555 1_555
H43C C52C 1_555 1_555
O11C Cu3 1_555 1_555
O12C Cu4 1_555 1_555
C53C O9C 1_555 1_555
H44C C53C 1_555 1_555
H45C C53C 1_555 1_555
C54C O11C 1_555 1_555
O13C Cu3 1_555 1_555
O14C Cu4 1_555 1_555
C55C O10C 1_555 1_555
H46C C55C 1_555 1_555
H47C C55C 1_555 1_555
C56C O13C 1_555 1_555
C29D C29C 1_555 1_555
H25D C29D 1_555 1_555
C30D N4C 1_555 1_555
C31D C30D 1_555 1_555
N5D C32D 1_555 1_555
C32D C31D 1_555 1_555
C33D C32D 1_555 1_555
H26D C33D 1_555 1_555
C34D C33D 1_555 1_555
H27D C34D 1_555 1_555
C35D N5D 1_555 1_555
C36D C35D 1_555 1_555
C37D N6C 1_555 1_555
C38D C38C 1_555 1_555
H29D C38D 1_555 1_555
C39D C31D 1_555 1_555
H30D C39D 1_555 1_555
H31D C39D 1_555 1_555
H32D C39D 1_555 1_555
C40D C36D 1_555 1_555
H33D C40D 1_555 1_555
H34D C40D 1_555 1_555
H35D C40D 1_555 1_555
O9D C44D 1_555 1_555
C41D C31D 1_555 1_555
C42D C41D 1_555 1_555
H36D C42D 1_555 1_555
C43D C42D 1_555 1_555
H37D C43D 1_555 1_555
C44D C43D 1_555 1_555
C45D C44D 1_555 1_555
H38D C45D 1_555 1_555
C46D C41D 1_555 1_555
H39D C46D 1_555 1_555
O10D C50D 1_555 1_555
C47D C36D 1_555 1_555
C48D C47D 1_555 1_555
H40D C48D 1_555 1_555
C49D C48D 1_555 1_555
H41D C49D 1_555 1_555
C50D C49D 1_555 1_555
C51D C50D 1_555 1_555
H42D C51D 1_555 1_555
C52D C47D 1_555 1_555
H43D C52D 1_555 1_555
O11D C54D 1_555 1_555
O12D C54D 1_555 1_555
C53D O9D 1_555 1_555
H44D C53D 1_555 1_555
H45D C53D 1_555 1_555
C54D C53D 1_555 1_555
O13D C56D 1_555 1_555
O14D C56D 1_555 1_555
C55D O10D 1_555 1_555
H46D C55D 1_555 1_555
H47D C55D 1_555 1_555
C56D C55D 1_555 1_555
Cu3D O11G 1_555 1_555
Cu4D O12G 1_555 1_555
O15D Cu3D 1_555 1_555
O16D Cu4D 1_555 1_555
Cu3G O11G 1_555 1_555
Cu4G O12G 1_555 1_555
N2 C4 1_555 1_555
C6 C7 1_555 1_555
C17 C18 1_555 1_555
C23 C24 1_555 1_555
O3 Cu2C 1_555 1_555
O4 Cu2 1_555 1_555
O4 Cu2C 1_555 1_555
O5 Cu1C 1_555 1_555
O6 Cu2 1_555 1_555
O6 Cu2C 1_555 1_555
C27 C28 1_555 1_555
O7 Cu1C 1_555 1_555
Cu2 Cu1C 1_555 1_555
Cu2 O3C 1_555 1_555
O8 Cu2C 1_555 1_555
Cu4 O13 1_555 1_555
Cu4 Cu3C 1_555 1_555
C29 C30 1_555 1_555
C34 C35 1_555 1_555
N6 C37 1_555 1_555
C45 C46 1_555 1_555
C51 C52 1_555 1_555
O11 Cu3C 1_555 1_555
O12 Cu4C 1_555 1_555
C53 C54 1_555 1_555
O13 Cu3C 1_555 1_555
O14 C56 1_555 1_555
O14 Cu4C 1_555 1_555
C55 C56 1_555 1_555
O15 Cu3C 1_555 1_555
O16 Cu4C 1_555 1_555
C1G C2G 1_555 1_555
N2G C4G 1_555 1_555
C6G C7G 1_555 1_555
C8G C9G 1_555 1_555
C9G C10G 1_555 1_555
C17G C18G 1_555 1_555
C23G C24G 1_555 1_555
O4G Cu2D 1_555 1_555
O5G Cu1D 1_555 1_555
O5G Cu1G 1_555 1_555
O6G Cu2D 1_555 1_555
O6G Cu2G 1_555 1_555
Cu1C O3C 1_555 1_555
Cu1C O5C 1_555 1_555
Cu1C Cu2C 1_555 1_555
N2C C4C 1_555 1_555
C6C C7C 1_555 1_555
C17C C18C 1_555 1_555
C23C C24C 1_555 1_555
O4C C26C 1_555 1_555
O4C Cu2C 1_555 1_555
C25C C26C 1_555 1_555
O6C C28C 1_555 1_555
O6C Cu2C 1_555 1_555
C27C C28C 1_555 1_555
C1D C2D 1_555 1_555
N2D C4D 1_555 1_555
C6D C7D 1_555 1_555
C8D C9D 1_555 1_555
C9D C10D 1_555 1_555
C17D C18D 1_555 1_555
C23D C24D 1_555 1_555
O3D Cu1D 1_555 1_555
O3D Cu1G 1_555 1_555
O3D Cu2G 1_555 1_555
O4D Cu2D 1_555 1_555
O4D Cu2G 1_555 1_555
O5D Cu1D 1_555 1_555
O5D Cu1G 1_555 1_555
O6D Cu2D 1_555 1_555
O6D Cu2G 1_555 1_555
Cu1D Cu2D 1_555 1_555
Cu1D Cu2G 1_555 1_555
O7D Cu1G 1_555 1_555
Cu2D Cu1G 1_555 1_555
O8D Cu2G 1_555 1_555
Cu1G Cu2G 1_555 1_555
C29G C30G 1_555 1_555
C34G C35G 1_555 1_555
C36G C37G 1_555 1_555
C37G C38G 1_555 1_555
C45G C46G 1_555 1_555
C51G C52G 1_555 1_555
O13G Cu3D 1_555 1_555
O13G Cu3G 1_555 1_555
O13G Cu4G 1_555 1_555
O14G Cu4D 1_555 1_555
O14G Cu4G 1_555 1_555
Cu3C Cu4C 1_555 1_555
Cu3C O11C 1_555 1_555
Cu3C O13C 1_555 1_555
Cu4C O12C 1_555 1_555
Cu4C O13C 1_555 1_555
Cu4C O14C 1_555 1_555
C29C C30C 1_555 1_555
C34C C35C 1_555 1_555
N6C C37C 1_555 1_555
C45C C46C 1_555 1_555
C51C C52C 1_555 1_555
O12C C54C 1_555 1_555
C53C C54C 1_555 1_555
O14C C56C 1_555 1_555
C55C C56C 1_555 1_555
C29D C30D 1_555 1_555
C34D C35D 1_555 1_555
C36D C37D 1_555 1_555
C37D C38D 1_555 1_555
C45D C46D 1_555 1_555
C51D C52D 1_555 1_555
O11D Cu3D 1_555 1_555
O11D Cu3G 1_555 1_555
O12D Cu4D 1_555 1_555
O12D Cu4G 1_555 1_555
O13D Cu3D 1_555 1_555
O13D Cu4D 1_555 1_555
O13D Cu3G 1_555 1_555
O14D Cu4D 1_555 1_555
O14D Cu4G 1_555 1_555
Cu3D Cu4D 1_555 1_555
Cu3D Cu3G 1_555 1_555
Cu3D Cu4G 1_555 1_555
Cu4D Cu3G 1_555 1_555
O15D Cu3G 1_555 1_555
O16D Cu4G 1_555 1_555
Cu3G Cu4G 1_555 1_555

#END
