# generated using pymatgen
data_Cu4H213C168N13O31
_symmetry_space_group_name_H-M   'P 1'
_cell_length_a   17.89300000
_cell_length_b   20.44130000
_cell_length_c   21.03420000
_cell_angle_alpha   79.28100000
_cell_angle_beta   84.28300000
_cell_angle_gamma   75.32600000
_symmetry_Int_Tables_number   1
_chemical_formula_structural   Cu4H213C168N13O31
_chemical_formula_sum   'Cu8 H426 C336 N26 O62'
_cell_volume   7301.42694354
_cell_formula_units_Z   2
loop_
 _symmetry_equiv_pos_site_id
 _symmetry_equiv_pos_as_xyz
  1  'x, y, z'
loop_
 _atom_site_type_symbol
 _atom_site_label
 _atom_site_symmetry_multiplicity
 _atom_site_fract_x
 _atom_site_fract_y
 _atom_site_fract_z
 _atom_site_occupancy
  Cu  Cu1  1  0.313860  0.613480  0.922160  1.0
  Cu  Cu2  1  0.686140  0.386520  0.077840  1.0
  Cu  Cu3  1  0.433270  0.572260  0.994610  1.0
  Cu  Cu4  1  0.566730  0.427740  0.005390  1.0
  Cu  Cu5  1  0.324560  0.100880  0.407440  1.0
  Cu  Cu6  1  0.675440  0.899120  0.592560  1.0
  Cu  Cu7  1  0.447750  0.074130  0.471550  1.0
  Cu  Cu8  1  0.552250  0.925870  0.528450  1.0
  H  H9  1  0.309800  0.659400  0.442100  1
  H  H10  1  0.690200  0.340600  0.557900  1
  H  H11  1  0.153600  0.664900  0.327800  1
  H  H12  1  0.846400  0.335100  0.672200  1
  H  H13  1  0.132400  0.655000  0.402500  1
  H  H14  1  0.867600  0.345000  0.597500  1
  H  H15  1  0.169300  0.591000  0.369000  1
  H  H16  1  0.830700  0.409000  0.631000  1
  H  H17  1  0.293400  0.661300  0.291900  1
  H  H18  1  0.706600  0.338700  0.708100  1
  H  H19  1  0.311600  0.583300  0.322200  1
  H  H20  1  0.688400  0.416700  0.677800  1
  H  H21  1  0.354300  0.632300  0.345000  1
  H  H22  1  0.645700  0.367700  0.655000  1
  H  H23  1  0.688700  0.847200  0.084600  1
  H  H24  1  0.311300  0.152800  0.915400  1
  H  H25  1  0.822400  0.928200  0.155600  1
  H  H26  1  0.177600  0.071800  0.844400  1
  H  H27  1  0.860900  0.861900  0.126100  1
  H  H28  1  0.139100  0.138100  0.873900  1
  H  H29  1  0.833200  0.856000  0.199500  1
  H  H30  1  0.166800  0.144000  0.800500  1
  H  H31  1  0.687500  0.880300  0.226500  1
  H  H32  1  0.312500  0.119700  0.773500  1
  H  H33  1  0.634400  0.897600  0.167800  1
  H  H34  1  0.365600  0.102400  0.832200  1
  H  H35  1  0.675500  0.952200  0.181800  1
  H  H36  1  0.324500  0.047800  0.818200  1
  H  H37  1  0.185900  0.284200  0.230000  1
  H  H38  1  0.814100  0.715800  0.770000  1
  H  H39  1  0.073000  0.267600  0.127000  1
  H  H40  1  0.927000  0.732400  0.873000  1
  H  H41  1  0.156200  0.234600  0.151800  1
  H  H42  1  0.843800  0.765400  0.848200  1
  H  H43  1  0.145400  0.284700  0.085400  1
  H  H44  1  0.854600  0.715300  0.914600  1
  H  H45  1  0.031800  0.395800  0.111000  1
  H  H46  1  0.968200  0.604200  0.889000  1
  H  H47  1  0.109800  0.418900  0.097300  1
  H  H48  1  0.890200  0.581100  0.902700  1
  H  H49  1  0.060100  0.430000  0.161900  1
  H  H50  1  0.939900  0.570000  0.838100  1
  H  H51  1  0.754100  0.140500  0.131300  1
  H  H52  1  0.245900  0.859500  0.868700  1
  H  H53  1  0.788700  0.065000  0.164700  1
  H  H54  1  0.211300  0.935000  0.835300  1
  H  H55  1  0.717700  0.124400  0.242000  1
  H  H56  1  0.282300  0.875600  0.758000  1
  H  H57  1  0.677100  0.067800  0.232700  1
  H  H58  1  0.322900  0.932200  0.767300  1
  H  H59  1  0.589600  0.158300  0.163800  1
  H  H60  1  0.410400  0.841700  0.836200  1
  H  H61  1  0.623300  0.210100  0.192200  1
  H  H62  1  0.376700  0.789900  0.807800  1
  H  H63  1  0.589300  0.153200  0.299400  1
  H  H64  1  0.410700  0.846800  0.700600  1
  H  H65  1  0.518800  0.198500  0.260400  1
  H  H66  1  0.481200  0.801500  0.739600  1
  H  H67  1  0.565200  0.054400  0.271500  1
  H  H68  1  0.434800  0.945600  0.728500  1
  H  H69  1  0.493600  0.100300  0.233900  1
  H  H70  1  0.506400  0.899700  0.766100  1
  H  H71  1  0.405600  0.857300  0.179600  1
  H  H72  1  0.594400  0.142700  0.820400  1
  H  H73  1  0.379700  0.931200  0.198300  1
  H  H74  1  0.620300  0.068800  0.801700  1
  H  H75  1  0.426700  0.846900  0.289900  1
  H  H76  1  0.573300  0.153100  0.710100  1
  H  H77  1  0.508000  0.829600  0.252400  1
  H  H78  1  0.492000  0.170400  0.747600  1
  H  H79  1  0.522400  0.940300  0.249800  1
  H  H80  1  0.477600  0.059700  0.750200  1
  H  H81  1  0.437600  0.963100  0.280000  1
  H  H82  1  0.562400  0.036900  0.720000  1
  H  H83  1  0.546100  0.855300  0.344500  1
  H  H84  1  0.453900  0.144700  0.655500  1
  H  H85  1  0.541200  0.929800  0.353900  1
  H  H86  1  0.458800  0.070200  0.646100  1
  H  H87  1  0.100500  0.735500  0.529900  1.0
  H  H88  1  0.899500  0.264500  0.470100  1.0
  H  H89  1  0.122100  0.617300  0.544700  1.0
  H  H90  1  0.877900  0.382700  0.455300  1.0
  H  H91  1  0.261500  0.630300  0.571500  1.0
  H  H92  1  0.738500  0.369700  0.428500  1.0
  H  H93  1  0.236400  0.743800  0.525900  1.0
  H  H94  1  0.763600  0.256200  0.474100  1.0
  H  H95  1  0.960900  0.916100  0.527000  1.0
  H  H96  1  0.039100  0.083900  0.473000  1.0
  H  H97  1  0.882300  0.829200  0.551400  1.0
  H  H98  1  0.117700  0.170800  0.448600  1.0
  H  H99  1  0.957300  0.612400  0.681100  1.0
  H  H100  1  0.042700  0.387600  0.318900  1.0
  H  H101  1  0.078400  0.530600  0.721500  1.0
  H  H102  1  0.921600  0.469400  0.278500  1.0
  H  H103  1  0.307600  0.513100  0.738300  1.0
  H  H104  1  0.692400  0.486900  0.261700  1.0
  H  H105  1  0.383800  0.603100  0.723000  1.0
  H  H106  1  0.616200  0.396900  0.277000  1.0
  H  H107  1  0.315400  0.826400  0.648900  1.0
  H  H108  1  0.684600  0.173600  0.351100  1.0
  H  H109  1  0.195600  0.909200  0.603800  1.0
  H  H110  1  0.804400  0.090800  0.396200  1.0
  H  H111  1  0.146200  0.962200  0.486500  1.0
  H  H112  1  0.853800  0.037800  0.513500  1.0
  H  H113  1  0.082800  0.953000  0.542300  1.0
  H  H114  1  0.917200  0.047000  0.457700  1.0
  H  H115  1  0.062700  0.962300  0.469800  1.0
  H  H116  1  0.937300  0.037700  0.530200  1.0
  H  H117  1  0.070100  0.819600  0.408700  1.0
  H  H118  1  0.929900  0.180400  0.591300  1.0
  H  H119  1  0.115200  0.805200  0.304600  1.0
  H  H120  1  0.884800  0.194800  0.695400  1.0
  H  H121  1  0.304400  0.864600  0.332000  1.0
  H  H122  1  0.695600  0.135400  0.668000  1.0
  H  H123  1  0.257700  0.880300  0.434800  1.0
  H  H124  1  0.742300  0.119700  0.565200  1.0
  H  H125  1  0.871200  0.648400  0.574100  1.0
  H  H126  1  0.128800  0.351600  0.425900  1.0
  H  H127  1  0.849900  0.726500  0.544100  1.0
  H  H128  1  0.150100  0.273500  0.455900  1.0
  H  H129  1  0.875500  0.703600  0.615600  1.0
  H  H130  1  0.124500  0.296400  0.384400  1.0
  H  H131  1  0.997000  0.566400  0.502800  1.0
  H  H132  1  0.003000  0.433600  0.497200  1.0
  H  H133  1  0.009900  0.541100  0.399300  1.0
  H  H134  1  0.990100  0.458900  0.600700  1.0
  H  H135  1  0.971600  0.742000  0.327600  1.0
  H  H136  1  0.028400  0.258000  0.672400  1.0
  H  H137  1  0.954500  0.766500  0.431400  1.0
  H  H138  1  0.045500  0.233500  0.568600  1.0
  H  H139  1  0.271500  0.421300  0.674800  1.0
  H  H140  1  0.728500  0.578700  0.325200  1.0
  H  H141  1  0.184000  0.425200  0.667900  1.0
  H  H142  1  0.816000  0.574800  0.332100  1.0
  H  H143  1  0.208000  0.458900  0.721300  1.0
  H  H144  1  0.792000  0.541100  0.278700  1.0
  H  H145  1  0.349700  0.501700  0.558900  1.0
  H  H146  1  0.650300  0.498300  0.441100  1.0
  H  H147  1  0.383800  0.476800  0.456000  1.0
  H  H148  1  0.616200  0.523200  0.544000  1.0
  H  H149  1  0.171000  0.452500  0.441600  1.0
  H  H150  1  0.829000  0.547500  0.558400  1.0
  H  H151  1  0.136400  0.481300  0.543400  1.0
  H  H152  1  0.863600  0.518700  0.456600  1.0
  H  H153  1  0.447000  0.747400  0.612200  1.0
  H  H154  1  0.553000  0.252600  0.387800  1.0
  H  H155  1  0.469100  0.669000  0.641100  1.0
  H  H156  1  0.530900  0.331000  0.358900  1.0
  H  H157  1  0.406400  0.719700  0.677600  1.0
  H  H158  1  0.593600  0.280300  0.322400  1.0
  H  H159  1  0.381700  0.777500  0.482100  1.0
  H  H160  1  0.618300  0.222500  0.517900  1.0
  H  H161  1  0.439900  0.751800  0.384000  1.0
  H  H162  1  0.560100  0.248200  0.616000  1.0
  H  H163  1  0.495300  0.552600  0.461600  1.0
  H  H164  1  0.504700  0.447400  0.538400  1.0
  H  H165  1  0.438600  0.578600  0.559600  1.0
  H  H166  1  0.561400  0.421400  0.440400  1.0
  H  H167  1  0.151800  0.839800  0.200800  1.0
  H  H168  1  0.848200  0.160200  0.799200  1.0
  H  H169  1  0.196600  0.762300  0.215500  1.0
  H  H170  1  0.803400  0.237700  0.784500  1.0
  H  H171  1  0.249500  0.861800  0.123000  1.0
  H  H172  1  0.750500  0.138200  0.877000  1.0
  H  H173  1  0.210100  0.808000  0.104800  1.0
  H  H174  1  0.789900  0.192000  0.895200  1.0
  H  H175  1  0.314000  0.720000  0.131600  1.0
  H  H176  1  0.686000  0.280000  0.868400  1.0
  H  H177  1  0.349200  0.763500  0.169100  1.0
  H  H178  1  0.650800  0.236500  0.830900  1.0
  H  H179  1  0.375000  0.831500  0.069200  1.0
  H  H180  1  0.625000  0.168500  0.930800  1.0
  H  H181  1  0.422200  0.755100  0.074400  1.0
  H  H182  1  0.577800  0.244900  0.925600  1.0
  H  H183  1  0.365800  0.806100  0.972400  1.0
  H  H184  1  0.634200  0.193900  0.027600  1.0
  H  H185  1  0.285400  0.802600  0.007600  1.0
  H  H186  1  0.714600  0.197400  0.992400  1.0
  H  H187  1  0.008300  0.536800  0.277800  1.0
  H  H188  1  0.991700  0.463200  0.722200  1.0
  H  H189  1  0.085100  0.535900  0.308800  1.0
  H  H190  1  0.914900  0.464100  0.691200  1.0
  H  H191  1  0.109200  0.519200  0.199500  1.0
  H  H192  1  0.890800  0.480800  0.800500  1.0
  H  H193  1  0.053400  0.590900  0.177700  1.0
  H  H194  1  0.946600  0.409100  0.822300  1.0
  H  H195  1  0.194700  0.571900  0.234900  1.0
  H  H196  1  0.805300  0.428100  0.765100  1.0
  H  H197  1  0.138400  0.643800  0.215900  1.0
  H  H198  1  0.861600  0.356200  0.784100  1.0
  H  H199  1  0.162200  0.635500  0.106300  1.0
  H  H200  1  0.837800  0.364500  0.893700  1.0
  H  H201  1  0.239400  0.629700  0.138200  1.0
  H  H202  1  0.760600  0.370300  0.861800  1.0
  H  H203  1  0.263400  0.506300  0.144700  1.0
  H  H204  1  0.736600  0.493700  0.855300  1.0
  H  H205  1  0.194200  0.521100  0.099400  1.0
  H  H206  1  0.805800  0.478900  0.900600  1.0
  H  H207  1  0.207800  0.464300  0.335700  1.0
  H  H208  1  0.792200  0.535700  0.664300  1.0
  H  H209  1  0.249700  0.386300  0.354800  1.0
  H  H210  1  0.750300  0.613700  0.645200  1.0
  H  H211  1  0.261600  0.425400  0.241300  1.0
  H  H212  1  0.738400  0.574600  0.758700  1.0
  H  H213  1  0.306800  0.477200  0.254800  1.0
  H  H214  1  0.693200  0.522800  0.745200  1.0
  H  H215  1  0.361800  0.334000  0.272300  1.0
  H  H216  1  0.638200  0.666000  0.727700  1.0
  H  H217  1  0.405000  0.380400  0.298700  1.0
  H  H218  1  0.595000  0.619600  0.701300  1.0
  H  H219  1  0.420800  0.437900  0.191400  1.0
  H  H220  1  0.579200  0.562100  0.808600  1.0
  H  H221  1  0.382500  0.387000  0.166600  1.0
  H  H222  1  0.617500  0.613000  0.833400  1.0
  H  H223  1  0.519000  0.336500  0.233900  1.0
  H  H224  1  0.481000  0.663500  0.766100  1.0
  H  H225  1  0.485600  0.297600  0.190200  1.0
  H  H226  1  0.514400  0.702400  0.809800  1.0
  H  H227  1  0.547100  0.703400  0.306900  1.0
  H  H228  1  0.452900  0.296600  0.693100  1.0
  H  H229  1  0.461400  0.708400  0.291000  1.0
  H  H230  1  0.538600  0.291600  0.709000  1.0
  H  H231  1  0.585300  0.600700  0.258700  1.0
  H  H232  1  0.414700  0.399300  0.741300  1.0
  H  H233  1  0.558800  0.668000  0.208800  1.0
  H  H234  1  0.441200  0.332000  0.791200  1.0
  H  H235  1  0.454700  0.585800  0.259900  1.0
  H  H236  1  0.545300  0.414200  0.740100  1.0
  H  H237  1  0.441900  0.644800  0.199900  1.0
  H  H238  1  0.558100  0.355200  0.800100  1.0
  H  H239  1  0.470200  0.541400  0.164500  1.0
  H  H240  1  0.529800  0.458600  0.835500  1.0
  H  H241  1  0.546100  0.516300  0.202200  1.0
  H  H242  1  0.453900  0.483700  0.797800  1.0
  H  H243  1  0.526600  0.620300  0.089100  1.0
  H  H244  1  0.473400  0.379700  0.910900  1.0
  H  H245  1  0.602500  0.597600  0.127900  1.0
  H  H246  1  0.397500  0.402400  0.872100  1.0
  H  H247  1  0.257600  0.674700  0.786500  1.0
  H  H248  1  0.742400  0.325300  0.213500  1.0
  H  H249  1  0.127400  0.685600  0.684700  1.0
  H  H250  1  0.872600  0.314400  0.315300  1.0
  H  H251  1  0.200000  0.713900  0.689300  1.0
  H  H252  1  0.800000  0.286100  0.310700  1.0
  H  H253  1  0.116600  0.760200  0.698800  1.0
  H  H254  1  0.883400  0.239800  0.301200  1.0
  H  H255  1  0.048900  0.661300  0.779900  1.0
  H  H256  1  0.951100  0.338700  0.220100  1.0
  H  H257  1  0.044300  0.724000  0.814400  1.0
  H  H258  1  0.955700  0.276000  0.185600  1.0
  H  H259  1  0.084300  0.649700  0.847500  1.0
  H  H260  1  0.915700  0.350300  0.152500  1.0
  H  H261  1  0.883500  0.845800  0.978800  1.0
  H  H262  1  0.116500  0.154200  0.021200  1.0
  H  H263  1  0.747800  0.848000  0.959900  1.0
  H  H264  1  0.252200  0.152000  0.040100  1.0
  H  H265  1  0.766000  0.740600  0.017800  1.0
  H  H266  1  0.234000  0.259400  0.982200  1.0
  H  H267  1  0.895500  0.740000  0.043700  1.0
  H  H268  1  0.104500  0.260000  0.956300  1.0
  H  H269  1  0.965800  0.929000  0.813200  1.0
  H  H270  1  0.034200  0.071000  0.186800  1.0
  H  H271  1  0.074600  0.843400  0.870300  1.0
  H  H272  1  0.925400  0.156600  0.129700  1.0
  H  H273  1  0.094100  0.626600  0.989300  1.0
  H  H274  1  0.905900  0.373400  0.010700  1.0
  H  H275  1  0.004500  0.550500  0.034100  1.0
  H  H276  1  0.995500  0.449500  0.965900  1.0
  H  H277  1  0.765700  0.551200  0.010500  1.0
  H  H278  1  0.234300  0.448800  0.989500  1.0
  H  H279  1  0.662600  0.630200  0.941000  1.0
  H  H280  1  0.337400  0.369800  0.059000  1.0
  H  H281  1  0.652100  0.839600  0.803700  1.0
  H  H282  1  0.347900  0.160400  0.196300  1.0
  H  H283  1  0.734400  0.924100  0.776100  1.0
  H  H284  1  0.265600  0.075900  0.223900  1.0
  H  H285  1  0.761800  0.031100  0.818100  1.0
  H  H286  1  0.238200  0.968900  0.181900  1.0
  H  H287  1  0.830400  0.981800  0.785400  1.0
  H  H288  1  0.169600  0.018200  0.214600  1.0
  H  H289  1  0.847500  0.030100  0.829100  1.0
  H  H290  1  0.152500  0.969900  0.170900  1.0
  H  H291  1  0.887200  0.994600  0.961300  1.0
  H  H292  1  0.112800  0.005400  0.038700  1.0
  H  H293  1  0.847600  0.049000  0.050300  1.0
  H  H294  1  0.152400  0.951000  0.949700  1.0
  H  H295  1  0.629500  0.040300  0.029500  1.0
  H  H296  1  0.370500  0.959700  0.970500  1.0
  H  H297  1  0.670000  0.989300  0.939400  1.0
  H  H298  1  0.330000  0.010700  0.060600  1.0
  H  H299  1  0.148000  0.723700  0.015800  1.0
  H  H300  1  0.852000  0.276300  0.984200  1.0
  H  H301  1  0.139800  0.796100  0.972400  1.0
  H  H302  1  0.860200  0.203900  0.027600  1.0
  H  H303  1  0.130700  0.733900  0.942500  1.0
  H  H304  1  0.869300  0.266100  0.057500  1.0
  H  H305  1  0.033100  0.711500  0.122300  1.0
  H  H306  1  0.966900  0.288500  0.877700  1.0
  H  H307  1  0.017500  0.752000  0.218400  1.0
  H  H308  1  0.982500  0.248000  0.781600  1.0
  H  H309  1  0.001300  0.943400  0.122200  1.0
  H  H310  1  0.998700  0.056600  0.877800  1.0
  H  H311  1  0.014300  0.901800  0.025000  1.0
  H  H312  1  0.985700  0.098200  0.975000  1.0
  H  H313  1  0.820100  0.530000  0.126700  1.0
  H  H314  1  0.179900  0.470000  0.873300  1.0
  H  H315  1  0.906000  0.529100  0.136900  1.0
  H  H316  1  0.094000  0.470900  0.863100  1.0
  H  H317  1  0.883600  0.517500  0.070400  1.0
  H  H318  1  0.116400  0.482500  0.929600  1.0
  H  H319  1  0.704900  0.665400  0.130700  1.0
  H  H320  1  0.295100  0.334600  0.869300  1.0
  H  H321  1  0.658300  0.721000  0.217300  1.0
  H  H322  1  0.341700  0.279000  0.782700  1.0
  H  H323  1  0.873800  0.711700  0.259700  1.0
  H  H324  1  0.126200  0.288300  0.740300  1.0
  H  H325  1  0.920500  0.657100  0.171900  1.0
  H  H326  1  0.079500  0.342900  0.828100  1.0
  H  H327  1  0.545800  0.805900  0.887100  1.0
  H  H328  1  0.454200  0.194100  0.112900  1.0
  H  H329  1  0.553700  0.733300  0.929900  1.0
  H  H330  1  0.446300  0.266700  0.070100  1.0
  H  H331  1  0.606900  0.742400  0.866700  1.0
  H  H332  1  0.393100  0.257600  0.133300  1.0
  H  H333  1  0.581700  0.910800  0.952200  1.0
  H  H334  1  0.418300  0.089200  0.047800  1.0
  H  H335  1  0.520100  0.962900  0.037100  1.0
  H  H336  1  0.479900  0.037100  0.962900  1.0
  H  H337  1  0.528700  0.780100  0.147600  1.0
  H  H338  1  0.471300  0.219900  0.852400  1.0
  H  H339  1  0.595400  0.726900  0.063200  1.0
  H  H340  1  0.404600  0.273100  0.936800  1.0
  H  H341  1  0.753300  0.149000  0.116800  1.0
  H  H342  1  0.246700  0.851000  0.883200  1.0
  H  H343  1  0.807500  0.075200  0.136900  1.0
  H  H344  1  0.192500  0.924800  0.863100  1.0
  H  H345  1  0.724300  0.052600  0.226900  1.0
  H  H346  1  0.275700  0.947400  0.773100  1.0
  H  H347  1  0.748200  0.120300  0.231000  1.0
  H  H348  1  0.251800  0.879700  0.769000  1.0
  H  H349  1  0.609200  0.133400  0.174000  1.0
  H  H350  1  0.390800  0.866600  0.826000  1.0
  H  H351  1  0.630400  0.186000  0.210400  1.0
  H  H352  1  0.369600  0.814000  0.789600  1.0
  H  H353  1  0.598400  0.060700  0.274600  1.0
  H  H354  1  0.401600  0.939300  0.725400  1.0
  H  H355  1  0.616400  0.115400  0.310200  1.0
  H  H356  1  0.383600  0.884600  0.689800  1.0
  H  H357  1  0.484900  0.137300  0.239900  1.0
  H  H358  1  0.515100  0.862700  0.760100  1.0
  H  H359  1  0.503000  0.192500  0.274600  1.0
  H  H360  1  0.497000  0.807500  0.725400  1.0
  H  H361  1  0.944400  0.970200  0.215400  1.0
  H  H362  1  0.055600  0.029800  0.784600  1.0
  H  H363  1  0.027400  0.951500  0.242600  1.0
  H  H364  1  0.972600  0.048500  0.757400  1.0
  H  H365  1  0.971100  0.911100  0.346500  1.0
  H  H366  1  0.028900  0.088900  0.653500  1.0
  H  H367  1  0.944100  0.990700  0.325000  1.0
  H  H368  1  0.055900  0.009300  0.675000  1.0
  H  H369  1  0.854900  0.902500  0.304800  1.0
  H  H370  1  0.145100  0.097500  0.695200  1.0
  H  H371  1  0.827700  0.982400  0.296900  1.0
  H  H372  1  0.172300  0.017600  0.703100  1.0
  H  H373  1  0.844100  0.890500  0.415200  1.0
  H  H374  1  0.155900  0.109500  0.584800  1.0
  H  H375  1  0.834900  0.969200  0.413300  1.0
  H  H376  1  0.165100  0.030800  0.586700  1.0
  H  H377  1  0.725100  0.918500  0.364200  1.0
  H  H378  1  0.274900  0.081500  0.635800  1.0
  H  H379  1  0.715300  0.994500  0.372800  1.0
  H  H380  1  0.284700  0.005500  0.627200  1.0
  H  H381  1  0.797600  0.789400  0.342900  1.0
  H  H382  1  0.202400  0.210600  0.657100  1.0
  H  H383  1  0.809800  0.709000  0.358200  1.0
  H  H384  1  0.190200  0.291000  0.641800  1.0
  H  H385  1  0.674500  0.800500  0.400000  1.0
  H  H386  1  0.325500  0.199500  0.600000  1.0
  H  H387  1  0.742100  0.763400  0.445800  1.0
  H  H388  1  0.257900  0.236600  0.554200  1.0
  H  H389  1  0.656700  0.691600  0.390300  1.0
  H  H390  1  0.343300  0.308400  0.609700  1.0
  H  H391  1  0.720500  0.657000  0.440000  1.0
  H  H392  1  0.279500  0.343000  0.560000  1.0
  H  H393  1  0.600900  0.659900  0.492500  1.0
  H  H394  1  0.399100  0.340100  0.507500  1.0
  H  H395  1  0.574100  0.739300  0.469800  1.0
  H  H396  1  0.425900  0.260700  0.530200  1.0
  H  H397  1  0.618100  0.693300  0.582200  1.0
  H  H398  1  0.381900  0.306700  0.417800  1.0
  H  H399  1  0.700500  0.691600  0.548400  1.0
  H  H400  1  0.299500  0.308400  0.451600  1.0
  H  H401  1  0.497100  0.844300  0.228100  1.0
  H  H402  1  0.502900  0.155700  0.771900  1.0
  H  H403  1  0.415800  0.856500  0.199200  1.0
  H  H404  1  0.584200  0.143500  0.800800  1.0
  H  H405  1  0.394000  0.975100  0.221700  1.0
  H  H406  1  0.606000  0.024900  0.778300  1.0
  H  H407  1  0.383100  0.918300  0.280600  1.0
  H  H408  1  0.616900  0.081700  0.719400  1.0
  H  H409  1  0.458800  0.996000  0.298000  1.0
  H  H410  1  0.541200  0.004000  0.702000  1.0
  H  H411  1  0.524800  0.956700  0.254700  1.0
  H  H412  1  0.475200  0.043300  0.745300  1.0
  H  H413  1  0.553200  0.912700  0.361200  1.0
  H  H414  1  0.446800  0.087300  0.638800  1.0
  H  H415  1  0.532000  0.855400  0.332800  1.0
  H  H416  1  0.468000  0.144600  0.667200  1.0
  H  H417  1  0.407700  0.878100  0.388700  1.0
  H  H418  1  0.592300  0.121900  0.611300  1.0
  H  H419  1  0.472500  0.860400  0.438700  1.0
  H  H420  1  0.527500  0.139600  0.561300  1.0
  H  H421  1  0.209600  0.036900  0.375100  1.0
  H  H422  1  0.790400  0.963100  0.624900  1.0
  H  H423  1  0.071400  0.161600  0.253100  1.0
  H  H424  1  0.928600  0.838400  0.746900  1.0
  H  H425  1  0.119900  0.191500  0.293400  1.0
  H  H426  1  0.880100  0.808500  0.706600  1.0
  H  H427  1  0.038000  0.181500  0.320600  1.0
  H  H428  1  0.962000  0.818500  0.679400  1.0
  H  H429  1  0.060700  0.039800  0.293200  1.0
  H  H430  1  0.939300  0.960200  0.706800  1.0
  H  H431  1  0.030500  0.055300  0.362700  1.0
  H  H432  1  0.969500  0.944700  0.637300  1.0
  H  H433  1  0.107500  0.999900  0.353600  1.0
  H  H434  1  0.892500  0.000100  0.646400  1.0
  C  C435  1  0.259540  0.657410  0.436730  1
  C  C436  1  0.740460  0.342590  0.563270  1
  C  C437  1  0.168690  0.638090  0.369100  1
  C  C438  1  0.831310  0.361910  0.630900  1
  C  C439  1  0.306330  0.628780  0.330780  1
  C  C440  1  0.693670  0.371220  0.669220  1
  C  C441  1  0.738600  0.849080  0.091440  1
  C  C442  1  0.261400  0.150920  0.908560  1
  C  C443  1  0.822200  0.881100  0.156860  1
  C  C444  1  0.177800  0.118900  0.843140  1
  C  C445  1  0.680400  0.904150  0.182890  1
  C  C446  1  0.319600  0.095850  0.817110  1
  C  C447  1  0.156100  0.327100  0.213200  1
  C  C448  1  0.843900  0.672900  0.786800  1
  C  C449  1  0.123600  0.275000  0.128700  1
  C  C450  1  0.876400  0.725000  0.871300  1
  C  C451  1  0.076300  0.400100  0.130300  1
  C  C452  1  0.923700  0.599900  0.869700  1
  C  C453  1  0.741000  0.098100  0.152100  1
  C  C454  1  0.259000  0.901900  0.847900  1
  C  C455  1  0.689100  0.110700  0.212000  1
  C  C456  1  0.310900  0.889300  0.788000  1
  C  C457  1  0.613600  0.164600  0.200800  1
  C  C458  1  0.386400  0.835400  0.799200  1
  C  C459  1  0.560100  0.157100  0.261800  1
  C  C460  1  0.439900  0.842900  0.738200  1
  C  C461  1  0.524400  0.096100  0.270400  1
  C  C462  1  0.475600  0.903900  0.729600  1
  C  C463  1  0.473500  0.091600  0.333000  1
  C  C464  1  0.526500  0.908400  0.667000  1
  C  C465  1  0.423500  0.892800  0.193900  1
  C  C466  1  0.576500  0.107200  0.806100  1
  C  C467  1  0.461800  0.865700  0.257800  1
  C  C468  1  0.538200  0.134300  0.742200  1
  C  C469  1  0.482600  0.924900  0.279200  1
  C  C470  1  0.517400  0.075100  0.720800  1
  C  C471  1  0.127210  0.864430  0.502860  1.0
  C  C472  1  0.872790  0.135570  0.497140  1.0
  C  C473  1  0.056580  0.836470  0.523440  1.0
  C  C474  1  0.943420  0.163530  0.476560  1.0
  C  C475  1  0.980300  0.868930  0.530610  1.0
  C  C476  1  0.019700  0.131070  0.469390  1.0
  C  C477  1  0.935800  0.820150  0.544210  1.0
  C  C478  1  0.064200  0.179850  0.455790  1.0
  C  C479  1  0.985610  0.756320  0.545060  1.0
  C  C480  1  0.014390  0.243680  0.454940  1.0
  C  C481  1  0.968860  0.687230  0.548210  1.0
  C  C482  1  0.031140  0.312770  0.451790  1.0
  C  C483  1  0.019700  0.633260  0.595450  1.0
  C  C484  1  0.980300  0.366740  0.404550  1.0
  C  C485  1  0.004700  0.603470  0.657760  1.0
  C  C486  1  0.995300  0.396530  0.342240  1.0
  C  C487  1  0.072900  0.557210  0.680450  1.0
  C  C488  1  0.927100  0.442790  0.319550  1.0
  C  C489  1  0.129850  0.557900  0.631970  1.0
  C  C490  1  0.870150  0.442100  0.368030  1.0
  C  C491  1  0.213120  0.516810  0.630040  1.0
  C  C492  1  0.786880  0.483190  0.369960  1.0
  C  C493  1  0.265930  0.556490  0.648990  1.0
  C  C494  1  0.734070  0.443510  0.351010  1.0
  C  C495  1  0.307500  0.547220  0.702240  1.0
  C  C496  1  0.692500  0.452780  0.297760  1.0
  C  C497  1  0.350600  0.598060  0.693870  1.0
  C  C498  1  0.649400  0.401940  0.306130  1.0
  C  C499  1  0.334050  0.638450  0.634730  1.0
  C  C500  1  0.665950  0.361550  0.365270  1.0
  C  C501  1  0.364360  0.697880  0.598100  1.0
  C  C502  1  0.635640  0.302120  0.401900  1.0
  C  C503  1  0.299860  0.762700  0.589840  1.0
  C  C504  1  0.700140  0.237300  0.410160  1.0
  C  C505  1  0.285700  0.819360  0.618100  1.0
  C  C506  1  0.714300  0.180640  0.381900  1.0
  C  C507  1  0.217900  0.866180  0.592700  1.0
  C  C508  1  0.782100  0.133820  0.407300  1.0
  C  C509  1  0.191500  0.836440  0.549150  1.0
  C  C510  1  0.808500  0.163560  0.450850  1.0
  C  C511  1  0.102400  0.942920  0.500090  1.0
  C  C512  1  0.897600  0.057080  0.499910  1.0
  C  C513  1  0.158820  0.851440  0.434180  1.0
  C  C514  1  0.841180  0.148560  0.565820  1.0
  C  C515  1  0.117500  0.828960  0.393380  1.0
  C  C516  1  0.882500  0.171040  0.606620  1.0
  C  C517  1  0.144500  0.819980  0.330660  1.0
  C  C518  1  0.855500  0.180020  0.669340  1.0
  C  C519  1  0.214300  0.832950  0.307390  1.0
  C  C520  1  0.785700  0.167050  0.692610  1.0
  C  C521  1  0.256800  0.855600  0.347280  1.0
  C  C522  1  0.743200  0.144400  0.652720  1.0
  C  C523  1  0.228700  0.864700  0.409110  1.0
  C  C524  1  0.771300  0.135300  0.590890  1.0
  C  C525  1  0.883210  0.691890  0.572840  1.0
  C  C526  1  0.116790  0.308110  0.427160  1.0
  C  C527  1  0.978710  0.669090  0.479320  1.0
  C  C528  1  0.021290  0.330910  0.520680  1.0
  C  C529  1  0.993080  0.602020  0.467650  1.0
  C  C530  1  0.006920  0.397980  0.532350  1.0
  C  C531  1  0.001770  0.586320  0.405390  1.0
  C  C532  1  0.998230  0.413680  0.594610  1.0
  C  C533  1  0.998230  0.638860  0.352300  1.0
  C  C534  1  0.001770  0.361140  0.647700  1.0
  C  C535  1  0.978320  0.706340  0.362750  1.0
  C  C536  1  0.021680  0.293660  0.637250  1.0
  C  C537  1  0.968390  0.720920  0.425310  1.0
  C  C538  1  0.031610  0.279080  0.574690  1.0
  C  C539  1  0.219800  0.449220  0.678010  1.0
  C  C540  1  0.780200  0.550780  0.321990  1.0
  C  C541  1  0.237190  0.498190  0.561410  1.0
  C  C542  1  0.762810  0.501810  0.438590  1.0
  C  C543  1  0.312880  0.493780  0.534900  1.0
  C  C544  1  0.687120  0.506220  0.465100  1.0
  C  C545  1  0.333700  0.477820  0.473370  1.0
  C  C546  1  0.666300  0.522180  0.526630  1.0
  C  C547  1  0.280900  0.463400  0.437590  1.0
  C  C548  1  0.719100  0.536600  0.562410  1.0
  C  C549  1  0.206600  0.463780  0.464400  1.0
  C  C550  1  0.793400  0.536220  0.535600  1.0
  C  C551  1  0.186200  0.481150  0.525740  1.0
  C  C552  1  0.813800  0.518850  0.474260  1.0
  C  C553  1  0.427700  0.709590  0.635770  1.0
  C  C554  1  0.572300  0.290410  0.364230  1.0
  C  C555  1  0.401400  0.681120  0.531550  1.0
  C  C556  1  0.598600  0.318880  0.468450  1.0
  C  C557  1  0.403950  0.731980  0.478130  1.0
  C  C558  1  0.596050  0.268020  0.521870  1.0
  C  C559  1  0.438780  0.716670  0.419040  1.0
  C  C560  1  0.561220  0.283330  0.580960  1.0
  C  C561  1  0.471710  0.649530  0.412140  1.0
  C  C562  1  0.528290  0.350470  0.587860  1.0
  C  C563  1  0.471940  0.597950  0.465480  1.0
  C  C564  1  0.528060  0.402050  0.534520  1.0
  C  C565  1  0.437620  0.613580  0.524250  1.0
  C  C566  1  0.562380  0.386420  0.475750  1.0
  C  C567  1  0.202700  0.808720  0.201760  1.0
  C  C568  1  0.797300  0.191280  0.798240  1.0
  C  C569  1  0.242900  0.815350  0.135530  1.0
  C  C570  1  0.757100  0.184650  0.864470  1.0
  C  C571  1  0.321500  0.765460  0.131200  1.0
  C  C572  1  0.678500  0.234540  0.868800  1.0
  C  C573  1  0.370600  0.784890  0.070710  1.0
  C  C574  1  0.629400  0.215110  0.929290  1.0
  C  C575  1  0.340200  0.780420  0.007430  1.0
  C  C576  1  0.659800  0.219580  0.992570  1.0
  C  C577  1  0.350770  0.708640  0.993130  1.0
  C  C578  1  0.649230  0.291360  0.006870  1.0
  C  C579  1  0.048910  0.560860  0.276200  1.0
  C  C580  1  0.951090  0.439140  0.723800  1.0
  C  C581  1  0.090250  0.565130  0.209570  1.0
  C  C582  1  0.909750  0.434870  0.790430  1.0
  C  C583  1  0.157290  0.598660  0.203890  1.0
  C  C584  1  0.842710  0.401340  0.796110  1.0
  C  C585  1  0.198800  0.606410  0.136840  1.0
  C  C586  1  0.801200  0.393590  0.863160  1.0
  C  C587  1  0.234530  0.539730  0.111400  1.0
  C  C588  1  0.765470  0.460270  0.888600  1.0
  C  C589  1  0.287980  0.554370  0.052730  1.0
  C  C590  1  0.712020  0.445630  0.947270  1.0
  C  C591  1  0.257700  0.431550  0.337260  1.0
  C  C592  1  0.742300  0.568450  0.662740  1.0
  C  C593  1  0.297100  0.432160  0.270080  1.0
  C  C594  1  0.702900  0.567840  0.729920  1.0
  C  C595  1  0.372200  0.379190  0.265100  1.0
  C  C596  1  0.627800  0.620810  0.734900  1.0
  C  C597  1  0.414200  0.391320  0.199710  1.0
  C  C598  1  0.585800  0.608680  0.800290  1.0
  C  C599  1  0.492930  0.342070  0.194220  1.0
  C  C600  1  0.507070  0.657930  0.805780  1.0
  C  C601  1  0.544300  0.364900  0.137610  1.0
  C  C602  1  0.455700  0.635100  0.862390  1.0
  C  C603  1  0.511200  0.677140  0.300250  1.0
  C  C604  1  0.488800  0.322860  0.699750  1.0
  C  C605  1  0.541200  0.637650  0.244950  1.0
  C  C606  1  0.458800  0.362350  0.755050  1.0
  C  C607  1  0.480530  0.607630  0.222190  1.0
  C  C608  1  0.519470  0.392370  0.777810  1.0
  C  C609  1  0.512700  0.556170  0.177900  1.0
  C  C610  1  0.487300  0.443830  0.822100  1.0
  C  C611  1  0.559470  0.582350  0.116150  1.0
  C  C612  1  0.440530  0.417650  0.883850  1.0
  C  C613  1  0.588060  0.522780  0.081190  1.0
  C  C614  1  0.411940  0.477220  0.918810  1.0
  C  C615  1  0.211300  0.669500  0.808770  1.0
  C  C616  1  0.788700  0.330500  0.191230  1.0
  C  C617  1  0.148100  0.714100  0.706170  1.0
  C  C618  1  0.851900  0.285900  0.293830  1.0
  C  C619  1  0.075400  0.680100  0.806900  1.0
  C  C620  1  0.924600  0.319900  0.193100  1.0
  C  C621  1  0.813000  0.945930  0.883440  1.0
  C  C622  1  0.187000  0.054070  0.116560  1.0
  C  C623  1  0.895020  0.902870  0.892140  1.0
  C  C624  1  0.104980  0.097130  0.107860  1.0
  C  C625  1  0.961700  0.902140  0.853710  1.0
  C  C626  1  0.038300  0.097860  0.146290  1.0
  C  C627  1  0.023200  0.853830  0.885880  1.0
  C  C628  1  0.976800  0.146170  0.114120  1.0
  C  C629  1  0.993840  0.824980  0.944060  1.0
  C  C630  1  0.006160  0.175020  0.055940  1.0
  C  C631  1  0.033130  0.772860  0.998910  1.0
  C  C632  1  0.966870  0.227140  0.001090  1.0
  C  C633  1  0.005130  0.707110  0.010430  1.0
  C  C634  1  0.994870  0.292890  0.989570  1.0
  C  C635  1  0.043600  0.640840  0.005990  1.0
  C  C636  1  0.956400  0.359160  0.994010  1.0
  C  C637  1  0.993000  0.597900  0.031270  1.0
  C  C638  1  0.007000  0.402100  0.968730  1.0
  C  C639  1  0.924400  0.638140  0.050740  1.0
  C  C640  1  0.075600  0.361860  0.949260  1.0
  C  C641  1  0.849630  0.619790  0.081270  1.0
  C  C642  1  0.150370  0.380210  0.918730  1.0
  C  C643  1  0.788700  0.638150  0.031720  1.0
  C  C644  1  0.211300  0.361850  0.968280  1.0
  C  C645  1  0.753600  0.598890  0.004400  1.0
  C  C646  1  0.246400  0.401110  0.995600  1.0
  C  C647  1  0.695300  0.643640  0.964960  1.0
  C  C648  1  0.304700  0.356360  0.035040  1.0
  C  C649  1  0.695500  0.710010  0.968160  1.0
  C  C650  1  0.304500  0.289990  0.031840  1.0
  C  C651  1  0.642100  0.777670  0.942080  1.0
  C  C652  1  0.357900  0.222330  0.057920  1.0
  C  C653  1  0.685200  0.825780  0.897400  1.0
  C  C654  1  0.314800  0.174220  0.102600  1.0
  C  C655  1  0.680700  0.851520  0.832440  1.0
  C  C656  1  0.319300  0.148480  0.167560  1.0
  C  C657  1  0.727100  0.899170  0.816960  1.0
  C  C658  1  0.272900  0.100830  0.183040  1.0
  C  C659  1  0.759770  0.902870  0.872000  1.0
  C  C660  1  0.240230  0.097130  0.128000  1.0
  C  C661  1  0.813200  0.002590  0.823290  1.0
  C  C662  1  0.186800  0.997410  0.176710  1.0
  C  C663  1  0.784700  0.981660  0.943010  1.0
  C  C664  1  0.215300  0.018340  0.056990  1.0
  C  C665  1  0.835300  0.002630  0.975720  1.0
  C  C666  1  0.164700  0.997370  0.024280  1.0
  C  C667  1  0.812100  0.035330  0.029480  1.0
  C  C668  1  0.187900  0.964670  0.970520  1.0
  C  C669  1  0.734600  0.047140  0.051390  1.0
  C  C670  1  0.265400  0.952860  0.948610  1.0
  C  C671  1  0.681700  0.030260  0.016420  1.0
  C  C672  1  0.318300  0.969740  0.983580  1.0
  C  C673  1  0.706200  0.998980  0.962780  1.0
  C  C674  1  0.293800  0.001020  0.037220  1.0
  C  C675  1  0.121310  0.754920  0.980680  1.0
  C  C676  1  0.878690  0.245080  0.019320  1.0
  C  C677  1  0.022080  0.802440  0.062480  1.0
  C  C678  1  0.977920  0.197560  0.937520  1.0
  C  C679  1  0.024780  0.758400  0.121750  1.0
  C  C680  1  0.975220  0.241600  0.878250  1.0
  C  C681  1  0.015420  0.782550  0.179530  1.0
  C  C682  1  0.984580  0.217450  0.820470  1.0
  C  C683  1  0.002870  0.852250  0.180210  1.0
  C  C684  1  0.997130  0.147750  0.819790  1.0
  C  C685  1  0.005330  0.897090  0.122340  1.0
  C  C686  1  0.994670  0.102910  0.877660  1.0
  C  C687  1  0.014000  0.871600  0.063930  1.0
  C  C688  1  0.986000  0.128400  0.936070  1.0
  C  C689  1  0.866400  0.541690  0.106170  1.0
  C  C690  1  0.133600  0.458310  0.893830  1.0
  C  C691  1  0.818960  0.656850  0.139450  1.0
  C  C692  1  0.181040  0.343150  0.860550  1.0
  C  C693  1  0.739400  0.675320  0.155590  1.0
  C  C694  1  0.260600  0.324680  0.844410  1.0
  C  C695  1  0.711400  0.708160  0.208130  1.0
  C  C696  1  0.288600  0.291840  0.791870  1.0
  C  C697  1  0.760920  0.722040  0.246980  1.0
  C  C698  1  0.239080  0.277960  0.753020  1.0
  C  C699  1  0.839660  0.702930  0.233580  1.0
  C  C700  1  0.160340  0.297070  0.766420  1.0
  C  C701  1  0.867320  0.670330  0.180320  1.0
  C  C702  1  0.132680  0.329670  0.819680  1.0
  C  C703  1  0.581400  0.763500  0.902720  1.0
  C  C704  1  0.418600  0.236500  0.097280  1.0
  C  C705  1  0.598700  0.812870  0.998690  1.0
  C  C706  1  0.401300  0.187130  0.001310  1.0
  C  C707  1  0.573000  0.883950  0.991760  1.0
  C  C708  1  0.427000  0.116050  0.008240  1.0
  C  C709  1  0.534900  0.915300  0.042470  1.0
  C  C710  1  0.465100  0.084700  0.957530  1.0
  C  C711  1  0.518400  0.876900  0.101140  1.0
  C  C712  1  0.481600  0.123100  0.898860  1.0
  C  C713  1  0.540400  0.806500  0.108680  1.0
  C  C714  1  0.459600  0.193500  0.891320  1.0
  C  C715  1  0.580600  0.774530  0.057610  1.0
  C  C716  1  0.419400  0.225470  0.942390  1.0
  C  C717  1  0.754500  0.102300  0.137600  1.0
  C  C718  1  0.245500  0.897700  0.862400  1.0
  C  C719  1  0.719100  0.100200  0.206700  1.0
  C  C720  1  0.280900  0.899800  0.793300  1.0
  C  C721  1  0.634300  0.137700  0.211300  1.0
  C  C722  1  0.365700  0.862300  0.788700  1.0
  C  C723  1  0.592400  0.109500  0.272900  1.0
  C  C724  1  0.407600  0.890500  0.727100  1.0
  C  C725  1  0.508500  0.143600  0.277200  1.0
  C  C726  1  0.491500  0.856400  0.722800  1.0
  C  C727  1  0.464400  0.117900  0.338100  1.0
  C  C728  1  0.535600  0.882100  0.661900  1.0
  C  C729  1  0.977600  0.939800  0.247800  1.0
  C  C730  1  0.022400  0.060200  0.752200  1.0
  C  C731  1  0.941400  0.946800  0.315270  1.0
  C  C732  1  0.058600  0.053200  0.684730  1.0
  C  C733  1  0.858400  0.941950  0.322660  1.0
  C  C734  1  0.141600  0.058050  0.677340  1.0
  C  C735  1  0.822400  0.935770  0.391560  1.0
  C  C736  1  0.177600  0.064230  0.608440  1.0
  C  C737  1  0.736300  0.947220  0.392080  1.0
  C  C738  1  0.263700  0.052780  0.607920  1.0
  C  C739  1  0.693300  0.933440  0.457000  1.0
  C  C740  1  0.306700  0.066560  0.543000  1.0
  C  C741  1  0.771300  0.752290  0.351150  1.0
  C  C742  1  0.228700  0.247710  0.648850  1.0
  C  C743  1  0.715200  0.759090  0.409500  1.0
  C  C744  1  0.284800  0.240910  0.590500  1.0
  C  C745  1  0.679500  0.697620  0.428150  1.0
  C  C746  1  0.320500  0.302380  0.571850  1.0
  C  C747  1  0.618200  0.702200  0.483380  1.0
  C  C748  1  0.381800  0.297800  0.516620  1.0
  C  C749  1  0.646000  0.714300  0.545420  1.0
  C  C750  1  0.354000  0.285700  0.454580  1.0
  C  C751  1  0.635500  0.788890  0.549520  1.0
  C  C752  1  0.364500  0.211110  0.450480  1.0
  C  C753  1  0.455000  0.878700  0.207200  1.0
  C  C754  1  0.545000  0.121300  0.792800  1.0
  C  C755  1  0.420900  0.933900  0.249100  1.0
  C  C756  1  0.579100  0.066100  0.750900  1.0
  C  C757  1  0.481100  0.951800  0.284800  1.0
  C  C758  1  0.518900  0.048200  0.715200  1.0
  C  C759  1  0.511500  0.899600  0.345510  1.0
  C  C760  1  0.488500  0.100400  0.654490  1.0
  C  C761  1  0.449400  0.893660  0.402480  1.0
  C  C762  1  0.550600  0.106340  0.597520  1.0
  C  C763  1  0.417940  0.962380  0.423320  1.0
  C  C764  1  0.582060  0.037620  0.576680  1.0
  C  C765  1  0.189200  0.081300  0.354230  1.0
  C  C766  1  0.810800  0.918700  0.645770  1.0
  C  C767  1  0.084200  0.163000  0.296000  1.0
  C  C768  1  0.915800  0.837000  0.704000  1.0
  C  C769  1  0.075800  0.043200  0.334800  1.0
  C  C770  1  0.924200  0.956800  0.665200  1.0
  N  N771  1  0.245310  0.643200  0.381040  1
  N  N772  1  0.754690  0.356800  0.618960  1
  N  N773  1  0.747530  0.877080  0.140950  1
  N  N774  1  0.252470  0.122920  0.859050  1
  N  N775  1  0.117840  0.332680  0.161780  1
  N  N776  1  0.882160  0.667320  0.838220  1
  N  N777  1  0.058920  0.767350  0.532190  1.0
  N  N778  1  0.941080  0.232650  0.467810  1.0
  N  N779  1  0.097590  0.605940  0.580640  1.0
  N  N780  1  0.902410  0.394060  0.419360  1.0
  N  N781  1  0.281520  0.613090  0.608240  1.0
  N  N782  1  0.718480  0.386910  0.391760  1.0
  N  N783  1  0.241260  0.773060  0.548770  1.0
  N  N784  1  0.758740  0.226940  0.451230  1.0
  N  N785  1  0.148340  0.688100  0.775060  1.0
  N  N786  1  0.851660  0.311900  0.224940  1.0
  N  N787  1  0.915250  0.855330  0.947020  1.0
  N  N788  1  0.084750  0.144670  0.052980  1.0
  N  N789  1  0.734450  0.856500  0.920480  1.0
  N  N790  1  0.265550  0.143500  0.079520  1.0
  N  N791  1  0.753430  0.705740  0.008420  1.0
  N  N792  1  0.246570  0.294260  0.991580  1.0
  N  N793  1  0.931590  0.704810  0.036880  1.0
  N  N794  1  0.068410  0.295190  0.963120  1.0
  N  N795  1  0.118890  0.095030  0.327160  1.0
  N  N796  1  0.881110  0.904970  0.672840  1.0
  O  O797  1  0.210840  0.668340  0.482690  1
  O  O798  1  0.789160  0.331660  0.517310  1
  O  O799  1  0.792160  0.824760  0.052800  1
  O  O800  1  0.207840  0.175240  0.947200  1
  O  O801  1  0.154450  0.377460  0.241220  1
  O  O802  1  0.845550  0.622540  0.758780  1
  O  O803  1  0.400900  0.108700  0.328400  1
  O  O804  1  0.599100  0.891300  0.671600  1
  O  O805  1  0.506800  0.070900  0.385900  1
  O  O806  1  0.493200  0.929100  0.614100  1
  O  O807  1  0.248160  0.824960  0.246350  1.0
  O  O808  1  0.751840  0.175040  0.753650  1.0
  O  O809  1  0.015960  0.629720  0.288900  1.0
  O  O810  1  0.984040  0.370280  0.711100  1.0
  O  O811  1  0.307530  0.449740  0.376880  1.0
  O  O812  1  0.692470  0.550260  0.623120  1.0
  O  O813  1  0.504110  0.627310  0.355970  1.0
  O  O814  1  0.495890  0.372690  0.644030  1.0
  O  O815  1  0.307150  0.700650  0.953280  1.0
  O  O816  1  0.692850  0.299350  0.046720  1.0
  O  O817  1  0.404380  0.661980  0.020710  1.0
  O  O818  1  0.595620  0.338020  0.979290  1.0
  O  O819  1  0.255700  0.581760  0.999930  1.0
  O  O820  1  0.744300  0.418240  0.000070  1.0
  O  O821  1  0.359260  0.541770  0.061260  1.0
  O  O822  1  0.640740  0.458230  0.938740  1.0
  O  O823  1  0.513260  0.388490  0.083910  1.0
  O  O824  1  0.486740  0.611510  0.916090  1.0
  O  O825  1  0.613810  0.359620  0.148050  1.0
  O  O826  1  0.386190  0.640380  0.851950  1.0
  O  O827  1  0.544980  0.514930  0.039760  1.0
  O  O828  1  0.455020  0.485070  0.960240  1.0
  O  O829  1  0.650730  0.481620  0.097380  1.0
  O  O830  1  0.349270  0.518380  0.902620  1.0
  O  O831  1  0.213740  0.646170  0.866520  1.0
  O  O832  1  0.786260  0.353830  0.133480  1.0
  O  O833  1  0.704710  0.072640  0.106450  1.0
  O  O834  1  0.295290  0.927360  0.893550  1.0
  O  O835  1  0.986860  0.870290  0.240700  1.0
  O  O836  1  0.013140  0.129710  0.759300  1.0
  O  O837  1  0.726120  0.755220  0.297380  1.0
  O  O838  1  0.273880  0.244780  0.702620  1.0
  O  O839  1  0.482340  0.914570  0.147880  1.0
  O  O840  1  0.517660  0.085430  0.852120  1.0
  O  O841  1  0.624440  0.931020  0.453840  1.0
  O  O842  1  0.375560  0.068980  0.546160  1.0
  O  O843  1  0.728390  0.926870  0.508280  1.0
  O  O844  1  0.271610  0.073130  0.491720  1.0
  O  O845  1  0.688620  0.807310  0.571240  1.0
  O  O846  1  0.311380  0.192690  0.428760  1.0
  O  O847  1  0.571100  0.828240  0.532080  1.0
  O  O848  1  0.428900  0.171760  0.467920  1.0
  O  O849  1  0.454270  0.976910  0.465650  1.0
  O  O850  1  0.545730  0.023090  0.534350  1.0
  O  O851  1  0.360650  0.002460  0.396100  1.0
  O  O852  1  0.639350  0.997540  0.603900  1.0
  O  O853  1  0.225240  0.123310  0.352270  1.0
  O  O854  1  0.774760  0.876690  0.647730  1.0
  O  O855  1  0.391400  0.130300  0.335400  1.0
  O  O856  1  0.608600  0.869700  0.664600  1.0
  O  O857  1  0.502300  0.089300  0.387900  1.0
  O  O858  1  0.497700  0.910700  0.612100  1.0
