
#######################################################################
#
#                 Cambridge Crystallographic Data Centre
#                                CCDC 
#
#######################################################################
#
# If this CIF has been generated from an entry in the Cambridge 
# Structural Database, then it will include bibliographic, chemical, 
# crystal, experimental, refinement or atomic coordinate data resulting 
# from the CCDC's data processing and validation procedures.
#
#######################################################################

data_ZARJOT
_chemical_formula_moiety         
'C62 H48 Ag2 N12 O2 2+,2(Cl1 O4 1-),C1 H3 N1 O2'
_chemical_name_systematic        
'bis(\m~2~-bis(4-((3-(pyridin-2-yl)-1H-pyrazol-1-yl)methyl)phenyl)methanone)-di-silver diperchlorate nitromethane solvate'
_symmetry_cell_setting           hexagonal
_symmetry_space_group_name_H-M   'P 63 2 2'
_symmetry_Int_Tables_number      182
_space_group_name_Hall           "P 6c 2'c"
loop_
_symmetry_equiv_pos_site_id
_symmetry_equiv_pos_as_xyz
1 x,y,z
2 x-y,x,1/2+z
3 -y,x-y,z
4 -x,-y,1/2+z
5 -x+y,-x,z
6 y,-x+y,1/2+z
7 -y,-x,1/2-z
8 x-y,-y,-z
9 x,x-y,1/2-z
10 y,x,-z
11 -x+y,y,1/2-z
12 -x,-x+y,-z
_cell_length_a                   21.5080(7)
_cell_length_b                   21.5080(7)
_cell_length_c                   25.7514(13)
_cell_angle_alpha                90
_cell_angle_beta                 90
_cell_angle_gamma                120
_cell_volume                     10316.5
_exptl_crystal_colour            colorless
_exptl_crystal_description       block
_cell_formula_units_Z            6
loop_
_atom_site_label
_atom_site_type_symbol
_atom_site_fract_x
_atom_site_fract_y
_atom_site_fract_z
Ag1 Ag 0.72801(6) 1.04443(9) 0.45159(5)
N1 N 0.6324(6) 0.9521(4) 0.4154(3)
C1 C 0.6439(6) 0.9194(5) 0.3728(3)
C2 C 0.5859(7) 0.8634(5) 0.3474(3)
H1 H 0.5934 0.8414 0.3190
C3 C 0.5164(8) 0.8402(5) 0.3646(4)
H2 H 0.4775 0.8027 0.3477
C4 C 0.5049(7) 0.8729(5) 0.4072(4)
H3 H 0.4585 0.8574 0.4187
C5 C 0.5630(6) 0.9289(5) 0.4326(3)
H4 H 0.5554 0.9509 0.4611
N2 N 0.8347(6) 1.0157(4) 0.3594(3)
N3 N 0.7688(5) 1.0054(4) 0.3796(3)
C6 C 0.7125(6) 0.9409(4) 0.3582(3)
C7 C 0.7435(6) 0.9113(4) 0.3249(4)
H5 H 0.7187 0.8690 0.3059
C8 C 0.8191(6) 0.9576(5) 0.3256(3)
H6 H 0.8525 0.9509 0.3071
C9 C 0.8999(9) 1.0750(7) 0.3729(5)
H7 H 0.9382 1.0666 0.3620
H8 H 0.9022 1.0796 0.4104
N4 N 0.8242(5) 1.1162(6) 0.5062(3)
C10 C 0.8321(6) 1.1836(5) 0.5150(4)
C11 C 0.8902(9) 1.2345(7) 0.5436(5)
H9 H 0.8955 1.2795 0.5495
C12 C 0.9403(9) 1.2179(6) 0.5634(5)
H10 H 0.9792 1.2520 0.5825
C13 C 0.9325(7) 1.1507(5) 0.5546(5)
H11 H 0.9660 1.1396 0.5678
C14 C 0.8744(6) 1.0998(5) 0.5260(4)
H12 H 0.8691 1.0547 0.5200
N5 N 0.6838(8) 1.1773(6) 0.4504(4)
N6 N 0.7260(4) 1.1474(7) 0.4674(4)
C15 C 0.7878(8) 1.2023(6) 0.4927(4)
C16 C 0.7838(9) 1.2662(7) 0.4913(5)
H13 H 0.8174 1.3104 0.5051
C17 C 0.7196(9) 1.2508(8) 0.4651(5)
H14 H 0.7037 1.2832 0.4588
C18 C 0.6225(13) 1.1400(9) 0.4218(7)
H15 H 0.6022 1.1705 0.4148
H16 H 0.5876 1.0990 0.4417
C19 C 0.9326(4) 1.2718(3) 0.30344(18)
C20 C 0.9511(4) 1.2274(3) 0.2765(2)
H17 H 0.9700 1.2397 0.2431
C21 C 0.9413(4) 1.1645(3) 0.2993(2)
H18 H 0.9536 1.1348 0.2813
C22 C 0.9130(4) 1.1461(3) 0.3492(2)
C23 C 0.8947(5) 1.1906(4) 0.3761(2)
H19 H 0.8758 1.1783 0.4095
C24 C 0.9044(5) 1.2534(4) 0.35328(17)
H20 H 0.8920 1.2831 0.3713
C25 C 0.6536(4) 1.0730(3) 0.2730(2)
C26 C 0.7122(4) 1.1277(3) 0.29884(19)
H21 H 0.7571 1.1504 0.2831
C27 C 0.7035(6) 1.1483(4) 0.3482(2)
H22 H 0.7427 1.1849 0.3655
C28 C 0.6364(6) 1.1144(5) 0.3717(2)
C29 C 0.5778(5) 1.0597(4) 0.3458(3)
H23 H 0.5329 1.0370 0.3616
C30 C 0.5864(4) 1.0390(3) 0.2965(3)
H24 H 0.5472 1.0024 0.2792
C31 C 0.9482(11) 1.3454(8) 0.2811(6)
O1 O 0.9695(8) 1.3964(6) 0.3096(5)
Ag1F Ag 0.95557(9) 1.27199(6) 0.04841(5)
N1F N 1.0479(4) 1.3676(6) 0.0846(3)
C1F C 1.0806(5) 1.3561(6) 0.1272(3)
C2F C 1.1366(5) 1.4141(7) 0.1526(3)
H1F H 1.1586 1.4066 0.1810
C3F C 1.1598(5) 1.4836(8) 0.1354(4)
H2F H 1.1973 1.5225 0.1523
C4F C 1.1271(5) 1.4951(7) 0.0928(4)
H3F H 1.1426 1.5415 0.0813
C5F C 1.0711(5) 1.4370(6) 0.0674(3)
H4F H 1.0491 1.4446 0.0389
N2F N 0.9843(4) 1.1653(6) 0.1406(3)
N3F N 0.9946(4) 1.2312(5) 0.1204(3)
C6F C 1.0591(4) 1.2875(6) 0.1418(3)
C7F C 1.0887(4) 1.2565(6) 0.1751(4)
H5F H 1.1310 1.2813 0.1941
C8F C 1.0424(5) 1.1809(6) 0.1744(3)
H6F H 1.0491 1.1475 0.1929
C9F C 0.9250(7) 1.1001(9) 0.1271(5)
H7F H 0.9334 1.0618 0.1380
H8F H 0.9204 1.0978 0.0896
N4F N 0.8838(6) 1.1758(5) -0.0062(3)
C10F C 0.8164(5) 1.1679(6) -0.0150(4)
C11F C 0.7655(7) 1.1098(9) -0.0436(5)
H9F H 0.7205 1.1045 -0.0495
C12F C 0.7821(6) 1.0597(9) -0.0634(5)
H10F H 0.7480 1.0208 -0.0825
C13F C 0.8493(5) 1.0675(7) -0.0546(5)
H11F H 0.8604 1.0340 -0.0678
C14F C 0.9002(5) 1.1256(6) -0.0260(4)
H12F H 0.9453 1.1309 -0.0200
N5F N 0.8227(6) 1.3162(8) 0.0496(4)
N6F N 0.8526(7) 1.2740(4) 0.0326(4)
C15F C 0.7977(6) 1.2122(8) 0.0073(4)
C16F C 0.7338(7) 1.2162(9) 0.0087(5)
H13F H 0.6896 1.1826 -0.0051
C17F C 0.7492(8) 1.2804(9) 0.0349(5)
H14F H 0.7168 1.2963 0.0412
C18F C 0.8600(9) 1.3775(13) 0.0782(7)
H15F H 0.8295 1.3978 0.0852
H16F H 0.9010 1.4124 0.0583
C19F C 0.7282(3) 1.0674(4) 0.19656(18)
C20F C 0.7726(3) 1.0489(4) 0.2235(2)
H17F H 0.7603 1.0300 0.2569
C21F C 0.8355(3) 1.0587(4) 0.2007(2)
H18F H 0.8652 1.0464 0.2187
C22F C 0.8539(3) 1.0870(4) 0.1508(2)
C23F C 0.8094(4) 1.1053(5) 0.1239(2)
H19F H 0.8217 1.1242 0.0905
C24F C 0.7466(4) 1.0956(5) 0.14672(17)
H20F H 0.7169 1.1080 0.1287
C25F C 0.9270(3) 1.3464(4) 0.2270(2)
C26F C 0.8723(3) 1.2878(4) 0.20116(19)
H21F H 0.8496 1.2429 0.2169
C27F C 0.8517(4) 1.2965(6) 0.1518(2)
H22F H 0.8151 1.2573 0.1345
C28F C 0.8856(5) 1.3636(6) 0.1283(2)
C29F C 0.9403(4) 1.4222(5) 0.1542(3)
H23F H 0.9630 1.4671 0.1384
C30F C 0.9610(3) 1.4136(4) 0.2035(3)
H24F H 0.9976 1.4528 0.2208
C31F C 0.6546(8) 1.0518(11) 0.2189(6)
O1F O 0.6036(6) 1.0305(8) 0.1904(5)
Cl2 Cl 0.56612(19) 1.0000 1.0000
O4 O 0.5698(9) 1.0654(5) 0.9827(7)
O5 O 0.6152(10) 1.0181(7) 1.0428(5)
O4G O 0.5044(10) 0.9346(5) 1.0173(7)
O5G O 0.5971(12) 0.9819(7) 0.9572(5)
Cl3 Cl 0.6667 0.3333 0.5872(3)
O6 O 0.7323(9) 0.3392(8) 0.6063(3)
O7 O 0.6667 0.3333 0.5312(3)
O6B O 0.6608(8) 0.3931(12) 0.6063(3)
O6D O 0.6069(12) 0.2677(9) 0.6063(3)
C32 C 0.7287(14) 0.6097(13) 0.7082(11)
H25 H 0.7069 0.6330 0.7263
H26 H 0.7561 0.6390 0.6794
H27 H 0.7599 0.6032 0.7314
N7 N 0.6726(11) 0.5395(11) 0.6890(8)
O10 O 0.6353(14) 0.4940(12) 0.7206(8)
O11 O 0.6629(15) 0.5331(14) 0.6415(7)
loop_
_geom_bond_atom_site_label_1
_geom_bond_atom_site_label_2
_geom_bond_site_symmetry_1
_geom_bond_site_symmetry_2
Ag1 N1 1_555 1_555
N1 C1 1_555 1_555
C1 C2 1_555 1_555
C2 H1 1_555 1_555
C3 C2 1_555 1_555
H2 C3 1_555 1_555
C4 C3 1_555 1_555
H3 C4 1_555 1_555
C5 N1 1_555 1_555
H4 C5 1_555 1_555
N2 N3 1_555 1_555
N3 C6 1_555 1_555
C6 C1 1_555 1_555
C7 C6 1_555 1_555
H5 C7 1_555 1_555
C8 N2 1_555 1_555
H6 C8 1_555 1_555
C9 N2 1_555 1_555
H7 C9 1_555 1_555
H8 C9 1_555 1_555
N4 C10 1_555 1_555
C10 C11 1_555 1_555
C11 H9 1_555 1_555
C12 C11 1_555 1_555
H10 C12 1_555 1_555
C13 C12 1_555 1_555
H11 C13 1_555 1_555
C14 N4 1_555 1_555
H12 C14 1_555 1_555
N5 N6 1_555 1_555
N6 Ag1 1_555 1_555
C15 C10 1_555 1_555
C16 C15 1_555 1_555
H13 C16 1_555 1_555
C17 N5 1_555 1_555
H14 C17 1_555 1_555
C18 N5 1_555 1_555
H15 C18 1_555 1_555
H16 C18 1_555 1_555
C19 C20 1_555 1_555
C20 H17 1_555 1_555
C21 C20 1_555 1_555
H18 C21 1_555 1_555
C22 C9 1_555 1_555
C23 C22 1_555 1_555
H19 C23 1_555 1_555
C24 C19 1_555 1_555
H20 C24 1_555 1_555
C25 C26 1_555 1_555
C26 H21 1_555 1_555
C27 C26 1_555 1_555
H22 C27 1_555 1_555
C28 C18 1_555 1_555
C29 C28 1_555 1_555
H23 C29 1_555 1_555
C30 C25 1_555 1_555
H24 C30 1_555 1_555
C31 C19 1_555 1_555
O1 C31 1_555 1_555
Cl2 O4 1_555 1_555
O5 Cl2 1_555 1_555
Cl3 O6 1_555 1_555
O7 Cl3 1_555 1_555
C32 H25 1_555 1_555
H26 C32 1_555 1_555
H27 C32 1_555 1_555
N7 C32 1_555 1_555
O10 N7 1_555 1_555
O11 N7 1_555 1_555
Ag1F N1F 1_555 1_555
N1F C1F 1_555 1_555
C1F C2F 1_555 1_555
C2F H1F 1_555 1_555
C3F C2F 1_555 1_555
H2F C3F 1_555 1_555
C4F C3F 1_555 1_555
H3F C4F 1_555 1_555
C5F N1F 1_555 1_555
H4F C5F 1_555 1_555
N2F N3F 1_555 1_555
N3F C6F 1_555 1_555
C6F C1F 1_555 1_555
C7F C6F 1_555 1_555
H5F C7F 1_555 1_555
C8F N2F 1_555 1_555
H6F C8F 1_555 1_555
C9F N2F 1_555 1_555
H7F C9F 1_555 1_555
H8F C9F 1_555 1_555
N4F C10F 1_555 1_555
C10F C11F 1_555 1_555
C11F H9F 1_555 1_555
C12F C11F 1_555 1_555
H10F C12F 1_555 1_555
C13F C12F 1_555 1_555
H11F C13F 1_555 1_555
C14F N4F 1_555 1_555
H12F C14F 1_555 1_555
N5F N6F 1_555 1_555
N6F Ag1F 1_555 1_555
C15F C10F 1_555 1_555
C16F C15F 1_555 1_555
H13F C16F 1_555 1_555
C17F N5F 1_555 1_555
H14F C17F 1_555 1_555
C18F N5F 1_555 1_555
H15F C18F 1_555 1_555
H16F C18F 1_555 1_555
C19F C20F 1_555 1_555
C20F H17F 1_555 1_555
C21F C20F 1_555 1_555
H18F C21F 1_555 1_555
C22F C9F 1_555 1_555
C23F C22F 1_555 1_555
H19F C23F 1_555 1_555
C24F C19F 1_555 1_555
H20F C24F 1_555 1_555
C25F C31 1_555 1_555
C26F C25F 1_555 1_555
H21F C26F 1_555 1_555
C27F C26F 1_555 1_555
H22F C27F 1_555 1_555
C28F C18F 1_555 1_555
C29F C28F 1_555 1_555
H23F C29F 1_555 1_555
C30F C25F 1_555 1_555
H24F C30F 1_555 1_555
C31F C25 1_555 1_555
O1F C31F 1_555 1_555
O4G Cl2 1_555 1_555
O5G Cl2 1_555 1_555
O6B Cl3 1_555 1_555
O6D Cl3 1_555 1_555
C4 C5 1_555 1_555
C7 C8 1_555 1_555
C13 C14 1_555 1_555
N6 C15 1_555 1_555
C16 C17 1_555 1_555
C21 C22 1_555 1_555
C23 C24 1_555 1_555
C27 C28 1_555 1_555
C29 C30 1_555 1_555
C4F C5F 1_555 1_555
C7F C8F 1_555 1_555
C13F C14F 1_555 1_555
N6F C15F 1_555 1_555
C16F C17F 1_555 1_555
C19F C31F 1_555 1_555
C21F C22F 1_555 1_555
C23F C24F 1_555 1_555
C27F C28F 1_555 1_555
C29F C30F 1_555 1_555

#END
