# generated using pymatgen
data_Ag6H162C192N42Cl7O54
_symmetry_space_group_name_H-M   'P 1'
_cell_length_a   21.50800000
_cell_length_b   21.50800000
_cell_length_c   25.75140000
_cell_angle_alpha   90.00000000
_cell_angle_beta   90.00000000
_cell_angle_gamma   120.00000000
_symmetry_Int_Tables_number   1
_chemical_formula_structural   Ag6H162C192N42Cl7O54
_chemical_formula_sum   'Ag12 H324 C384 N84 Cl14 O108'
_cell_volume   10316.47980039
_cell_formula_units_Z   2
loop_
 _symmetry_equiv_pos_site_id
 _symmetry_equiv_pos_as_xyz
  1  'x, y, z'
loop_
 _atom_site_type_symbol
 _atom_site_label
 _atom_site_symmetry_multiplicity
 _atom_site_fract_x
 _atom_site_fract_y
 _atom_site_fract_z
 _atom_site_occupancy
  Ag  Ag1  1  0.271990  0.316420  0.548410  1.0
  Ag  Ag2  1  0.316420  0.044430  0.048410  1.0
  Ag  Ag3  1  0.044430  0.728010  0.548410  1.0
  Ag  Ag4  1  0.728010  0.683580  0.048410  1.0
  Ag  Ag5  1  0.683580  0.955570  0.548410  1.0
  Ag  Ag6  1  0.955570  0.271990  0.048410  1.0
  Ag  Ag7  1  0.044430  0.316420  0.951590  1.0
  Ag  Ag8  1  0.316420  0.271990  0.451590  1.0
  Ag  Ag9  1  0.271990  0.955570  0.951590  1.0
  Ag  Ag10  1  0.955570  0.683580  0.451590  1.0
  Ag  Ag11  1  0.683580  0.728010  0.951590  1.0
  Ag  Ag12  1  0.728010  0.044430  0.451590  1.0
  H  H13  1  0.293100  0.926100  0.273700  1
  H  H14  1  0.926100  0.633000  0.773700  1
  H  H15  1  0.633000  0.706900  0.273700  1
  H  H16  1  0.706900  0.073900  0.773700  1
  H  H17  1  0.073900  0.367000  0.273700  1
  H  H18  1  0.367000  0.293100  0.773700  1
  H  H19  1  0.633000  0.926100  0.226300  1
  H  H20  1  0.926100  0.293100  0.726300  1
  H  H21  1  0.293100  0.367000  0.226300  1
  H  H22  1  0.367000  0.073900  0.726300  1
  H  H23  1  0.073900  0.706900  0.226300  1
  H  H24  1  0.706900  0.633000  0.726300  1
  H  H25  1  0.243900  0.882900  0.320600  1
  H  H26  1  0.882900  0.639000  0.820600  1
  H  H27  1  0.639000  0.756100  0.320600  1
  H  H28  1  0.756100  0.117100  0.820600  1
  H  H29  1  0.117100  0.361000  0.320600  1
  H  H30  1  0.361000  0.243900  0.820600  1
  H  H31  1  0.639000  0.882900  0.179400  1
  H  H32  1  0.882900  0.243900  0.679400  1
  H  H33  1  0.243900  0.361000  0.179400  1
  H  H34  1  0.361000  0.117100  0.679400  1
  H  H35  1  0.117100  0.756100  0.179400  1
  H  H36  1  0.756100  0.639000  0.679400  1
  H  H37  1  0.240100  0.843300  0.268600  1
  H  H38  1  0.843300  0.603200  0.768600  1
  H  H39  1  0.603200  0.759900  0.268600  1
  H  H40  1  0.759900  0.156700  0.768600  1
  H  H41  1  0.156700  0.396800  0.268600  1
  H  H42  1  0.396800  0.240100  0.768600  1
  H  H43  1  0.603200  0.843300  0.231400  1
  H  H44  1  0.843300  0.240100  0.731400  1
  H  H45  1  0.240100  0.396800  0.231400  1
  H  H46  1  0.396800  0.156700  0.731400  1
  H  H47  1  0.156700  0.759900  0.231400  1
  H  H48  1  0.759900  0.603200  0.731400  1
  H  H49  1  0.406600  0.248000  0.681000  1.0
  H  H50  1  0.248000  0.841400  0.181000  1.0
  H  H51  1  0.841400  0.593400  0.681000  1.0
  H  H52  1  0.593400  0.752000  0.181000  1.0
  H  H53  1  0.752000  0.158600  0.681000  1.0
  H  H54  1  0.158600  0.406600  0.181000  1.0
  H  H55  1  0.841400  0.248000  0.819000  1.0
  H  H56  1  0.248000  0.406600  0.319000  1.0
  H  H57  1  0.406600  0.158600  0.819000  1.0
  H  H58  1  0.158600  0.752000  0.319000  1.0
  H  H59  1  0.752000  0.593400  0.819000  1.0
  H  H60  1  0.593400  0.841400  0.319000  1.0
  H  H61  1  0.522500  0.325200  0.652300  1.0
  H  H62  1  0.325200  0.802700  0.152300  1.0
  H  H63  1  0.802700  0.477500  0.652300  1.0
  H  H64  1  0.477500  0.674800  0.152300  1.0
  H  H65  1  0.674800  0.197300  0.652300  1.0
  H  H66  1  0.197300  0.522500  0.152300  1.0
  H  H67  1  0.802700  0.325200  0.847700  1.0
  H  H68  1  0.325200  0.522500  0.347700  1.0
  H  H69  1  0.522500  0.197300  0.847700  1.0
  H  H70  1  0.197300  0.674800  0.347700  1.0
  H  H71  1  0.674800  0.477500  0.847700  1.0
  H  H72  1  0.477500  0.802700  0.347700  1.0
  H  H73  1  0.541500  0.398900  0.581300  1.0
  H  H74  1  0.398900  0.857400  0.081300  1.0
  H  H75  1  0.857400  0.458500  0.581300  1.0
  H  H76  1  0.458500  0.601100  0.081300  1.0
  H  H77  1  0.601100  0.142600  0.581300  1.0
  H  H78  1  0.142600  0.541500  0.081300  1.0
  H  H79  1  0.857400  0.398900  0.918700  1.0
  H  H80  1  0.398900  0.541500  0.418700  1.0
  H  H81  1  0.541500  0.142600  0.918700  1.0
  H  H82  1  0.142600  0.601100  0.418700  1.0
  H  H83  1  0.601100  0.458500  0.918700  1.0
  H  H84  1  0.458500  0.857400  0.418700  1.0
  H  H85  1  0.444600  0.395500  0.538900  1.0
  H  H86  1  0.395500  0.950900  0.038900  1.0
  H  H87  1  0.950900  0.555400  0.538900  1.0
  H  H88  1  0.555400  0.604500  0.038900  1.0
  H  H89  1  0.604500  0.049100  0.538900  1.0
  H  H90  1  0.049100  0.444600  0.038900  1.0
  H  H91  1  0.950900  0.395500  0.961100  1.0
  H  H92  1  0.395500  0.444600  0.461100  1.0
  H  H93  1  0.444600  0.049100  0.961100  1.0
  H  H94  1  0.049100  0.604500  0.461100  1.0
  H  H95  1  0.604500  0.555400  0.961100  1.0
  H  H96  1  0.555400  0.950900  0.461100  1.0
  H  H97  1  0.281300  0.150300  0.694100  1.0
  H  H98  1  0.150300  0.869000  0.194100  1.0
  H  H99  1  0.869000  0.718700  0.694100  1.0
  H  H100  1  0.718700  0.849700  0.194100  1.0
  H  H101  1  0.849700  0.131000  0.694100  1.0
  H  H102  1  0.131000  0.281300  0.194100  1.0
  H  H103  1  0.869000  0.150300  0.805900  1.0
  H  H104  1  0.150300  0.281300  0.305900  1.0
  H  H105  1  0.281300  0.131000  0.805900  1.0
  H  H106  1  0.131000  0.849700  0.305900  1.0
  H  H107  1  0.849700  0.718700  0.805900  1.0
  H  H108  1  0.718700  0.869000  0.305900  1.0
  H  H109  1  0.147500  0.098400  0.692900  1.0
  H  H110  1  0.098400  0.950900  0.192900  1.0
  H  H111  1  0.950900  0.852500  0.692900  1.0
  H  H112  1  0.852500  0.901600  0.192900  1.0
  H  H113  1  0.901600  0.049100  0.692900  1.0
  H  H114  1  0.049100  0.147500  0.192900  1.0
  H  H115  1  0.950900  0.098400  0.807100  1.0
  H  H116  1  0.098400  0.147500  0.307100  1.0
  H  H117  1  0.147500  0.049100  0.807100  1.0
  H  H118  1  0.049100  0.901600  0.307100  1.0
  H  H119  1  0.901600  0.852500  0.807100  1.0
  H  H120  1  0.852500  0.950900  0.307100  1.0
  H  H121  1  0.061800  0.128400  0.638000  1.0
  H  H122  1  0.128400  0.066600  0.138000  1.0
  H  H123  1  0.066600  0.938200  0.638000  1.0
  H  H124  1  0.938200  0.871600  0.138000  1.0
  H  H125  1  0.871600  0.933400  0.638000  1.0
  H  H126  1  0.933400  0.061800  0.138000  1.0
  H  H127  1  0.066600  0.128400  0.862000  1.0
  H  H128  1  0.128400  0.061800  0.362000  1.0
  H  H129  1  0.061800  0.933400  0.862000  1.0
  H  H130  1  0.933400  0.871600  0.362000  1.0
  H  H131  1  0.871600  0.938200  0.862000  1.0
  H  H132  1  0.938200  0.066600  0.362000  1.0
  H  H133  1  0.097800  0.177400  0.589600  1.0
  H  H134  1  0.177400  0.079600  0.089600  1.0
  H  H135  1  0.079600  0.902200  0.589600  1.0
  H  H136  1  0.902200  0.822600  0.089600  1.0
  H  H137  1  0.822600  0.920400  0.589600  1.0
  H  H138  1  0.920400  0.097800  0.089600  1.0
  H  H139  1  0.079600  0.177400  0.910400  1.0
  H  H140  1  0.177400  0.097800  0.410400  1.0
  H  H141  1  0.097800  0.920400  0.910400  1.0
  H  H142  1  0.920400  0.822600  0.410400  1.0
  H  H143  1  0.822600  0.902200  0.910400  1.0
  H  H144  1  0.902200  0.079600  0.410400  1.0
  H  H145  1  0.104500  0.384000  0.450500  1.0
  H  H146  1  0.384000  0.279500  0.950500  1.0
  H  H147  1  0.279500  0.895500  0.450500  1.0
  H  H148  1  0.895500  0.616000  0.950500  1.0
  H  H149  1  0.616000  0.720500  0.450500  1.0
  H  H150  1  0.720500  0.104500  0.950500  1.0
  H  H151  1  0.279500  0.384000  0.049500  1.0
  H  H152  1  0.384000  0.104500  0.549500  1.0
  H  H153  1  0.104500  0.720500  0.049500  1.0
  H  H154  1  0.720500  0.616000  0.549500  1.0
  H  H155  1  0.616000  0.895500  0.049500  1.0
  H  H156  1  0.895500  0.279500  0.549500  1.0
  H  H157  1  0.020800  0.272800  0.417500  1.0
  H  H158  1  0.272800  0.252000  0.917500  1.0
  H  H159  1  0.252000  0.979200  0.417500  1.0
  H  H160  1  0.979200  0.727200  0.917500  1.0
  H  H161  1  0.727200  0.748000  0.417500  1.0
  H  H162  1  0.748000  0.020800  0.917500  1.0
  H  H163  1  0.252000  0.272800  0.082500  1.0
  H  H164  1  0.272800  0.020800  0.582500  1.0
  H  H165  1  0.020800  0.748000  0.082500  1.0
  H  H166  1  0.748000  0.727200  0.582500  1.0
  H  H167  1  0.727200  0.979200  0.082500  1.0
  H  H168  1  0.979200  0.252000  0.582500  1.0
  H  H169  1  0.034000  0.173600  0.432200  1.0
  H  H170  1  0.173600  0.139600  0.932200  1.0
  H  H171  1  0.139600  0.966000  0.432200  1.0
  H  H172  1  0.966000  0.826400  0.932200  1.0
  H  H173  1  0.826400  0.860400  0.432200  1.0
  H  H174  1  0.860400  0.034000  0.932200  1.0
  H  H175  1  0.139600  0.173600  0.067800  1.0
  H  H176  1  0.173600  0.034000  0.567800  1.0
  H  H177  1  0.034000  0.860400  0.067800  1.0
  H  H178  1  0.860400  0.826400  0.567800  1.0
  H  H179  1  0.826400  0.966000  0.067800  1.0
  H  H180  1  0.966000  0.139600  0.567800  1.0
  H  H181  1  0.130900  0.185600  0.480000  1.0
  H  H182  1  0.185600  0.054700  0.980000  1.0
  H  H183  1  0.054700  0.869100  0.480000  1.0
  H  H184  1  0.869100  0.814400  0.980000  1.0
  H  H185  1  0.814400  0.945300  0.480000  1.0
  H  H186  1  0.945300  0.130900  0.980000  1.0
  H  H187  1  0.054700  0.185600  0.020000  1.0
  H  H188  1  0.185600  0.130900  0.520000  1.0
  H  H189  1  0.130900  0.945300  0.020000  1.0
  H  H190  1  0.945300  0.814400  0.520000  1.0
  H  H191  1  0.814400  0.869100  0.020000  1.0
  H  H192  1  0.869100  0.054700  0.520000  1.0
  H  H193  1  0.182600  0.493000  0.494900  1.0
  H  H194  1  0.493000  0.310400  0.994900  1.0
  H  H195  1  0.310400  0.817400  0.494900  1.0
  H  H196  1  0.817400  0.507000  0.994900  1.0
  H  H197  1  0.507000  0.689600  0.494900  1.0
  H  H198  1  0.689600  0.182600  0.994900  1.0
  H  H199  1  0.310400  0.493000  0.005100  1.0
  H  H200  1  0.493000  0.182600  0.505100  1.0
  H  H201  1  0.182600  0.689600  0.005100  1.0
  H  H202  1  0.689600  0.507000  0.505100  1.0
  H  H203  1  0.507000  0.817400  0.005100  1.0
  H  H204  1  0.817400  0.310400  0.505100  1.0
  H  H205  1  0.296300  0.579500  0.541200  1.0
  H  H206  1  0.579500  0.283200  0.041200  1.0
  H  H207  1  0.283200  0.703700  0.541200  1.0
  H  H208  1  0.703700  0.420500  0.041200  1.0
  H  H209  1  0.420500  0.716800  0.541200  1.0
  H  H210  1  0.716800  0.296300  0.041200  1.0
  H  H211  1  0.283200  0.579500  0.958800  1.0
  H  H212  1  0.579500  0.296300  0.458800  1.0
  H  H213  1  0.296300  0.716800  0.958800  1.0
  H  H214  1  0.716800  0.420500  0.458800  1.0
  H  H215  1  0.420500  0.703700  0.958800  1.0
  H  H216  1  0.703700  0.283200  0.458800  1.0
  H  H217  1  0.397800  0.568300  0.585200  1.0
  H  H218  1  0.568300  0.170500  0.085200  1.0
  H  H219  1  0.170500  0.602200  0.585200  1.0
  H  H220  1  0.602200  0.431700  0.085200  1.0
  H  H221  1  0.431700  0.829500  0.585200  1.0
  H  H222  1  0.829500  0.397800  0.085200  1.0
  H  H223  1  0.170500  0.568300  0.914800  1.0
  H  H224  1  0.568300  0.397800  0.414800  1.0
  H  H225  1  0.397800  0.829500  0.914800  1.0
  H  H226  1  0.829500  0.431700  0.414800  1.0
  H  H227  1  0.431700  0.602200  0.914800  1.0
  H  H228  1  0.602200  0.170500  0.414800  1.0
  H  H229  1  0.412400  0.511400  0.558300  1.0
  H  H230  1  0.511400  0.099000  0.058300  1.0
  H  H231  1  0.099000  0.587600  0.558300  1.0
  H  H232  1  0.587600  0.488600  0.058300  1.0
  H  H233  1  0.488600  0.901000  0.558300  1.0
  H  H234  1  0.901000  0.412400  0.058300  1.0
  H  H235  1  0.099000  0.511400  0.941700  1.0
  H  H236  1  0.511400  0.412400  0.441700  1.0
  H  H237  1  0.412400  0.901000  0.941700  1.0
  H  H238  1  0.901000  0.488600  0.441700  1.0
  H  H239  1  0.488600  0.587600  0.941700  1.0
  H  H240  1  0.587600  0.099000  0.441700  1.0
  H  H241  1  0.030000  0.269700  0.756900  1.0
  H  H242  1  0.269700  0.239700  0.256900  1.0
  H  H243  1  0.239700  0.970000  0.756900  1.0
  H  H244  1  0.970000  0.730300  0.256900  1.0
  H  H245  1  0.730300  0.760300  0.756900  1.0
  H  H246  1  0.760300  0.030000  0.256900  1.0
  H  H247  1  0.239700  0.269700  0.743100  1.0
  H  H248  1  0.269700  0.030000  0.243100  1.0
  H  H249  1  0.030000  0.760300  0.743100  1.0
  H  H250  1  0.760300  0.730300  0.243100  1.0
  H  H251  1  0.730300  0.970000  0.743100  1.0
  H  H252  1  0.970000  0.239700  0.243100  1.0
  H  H253  1  0.046400  0.181200  0.718700  1.0
  H  H254  1  0.181200  0.134800  0.218700  1.0
  H  H255  1  0.134800  0.953600  0.718700  1.0
  H  H256  1  0.953600  0.818800  0.218700  1.0
  H  H257  1  0.818800  0.865200  0.718700  1.0
  H  H258  1  0.865200  0.046400  0.218700  1.0
  H  H259  1  0.134800  0.181200  0.781300  1.0
  H  H260  1  0.181200  0.046400  0.281300  1.0
  H  H261  1  0.046400  0.865200  0.781300  1.0
  H  H262  1  0.865200  0.818800  0.281300  1.0
  H  H263  1  0.818800  0.953600  0.781300  1.0
  H  H264  1  0.953600  0.134800  0.281300  1.0
  H  H265  1  0.124200  0.302500  0.590500  1.0
  H  H266  1  0.302500  0.178300  0.090500  1.0
  H  H267  1  0.178300  0.875800  0.590500  1.0
  H  H268  1  0.875800  0.697500  0.090500  1.0
  H  H269  1  0.697500  0.821700  0.590500  1.0
  H  H270  1  0.821700  0.124200  0.090500  1.0
  H  H271  1  0.178300  0.302500  0.909500  1.0
  H  H272  1  0.302500  0.124200  0.409500  1.0
  H  H273  1  0.124200  0.821700  0.909500  1.0
  H  H274  1  0.821700  0.697500  0.409500  1.0
  H  H275  1  0.697500  0.875800  0.909500  1.0
  H  H276  1  0.875800  0.178300  0.409500  1.0
  H  H277  1  0.108000  0.391100  0.628700  1.0
  H  H278  1  0.391100  0.283100  0.128700  1.0
  H  H279  1  0.283100  0.892000  0.628700  1.0
  H  H280  1  0.892000  0.608900  0.128700  1.0
  H  H281  1  0.608900  0.716900  0.628700  1.0
  H  H282  1  0.716900  0.108000  0.128700  1.0
  H  H283  1  0.283100  0.391100  0.871300  1.0
  H  H284  1  0.391100  0.108000  0.371300  1.0
  H  H285  1  0.108000  0.716900  0.871300  1.0
  H  H286  1  0.716900  0.608900  0.371300  1.0
  H  H287  1  0.608900  0.892000  0.871300  1.0
  H  H288  1  0.892000  0.283100  0.371300  1.0
  H  H289  1  0.242900  0.393300  0.716900  1.0
  H  H290  1  0.393300  0.150400  0.216900  1.0
  H  H291  1  0.150400  0.757100  0.716900  1.0
  H  H292  1  0.757100  0.606700  0.216900  1.0
  H  H293  1  0.606700  0.849600  0.716900  1.0
  H  H294  1  0.849600  0.242900  0.216900  1.0
  H  H295  1  0.150400  0.393300  0.783100  1.0
  H  H296  1  0.393300  0.242900  0.283100  1.0
  H  H297  1  0.242900  0.849600  0.783100  1.0
  H  H298  1  0.849600  0.606700  0.283100  1.0
  H  H299  1  0.606700  0.757100  0.783100  1.0
  H  H300  1  0.757100  0.150400  0.283100  1.0
  H  H301  1  0.257300  0.442200  0.634500  1.0
  H  H302  1  0.442200  0.184900  0.134500  1.0
  H  H303  1  0.184900  0.742700  0.634500  1.0
  H  H304  1  0.742700  0.557800  0.134500  1.0
  H  H305  1  0.557800  0.815100  0.634500  1.0
  H  H306  1  0.815100  0.257300  0.134500  1.0
  H  H307  1  0.184900  0.442200  0.865500  1.0
  H  H308  1  0.442200  0.257300  0.365500  1.0
  H  H309  1  0.257300  0.815100  0.865500  1.0
  H  H310  1  0.815100  0.557800  0.365500  1.0
  H  H311  1  0.557800  0.742700  0.865500  1.0
  H  H312  1  0.742700  0.184900  0.365500  1.0
  H  H313  1  0.467100  0.504100  0.638400  1.0
  H  H314  1  0.504100  0.037000  0.138400  1.0
  H  H315  1  0.037000  0.532900  0.638400  1.0
  H  H316  1  0.532900  0.495900  0.138400  1.0
  H  H317  1  0.495900  0.963000  0.638400  1.0
  H  H318  1  0.963000  0.467100  0.138400  1.0
  H  H319  1  0.037000  0.504100  0.861600  1.0
  H  H320  1  0.504100  0.467100  0.361600  1.0
  H  H321  1  0.467100  0.963000  0.861600  1.0
  H  H322  1  0.963000  0.495900  0.361600  1.0
  H  H323  1  0.495900  0.532900  0.861600  1.0
  H  H324  1  0.532900  0.037000  0.361600  1.0
  H  H325  1  0.452800  0.455200  0.720800  1.0
  H  H326  1  0.455200  0.002400  0.220800  1.0
  H  H327  1  0.002400  0.547200  0.720800  1.0
  H  H328  1  0.547200  0.544800  0.220800  1.0
  H  H329  1  0.544800  0.997600  0.720800  1.0
  H  H330  1  0.997600  0.452800  0.220800  1.0
  H  H331  1  0.002400  0.455200  0.779200  1.0
  H  H332  1  0.455200  0.452800  0.279200  1.0
  H  H333  1  0.452800  0.997600  0.779200  1.0
  H  H334  1  0.997600  0.544800  0.279200  1.0
  H  H335  1  0.544800  0.547200  0.779200  1.0
  H  H336  1  0.547200  0.002400  0.279200  1.0
  C  C337  1  0.271300  0.881000  0.291800  1
  C  C338  1  0.881000  0.609700  0.791800  1
  C  C339  1  0.609700  0.728700  0.291800  1
  C  C340  1  0.728700  0.119000  0.791800  1
  C  C341  1  0.119000  0.390300  0.291800  1
  C  C342  1  0.390300  0.271300  0.791800  1
  C  C343  1  0.609700  0.881000  0.208200  1
  C  C344  1  0.881000  0.271300  0.708200  1
  C  C345  1  0.271300  0.390300  0.208200  1
  C  C346  1  0.390300  0.119000  0.708200  1
  C  C347  1  0.119000  0.728700  0.208200  1
  C  C348  1  0.728700  0.609700  0.708200  1
  C  C349  1  0.356100  0.275500  0.627200  1.0
  C  C350  1  0.275500  0.919400  0.127200  1.0
  C  C351  1  0.919400  0.643900  0.627200  1.0
  C  C352  1  0.643900  0.724500  0.127200  1.0
  C  C353  1  0.724500  0.080600  0.627200  1.0
  C  C354  1  0.080600  0.356100  0.127200  1.0
  C  C355  1  0.919400  0.275500  0.872800  1.0
  C  C356  1  0.275500  0.356100  0.372800  1.0
  C  C357  1  0.356100  0.080600  0.872800  1.0
  C  C358  1  0.080600  0.724500  0.372800  1.0
  C  C359  1  0.724500  0.643900  0.872800  1.0
  C  C360  1  0.643900  0.919400  0.372800  1.0
  C  C361  1  0.414100  0.277500  0.652600  1.0
  C  C362  1  0.277500  0.863400  0.152600  1.0
  C  C363  1  0.863400  0.585900  0.652600  1.0
  C  C364  1  0.585900  0.722500  0.152600  1.0
  C  C365  1  0.722500  0.136600  0.652600  1.0
  C  C366  1  0.136600  0.414100  0.152600  1.0
  C  C367  1  0.863400  0.277500  0.847400  1.0
  C  C368  1  0.277500  0.414100  0.347400  1.0
  C  C369  1  0.414100  0.136600  0.847400  1.0
  C  C370  1  0.136600  0.722500  0.347400  1.0
  C  C371  1  0.722500  0.585900  0.847400  1.0
  C  C372  1  0.585900  0.863400  0.347400  1.0
  C  C373  1  0.483600  0.323800  0.635400  1.0
  C  C374  1  0.323800  0.840200  0.135400  1.0
  C  C375  1  0.840200  0.516400  0.635400  1.0
  C  C376  1  0.516400  0.676200  0.135400  1.0
  C  C377  1  0.676200  0.159800  0.635400  1.0
  C  C378  1  0.159800  0.483600  0.135400  1.0
  C  C379  1  0.840200  0.323800  0.864600  1.0
  C  C380  1  0.323800  0.483600  0.364600  1.0
  C  C381  1  0.483600  0.159800  0.864600  1.0
  C  C382  1  0.159800  0.676200  0.364600  1.0
  C  C383  1  0.676200  0.516400  0.864600  1.0
  C  C384  1  0.516400  0.840200  0.364600  1.0
  C  C385  1  0.495100  0.368000  0.592800  1.0
  C  C386  1  0.368000  0.872900  0.092800  1.0
  C  C387  1  0.872900  0.504900  0.592800  1.0
  C  C388  1  0.504900  0.632000  0.092800  1.0
  C  C389  1  0.632000  0.127100  0.592800  1.0
  C  C390  1  0.127100  0.495100  0.092800  1.0
  C  C391  1  0.872900  0.368000  0.907200  1.0
  C  C392  1  0.368000  0.495100  0.407200  1.0
  C  C393  1  0.495100  0.127100  0.907200  1.0
  C  C394  1  0.127100  0.632000  0.407200  1.0
  C  C395  1  0.632000  0.504900  0.907200  1.0
  C  C396  1  0.504900  0.872900  0.407200  1.0
  C  C397  1  0.437000  0.365900  0.567400  1.0
  C  C398  1  0.365900  0.928900  0.067400  1.0
  C  C399  1  0.928900  0.563000  0.567400  1.0
  C  C400  1  0.563000  0.634100  0.067400  1.0
  C  C401  1  0.634100  0.071100  0.567400  1.0
  C  C402  1  0.071100  0.437000  0.067400  1.0
  C  C403  1  0.928900  0.365900  0.932600  1.0
  C  C404  1  0.365900  0.437000  0.432600  1.0
  C  C405  1  0.437000  0.071100  0.932600  1.0
  C  C406  1  0.071100  0.634100  0.432600  1.0
  C  C407  1  0.634100  0.563000  0.932600  1.0
  C  C408  1  0.563000  0.928900  0.432600  1.0
  C  C409  1  0.287500  0.228400  0.641800  1.0
  C  C410  1  0.228400  0.940900  0.141800  1.0
  C  C411  1  0.940900  0.712500  0.641800  1.0
  C  C412  1  0.712500  0.771600  0.141800  1.0
  C  C413  1  0.771600  0.059100  0.641800  1.0
  C  C414  1  0.059100  0.287500  0.141800  1.0
  C  C415  1  0.940900  0.228400  0.858200  1.0
  C  C416  1  0.228400  0.287500  0.358200  1.0
  C  C417  1  0.287500  0.059100  0.858200  1.0
  C  C418  1  0.059100  0.771600  0.358200  1.0
  C  C419  1  0.771600  0.712500  0.858200  1.0
  C  C420  1  0.712500  0.940900  0.358200  1.0
  C  C421  1  0.256500  0.167800  0.675100  1.0
  C  C422  1  0.167800  0.911300  0.175100  1.0
  C  C423  1  0.911300  0.743500  0.675100  1.0
  C  C424  1  0.743500  0.832200  0.175100  1.0
  C  C425  1  0.832200  0.088700  0.675100  1.0
  C  C426  1  0.088700  0.256500  0.175100  1.0
  C  C427  1  0.911300  0.167800  0.824900  1.0
  C  C428  1  0.167800  0.256500  0.324900  1.0
  C  C429  1  0.256500  0.088700  0.824900  1.0
  C  C430  1  0.088700  0.832200  0.324900  1.0
  C  C431  1  0.832200  0.743500  0.824900  1.0
  C  C432  1  0.743500  0.911300  0.324900  1.0
  C  C433  1  0.180900  0.138500  0.674400  1.0
  C  C434  1  0.138500  0.957600  0.174400  1.0
  C  C435  1  0.957600  0.819100  0.674400  1.0
  C  C436  1  0.819100  0.861500  0.174400  1.0
  C  C437  1  0.861500  0.042400  0.674400  1.0
  C  C438  1  0.042400  0.180900  0.174400  1.0
  C  C439  1  0.957600  0.138500  0.825600  1.0
  C  C440  1  0.138500  0.180900  0.325600  1.0
  C  C441  1  0.180900  0.042400  0.825600  1.0
  C  C442  1  0.042400  0.861500  0.325600  1.0
  C  C443  1  0.861500  0.819100  0.825600  1.0
  C  C444  1  0.819100  0.957600  0.325600  1.0
  C  C445  1  0.100100  0.175100  0.627100  1.0
  C  C446  1  0.175100  0.075000  0.127100  1.0
  C  C447  1  0.075000  0.899900  0.627100  1.0
  C  C448  1  0.899900  0.824900  0.127100  1.0
  C  C449  1  0.824900  0.925000  0.627100  1.0
  C  C450  1  0.925000  0.100100  0.127100  1.0
  C  C451  1  0.075000  0.175100  0.872900  1.0
  C  C452  1  0.175100  0.100100  0.372900  1.0
  C  C453  1  0.100100  0.925000  0.872900  1.0
  C  C454  1  0.925000  0.824900  0.372900  1.0
  C  C455  1  0.824900  0.899900  0.872900  1.0
  C  C456  1  0.899900  0.075000  0.372900  1.0
  C  C457  1  0.167900  0.351500  0.485000  1.0
  C  C458  1  0.351500  0.183600  0.985000  1.0
  C  C459  1  0.183600  0.832100  0.485000  1.0
  C  C460  1  0.832100  0.648500  0.985000  1.0
  C  C461  1  0.648500  0.816400  0.485000  1.0
  C  C462  1  0.816400  0.167900  0.985000  1.0
  C  C463  1  0.183600  0.351500  0.015000  1.0
  C  C464  1  0.351500  0.167900  0.515000  1.0
  C  C465  1  0.167900  0.816400  0.015000  1.0
  C  C466  1  0.816400  0.648500  0.515000  1.0
  C  C467  1  0.648500  0.832100  0.015000  1.0
  C  C468  1  0.832100  0.183600  0.515000  1.0
  C  C469  1  0.109800  0.344300  0.456400  1.0
  C  C470  1  0.344300  0.234500  0.956400  1.0
  C  C471  1  0.234500  0.890200  0.456400  1.0
  C  C472  1  0.890200  0.655700  0.956400  1.0
  C  C473  1  0.655700  0.765500  0.456400  1.0
  C  C474  1  0.765500  0.109800  0.956400  1.0
  C  C475  1  0.234500  0.344300  0.043600  1.0
  C  C476  1  0.344300  0.109800  0.543600  1.0
  C  C477  1  0.109800  0.765500  0.043600  1.0
  C  C478  1  0.765500  0.655700  0.543600  1.0
  C  C479  1  0.655700  0.890200  0.043600  1.0
  C  C480  1  0.890200  0.234500  0.543600  1.0
  C  C481  1  0.059700  0.277600  0.436600  1.0
  C  C482  1  0.277600  0.217900  0.936600  1.0
  C  C483  1  0.217900  0.940300  0.436600  1.0
  C  C484  1  0.940300  0.722400  0.936600  1.0
  C  C485  1  0.722400  0.782100  0.436600  1.0
  C  C486  1  0.782100  0.059700  0.936600  1.0
  C  C487  1  0.217900  0.277600  0.063400  1.0
  C  C488  1  0.277600  0.059700  0.563400  1.0
  C  C489  1  0.059700  0.782100  0.063400  1.0
  C  C490  1  0.782100  0.722400  0.563400  1.0
  C  C491  1  0.722400  0.940300  0.063400  1.0
  C  C492  1  0.940300  0.217900  0.563400  1.0
  C  C493  1  0.067500  0.218200  0.445400  1.0
  C  C494  1  0.218200  0.150700  0.945400  1.0
  C  C495  1  0.150700  0.932500  0.445400  1.0
  C  C496  1  0.932500  0.781800  0.945400  1.0
  C  C497  1  0.781800  0.849300  0.445400  1.0
  C  C498  1  0.849300  0.067500  0.945400  1.0
  C  C499  1  0.150700  0.218200  0.054600  1.0
  C  C500  1  0.218200  0.067500  0.554600  1.0
  C  C501  1  0.067500  0.849300  0.054600  1.0
  C  C502  1  0.849300  0.781800  0.554600  1.0
  C  C503  1  0.781800  0.932500  0.054600  1.0
  C  C504  1  0.932500  0.150700  0.554600  1.0
  C  C505  1  0.125600  0.225400  0.474000  1.0
  C  C506  1  0.225400  0.099800  0.974000  1.0
  C  C507  1  0.099800  0.874400  0.474000  1.0
  C  C508  1  0.874400  0.774600  0.974000  1.0
  C  C509  1  0.774600  0.900200  0.474000  1.0
  C  C510  1  0.900200  0.125600  0.974000  1.0
  C  C511  1  0.099800  0.225400  0.026000  1.0
  C  C512  1  0.225400  0.125600  0.526000  1.0
  C  C513  1  0.125600  0.900200  0.026000  1.0
  C  C514  1  0.900200  0.774600  0.526000  1.0
  C  C515  1  0.774600  0.874400  0.026000  1.0
  C  C516  1  0.874400  0.099800  0.526000  1.0
  C  C517  1  0.212200  0.414500  0.507300  1.0
  C  C518  1  0.414500  0.202300  0.007300  1.0
  C  C519  1  0.202300  0.787800  0.507300  1.0
  C  C520  1  0.787800  0.585500  0.007300  1.0
  C  C521  1  0.585500  0.797700  0.507300  1.0
  C  C522  1  0.797700  0.212200  0.007300  1.0
  C  C523  1  0.202300  0.414500  0.992700  1.0
  C  C524  1  0.414500  0.212200  0.492700  1.0
  C  C525  1  0.212200  0.797700  0.992700  1.0
  C  C526  1  0.797700  0.585500  0.492700  1.0
  C  C527  1  0.585500  0.787800  0.992700  1.0
  C  C528  1  0.787800  0.202300  0.492700  1.0
  C  C529  1  0.216200  0.482400  0.508700  1.0
  C  C530  1  0.482400  0.266200  0.008700  1.0
  C  C531  1  0.266200  0.783800  0.508700  1.0
  C  C532  1  0.783800  0.517600  0.008700  1.0
  C  C533  1  0.517600  0.733800  0.508700  1.0
  C  C534  1  0.733800  0.216200  0.008700  1.0
  C  C535  1  0.266200  0.482400  0.991300  1.0
  C  C536  1  0.482400  0.216200  0.491300  1.0
  C  C537  1  0.216200  0.733800  0.991300  1.0
  C  C538  1  0.733800  0.517600  0.491300  1.0
  C  C539  1  0.517600  0.783800  0.991300  1.0
  C  C540  1  0.783800  0.266200  0.491300  1.0
  C  C541  1  0.280400  0.531200  0.534900  1.0
  C  C542  1  0.531200  0.250800  0.034900  1.0
  C  C543  1  0.250800  0.719600  0.534900  1.0
  C  C544  1  0.719600  0.468800  0.034900  1.0
  C  C545  1  0.468800  0.749200  0.534900  1.0
  C  C546  1  0.749200  0.280400  0.034900  1.0
  C  C547  1  0.250800  0.531200  0.965100  1.0
  C  C548  1  0.531200  0.280400  0.465100  1.0
  C  C549  1  0.280400  0.749200  0.965100  1.0
  C  C550  1  0.749200  0.468800  0.465100  1.0
  C  C551  1  0.468800  0.719600  0.965100  1.0
  C  C552  1  0.719600  0.250800  0.465100  1.0
  C  C553  1  0.377500  0.517500  0.578200  1.0
  C  C554  1  0.517500  0.140000  0.078200  1.0
  C  C555  1  0.140000  0.622500  0.578200  1.0
  C  C556  1  0.622500  0.482500  0.078200  1.0
  C  C557  1  0.482500  0.860000  0.578200  1.0
  C  C558  1  0.860000  0.377500  0.078200  1.0
  C  C559  1  0.140000  0.517500  0.921800  1.0
  C  C560  1  0.517500  0.377500  0.421800  1.0
  C  C561  1  0.377500  0.860000  0.921800  1.0
  C  C562  1  0.860000  0.482500  0.421800  1.0
  C  C563  1  0.482500  0.622500  0.921800  1.0
  C  C564  1  0.622500  0.140000  0.421800  1.0
  C  C565  1  0.067400  0.339200  0.696560  1.0
  C  C566  1  0.339200  0.271800  0.196560  1.0
  C  C567  1  0.271800  0.932600  0.696560  1.0
  C  C568  1  0.932600  0.660800  0.196560  1.0
  C  C569  1  0.660800  0.728200  0.696560  1.0
  C  C570  1  0.728200  0.067400  0.196560  1.0
  C  C571  1  0.271800  0.339200  0.803440  1.0
  C  C572  1  0.339200  0.067400  0.303440  1.0
  C  C573  1  0.067400  0.728200  0.803440  1.0
  C  C574  1  0.728200  0.660800  0.303440  1.0
  C  C575  1  0.660800  0.932600  0.803440  1.0
  C  C576  1  0.932600  0.271800  0.303440  1.0
  C  C577  1  0.048900  0.276300  0.723500  1.0
  C  C578  1  0.276300  0.227400  0.223500  1.0
  C  C579  1  0.227400  0.951100  0.723500  1.0
  C  C580  1  0.951100  0.723700  0.223500  1.0
  C  C581  1  0.723700  0.772600  0.723500  1.0
  C  C582  1  0.772600  0.048900  0.223500  1.0
  C  C583  1  0.227400  0.276300  0.776500  1.0
  C  C584  1  0.276300  0.048900  0.276500  1.0
  C  C585  1  0.048900  0.772600  0.776500  1.0
  C  C586  1  0.772600  0.723700  0.276500  1.0
  C  C587  1  0.723700  0.951100  0.776500  1.0
  C  C588  1  0.951100  0.227400  0.276500  1.0
  C  C589  1  0.058700  0.223200  0.700700  1.0
  C  C590  1  0.223200  0.164500  0.200700  1.0
  C  C591  1  0.164500  0.941300  0.700700  1.0
  C  C592  1  0.941300  0.776800  0.200700  1.0
  C  C593  1  0.776800  0.835500  0.700700  1.0
  C  C594  1  0.835500  0.058700  0.200700  1.0
  C  C595  1  0.164500  0.223200  0.799300  1.0
  C  C596  1  0.223200  0.058700  0.299300  1.0
  C  C597  1  0.058700  0.835500  0.799300  1.0
  C  C598  1  0.835500  0.776800  0.299300  1.0
  C  C599  1  0.776800  0.941300  0.799300  1.0
  C  C600  1  0.941300  0.164500  0.299300  1.0
  C  C601  1  0.087000  0.233100  0.650800  1.0
  C  C602  1  0.233100  0.146100  0.150800  1.0
  C  C603  1  0.146100  0.913000  0.650800  1.0
  C  C604  1  0.913000  0.766900  0.150800  1.0
  C  C605  1  0.766900  0.853900  0.650800  1.0
  C  C606  1  0.853900  0.087000  0.150800  1.0
  C  C607  1  0.146100  0.233100  0.849200  1.0
  C  C608  1  0.233100  0.087000  0.349200  1.0
  C  C609  1  0.087000  0.853900  0.849200  1.0
  C  C610  1  0.853900  0.766900  0.349200  1.0
  C  C611  1  0.766900  0.913000  0.849200  1.0
  C  C612  1  0.913000  0.146100  0.349200  1.0
  C  C613  1  0.105300  0.295900  0.623900  1.0
  C  C614  1  0.295900  0.190600  0.123900  1.0
  C  C615  1  0.190600  0.894700  0.623900  1.0
  C  C616  1  0.894700  0.704100  0.123900  1.0
  C  C617  1  0.704100  0.809400  0.623900  1.0
  C  C618  1  0.809400  0.105300  0.123900  1.0
  C  C619  1  0.190600  0.295900  0.876100  1.0
  C  C620  1  0.295900  0.105300  0.376100  1.0
  C  C621  1  0.105300  0.809400  0.876100  1.0
  C  C622  1  0.809400  0.704100  0.376100  1.0
  C  C623  1  0.704100  0.894700  0.876100  1.0
  C  C624  1  0.894700  0.190600  0.376100  1.0
  C  C625  1  0.095600  0.349000  0.646720  1.0
  C  C626  1  0.349000  0.253400  0.146720  1.0
  C  C627  1  0.253400  0.904400  0.646720  1.0
  C  C628  1  0.904400  0.651000  0.146720  1.0
  C  C629  1  0.651000  0.746600  0.646720  1.0
  C  C630  1  0.746600  0.095600  0.146720  1.0
  C  C631  1  0.253400  0.349000  0.853280  1.0
  C  C632  1  0.349000  0.095600  0.353280  1.0
  C  C633  1  0.095600  0.746600  0.853280  1.0
  C  C634  1  0.746600  0.651000  0.353280  1.0
  C  C635  1  0.651000  0.904400  0.853280  1.0
  C  C636  1  0.904400  0.253400  0.353280  1.0
  C  C637  1  0.346400  0.419400  0.727000  1.0
  C  C638  1  0.419400  0.073000  0.227000  1.0
  C  C639  1  0.073000  0.653600  0.727000  1.0
  C  C640  1  0.653600  0.580600  0.227000  1.0
  C  C641  1  0.580600  0.927000  0.727000  1.0
  C  C642  1  0.927000  0.346400  0.227000  1.0
  C  C643  1  0.073000  0.419400  0.773000  1.0
  C  C644  1  0.419400  0.346400  0.273000  1.0
  C  C645  1  0.346400  0.927000  0.773000  1.0
  C  C646  1  0.927000  0.580600  0.273000  1.0
  C  C647  1  0.580600  0.653600  0.773000  1.0
  C  C648  1  0.653600  0.073000  0.273000  1.0
  C  C649  1  0.287800  0.415500  0.701160  1.0
  C  C650  1  0.415500  0.127700  0.201160  1.0
  C  C651  1  0.127700  0.712200  0.701160  1.0
  C  C652  1  0.712200  0.584500  0.201160  1.0
  C  C653  1  0.584500  0.872300  0.701160  1.0
  C  C654  1  0.872300  0.287800  0.201160  1.0
  C  C655  1  0.127700  0.415500  0.798840  1.0
  C  C656  1  0.415500  0.287800  0.298840  1.0
  C  C657  1  0.287800  0.872300  0.798840  1.0
  C  C658  1  0.872300  0.584500  0.298840  1.0
  C  C659  1  0.584500  0.712200  0.798840  1.0
  C  C660  1  0.712200  0.127700  0.298840  1.0
  C  C661  1  0.296500  0.444800  0.651800  1.0
  C  C662  1  0.444800  0.148300  0.151800  1.0
  C  C663  1  0.148300  0.703500  0.651800  1.0
  C  C664  1  0.703500  0.555200  0.151800  1.0
  C  C665  1  0.555200  0.851700  0.651800  1.0
  C  C666  1  0.851700  0.296500  0.151800  1.0
  C  C667  1  0.148300  0.444800  0.848200  1.0
  C  C668  1  0.444800  0.296500  0.348200  1.0
  C  C669  1  0.296500  0.851700  0.848200  1.0
  C  C670  1  0.851700  0.555200  0.348200  1.0
  C  C671  1  0.555200  0.703500  0.848200  1.0
  C  C672  1  0.703500  0.148300  0.348200  1.0
  C  C673  1  0.363600  0.478000  0.628300  1.0
  C  C674  1  0.478000  0.114400  0.128300  1.0
  C  C675  1  0.114400  0.636400  0.628300  1.0
  C  C676  1  0.636400  0.522000  0.128300  1.0
  C  C677  1  0.522000  0.885600  0.628300  1.0
  C  C678  1  0.885600  0.363600  0.128300  1.0
  C  C679  1  0.114400  0.478000  0.871700  1.0
  C  C680  1  0.478000  0.363600  0.371700  1.0
  C  C681  1  0.363600  0.885600  0.871700  1.0
  C  C682  1  0.885600  0.522000  0.371700  1.0
  C  C683  1  0.522000  0.636400  0.871700  1.0
  C  C684  1  0.636400  0.114400  0.371700  1.0
  C  C685  1  0.422200  0.481900  0.654200  1.0
  C  C686  1  0.481900  0.059700  0.154200  1.0
  C  C687  1  0.059700  0.577800  0.654200  1.0
  C  C688  1  0.577800  0.518100  0.154200  1.0
  C  C689  1  0.518100  0.940300  0.654200  1.0
  C  C690  1  0.940300  0.422200  0.154200  1.0
  C  C691  1  0.059700  0.481900  0.845800  1.0
  C  C692  1  0.481900  0.422200  0.345800  1.0
  C  C693  1  0.422200  0.940300  0.845800  1.0
  C  C694  1  0.940300  0.518100  0.345800  1.0
  C  C695  1  0.518100  0.577800  0.845800  1.0
  C  C696  1  0.577800  0.059700  0.345800  1.0
  C  C697  1  0.413600  0.452600  0.703500  1.0
  C  C698  1  0.452600  0.039000  0.203500  1.0
  C  C699  1  0.039000  0.586400  0.703500  1.0
  C  C700  1  0.586400  0.547400  0.203500  1.0
  C  C701  1  0.547400  0.961000  0.703500  1.0
  C  C702  1  0.961000  0.413600  0.203500  1.0
  C  C703  1  0.039000  0.452600  0.796500  1.0
  C  C704  1  0.452600  0.413600  0.296500  1.0
  C  C705  1  0.413600  0.961000  0.796500  1.0
  C  C706  1  0.961000  0.547400  0.296500  1.0
  C  C707  1  0.547400  0.586400  0.796500  1.0
  C  C708  1  0.586400  0.039000  0.296500  1.0
  C  C709  1  0.051800  0.397200  0.718900  1.0
  C  C710  1  0.397200  0.345400  0.218900  1.0
  C  C711  1  0.345400  0.948200  0.718900  1.0
  C  C712  1  0.948200  0.602800  0.218900  1.0
  C  C713  1  0.602800  0.654600  0.718900  1.0
  C  C714  1  0.654600  0.051800  0.218900  1.0
  C  C715  1  0.345400  0.397200  0.781100  1.0
  C  C716  1  0.397200  0.051800  0.281100  1.0
  C  C717  1  0.051800  0.654600  0.781100  1.0
  C  C718  1  0.654600  0.602800  0.281100  1.0
  C  C719  1  0.602800  0.948200  0.781100  1.0
  C  C720  1  0.948200  0.345400  0.281100  1.0
  N  N721  1  0.327400  0.866900  0.311000  1
  N  N722  1  0.866900  0.539500  0.811000  1
  N  N723  1  0.539500  0.672600  0.311000  1
  N  N724  1  0.672600  0.133100  0.811000  1
  N  N725  1  0.133100  0.460500  0.311000  1
  N  N726  1  0.460500  0.327400  0.811000  1
  N  N727  1  0.539500  0.866900  0.189000  1
  N  N728  1  0.866900  0.327400  0.689000  1
  N  N729  1  0.327400  0.460500  0.189000  1
  N  N730  1  0.460500  0.133100  0.689000  1
  N  N731  1  0.133100  0.672600  0.189000  1
  N  N732  1  0.672600  0.539500  0.689000  1
  N  N733  1  0.367600  0.319700  0.584600  1.0
  N  N734  1  0.319700  0.952100  0.084600  1.0
  N  N735  1  0.952100  0.632400  0.584600  1.0
  N  N736  1  0.632400  0.680300  0.084600  1.0
  N  N737  1  0.680300  0.047900  0.584600  1.0
  N  N738  1  0.047900  0.367600  0.084600  1.0
  N  N739  1  0.952100  0.319700  0.915400  1.0
  N  N740  1  0.319700  0.367600  0.415400  1.0
  N  N741  1  0.367600  0.047900  0.915400  1.0
  N  N742  1  0.047900  0.680300  0.415400  1.0
  N  N743  1  0.680300  0.632400  0.915400  1.0
  N  N744  1  0.632400  0.952100  0.415400  1.0
  N  N745  1  0.165300  0.181000  0.640600  1.0
  N  N746  1  0.181000  0.015700  0.140600  1.0
  N  N747  1  0.015700  0.834700  0.640600  1.0
  N  N748  1  0.834700  0.819000  0.140600  1.0
  N  N749  1  0.819000  0.984300  0.640600  1.0
  N  N750  1  0.984300  0.165300  0.140600  1.0
  N  N751  1  0.015700  0.181000  0.859400  1.0
  N  N752  1  0.181000  0.165300  0.359400  1.0
  N  N753  1  0.165300  0.984300  0.859400  1.0
  N  N754  1  0.984300  0.819000  0.359400  1.0
  N  N755  1  0.819000  0.834700  0.859400  1.0
  N  N756  1  0.834700  0.015700  0.359400  1.0
  N  N757  1  0.231200  0.236600  0.620400  1.0
  N  N758  1  0.236600  0.005400  0.120400  1.0
  N  N759  1  0.005400  0.768800  0.620400  1.0
  N  N760  1  0.768800  0.763400  0.120400  1.0
  N  N761  1  0.763400  0.994600  0.620400  1.0
  N  N762  1  0.994600  0.231200  0.120400  1.0
  N  N763  1  0.005400  0.236600  0.879600  1.0
  N  N764  1  0.236600  0.231200  0.379600  1.0
  N  N765  1  0.231200  0.994600  0.879600  1.0
  N  N766  1  0.994600  0.763400  0.379600  1.0
  N  N767  1  0.763400  0.768800  0.879600  1.0
  N  N768  1  0.768800  0.005400  0.379600  1.0
  N  N769  1  0.175800  0.292000  0.493800  1.0
  N  N770  1  0.292000  0.116200  0.993800  1.0
  N  N771  1  0.116200  0.824200  0.493800  1.0
  N  N772  1  0.824200  0.708000  0.993800  1.0
  N  N773  1  0.708000  0.883800  0.493800  1.0
  N  N774  1  0.883800  0.175800  0.993800  1.0
  N  N775  1  0.116200  0.292000  0.006200  1.0
  N  N776  1  0.292000  0.175800  0.506200  1.0
  N  N777  1  0.175800  0.883800  0.006200  1.0
  N  N778  1  0.883800  0.708000  0.506200  1.0
  N  N779  1  0.708000  0.824200  0.006200  1.0
  N  N780  1  0.824200  0.116200  0.506200  1.0
  N  N781  1  0.316200  0.493500  0.549600  1.0
  N  N782  1  0.493500  0.177300  0.049600  1.0
  N  N783  1  0.177300  0.683800  0.549600  1.0
  N  N784  1  0.683800  0.506500  0.049600  1.0
  N  N785  1  0.506500  0.822700  0.549600  1.0
  N  N786  1  0.822700  0.316200  0.049600  1.0
  N  N787  1  0.177300  0.493500  0.950400  1.0
  N  N788  1  0.493500  0.316200  0.450400  1.0
  N  N789  1  0.316200  0.822700  0.950400  1.0
  N  N790  1  0.822700  0.506500  0.450400  1.0
  N  N791  1  0.506500  0.683800  0.950400  1.0
  N  N792  1  0.683800  0.177300  0.450400  1.0
  N  N793  1  0.274000  0.421400  0.532600  1.0
  N  N794  1  0.421400  0.147400  0.032600  1.0
  N  N795  1  0.147400  0.726000  0.532600  1.0
  N  N796  1  0.726000  0.578600  0.032600  1.0
  N  N797  1  0.578600  0.852600  0.532600  1.0
  N  N798  1  0.852600  0.274000  0.032600  1.0
  N  N799  1  0.147400  0.421400  0.967400  1.0
  N  N800  1  0.421400  0.274000  0.467400  1.0
  N  N801  1  0.274000  0.852600  0.967400  1.0
  N  N802  1  0.852600  0.578600  0.467400  1.0
  N  N803  1  0.578600  0.726000  0.967400  1.0
  N  N804  1  0.726000  0.147400  0.467400  1.0
  Cl  Cl805  1  0.433880  0.433880  0.000000  1
  Cl  Cl806  1  0.433880  1.000000  0.500000  1
  Cl  Cl807  1  0.000000  0.566120  0.000000  1
  Cl  Cl808  1  0.566120  0.566120  0.500000  1
  Cl  Cl809  1  0.566120  0.000000  0.000000  1
  Cl  Cl810  1  0.000000  0.433880  0.500000  1
  Cl  Cl811  1  0.333333  0.666667  0.412800  1
  Cl  Cl812  1  0.666667  0.333333  0.912800  1
  Cl  Cl813  1  0.333333  0.666667  0.087200  1
  Cl  Cl814  1  0.666667  0.333333  0.587200  1
  Cl  Cl815  1  0.000000  0.000000  0.250000  1
  Cl  Cl816  1  0.000000  0.000000  0.750000  1
  Cl  Cl817  1  0.000000  0.000000  0.500000  1
  Cl  Cl818  1  0.000000  0.000000  0.000000  1
  O  O819  1  0.333333  0.666667  0.468800  1
  O  O820  1  0.666667  0.333333  0.968800  1
  O  O821  1  0.333333  0.666667  0.031200  1
  O  O822  1  0.666667  0.333333  0.531200  1
  O  O823  1  0.364700  0.858700  0.279400  1
  O  O824  1  0.858700  0.494000  0.779400  1
  O  O825  1  0.494000  0.635300  0.279400  1
  O  O826  1  0.635300  0.141300  0.779400  1
  O  O827  1  0.141300  0.506000  0.279400  1
  O  O828  1  0.506000  0.364700  0.779400  1
  O  O829  1  0.494000  0.858700  0.220600  1
  O  O830  1  0.858700  0.364700  0.720600  1
  O  O831  1  0.364700  0.506000  0.220600  1
  O  O832  1  0.506000  0.141300  0.720600  1
  O  O833  1  0.141300  0.635300  0.220600  1
  O  O834  1  0.635300  0.494000  0.720600  1
  O  O835  1  0.337100  0.870200  0.358500  1
  O  O836  1  0.870200  0.533100  0.858500  1
  O  O837  1  0.533100  0.662900  0.358500  1
  O  O838  1  0.662900  0.129800  0.858500  1
  O  O839  1  0.129800  0.466900  0.358500  1
  O  O840  1  0.466900  0.337100  0.858500  1
  O  O841  1  0.533100  0.870200  0.141500  1
  O  O842  1  0.870200  0.337100  0.641500  1
  O  O843  1  0.337100  0.466900  0.141500  1
  O  O844  1  0.466900  0.129800  0.641500  1
  O  O845  1  0.129800  0.662900  0.141500  1
  O  O846  1  0.662900  0.533100  0.641500  1
  O  O847  1  0.000000  0.000000  0.308200  1
  O  O848  1  0.000000  0.000000  0.808200  1
  O  O849  1  0.000000  0.000000  0.191800  1
  O  O850  1  0.000000  0.000000  0.691800  1
  O  O851  1  0.068700  0.058900  0.235300  1
  O  O852  1  0.058900  0.990200  0.735300  1
  O  O853  1  0.990200  0.931300  0.235300  1
  O  O854  1  0.931300  0.941100  0.735300  1
  O  O855  1  0.941100  0.009800  0.235300  1
  O  O856  1  0.009800  0.068700  0.735300  1
  O  O857  1  0.990200  0.058900  0.264700  1
  O  O858  1  0.058900  0.068700  0.764700  1
  O  O859  1  0.068700  0.009800  0.264700  1
  O  O860  1  0.009800  0.941100  0.764700  1
  O  O861  1  0.941100  0.931300  0.264700  1
  O  O862  1  0.931300  0.990200  0.764700  1
  O  O863  1  0.000000  0.000000  0.444100  1
  O  O864  1  0.000000  0.000000  0.944100  1
  O  O865  1  0.000000  0.000000  0.055900  1
  O  O866  1  0.000000  0.000000  0.555900  1
  O  O867  1  0.050700  0.068700  0.521500  1
  O  O868  1  0.068700  0.018000  0.021500  1
  O  O869  1  0.018000  0.949300  0.521500  1
  O  O870  1  0.949300  0.931300  0.021500  1
  O  O871  1  0.931300  0.982000  0.521500  1
  O  O872  1  0.982000  0.050700  0.021500  1
  O  O873  1  0.018000  0.068700  0.978500  1
  O  O874  1  0.068700  0.050700  0.478500  1
  O  O875  1  0.050700  0.982000  0.978500  1
  O  O876  1  0.982000  0.931300  0.478500  1
  O  O877  1  0.931300  0.949300  0.978500  1
  O  O878  1  0.949300  0.018000  0.478500  1
  O  O879  1  0.030500  0.426900  0.690400  1.0
  O  O880  1  0.426900  0.396400  0.190400  1.0
  O  O881  1  0.396400  0.969500  0.690400  1.0
  O  O882  1  0.969500  0.573100  0.190400  1.0
  O  O883  1  0.573100  0.603600  0.690400  1.0
  O  O884  1  0.603600  0.030500  0.190400  1.0
  O  O885  1  0.396400  0.426900  0.809600  1.0
  O  O886  1  0.426900  0.030500  0.309600  1.0
  O  O887  1  0.030500  0.603600  0.809600  1.0
  O  O888  1  0.603600  0.573100  0.309600  1.0
  O  O889  1  0.573100  0.969500  0.809600  1.0
  O  O890  1  0.969500  0.396400  0.309600  1.0
  O  O891  1  0.430200  0.495600  0.017300  1.0
  O  O892  1  0.495600  0.065400  0.517300  1.0
  O  O893  1  0.065400  0.569800  0.017300  1.0
  O  O894  1  0.569800  0.504400  0.517300  1.0
  O  O895  1  0.504400  0.934600  0.017300  1.0
  O  O896  1  0.934600  0.430200  0.517300  1.0
  O  O897  1  0.065400  0.495600  0.482700  1.0
  O  O898  1  0.495600  0.430200  0.982700  1.0
  O  O899  1  0.430200  0.934600  0.482700  1.0
  O  O900  1  0.934600  0.504400  0.982700  1.0
  O  O901  1  0.504400  0.569800  0.482700  1.0
  O  O902  1  0.569800  0.065400  0.982700  1.0
  O  O903  1  0.384800  0.402900  0.957200  1.0
  O  O904  1  0.402900  0.018100  0.457200  1.0
  O  O905  1  0.018100  0.615200  0.957200  1.0
  O  O906  1  0.615200  0.597100  0.457200  1.0
  O  O907  1  0.597100  0.981900  0.957200  1.0
  O  O908  1  0.981900  0.384800  0.457200  1.0
  O  O909  1  0.018100  0.402900  0.542800  1.0
  O  O910  1  0.402900  0.384800  0.042800  1.0
  O  O911  1  0.384800  0.981900  0.542800  1.0
  O  O912  1  0.981900  0.597100  0.042800  1.0
  O  O913  1  0.597100  0.615200  0.542800  1.0
  O  O914  1  0.615200  0.018100  0.042800  1.0
  O  O915  1  0.267700  0.606900  0.393700  1.0
  O  O916  1  0.606900  0.339200  0.893700  1.0
  O  O917  1  0.339200  0.732300  0.393700  1.0
  O  O918  1  0.732300  0.393100  0.893700  1.0
  O  O919  1  0.393100  0.660800  0.393700  1.0
  O  O920  1  0.660800  0.267700  0.893700  1.0
  O  O921  1  0.339200  0.606900  0.106300  1.0
  O  O922  1  0.606900  0.267700  0.606300  1.0
  O  O923  1  0.267700  0.660800  0.106300  1.0
  O  O924  1  0.660800  0.393100  0.606300  1.0
  O  O925  1  0.393100  0.732300  0.106300  1.0
  O  O926  1  0.732300  0.339200  0.606300  1.0
