
#######################################################################
#
#                 Cambridge Crystallographic Data Centre
#                                CCDC 
#
#######################################################################
#
# If this CIF has been generated from an entry in the Cambridge 
# Structural Database, then it will include bibliographic, chemical, 
# crystal, experimental, refinement or atomic coordinate data resulting 
# from the CCDC's data processing and validation procedures.
#
#######################################################################

data_ZARJUZ
_chemical_formula_moiety         
'C62 H50 Ag2 N12 O2 2+,2(B1 F4 1-),C1 H3 N1 O2,0.33(H2 O1)'
_chemical_name_systematic        
'bis(\m~2~-bis(4-((3-(pyridin-2-yl)-1H-pyrazol-1-yl)methyl)phenyl)methanone)-di-silver bis(tetrafluoroborate) nitromethane solvate'
_symmetry_cell_setting           hexagonal
_symmetry_space_group_name_H-M   'P 63'
_symmetry_Int_Tables_number      173
_space_group_name_Hall           'P 6c'
loop_
_symmetry_equiv_pos_site_id
_symmetry_equiv_pos_as_xyz
1 x,y,z
2 x-y,x,1/2+z
3 -y,x-y,z
4 -x,-y,1/2+z
5 -x+y,-x,z
6 y,-x+y,1/2+z
_cell_length_a                   21.2675(6)
_cell_length_b                   21.2675(6)
_cell_length_c                   25.9142(10)
_cell_angle_alpha                90
_cell_angle_beta                 90
_cell_angle_gamma                120
_cell_volume                     10150.8
_exptl_crystal_colour            colorless
_exptl_crystal_description       plate
_cell_formula_units_Z            6
loop_
_atom_site_label
_atom_site_type_symbol
_atom_site_fract_x
_atom_site_fract_y
_atom_site_fract_z
Ag1 Ag 1.30902(5) 1.03173(5) 0.20227(4)
Ag2 Ag 1.31889(5) 1.26397(4) -0.20031(4)
N1 N 1.3129(3) 0.9354(3) 0.1676(3)
C1 C 1.2741(4) 0.9063(4) 0.1222(3)
C2 C 1.2808(5) 0.8530(4) 0.0959(3)
H1 H 1.2549 0.8335 0.0655
C3 C 1.3261(5) 0.8288(4) 0.1148(3)
H2 H 1.3305 0.7931 0.0972
C4 C 1.3648(5) 0.8579(5) 0.1602(4)
H3 H 1.3952 0.8418 0.1729
C5 C 1.3582(4) 0.9113(4) 0.1865(3)
H4 H 1.3841 0.9307 0.2169
N2 N 1.1766(3) 1.0037(3) 0.1055(3)
N3 N 1.2328(3) 0.9946(3) 0.1274(3)
C6 C 1.2299(3) 0.9327(4) 0.1043(4)
C7 C 1.1720(4) 0.9036(3) 0.0681(3)
H5 H 1.1581 0.8629 0.0475
C8 C 1.1390(4) 0.9474(4) 0.0689(3)
H6 H 1.0997 0.9405 0.0489
C9 C 1.1722(5) 1.0651(6) 0.1212(5)
H7 H 1.1793 1.0714 0.1582
H8 H 1.1242 1.0574 0.1134
N4 N 1.2879(4) 1.1630(4) -0.2573(3)
C10 C 1.3472(3) 1.1556(5) -0.2704(4)
C11 C 1.3394(5) 1.1038(6) -0.3065(5)
H9 H 1.3791 1.0988 -0.3153
C12 C 1.2723(6) 1.0594(6) -0.3294(5)
H10 H 1.2671 1.0247 -0.3535
C13 C 1.2130(4) 1.0668(5) -0.3162(4)
H11 H 1.1681 1.0372 -0.3315
C14 C 1.2208(3) 1.1186(4) -0.2802(4)
H12 H 1.1811 1.1236 -0.2713
N5 N 1.4944(4) 1.2952(5) -0.2012(4)
N6 N 1.4211(3) 1.2589(5) -0.2182(4)
C15 C 1.4091(4) 1.1974(5) -0.2475(4)
C16 C 1.4750(5) 1.1957(5) -0.2486(5)
H13 H 1.4823 1.1611 -0.2652
C17 C 1.5277(4) 1.2562(6) -0.2200(5)
H14 H 1.5757 1.2681 -0.2146
C18 C 1.5147(8) 1.3626(10) -0.1729(7)
H15 H 1.5668 1.3888 -0.1674
H16 H 1.5025 1.3930 -0.1936
C19 C 1.2286(3) 1.1327(3) 0.0943(2)
C20 C 1.2947(3) 1.1753(3) 0.11892(17)
H17 H 1.3038 1.1609 0.1506
C21 C 1.3472(3) 1.2396(3) 0.09626(15)
H18 H 1.3914 1.2681 0.1128
C22 C 1.3335(2) 1.2612(2) 0.04894(16)
C23 C 1.26742(19) 1.2186(2) 0.02429(18)
H19 H 1.2583 1.2330 -0.0074
C24 C 1.2149(2) 1.1543(3) 0.0469(2)
H20 H 1.1707 1.1258 0.0304
C25 C 1.4789(3) 1.3492(3) -0.12419(19)
C26 C 1.4832(3) 1.4095(3) -0.0998(2)
H21 H 1.5080 1.4549 -0.1154
C27 C 1.4506(3) 1.4019(2) -0.0520(2)
H22 H 1.4535 1.4422 -0.0356
C28 C 1.4135(2) 1.33412(19) -0.02858(17)
C29 C 1.4092(2) 1.2739(2) -0.05300(16)
H23 H 1.3844 1.2285 -0.0374
C30 C 1.4418(3) 1.2814(3) -0.10080(18)
H24 H 1.4389 1.2411 -0.1171
C31 C 1.3905(6) 1.3302(6) 0.0290(5)
O1 O 1.4220(5) 1.3875(5) 0.0537(5)
N7 N 1.2942(4) 1.1109(3) 0.2523(3)
C32 C 1.3524(3) 1.1816(4) 0.2534(4)
C33 C 1.3426(5) 1.2377(3) 0.2714(5)
H25 H 1.3815 1.2850 0.2721
C34 C 1.2746(6) 1.2230(4) 0.2884(5)
H26 H 1.2680 1.2605 0.3004
C35 C 1.2164(4) 1.1523(5) 0.2873(5)
H27 H 1.1709 1.1425 0.2987
C36 C 1.2262(3) 1.0963(3) 0.2693(4)
H28 H 1.1873 1.0490 0.2686
N8 N 1.4939(4) 1.1645(5) 0.1972(4)
N9 N 1.4213(3) 1.1368(4) 0.2143(4)
C37 C 1.4166(4) 1.1945(5) 0.2380(4)
C38 C 1.4862(5) 1.2578(4) 0.2355(5)
H29 H 1.4983 1.3034 0.2482
C39 C 1.5340(3) 1.2393(4) 0.2103(5)
H30 H 1.5829 1.2707 0.2035
C40 C 1.5129(6) 1.1187(8) 0.1732(6)
H31 H 1.4959 1.0748 0.1935
H32 H 1.5653 1.1421 0.1705
N10 N 1.3179(4) 1.3616(3) -0.1671(3)
C41 C 1.2726(4) 1.3496(3) -0.1251(3)
C42 C 1.2778(6) 1.4082(5) -0.0976(3)
H33 H 1.2475 1.4002 -0.0695
C43 C 1.3282(7) 1.4787(4) -0.1121(4)
H34 H 1.3317 1.5178 -0.0937
C44 C 1.3735(6) 1.4906(3) -0.1542(4)
H35 H 1.4072 1.5378 -0.1639
C45 C 1.3683(4) 1.4321(3) -0.1816(3)
H36 H 1.3986 1.4401 -0.2098
N11 N 1.1791(3) 1.1562(3) -0.1134(3)
N12 N 1.2362(3) 1.2240(3) -0.1312(3)
C46 C 1.2254(4) 1.2797(3) -0.1105(3)
C47 C 1.1615(4) 1.2463(4) -0.0798(3)
H37 H 1.1419 1.2702 -0.0617
C48 C 1.1329(3) 1.1700(4) -0.0816(3)
H38 H 1.0912 1.1352 -0.0649
C49 C 1.1729(7) 1.0910(6) -0.1256(6)
H39 H 1.1745 1.0870 -0.1628
H40 H 1.1263 1.0522 -0.1137
C50 C 1.4771(3) 1.0983(4) 0.1162(2)
C51 C 1.4789(3) 1.0419(4) 0.0903(2)
H41 H 1.4998 1.0174 0.1060
C52 C 1.4495(3) 1.0222(4) 0.0411(2)
H42 H 1.4507 0.9845 0.0238
C53 C 1.4184(2) 1.0589(3) 0.01772(18)
C54 C 1.4166(2) 1.1153(3) 0.04358(18)
H43 H 1.3957 1.1398 0.0279
C55 C 1.4460(3) 1.1349(4) 0.0928(2)
H44 H 1.4448 1.1726 0.1101
C56 C 1.2336(3) 1.0819(3) -0.1012(2)
C57 C 1.2957(3) 1.0980(4) -0.12920(19)
H45 H 1.3013 1.1158 -0.1627
C58 C 1.3493(3) 1.0875(4) -0.10713(16)
H46 H 1.3908 1.0983 -0.1258
C59 C 1.3409(2) 1.0609(3) -0.05709(16)
C60 C 1.27879(19) 1.0448(3) -0.02913(18)
H47 H 1.2731 1.0270 0.0043
C61 C 1.2252(2) 1.0553(4) -0.0512(2)
H48 H 1.1836 1.0445 -0.0325
C62 C 1.4004(7) 1.0472(9) -0.0376(6)
O2 O 1.4308(5) 1.0233(8) -0.0626(4)
B1 B 0.6667 0.3333 0.6638(5)
F1 F 0.6667 0.3333 0.7168(5)
F2 F 0.6062(5) 0.2708(4) 0.6464(4)
F2B F 0.7292(4) 0.3354(6) 0.6464(4)
F2D F 0.6646(6) 0.3938(5) 0.6464(4)
B2 B 1.0000 1.0000 0.5057(6)
F3 F 1.0562(3) 1.0636(3) 0.4862(3)
F4 F 1.0000 1.0000 0.5599(5)
F3B F 0.9364(3) 0.9926(4) 0.4862(3)
F3D F 1.0074(4) 0.9438(3) 0.4862(3)
B3 B 0.4392(7) 0.4357(6) 0.2520(5)
F5 F 0.4727(6) 0.5078(4) 0.2611(5)
F6 F 0.3795(6) 0.4002(5) 0.2840(4)
F7 F 0.4880(5) 0.4124(5) 0.2637(4)
F8 F 0.4184(7) 0.4185(8) 0.2032(4)
C63 C 0.341(2) 0.4632(17) 0.1026(12)
H49 H 0.3704 0.5134 0.1118
H50 H 0.3706 0.4406 0.1027
H51 H 0.3024 0.4392 0.1270
N13 N 0.3101(12) 0.4573(11) 0.0499(10)
O3 O 0.3099(14) 0.5058(10) 0.0230(11)
O4 O 0.2731(13) 0.3934(9) 0.0381(10)
O5 O 0.6667 0.3333 0.8777(12)
loop_
_geom_bond_atom_site_label_1
_geom_bond_atom_site_label_2
_geom_bond_site_symmetry_1
_geom_bond_site_symmetry_2
Ag1 N1 1_555 1_555
Ag2 N4 1_555 1_555
N1 C1 1_555 1_555
C1 C2 1_555 1_555
C2 H1 1_555 1_555
C3 C2 1_555 1_555
H2 C3 1_555 1_555
C4 C3 1_555 1_555
H3 C4 1_555 1_555
C5 N1 1_555 1_555
H4 C5 1_555 1_555
N2 N3 1_555 1_555
N3 Ag1 1_555 1_555
C6 C1 1_555 1_555
C7 C6 1_555 1_555
H5 C7 1_555 1_555
C8 N2 1_555 1_555
H6 C8 1_555 1_555
C9 N2 1_555 1_555
H7 C9 1_555 1_555
H8 C9 1_555 1_555
N4 C10 1_555 1_555
C10 C11 1_555 1_555
C11 H9 1_555 1_555
C12 C11 1_555 1_555
H10 C12 1_555 1_555
C13 C12 1_555 1_555
H11 C13 1_555 1_555
C14 N4 1_555 1_555
H12 C14 1_555 1_555
N5 N6 1_555 1_555
N6 Ag2 1_555 1_555
C15 C10 1_555 1_555
C16 C15 1_555 1_555
H13 C16 1_555 1_555
C17 N5 1_555 1_555
H14 C17 1_555 1_555
C18 N5 1_555 1_555
H15 C18 1_555 1_555
H16 C18 1_555 1_555
C19 C9 1_555 1_555
C20 C19 1_555 1_555
H17 C20 1_555 1_555
C21 C20 1_555 1_555
H18 C21 1_555 1_555
C22 C21 1_555 1_555
C23 C22 1_555 1_555
H19 C23 1_555 1_555
C24 C19 1_555 1_555
H20 C24 1_555 1_555
C25 C18 1_555 1_555
C26 C25 1_555 1_555
H21 C26 1_555 1_555
C27 C26 1_555 1_555
H22 C27 1_555 1_555
C28 C27 1_555 1_555
C29 C28 1_555 1_555
H23 C29 1_555 1_555
C30 C25 1_555 1_555
H24 C30 1_555 1_555
C31 C22 1_555 1_555
O1 C31 1_555 1_555
N7 Ag1 1_555 1_555
C32 N7 1_555 1_555
C33 C32 1_555 1_555
H25 C33 1_555 1_555
C34 C33 1_555 1_555
H26 C34 1_555 1_555
C35 C34 1_555 1_555
H27 C35 1_555 1_555
C36 N7 1_555 1_555
H28 C36 1_555 1_555
N8 N9 1_555 1_555
N9 Ag1 1_555 1_555
C37 C32 1_555 1_555
C38 C37 1_555 1_555
H29 C38 1_555 1_555
C39 N8 1_555 1_555
H30 C39 1_555 1_555
C40 N8 1_555 1_555
H31 C40 1_555 1_555
H32 C40 1_555 1_555
N10 Ag2 1_555 1_555
C41 N10 1_555 1_555
C42 C41 1_555 1_555
H33 C42 1_555 1_555
C43 C42 1_555 1_555
H34 C43 1_555 1_555
C44 C43 1_555 1_555
H35 C44 1_555 1_555
C45 N10 1_555 1_555
H36 C45 1_555 1_555
N11 N12 1_555 1_555
N12 Ag2 1_555 1_555
C46 C41 1_555 1_555
C47 C46 1_555 1_555
H37 C47 1_555 1_555
C48 N11 1_555 1_555
H38 C48 1_555 1_555
C49 N11 1_555 1_555
H39 C49 1_555 1_555
H40 C49 1_555 1_555
C50 C40 1_555 1_555
C51 C50 1_555 1_555
H41 C51 1_555 1_555
C52 C51 1_555 1_555
H42 C52 1_555 1_555
C53 C52 1_555 1_555
C54 C53 1_555 1_555
H43 C54 1_555 1_555
C55 C50 1_555 1_555
H44 C55 1_555 1_555
C56 C49 1_555 1_555
C57 C56 1_555 1_555
H45 C57 1_555 1_555
C58 C57 1_555 1_555
H46 C58 1_555 1_555
C59 C58 1_555 1_555
C60 C59 1_555 1_555
H47 C60 1_555 1_555
C61 C56 1_555 1_555
H48 C61 1_555 1_555
C62 C53 1_555 1_555
O2 C62 1_555 1_555
B1 F1 1_555 1_555
F2 B1 1_555 1_555
B2 F3 1_555 1_555
F4 B2 1_555 1_555
B3 F5 1_555 1_555
F6 B3 1_555 1_555
F7 B3 1_555 1_555
F8 B3 1_555 1_555
C63 H49 1_555 1_555
H50 C63 1_555 1_555
H51 C63 1_555 1_555
N13 C63 1_555 1_555
O3 N13 1_555 1_555
O4 N13 1_555 1_555
F2B B1 1_555 1_555
F2D B1 1_555 1_555
F3B B2 1_555 1_555
F3D B2 1_555 1_555
C4 C5 1_555 1_555
N3 C6 1_555 1_555
C7 C8 1_555 1_555
C13 C14 1_555 1_555
N6 C15 1_555 1_555
C16 C17 1_555 1_555
C23 C24 1_555 1_555
C28 C31 1_555 1_555
C29 C30 1_555 1_555
C35 C36 1_555 1_555
N9 C37 1_555 1_555
C38 C39 1_555 1_555
C44 C45 1_555 1_555
N12 C46 1_555 1_555
C47 C48 1_555 1_555
C54 C55 1_555 1_555
C59 C62 1_555 1_555
C60 C61 1_555 1_555

#END
