# generated using pymatgen
data_H247Ir6C311N30O47
_symmetry_space_group_name_H-M   'P 1'
_cell_length_a   24.15560000
_cell_length_b   38.39820000
_cell_length_c   48.01290000
_cell_angle_alpha   90.00000000
_cell_angle_beta   104.15100000
_cell_angle_gamma   90.00000000
_symmetry_Int_Tables_number   1
_chemical_formula_structural   H247Ir6C311N30O47
_chemical_formula_sum   'H988 Ir24 C1244 N120 O188'
_cell_volume   43182.10200727
_cell_formula_units_Z   4
loop_
 _symmetry_equiv_pos_site_id
 _symmetry_equiv_pos_as_xyz
  1  'x, y, z'
loop_
 _atom_site_type_symbol
 _atom_site_label
 _atom_site_symmetry_multiplicity
 _atom_site_fract_x
 _atom_site_fract_y
 _atom_site_fract_z
 _atom_site_occupancy
  H  H1  1  0.007800  0.330200  0.188900  1
  H  H2  1  0.492200  0.830200  0.311100  1
  H  H3  1  0.992200  0.669800  0.811100  1
  H  H4  1  0.507800  0.169800  0.688900  1
  H  H5  1  0.988700  0.422800  0.254800  1
  H  H6  1  0.511300  0.922800  0.245200  1
  H  H7  1  0.011300  0.577200  0.745200  1
  H  H8  1  0.488700  0.077200  0.754800  1
  H  H9  1  0.893200  0.437000  0.222900  1
  H  H10  1  0.606800  0.937000  0.277100  1
  H  H11  1  0.106800  0.563000  0.777100  1
  H  H12  1  0.393200  0.063000  0.722900  1
  H  H13  1  0.869600  0.419900  0.191500  1
  H  H14  1  0.630400  0.919900  0.308500  1
  H  H15  1  0.130400  0.580100  0.808500  1
  H  H16  1  0.369600  0.080100  0.691500  1
  H  H17  1  0.966300  0.482200  0.229800  1
  H  H18  1  0.533700  0.982200  0.270200  1
  H  H19  1  0.033700  0.517800  0.770200  1
  H  H20  1  0.466300  0.017800  0.729800  1
  H  H21  1  0.954000  0.495200  0.130500  1
  H  H22  1  0.546000  0.995200  0.369500  1
  H  H23  1  0.046000  0.504800  0.869500  1
  H  H24  1  0.454000  0.004800  0.630500  1
  H  H25  1  0.858900  0.423800  0.147200  1
  H  H26  1  0.641100  0.923800  0.352800  1
  H  H27  1  0.141100  0.576200  0.852800  1
  H  H28  1  0.358900  0.076200  0.647200  1
  H  H29  1  0.863100  0.451300  0.122400  1
  H  H30  1  0.636900  0.951300  0.377600  1
  H  H31  1  0.136900  0.548700  0.877600  1
  H  H32  1  0.363100  0.048700  0.622400  1
  H  H33  1  0.946900  0.445300  0.097800  1
  H  H34  1  0.553100  0.945300  0.402200  1
  H  H35  1  0.053100  0.554700  0.902200  1
  H  H36  1  0.446900  0.054700  0.597800  1
  H  H37  1  0.988600  0.331700  0.139800  1
  H  H38  1  0.511400  0.831700  0.360200  1
  H  H39  1  0.011400  0.668300  0.860200  1
  H  H40  1  0.488600  0.168300  0.639800  1
  H  H41  1  0.879200  0.376300  0.166700  1
  H  H42  1  0.620800  0.876300  0.333300  1
  H  H43  1  0.120800  0.623700  0.833300  1
  H  H44  1  0.379200  0.123700  0.666700  1
  H  H45  1  0.908900  0.339500  0.164000  1
  H  H46  1  0.591100  0.839500  0.336000  1
  H  H47  1  0.091100  0.660500  0.836000  1
  H  H48  1  0.408900  0.160500  0.664000  1
  H  H49  1  0.070400  0.289200  0.215900  1
  H  H50  1  0.429600  0.789200  0.284100  1
  H  H51  1  0.929600  0.710800  0.784100  1
  H  H52  1  0.570400  0.210800  0.715900  1
  H  H53  1  0.136800  0.295600  0.229800  1
  H  H54  1  0.363200  0.795600  0.270200  1
  H  H55  1  0.863200  0.704400  0.770200  1
  H  H56  1  0.636800  0.204400  0.729800  1
  H  H57  1  0.104000  0.318800  0.203200  1
  H  H58  1  0.396000  0.818800  0.296800  1
  H  H59  1  0.896000  0.681200  0.796800  1
  H  H60  1  0.604000  0.181200  0.703200  1
  H  H61  1  0.083800  0.324400  0.341500  1
  H  H62  1  0.416200  0.824400  0.158500  1
  H  H63  1  0.916200  0.675600  0.658500  1
  H  H64  1  0.583800  0.175600  0.841500  1
  H  H65  1  0.149100  0.335100  0.387800  1
  H  H66  1  0.350900  0.835100  0.112200  1
  H  H67  1  0.850900  0.664900  0.612200  1
  H  H68  1  0.649100  0.164900  0.887800  1
  H  H69  1  0.196700  0.424300  0.363900  1
  H  H70  1  0.303300  0.924300  0.136100  1
  H  H71  1  0.803300  0.575700  0.636100  1
  H  H72  1  0.696700  0.075700  0.863900  1
  H  H73  1  0.138800  0.413600  0.310000  1
  H  H74  1  0.361200  0.913600  0.190000  1
  H  H75  1  0.861200  0.586400  0.690000  1
  H  H76  1  0.638800  0.086400  0.810000  1
  H  H77  1  0.002700  0.548800  0.251600  1
  H  H78  1  0.497300  0.048800  0.248400  1
  H  H79  1  0.997300  0.451200  0.748400  1
  H  H80  1  0.502700  0.951200  0.751600  1
  H  H81  1  0.069500  0.540600  0.257000  1
  H  H82  1  0.430500  0.040600  0.243000  1
  H  H83  1  0.930500  0.459400  0.743000  1
  H  H84  1  0.569500  0.959400  0.757000  1
  H  H85  1  0.024200  0.509400  0.251800  1
  H  H86  1  0.475800  0.009400  0.248200  1
  H  H87  1  0.975800  0.490600  0.748200  1
  H  H88  1  0.524200  0.990600  0.751800  1
  H  H89  1  0.035100  0.602400  0.152400  1
  H  H90  1  0.464900  0.102400  0.347600  1
  H  H91  1  0.964900  0.397600  0.847600  1
  H  H92  1  0.535100  0.897600  0.652400  1
  H  H93  1  0.090400  0.647000  0.137100  1
  H  H94  1  0.409600  0.147000  0.362900  1
  H  H95  1  0.909600  0.353000  0.862900  1
  H  H96  1  0.590400  0.853000  0.637100  1
  H  H97  1  0.182300  0.585800  0.106800  1
  H  H98  1  0.317700  0.085800  0.393200  1
  H  H99  1  0.817700  0.414200  0.893200  1
  H  H100  1  0.682300  0.914200  0.606800  1
  H  H101  1  0.136500  0.535800  0.117500  1
  H  H102  1  0.363500  0.035800  0.382500  1
  H  H103  1  0.863500  0.464200  0.882500  1
  H  H104  1  0.636500  0.964200  0.617500  1
  H  H105  1  0.983300  0.444900  0.049700  1
  H  H106  1  0.516700  0.944900  0.450300  1
  H  H107  1  0.016700  0.555100  0.950300  1
  H  H108  1  0.483300  0.055100  0.549700  1
  H  H109  1  0.051200  0.444300  0.054500  1
  H  H110  1  0.448800  0.944300  0.445500  1
  H  H111  1  0.948800  0.555700  0.945500  1
  H  H112  1  0.551200  0.055700  0.554500  1
  H  H113  1  0.023300  0.461800  0.078100  1
  H  H114  1  0.476700  0.961800  0.421900  1
  H  H115  1  0.976700  0.538200  0.921900  1
  H  H116  1  0.523300  0.038200  0.578100  1
  H  H117  1  0.122700  0.304100  0.120900  1
  H  H118  1  0.377300  0.804100  0.379100  1
  H  H119  1  0.877300  0.695900  0.879100  1
  H  H120  1  0.622700  0.195900  0.620900  1
  H  H121  1  0.200300  0.269900  0.116600  1
  H  H122  1  0.299700  0.769900  0.383400  1
  H  H123  1  0.799700  0.730100  0.883400  1
  H  H124  1  0.700300  0.230100  0.616600  1
  H  H125  1  0.152400  0.280700  0.030000  1
  H  H126  1  0.347600  0.780700  0.470000  1
  H  H127  1  0.847600  0.719300  0.970000  1
  H  H128  1  0.652400  0.219300  0.530000  1
  H  H129  1  0.074800  0.314900  0.034400  1
  H  H130  1  0.425200  0.814900  0.465600  1
  H  H131  1  0.925200  0.685100  0.965600  1
  H  H132  1  0.574800  0.185100  0.534400  1
  H  H133  1  0.483100  0.521700  0.285100  1
  H  H134  1  0.016900  0.021700  0.214900  1
  H  H135  1  0.516900  0.478300  0.714900  1
  H  H136  1  0.983100  0.978300  0.785100  1
  H  H137  1  0.497500  0.405200  0.314500  1
  H  H138  1  0.002500  0.905200  0.185500  1
  H  H139  1  0.502500  0.594800  0.685500  1
  H  H140  1  0.997500  0.094800  0.814500  1
  H  H141  1  0.589600  0.421800  0.269900  1
  H  H142  1  0.910400  0.921800  0.230100  1
  H  H143  1  0.410400  0.578200  0.730100  1
  H  H144  1  0.089600  0.078200  0.769900  1
  H  H145  1  0.575500  0.394800  0.292800  1
  H  H146  1  0.924500  0.894800  0.207200  1
  H  H147  1  0.424500  0.605200  0.707200  1
  H  H148  1  0.075500  0.105200  0.792800  1
  H  H149  1  0.476000  0.360800  0.278000  1
  H  H150  1  0.024000  0.860800  0.222000  1
  H  H151  1  0.524000  0.639200  0.722000  1
  H  H152  1  0.976000  0.139200  0.778000  1
  H  H153  1  0.483700  0.381500  0.180800  1
  H  H154  1  0.016300  0.881500  0.319200  1
  H  H155  1  0.516300  0.618500  0.819200  1
  H  H156  1  0.983700  0.118500  0.680800  1
  H  H157  1  0.587600  0.434100  0.228600  1
  H  H158  1  0.912400  0.934100  0.271400  1
  H  H159  1  0.412400  0.565900  0.771400  1
  H  H160  1  0.087600  0.065900  0.728600  1
  H  H161  1  0.566300  0.422300  0.195600  1
  H  H162  1  0.933700  0.922300  0.304400  1
  H  H163  1  0.433700  0.577700  0.804400  1
  H  H164  1  0.066300  0.077700  0.695600  1
  H  H165  1  0.483500  0.440600  0.166400  1
  H  H166  1  0.016500  0.940600  0.333600  1
  H  H167  1  0.516500  0.559400  0.833600  1
  H  H168  1  0.983500  0.059400  0.666400  1
  H  H169  1  0.470300  0.533000  0.231000  1
  H  H170  1  0.029700  0.033000  0.269000  1
  H  H171  1  0.529700  0.467000  0.769000  1
  H  H172  1  0.970300  0.967000  0.731000  1
  H  H173  1  0.564500  0.511600  0.261800  1
  H  H174  1  0.935500  0.011600  0.238200  1
  H  H175  1  0.435500  0.488400  0.738200  1
  H  H176  1  0.064500  0.988400  0.761800  1
  H  H177  1  0.585100  0.472400  0.258400  1
  H  H178  1  0.914900  0.972400  0.241600  1
  H  H179  1  0.414900  0.527600  0.741600  1
  H  H180  1  0.085100  0.027600  0.758400  1
  H  H181  1  0.467500  0.552000  0.319800  1
  H  H182  1  0.032500  0.052000  0.180200  1
  H  H183  1  0.532500  0.448000  0.680200  1
  H  H184  1  0.967500  0.948000  0.819800  1
  H  H185  1  0.409200  0.560300  0.328600  1
  H  H186  1  0.090800  0.060300  0.171400  1
  H  H187  1  0.590800  0.439700  0.671400  1
  H  H188  1  0.909200  0.939700  0.828600  1
  H  H189  1  0.408600  0.553600  0.295700  1
  H  H190  1  0.091400  0.053600  0.204300  1
  H  H191  1  0.591400  0.446400  0.704300  1
  H  H192  1  0.908600  0.946400  0.795700  1
  H  H193  1  0.406300  0.466300  0.414900  1
  H  H194  1  0.093700  0.966300  0.085100  1
  H  H195  1  0.593700  0.533700  0.585100  1
  H  H196  1  0.906300  0.033700  0.914900  1
  H  H197  1  0.329200  0.447300  0.430700  1
  H  H198  1  0.170800  0.947300  0.069300  1
  H  H199  1  0.670800  0.552700  0.569300  1
  H  H200  1  0.829200  0.052700  0.930700  1
  H  H201  1  0.279000  0.378400  0.365800  1
  H  H202  1  0.221000  0.878400  0.134200  1
  H  H203  1  0.721000  0.621600  0.634200  1
  H  H204  1  0.779000  0.121600  0.865800  1
  H  H205  1  0.357100  0.398800  0.342000  1
  H  H206  1  0.142900  0.898800  0.158000  1
  H  H207  1  0.642900  0.601200  0.658000  1
  H  H208  1  0.857100  0.101200  0.842000  1
  H  H209  1  0.436000  0.309600  0.281600  1
  H  H210  1  0.064000  0.809600  0.218400  1
  H  H211  1  0.564000  0.690400  0.718400  1
  H  H212  1  0.936000  0.190400  0.781600  1
  H  H213  1  0.369300  0.302800  0.268700  1
  H  H214  1  0.130700  0.802800  0.231300  1
  H  H215  1  0.630700  0.697200  0.731300  1
  H  H216  1  0.869300  0.197200  0.768700  1
  H  H217  1  0.392500  0.341700  0.275200  1
  H  H218  1  0.107500  0.841700  0.224800  1
  H  H219  1  0.607500  0.658300  0.724800  1
  H  H220  1  0.892500  0.158300  0.775200  1
  H  H221  1  0.429200  0.241700  0.154900  1
  H  H222  1  0.070800  0.741700  0.345100  1
  H  H223  1  0.570800  0.758300  0.845100  1
  H  H224  1  0.929200  0.258300  0.654900  1
  H  H225  1  0.354500  0.211900  0.119000  1
  H  H226  1  0.145500  0.711900  0.381000  1
  H  H227  1  0.645500  0.788100  0.881000  1
  H  H228  1  0.854500  0.288100  0.619000  1
  H  H229  1  0.278000  0.306200  0.101700  1
  H  H230  1  0.222000  0.806200  0.398300  1
  H  H231  1  0.722000  0.693800  0.898300  1
  H  H232  1  0.778000  0.193800  0.601700  1
  H  H233  1  0.346100  0.331100  0.141400  1
  H  H234  1  0.153900  0.831100  0.358600  1
  H  H235  1  0.653900  0.668900  0.858600  1
  H  H236  1  0.846100  0.168900  0.641400  1
  H  H237  1  0.435900  0.470400  0.117800  1
  H  H238  1  0.064100  0.970400  0.382200  1
  H  H239  1  0.564100  0.529600  0.882200  1
  H  H240  1  0.935900  0.029600  0.617800  1
  H  H241  1  0.368400  0.475000  0.106000  1
  H  H242  1  0.131600  0.975000  0.394000  1
  H  H243  1  0.631600  0.525000  0.894000  1
  H  H244  1  0.868400  0.025000  0.606000  1
  H  H245  1  0.393200  0.445000  0.128800  1
  H  H246  1  0.106800  0.945000  0.371200  1
  H  H247  1  0.606800  0.555000  0.871200  1
  H  H248  1  0.893200  0.055000  0.628800  1
  H  H249  1  0.313000  0.575200  0.182200  1
  H  H250  1  0.187000  0.075200  0.317800  1
  H  H251  1  0.687000  0.424800  0.817800  1
  H  H252  1  0.813000  0.924800  0.682200  1
  H  H253  1  0.239200  0.610900  0.162400  1
  H  H254  1  0.260800  0.110900  0.337600  1
  H  H255  1  0.760800  0.389100  0.837600  1
  H  H256  1  0.739200  0.889100  0.662400  1
  H  H257  1  0.310900  0.646700  0.102700  1
  H  H258  1  0.189100  0.146700  0.397300  1
  H  H259  1  0.689100  0.353300  0.897300  1
  H  H260  1  0.810900  0.853300  0.602700  1
  H  H261  1  0.387300  0.609600  0.116900  1
  H  H262  1  0.112700  0.109600  0.383100  1
  H  H263  1  0.612700  0.390400  0.883100  1
  H  H264  1  0.887300  0.890400  0.616900  1
  H  H265  1  0.223500  0.463800  0.397700  1
  H  H266  1  0.276500  0.963800  0.102300  1
  H  H267  1  0.776500  0.536200  0.602300  1
  H  H268  1  0.723500  0.036200  0.897700  1
  H  H269  1  0.179600  0.516700  0.400100  1
  H  H270  1  0.320400  0.016700  0.099900  1
  H  H271  1  0.820400  0.483300  0.599900  1
  H  H272  1  0.679600  0.983300  0.900100  1
  H  H273  1  0.100900  0.513100  0.420000  1
  H  H274  1  0.399100  0.013100  0.080000  1
  H  H275  1  0.899100  0.486900  0.580000  1
  H  H276  1  0.600900  0.986900  0.920000  1
  H  H277  1  0.083700  0.461600  0.442300  1
  H  H278  1  0.416300  0.961600  0.057700  1
  H  H279  1  0.916300  0.538400  0.557700  1
  H  H280  1  0.583700  0.038400  0.942300  1
  H  H281  1  0.064400  0.400900  0.458900  1
  H  H282  1  0.435600  0.900900  0.041100  1
  H  H283  1  0.935600  0.599100  0.541100  1
  H  H284  1  0.564400  0.099100  0.958900  1
  H  H285  1  0.078200  0.349000  0.483900  1
  H  H286  1  0.421800  0.849000  0.016100  1
  H  H287  1  0.921800  0.651000  0.516100  1
  H  H288  1  0.578200  0.151000  0.983900  1
  H  H289  1  0.119700  0.305600  0.465300  1
  H  H290  1  0.380300  0.805600  0.034700  1
  H  H291  1  0.880300  0.694400  0.534700  1
  H  H292  1  0.619700  0.194400  0.965300  1
  H  H293  1  0.196700  0.319500  0.441900  1
  H  H294  1  0.303300  0.819500  0.058100  1
  H  H295  1  0.803300  0.680500  0.558100  1
  H  H296  1  0.696700  0.180500  0.941900  1
  H  H297  1  0.254200  0.322200  0.385200  1
  H  H298  1  0.245800  0.822200  0.114800  1
  H  H299  1  0.745800  0.677800  0.614800  1
  H  H300  1  0.754200  0.177800  0.885200  1
  H  H301  1  0.304700  0.272900  0.390400  1
  H  H302  1  0.195300  0.772900  0.109600  1
  H  H303  1  0.695300  0.727100  0.609600  1
  H  H304  1  0.804700  0.227100  0.890400  1
  H  H305  1  0.378700  0.259500  0.438300  1
  H  H306  1  0.121300  0.759500  0.061700  1
  H  H307  1  0.621300  0.740500  0.561700  1
  H  H308  1  0.878700  0.240500  0.938300  1
  H  H309  1  0.376000  0.297000  0.470200  1
  H  H310  1  0.124000  0.797000  0.029800  1
  H  H311  1  0.624000  0.703000  0.529800  1
  H  H312  1  0.876000  0.203000  0.970200  1
  H  H313  1  0.385400  0.345900  0.504200  1
  H  H314  1  0.114600  0.845900  0.995800  1
  H  H315  1  0.614600  0.654100  0.495800  1
  H  H316  1  0.885400  0.154100  0.004200  1
  H  H317  1  0.377200  0.389500  0.535400  1
  H  H318  1  0.122800  0.889500  0.964600  1
  H  H319  1  0.622800  0.610500  0.464600  1
  H  H320  1  0.877200  0.110500  0.035400  1
  H  H321  1  0.332300  0.440400  0.522100  1
  H  H322  1  0.167700  0.940400  0.977900  1
  H  H323  1  0.667700  0.559600  0.477900  1
  H  H324  1  0.832300  0.059600  0.022100  1
  H  H325  1  0.257500  0.445300  0.470200  1
  H  H326  1  0.242500  0.945300  0.029800  1
  H  H327  1  0.742500  0.554700  0.529800  1
  H  H328  1  0.757500  0.054700  0.970200  1
  H  H329  1  0.244200  0.621700  0.072300  1
  H  H330  1  0.255800  0.121700  0.427700  1
  H  H331  1  0.755800  0.378300  0.927700  1
  H  H332  1  0.744200  0.878300  0.572300  1
  H  H333  1  0.207500  0.606400  0.025100  1
  H  H334  1  0.292500  0.106400  0.474900  1
  H  H335  1  0.792500  0.393600  0.974900  1
  H  H336  1  0.707500  0.893600  0.525100  1
  H  H337  1  0.105500  0.614400  0.000600  1
  H  H338  1  0.394500  0.114400  0.499400  1
  H  H339  1  0.894500  0.385600  0.999400  1
  H  H340  1  0.605500  0.885600  0.500600  1
  H  H341  1  0.061900  0.664300  0.015000  1
  H  H342  1  0.438100  0.164300  0.485000  1
  H  H343  1  0.938100  0.335700  0.985000  1
  H  H344  1  0.561900  0.835700  0.515000  1
  H  H345  1  0.019800  0.699200  0.037800  1
  H  H346  1  0.480200  0.199200  0.462200  1
  H  H347  1  0.980200  0.300800  0.962200  1
  H  H348  1  0.519800  0.800800  0.537800  1
  H  H349  1  0.982700  0.734600  0.070000  1
  H  H350  1  0.517300  0.234600  0.430000  1
  H  H351  1  0.017300  0.265400  0.930000  1
  H  H352  1  0.482700  0.765400  0.570000  1
  H  H353  1  0.032700  0.750800  0.114700  1
  H  H354  1  0.467300  0.250800  0.385300  1
  H  H355  1  0.967300  0.249200  0.885300  1
  H  H356  1  0.532700  0.749200  0.614700  1
  H  H357  1  0.128500  0.728100  0.136000  1
  H  H358  1  0.371500  0.228100  0.364000  1
  H  H359  1  0.871500  0.271900  0.864000  1
  H  H360  1  0.628500  0.771900  0.636000  1
  H  H361  1  0.176500  0.651500  0.176400  1
  H  H362  1  0.323500  0.151500  0.323600  1
  H  H363  1  0.823500  0.348500  0.823600  1
  H  H364  1  0.676500  0.848500  0.676400  1
  H  H365  1  0.203400  0.681000  0.223400  1
  H  H366  1  0.296600  0.181000  0.276600  1
  H  H367  1  0.796600  0.319000  0.776600  1
  H  H368  1  0.703400  0.819000  0.723400  1
  H  H369  1  0.256000  0.735200  0.224300  1
  H  H370  1  0.244000  0.235200  0.275700  1
  H  H371  1  0.744000  0.264800  0.775700  1
  H  H372  1  0.756000  0.764800  0.724300  1
  H  H373  1  0.288800  0.754400  0.185200  1
  H  H374  1  0.211200  0.254400  0.314800  1
  H  H375  1  0.711200  0.245600  0.814800  1
  H  H376  1  0.788800  0.745600  0.685200  1
  H  H377  1  0.322300  0.763200  0.148300  1
  H  H378  1  0.177700  0.263200  0.351700  1
  H  H379  1  0.677700  0.236800  0.851700  1
  H  H380  1  0.822300  0.736800  0.648300  1
  H  H381  1  0.354800  0.769800  0.107600  1
  H  H382  1  0.145200  0.269800  0.392400  1
  H  H383  1  0.645200  0.230200  0.892400  1
  H  H384  1  0.854800  0.730200  0.607600  1
  H  H385  1  0.312100  0.744300  0.064600  1
  H  H386  1  0.187900  0.244300  0.435400  1
  H  H387  1  0.687900  0.255700  0.935400  1
  H  H388  1  0.812100  0.755700  0.564600  1
  H  H389  1  0.246100  0.695600  0.066300  1
  H  H390  1  0.253900  0.195600  0.433700  1
  H  H391  1  0.753900  0.304400  0.933700  1
  H  H392  1  0.746100  0.804400  0.566300  1
  H  H393  1  0.237000  0.315800  0.048600  1
  H  H394  1  0.263000  0.815800  0.451400  1
  H  H395  1  0.763000  0.684200  0.951400  1
  H  H396  1  0.737000  0.184200  0.548600  1
  H  H397  1  0.282600  0.350000  0.020500  1
  H  H398  1  0.217400  0.850000  0.479500  1
  H  H399  1  0.717400  0.650000  0.979500  1
  H  H400  1  0.782600  0.150000  0.520500  1
  H  H401  1  0.355400  0.326100  0.002100  1
  H  H402  1  0.144600  0.826100  0.497900  1
  H  H403  1  0.644600  0.673900  0.997900  1
  H  H404  1  0.855400  0.173900  0.502100  1
  H  H405  1  0.382500  0.267900  0.011700  1
  H  H406  1  0.117500  0.767900  0.488300  1
  H  H407  1  0.617500  0.732100  0.988300  1
  H  H408  1  0.882500  0.232100  0.511700  1
  H  H409  1  0.416200  0.222100  0.023800  1
  H  H410  1  0.083800  0.722100  0.476200  1
  H  H411  1  0.583800  0.777900  0.976200  1
  H  H412  1  0.916200  0.277900  0.523800  1
  H  H413  1  0.441400  0.165300  0.039600  1
  H  H414  1  0.058600  0.665300  0.460400  1
  H  H415  1  0.558600  0.834700  0.960400  1
  H  H416  1  0.941400  0.334700  0.539600  1
  H  H417  1  0.389200  0.135900  0.067400  1
  H  H418  1  0.110800  0.635900  0.432600  1
  H  H419  1  0.610800  0.864100  0.932600  1
  H  H420  1  0.889200  0.364100  0.567400  1
  H  H421  1  0.311800  0.163300  0.079500  1
  H  H422  1  0.188200  0.663300  0.420500  1
  H  H423  1  0.688200  0.836700  0.920500  1
  H  H424  1  0.811800  0.336700  0.579500  1
  H  H425  1  0.203400  0.247200  0.005800  1
  H  H426  1  0.296600  0.747200  0.494200  1
  H  H427  1  0.796600  0.752800  0.994200  1
  H  H428  1  0.703400  0.252800  0.505800  1
  H  H429  1  0.148100  0.216100  0.966900  1
  H  H430  1  0.351900  0.716100  0.533100  1
  H  H431  1  0.851900  0.783900  0.033100  1
  H  H432  1  0.648100  0.283900  0.466900  1
  H  H433  1  0.109800  0.162000  0.974500  1
  H  H434  1  0.390200  0.662000  0.525500  1
  H  H435  1  0.890200  0.838000  0.025500  1
  H  H436  1  0.609800  0.338000  0.474500  1
  H  H437  1  0.126700  0.138900  0.021000  1
  H  H438  1  0.373300  0.638900  0.479000  1
  H  H439  1  0.873300  0.861100  0.979000  1
  H  H440  1  0.626700  0.361100  0.521000  1
  H  H441  1  0.138900  0.128400  0.072100  1
  H  H442  1  0.361100  0.628400  0.427900  1
  H  H443  1  0.861100  0.871600  0.927900  1
  H  H444  1  0.638900  0.371600  0.572100  1
  H  H445  1  0.165500  0.121200  0.122000  1
  H  H446  1  0.334500  0.621200  0.378000  1
  H  H447  1  0.834500  0.878800  0.878000  1
  H  H448  1  0.665500  0.378800  0.622000  1
  H  H449  1  0.227900  0.161000  0.150500  1
  H  H450  1  0.272100  0.661000  0.349500  1
  H  H451  1  0.772100  0.839000  0.849500  1
  H  H452  1  0.727900  0.339000  0.650500  1
  H  H453  1  0.263700  0.207900  0.129200  1
  H  H454  1  0.236300  0.707900  0.370800  1
  H  H455  1  0.736300  0.792100  0.870800  1
  H  H456  1  0.763700  0.292100  0.629200  1
  H  H457  1  0.316200  0.524700  0.326500  1
  H  H458  1  0.183800  0.024700  0.173500  1
  H  H459  1  0.683800  0.475300  0.673500  1
  H  H460  1  0.816200  0.975300  0.826500  1
  H  H461  1  0.264600  0.519100  0.298800  1
  H  H462  1  0.235400  0.019100  0.201200  1
  H  H463  1  0.735400  0.480900  0.701200  1
  H  H464  1  0.764600  0.980900  0.798800  1
  H  H465  1  0.321500  0.496200  0.302900  1
  H  H466  1  0.178500  0.996200  0.197100  1
  H  H467  1  0.678500  0.503800  0.697100  1
  H  H468  1  0.821500  0.003800  0.802900  1
  H  H469  1  0.446500  0.354400  0.338300  1
  H  H470  1  0.053500  0.854400  0.161700  1
  H  H471  1  0.553500  0.645600  0.661700  1
  H  H472  1  0.946500  0.145600  0.838300  1
  H  H473  1  0.474700  0.317300  0.348300  1
  H  H474  1  0.025300  0.817300  0.151700  1
  H  H475  1  0.525300  0.682700  0.651700  1
  H  H476  1  0.974700  0.182700  0.848300  1
  H  H477  1  0.448500  0.340200  0.369900  1
  H  H478  1  0.051500  0.840200  0.130100  1
  H  H479  1  0.551500  0.659800  0.630100  1
  H  H480  1  0.948500  0.159800  0.869900  1
  H  H481  1  0.467400  0.525300  0.107700  1
  H  H482  1  0.032600  0.025300  0.392300  1
  H  H483  1  0.532600  0.474700  0.892300  1
  H  H484  1  0.967400  0.974700  0.607700  1
  H  H485  1  0.471600  0.523500  0.074900  1
  H  H486  1  0.028400  0.023500  0.425100  1
  H  H487  1  0.528400  0.476500  0.925100  1
  H  H488  1  0.971600  0.976500  0.574900  1
  H  H489  1  0.416800  0.540700  0.082600  1
  H  H490  1  0.083200  0.040700  0.417400  1
  H  H491  1  0.583200  0.459300  0.917400  1
  H  H492  1  0.916800  0.959300  0.582600  1
  H  H493  1  0.096700  0.814000  0.416800  1
  H  H494  1  0.403300  0.314000  0.083200  1
  H  H495  1  0.903300  0.186000  0.583200  1
  H  H496  1  0.596700  0.686000  0.916800  1
  H  H497  1  0.055300  0.791100  0.430900  1
  H  H498  1  0.444700  0.291100  0.069100  1
  H  H499  1  0.944700  0.208900  0.569100  1
  H  H500  1  0.555300  0.708900  0.930900  1
  H  H501  1  0.048300  0.832600  0.429000  1
  H  H502  1  0.451700  0.332600  0.071000  1
  H  H503  1  0.951700  0.167400  0.571000  1
  H  H504  1  0.548300  0.667400  0.929000  1
  H  H505  1  0.693000  0.754500  0.293700  1
  H  H506  1  0.807000  0.254500  0.206300  1
  H  H507  1  0.307000  0.245500  0.706300  1
  H  H508  1  0.193000  0.745500  0.793700  1
  H  H509  1  0.760300  0.747600  0.301000  1
  H  H510  1  0.739700  0.247600  0.199000  1
  H  H511  1  0.239700  0.252400  0.699000  1
  H  H512  1  0.260300  0.752400  0.801000  1
  H  H513  1  0.733200  0.778800  0.280000  1
  H  H514  1  0.766800  0.278800  0.220000  1
  H  H515  1  0.266800  0.221200  0.720000  1
  H  H516  1  0.233200  0.721200  0.780000  1
  H  H517  1  0.987300  0.772600  0.254800  1
  H  H518  1  0.512700  0.272600  0.245200  1
  H  H519  1  0.012700  0.227400  0.745200  1
  H  H520  1  0.487300  0.727400  0.754800  1
  H  H521  1  0.969600  0.754500  0.157600  1
  H  H522  1  0.530400  0.254500  0.342400  1
  H  H523  1  0.030400  0.245500  0.842400  1
  H  H524  1  0.469600  0.745500  0.657600  1
  H  H525  1  0.084500  0.703600  0.201600  1
  H  H526  1  0.415500  0.203600  0.298400  1
  H  H527  1  0.915500  0.296400  0.798400  1
  H  H528  1  0.584500  0.796400  0.701600  1
  H  H529  1  0.060300  0.717100  0.169400  1
  H  H530  1  0.439700  0.217100  0.330600  1
  H  H531  1  0.939700  0.282900  0.830600  1
  H  H532  1  0.560300  0.782900  0.669400  1
  H  H533  1  0.976500  0.689000  0.138700  1
  H  H534  1  0.523500  0.189000  0.361300  1
  H  H535  1  0.023500  0.311000  0.861300  1
  H  H536  1  0.476500  0.811000  0.638700  1
  H  H537  1  0.979300  0.602400  0.205700  1
  H  H538  1  0.520700  0.102400  0.294300  1
  H  H539  1  0.020700  0.397600  0.794300  1
  H  H540  1  0.479300  0.897600  0.705700  1
  H  H541  1  0.070500  0.623800  0.233100  1
  H  H542  1  0.429500  0.123800  0.266900  1
  H  H543  1  0.929500  0.376200  0.766900  1
  H  H544  1  0.570500  0.876200  0.733100  1
  H  H545  1  0.090100  0.663000  0.229500  1
  H  H546  1  0.409900  0.163000  0.270500  1
  H  H547  1  0.909900  0.337000  0.770500  1
  H  H548  1  0.590100  0.837000  0.729500  1
  H  H549  1  0.003200  0.611600  0.261900  1
  H  H550  1  0.496800  0.111600  0.238100  1
  H  H551  1  0.996800  0.388400  0.738100  1
  H  H552  1  0.503200  0.888400  0.761900  1
  H  H553  1  0.011900  0.725900  0.292700  1
  H  H554  1  0.488100  0.225900  0.207300  1
  H  H555  1  0.988100  0.274100  0.707300  1
  H  H556  1  0.511900  0.774100  0.792700  1
  H  H557  1  0.078200  0.741300  0.264800  1
  H  H558  1  0.421800  0.241300  0.235200  1
  H  H559  1  0.921800  0.258700  0.735200  1
  H  H560  1  0.578200  0.758700  0.764800  1
  H  H561  1  0.092600  0.714200  0.242300  1
  H  H562  1  0.407400  0.214200  0.257700  1
  H  H563  1  0.907400  0.285800  0.757700  1
  H  H564  1  0.592600  0.785800  0.742300  1
  H  H565  1  0.895200  0.788900  0.258000  1
  H  H566  1  0.604800  0.288900  0.242000  1
  H  H567  1  0.104800  0.211100  0.742000  1
  H  H568  1  0.395200  0.711100  0.758000  1
  H  H569  1  0.875800  0.828700  0.252600  1
  H  H570  1  0.624200  0.328700  0.247400  1
  H  H571  1  0.124200  0.171300  0.747400  1
  H  H572  1  0.375800  0.671300  0.752600  1
  H  H573  1  0.942300  0.819000  0.261400  1
  H  H574  1  0.557700  0.319000  0.238600  1
  H  H575  1  0.057700  0.181000  0.738600  1
  H  H576  1  0.442300  0.681000  0.761400  1
  H  H577  1  0.872100  0.896000  0.154300  1
  H  H578  1  0.627900  0.396000  0.345700  1
  H  H579  1  0.127900  0.104000  0.845700  1
  H  H580  1  0.372100  0.604000  0.654300  1
  H  H581  1  0.786500  0.920800  0.128400  1
  H  H582  1  0.713500  0.420800  0.371600  1
  H  H583  1  0.213500  0.079200  0.871600  1
  H  H584  1  0.286500  0.579200  0.628400  1
  H  H585  1  0.718900  0.830500  0.106200  1
  H  H586  1  0.781100  0.330500  0.393800  1
  H  H587  1  0.281100  0.169500  0.893800  1
  H  H588  1  0.218900  0.669500  0.606200  1
  H  H589  1  0.799600  0.801900  0.134500  1
  H  H590  1  0.700400  0.301900  0.365500  1
  H  H591  1  0.200400  0.198100  0.865500  1
  H  H592  1  0.299600  0.698100  0.634500  1
  H  H593  1  0.890400  0.691000  0.100200  1
  H  H594  1  0.609600  0.191000  0.399800  1
  H  H595  1  0.109600  0.309000  0.899800  1
  H  H596  1  0.390400  0.809000  0.600200  1
  H  H597  1  0.877800  0.658500  0.078700  1
  H  H598  1  0.622200  0.158500  0.421300  1
  H  H599  1  0.122200  0.341500  0.921300  1
  H  H600  1  0.377800  0.841500  0.578700  1
  H  H601  1  0.942000  0.667500  0.095500  1
  H  H602  1  0.558000  0.167500  0.404500  1
  H  H603  1  0.058000  0.332500  0.904500  1
  H  H604  1  0.442000  0.832500  0.595500  1
  H  H605  1  0.842100  0.532500  0.095800  1
  H  H606  1  0.657900  0.032500  0.404200  1
  H  H607  1  0.157900  0.467500  0.904200  1
  H  H608  1  0.342100  0.967500  0.595800  1
  H  H609  1  0.772500  0.488100  0.095400  1
  H  H610  1  0.727500  0.988100  0.404600  1
  H  H611  1  0.227500  0.511900  0.904600  1
  H  H612  1  0.272500  0.011900  0.595400  1
  H  H613  1  0.752600  0.517300  0.170700  1
  H  H614  1  0.747400  0.017300  0.329300  1
  H  H615  1  0.247400  0.482700  0.829300  1
  H  H616  1  0.252600  0.982700  0.670700  1
  H  H617  1  0.831400  0.556200  0.175600  1
  H  H618  1  0.668600  0.056200  0.324400  1
  H  H619  1  0.168600  0.443800  0.824400  1
  H  H620  1  0.331400  0.943800  0.675600  1
  H  H621  1  0.928600  0.585300  0.273300  1
  H  H622  1  0.571400  0.085300  0.226700  1
  H  H623  1  0.071400  0.414700  0.726700  1
  H  H624  1  0.428600  0.914700  0.773300  1
  H  H625  1  0.919200  0.573800  0.303800  1
  H  H626  1  0.580800  0.073800  0.196200  1
  H  H627  1  0.080800  0.426200  0.696200  1
  H  H628  1  0.419200  0.926200  0.803800  1
  H  H629  1  0.981800  0.572700  0.298200  1
  H  H630  1  0.518200  0.072700  0.201800  1
  H  H631  1  0.018200  0.427300  0.701800  1
  H  H632  1  0.481800  0.927300  0.798200  1
  H  H633  1  0.889300  0.726700  0.339500  1
  H  H634  1  0.610700  0.226700  0.160500  1
  H  H635  1  0.110700  0.273300  0.660500  1
  H  H636  1  0.389300  0.773300  0.839500  1
  H  H637  1  0.839200  0.740500  0.371300  1
  H  H638  1  0.660800  0.240500  0.128700  1
  H  H639  1  0.160800  0.259500  0.628700  1
  H  H640  1  0.339200  0.759500  0.871300  1
  H  H641  1  0.954300  0.698500  0.433800  1
  H  H642  1  0.545700  0.198500  0.066200  1
  H  H643  1  0.045700  0.301500  0.566200  1
  H  H644  1  0.454300  0.801500  0.933800  1
  H  H645  1  0.005900  0.675400  0.403000  1
  H  H646  1  0.494100  0.175400  0.097000  1
  H  H647  1  0.994100  0.324600  0.597000  1
  H  H648  1  0.505900  0.824600  0.903000  1
  H  H649  1  0.429500  0.674700  0.147200  1
  H  H650  1  0.070500  0.174700  0.352800  1
  H  H651  1  0.570500  0.325300  0.852800  1
  H  H652  1  0.929500  0.825300  0.647200  1
  H  H653  1  0.471200  0.783100  0.189900  1
  H  H654  1  0.028800  0.283100  0.310100  1
  H  H655  1  0.528800  0.216900  0.810100  1
  H  H656  1  0.971200  0.716900  0.689900  1
  H  H657  1  0.384300  0.734600  0.221700  1
  H  H658  1  0.115700  0.234600  0.278300  1
  H  H659  1  0.615700  0.265400  0.778300  1
  H  H660  1  0.884300  0.765400  0.721700  1
  H  H661  1  0.408000  0.772800  0.218900  1
  H  H662  1  0.092000  0.272800  0.281100  1
  H  H663  1  0.592000  0.227200  0.781100  1
  H  H664  1  0.908000  0.727200  0.718900  1
  H  H665  1  0.503100  0.787400  0.239200  1
  H  H666  1  0.996900  0.287400  0.260800  1
  H  H667  1  0.496900  0.212600  0.760800  1
  H  H668  1  0.003100  0.712600  0.739200  1
  H  H669  1  0.513500  0.696100  0.305400  1
  H  H670  1  0.986500  0.196100  0.194600  1
  H  H671  1  0.486500  0.303900  0.694600  1
  H  H672  1  0.013500  0.803900  0.805400  1
  H  H673  1  0.420200  0.672700  0.278700  1
  H  H674  1  0.079800  0.172700  0.221300  1
  H  H675  1  0.579800  0.327300  0.721300  1
  H  H676  1  0.920200  0.827300  0.778700  1
  H  H677  1  0.387100  0.690100  0.249000  1
  H  H678  1  0.112900  0.190100  0.251000  1
  H  H679  1  0.612900  0.309900  0.751000  1
  H  H680  1  0.887100  0.809900  0.749000  1
  H  H681  1  0.501200  0.635400  0.280900  1
  H  H682  1  0.998800  0.135400  0.219100  1
  H  H683  1  0.498800  0.364600  0.719100  1
  H  H684  1  0.001200  0.864600  0.780900  1
  H  H685  1  0.458100  0.627700  0.180300  1
  H  H686  1  0.041900  0.127700  0.319700  1
  H  H687  1  0.541900  0.372300  0.819700  1
  H  H688  1  0.958100  0.872300  0.680300  1
  H  H689  1  0.366900  0.660900  0.179200  1
  H  H690  1  0.133100  0.160900  0.320800  1
  H  H691  1  0.633100  0.339100  0.820800  1
  H  H692  1  0.866900  0.839100  0.679200  1
  H  H693  1  0.365800  0.686400  0.205500  1
  H  H694  1  0.134200  0.186400  0.294500  1
  H  H695  1  0.634200  0.313600  0.794500  1
  H  H696  1  0.865800  0.813600  0.705500  1
  H  H697  1  0.520000  0.665100  0.120000  1
  H  H698  1  0.980000  0.165100  0.380000  1
  H  H699  1  0.480000  0.334900  0.880000  1
  H  H700  1  0.020000  0.834900  0.620000  1
  H  H701  1  0.476000  0.676500  0.090800  1
  H  H702  1  0.024000  0.176500  0.409200  1
  H  H703  1  0.524000  0.323500  0.909200  1
  H  H704  1  0.976000  0.823500  0.590800  1
  H  H705  1  0.453200  0.667700  0.118600  1
  H  H706  1  0.046800  0.167700  0.381400  1
  H  H707  1  0.546800  0.332300  0.881400  1
  H  H708  1  0.953200  0.832300  0.618600  1
  H  H709  1  0.598500  0.813600  0.152900  1
  H  H710  1  0.901500  0.313600  0.347100  1
  H  H711  1  0.401500  0.186400  0.847100  1
  H  H712  1  0.098500  0.686400  0.652900  1
  H  H713  1  0.662300  0.854300  0.142200  1
  H  H714  1  0.837700  0.354300  0.357800  1
  H  H715  1  0.337700  0.145700  0.857800  1
  H  H716  1  0.162300  0.645700  0.642200  1
  H  H717  1  0.552900  0.872600  0.065000  1
  H  H718  1  0.947100  0.372600  0.435000  1
  H  H719  1  0.447100  0.127400  0.935000  1
  H  H720  1  0.052900  0.627400  0.565000  1
  H  H721  1  0.489100  0.831800  0.075700  1
  H  H722  1  0.010900  0.331800  0.424300  1
  H  H723  1  0.510900  0.168200  0.924300  1
  H  H724  1  0.989100  0.668200  0.575700  1
  H  H725  1  0.606500  0.803600  0.244500  1
  H  H726  1  0.893500  0.303600  0.255500  1
  H  H727  1  0.393500  0.196400  0.755500  1
  H  H728  1  0.106500  0.696400  0.744500  1
  H  H729  1  0.632100  0.831200  0.269300  1
  H  H730  1  0.867900  0.331200  0.230700  1
  H  H731  1  0.367900  0.168800  0.730700  1
  H  H732  1  0.132100  0.668800  0.769300  1
  H  H733  1  0.564500  0.828200  0.256800  1
  H  H734  1  0.935500  0.328200  0.243200  1
  H  H735  1  0.435500  0.171800  0.743200  1
  H  H736  1  0.064500  0.671800  0.756800  1
  H  H737  1  0.652100  0.797900  0.384300  1
  H  H738  1  0.847900  0.297900  0.115700  1
  H  H739  1  0.347900  0.202100  0.615700  1
  H  H740  1  0.152100  0.702100  0.884300  1
  H  H741  1  0.741900  0.788300  0.418700  1
  H  H742  1  0.758100  0.288300  0.081300  1
  H  H743  1  0.258100  0.211700  0.581300  1
  H  H744  1  0.241900  0.711700  0.918700  1
  H  H745  1  0.771400  0.699500  0.385600  1
  H  H746  1  0.728600  0.199500  0.114400  1
  H  H747  1  0.228600  0.300500  0.614400  1
  H  H748  1  0.271400  0.800500  0.885600  1
  H  H749  1  0.679000  0.703600  0.349600  1
  H  H750  1  0.821000  0.203600  0.150400  1
  H  H751  1  0.321000  0.296400  0.650400  1
  H  H752  1  0.179000  0.796400  0.849600  1
  H  H753  1  0.586100  0.610900  0.299300  1
  H  H754  1  0.913900  0.110900  0.200700  1
  H  H755  1  0.413900  0.389100  0.700700  1
  H  H756  1  0.086100  0.889100  0.799300  1
  H  H757  1  0.602700  0.570500  0.301000  1
  H  H758  1  0.897300  0.070500  0.199000  1
  H  H759  1  0.397300  0.429500  0.699000  1
  H  H760  1  0.102700  0.929500  0.801000  1
  H  H761  1  0.538500  0.582000  0.299700  1
  H  H762  1  0.961500  0.082000  0.200300  1
  H  H763  1  0.461500  0.418000  0.700300  1
  H  H764  1  0.038500  0.918000  0.799700  1
  H  H765  1  0.550700  0.526400  0.190000  1
  H  H766  1  0.949300  0.026400  0.310000  1
  H  H767  1  0.449300  0.473600  0.810000  1
  H  H768  1  0.050700  0.973600  0.690000  1
  H  H769  1  0.593500  0.478800  0.165600  1
  H  H770  1  0.906500  0.978800  0.334400  1
  H  H771  1  0.406500  0.521200  0.834400  1
  H  H772  1  0.093500  0.021200  0.665600  1
  H  H773  1  0.681500  0.548400  0.132000  1
  H  H774  1  0.818500  0.048400  0.368000  1
  H  H775  1  0.318500  0.451600  0.868000  1
  H  H776  1  0.181500  0.951600  0.632000  1
  H  H777  1  0.628000  0.598300  0.145600  1
  H  H778  1  0.872000  0.098300  0.354400  1
  H  H779  1  0.372000  0.401700  0.854400  1
  H  H780  1  0.128000  0.901700  0.645600  1
  H  H781  1  0.760500  0.894100  0.019500  1
  H  H782  1  0.739500  0.394100  0.480500  1
  H  H783  1  0.239500  0.105900  0.980500  1
  H  H784  1  0.260500  0.605900  0.519500  1
  H  H785  1  0.737600  0.838200  0.000800  1
  H  H786  1  0.762400  0.338200  0.499200  1
  H  H787  1  0.262400  0.161800  0.999200  1
  H  H788  1  0.237600  0.661800  0.500800  1
  H  H789  1  0.678800  0.802100  0.020300  1
  H  H790  1  0.821200  0.302100  0.479700  1
  H  H791  1  0.321200  0.197900  0.979700  1
  H  H792  1  0.178800  0.697900  0.520300  1
  H  H793  1  0.642900  0.821800  0.058500  1
  H  H794  1  0.857100  0.321800  0.441500  1
  H  H795  1  0.357100  0.178200  0.941500  1
  H  H796  1  0.142900  0.678200  0.558500  1
  H  H797  1  0.800900  0.942000  0.028800  1
  H  H798  1  0.699100  0.442000  0.471200  1
  H  H799  1  0.199100  0.058000  0.971200  1
  H  H800  1  0.300900  0.558000  0.528800  1
  H  H801  1  0.823200  0.995900  0.051500  1
  H  H802  1  0.676800  0.495900  0.448500  1
  H  H803  1  0.176800  0.004100  0.948500  1
  H  H804  1  0.323200  0.504100  0.551500  1
  H  H805  1  0.781700  0.012200  0.088800  1
  H  H806  1  0.718300  0.512200  0.411200  1
  H  H807  1  0.218300  0.987800  0.911200  1
  H  H808  1  0.281700  0.487800  0.588800  1
  H  H809  1  0.717900  0.974600  0.103400  1
  H  H810  1  0.782100  0.474600  0.396600  1
  H  H811  1  0.282100  0.025400  0.896600  1
  H  H812  1  0.217900  0.525400  0.603400  1
  H  H813  1  0.602200  0.904500  0.023600  1
  H  H814  1  0.897800  0.404500  0.476400  1
  H  H815  1  0.397800  0.095500  0.976400  1
  H  H816  1  0.102200  0.595500  0.523600  1
  H  H817  1  0.523100  0.935200  0.997100  1
  H  H818  1  0.976900  0.435200  0.502900  1
  H  H819  1  0.476900  0.064800  0.002900  1
  H  H820  1  0.023100  0.564800  0.497100  1
  H  H821  1  0.482200  0.979500  0.018900  1
  H  H822  1  0.017800  0.479500  0.481100  1
  H  H823  1  0.517800  0.020500  0.981100  1
  H  H824  1  0.982200  0.520500  0.518900  1
  H  H825  1  0.520400  0.993100  0.067300  1
  H  H826  1  0.979600  0.493100  0.432700  1
  H  H827  1  0.479600  0.006900  0.932700  1
  H  H828  1  0.020400  0.506900  0.567300  1
  H  H829  1  0.557400  0.996600  0.120000  1
  H  H830  1  0.942600  0.496600  0.380000  1
  H  H831  1  0.442600  0.003400  0.880000  1
  H  H832  1  0.057400  0.503400  0.620000  1
  H  H833  1  0.603200  0.994700  0.169000  1
  H  H834  1  0.896800  0.494700  0.331000  1
  H  H835  1  0.396800  0.005300  0.831000  1
  H  H836  1  0.103200  0.505300  0.669000  1
  H  H837  1  0.679300  0.956200  0.185500  1
  H  H838  1  0.820700  0.456200  0.314500  1
  H  H839  1  0.320700  0.043800  0.814500  1
  H  H840  1  0.179300  0.543800  0.685500  1
  H  H841  1  0.709700  0.919800  0.153100  1
  H  H842  1  0.790300  0.419800  0.346900  1
  H  H843  1  0.290300  0.080200  0.846900  1
  H  H844  1  0.209700  0.580200  0.653100  1
  H  H845  1  0.818000  0.800900  0.393400  1
  H  H846  1  0.682000  0.300900  0.106600  1
  H  H847  1  0.182000  0.199100  0.606600  1
  H  H848  1  0.318000  0.699100  0.893400  1
  H  H849  1  0.843400  0.860300  0.391900  1
  H  H850  1  0.656600  0.360300  0.108100  1
  H  H851  1  0.156600  0.139700  0.608100  1
  H  H852  1  0.343400  0.639700  0.891900  1
  H  H853  1  0.939600  0.877800  0.421700  1
  H  H854  1  0.560400  0.377800  0.078300  1
  H  H855  1  0.060400  0.122200  0.578300  1
  H  H856  1  0.439600  0.622200  0.921700  1
  H  H857  1  0.973500  0.842500  0.464000  1
  H  H858  1  0.526500  0.342500  0.036000  1
  H  H859  1  0.026500  0.157500  0.536000  1
  H  H860  1  0.473500  0.657500  0.964000  1
  H  H861  1  0.010800  0.802100  0.496300  1
  H  H862  1  0.489200  0.302100  0.003700  1
  H  H863  1  0.989200  0.197900  0.503700  1
  H  H864  1  0.510800  0.697900  0.996300  1
  H  H865  1  0.046800  0.756100  0.527400  1
  H  H866  1  0.453200  0.256100  0.972600  1
  H  H867  1  0.953200  0.243900  0.472600  1
  H  H868  1  0.546800  0.743900  0.027400  1
  H  H869  1  0.000500  0.702100  0.521500  1
  H  H870  1  0.499500  0.202100  0.978500  1
  H  H871  1  0.999500  0.297900  0.478500  1
  H  H872  1  0.500500  0.797900  0.021500  1
  H  H873  1  0.918200  0.694100  0.484500  1
  H  H874  1  0.581800  0.194100  0.015500  1
  H  H875  1  0.081800  0.305900  0.515500  1
  H  H876  1  0.418200  0.805900  0.984500  1
  H  H877  1  0.805700  0.808600  0.467000  1
  H  H878  1  0.694300  0.308600  0.033000  1
  H  H879  1  0.194300  0.191400  0.533000  1
  H  H880  1  0.305700  0.691400  0.967000  1
  H  H881  1  0.748200  0.817000  0.499200  1
  H  H882  1  0.751800  0.317000  0.000800  1
  H  H883  1  0.251800  0.183000  0.500800  1
  H  H884  1  0.248200  0.683000  0.999200  1
  H  H885  1  0.709400  0.768900  0.517700  1
  H  H886  1  0.790600  0.268900  0.982300  1
  H  H887  1  0.290600  0.231100  0.482300  1
  H  H888  1  0.209400  0.731100  0.017700  1
  H  H889  1  0.728100  0.712500  0.503900  1
  H  H890  1  0.771900  0.212500  0.996100  1
  H  H891  1  0.271900  0.287500  0.496100  1
  H  H892  1  0.228100  0.787500  0.003900  1
  H  H893  1  0.745300  0.660100  0.488400  1
  H  H894  1  0.754700  0.160100  0.011600  1
  H  H895  1  0.254700  0.339900  0.511600  1
  H  H896  1  0.245300  0.839900  0.988400  1
  H  H897  1  0.770300  0.609700  0.466900  1
  H  H898  1  0.729700  0.109700  0.033100  1
  H  H899  1  0.229700  0.390300  0.533100  1
  H  H900  1  0.270300  0.890300  0.966900  1
  H  H901  1  0.825200  0.613900  0.433100  1
  H  H902  1  0.674800  0.113900  0.066900  1
  H  H903  1  0.174800  0.386100  0.566900  1
  H  H904  1  0.325200  0.886100  0.933100  1
  H  H905  1  0.855200  0.668500  0.420800  1
  H  H906  1  0.644800  0.168500  0.079200  1
  H  H907  1  0.144800  0.331500  0.579200  1
  H  H908  1  0.355200  0.831500  0.920800  1
  H  H909  1  0.684300  0.529100  0.080700  1
  H  H910  1  0.815700  0.029100  0.419300  1
  H  H911  1  0.315700  0.470900  0.919300  1
  H  H912  1  0.184300  0.970900  0.580700  1
  H  H913  1  0.634000  0.550800  0.036200  1
  H  H914  1  0.866000  0.050800  0.463800  1
  H  H915  1  0.366000  0.449200  0.963800  1
  H  H916  1  0.134000  0.949200  0.536200  1
  H  H917  1  0.537100  0.535000  0.022200  1
  H  H918  1  0.962900  0.035000  0.477800  1
  H  H919  1  0.462900  0.465000  0.977800  1
  H  H920  1  0.037100  0.965000  0.522200  1
  H  H921  1  0.507500  0.481700  0.039600  1
  H  H922  1  0.992500  0.981700  0.460400  1
  H  H923  1  0.492500  0.518300  0.960400  1
  H  H924  1  0.007500  0.018300  0.539600  1
  H  H925  1  0.482600  0.442000  0.067800  1
  H  H926  1  0.017400  0.942000  0.432200  1
  H  H927  1  0.517400  0.558000  0.932200  1
  H  H928  1  0.982600  0.058000  0.567800  1
  H  H929  1  0.456700  0.401100  0.096700  1
  H  H930  1  0.043300  0.901100  0.403300  1
  H  H931  1  0.543300  0.598900  0.903300  1
  H  H932  1  0.956700  0.098900  0.596700  1
  H  H933  1  0.525300  0.381500  0.143800  1
  H  H934  1  0.974700  0.881500  0.356200  1
  H  H935  1  0.474700  0.618500  0.856200  1
  H  H936  1  0.025300  0.118500  0.643800  1
  H  H937  1  0.623700  0.410700  0.150400  1
  H  H938  1  0.876300  0.910700  0.349600  1
  H  H939  1  0.376300  0.589300  0.849600  1
  H  H940  1  0.123700  0.089300  0.650400  1
  H  H941  1  0.696900  0.471700  0.190800  1
  H  H942  1  0.803100  0.971700  0.309200  1
  H  H943  1  0.303100  0.528300  0.809200  1
  H  H944  1  0.196900  0.028300  0.690800  1
  H  H945  1  0.737300  0.438400  0.231700  1
  H  H946  1  0.762700  0.938400  0.268300  1
  H  H947  1  0.262700  0.561600  0.768300  1
  H  H948  1  0.237300  0.061600  0.731700  1
  H  H949  1  0.775400  0.384200  0.223100  1
  H  H950  1  0.724600  0.884200  0.276900  1
  H  H951  1  0.224600  0.615800  0.776900  1
  H  H952  1  0.275400  0.115800  0.723100  1
  H  H953  1  0.776100  0.369400  0.176900  1
  H  H954  1  0.723900  0.869400  0.323100  1
  H  H955  1  0.223900  0.630600  0.823100  1
  H  H956  1  0.276100  0.130600  0.676900  1
  H  H957  1  0.780800  0.359800  0.132300  1
  H  H958  1  0.719200  0.859800  0.367700  1
  H  H959  1  0.219200  0.640200  0.867700  1
  H  H960  1  0.280800  0.140200  0.632300  1
  H  H961  1  0.793000  0.358500  0.083000  1
  H  H962  1  0.707000  0.858500  0.417000  1
  H  H963  1  0.207000  0.641500  0.917000  1
  H  H964  1  0.293000  0.141500  0.583000  1
  H  H965  1  0.734500  0.395200  0.049200  1
  H  H966  1  0.765500  0.895200  0.450800  1
  H  H967  1  0.265500  0.604800  0.950800  1
  H  H968  1  0.234500  0.104800  0.549200  1
  H  H969  1  0.680300  0.444600  0.064700  1
  H  H970  1  0.819700  0.944600  0.435300  1
  H  H971  1  0.319700  0.555400  0.935300  1
  H  H972  1  0.180300  0.055400  0.564700  1
  H  H973  1  0.168500  0.292100  0.146100  1
  H  H974  1  0.331500  0.792100  0.353900  1
  H  H975  1  0.831500  0.707900  0.853900  1
  H  H976  1  0.668500  0.207900  0.646100  1
  H  H977  1  0.227200  0.255000  0.127300  1
  H  H978  1  0.272800  0.755000  0.372700  1
  H  H979  1  0.772800  0.745000  0.872700  1
  H  H980  1  0.727200  0.245000  0.627300  1
  H  H981  1  0.133000  0.275200  0.046800  1
  H  H982  1  0.367000  0.775200  0.453200  1
  H  H983  1  0.867000  0.724800  0.953200  1
  H  H984  1  0.633000  0.224800  0.546800  1
  H  H985  1  0.074300  0.312200  0.065600  1
  H  H986  1  0.425700  0.812200  0.434400  1
  H  H987  1  0.925700  0.687800  0.934400  1
  H  H988  1  0.574300  0.187800  0.565600  1
  Ir  Ir989  1  0.237810  0.388560  0.419470  1
  Ir  Ir990  1  0.262190  0.888560  0.080530  1
  Ir  Ir991  1  0.762190  0.611440  0.580530  1
  Ir  Ir992  1  0.737810  0.111440  0.919470  1
  Ir  Ir993  1  0.193130  0.664040  0.115148  1
  Ir  Ir994  1  0.306870  0.164040  0.384852  1
  Ir  Ir995  1  0.806870  0.335960  0.884852  1
  Ir  Ir996  1  0.693130  0.835960  0.615148  1
  Ir  Ir997  1  0.253640  0.235980  0.069850  1
  Ir  Ir998  1  0.246360  0.735980  0.430150  1
  Ir  Ir999  1  0.746360  0.764020  0.930150  1
  Ir  Ir1000  1  0.753640  0.264020  0.569850  1
  Ir  Ir1001  1  0.671650  0.903570  0.088200  1
  Ir  Ir1002  1  0.828350  0.403570  0.411800  1
  Ir  Ir1003  1  0.328350  0.096430  0.911800  1
  Ir  Ir1004  1  0.171650  0.596430  0.588200  1
  Ir  Ir1005  1  0.674710  0.471692  0.125185  1
  Ir  Ir1006  1  0.825290  0.971692  0.374815  1
  Ir  Ir1007  1  0.325290  0.528308  0.874815  1
  Ir  Ir1008  1  0.174710  0.028308  0.625185  1
  Ir  Ir1009  1  0.844530  0.741580  0.436855  1
  Ir  Ir1010  1  0.655470  0.241580  0.063145  1
  Ir  Ir1011  1  0.155470  0.258420  0.563145  1
  Ir  Ir1012  1  0.344530  0.758420  0.936855  1
  C  C1013  1  0.958830  0.372070  0.192690  1
  C  C1014  1  0.541170  0.872070  0.307310  1
  C  C1015  1  0.041170  0.627930  0.807310  1
  C  C1016  1  0.458830  0.127930  0.692690  1
  C  C1017  1  0.003830  0.348930  0.201250  1
  C  C1018  1  0.496170  0.848930  0.298750  1
  C  C1019  1  0.996170  0.651070  0.798750  1
  C  C1020  1  0.503830  0.151070  0.701250  1
  C  C1021  1  0.044590  0.352720  0.228370  1
  C  C1022  1  0.455410  0.852720  0.271630  1
  C  C1023  1  0.955410  0.647280  0.771630  1
  C  C1024  1  0.544590  0.147280  0.728370  1
  C  C1025  1  0.034060  0.378560  0.246630  1
  C  C1026  1  0.465940  0.878560  0.253370  1
  C  C1027  1  0.965940  0.621440  0.753370  1
  C  C1028  1  0.534060  0.121440  0.746630  1
  C  C1029  1  0.991340  0.404970  0.241550  1
  C  C1030  1  0.508660  0.904970  0.258450  1
  C  C1031  1  0.008660  0.595030  0.758450  1
  C  C1032  1  0.491340  0.095030  0.741550  1
  C  C1033  1  0.950980  0.400970  0.212510  1
  C  C1034  1  0.549020  0.900970  0.287490  1
  C  C1035  1  0.049020  0.599030  0.787490  1
  C  C1036  1  0.450980  0.099030  0.712510  1
  C  C1037  1  0.903960  0.429000  0.205300  1
  C  C1038  1  0.596040  0.929000  0.294700  1
  C  C1039  1  0.096040  0.571000  0.794700  1
  C  C1040  1  0.403960  0.071000  0.705300  1
  C  C1041  1  0.932520  0.460160  0.191240  1
  C  C1042  1  0.567480  0.960160  0.308760  1
  C  C1043  1  0.067480  0.539840  0.808760  1
  C  C1044  1  0.432520  0.039840  0.691240  1
  C  C1045  1  0.963590  0.483370  0.209750  1
  C  C1046  1  0.536410  0.983370  0.290250  1
  C  C1047  1  0.036410  0.516630  0.790250  1
  C  C1048  1  0.463590  0.016630  0.709750  1
  C  C1049  1  0.995320  0.512550  0.196320  1
  C  C1050  1  0.504680  0.012550  0.303680  1
  C  C1051  1  0.004680  0.487450  0.803680  1
  C  C1052  1  0.495320  0.987450  0.696320  1
  C  C1053  1  0.986640  0.511830  0.171100  1
  C  C1054  1  0.513360  0.011830  0.328900  1
  C  C1055  1  0.013360  0.488170  0.828900  1
  C  C1056  1  0.486640  0.988170  0.671100  1
  C  C1057  1  0.957440  0.491950  0.150420  1
  C  C1058  1  0.542560  0.991950  0.349580  1
  C  C1059  1  0.042560  0.508050  0.849580  1
  C  C1060  1  0.457440  0.008050  0.650420  1
  C  C1061  1  0.930140  0.462980  0.163790  1
  C  C1062  1  0.569860  0.962980  0.336210  1
  C  C1063  1  0.069860  0.537020  0.836210  1
  C  C1064  1  0.430140  0.037020  0.663790  1
  C  C1065  1  0.885350  0.437280  0.138590  1
  C  C1066  1  0.614650  0.937280  0.361410  1
  C  C1067  1  0.114650  0.562720  0.861410  1
  C  C1068  1  0.385350  0.062720  0.638590  1
  C  C1069  1  0.931070  0.411820  0.128260  1
  C  C1070  1  0.568930  0.911820  0.371740  1
  C  C1071  1  0.068930  0.588180  0.871740  1
  C  C1072  1  0.431070  0.088180  0.628260  1
  C  C1073  1  0.954850  0.423230  0.106940  1
  C  C1074  1  0.545150  0.923230  0.393060  1
  C  C1075  1  0.045150  0.576770  0.893060  1
  C  C1076  1  0.454850  0.076770  0.606940  1
  C  C1077  1  0.991950  0.399070  0.100030  1
  C  C1078  1  0.508050  0.899070  0.399970  1
  C  C1079  1  0.008050  0.600930  0.899970  1
  C  C1080  1  0.491950  0.100930  0.600030  1
  C  C1081  1  0.000970  0.365070  0.111050  1
  C  C1082  1  0.499030  0.865070  0.388950  1
  C  C1083  1  0.999030  0.634930  0.888950  1
  C  C1084  1  0.500970  0.134930  0.611050  1
  C  C1085  1  0.979010  0.353950  0.131380  1
  C  C1086  1  0.520990  0.853950  0.368620  1
  C  C1087  1  0.020990  0.646050  0.868620  1
  C  C1088  1  0.479010  0.146050  0.631380  1
  C  C1089  1  0.936080  0.378310  0.141680  1
  C  C1090  1  0.563920  0.878310  0.358320  1
  C  C1091  1  0.063920  0.621690  0.858320  1
  C  C1092  1  0.436080  0.121690  0.641680  1
  C  C1093  1  0.915610  0.364860  0.166150  1
  C  C1094  1  0.584390  0.864860  0.333850  1
  C  C1095  1  0.084390  0.635140  0.833850  1
  C  C1096  1  0.415610  0.135140  0.666150  1
  C  C1097  1  0.100490  0.306870  0.220730  1
  C  C1098  1  0.399510  0.806870  0.279270  1
  C  C1099  1  0.899510  0.693130  0.779270  1
  C  C1100  1  0.600490  0.193130  0.720730  1
  C  C1101  1  0.066090  0.358010  0.296700  1
  C  C1102  1  0.433910  0.858010  0.203300  1
  C  C1103  1  0.933910  0.641990  0.703300  1
  C  C1104  1  0.566090  0.141990  0.796700  1
  C  C1105  1  0.105440  0.367890  0.323920  1
  C  C1106  1  0.394560  0.867890  0.176080  1
  C  C1107  1  0.894560  0.632110  0.676080  1
  C  C1108  1  0.605440  0.132110  0.823920  1
  C  C1109  1  0.107480  0.344550  0.344570  1
  C  C1110  1  0.392520  0.844550  0.155430  1
  C  C1111  1  0.892520  0.655450  0.655430  1
  C  C1112  1  0.607480  0.155450  0.844570  1
  C  C1113  1  0.148040  0.351120  0.372580  1
  C  C1114  1  0.351960  0.851120  0.127420  1
  C  C1115  1  0.851960  0.648880  0.627420  1
  C  C1116  1  0.648040  0.148880  0.872580  1
  C  C1117  1  0.177820  0.402730  0.358690  1
  C  C1118  1  0.322180  0.902730  0.141310  1
  C  C1119  1  0.822180  0.597270  0.641310  1
  C  C1120  1  0.677820  0.097270  0.858690  1
  C  C1121  1  0.138770  0.398200  0.325500  1
  C  C1122  1  0.361230  0.898200  0.174500  1
  C  C1123  1  0.861230  0.601800  0.674500  1
  C  C1124  1  0.638770  0.101800  0.825500  1
  C  C1125  1  0.031070  0.533380  0.246530  1
  C  C1126  1  0.468930  0.033380  0.253470  1
  C  C1127  1  0.968930  0.466620  0.753470  1
  C  C1128  1  0.531070  0.966620  0.746530  1
  C  C1129  1  0.054130  0.534070  0.145710  1
  C  C1130  1  0.445870  0.034070  0.354290  1
  C  C1131  1  0.945870  0.465930  0.854290  1
  C  C1132  1  0.554130  0.965930  0.645710  1
  C  C1133  1  0.084370  0.565980  0.137850  1
  C  C1134  1  0.415630  0.065980  0.362150  1
  C  C1135  1  0.915630  0.434020  0.862150  1
  C  C1136  1  0.584370  0.934020  0.637850  1
  C  C1137  1  0.065590  0.597810  0.143610  1
  C  C1138  1  0.434410  0.097810  0.356390  1
  C  C1139  1  0.934410  0.402190  0.856390  1
  C  C1140  1  0.565590  0.902190  0.643610  1
  C  C1141  1  0.100850  0.623730  0.133890  1
  C  C1142  1  0.399150  0.123730  0.366110  1
  C  C1143  1  0.899150  0.376270  0.866110  1
  C  C1144  1  0.600850  0.876270  0.633890  1
  C  C1145  1  0.152750  0.588940  0.116500  1
  C  C1146  1  0.347250  0.088940  0.383500  1
  C  C1147  1  0.847250  0.411060  0.883500  1
  C  C1148  1  0.652750  0.911060  0.616500  1
  C  C1149  1  0.127020  0.558530  0.122690  1
  C  C1150  1  0.372980  0.058530  0.377310  1
  C  C1151  1  0.872980  0.441470  0.877310  1
  C  C1152  1  0.627020  0.941470  0.622690  1
  C  C1153  1  0.019760  0.442840  0.064080  1
  C  C1154  1  0.480240  0.942840  0.435920  1
  C  C1155  1  0.980240  0.557160  0.935920  1
  C  C1156  1  0.519760  0.057160  0.564080  1
  C  C1157  1  0.091400  0.312700  0.078100  1
  C  C1158  1  0.408600  0.812700  0.421900  1
  C  C1159  1  0.908600  0.687300  0.921900  1
  C  C1160  1  0.591400  0.187300  0.578100  1
  C  C1161  1  0.128700  0.299300  0.102500  1
  C  C1162  1  0.371300  0.799300  0.397500  1
  C  C1163  1  0.871300  0.700700  0.897500  1
  C  C1164  1  0.628700  0.200700  0.602500  1
  C  C1165  1  0.174900  0.279000  0.099900  1
  C  C1166  1  0.325100  0.779000  0.400100  1
  C  C1167  1  0.825100  0.721000  0.900100  1
  C  C1168  1  0.674900  0.221000  0.599900  1
  C  C1169  1  0.146400  0.285500  0.048500  1
  C  C1170  1  0.353600  0.785500  0.451500  1
  C  C1171  1  0.853600  0.714500  0.951500  1
  C  C1172  1  0.646400  0.214500  0.548500  1
  C  C1173  1  0.100300  0.305800  0.051100  1
  C  C1174  1  0.399700  0.805800  0.448900  1
  C  C1175  1  0.899700  0.694200  0.948900  1
  C  C1176  1  0.600300  0.194200  0.551100  1
  C  C1177  1  0.518510  0.474830  0.279470  1
  C  C1178  1  0.981490  0.974830  0.220530  1
  C  C1179  1  0.481490  0.525170  0.720530  1
  C  C1180  1  0.018510  0.025170  0.779470  1
  C  C1181  1  0.486030  0.498040  0.291040  1
  C  C1182  1  0.013970  0.998040  0.208960  1
  C  C1183  1  0.513970  0.501960  0.708960  1
  C  C1184  1  0.986030  0.001960  0.791040  1
  C  C1185  1  0.457820  0.486650  0.311360  1
  C  C1186  1  0.042180  0.986650  0.188640  1
  C  C1187  1  0.542180  0.513350  0.688640  1
  C  C1188  1  0.957820  0.013350  0.811360  1
  C  C1189  1  0.462100  0.452030  0.320100  1
  C  C1190  1  0.037900  0.952030  0.179900  1
  C  C1191  1  0.537900  0.547970  0.679900  1
  C  C1192  1  0.962100  0.047970  0.820100  1
  C  C1193  1  0.494580  0.428820  0.308530  1
  C  C1194  1  0.005420  0.928820  0.191470  1
  C  C1195  1  0.505420  0.571180  0.691470  1
  C  C1196  1  0.994580  0.071180  0.808530  1
  C  C1197  1  0.522790  0.440220  0.288210  1
  C  C1198  1  0.977210  0.940220  0.211790  1
  C  C1199  1  0.477210  0.559780  0.711790  1
  C  C1200  1  0.022790  0.059780  0.788210  1
  C  C1201  1  0.558470  0.411110  0.277050  1
  C  C1202  1  0.941530  0.911110  0.222950  1
  C  C1203  1  0.441530  0.588890  0.722950  1
  C  C1204  1  0.058470  0.088890  0.777050  1
  C  C1205  1  0.516800  0.391510  0.252450  1
  C  C1206  1  0.983200  0.891510  0.247550  1
  C  C1207  1  0.483200  0.608490  0.747550  1
  C  C1208  1  0.016800  0.108490  0.752450  1
  C  C1209  1  0.479080  0.364970  0.258950  1
  C  C1210  1  0.020920  0.864970  0.241050  1
  C  C1211  1  0.520920  0.635030  0.741050  1
  C  C1212  1  0.979080  0.135030  0.758950  1
  C  C1213  1  0.447530  0.345860  0.235690  1
  C  C1214  1  0.052470  0.845860  0.264310  1
  C  C1215  1  0.552470  0.654140  0.764310  1
  C  C1216  1  0.947530  0.154140  0.735690  1
  C  C1217  1  0.451060  0.353080  0.208620  1
  C  C1218  1  0.048940  0.853080  0.291380  1
  C  C1219  1  0.548940  0.646920  0.791380  1
  C  C1220  1  0.951060  0.146920  0.708620  1
  C  C1221  1  0.484050  0.377840  0.200430  1
  C  C1222  1  0.015950  0.877840  0.299570  1
  C  C1223  1  0.515950  0.622160  0.799570  1
  C  C1224  1  0.984050  0.122160  0.700430  1
  C  C1225  1  0.518240  0.397440  0.222300  1
  C  C1226  1  0.981760  0.897440  0.277700  1
  C  C1227  1  0.481760  0.602560  0.777700  1
  C  C1228  1  0.018240  0.102560  0.722300  1
  C  C1229  1  0.553510  0.428640  0.213030  1
  C  C1230  1  0.946490  0.928640  0.286970  1
  C  C1231  1  0.446490  0.571360  0.786970  1
  C  C1232  1  0.053510  0.071360  0.713030  1
  C  C1233  1  0.512110  0.460970  0.206820  1
  C  C1234  1  0.987890  0.960970  0.293180  1
  C  C1235  1  0.487890  0.539030  0.793180  1
  C  C1236  1  0.012110  0.039030  0.706820  1
  C  C1237  1  0.480250  0.459200  0.178900  1
  C  C1238  1  0.019750  0.959200  0.321100  1
  C  C1239  1  0.519750  0.540800  0.821100  1
  C  C1240  1  0.980250  0.040800  0.678900  1
  C  C1241  1  0.439430  0.489440  0.169820  1
  C  C1242  1  0.060570  0.989440  0.330180  1
  C  C1243  1  0.560570  0.510560  0.830180  1
  C  C1244  1  0.939430  0.010560  0.669820  1
  C  C1245  1  0.442980  0.514010  0.189810  1
  C  C1246  1  0.057020  0.014010  0.310190  1
  C  C1247  1  0.557020  0.485990  0.810190  1
  C  C1248  1  0.942980  0.985990  0.689810  1
  C  C1249  1  0.474040  0.514420  0.218500  1
  C  C1250  1  0.025960  0.014420  0.281500  1
  C  C1251  1  0.525960  0.485580  0.781500  1
  C  C1252  1  0.974040  0.985580  0.718500  1
  C  C1253  1  0.512260  0.485440  0.228610  1
  C  C1254  1  0.987740  0.985440  0.271390  1
  C  C1255  1  0.487740  0.514560  0.771390  1
  C  C1256  1  0.012260  0.014560  0.728610  1
  C  C1257  1  0.551300  0.487380  0.257490  1
  C  C1258  1  0.948700  0.987380  0.242510  1
  C  C1259  1  0.448700  0.512620  0.742510  1
  C  C1260  1  0.051300  0.012620  0.757490  1
  C  C1261  1  0.426500  0.546970  0.315550  1
  C  C1262  1  0.073500  0.046970  0.184450  1
  C  C1263  1  0.573500  0.453030  0.684450  1
  C  C1264  1  0.926500  0.953030  0.815550  1
  C  C1265  1  0.431560  0.452750  0.360790  1
  C  C1266  1  0.068440  0.952750  0.139210  1
  C  C1267  1  0.568440  0.547250  0.639210  1
  C  C1268  1  0.931560  0.047250  0.860790  1
  C  C1269  1  0.386320  0.436960  0.374920  1
  C  C1270  1  0.113680  0.936960  0.125080  1
  C  C1271  1  0.613680  0.563040  0.625080  1
  C  C1272  1  0.886320  0.063040  0.874920  1
  C  C1273  1  0.380410  0.449730  0.404200  1
  C  C1274  1  0.119590  0.949730  0.095800  1
  C  C1275  1  0.619590  0.550270  0.595800  1
  C  C1276  1  0.880410  0.050270  0.904200  1
  C  C1277  1  0.337380  0.436820  0.414250  1
  C  C1278  1  0.162620  0.936820  0.085750  1
  C  C1279  1  0.662620  0.563180  0.585750  1
  C  C1280  1  0.837380  0.063180  0.914250  1
  C  C1281  1  0.306020  0.395450  0.374780  1
  C  C1282  1  0.193980  0.895450  0.125220  1
  C  C1283  1  0.693980  0.604550  0.625220  1
  C  C1284  1  0.806020  0.104550  0.874780  1
  C  C1285  1  0.351910  0.408400  0.359460  1
  C  C1286  1  0.148090  0.908400  0.140540  1
  C  C1287  1  0.648090  0.591600  0.640540  1
  C  C1288  1  0.851910  0.091600  0.859460  1
  C  C1289  1  0.401110  0.318610  0.268640  1
  C  C1290  1  0.098890  0.818610  0.231360  1
  C  C1291  1  0.598890  0.681390  0.731360  1
  C  C1292  1  0.901110  0.181390  0.768640  1
  C  C1293  1  0.429320  0.301950  0.179810  1
  C  C1294  1  0.070680  0.801950  0.320190  1
  C  C1295  1  0.570680  0.698050  0.820190  1
  C  C1296  1  0.929320  0.198050  0.679810  1
  C  C1297  1  0.388020  0.289290  0.153860  1
  C  C1298  1  0.111980  0.789290  0.346140  1
  C  C1299  1  0.611980  0.710710  0.846140  1
  C  C1300  1  0.888020  0.210710  0.653860  1
  C  C1301  1  0.395800  0.253990  0.145380  1
  C  C1302  1  0.104200  0.753990  0.354620  1
  C  C1303  1  0.604200  0.746010  0.854620  1
  C  C1304  1  0.895800  0.246010  0.645380  1
  C  C1305  1  0.353200  0.236240  0.122310  1
  C  C1306  1  0.146800  0.736240  0.377690  1
  C  C1307  1  0.646800  0.763760  0.877690  1
  C  C1308  1  0.853200  0.263760  0.622310  1
  C  C1309  1  0.307600  0.292250  0.112940  1
  C  C1310  1  0.192400  0.792250  0.387060  1
  C  C1311  1  0.692400  0.707750  0.887060  1
  C  C1312  1  0.807600  0.207750  0.612940  1
  C  C1313  1  0.348770  0.306980  0.137450  1
  C  C1314  1  0.151230  0.806980  0.362550  1
  C  C1315  1  0.651230  0.693020  0.862550  1
  C  C1316  1  0.848770  0.193020  0.637450  1
  C  C1317  1  0.399010  0.468870  0.122790  1
  C  C1318  1  0.100990  0.968870  0.377210  1
  C  C1319  1  0.600990  0.531130  0.877210  1
  C  C1320  1  0.899010  0.031130  0.622790  1
  C  C1321  1  0.406240  0.562620  0.160200  1
  C  C1322  1  0.093760  0.062620  0.339800  1
  C  C1323  1  0.593760  0.437380  0.839800  1
  C  C1324  1  0.906240  0.937380  0.660200  1
  C  C1325  1  0.357760  0.588820  0.149820  1
  C  C1326  1  0.142240  0.088820  0.350180  1
  C  C1327  1  0.642240  0.411180  0.850180  1
  C  C1328  1  0.857760  0.911180  0.649820  1
  C  C1329  1  0.312080  0.588780  0.165550  1
  C  C1330  1  0.187920  0.088780  0.334450  1
  C  C1331  1  0.687920  0.411220  0.834450  1
  C  C1332  1  0.812080  0.911220  0.665550  1
  C  C1333  1  0.270410  0.609740  0.153610  1
  C  C1334  1  0.229590  0.109740  0.346390  1
  C  C1335  1  0.729590  0.390260  0.846390  1
  C  C1336  1  0.770410  0.890260  0.653610  1
  C  C1337  1  0.311300  0.630760  0.117930  1
  C  C1338  1  0.188700  0.130760  0.382070  1
  C  C1339  1  0.688700  0.369240  0.882070  1
  C  C1340  1  0.811300  0.869240  0.617930  1
  C  C1341  1  0.357190  0.609820  0.126450  1
  C  C1342  1  0.142810  0.109820  0.373550  1
  C  C1343  1  0.642810  0.390180  0.873550  1
  C  C1344  1  0.857190  0.890180  0.626450  1
  C  C1345  1  0.197110  0.462400  0.409470  1
  C  C1346  1  0.302890  0.962400  0.090530  1
  C  C1347  1  0.802890  0.537600  0.590530  1
  C  C1348  1  0.697110  0.037600  0.909470  1
  C  C1349  1  0.168490  0.496130  0.408220  1
  C  C1350  1  0.331510  0.996130  0.091780  1
  C  C1351  1  0.831510  0.503870  0.591780  1
  C  C1352  1  0.668490  0.003870  0.908220  1
  C  C1353  1  0.125050  0.493610  0.420030  1
  C  C1354  1  0.374950  0.993610  0.079970  1
  C  C1355  1  0.874950  0.506390  0.579970  1
  C  C1356  1  0.625050  0.006390  0.920030  1
  C  C1357  1  0.114060  0.461730  0.432860  1
  C  C1358  1  0.385940  0.961730  0.067140  1
  C  C1359  1  0.885940  0.538270  0.567140  1
  C  C1360  1  0.614060  0.038270  0.932860  1
  C  C1361  1  0.145810  0.428950  0.432760  1
  C  C1362  1  0.354190  0.928950  0.067240  1
  C  C1363  1  0.854190  0.571050  0.567240  1
  C  C1364  1  0.645810  0.071050  0.932760  1
  C  C1365  1  0.139990  0.397430  0.444030  1
  C  C1366  1  0.360010  0.897430  0.055970  1
  C  C1367  1  0.860010  0.602570  0.555970  1
  C  C1368  1  0.639990  0.102570  0.944030  1
  C  C1369  1  0.095130  0.385810  0.458020  1
  C  C1370  1  0.404870  0.885810  0.041980  1
  C  C1371  1  0.904870  0.614190  0.541980  1
  C  C1372  1  0.595130  0.114190  0.958020  1
  C  C1373  1  0.098000  0.353690  0.469530  1
  C  C1374  1  0.402000  0.853690  0.030470  1
  C  C1375  1  0.902000  0.646310  0.530470  1
  C  C1376  1  0.598000  0.146310  0.969530  1
  C  C1377  1  0.127160  0.329160  0.461370  1
  C  C1378  1  0.372840  0.829160  0.038630  1
  C  C1379  1  0.872840  0.670840  0.538630  1
  C  C1380  1  0.627160  0.170840  0.961370  1
  C  C1381  1  0.172000  0.337000  0.446010  1
  C  C1382  1  0.328000  0.837000  0.053990  1
  C  C1383  1  0.828000  0.663000  0.553990  1
  C  C1384  1  0.672000  0.163000  0.946010  1
  C  C1385  1  0.175400  0.370090  0.438450  1
  C  C1386  1  0.324600  0.870090  0.061550  1
  C  C1387  1  0.824600  0.629910  0.561550  1
  C  C1388  1  0.675400  0.129910  0.938450  1
  C  C1389  1  0.280110  0.318020  0.403270  1
  C  C1390  1  0.219890  0.818020  0.096730  1
  C  C1391  1  0.719890  0.681980  0.596730  1
  C  C1392  1  0.780110  0.181980  0.903270  1
  C  C1393  1  0.310160  0.288610  0.406150  1
  C  C1394  1  0.189840  0.788610  0.093850  1
  C  C1395  1  0.689840  0.711390  0.593850  1
  C  C1396  1  0.810160  0.211390  0.906150  1
  C  C1397  1  0.354480  0.279320  0.434970  1
  C  C1398  1  0.145520  0.779320  0.065030  1
  C  C1399  1  0.645520  0.720680  0.565030  1
  C  C1400  1  0.854480  0.220680  0.934970  1
  C  C1401  1  0.352180  0.301480  0.451680  1
  C  C1402  1  0.147820  0.801480  0.048320  1
  C  C1403  1  0.647820  0.698520  0.548320  1
  C  C1404  1  0.852180  0.198520  0.951680  1
  C  C1405  1  0.318680  0.336730  0.450180  1
  C  C1406  1  0.181320  0.836730  0.049820  1
  C  C1407  1  0.681320  0.663270  0.549820  1
  C  C1408  1  0.818680  0.163270  0.950180  1
  C  C1409  1  0.323300  0.365340  0.469390  1
  C  C1410  1  0.176700  0.865340  0.030610  1
  C  C1411  1  0.676700  0.634660  0.530610  1
  C  C1412  1  0.823300  0.134660  0.969390  1
  C  C1413  1  0.359760  0.364740  0.497990  1
  C  C1414  1  0.140240  0.864740  0.002010  1
  C  C1415  1  0.640240  0.635260  0.502010  1
  C  C1416  1  0.859760  0.135260  0.997990  1
  C  C1417  1  0.356600  0.391890  0.515960  1
  C  C1418  1  0.143400  0.891890  0.984040  1
  C  C1419  1  0.643400  0.608110  0.484040  1
  C  C1420  1  0.856600  0.108110  0.015960  1
  C  C1421  1  0.327080  0.421730  0.508770  1
  C  C1422  1  0.172920  0.921730  0.991230  1
  C  C1423  1  0.672920  0.578270  0.491230  1
  C  C1424  1  0.827080  0.078270  0.008770  1
  C  C1425  1  0.282060  0.426250  0.477060  1
  C  C1426  1  0.217940  0.926250  0.022940  1
  C  C1427  1  0.717940  0.573750  0.522940  1
  C  C1428  1  0.782060  0.073750  0.977060  1
  C  C1429  1  0.289320  0.391190  0.460510  1
  C  C1430  1  0.210680  0.891190  0.039490  1
  C  C1431  1  0.710680  0.608810  0.539490  1
  C  C1432  1  0.789320  0.108810  0.960510  1
  C  C1433  1  0.206520  0.627830  0.062270  1
  C  C1434  1  0.293480  0.127830  0.437730  1
  C  C1435  1  0.793480  0.372170  0.937730  1
  C  C1436  1  0.706520  0.872170  0.562270  1
  C  C1437  1  0.183780  0.618860  0.034760  1
  C  C1438  1  0.316220  0.118860  0.465240  1
  C  C1439  1  0.816220  0.381140  0.965240  1
  C  C1440  1  0.683780  0.881140  0.534760  1
  C  C1441  1  0.122420  0.627050  0.017590  1
  C  C1442  1  0.377580  0.127050  0.482410  1
  C  C1443  1  0.877580  0.372950  0.982410  1
  C  C1444  1  0.622420  0.872950  0.517590  1
  C  C1445  1  0.093300  0.652400  0.027030  1
  C  C1446  1  0.406700  0.152400  0.472970  1
  C  C1447  1  0.906700  0.347600  0.972970  1
  C  C1448  1  0.593300  0.847600  0.527030  1
  C  C1449  1  0.115280  0.660060  0.058360  1
  C  C1450  1  0.384720  0.160060  0.441640  1
  C  C1451  1  0.884720  0.339940  0.941640  1
  C  C1452  1  0.615280  0.839940  0.558360  1
  C  C1453  1  0.092390  0.685370  0.073090  1
  C  C1454  1  0.407610  0.185370  0.426910  1
  C  C1455  1  0.907610  0.314630  0.926910  1
  C  C1456  1  0.592390  0.814630  0.573090  1
  C  C1457  1  0.038460  0.702610  0.057440  1
  C  C1458  1  0.461540  0.202610  0.442560  1
  C  C1459  1  0.961540  0.297390  0.942560  1
  C  C1460  1  0.538460  0.797390  0.557440  1
  C  C1461  1  0.019820  0.724940  0.076690  1
  C  C1462  1  0.480180  0.224940  0.423310  1
  C  C1463  1  0.980180  0.275060  0.923310  1
  C  C1464  1  0.519820  0.775060  0.576690  1
  C  C1465  1  0.049540  0.734410  0.104360  1
  C  C1466  1  0.450460  0.234410  0.395640  1
  C  C1467  1  0.950460  0.265590  0.895640  1
  C  C1468  1  0.549540  0.765590  0.604360  1
  C  C1469  1  0.105890  0.720030  0.118110  1
  C  C1470  1  0.394110  0.220030  0.381890  1
  C  C1471  1  0.894110  0.279970  0.881890  1
  C  C1472  1  0.605890  0.779970  0.618110  1
  C  C1473  1  0.123040  0.693330  0.102360  1
  C  C1474  1  0.376960  0.193330  0.397640  1
  C  C1475  1  0.876960  0.306670  0.897640  1
  C  C1476  1  0.623040  0.806670  0.602360  1
  C  C1477  1  0.198900  0.672070  0.178430  1
  C  C1478  1  0.301100  0.172070  0.321570  1
  C  C1479  1  0.801100  0.327930  0.821570  1
  C  C1480  1  0.698900  0.827930  0.678430  1
  C  C1481  1  0.214060  0.689680  0.206900  1
  C  C1482  1  0.285940  0.189680  0.293100  1
  C  C1483  1  0.785940  0.310320  0.793100  1
  C  C1484  1  0.714060  0.810320  0.706900  1
  C  C1485  1  0.247020  0.721850  0.207070  1
  C  C1486  1  0.252980  0.221850  0.292930  1
  C  C1487  1  0.752980  0.278150  0.792930  1
  C  C1488  1  0.747020  0.778150  0.707070  1
  C  C1489  1  0.265880  0.734050  0.183910  1
  C  C1490  1  0.234120  0.234050  0.316090  1
  C  C1491  1  0.734120  0.265950  0.816090  1
  C  C1492  1  0.765880  0.765950  0.683910  1
  C  C1493  1  0.248620  0.714100  0.157560  1
  C  C1494  1  0.251380  0.214100  0.342440  1
  C  C1495  1  0.751380  0.285900  0.842440  1
  C  C1496  1  0.748620  0.785900  0.657560  1
  C  C1497  1  0.266650  0.722020  0.133330  1
  C  C1498  1  0.233350  0.222020  0.366670  1
  C  C1499  1  0.733350  0.277980  0.866670  1
  C  C1500  1  0.766650  0.777980  0.633330  1
  C  C1501  1  0.307370  0.748930  0.132010  1
  C  C1502  1  0.192630  0.248930  0.367990  1
  C  C1503  1  0.692630  0.251070  0.867990  1
  C  C1504  1  0.807370  0.751070  0.632010  1
  C  C1505  1  0.324600  0.753810  0.107010  1
  C  C1506  1  0.175400  0.253810  0.392990  1
  C  C1507  1  0.675400  0.246190  0.892990  1
  C  C1508  1  0.824600  0.746190  0.607010  1
  C  C1509  1  0.302270  0.737810  0.081890  1
  C  C1510  1  0.197730  0.237810  0.418110  1
  C  C1511  1  0.697730  0.262190  0.918110  1
  C  C1512  1  0.802270  0.762190  0.581890  1
  C  C1513  1  0.261090  0.709280  0.082880  1
  C  C1514  1  0.238910  0.209280  0.417120  1
  C  C1515  1  0.738910  0.290720  0.917120  1
  C  C1516  1  0.761090  0.790720  0.582880  1
  C  C1517  1  0.243550  0.702190  0.109880  1
  C  C1518  1  0.256450  0.202190  0.390120  1
  C  C1519  1  0.756450  0.297810  0.890120  1
  C  C1520  1  0.743550  0.797810  0.609880  1
  C  C1521  1  0.266500  0.306100  0.041100  1
  C  C1522  1  0.233500  0.806100  0.458900  1
  C  C1523  1  0.733500  0.693900  0.958900  1
  C  C1524  1  0.766500  0.193900  0.541100  1
  C  C1525  1  0.293600  0.326400  0.024400  1
  C  C1526  1  0.206400  0.826400  0.475600  1
  C  C1527  1  0.706400  0.673600  0.975600  1
  C  C1528  1  0.793600  0.173600  0.524400  1
  C  C1529  1  0.336800  0.312200  0.013500  1
  C  C1530  1  0.163200  0.812200  0.486500  1
  C  C1531  1  0.663200  0.687800  0.986500  1
  C  C1532  1  0.836800  0.187800  0.513500  1
  C  C1533  1  0.352900  0.277600  0.019200  1
  C  C1534  1  0.147100  0.777600  0.480800  1
  C  C1535  1  0.647100  0.722400  0.980800  1
  C  C1536  1  0.852900  0.222400  0.519200  1
  C  C1537  1  0.325800  0.257300  0.035800  1
  C  C1538  1  0.174200  0.757300  0.464200  1
  C  C1539  1  0.674200  0.742700  0.964200  1
  C  C1540  1  0.825800  0.242700  0.535800  1
  C  C1541  1  0.348900  0.226500  0.042300  1
  C  C1542  1  0.151100  0.726500  0.457700  1
  C  C1543  1  0.651100  0.773500  0.957700  1
  C  C1544  1  0.848900  0.273500  0.542300  1
  C  C1545  1  0.395000  0.210200  0.035100  1
  C  C1546  1  0.105000  0.710200  0.464900  1
  C  C1547  1  0.605000  0.789800  0.964900  1
  C  C1548  1  0.895000  0.289800  0.535100  1
  C  C1549  1  0.410000  0.176400  0.044500  1
  C  C1550  1  0.090000  0.676400  0.455500  1
  C  C1551  1  0.590000  0.823600  0.955500  1
  C  C1552  1  0.910000  0.323600  0.544500  1
  C  C1553  1  0.379000  0.159000  0.061000  1
  C  C1554  1  0.121000  0.659000  0.439000  1
  C  C1555  1  0.621000  0.841000  0.939000  1
  C  C1556  1  0.879000  0.341000  0.561000  1
  C  C1557  1  0.333000  0.175300  0.068200  1
  C  C1558  1  0.167000  0.675300  0.431800  1
  C  C1559  1  0.667000  0.824700  0.931800  1
  C  C1560  1  0.833000  0.324700  0.568200  1
  C  C1561  1  0.317900  0.209000  0.058800  1
  C  C1562  1  0.182100  0.709000  0.441200  1
  C  C1563  1  0.682100  0.791000  0.941200  1
  C  C1564  1  0.817900  0.291000  0.558800  1
  C  C1565  1  0.197800  0.211600  0.036500  1
  C  C1566  1  0.302200  0.711600  0.463500  1
  C  C1567  1  0.802200  0.788400  0.963500  1
  C  C1568  1  0.697800  0.288400  0.536500  1
  C  C1569  1  0.187800  0.225200  0.008900  1
  C  C1570  1  0.312200  0.725200  0.491100  1
  C  C1571  1  0.812200  0.774800  0.991100  1
  C  C1572  1  0.687800  0.274800  0.508900  1
  C  C1573  1  0.155000  0.206800  0.985800  1
  C  C1574  1  0.345000  0.706800  0.514200  1
  C  C1575  1  0.845000  0.793200  0.014200  1
  C  C1576  1  0.655000  0.293200  0.485800  1
  C  C1577  1  0.132200  0.174600  0.990300  1
  C  C1578  1  0.367800  0.674600  0.509700  1
  C  C1579  1  0.867800  0.825400  0.009700  1
  C  C1580  1  0.632200  0.325400  0.490300  1
  C  C1581  1  0.142300  0.160900  0.017900  1
  C  C1582  1  0.357700  0.660900  0.482100  1
  C  C1583  1  0.857700  0.839100  0.982100  1
  C  C1584  1  0.642300  0.339100  0.517900  1
  C  C1585  1  0.175100  0.179400  0.041000  1
  C  C1586  1  0.324900  0.679400  0.459000  1
  C  C1587  1  0.824900  0.820600  0.959000  1
  C  C1588  1  0.675100  0.320600  0.541000  1
  C  C1589  1  0.185500  0.172400  0.071000  1
  C  C1590  1  0.314500  0.672400  0.429000  1
  C  C1591  1  0.814500  0.827600  0.929000  1
  C  C1592  1  0.685500  0.327600  0.571000  1
  C  C1593  1  0.164200  0.144500  0.083700  1
  C  C1594  1  0.335800  0.644500  0.416300  1
  C  C1595  1  0.835800  0.855500  0.916300  1
  C  C1596  1  0.664200  0.355500  0.583700  1
  C  C1597  1  0.180000  0.140300  0.113300  1
  C  C1598  1  0.320000  0.640300  0.386700  1
  C  C1599  1  0.820000  0.859700  0.886700  1
  C  C1600  1  0.680000  0.359700  0.613300  1
  C  C1601  1  0.217100  0.163900  0.130300  1
  C  C1602  1  0.282900  0.663900  0.369700  1
  C  C1603  1  0.782900  0.836100  0.869700  1
  C  C1604  1  0.717100  0.336100  0.630300  1
  C  C1605  1  0.238300  0.191800  0.117600  1
  C  C1606  1  0.261700  0.691800  0.382400  1
  C  C1607  1  0.761700  0.808200  0.882400  1
  C  C1608  1  0.738300  0.308200  0.617600  1
  C  C1609  1  0.043900  0.341000  0.072100  1
  C  C1610  1  0.456100  0.841000  0.427900  1
  C  C1611  1  0.956100  0.659000  0.927900  1
  C  C1612  1  0.543900  0.159000  0.572100  1
  C  C1613  1  0.295300  0.507500  0.312900  1
  C  C1614  1  0.204700  0.007500  0.187100  1
  C  C1615  1  0.704700  0.492500  0.687100  1
  C  C1616  1  0.795300  0.992500  0.812900  1
  C  C1617  1  0.444200  0.333600  0.349700  1
  C  C1618  1  0.055800  0.833600  0.150300  1
  C  C1619  1  0.555800  0.666400  0.650300  1
  C  C1620  1  0.944200  0.166400  0.849700  1
  C  C1621  1  0.458300  0.537400  0.089100  1
  C  C1622  1  0.041700  0.037400  0.410900  1
  C  C1623  1  0.541700  0.462600  0.910900  1
  C  C1624  1  0.958300  0.962600  0.589100  1
  C  C1625  1  0.057800  0.811800  0.419300  1
  C  C1626  1  0.442200  0.311800  0.080700  1
  C  C1627  1  0.942200  0.188200  0.580700  1
  C  C1628  1  0.557800  0.688200  0.919300  1
  C  C1629  1  0.730600  0.765600  0.297100  1
  C  C1630  1  0.769400  0.265600  0.202900  1
  C  C1631  1  0.269400  0.234400  0.702900  1
  C  C1632  1  0.230600  0.734400  0.797100  1
  C  C1633  1  0.020300  0.742500  0.225800  1
  C  C1634  1  0.479700  0.242500  0.274200  1
  C  C1635  1  0.979700  0.257500  0.774200  1
  C  C1636  1  0.520300  0.757500  0.725800  1
  C  C1637  1  0.982900  0.767900  0.234900  1
  C  C1638  1  0.517100  0.267900  0.265100  1
  C  C1639  1  0.017100  0.232100  0.765100  1
  C  C1640  1  0.482900  0.732100  0.734900  1
  C  C1641  1  0.941800  0.784700  0.214900  1
  C  C1642  1  0.558200  0.284700  0.285100  1
  C  C1643  1  0.058200  0.215300  0.785100  1
  C  C1644  1  0.441800  0.715300  0.714900  1
  C  C1645  1  0.939500  0.778900  0.186200  1
  C  C1646  1  0.560500  0.278900  0.313800  1
  C  C1647  1  0.060500  0.221100  0.813800  1
  C  C1648  1  0.439500  0.721100  0.686200  1
  C  C1649  1  0.973100  0.757000  0.177700  1
  C  C1650  1  0.526900  0.257000  0.322300  1
  C  C1651  1  0.026900  0.243000  0.822300  1
  C  C1652  1  0.473100  0.743000  0.677700  1
  C  C1653  1  0.015900  0.736200  0.197300  1
  C  C1654  1  0.484100  0.236200  0.302700  1
  C  C1655  1  0.984100  0.263800  0.802700  1
  C  C1656  1  0.515900  0.763800  0.697300  1
  C  C1657  1  0.049100  0.708500  0.186700  1
  C  C1658  1  0.450900  0.208500  0.313300  1
  C  C1659  1  0.950900  0.291500  0.813300  1
  C  C1660  1  0.549100  0.791500  0.686700  1
  C  C1661  1  0.015000  0.675100  0.179300  1
  C  C1662  1  0.485000  0.175100  0.320700  1
  C  C1663  1  0.985000  0.324900  0.820700  1
  C  C1664  1  0.515000  0.824900  0.679300  1
  C  C1665  1  0.976100  0.672000  0.153000  1
  C  C1666  1  0.523900  0.172000  0.347000  1
  C  C1667  1  0.023900  0.328000  0.847000  1
  C  C1668  1  0.476100  0.828000  0.653000  1
  C  C1669  1  0.937200  0.645700  0.146900  1
  C  C1670  1  0.562800  0.145700  0.353100  1
  C  C1671  1  0.062800  0.354300  0.853100  1
  C  C1672  1  0.437200  0.854300  0.646900  1
  C  C1673  1  0.936500  0.620400  0.166400  1
  C  C1674  1  0.563500  0.120400  0.333600  1
  C  C1675  1  0.063500  0.379600  0.833600  1
  C  C1676  1  0.436500  0.879600  0.666400  1
  C  C1677  1  0.976700  0.621100  0.192500  1
  C  C1678  1  0.523300  0.121100  0.307500  1
  C  C1679  1  0.023300  0.378900  0.807500  1
  C  C1680  1  0.476700  0.878900  0.692500  1
  C  C1681  1  0.013600  0.650000  0.199200  1
  C  C1682  1  0.486400  0.150000  0.300800  1
  C  C1683  1  0.986400  0.350000  0.800800  1
  C  C1684  1  0.513600  0.850000  0.699200  1
  C  C1685  1  0.056800  0.648000  0.229400  1
  C  C1686  1  0.443200  0.148000  0.270600  1
  C  C1687  1  0.943200  0.352000  0.770600  1
  C  C1688  1  0.556800  0.852000  0.729400  1
  C  C1689  1  0.028500  0.659900  0.253300  1
  C  C1690  1  0.471500  0.159900  0.246700  1
  C  C1691  1  0.971500  0.340100  0.746700  1
  C  C1692  1  0.528500  0.840100  0.753300  1
  C  C1693  1  0.004100  0.635200  0.268000  1
  C  C1694  1  0.495900  0.135200  0.232000  1
  C  C1695  1  0.995900  0.364800  0.732000  1
  C  C1696  1  0.504100  0.864800  0.768000  1
  C  C1697  1  0.981800  0.643000  0.290300  1
  C  C1698  1  0.518200  0.143000  0.209700  1
  C  C1699  1  0.018200  0.357000  0.709700  1
  C  C1700  1  0.481800  0.857000  0.790300  1
  C  C1701  1  0.982900  0.678000  0.298600  1
  C  C1702  1  0.517100  0.178000  0.201400  1
  C  C1703  1  0.017100  0.322000  0.701400  1
  C  C1704  1  0.482900  0.822000  0.798600  1
  C  C1705  1  0.010100  0.702600  0.285800  1
  C  C1706  1  0.489900  0.202600  0.214200  1
  C  C1707  1  0.989900  0.297400  0.714200  1
  C  C1708  1  0.510100  0.797400  0.785800  1
  C  C1709  1  0.034800  0.695000  0.263500  1
  C  C1710  1  0.465200  0.195000  0.236500  1
  C  C1711  1  0.965200  0.305000  0.736500  1
  C  C1712  1  0.534800  0.805000  0.763500  1
  C  C1713  1  0.061200  0.724000  0.249800  1
  C  C1714  1  0.438800  0.224000  0.250200  1
  C  C1715  1  0.938800  0.276000  0.750200  1
  C  C1716  1  0.561200  0.776000  0.749800  1
  C  C1717  1  0.904400  0.811400  0.250600  1
  C  C1718  1  0.595600  0.311400  0.249400  1
  C  C1719  1  0.095600  0.188600  0.749400  1
  C  C1720  1  0.404400  0.688600  0.750600  1
  C  C1721  1  0.900000  0.831000  0.163500  1
  C  C1722  1  0.600000  0.331000  0.336500  1
  C  C1723  1  0.100000  0.169000  0.836500  1
  C  C1724  1  0.400000  0.669000  0.663500  1
  C  C1725  1  0.845900  0.846700  0.145500  1
  C  C1726  1  0.654100  0.346700  0.354500  1
  C  C1727  1  0.154100  0.153300  0.854500  1
  C  C1728  1  0.345900  0.653300  0.645500  1
  C  C1729  1  0.841300  0.881500  0.144700  1
  C  C1730  1  0.658700  0.381500  0.355300  1
  C  C1731  1  0.158700  0.118500  0.855300  1
  C  C1732  1  0.341300  0.618500  0.644700  1
  C  C1733  1  0.788700  0.896100  0.129000  1
  C  C1734  1  0.711300  0.396100  0.371000  1
  C  C1735  1  0.211300  0.103900  0.871000  1
  C  C1736  1  0.288700  0.603900  0.629000  1
  C  C1737  1  0.749900  0.844000  0.116800  1
  C  C1738  1  0.750100  0.344000  0.383200  1
  C  C1739  1  0.250100  0.156000  0.883200  1
  C  C1740  1  0.249900  0.656000  0.616800  1
  C  C1741  1  0.798800  0.826600  0.132700  1
  C  C1742  1  0.701200  0.326600  0.367300  1
  C  C1743  1  0.201200  0.173400  0.867300  1
  C  C1744  1  0.298800  0.673400  0.632700  1
  C  C1745  1  0.902100  0.667300  0.096700  1
  C  C1746  1  0.597900  0.167300  0.403300  1
  C  C1747  1  0.097900  0.332700  0.903300  1
  C  C1748  1  0.402100  0.832700  0.596700  1
  C  C1749  1  0.893800  0.570300  0.137600  1
  C  C1750  1  0.606200  0.070300  0.362400  1
  C  C1751  1  0.106200  0.429700  0.862400  1
  C  C1752  1  0.393800  0.929700  0.637600  1
  C  C1753  1  0.844600  0.547000  0.136700  1
  C  C1754  1  0.655400  0.047000  0.363300  1
  C  C1755  1  0.155400  0.453000  0.863300  1
  C  C1756  1  0.344600  0.953000  0.636700  1
  C  C1757  1  0.826100  0.528900  0.111800  1
  C  C1758  1  0.673900  0.028900  0.388200  1
  C  C1759  1  0.173900  0.471100  0.888200  1
  C  C1760  1  0.326100  0.971100  0.611800  1
  C  C1761  1  0.781000  0.504100  0.110900  1
  C  C1762  1  0.719000  0.004100  0.389100  1
  C  C1763  1  0.219000  0.495900  0.889100  1
  C  C1764  1  0.281000  0.995900  0.610900  1
  C  C1765  1  0.770300  0.520100  0.155300  1
  C  C1766  1  0.729700  0.020100  0.344700  1
  C  C1767  1  0.229700  0.479900  0.844700  1
  C  C1768  1  0.270300  0.979900  0.655300  1
  C  C1769  1  0.818300  0.543400  0.158300  1
  C  C1770  1  0.681700  0.043400  0.341700  1
  C  C1771  1  0.181700  0.456600  0.841700  1
  C  C1772  1  0.318300  0.956600  0.658300  1
  C  C1773  1  0.945400  0.585300  0.294000  1
  C  C1774  1  0.554600  0.085300  0.206000  1
  C  C1775  1  0.054600  0.414700  0.706000  1
  C  C1776  1  0.445400  0.914700  0.794000  1
  C  C1777  1  0.988300  0.685000  0.347800  1
  C  C1778  1  0.511700  0.185000  0.152200  1
  C  C1779  1  0.011700  0.315000  0.652200  1
  C  C1780  1  0.488300  0.815000  0.847800  1
  C  C1781  1  0.954800  0.699300  0.366300  1
  C  C1782  1  0.545200  0.199300  0.133700  1
  C  C1783  1  0.045200  0.300700  0.633700  1
  C  C1784  1  0.454800  0.800700  0.866300  1
  C  C1785  1  0.903300  0.719600  0.358900  1
  C  C1786  1  0.596700  0.219600  0.141100  1
  C  C1787  1  0.096700  0.280400  0.641100  1
  C  C1788  1  0.403300  0.780400  0.858900  1
  C  C1789  1  0.874600  0.728800  0.378100  1
  C  C1790  1  0.625400  0.228800  0.121900  1
  C  C1791  1  0.125400  0.271200  0.621900  1
  C  C1792  1  0.374600  0.771200  0.878100  1
  C  C1793  1  0.941000  0.703300  0.413800  1
  C  C1794  1  0.559000  0.203300  0.086200  1
  C  C1795  1  0.059000  0.296700  0.586200  1
  C  C1796  1  0.441000  0.796700  0.913800  1
  C  C1797  1  0.973600  0.689900  0.396000  1
  C  C1798  1  0.526400  0.189900  0.104000  1
  C  C1799  1  0.026400  0.310100  0.604000  1
  C  C1800  1  0.473600  0.810100  0.896000  1
  C  C1801  1  0.419700  0.703900  0.180800  1
  C  C1802  1  0.080300  0.203900  0.319200  1
  C  C1803  1  0.580300  0.296100  0.819200  1
  C  C1804  1  0.919700  0.796100  0.680800  1
  C  C1805  1  0.439100  0.696600  0.156400  1
  C  C1806  1  0.060900  0.196600  0.343600  1
  C  C1807  1  0.560900  0.303400  0.843600  1
  C  C1808  1  0.939100  0.803400  0.656400  1
  C  C1809  1  0.471500  0.719400  0.144800  1
  C  C1810  1  0.028500  0.219400  0.355200  1
  C  C1811  1  0.528500  0.280600  0.855200  1
  C  C1812  1  0.971500  0.780600  0.644800  1
  C  C1813  1  0.482900  0.752200  0.157200  1
  C  C1814  1  0.017100  0.252200  0.342800  1
  C  C1815  1  0.517100  0.247800  0.842800  1
  C  C1816  1  0.982900  0.747800  0.657200  1
  C  C1817  1  0.463300  0.760700  0.181600  1
  C  C1818  1  0.036700  0.260700  0.318400  1
  C  C1819  1  0.536700  0.239300  0.818400  1
  C  C1820  1  0.963300  0.739300  0.681600  1
  C  C1821  1  0.433500  0.737600  0.193400  1
  C  C1822  1  0.066500  0.237600  0.306600  1
  C  C1823  1  0.566500  0.262400  0.806600  1
  C  C1824  1  0.933500  0.762400  0.693400  1
  C  C1825  1  0.418600  0.747900  0.220300  1
  C  C1826  1  0.081400  0.247900  0.279700  1
  C  C1827  1  0.581400  0.252100  0.779700  1
  C  C1828  1  0.918600  0.752100  0.720300  1
  C  C1829  1  0.463900  0.742600  0.247900  1
  C  C1830  1  0.036100  0.242600  0.252100  1
  C  C1831  1  0.536100  0.257400  0.752100  1
  C  C1832  1  0.963900  0.757400  0.747900  1
  C  C1833  1  0.505500  0.768700  0.252400  1
  C  C1834  1  0.994500  0.268700  0.247600  1
  C  C1835  1  0.494500  0.231300  0.747600  1
  C  C1836  1  0.005500  0.731300  0.752400  1
  C  C1837  1  0.552600  0.766300  0.278000  1
  C  C1838  1  0.947400  0.266300  0.222000  1
  C  C1839  1  0.447400  0.233700  0.722000  1
  C  C1840  1  0.052600  0.733700  0.778000  1
  C  C1841  1  0.554300  0.737400  0.294900  1
  C  C1842  1  0.945700  0.237400  0.205100  1
  C  C1843  1  0.445700  0.262600  0.705100  1
  C  C1844  1  0.054300  0.762600  0.794900  1
  C  C1845  1  0.512300  0.713600  0.291200  1
  C  C1846  1  0.987700  0.213600  0.208800  1
  C  C1847  1  0.487700  0.286400  0.708800  1
  C  C1848  1  0.012300  0.786400  0.791200  1
  C  C1849  1  0.466500  0.714500  0.266600  1
  C  C1850  1  0.033500  0.214500  0.233400  1
  C  C1851  1  0.533500  0.285500  0.733400  1
  C  C1852  1  0.966500  0.785500  0.766600  1
  C  C1853  1  0.425000  0.682400  0.260400  1
  C  C1854  1  0.075000  0.182400  0.239600  1
  C  C1855  1  0.575000  0.317600  0.739600  1
  C  C1856  1  0.925000  0.817600  0.760400  1
  C  C1857  1  0.448300  0.654200  0.243900  1
  C  C1858  1  0.051700  0.154200  0.256100  1
  C  C1859  1  0.551700  0.345800  0.756100  1
  C  C1860  1  0.948300  0.845800  0.743900  1
  C  C1861  1  0.491000  0.633200  0.260600  1
  C  C1862  1  0.009000  0.133200  0.239400  1
  C  C1863  1  0.509000  0.366800  0.739400  1
  C  C1864  1  0.991000  0.866800  0.760600  1
  C  C1865  1  0.518700  0.608500  0.246600  1
  C  C1866  1  0.981300  0.108500  0.253400  1
  C  C1867  1  0.481300  0.391500  0.753400  1
  C  C1868  1  0.018700  0.891500  0.746600  1
  C  C1869  1  0.508300  0.608600  0.217000  1
  C  C1870  1  0.991700  0.108600  0.283000  1
  C  C1871  1  0.491700  0.391400  0.783000  1
  C  C1872  1  0.008300  0.891400  0.717000  1
  C  C1873  1  0.466300  0.628900  0.200700  1
  C  C1874  1  0.033700  0.128900  0.299300  1
  C  C1875  1  0.533700  0.371100  0.799300  1
  C  C1876  1  0.966300  0.871100  0.700700  1
  C  C1877  1  0.434400  0.652400  0.214500  1
  C  C1878  1  0.065600  0.152400  0.285500  1
  C  C1879  1  0.565600  0.347600  0.785500  1
  C  C1880  1  0.934400  0.847600  0.714500  1
  C  C1881  1  0.390900  0.675500  0.194500  1
  C  C1882  1  0.109100  0.175500  0.305500  1
  C  C1883  1  0.609100  0.324500  0.805500  1
  C  C1884  1  0.890900  0.824500  0.694500  1
  C  C1885  1  0.484700  0.677900  0.111800  1
  C  C1886  1  0.015300  0.177900  0.388200  1
  C  C1887  1  0.515300  0.322100  0.888200  1
  C  C1888  1  0.984700  0.822100  0.611800  1
  C  C1889  1  0.496100  0.793900  0.122000  1
  C  C1890  1  0.003900  0.293900  0.378000  1
  C  C1891  1  0.503900  0.206100  0.878000  1
  C  C1892  1  0.996100  0.706100  0.622000  1
  C  C1893  1  0.537800  0.818900  0.115360  1
  C  C1894  1  0.962200  0.318900  0.384640  1
  C  C1895  1  0.462200  0.181100  0.884640  1
  C  C1896  1  0.037800  0.681100  0.615360  1
  C  C1897  1  0.589300  0.825590  0.135090  1
  C  C1898  1  0.910700  0.325590  0.364910  1
  C  C1899  1  0.410700  0.174410  0.864910  1
  C  C1900  1  0.089300  0.674410  0.635090  1
  C  C1901  1  0.627200  0.849770  0.128680  1
  C  C1902  1  0.872800  0.349770  0.371320  1
  C  C1903  1  0.372800  0.150230  0.871320  1
  C  C1904  1  0.127200  0.650230  0.628680  1
  C  C1905  1  0.562100  0.860590  0.082820  1
  C  C1906  1  0.937900  0.360590  0.417180  1
  C  C1907  1  0.437900  0.139410  0.917180  1
  C  C1908  1  0.062100  0.639410  0.582820  1
  C  C1909  1  0.524200  0.836400  0.089230  1
  C  C1910  1  0.975800  0.336400  0.410770  1
  C  C1911  1  0.475800  0.163600  0.910770  1
  C  C1912  1  0.024200  0.663600  0.589230  1
  C  C1913  1  0.600400  0.815190  0.261740  1
  C  C1914  1  0.899600  0.315190  0.238260  1
  C  C1915  1  0.399600  0.184810  0.738260  1
  C  C1916  1  0.100400  0.684810  0.761740  1
  C  C1917  1  0.605100  0.754430  0.340030  1
  C  C1918  1  0.894900  0.254430  0.159970  1
  C  C1919  1  0.394900  0.245570  0.659970  1
  C  C1920  1  0.105100  0.745570  0.840030  1
  C  C1921  1  0.663000  0.749400  0.363640  1
  C  C1922  1  0.837000  0.249400  0.136360  1
  C  C1923  1  0.337000  0.250600  0.636360  1
  C  C1924  1  0.163000  0.750600  0.863640  1
  C  C1925  1  0.675600  0.778120  0.384110  1
  C  C1926  1  0.824400  0.278120  0.115890  1
  C  C1927  1  0.324400  0.221880  0.615890  1
  C  C1928  1  0.175600  0.721880  0.884110  1
  C  C1929  1  0.729700  0.771480  0.404020  1
  C  C1930  1  0.770300  0.271480  0.095980  1
  C  C1931  1  0.270300  0.228520  0.595980  1
  C  C1932  1  0.229700  0.728520  0.904020  1
  C  C1933  1  0.747700  0.719300  0.385180  1
  C  C1934  1  0.752300  0.219300  0.114820  1
  C  C1935  1  0.252300  0.280700  0.614820  1
  C  C1936  1  0.247700  0.780700  0.885180  1
  C  C1937  1  0.692000  0.721620  0.363130  1
  C  C1938  1  0.808000  0.221620  0.136870  1
  C  C1939  1  0.308000  0.278380  0.636870  1
  C  C1940  1  0.192000  0.778380  0.863130  1
  C  C1941  1  0.572700  0.587450  0.292970  1
  C  C1942  1  0.927300  0.087450  0.207030  1
  C  C1943  1  0.427300  0.412550  0.707030  1
  C  C1944  1  0.072700  0.912550  0.792970  1
  C  C1945  1  0.560900  0.596470  0.185280  1
  C  C1946  1  0.939100  0.096470  0.314720  1
  C  C1947  1  0.439100  0.403530  0.814720  1
  C  C1948  1  0.060900  0.903530  0.685280  1
  C  C1949  1  0.589500  0.567000  0.171670  1
  C  C1950  1  0.910500  0.067000  0.328330  1
  C  C1951  1  0.410500  0.433000  0.828330  1
  C  C1952  1  0.089500  0.933000  0.671670  1
  C  C1953  1  0.575000  0.531470  0.177660  1
  C  C1954  1  0.925000  0.031470  0.322340  1
  C  C1955  1  0.425000  0.468530  0.822340  1
  C  C1956  1  0.075000  0.968530  0.677660  1
  C  C1957  1  0.601700  0.502600  0.162810  1
  C  C1958  1  0.898300  0.002600  0.337190  1
  C  C1959  1  0.398300  0.497400  0.837190  1
  C  C1960  1  0.101700  0.997400  0.662810  1
  C  C1961  1  0.652000  0.544100  0.141530  1
  C  C1962  1  0.848000  0.044100  0.358470  1
  C  C1963  1  0.348000  0.455900  0.858470  1
  C  C1964  1  0.152000  0.955900  0.641530  1
  C  C1965  1  0.623600  0.575160  0.151820  1
  C  C1966  1  0.876400  0.075160  0.348180  1
  C  C1967  1  0.376400  0.424840  0.848180  1
  C  C1968  1  0.123600  0.924840  0.651820  1
  C  C1969  1  0.715300  0.891100  0.050100  1
  C  C1970  1  0.784700  0.391100  0.449900  1
  C  C1971  1  0.284700  0.108900  0.949900  1
  C  C1972  1  0.215300  0.608900  0.550100  1
  C  C1973  1  0.736600  0.879400  0.027400  1
  C  C1974  1  0.763400  0.379400  0.472600  1
  C  C1975  1  0.263400  0.120600  0.972600  1
  C  C1976  1  0.236600  0.620600  0.527400  1
  C  C1977  1  0.723000  0.846200  0.016300  1
  C  C1978  1  0.777000  0.346200  0.483700  1
  C  C1979  1  0.277000  0.153800  0.983700  1
  C  C1980  1  0.223000  0.653800  0.516300  1
  C  C1981  1  0.688100  0.824700  0.027900  1
  C  C1982  1  0.811900  0.324700  0.472100  1
  C  C1983  1  0.311900  0.175300  0.972100  1
  C  C1984  1  0.188100  0.675300  0.527900  1
  C  C1985  1  0.666800  0.836500  0.050600  1
  C  C1986  1  0.833200  0.336500  0.449400  1
  C  C1987  1  0.333200  0.163500  0.949400  1
  C  C1988  1  0.166800  0.663500  0.550600  1
  C  C1989  1  0.746100  0.926300  0.052600  1
  C  C1990  1  0.753900  0.426300  0.447400  1
  C  C1991  1  0.253900  0.073700  0.947400  1
  C  C1992  1  0.246100  0.573700  0.552600  1
  C  C1993  1  0.784000  0.948600  0.043900  1
  C  C1994  1  0.716000  0.448600  0.456100  1
  C  C1995  1  0.216000  0.051400  0.956100  1
  C  C1996  1  0.284000  0.551400  0.543900  1
  C  C1997  1  0.797300  0.980600  0.057400  1
  C  C1998  1  0.702700  0.480600  0.442600  1
  C  C1999  1  0.202700  0.019400  0.942600  1
  C  C2000  1  0.297300  0.519400  0.557400  1
  C  C2001  1  0.772600  0.990300  0.079600  1
  C  C2002  1  0.727400  0.490300  0.420400  1
  C  C2003  1  0.227400  0.009700  0.920400  1
  C  C2004  1  0.272600  0.509700  0.579600  1
  C  C2005  1  0.734700  0.968000  0.088200  1
  C  C2006  1  0.765300  0.468000  0.411800  1
  C  C2007  1  0.265300  0.032000  0.911800  1
  C  C2008  1  0.234700  0.532000  0.588200  1
  C  C2009  1  0.721500  0.935900  0.074700  1
  C  C2010  1  0.778500  0.435900  0.425300  1
  C  C2011  1  0.278500  0.064100  0.925300  1
  C  C2012  1  0.221500  0.564100  0.574700  1
  C  C2013  1  0.608300  0.930500  0.061200  1
  C  C2014  1  0.891700  0.430500  0.438800  1
  C  C2015  1  0.391700  0.069500  0.938800  1
  C  C2016  1  0.108300  0.569500  0.561200  1
  C  C2017  1  0.585600  0.922500  0.032500  1
  C  C2018  1  0.914400  0.422500  0.467500  1
  C  C2019  1  0.414400  0.077500  0.967500  1
  C  C2020  1  0.085600  0.577500  0.532500  1
  C  C2021  1  0.538700  0.940700  0.016700  1
  C  C2022  1  0.961300  0.440700  0.483300  1
  C  C2023  1  0.461300  0.059300  0.983300  1
  C  C2024  1  0.038700  0.559300  0.516700  1
  C  C2025  1  0.514400  0.967000  0.029700  1
  C  C2026  1  0.985600  0.467000  0.470300  1
  C  C2027  1  0.485600  0.033000  0.970300  1
  C  C2028  1  0.014400  0.533000  0.529700  1
  C  C2029  1  0.537000  0.975100  0.058400  1
  C  C2030  1  0.963000  0.475100  0.441600  1
  C  C2031  1  0.463000  0.024900  0.941600  1
  C  C2032  1  0.037000  0.524900  0.558400  1
  C  C2033  1  0.584000  0.956900  0.074200  1
  C  C2034  1  0.916000  0.456900  0.425800  1
  C  C2035  1  0.416000  0.043100  0.925800  1
  C  C2036  1  0.084000  0.543100  0.574200  1
  C  C2037  1  0.606300  0.959400  0.107500  1
  C  C2038  1  0.893700  0.459400  0.392500  1
  C  C2039  1  0.393700  0.040600  0.892500  1
  C  C2040  1  0.106300  0.540600  0.607500  1
  C  C2041  1  0.588300  0.981000  0.126700  1
  C  C2042  1  0.911700  0.481000  0.373300  1
  C  C2043  1  0.411700  0.019000  0.873300  1
  C  C2044  1  0.088300  0.519000  0.626700  1
  C  C2045  1  0.615500  0.979900  0.155800  1
  C  C2046  1  0.884500  0.479900  0.344200  1
  C  C2047  1  0.384500  0.020100  0.844200  1
  C  C2048  1  0.115500  0.520100  0.655800  1
  C  C2049  1  0.660800  0.957000  0.165600  1
  C  C2050  1  0.839200  0.457000  0.334400  1
  C  C2051  1  0.339200  0.043000  0.834400  1
  C  C2052  1  0.160800  0.543000  0.665600  1
  C  C2053  1  0.678800  0.935400  0.146400  1
  C  C2054  1  0.821200  0.435400  0.353600  1
  C  C2055  1  0.321200  0.064600  0.853600  1
  C  C2056  1  0.178800  0.564600  0.646400  1
  C  C2057  1  0.848700  0.809800  0.408000  1
  C  C2058  1  0.651300  0.309800  0.092000  1
  C  C2059  1  0.151300  0.190200  0.592000  1
  C  C2060  1  0.348700  0.690200  0.908000  1
  C  C2061  1  0.866000  0.845000  0.405600  1
  C  C2062  1  0.634000  0.345000  0.094400  1
  C  C2063  1  0.134000  0.155000  0.594400  1
  C  C2064  1  0.366000  0.655000  0.905600  1
  C  C2065  1  0.920700  0.857100  0.425000  1
  C  C2066  1  0.579300  0.357100  0.075000  1
  C  C2067  1  0.079300  0.142900  0.575000  1
  C  C2068  1  0.420700  0.642900  0.925000  1
  C  C2069  1  0.942200  0.834700  0.449200  1
  C  C2070  1  0.557800  0.334700  0.050800  1
  C  C2071  1  0.057800  0.165300  0.550800  1
  C  C2072  1  0.442200  0.665300  0.949200  1
  C  C2073  1  0.919600  0.802900  0.451800  1
  C  C2074  1  0.580400  0.302900  0.048200  1
  C  C2075  1  0.080400  0.197100  0.548200  1
  C  C2076  1  0.419600  0.697100  0.951800  1
  C  C2077  1  0.943100  0.775500  0.471900  1
  C  C2078  1  0.556900  0.275500  0.028100  1
  C  C2079  1  0.056900  0.224500  0.528100  1
  C  C2080  1  0.443100  0.724500  0.971900  1
  C  C2081  1  0.992000  0.780200  0.493900  1
  C  C2082  1  0.508000  0.280200  0.006100  1
  C  C2083  1  0.008000  0.219800  0.506100  1
  C  C2084  1  0.492000  0.719800  0.993900  1
  C  C2085  1  0.013400  0.752800  0.512400  1
  C  C2086  1  0.486600  0.252800  0.987600  1
  C  C2087  1  0.986600  0.247200  0.487600  1
  C  C2088  1  0.513400  0.747200  0.012400  1
  C  C2089  1  0.985900  0.720800  0.508800  1
  C  C2090  1  0.514100  0.220800  0.991200  1
  C  C2091  1  0.014100  0.279200  0.491200  1
  C  C2092  1  0.485900  0.779200  0.008800  1
  C  C2093  1  0.937000  0.716000  0.486900  1
  C  C2094  1  0.563000  0.216000  0.013100  1
  C  C2095  1  0.063000  0.284000  0.513100  1
  C  C2096  1  0.437000  0.784000  0.986900  1
  C  C2097  1  0.915600  0.743400  0.468400  1
  C  C2098  1  0.584400  0.243400  0.031600  1
  C  C2099  1  0.084400  0.256600  0.531600  1
  C  C2100  1  0.415600  0.756600  0.968400  1
  C  C2101  1  0.801100  0.755600  0.466300  1
  C  C2102  1  0.698900  0.255600  0.033700  1
  C  C2103  1  0.198900  0.244400  0.533700  1
  C  C2104  1  0.301100  0.744400  0.966300  1
  C  C2105  1  0.790000  0.789100  0.474500  1
  C  C2106  1  0.710000  0.289100  0.025500  1
  C  C2107  1  0.210000  0.210900  0.525500  1
  C  C2108  1  0.290000  0.710900  0.974500  1
  C  C2109  1  0.755800  0.794100  0.493600  1
  C  C2110  1  0.744200  0.294100  0.006400  1
  C  C2111  1  0.244200  0.205900  0.506400  1
  C  C2112  1  0.255800  0.705900  0.993600  1
  C  C2113  1  0.732800  0.765500  0.504600  1
  C  C2114  1  0.767200  0.265500  0.995400  1
  C  C2115  1  0.267200  0.234500  0.495400  1
  C  C2116  1  0.232800  0.734500  0.004600  1
  C  C2117  1  0.743900  0.732000  0.496400  1
  C  C2118  1  0.756100  0.232000  0.003600  1
  C  C2119  1  0.256100  0.268000  0.503600  1
  C  C2120  1  0.243900  0.768000  0.996400  1
  C  C2121  1  0.778100  0.727100  0.477300  1
  C  C2122  1  0.721900  0.227100  0.022700  1
  C  C2123  1  0.221900  0.272900  0.522700  1
  C  C2124  1  0.278100  0.772900  0.977300  1
  C  C2125  1  0.785500  0.694220  0.467360  1
  C  C2126  1  0.714500  0.194220  0.032640  1
  C  C2127  1  0.214500  0.305780  0.532640  1
  C  C2128  1  0.285500  0.805780  0.967360  1
  C  C2129  1  0.767700  0.661800  0.474660  1
  C  C2130  1  0.732300  0.161800  0.025340  1
  C  C2131  1  0.232300  0.338200  0.525340  1
  C  C2132  1  0.267700  0.838200  0.974660  1
  C  C2133  1  0.782460  0.631880  0.461880  1
  C  C2134  1  0.717540  0.131880  0.038120  1
  C  C2135  1  0.217540  0.368120  0.538120  1
  C  C2136  1  0.282460  0.868120  0.961880  1
  C  C2137  1  0.815100  0.634380  0.441790  1
  C  C2138  1  0.684900  0.134380  0.058210  1
  C  C2139  1  0.184900  0.365620  0.558210  1
  C  C2140  1  0.315100  0.865620  0.941790  1
  C  C2141  1  0.832930  0.666800  0.434490  1
  C  C2142  1  0.667070  0.166800  0.065510  1
  C  C2143  1  0.167070  0.333200  0.565510  1
  C  C2144  1  0.332930  0.833200  0.934490  1
  C  C2145  1  0.647740  0.519450  0.072580  1
  C  C2146  1  0.852260  0.019450  0.427420  1
  C  C2147  1  0.352260  0.480550  0.927420  1
  C  C2148  1  0.147740  0.980550  0.572580  1
  C  C2149  1  0.617540  0.534200  0.046450  1
  C  C2150  1  0.882460  0.034200  0.453550  1
  C  C2151  1  0.382460  0.465800  0.953550  1
  C  C2152  1  0.117540  0.965800  0.546450  1
  C  C2153  1  0.562620  0.522680  0.037150  1
  C  C2154  1  0.937380  0.022680  0.462850  1
  C  C2155  1  0.437380  0.477320  0.962850  1
  C  C2156  1  0.062620  0.977320  0.537150  1
  C  C2157  1  0.542210  0.492570  0.049320  1
  C  C2158  1  0.957790  0.992570  0.450680  1
  C  C2159  1  0.457790  0.507430  0.950680  1
  C  C2160  1  0.042210  0.007430  0.549320  1
  C  C2161  1  0.574960  0.479030  0.076440  1
  C  C2162  1  0.925040  0.979030  0.423560  1
  C  C2163  1  0.425040  0.520970  0.923560  1
  C  C2164  1  0.074960  0.020970  0.576440  1
  C  C2165  1  0.560020  0.451490  0.093680  1
  C  C2166  1  0.939980  0.951490  0.406320  1
  C  C2167  1  0.439980  0.548510  0.906320  1
  C  C2168  1  0.060020  0.048510  0.593680  1
  C  C2169  1  0.508350  0.435760  0.085430  1
  C  C2170  1  0.991650  0.935760  0.414570  1
  C  C2171  1  0.491650  0.564240  0.914570  1
  C  C2172  1  0.008350  0.064240  0.585430  1
  C  C2173  1  0.493730  0.411070  0.102450  1
  C  C2174  1  0.006270  0.911070  0.397550  1
  C  C2175  1  0.506270  0.588930  0.897550  1
  C  C2176  1  0.993730  0.088930  0.602450  1
  C  C2177  1  0.534370  0.398220  0.130950  1
  C  C2178  1  0.965630  0.898220  0.369050  1
  C  C2179  1  0.465630  0.601780  0.869050  1
  C  C2180  1  0.034370  0.101780  0.630950  1
  C  C2181  1  0.593450  0.417900  0.134850  1
  C  C2182  1  0.906550  0.917900  0.365150  1
  C  C2183  1  0.406550  0.582100  0.865150  1
  C  C2184  1  0.093450  0.082100  0.634850  1
  C  C2185  1  0.604670  0.443640  0.118310  1
  C  C2186  1  0.895330  0.943640  0.381690  1
  C  C2187  1  0.395330  0.556360  0.881690  1
  C  C2188  1  0.104670  0.056360  0.618310  1
  C  C2189  1  0.714920  0.450690  0.187240  1
  C  C2190  1  0.785080  0.950690  0.312760  1
  C  C2191  1  0.285080  0.549310  0.812760  1
  C  C2192  1  0.214920  0.049310  0.687240  1
  C  C2193  1  0.737780  0.430630  0.212960  1
  C  C2194  1  0.762220  0.930630  0.287040  1
  C  C2195  1  0.262220  0.569370  0.787040  1
  C  C2196  1  0.237780  0.069370  0.712960  1
  C  C2197  1  0.759890  0.399740  0.207740  1
  C  C2198  1  0.740110  0.899740  0.292260  1
  C  C2199  1  0.240110  0.600260  0.792260  1
  C  C2200  1  0.259890  0.100260  0.707740  1
  C  C2201  1  0.759650  0.391030  0.180280  1
  C  C2202  1  0.740350  0.891030  0.319720  1
  C  C2203  1  0.240350  0.608970  0.819720  1
  C  C2204  1  0.259650  0.108970  0.680280  1
  C  C2205  1  0.736460  0.412300  0.156720  1
  C  C2206  1  0.763540  0.912300  0.343280  1
  C  C2207  1  0.263540  0.587700  0.843280  1
  C  C2208  1  0.236460  0.087700  0.656720  1
  C  C2209  1  0.733480  0.407590  0.128620  1
  C  C2210  1  0.766520  0.907590  0.371380  1
  C  C2211  1  0.266520  0.592410  0.871380  1
  C  C2212  1  0.233480  0.092410  0.628620  1
  C  C2213  1  0.764290  0.377400  0.118950  1
  C  C2214  1  0.735710  0.877400  0.381050  1
  C  C2215  1  0.235710  0.622600  0.881050  1
  C  C2216  1  0.264290  0.122600  0.618950  1
  C  C2217  1  0.768840  0.375150  0.088710  1
  C  C2218  1  0.731160  0.875150  0.411290  1
  C  C2219  1  0.231160  0.624850  0.911290  1
  C  C2220  1  0.268840  0.124850  0.588710  1
  C  C2221  1  0.736440  0.398310  0.069030  1
  C  C2222  1  0.763560  0.898310  0.430970  1
  C  C2223  1  0.263560  0.601690  0.930970  1
  C  C2224  1  0.236440  0.101690  0.569030  1
  C  C2225  1  0.703160  0.429220  0.078370  1
  C  C2226  1  0.796840  0.929220  0.421630  1
  C  C2227  1  0.296840  0.570780  0.921630  1
  C  C2228  1  0.203160  0.070780  0.578370  1
  C  C2229  1  0.708890  0.433300  0.108880  1
  C  C2230  1  0.791110  0.933300  0.391120  1
  C  C2231  1  0.291110  0.566700  0.891120  1
  C  C2232  1  0.208890  0.066700  0.608880  1
  C  C2233  1  0.066500  0.323800  0.124000  1
  C  C2234  1  0.433500  0.823800  0.376000  1
  C  C2235  1  0.933500  0.676200  0.876000  1
  C  C2236  1  0.566500  0.176200  0.624000  1
  C  C2237  1  0.115900  0.305600  0.107600  1
  C  C2238  1  0.384100  0.805600  0.392400  1
  C  C2239  1  0.884100  0.694400  0.892400  1
  C  C2240  1  0.615900  0.194400  0.607600  1
  C  C2241  1  0.161300  0.288600  0.125900  1
  C  C2242  1  0.338700  0.788600  0.374100  1
  C  C2243  1  0.838700  0.711400  0.874100  1
  C  C2244  1  0.661300  0.211400  0.625900  1
  C  C2245  1  0.196200  0.266600  0.114800  1
  C  C2246  1  0.303800  0.766600  0.385200  1
  C  C2247  1  0.803800  0.733400  0.885200  1
  C  C2248  1  0.696200  0.233400  0.614800  1
  C  C2249  1  0.140200  0.278600  0.066900  1
  C  C2250  1  0.359800  0.778600  0.433100  1
  C  C2251  1  0.859800  0.721400  0.933100  1
  C  C2252  1  0.640200  0.221400  0.566900  1
  C  C2253  1  0.105400  0.300600  0.078100  1
  C  C2254  1  0.394600  0.800600  0.421900  1
  C  C2255  1  0.894600  0.699400  0.921900  1
  C  C2256  1  0.605400  0.199400  0.578100  1
  N  N2257  1  0.184200  0.379200  0.377700  1
  N  N2258  1  0.315800  0.879200  0.122300  1
  N  N2259  1  0.815800  0.620800  0.622300  1
  N  N2260  1  0.684200  0.120800  0.877700  1
  N  N2261  1  0.142000  0.622100  0.122200  1
  N  N2262  1  0.358000  0.122100  0.377800  1
  N  N2263  1  0.858000  0.377900  0.877800  1
  N  N2264  1  0.642000  0.877900  0.622200  1
  N  N2265  1  0.304000  0.408600  0.401600  1
  N  N2266  1  0.196000  0.908600  0.098400  1
  N  N2267  1  0.696000  0.591400  0.598400  1
  N  N2268  1  0.804000  0.091400  0.901600  1
  N  N2269  1  0.312500  0.257100  0.106300  1
  N  N2270  1  0.187500  0.757100  0.393700  1
  N  N2271  1  0.687500  0.742900  0.893700  1
  N  N2272  1  0.812500  0.242900  0.606300  1
  N  N2273  1  0.266700  0.630500  0.129500  1
  N  N2274  1  0.233300  0.130500  0.370500  1
  N  N2275  1  0.733300  0.369500  0.870500  1
  N  N2276  1  0.766700  0.869500  0.629500  1
  N  N2277  1  0.283600  0.342500  0.424000  1
  N  N2278  1  0.216400  0.842500  0.076000  1
  N  N2279  1  0.716400  0.657500  0.576000  1
  N  N2280  1  0.783600  0.157500  0.924000  1
  N  N2281  1  0.200700  0.429600  0.420900  1
  N  N2282  1  0.299300  0.929600  0.079100  1
  N  N2283  1  0.799300  0.570400  0.579100  1
  N  N2284  1  0.700700  0.070400  0.920900  1
  N  N2285  1  0.216000  0.684400  0.155000  1
  N  N2286  1  0.284000  0.184400  0.345000  1
  N  N2287  1  0.784000  0.315600  0.845000  1
  N  N2288  1  0.716000  0.815600  0.655000  1
  N  N2289  1  0.183700  0.272100  0.072900  1
  N  N2290  1  0.316300  0.772100  0.427100  1
  N  N2291  1  0.816300  0.727900  0.927100  1
  N  N2292  1  0.683700  0.227900  0.572900  1
  N  N2293  1  0.168920  0.647440  0.075090  1
  N  N2294  1  0.331080  0.147440  0.424910  1
  N  N2295  1  0.831080  0.352560  0.924910  1
  N  N2296  1  0.668920  0.852560  0.575090  1
  N  N2297  1  0.282600  0.271600  0.046800  1
  N  N2298  1  0.217400  0.771600  0.453200  1
  N  N2299  1  0.717400  0.728400  0.953200  1
  N  N2300  1  0.782600  0.228400  0.546800  1
  N  N2301  1  0.222500  0.196000  0.088000  1
  N  N2302  1  0.277500  0.696000  0.412000  1
  N  N2303  1  0.777500  0.804000  0.912000  1
  N  N2304  1  0.722500  0.304000  0.588000  1
  N  N2305  1  0.264700  0.474600  0.332200  1
  N  N2306  1  0.235300  0.974600  0.167800  1
  N  N2307  1  0.735300  0.525400  0.667800  1
  N  N2308  1  0.764700  0.025400  0.832200  1
  N  N2309  1  0.381900  0.314700  0.337600  1
  N  N2310  1  0.118100  0.814700  0.162400  1
  N  N2311  1  0.618100  0.685300  0.662400  1
  N  N2312  1  0.881900  0.185300  0.837600  1
  N  N2313  1  0.484500  0.569000  0.092000  1
  N  N2314  1  0.015500  0.069000  0.408000  1
  N  N2315  1  0.515500  0.431000  0.908000  1
  N  N2316  1  0.984500  0.931000  0.592000  1
  N  N2317  1  0.017800  0.808300  0.391200  1
  N  N2318  1  0.482200  0.308300  0.108800  1
  N  N2319  1  0.982200  0.191700  0.608800  1
  N  N2320  1  0.517800  0.691700  0.891200  1
  N  N2321  1  0.738100  0.787800  0.320300  1
  N  N2322  1  0.761900  0.287800  0.179700  1
  N  N2323  1  0.261900  0.212200  0.679700  1
  N  N2324  1  0.238100  0.712200  0.820300  1
  N  N2325  1  0.745100  0.880200  0.115900  1
  N  N2326  1  0.754900  0.380200  0.384100  1
  N  N2327  1  0.254900  0.119800  0.884100  1
  N  N2328  1  0.245100  0.619800  0.615900  1
  N  N2329  1  0.750300  0.502400  0.130500  1
  N  N2330  1  0.749700  0.002400  0.369500  1
  N  N2331  1  0.249700  0.497600  0.869500  1
  N  N2332  1  0.250300  0.997600  0.630500  1
  N  N2333  1  0.891800  0.722800  0.405600  1
  N  N2334  1  0.608200  0.222800  0.094400  1
  N  N2335  1  0.108200  0.277200  0.594400  1
  N  N2336  1  0.391800  0.777200  0.905600  1
  N  N2337  1  0.638000  0.511500  0.145100  1
  N  N2338  1  0.862000  0.011500  0.354900  1
  N  N2339  1  0.362000  0.488500  0.854900  1
  N  N2340  1  0.138000  0.988500  0.645100  1
  N  N2341  1  0.873700  0.788100  0.430200  1
  N  N2342  1  0.626300  0.288100  0.069800  1
  N  N2343  1  0.126300  0.211900  0.569800  1
  N  N2344  1  0.373700  0.711900  0.930200  1
  N  N2345  1  0.713800  0.446000  0.160000  1
  N  N2346  1  0.786200  0.946000  0.340000  1
  N  N2347  1  0.286200  0.554000  0.840000  1
  N  N2348  1  0.213800  0.054000  0.660000  1
  N  N2349  1  0.613600  0.867280  0.102550  1
  N  N2350  1  0.886400  0.367280  0.397450  1
  N  N2351  1  0.386400  0.132720  0.897450  1
  N  N2352  1  0.113600  0.632720  0.602550  1
  N  N2353  1  0.764300  0.744770  0.404250  1
  N  N2354  1  0.735700  0.244770  0.095750  1
  N  N2355  1  0.235700  0.255230  0.595750  1
  N  N2356  1  0.264300  0.755230  0.904250  1
  N  N2357  1  0.680400  0.869700  0.061700  1
  N  N2358  1  0.819600  0.369700  0.438300  1
  N  N2359  1  0.319600  0.130300  0.938300  1
  N  N2360  1  0.180400  0.630300  0.561700  1
  N  N2361  1  0.651600  0.936500  0.117300  1
  N  N2362  1  0.848400  0.436500  0.382700  1
  N  N2363  1  0.348400  0.063500  0.882700  1
  N  N2364  1  0.151600  0.563500  0.617300  1
  N  N2365  1  0.818100  0.696720  0.447270  1
  N  N2366  1  0.681900  0.196720  0.052730  1
  N  N2367  1  0.181900  0.303280  0.552730  1
  N  N2368  1  0.318100  0.803280  0.947270  1
  N  N2369  1  0.631000  0.492590  0.088090  1
  N  N2370  1  0.869000  0.992590  0.411910  1
  N  N2371  1  0.369000  0.507410  0.911910  1
  N  N2372  1  0.131000  0.007410  0.588090  1
  N  N2373  1  0.185700  0.261600  0.085300  1
  N  N2374  1  0.314300  0.761600  0.414700  1
  N  N2375  1  0.814300  0.738400  0.914700  1
  N  N2376  1  0.685700  0.238400  0.585300  1
  O  O2377  1  0.087100  0.330300  0.239000  1
  O  O2378  1  0.412900  0.830300  0.261000  1
  O  O2379  1  0.912900  0.669700  0.761000  1
  O  O2380  1  0.587100  0.169700  0.739000  1
  O  O2381  1  0.073000  0.382800  0.274400  1
  O  O2382  1  0.427000  0.882800  0.225600  1
  O  O2383  1  0.927000  0.617200  0.725600  1
  O  O2384  1  0.573000  0.117200  0.774400  1
  O  O2385  1  0.025800  0.341200  0.292300  1
  O  O2386  1  0.474200  0.841200  0.207700  1
  O  O2387  1  0.974200  0.658800  0.707700  1
  O  O2388  1  0.525800  0.158800  0.792300  1
  O  O2389  1  0.026700  0.535200  0.217600  1
  O  O2390  1  0.473300  0.035200  0.282400  1
  O  O2391  1  0.973300  0.464800  0.782400  1
  O  O2392  1  0.526700  0.964800  0.717600  1
  O  O2393  1  0.017700  0.540400  0.162200  1
  O  O2394  1  0.482300  0.040400  0.337800  1
  O  O2395  1  0.982300  0.459600  0.837800  1
  O  O2396  1  0.517700  0.959600  0.662200  1
  O  O2397  1  0.067000  0.503600  0.139700  1
  O  O2398  1  0.433000  0.003600  0.360300  1
  O  O2399  1  0.933000  0.496400  0.860300  1
  O  O2400  1  0.567000  0.996400  0.639700  1
  O  O2401  1  0.022200  0.406700  0.080000  1
  O  O2402  1  0.477800  0.906700  0.420000  1
  O  O2403  1  0.977800  0.593300  0.920000  1
  O  O2404  1  0.522200  0.093300  0.580000  1
  O  O2405  1  0.044200  0.343300  0.102100  1
  O  O2406  1  0.455800  0.843300  0.397900  1
  O  O2407  1  0.955800  0.656700  0.897900  1
  O  O2408  1  0.544200  0.156700  0.602100  1
  O  O2409  1  0.417500  0.508000  0.319500  1
  O  O2410  1  0.082500  0.008000  0.180500  1
  O  O2411  1  0.582500  0.492000  0.680500  1
  O  O2412  1  0.917500  0.992000  0.819500  1
  O  O2413  1  0.423200  0.440300  0.335500  1
  O  O2414  1  0.076800  0.940300  0.164500  1
  O  O2415  1  0.576800  0.559700  0.664500  1
  O  O2416  1  0.923200  0.059700  0.835500  1
  O  O2417  1  0.468800  0.471000  0.374000  1
  O  O2418  1  0.031200  0.971000  0.126000  1
  O  O2419  1  0.531200  0.529000  0.626000  1
  O  O2420  1  0.968800  0.029000  0.874000  1
  O  O2421  1  0.409100  0.321200  0.240300  1
  O  O2422  1  0.090900  0.821200  0.259700  1
  O  O2423  1  0.590900  0.678800  0.759700  1
  O  O2424  1  0.909100  0.178800  0.740300  1
  O  O2425  1  0.413600  0.334000  0.185400  1
  O  O2426  1  0.086400  0.834000  0.314600  1
  O  O2427  1  0.586400  0.666000  0.814600  1
  O  O2428  1  0.913600  0.166000  0.685400  1
  O  O2429  1  0.472900  0.288100  0.192900  1
  O  O2430  1  0.027100  0.788100  0.307100  1
  O  O2431  1  0.527100  0.711900  0.807100  1
  O  O2432  1  0.972900  0.211900  0.692900  1
  O  O2433  1  0.398300  0.491900  0.145200  1
  O  O2434  1  0.101700  0.991900  0.354800  1
  O  O2435  1  0.601700  0.508100  0.854800  1
  O  O2436  1  0.898300  0.008100  0.645200  1
  O  O2437  1  0.400000  0.541800  0.182000  1
  O  O2438  1  0.100000  0.041800  0.318000  1
  O  O2439  1  0.600000  0.458200  0.818000  1
  O  O2440  1  0.900000  0.958200  0.682000  1
  O  O2441  1  0.450300  0.561500  0.151400  1
  O  O2442  1  0.049700  0.061500  0.348600  1
  O  O2443  1  0.549700  0.438500  0.848600  1
  O  O2444  1  0.950300  0.938500  0.651400  1
  O  O2445  1  0.997800  0.338100  0.054500  1
  O  O2446  1  0.502200  0.838100  0.445500  1
  O  O2447  1  0.002200  0.661900  0.945500  1
  O  O2448  1  0.497800  0.161900  0.554500  1
  O  O2449  1  0.254400  0.484800  0.354100  1
  O  O2450  1  0.245600  0.984800  0.145900  1
  O  O2451  1  0.745600  0.515200  0.645900  1
  O  O2452  1  0.754400  0.015200  0.854100  1
  O  O2453  1  0.234100  0.447300  0.311500  1
  O  O2454  1  0.265900  0.947300  0.188500  1
  O  O2455  1  0.765900  0.552700  0.688500  1
  O  O2456  1  0.734100  0.052700  0.811500  1
  O  O2457  1  0.338400  0.332400  0.329100  1
  O  O2458  1  0.161600  0.832400  0.170900  1
  O  O2459  1  0.661600  0.667600  0.670900  1
  O  O2460  1  0.838400  0.167600  0.829100  1
  O  O2461  1  0.381900  0.283000  0.332400  1
  O  O2462  1  0.118100  0.783000  0.167600  1
  O  O2463  1  0.618100  0.717000  0.667600  1
  O  O2464  1  0.881900  0.217000  0.832400  1
  O  O2465  1  0.463400  0.597200  0.089900  1
  O  O2466  1  0.036600  0.097200  0.410100  1
  O  O2467  1  0.536600  0.402800  0.910100  1
  O  O2468  1  0.963400  0.902800  0.589900  1
  O  O2469  1  0.536400  0.561100  0.093900  1
  O  O2470  1  0.963600  0.061100  0.406100  1
  O  O2471  1  0.463600  0.438900  0.906100  1
  O  O2472  1  0.036400  0.938900  0.593900  1
  O  O2473  1  0.026900  0.825800  0.372200  1
  O  O2474  1  0.473100  0.325800  0.127800  1
  O  O2475  1  0.973100  0.174200  0.627800  1
  O  O2476  1  0.526900  0.674200  0.872200  1
  O  O2477  1  0.977800  0.788500  0.390000  1
  O  O2478  1  0.522200  0.288500  0.110000  1
  O  O2479  1  0.022200  0.211500  0.610000  1
  O  O2480  1  0.477800  0.711500  0.890000  1
  O  O2481  1  0.780600  0.785100  0.342000  1
  O  O2482  1  0.719400  0.285100  0.158000  1
  O  O2483  1  0.219400  0.214900  0.658000  1
  O  O2484  1  0.280600  0.714900  0.842000  1
  O  O2485  1  0.703500  0.810700  0.323100  1
  O  O2486  1  0.796500  0.310700  0.176900  1
  O  O2487  1  0.296500  0.189300  0.676900  1
  O  O2488  1  0.203500  0.689300  0.823100  1
  O  O2489  1  0.904300  0.807900  0.221500  1
  O  O2490  1  0.595700  0.307900  0.278500  1
  O  O2491  1  0.095700  0.192100  0.778500  1
  O  O2492  1  0.404300  0.692100  0.721500  1
  O  O2493  1  0.895400  0.794800  0.166400  1
  O  O2494  1  0.604600  0.294800  0.333600  1
  O  O2495  1  0.104600  0.205200  0.833600  1
  O  O2496  1  0.395400  0.705200  0.666400  1
  O  O2497  1  0.943300  0.846900  0.173600  1
  O  O2498  1  0.556700  0.346900  0.326400  1
  O  O2499  1  0.056700  0.153100  0.826400  1
  O  O2500  1  0.443300  0.653100  0.673600  1
  O  O2501  1  0.896200  0.644100  0.121000  1
  O  O2502  1  0.603800  0.144100  0.379000  1
  O  O2503  1  0.103800  0.355900  0.879000  1
  O  O2504  1  0.396200  0.855900  0.621000  1
  O  O2505  1  0.897300  0.593300  0.161700  1
  O  O2506  1  0.602700  0.093300  0.338300  1
  O  O2507  1  0.102700  0.406700  0.838300  1
  O  O2508  1  0.397300  0.906700  0.661700  1
  O  O2509  1  0.924400  0.572700  0.121500  1
  O  O2510  1  0.575600  0.072700  0.378500  1
  O  O2511  1  0.075600  0.427300  0.878500  1
  O  O2512  1  0.424400  0.927300  0.621500  1
  O  O2513  1  0.954700  0.619800  0.303800  1
  O  O2514  1  0.545300  0.119800  0.196200  1
  O  O2515  1  0.045300  0.380200  0.696200  1
  O  O2516  1  0.454700  0.880200  0.803800  1
  O  O2517  1  0.955500  0.688400  0.320300  1
  O  O2518  1  0.544500  0.188400  0.179700  1
  O  O2519  1  0.044500  0.311600  0.679700  1
  O  O2520  1  0.455500  0.811600  0.820300  1
  O  O2521  1  0.035600  0.676900  0.354700  1
  O  O2522  1  0.464400  0.176900  0.145300  1
  O  O2523  1  0.964400  0.323100  0.645300  1
  O  O2524  1  0.535600  0.823100  0.854700  1
  O  O2525  1  0.491800  0.713700  0.120400  1
  O  O2526  1  0.008200  0.213700  0.379600  1
  O  O2527  1  0.508200  0.286300  0.879600  1
  O  O2528  1  0.991800  0.786300  0.620400  1
  O  O2529  1  0.518900  0.776200  0.147300  1
  O  O2530  1  0.981100  0.276200  0.352700  1
  O  O2531  1  0.481100  0.223800  0.852700  1
  O  O2532  1  0.018900  0.723800  0.647300  1
  O  O2533  1  0.447900  0.791700  0.109200  1
  O  O2534  1  0.052100  0.291700  0.390800  1
  O  O2535  1  0.552100  0.208300  0.890800  1
  O  O2536  1  0.947900  0.708300  0.609200  1
  O  O2537  1  0.597700  0.788600  0.283900  1
  O  O2538  1  0.902300  0.288600  0.216100  1
  O  O2539  1  0.402300  0.211400  0.716100  1
  O  O2540  1  0.097700  0.711400  0.783900  1
  O  O2541  1  0.601500  0.732800  0.319000  1
  O  O2542  1  0.898500  0.232800  0.181000  1
  O  O2543  1  0.398500  0.267200  0.681000  1
  O  O2544  1  0.101500  0.767200  0.819000  1
  O  O2545  1  0.570300  0.777000  0.343100  1
  O  O2546  1  0.929700  0.277000  0.156900  1
  O  O2547  1  0.429700  0.223000  0.656900  1
  O  O2548  1  0.070300  0.723000  0.843100  1
  O  O2549  1  0.559300  0.585900  0.262200  1
  O  O2550  1  0.940700  0.085900  0.237800  1
  O  O2551  1  0.440700  0.414100  0.737800  1
  O  O2552  1  0.059300  0.914100  0.762200  1
  O  O2553  1  0.538300  0.583900  0.205000  1
  O  O2554  1  0.961700  0.083900  0.295000  1
  O  O2555  1  0.461700  0.416100  0.795000  1
  O  O2556  1  0.038300  0.916100  0.705000  1
  O  O2557  1  0.567400  0.625800  0.177100  1
  O  O2558  1  0.932600  0.125800  0.322900  1
  O  O2559  1  0.432600  0.374200  0.822900  1
  O  O2560  1  0.067400  0.874200  0.677100  1
  O  O2561  1  0.089000  0.334900  0.146300  1
  O  O2562  1  0.411000  0.834900  0.353700  1
  O  O2563  1  0.911000  0.665100  0.853700  1
  O  O2564  1  0.589000  0.165100  0.646300  1
