
#######################################################################
#
#                 Cambridge Crystallographic Data Centre
#                                CCDC 
#
#######################################################################
#
# If this CIF has been generated from an entry in the Cambridge 
# Structural Database, then it will include bibliographic, chemical, 
# crystal, experimental, refinement or atomic coordinate data resulting 
# from the CCDC's data processing and validation procedures.
#
#######################################################################

data_ZAWVOL
_chemical_formula_moiety         
'C150 H114 Ir3 N12 O18 3+,3(B1 F4 1-),2.5(C1 H3 N1 O2)'
_chemical_name_systematic        
'bis(\m-2,7,12-tris(isonicotinoyloxy)-3,8,13-trimethoxy-10,15-dihydro-5H-tribenzo[a,d,g][9]annulene)-hexakis(2-(2-pyridyl)phenyl)-tris-iridium(iii) tris(tetrafluoroborate) nitromethane solvate'
_symmetry_cell_setting           monoclinic
_symmetry_space_group_name_H-M   'P 21/n'
_symmetry_Int_Tables_number      14
_space_group_name_Hall           '-P 2yn'
loop_
_symmetry_equiv_pos_site_id
_symmetry_equiv_pos_as_xyz
1 x,y,z
2 1/2-x,1/2+y,1/2-z
3 -x,-y,-z
4 1/2+x,1/2-y,1/2+z
_cell_length_a                   24.1556(6)
_cell_length_b                   38.3982(8)
_cell_length_c                   48.0129(11)
_cell_angle_alpha                90
_cell_angle_beta                 104.151(3)
_cell_angle_gamma                90
_cell_volume                     43182.1
_exptl_crystal_colour            yellow
_exptl_crystal_description       block
_cell_formula_units_Z            8
loop_
_atom_site_label
_atom_site_type_symbol
_atom_site_fract_x
_atom_site_fract_y
_atom_site_fract_z
Ir4 Ir 0.23781(4) 0.38856(2) 0.419470(18)
Ir5 Ir 0.19313(3) 0.66404(2) 0.115148(19)
Ir6 Ir 0.25364(5) 0.23598(4) 0.06985(3)
O19 O 0.0871(5) 0.3303(3) 0.2390(2)
O20 O 0.0730(5) 0.3828(3) 0.2744(2)
O21 O 0.0258(5) 0.3412(3) 0.2923(2)
O22 O 0.0267(6) 0.5352(3) 0.2176(3)
O23 O 0.0177(6) 0.5404(3) 0.1622(4)
O24 O 0.0670(8) 0.5036(4) 0.1397(5)
O25 O 0.0222(9) 0.4067(5) 0.0800(4)
O26 O 0.0442(7) 0.3433(4) 0.1021(3)
O27 O 0.4175(9) 0.5080(4) 0.3195(4)
O28 O 0.4232(6) 0.4403(3) 0.3355(3)
O29 O 0.4688(7) 0.4710(4) 0.3740(3)
O30 O 0.4091(5) 0.3212(3) 0.2403(3)
O31 O 0.4136(5) 0.3340(3) 0.1854(3)
O32 O 0.4729(5) 0.2881(3) 0.1929(2)
O33 O 0.3983(6) 0.4919(3) 0.1452(3)
O34 O 0.4000(5) 0.5418(3) 0.1820(3)
O35 O 0.4503(5) 0.5615(3) 0.1514(3)
N13 N 0.1842(6) 0.3792(3) 0.3777(3)
N14 N 0.1420(6) 0.6221(4) 0.1222(4)
N15 N 0.3040(7) 0.4086(4) 0.4016(3)
N16 N 0.3125(7) 0.2571(5) 0.1063(4)
N17 N 0.2667(5) 0.6305(4) 0.1295(3)
N18 N 0.2836(6) 0.3425(4) 0.4240(3)
N19 N 0.2007(7) 0.4296(4) 0.4209(4)
N20 N 0.2160(6) 0.6844(4) 0.1550(3)
C151 C -0.04117(11) 0.37207(8) 0.19269(8)
C152 C 0.00383(11) 0.34893(8) 0.20125(8)
H115 H 0.0078 0.3302 0.1889
C153 C 0.04459(12) 0.35272(8) 0.22837(8)
C154 C 0.03406(12) 0.37856(8) 0.24663(7)
C155 C -0.00866(12) 0.40497(9) 0.24155(8)
H116 H -0.0113 0.4228 0.2548
C156 C -0.04902(11) 0.40097(9) 0.21251(8)
C157 C -0.09604(11) 0.42900(9) 0.20530(8)
H117 H -0.1068 0.4370 0.2229
H118 H -0.1304 0.4199 0.1915
C158 C -0.06748(11) 0.46016(9) 0.19124(8)
C159 C -0.03641(11) 0.48337(9) 0.20975(8)
H119 H -0.0337 0.4822 0.2298
C160 C -0.00468(11) 0.51255(8) 0.19632(8)
C161 C -0.01336(11) 0.51183(8) 0.17110(8)
C162 C -0.04256(10) 0.49195(9) 0.15042(8)
H120 H -0.0460 0.4952 0.1305
C163 C -0.06986(10) 0.46298(9) 0.16379(8)
C164 C -0.11465(10) 0.43728(10) 0.13859(8)
H121 H -0.1411 0.4238 0.1472
H122 H -0.1369 0.4513 0.1224
C165 C -0.06893(10) 0.41182(9) 0.12826(8)
C166 C -0.04515(10) 0.42323(9) 0.10694(7)
H123 H -0.0531 0.4453 0.0978
C167 C -0.00805(11) 0.39907(9) 0.10003(7)
C168 C 0.00097(11) 0.36507(9) 0.11105(7)
C169 C -0.02099(11) 0.35395(9) 0.13138(8)
H124 H -0.0114 0.3317 0.1398
C170 C -0.06392(10) 0.37831(9) 0.14168(8)
C171 C -0.08439(11) 0.36486(9) 0.16615(8)
H125 H -0.1208 0.3763 0.1667
H126 H -0.0911 0.3395 0.1640
C172 C 0.10049(12) 0.30687(7) 0.22073(8)
H127 H 0.0704 0.2892 0.2159
H128 H 0.1368 0.2956 0.2298
H129 H 0.1040 0.3188 0.2032
C173 C 0.06609(13) 0.35801(9) 0.29670(8)
C174 C 0.10544(14) 0.36789(10) 0.32392(7)
C175 C 0.10748(15) 0.34455(11) 0.34457(8)
H130 H 0.0838 0.3244 0.3415
C176 C 0.14804(16) 0.35112(12) 0.37258(7)
H131 H 0.1491 0.3351 0.3878
C177 C 0.17782(15) 0.40273(11) 0.35869(7)
H132 H 0.1967 0.4243 0.3639
C178 C 0.13877(14) 0.39820(10) 0.32550(7)
H133 H 0.1388 0.4136 0.3100
C179 C 0.03107(12) 0.53338(8) 0.24653(8)
H134 H 0.0027 0.5488 0.2516
H135 H 0.0695 0.5406 0.2570
H136 H 0.0242 0.5094 0.2518
C180 C 0.05413(11) 0.53407(8) 0.14571(8)
C181 C 0.08437(12) 0.56598(8) 0.13785(8)
C182 C 0.06559(13) 0.59781(8) 0.14361(9)
H137 H 0.0351 0.6024 0.1524
C183 C 0.10085(13) 0.62373(8) 0.13389(9)
H138 H 0.0904 0.6470 0.1371
C184 C 0.15275(13) 0.58894(8) 0.11650(8)
H139 H 0.1823 0.5858 0.1068
C185 C 0.12702(12) 0.55853(8) 0.12269(8)
H140 H 0.1365 0.5358 0.1175
C186 C 0.01976(11) 0.44284(10) 0.06408(7)
H141 H -0.0167 0.4449 0.0497
H142 H 0.0512 0.4443 0.0545
H143 H 0.0233 0.4618 0.0781
C187 C 0.0914(14) 0.3127(9) 0.0781(9)
C188 C 0.1287(17) 0.2993(10) 0.1025(7)
H144 H 0.1227 0.3041 0.1209
C189 C 0.1749(13) 0.2790(9) 0.0999(7)
H145 H 0.2003 0.2699 0.1166
N21 N 0.1837(12) 0.2721(8) 0.0729(9)
C190 C 0.1464(17) 0.2855(10) 0.0485(7)
H146 H 0.1524 0.2807 0.0300
C191 C 0.1003(15) 0.3058(10) 0.0511(7)
H147 H 0.0748 0.3149 0.0344
C192 C 0.51851(9) 0.47483(7) 0.27947(6)
C193 C 0.48603(9) 0.49804(7) 0.29104(6)
H148 H 0.4831 0.5217 0.2851
C194 C 0.45782(10) 0.48665(6) 0.31136(5)
C195 C 0.46210(10) 0.45203(7) 0.32010(5)
C196 C 0.49458(10) 0.42882(7) 0.30853(6)
H149 H 0.4975 0.4052 0.3145
C197 C 0.52279(10) 0.44022(7) 0.28821(6)
C198 C 0.55847(11) 0.41111(7) 0.27705(7)
H150 H 0.5896 0.4218 0.2699
H151 H 0.5755 0.3948 0.2928
C199 C 0.51680(12) 0.39151(7) 0.25245(7)
C200 C 0.47908(12) 0.36497(6) 0.25895(6)
H152 H 0.4760 0.3608 0.2780
C201 C 0.44753(14) 0.34586(6) 0.23569(7)
C202 C 0.45106(14) 0.35308(6) 0.20862(7)
C203 C 0.48405(14) 0.37784(7) 0.20043(7)
H153 H 0.4837 0.3815 0.1808
C204 C 0.51824(12) 0.39744(7) 0.22230(7)
C205 C 0.55351(12) 0.42864(8) 0.21303(7)
H154 H 0.5876 0.4341 0.2286
H155 H 0.5663 0.4223 0.1956
C206 C 0.51211(11) 0.46097(7) 0.20682(6)
C207 C 0.48025(12) 0.45920(7) 0.17890(6)
H156 H 0.4835 0.4406 0.1664
C208 C 0.43943(11) 0.48944(7) 0.16982(6)
C209 C 0.44298(11) 0.51401(6) 0.18981(6)
C210 C 0.47404(10) 0.51442(6) 0.21850(6)
H157 H 0.4703 0.5330 0.2310
C211 C 0.51226(10) 0.48544(7) 0.22861(6)
C212 C 0.55130(9) 0.48738(7) 0.25749(6)
H158 H 0.5645 0.5116 0.2618
H159 H 0.5851 0.4724 0.2584
C213 C 0.42650(11) 0.54697(6) 0.31555(5)
H160 H 0.4675 0.5520 0.3198
H161 H 0.4092 0.5603 0.3286
H162 H 0.4086 0.5536 0.2957
C214 C 0.43156(11) 0.45275(7) 0.36079(5)
C215 C 0.38632(12) 0.43696(7) 0.37492(5)
C216 C 0.38041(13) 0.44973(8) 0.40420(5)
H163 H 0.4063 0.4663 0.4149
C217 C 0.33738(14) 0.43682(8) 0.41425(5)
H164 H 0.3292 0.4473 0.4307
C218 C 0.30602(12) 0.39545(8) 0.37478(6)
H165 H 0.2790 0.3784 0.3658
C219 C 0.35191(12) 0.40840(7) 0.35946(5)
H166 H 0.3571 0.3988 0.3420
C220 C 0.40111(14) 0.31861(6) 0.26864(7)
H167 H 0.4360 0.3096 0.2816
H168 H 0.3693 0.3028 0.2687
H169 H 0.3925 0.3417 0.2752
C221 C 0.42932(18) 0.30195(6) 0.17981(7)
C222 C 0.38802(19) 0.28929(7) 0.15386(7)
C223 C 0.3958(2) 0.25399(7) 0.14538(8)
H170 H 0.4292 0.2417 0.1549
C224 C 0.3532(2) 0.23624(7) 0.12231(8)
H171 H 0.3545 0.2119 0.1190
C225 C 0.3076(2) 0.29225(7) 0.11294(7)
H172 H 0.2780 0.3062 0.1017
C226 C 0.34877(19) 0.30698(7) 0.13745(7)
H173 H 0.3461 0.3311 0.1414
C227 C 0.39901(14) 0.46887(7) 0.12279(6)
H174 H 0.4359 0.4704 0.1178
H175 H 0.3684 0.4750 0.1060
H176 H 0.3932 0.4450 0.1288
C228 C 0.40624(11) 0.56262(7) 0.16020(6)
C229 C 0.35776(12) 0.58882(7) 0.14982(6)
C230 C 0.31208(11) 0.58878(6) 0.16555(6)
H177 H 0.3130 0.5752 0.1822
C231 C 0.27041(12) 0.60974(7) 0.15361(6)
H178 H 0.2392 0.6109 0.1624
C232 C 0.31130(13) 0.63076(7) 0.11793(6)
H179 H 0.3109 0.6467 0.1027
C233 C 0.35719(13) 0.60982(7) 0.12645(6)
H180 H 0.3873 0.6096 0.1169
C234 C 0.19711(15) 0.46240(10) 0.40947(6)
H181 H 0.2235 0.4638 0.3977
C235 C 0.16849(16) 0.49613(10) 0.40822(6)
H182 H 0.1796 0.5167 0.4001
C236 C 0.12505(16) 0.49361(11) 0.42003(7)
H183 H 0.1009 0.5131 0.4200
C237 C 0.11406(17) 0.46173(11) 0.43286(7)
H184 H 0.0837 0.4616 0.4423
C238 C 0.14581(16) 0.42895(11) 0.43276(7)
C239 C 0.13999(17) 0.39743(11) 0.44403(7)
C240 C 0.09513(18) 0.38581(12) 0.45802(8)
H185 H 0.0644 0.4009 0.4589
C241 C 0.09800(18) 0.35369(13) 0.46953(8)
H186 H 0.0782 0.3490 0.4839
C242 C 0.12716(18) 0.32916(12) 0.46137(8)
H187 H 0.1197 0.3056 0.4653
C243 C 0.17200(17) 0.33700(11) 0.44601(7)
H188 H 0.1967 0.3195 0.4419
C244 C 0.17540(16) 0.37009(11) 0.43845(7)
C245 C 0.28011(15) 0.31802(9) 0.40327(7)
H189 H 0.2542 0.3222 0.3852
C246 C 0.31016(16) 0.28861(8) 0.40615(7)
H190 H 0.3047 0.2729 0.3904
C247 C 0.35448(17) 0.27932(9) 0.43497(7)
H191 H 0.3787 0.2595 0.4383
C248 C 0.35218(17) 0.30148(9) 0.45168(7)
H192 H 0.3760 0.2970 0.4702
C249 C 0.31868(16) 0.33673(10) 0.45018(6)
C250 C 0.32330(17) 0.36534(10) 0.46939(6)
C251 C 0.35976(18) 0.36474(11) 0.49799(6)
H193 H 0.3854 0.3459 0.5042
C252 C 0.35660(19) 0.39189(11) 0.51596(6)
H194 H 0.3772 0.3895 0.5354
C253 C 0.32708(19) 0.42173(11) 0.50877(6)
H195 H 0.3323 0.4404 0.5221
C254 C 0.28206(18) 0.42625(11) 0.47706(6)
H196 H 0.2575 0.4453 0.4702
C255 C 0.28932(16) 0.39119(10) 0.46051(6)
N22 N 0.16892(14) 0.64744(9) 0.07509(7)
C256 C 0.20652(15) 0.62783(9) 0.06227(6)
H197 H 0.2442 0.6217 0.0723
C257 C 0.18378(16) 0.61886(9) 0.03476(6)
H198 H 0.2075 0.6064 0.0251
C258 C 0.12242(16) 0.62705(10) 0.01759(6)
H199 H 0.1055 0.6144 0.0006
C259 C 0.09330(16) 0.65240(10) 0.02703(7)
H200 H 0.0619 0.6643 0.0150
C260 C 0.11528(15) 0.66006(9) 0.05836(7)
C261 C 0.09239(15) 0.68537(9) 0.07309(8)
C262 C 0.03846(16) 0.70261(10) 0.05744(8)
H201 H 0.0198 0.6992 0.0378
C263 C 0.01982(16) 0.72494(10) 0.07669(9)
H202 H -0.0173 0.7346 0.0700
C264 C 0.04954(16) 0.73441(9) 0.10436(9)
H203 H 0.0327 0.7508 0.1147
C265 C 0.10589(16) 0.72003(8) 0.11811(8)
H204 H 0.1285 0.7281 0.1360
C266 C 0.12304(15) 0.69333(9) 0.10236(8)
C267 C 0.19890(14) 0.67207(7) 0.17843(7)
H205 H 0.1765 0.6515 0.1764
C268 C 0.21406(15) 0.68968(6) 0.20690(7)
H206 H 0.2034 0.6810 0.2234
C269 C 0.24702(16) 0.72185(6) 0.20707(8)
H207 H 0.2560 0.7352 0.2243
C270 C 0.26588(16) 0.73405(6) 0.18391(8)
H208 H 0.2888 0.7544 0.1852
C271 C 0.24862(15) 0.71410(7) 0.15756(7)
C272 C 0.26665(16) 0.72202(7) 0.13333(8)
C273 C 0.30737(17) 0.74893(7) 0.13201(8)
H209 H 0.3223 0.7632 0.1483
C274 C 0.32460(18) 0.75381(7) 0.10701(8)
H210 H 0.3548 0.7698 0.1076
C275 C 0.30227(17) 0.73781(8) 0.08189(8)
H211 H 0.3121 0.7443 0.0646
C276 C 0.26109(16) 0.70928(8) 0.08288(7)
H212 H 0.2461 0.6956 0.0663
C277 C 0.24355(15) 0.70219(7) 0.10988(7)
N23 N 0.2826(8) 0.2716(5) 0.0468(3)
C278 C 0.2665(7) 0.3061(5) 0.0411(4)
H213 H 0.2370 0.3158 0.0486
C279 C 0.2936(10) 0.3264(4) 0.0244(5)
H214 H 0.2826 0.3500 0.0205
C280 C 0.3368(9) 0.3122(6) 0.0135(4)
H215 H 0.3554 0.3261 0.0021
C281 C 0.3529(8) 0.2776(6) 0.0192(4)
H216 H 0.3825 0.2679 0.0117
C282 C 0.3258(9) 0.2573(4) 0.0358(4)
C283 C 0.3489(7) 0.2265(3) 0.0423(3)
C284 C 0.3950(7) 0.2102(5) 0.0351(3)
H217 H 0.4162 0.2221 0.0238
C285 C 0.4100(7) 0.1764(5) 0.0445(4)
H218 H 0.4414 0.1653 0.0396
C286 C 0.3790(9) 0.1590(3) 0.0610(4)
H219 H 0.3892 0.1359 0.0674
C287 C 0.3330(8) 0.1753(5) 0.0682(4)
H220 H 0.3118 0.1633 0.0795
C288 C 0.3179(6) 0.2090(5) 0.0588(4)
C289 C 0.1978(11) 0.2116(8) 0.0365(6)
C290 C 0.1878(11) 0.2252(6) 0.0089(8)
H221 H 0.2034 0.2472 0.0058
C291 C 0.1550(12) 0.2068(8) -0.0142(4)
H222 H 0.1481 0.2161 -0.0331
C292 C 0.1322(10) 0.1746(8) -0.0097(5)
H223 H 0.1098 0.1620 -0.0255
C293 C 0.1423(11) 0.1609(6) 0.0179(7)
H224 H 0.1267 0.1389 0.0210
C294 C 0.1751(13) 0.1794(9) 0.0410(4)
N24 N 0.2225(5) 0.1960(3) 0.0880(3)
C295 C 0.1855(5) 0.1724(3) 0.0710(3)
C296 C 0.1642(5) 0.1445(3) 0.0837(3)
H225 H 0.1389 0.1284 0.0721
C297 C 0.1800(5) 0.1403(3) 0.1133(3)
H226 H 0.1655 0.1212 0.1220
C298 C 0.2171(5) 0.1639(3) 0.1303(3)
H227 H 0.2279 0.1610 0.1505
C299 C 0.2383(5) 0.1918(3) 0.1176(3)
H228 H 0.2637 0.2079 0.1292
O36 O -0.0022(5) 0.3381(3) 0.0545(3)
C300 C 0.0439(5) 0.3410(3) 0.0721(3)
O37 O 0.2544(14) 0.4848(8) 0.3541(7)
O38 O 0.2341(11) 0.4473(6) 0.3115(5)
N25 N 0.2647(16) 0.4746(10) 0.3322(9)
C301 C 0.2953(6) 0.5075(4) 0.3129(3)
H229 H 0.3162 0.5247 0.3265
H230 H 0.2646 0.5191 0.2988
H231 H 0.3215 0.4962 0.3029
O39 O 0.3384(11) 0.3324(6) 0.3291(5)
O40 O 0.3819(8) 0.2830(6) 0.3324(4)
N26 N 0.3819(10) 0.3147(7) 0.3376(5)
C302 C 0.4442(8) 0.3336(4) 0.3497(2)
H232 H 0.4465 0.3544 0.3383
H233 H 0.4747 0.3173 0.3483
H234 H 0.4485 0.3402 0.3699
O41 O 0.4634(10) 0.5972(7) 0.0899(5)
O42 O 0.5364(12) 0.5611(6) 0.0939(5)
N27 N 0.4845(14) 0.5690(8) 0.0920(6)
C303 C 0.4583(7) 0.5374(3) 0.0891(2)
H235 H 0.4674 0.5253 0.1077
H236 H 0.4716 0.5235 0.0749
H237 H 0.4168 0.5407 0.0826
O43 O 1.0269(7) 0.8258(5) 0.3722(4)
O44 O 0.9778(10) 0.7885(6) 0.3900(5)
N28 N 1.0178(10) 0.8083(6) 0.3912(5)
C304 C 1.0578(7) 0.8118(4) 0.4193(4)
H238 H 1.0967 0.8140 0.4168
H239 H 1.0553 0.7911 0.4309
H240 H 1.0483 0.8326 0.4290
O45 O 0.7806(8) 0.7851(4) 0.3420(4)
O46 O 0.7035(7) 0.8107(4) 0.3231(3)
N29 N 0.7381(8) 0.7878(5) 0.3203(4)
C305 C 0.7306(6) 0.7656(3) 0.2971(3)
H241 H 0.6930 0.7545 0.2937
H242 H 0.7603 0.7476 0.3010
H243 H 0.7332 0.7788 0.2800
Ir1 Ir 0.67165(4) 0.90357(3) 0.08820(2)
Ir2 Ir 0.67471(3) 0.471692(19) 0.125185(18)
Ir3 Ir 0.84453(4) 0.74158(3) 0.436855(18)
O1 O 0.9043(5) 0.8079(3) 0.2215(3)
O2 O 0.8954(5) 0.7948(3) 0.1664(3)
O3 O 0.9433(5) 0.8469(3) 0.1736(3)
O4 O 0.8962(6) 0.6441(4) 0.1210(4)
O5 O 0.8973(5) 0.5933(3) 0.1617(3)
O6 O 0.9244(6) 0.5727(4) 0.1215(3)
O7 O 0.9547(8) 0.6198(4) 0.3038(4)
O8 O 0.9555(5) 0.6884(3) 0.3203(3)
O9 O 1.0356(6) 0.6769(3) 0.3547(3)
O10 O 0.4918(6) 0.7137(3) 0.1204(3)
O11 O 0.5189(6) 0.7762(3) 0.1473(3)
O12 O 0.4479(6) 0.7917(5) 0.1092(4)
O13 O 0.5977(5) 0.7886(3) 0.2839(2)
O14 O 0.6015(5) 0.7328(3) 0.3190(2)
O15 O 0.5703(5) 0.7770(3) 0.3431(3)
O16 O 0.5593(5) 0.5859(3) 0.2622(3)
O17 O 0.5383(4) 0.5839(3) 0.2050(2)
O18 O 0.5674(6) 0.6258(3) 0.1771(3)
N1 N 0.7451(8) 0.8802(5) 0.1159(3)
N2 N 0.7503(6) 0.5024(4) 0.1305(3)
N3 N 0.8918(6) 0.7228(4) 0.4056(3)
N4 N 0.6380(6) 0.5115(3) 0.1451(3)
N5 N 0.8737(6) 0.7881(4) 0.4302(3)
N6 N 0.7138(5) 0.4460(3) 0.1600(3)
C1 C 1.0203(7) 0.7425(4) 0.2258(4)
C2 C 0.9829(7) 0.7679(4) 0.2349(4)
H1 H 0.9873 0.7726 0.2548
C3 C 0.9418(7) 0.7847(4) 0.2149(4)
C4 C 0.9395(7) 0.7789(4) 0.1862(4)
C5 C 0.9731(7) 0.7570(4) 0.1777(4)
H2 H 0.9696 0.7545 0.1576
C6 C 1.0159(7) 0.7362(4) 0.1973(4)
C7 C 1.0491(8) 0.7085(4) 0.1867(5)
H3 H 1.0845 0.7036 0.2016
H4 H 1.0603 0.7171 0.1694
C8 C 1.0150(8) 0.6751(5) 0.1793(4)
C9 C 0.9761(8) 0.6720(5) 0.1530(4)
H5 H 0.9765 0.6890 0.1387
C10 C 0.9372(9) 0.6457(4) 0.1469(5)
C11 C 0.9365(8) 0.6204(5) 0.1664(5)
C12 C 0.9767(7) 0.6211(4) 0.1925(4)
H6 H 0.9793 0.6024 0.2057
C13 C 1.0136(7) 0.6500(5) 0.1992(4)
C14 C 1.0568(8) 0.6480(5) 0.2294(4)
H7 H 1.0705 0.6238 0.2331
H8 H 1.0901 0.6630 0.2295
C15 C 1.0285(8) 0.6599(4) 0.2533(5)
C16 C 1.0041(9) 0.6352(5) 0.2680(5)
H9 H 1.0032 0.6116 0.2619
C17 C 0.9818(8) 0.6430(5) 0.2903(5)
C18 C 0.9829(8) 0.6780(5) 0.2986(4)
C19 C 1.0101(8) 0.7026(5) 0.2858(4)
H10 H 1.0119 0.7259 0.2927
C20 C 1.0348(7) 0.6950(4) 0.2635(4)
C21 C 1.0612(7) 0.7240(4) 0.2498(4)
H11 H 1.0782 0.7413 0.2648
H12 H 1.0926 0.7142 0.2423
C22 C 0.9044(9) 0.8114(5) 0.2506(4)
H13 H 0.8952 0.7889 0.2580
H14 H 0.8758 0.8287 0.2526
H15 H 0.9423 0.8190 0.2614
C23 C 0.9000(8) 0.8310(5) 0.1635(4)
C24 C 0.8459(8) 0.8467(5) 0.1455(4)
C25 C 0.8413(9) 0.8815(5) 0.1447(5)
H16 H 0.8721 0.8960 0.1543
C26 C 0.7887(9) 0.8961(5) 0.1290(4)
H17 H 0.7865 0.9208 0.1284
C27 C 0.7499(8) 0.8440(5) 0.1168(4)
H18 H 0.7189 0.8305 0.1062
C28 C 0.7988(9) 0.8266(5) 0.1327(4)
H19 H 0.7996 0.8019 0.1345
C29 C 0.9021(15) 0.6673(8) 0.0967(7)
H20 H 0.8904 0.6910 0.1002
H21 H 0.8778 0.6585 0.0787
H22 H 0.9420 0.6675 0.0955
C30 C 0.8938(9) 0.5703(4) 0.1376(5)
C31 C 0.8446(7) 0.5470(4) 0.1367(4)
C32 C 0.8261(7) 0.5289(4) 0.1118(4)
H23 H 0.8421 0.5325 0.0958
C33 C 0.7810(7) 0.5041(4) 0.1109(4)
H24 H 0.7725 0.4881 0.0954
C34 C 0.7703(8) 0.5201(5) 0.1553(4)
H25 H 0.7526 0.5173 0.1707
C35 C 0.8183(8) 0.5434(4) 0.1583(4)
H26 H 0.8314 0.5562 0.1756
C36 C 0.9454(15) 0.5853(6) 0.2940(7)
H27 H 0.9286 0.5853 0.2733
H28 H 0.9192 0.5738 0.3038
H29 H 0.9818 0.5727 0.2982
C37 C 0.9883(8) 0.6850(5) 0.3478(4)
C38 C 0.9548(8) 0.6993(5) 0.3663(4)
C39 C 0.9033(8) 0.7196(4) 0.3589(4)
H30 H 0.8893 0.7267 0.3395
C40 C 0.8746(9) 0.7288(5) 0.3781(4)
H31 H 0.8392 0.7405 0.3713
C41 C 0.9410(9) 0.7033(5) 0.4138(4)
H32 H 0.9543 0.6985 0.4338
C42 C 0.9736(10) 0.6899(6) 0.3960(5)
H33 H 1.0059 0.6754 0.4030
C43 C 0.4197(7) 0.7039(4) 0.1808(4)
C44 C 0.4391(8) 0.6966(4) 0.1564(4)
H34 H 0.4295 0.6747 0.1472
C45 C 0.4715(9) 0.7194(5) 0.1448(4)
C46 C 0.4829(9) 0.7522(5) 0.1572(4)
C47 C 0.4633(8) 0.7607(4) 0.1816(4)
H35 H 0.4712 0.7831 0.1899
C48 C 0.4335(8) 0.7376(4) 0.1934(4)
C49 C 0.4186(8) 0.7479(4) 0.2203(3)
H36 H 0.3843 0.7346 0.2217
H37 H 0.4080 0.7728 0.2189
C50 C 0.4639(7) 0.7426(4) 0.2479(3)
C51 C 0.5055(7) 0.7687(4) 0.2524(4)
H38 H 0.5031 0.7874 0.2392
C52 C 0.5526(7) 0.7663(4) 0.2780(4)
C53 C 0.5543(7) 0.7374(4) 0.2949(4)
C54 C 0.5123(6) 0.7136(4) 0.2912(4)
H39 H 0.5135 0.6961 0.3054
C55 C 0.4665(7) 0.7145(4) 0.2666(4)
C56 C 0.4250(7) 0.6824(4) 0.2604(4)
H40 H 0.4202 0.6727 0.2787
H41 H 0.3871 0.6901 0.2490
C57 C 0.4483(7) 0.6542(4) 0.2439(4)
C58 C 0.4910(7) 0.6332(4) 0.2606(4)
H42 H 0.5012 0.6354 0.2809
C59 C 0.5187(6) 0.6085(4) 0.2466(4)
C60 C 0.5083(6) 0.6086(4) 0.2170(4)
C61 C 0.4663(7) 0.6289(4) 0.2007(4)
H43 H 0.4581 0.6277 0.1803
C62 C 0.4344(7) 0.6524(4) 0.2145(4)
C63 C 0.3909(7) 0.6755(4) 0.1945(4)
H44 H 0.3669 0.6609 0.1792
H45 H 0.3658 0.6864 0.2055
C64 C 0.4847(10) 0.6779(5) 0.1118(5)
H46 H 0.5200 0.6651 0.1200
H47 H 0.4760 0.6765 0.0908
H48 H 0.4532 0.6677 0.1186
C65 C 0.4961(10) 0.7939(5) 0.1220(5)
C66 C 0.5378(3) 0.81890(14) 0.11536(10)
C67 C 0.5893(3) 0.82559(13) 0.13509(10)
H49 H 0.5985 0.8136 0.1529
C68 C 0.6272(3) 0.84977(14) 0.12868(11)
H50 H 0.6623 0.8543 0.1422
N7 N 0.6136(4) 0.86728(15) 0.10255(12)
C69 C 0.5621(4) 0.86059(16) 0.08282(11)
H51 H 0.5529 0.8726 0.0650
C70 C 0.5242(4) 0.83640(16) 0.08923(11)
H52 H 0.4891 0.8318 0.0757
C71 C 0.6004(2) 0.81519(11) 0.26174(10)
H53 H 0.6065 0.8036 0.2445
H54 H 0.6321 0.8312 0.2693
H55 H 0.5645 0.8282 0.2568
C72 C 0.6051(2) 0.75443(13) 0.34003(9)
C73 C 0.6630(3) 0.74940(14) 0.36364(9)
C74 C 0.6756(3) 0.77812(15) 0.38411(9)
H56 H 0.6521 0.7979 0.3843
C75 C 0.7297(3) 0.77148(16) 0.40402(9)
H57 H 0.7419 0.7883 0.4187
N8 N 0.7643(3) 0.74477(16) 0.40425(9)
C76 C 0.7477(3) 0.71930(15) 0.38518(9)
H58 H 0.7714 0.6995 0.3856
C77 C 0.6920(2) 0.72162(14) 0.36313(9)
H59 H 0.6790 0.7036 0.3496
C78 C 0.5727(3) 0.58745(12) 0.29297(11)
H60 H 0.5861 0.6109 0.2993
H61 H 0.6027 0.5705 0.3010
H62 H 0.5385 0.5820 0.2997
C79 C 0.5609(2) 0.59647(12) 0.18528(11)
C80 C 0.5895(3) 0.56700(12) 0.17167(11)
C81 C 0.5750(3) 0.53147(12) 0.17766(13)
H63 H 0.5507 0.5264 0.1900
C82 C 0.6017(3) 0.50260(12) 0.16281(14)
H64 H 0.5935 0.4788 0.1656
C83 C 0.6520(3) 0.54410(14) 0.14153(13)
H65 H 0.6815 0.5484 0.1320
C84 C 0.6236(3) 0.57516(13) 0.15182(11)
H66 H 0.6280 0.5983 0.1456
C85 C 0.7153(9) 0.8911(4) 0.0501(5)
C86 C 0.7366(10) 0.8794(7) 0.0274(5)
H67 H 0.7605 0.8941 0.0195
C87 C 0.7230(12) 0.8462(8) 0.0163(4)
H68 H 0.7376 0.8382 0.0008
C88 C 0.6881(11) 0.8247(5) 0.0279(5)
H69 H 0.6788 0.8021 0.0203
C89 C 0.6668(8) 0.8365(4) 0.0506(4)
H70 H 0.6429 0.8218 0.0585
N9 N 0.6804(7) 0.8697(4) 0.0617(3)
C90 C 0.7461(8) 0.9263(3) 0.0526(4)
C91 C 0.7840(8) 0.9486(5) 0.0439(3)
H71 H 0.8009 0.9420 0.0288
C92 C 0.7973(7) 0.9806(4) 0.0574(4)
H72 H 0.8232 0.9959 0.0515
C93 C 0.7726(8) 0.9903(4) 0.0796(4)
H73 H 0.7817 1.0122 0.0888
C94 C 0.7347(8) 0.9680(5) 0.0882(3)
H74 H 0.7179 0.9746 0.1034
C95 C 0.7215(6) 0.9359(4) 0.0747(4)
C96 C 0.6083(9) 0.9305(6) 0.0612(6)
C97 C 0.5856(11) 0.9225(5) 0.0325(6)
H75 H 0.6022 0.9045 0.0236
C98 C 0.5387(11) 0.9407(7) 0.0167(4)
H76 H 0.5231 0.9352 -0.0029
C99 C 0.5144(8) 0.9670(6) 0.0297(6)
H77 H 0.4822 0.9795 0.0189
C100 C 0.5370(11) 0.9751(5) 0.0584(6)
H78 H 0.5204 0.9931 0.0673
C101 C 0.5840(11) 0.9569(7) 0.0742(4)
N10 N 0.6516(7) 0.9365(4) 0.1173(2)
C102 C 0.6063(6) 0.9594(4) 0.1075(2)
C103 C 0.5883(7) 0.9810(4) 0.1267(3)
H79 H 0.5574 0.9966 0.1200
C104 C 0.6155(7) 0.9799(4) 0.1558(2)
H80 H 0.6032 0.9947 0.1690
C105 C 0.6608(6) 0.9570(3) 0.1656(2)
H81 H 0.6793 0.9562 0.1855
C106 C 0.6788(6) 0.9354(4) 0.1464(2)
H82 H 0.7097 0.9198 0.1531
C107 C 0.8487(5) 0.8098(3) 0.4080(2)
H83 H 0.8180 0.8009 0.3934
C108 C 0.8660(4) 0.8450(3) 0.4056(2)
H84 H 0.8434 0.8603 0.3919
C109 C 0.9207(5) 0.8571(3) 0.4250(2)
H85 H 0.9396 0.8778 0.4217
C110 C 0.9422(5) 0.8347(4) 0.4492(2)
H86 H 0.9735 0.8425 0.4640
C111 C 0.9196(5) 0.8029(3) 0.4518(2)
C112 C 0.9431(6) 0.7755(3) 0.4719(3)
C113 C 0.9920(6) 0.7802(4) 0.4939(4)
H87 H 1.0108 0.8021 0.4963
C114 C 1.0134(6) 0.7528(5) 0.5124(3)
H88 H 1.0468 0.7561 0.5274
C115 C 0.9859(7) 0.7208(4) 0.5088(3)
H89 H 1.0005 0.7021 0.5215
C116 C 0.9370(7) 0.7160(3) 0.4869(3)
H90 H 0.9182 0.6941 0.4845
C117 C 0.9156(5) 0.7434(3) 0.4684(3)
C118 C 0.8011(6) 0.7556(4) 0.4663(3)
C119 C 0.7900(7) 0.7891(3) 0.4745(3)
H91 H 0.8057 0.8086 0.4670
C120 C 0.7558(8) 0.7941(4) 0.4936(4)
H92 H 0.7482 0.8170 0.4992
C121 C 0.7328(7) 0.7655(5) 0.5046(3)
H93 H 0.7094 0.7689 0.5177
C122 C 0.7439(7) 0.7320(4) 0.4964(3)
H94 H 0.7281 0.7125 0.5039
C123 C 0.7781(6) 0.7271(3) 0.4773(3)
N11 N 0.8181(2) 0.69672(17) 0.44727(11)
C124 C 0.7855(2) 0.69422(17) 0.46736(11)
C125 C 0.7677(2) 0.66180(18) 0.47466(10)
H95 H 0.7453 0.6601 0.4884
C126 C 0.78246(19) 0.63188(17) 0.46188(9)
H96 H 0.7703 0.6097 0.4669
C127 C 0.81510(18) 0.63438(17) 0.44179(10)
H97 H 0.8252 0.6139 0.4331
C128 C 0.83293(18) 0.66680(17) 0.43449(10)
H98 H 0.8552 0.6685 0.4208
N12 N 0.63100(13) 0.49259(10) 0.08809(8)
C129 C 0.64774(14) 0.51945(11) 0.07258(8)
H99 H 0.6843 0.5291 0.0807
C130 C 0.61754(15) 0.53420(11) 0.04645(8)
H100 H 0.6340 0.5508 0.0362
C131 C 0.56262(15) 0.52268(11) 0.03715(7)
H101 H 0.5371 0.5350 0.0222
C132 C 0.54221(14) 0.49257(11) 0.04932(7)
H102 H 0.5075 0.4817 0.0396
C133 C 0.57496(13) 0.47903(10) 0.07644(7)
C134 C 0.56002(12) 0.45149(9) 0.09368(7)
C135 C 0.50835(12) 0.43576(9) 0.08543(7)
H103 H 0.4826 0.4420 0.0678
C136 C 0.49373(12) 0.41107(9) 0.10245(7)
H104 H 0.4567 0.4011 0.0967
C137 C 0.53437(11) 0.39822(8) 0.13095(7)
H105 H 0.5253 0.3815 0.1438
C138 C 0.59345(11) 0.41790(9) 0.13485(7)
H106 H 0.6237 0.4107 0.1504
C139 C 0.60467(12) 0.44364(9) 0.11831(7)
C140 C 0.71492(10) 0.45069(10) 0.18724(8)
H107 H 0.6969 0.4717 0.1908
C141 C 0.73778(10) 0.43063(10) 0.21296(8)
H108 H 0.7373 0.4384 0.2317
C142 C 0.75989(10) 0.39974(10) 0.20774(9)
H109 H 0.7754 0.3842 0.2231
C143 C 0.75965(11) 0.39103(10) 0.18028(9)
H110 H 0.7761 0.3694 0.1769
C144 C 0.73646(11) 0.41230(10) 0.15672(8)
C145 C 0.73348(12) 0.40759(10) 0.12862(9)
C146 C 0.76429(13) 0.37740(11) 0.11895(9)
H111 H 0.7808 0.3598 0.1323
C147 C 0.76884(14) 0.37515(12) 0.08871(10)
H112 H 0.7930 0.3585 0.0830
C148 C 0.73644(14) 0.39831(12) 0.06903(9)
H113 H 0.7345 0.3952 0.0492
C149 C 0.70316(13) 0.42922(11) 0.07837(8)
H114 H 0.6803 0.4446 0.0647
C150 C 0.70889(12) 0.43330(11) 0.10888(8)
O47? O 0.0890(4) 0.3349(3) 0.1463(3)
C306? C 0.0665(4) 0.3238(3) 0.1240(3)
C307? C 0.1159(13) 0.3056(8) 0.1076(7)
C308? C 0.1613(12) 0.2886(8) 0.1259(5)
H244? H 0.1685 0.2921 0.1461
C309? C 0.1962(10) 0.2666(7) 0.1148(6)
H245? H 0.2272 0.2550 0.1273
N30? N 0.1857(12) 0.2616(7) 0.0853(6)
C310? C 0.1402(15) 0.2786(9) 0.0669(5)
H246? H 0.1330 0.2752 0.0468
C311? C 0.1054(13) 0.3006(9) 0.0781(6)
H247? H 0.0743 0.3122 0.0656
loop_
_geom_bond_atom_site_label_1
_geom_bond_atom_site_label_2
_geom_bond_site_symmetry_1
_geom_bond_site_symmetry_2
Ir1 N1 1_555 1_555
Ir2 N2 1_555 1_555
Ir3 N3 1_555 1_555
O1 C3 1_555 1_555
O2 C4 1_555 1_555
O3 C23 1_555 1_555
O4 C10 1_555 1_555
O5 C11 1_555 1_555
O6 C30 1_555 1_555
O7 C17 1_555 1_555
O8 C18 1_555 1_555
O9 C37 1_555 1_555
O10 C45 1_555 1_555
O11 C46 1_555 1_555
O12 C65 1_555 1_555
O13 C52 1_555 1_555
O14 C53 1_555 1_555
O15 C72 1_555 1_555
O16 C59 1_555 1_555
O17 C60 1_555 1_555
O18 C79 1_555 1_555
N1 C26 1_555 1_555
N2 C33 1_555 1_555
N3 C40 1_555 1_555
N4 Ir2 1_555 1_555
N5 Ir3 1_555 1_555
N6 Ir2 1_555 1_555
C1 C2 1_555 1_555
C2 H1 1_555 1_555
C3 C2 1_555 1_555
C4 C3 1_555 1_555
C5 C4 1_555 1_555
H2 C5 1_555 1_555
C6 C1 1_555 1_555
C7 C6 1_555 1_555
H3 C7 1_555 1_555
H4 C7 1_555 1_555
C8 C7 1_555 1_555
C9 C8 1_555 1_555
H5 C9 1_555 1_555
C10 C9 1_555 1_555
C11 C10 1_555 1_555
C12 C11 1_555 1_555
H6 C12 1_555 1_555
C13 C8 1_555 1_555
C14 C13 1_555 1_555
H7 C14 1_555 1_555
H8 C14 1_555 1_555
C15 C14 1_555 1_555
C16 C15 1_555 1_555
H9 C16 1_555 1_555
C17 C16 1_555 1_555
C18 C17 1_555 1_555
C19 C18 1_555 1_555
H10 C19 1_555 1_555
C20 C15 1_555 1_555
C21 C1 1_555 1_555
H11 C21 1_555 1_555
H12 C21 1_555 1_555
C22 O1 1_555 1_555
H13 C22 1_555 1_555
H14 C22 1_555 1_555
H15 C22 1_555 1_555
C23 O2 1_555 1_555
C24 C23 1_555 1_555
C25 C24 1_555 1_555
H16 C25 1_555 1_555
C26 C25 1_555 1_555
H17 C26 1_555 1_555
C27 N1 1_555 1_555
H18 C27 1_555 1_555
C28 C24 1_555 1_555
H19 C28 1_555 1_555
C29 O4 1_555 1_555
H20 C29 1_555 1_555
H21 C29 1_555 1_555
H22 C29 1_555 1_555
C30 O5 1_555 1_555
C31 C30 1_555 1_555
C32 C31 1_555 1_555
H23 C32 1_555 1_555
C33 C32 1_555 1_555
H24 C33 1_555 1_555
C34 N2 1_555 1_555
H25 C34 1_555 1_555
C35 C31 1_555 1_555
H26 C35 1_555 1_555
C36 O7 1_555 1_555
H27 C36 1_555 1_555
H28 C36 1_555 1_555
H29 C36 1_555 1_555
C37 O8 1_555 1_555
C38 C37 1_555 1_555
C39 C38 1_555 1_555
H30 C39 1_555 1_555
C40 C39 1_555 1_555
H31 C40 1_555 1_555
C41 N3 1_555 1_555
H32 C41 1_555 1_555
C42 C38 1_555 1_555
H33 C42 1_555 1_555
C43 C44 1_555 1_555
C44 H34 1_555 1_555
C45 C44 1_555 1_555
C46 C45 1_555 1_555
C47 C46 1_555 1_555
H35 C47 1_555 1_555
C48 C43 1_555 1_555
C49 C48 1_555 1_555
H36 C49 1_555 1_555
H37 C49 1_555 1_555
C50 C49 1_555 1_555
C51 C50 1_555 1_555
H38 C51 1_555 1_555
C52 C51 1_555 1_555
C53 C52 1_555 1_555
C54 C53 1_555 1_555
H39 C54 1_555 1_555
C55 C50 1_555 1_555
C56 C55 1_555 1_555
H40 C56 1_555 1_555
H41 C56 1_555 1_555
C57 C56 1_555 1_555
C58 C57 1_555 1_555
H42 C58 1_555 1_555
C59 C58 1_555 1_555
C60 C59 1_555 1_555
C61 C60 1_555 1_555
H43 C61 1_555 1_555
C62 C57 1_555 1_555
C63 C43 1_555 1_555
H44 C63 1_555 1_555
H45 C63 1_555 1_555
C64 O10 1_555 1_555
H46 C64 1_555 1_555
H47 C64 1_555 1_555
H48 C64 1_555 1_555
C65 O11 1_555 1_555
C66 C65 1_555 1_555
C67 C66 1_555 1_555
H49 C67 1_555 1_555
C68 C67 1_555 1_555
H50 C68 1_555 1_555
N7 Ir1 1_555 1_555
C69 N7 1_555 1_555
H51 C69 1_555 1_555
C70 C66 1_555 1_555
H52 C70 1_555 1_555
C71 O13 1_555 1_555
H53 C71 1_555 1_555
H54 C71 1_555 1_555
H55 C71 1_555 1_555
C72 O14 1_555 1_555
C73 C72 1_555 1_555
C74 C73 1_555 1_555
H56 C74 1_555 1_555
C75 C74 1_555 1_555
H57 C75 1_555 1_555
N8 Ir3 1_555 1_555
C76 N8 1_555 1_555
H58 C76 1_555 1_555
C77 C73 1_555 1_555
H59 C77 1_555 1_555
C78 O16 1_555 1_555
H60 C78 1_555 1_555
H61 C78 1_555 1_555
H62 C78 1_555 1_555
C79 O17 1_555 1_555
C80 C79 1_555 1_555
C81 C80 1_555 1_555
H63 C81 1_555 1_555
C82 N4 1_555 1_555
H64 C82 1_555 1_555
C83 N4 1_555 1_555
H65 C83 1_555 1_555
C84 C80 1_555 1_555
H66 C84 1_555 1_555
C85 C86 1_555 1_555
C86 H67 1_555 1_555
C87 C86 1_555 1_555
H68 C87 1_555 1_555
C88 C87 1_555 1_555
H69 C88 1_555 1_555
C89 C88 1_555 1_555
H70 C89 1_555 1_555
N9 Ir1 1_555 1_555
C90 C85 1_555 1_555
C91 C90 1_555 1_555
H71 C91 1_555 1_555
C92 C91 1_555 1_555
H72 C92 1_555 1_555
C93 C92 1_555 1_555
H73 C93 1_555 1_555
C94 C93 1_555 1_555
H74 C94 1_555 1_555
C95 Ir1 1_555 1_555
C96 Ir1 1_555 1_555
C97 C96 1_555 1_555
H75 C97 1_555 1_555
C98 C97 1_555 1_555
H76 C98 1_555 1_555
C99 C98 1_555 1_555
H77 C99 1_555 1_555
C100 C99 1_555 1_555
H78 C100 1_555 1_555
C101 C96 1_555 1_555
N10 Ir1 1_555 1_555
C102 C101 1_555 1_555
C103 C102 1_555 1_555
H79 C103 1_555 1_555
C104 C103 1_555 1_555
H80 C104 1_555 1_555
C105 C104 1_555 1_555
H81 C105 1_555 1_555
C106 N10 1_555 1_555
H82 C106 1_555 1_555
C107 N5 1_555 1_555
H83 C107 1_555 1_555
C108 C107 1_555 1_555
H84 C108 1_555 1_555
C109 C108 1_555 1_555
H85 C109 1_555 1_555
C110 C109 1_555 1_555
H86 C110 1_555 1_555
C111 N5 1_555 1_555
C112 C111 1_555 1_555
C113 C112 1_555 1_555
H87 C113 1_555 1_555
C114 C113 1_555 1_555
H88 C114 1_555 1_555
C115 C114 1_555 1_555
H89 C115 1_555 1_555
C116 C115 1_555 1_555
H90 C116 1_555 1_555
C117 Ir3 1_555 1_555
C118 Ir3 1_555 1_555
C119 C118 1_555 1_555
H91 C119 1_555 1_555
C120 C119 1_555 1_555
H92 C120 1_555 1_555
C121 C120 1_555 1_555
H93 C121 1_555 1_555
C122 C121 1_555 1_555
H94 C122 1_555 1_555
C123 C118 1_555 1_555
N11 Ir3 1_555 1_555
C124 C123 1_555 1_555
C125 C124 1_555 1_555
H95 C125 1_555 1_555
C126 C125 1_555 1_555
H96 C126 1_555 1_555
C127 C126 1_555 1_555
H97 C127 1_555 1_555
C128 N11 1_555 1_555
H98 C128 1_555 1_555
N12 Ir2 1_555 1_555
C129 N12 1_555 1_555
H99 C129 1_555 1_555
C130 C129 1_555 1_555
H100 C130 1_555 1_555
C131 C130 1_555 1_555
H101 C131 1_555 1_555
C132 C131 1_555 1_555
H102 C132 1_555 1_555
C133 N12 1_555 1_555
C134 C133 1_555 1_555
C135 C134 1_555 1_555
H103 C135 1_555 1_555
C136 C135 1_555 1_555
H104 C136 1_555 1_555
C137 C136 1_555 1_555
H105 C137 1_555 1_555
C138 C137 1_555 1_555
H106 C138 1_555 1_555
C139 Ir2 1_555 1_555
C140 N6 1_555 1_555
H107 C140 1_555 1_555
C141 C140 1_555 1_555
H108 C141 1_555 1_555
C142 C141 1_555 1_555
H109 C142 1_555 1_555
C143 C142 1_555 1_555
H110 C143 1_555 1_555
C144 N6 1_555 1_555
C145 C144 1_555 1_555
C146 C145 1_555 1_555
H111 C146 1_555 1_555
C147 C146 1_555 1_555
H112 C147 1_555 1_555
C148 C147 1_555 1_555
H113 C148 1_555 1_555
C149 C148 1_555 1_555
H114 C149 1_555 1_555
C150 Ir2 1_555 1_555
Ir4 N13 1_555 1_555
Ir5 N14 1_555 1_555
Ir6 N16 1_555 1_555
O19 C153 1_555 1_555
O20 C154 1_555 1_555
O21 C173 1_555 1_555
O22 C160 1_555 1_555
O23 C161 1_555 1_555
O24 C180 1_555 1_555
O25 C167 1_555 1_555
O26 C168 1_555 1_555
O27 C194 1_555 1_555
O28 C195 1_555 1_555
O29 C214 1_555 1_555
O30 C201 1_555 1_555
O31 C202 1_555 1_555
O32 C221 1_555 1_555
O33 C208 1_555 1_555
O34 C209 1_555 1_555
O35 C228 1_555 1_555
N13 C176 1_555 1_555
N14 C183 1_555 1_555
N15 Ir4 1_555 1_555
N16 C224 1_555 1_555
N17 Ir5 1_555 1_555
N18 Ir4 1_555 1_555
N19 Ir4 1_555 1_555
N20 Ir5 1_555 1_555
C151 C152 1_555 1_555
C152 H115 1_555 1_555
C153 C152 1_555 1_555
C154 C153 1_555 1_555
C155 C154 1_555 1_555
H116 C155 1_555 1_555
C156 C151 1_555 1_555
C157 C156 1_555 1_555
H117 C157 1_555 1_555
H118 C157 1_555 1_555
C158 C157 1_555 1_555
C159 C158 1_555 1_555
H119 C159 1_555 1_555
C160 C159 1_555 1_555
C161 C160 1_555 1_555
C162 C161 1_555 1_555
H120 C162 1_555 1_555
C163 C158 1_555 1_555
C164 C163 1_555 1_555
H121 C164 1_555 1_555
H122 C164 1_555 1_555
C165 C164 1_555 1_555
C166 C165 1_555 1_555
H123 C166 1_555 1_555
C167 C166 1_555 1_555
C168 C167 1_555 1_555
C169 C168 1_555 1_555
H124 C169 1_555 1_555
C170 C165 1_555 1_555
C171 C151 1_555 1_555
H125 C171 1_555 1_555
H126 C171 1_555 1_555
C172 O19 1_555 1_555
H127 C172 1_555 1_555
H128 C172 1_555 1_555
H129 C172 1_555 1_555
C173 O20 1_555 1_555
C174 C173 1_555 1_555
C175 C174 1_555 1_555
H130 C175 1_555 1_555
C176 C175 1_555 1_555
H131 C176 1_555 1_555
C177 N13 1_555 1_555
H132 C177 1_555 1_555
C178 C174 1_555 1_555
H133 C178 1_555 1_555
C179 O22 1_555 1_555
H134 C179 1_555 1_555
H135 C179 1_555 1_555
H136 C179 1_555 1_555
C180 O23 1_555 1_555
C181 C180 1_555 1_555
C182 C181 1_555 1_555
H137 C182 1_555 1_555
C183 C182 1_555 1_555
H138 C183 1_555 1_555
C184 N14 1_555 1_555
H139 C184 1_555 1_555
C185 C181 1_555 1_555
H140 C185 1_555 1_555
C186 O25 1_555 1_555
H141 C186 1_555 1_555
H142 C186 1_555 1_555
H143 C186 1_555 1_555
C187 C188 1_555 1_555
C188 H144 1_555 1_555
C189 C188 1_555 1_555
H145 C189 1_555 1_555
N21 Ir6 1_555 1_555
C190 N21 1_555 1_555
H146 C190 1_555 1_555
C191 C187 1_555 1_555
H147 C191 1_555 1_555
C192 C193 1_555 1_555
C193 H148 1_555 1_555
C194 C193 1_555 1_555
C195 C194 1_555 1_555
C196 C195 1_555 1_555
H149 C196 1_555 1_555
C197 C192 1_555 1_555
C198 C197 1_555 1_555
H150 C198 1_555 1_555
H151 C198 1_555 1_555
C199 C198 1_555 1_555
C200 C199 1_555 1_555
H152 C200 1_555 1_555
C201 C200 1_555 1_555
C202 C201 1_555 1_555
C203 C202 1_555 1_555
H153 C203 1_555 1_555
C204 C199 1_555 1_555
C205 C204 1_555 1_555
H154 C205 1_555 1_555
H155 C205 1_555 1_555
C206 C205 1_555 1_555
C207 C206 1_555 1_555
H156 C207 1_555 1_555
C208 C207 1_555 1_555
C209 C208 1_555 1_555
C210 C209 1_555 1_555
H157 C210 1_555 1_555
C211 C206 1_555 1_555
C212 C192 1_555 1_555
H158 C212 1_555 1_555
H159 C212 1_555 1_555
C213 O27 1_555 1_555
H160 C213 1_555 1_555
H161 C213 1_555 1_555
H162 C213 1_555 1_555
C214 O28 1_555 1_555
C215 C214 1_555 1_555
C216 C215 1_555 1_555
H163 C216 1_555 1_555
C217 N15 1_555 1_555
H164 C217 1_555 1_555
C218 N15 1_555 1_555
H165 C218 1_555 1_555
C219 C215 1_555 1_555
H166 C219 1_555 1_555
C220 O30 1_555 1_555
H167 C220 1_555 1_555
H168 C220 1_555 1_555
H169 C220 1_555 1_555
C221 O31 1_555 1_555
C222 C221 1_555 1_555
C223 C222 1_555 1_555
H170 C223 1_555 1_555
C224 C223 1_555 1_555
H171 C224 1_555 1_555
C225 N16 1_555 1_555
H172 C225 1_555 1_555
C226 C222 1_555 1_555
H173 C226 1_555 1_555
C227 O33 1_555 1_555
H174 C227 1_555 1_555
H175 C227 1_555 1_555
H176 C227 1_555 1_555
C228 O34 1_555 1_555
C229 C228 1_555 1_555
C230 C229 1_555 1_555
H177 C230 1_555 1_555
C231 N17 1_555 1_555
H178 C231 1_555 1_555
C232 N17 1_555 1_555
H179 C232 1_555 1_555
C233 C229 1_555 1_555
H180 C233 1_555 1_555
C234 N19 1_555 1_555
H181 C234 1_555 1_555
C235 C234 1_555 1_555
H182 C235 1_555 1_555
C236 C235 1_555 1_555
H183 C236 1_555 1_555
C237 C236 1_555 1_555
H184 C237 1_555 1_555
C238 N19 1_555 1_555
C239 C238 1_555 1_555
C240 C239 1_555 1_555
H185 C240 1_555 1_555
C241 C240 1_555 1_555
H186 C241 1_555 1_555
C242 C241 1_555 1_555
H187 C242 1_555 1_555
C243 C242 1_555 1_555
H188 C243 1_555 1_555
C244 Ir4 1_555 1_555
C245 N18 1_555 1_555
H189 C245 1_555 1_555
C246 C245 1_555 1_555
H190 C246 1_555 1_555
C247 C246 1_555 1_555
H191 C247 1_555 1_555
C248 C247 1_555 1_555
H192 C248 1_555 1_555
C249 N18 1_555 1_555
C250 C249 1_555 1_555
C251 C250 1_555 1_555
H193 C251 1_555 1_555
C252 C251 1_555 1_555
H194 C252 1_555 1_555
C253 C252 1_555 1_555
H195 C253 1_555 1_555
C254 C253 1_555 1_555
H196 C254 1_555 1_555
C255 Ir4 1_555 1_555
N22 Ir5 1_555 1_555
C256 N22 1_555 1_555
H197 C256 1_555 1_555
C257 C256 1_555 1_555
H198 C257 1_555 1_555
C258 C257 1_555 1_555
H199 C258 1_555 1_555
C259 C258 1_555 1_555
H200 C259 1_555 1_555
C260 N22 1_555 1_555
C261 C260 1_555 1_555
C262 C261 1_555 1_555
H201 C262 1_555 1_555
C263 C262 1_555 1_555
H202 C263 1_555 1_555
C264 C263 1_555 1_555
H203 C264 1_555 1_555
C265 C264 1_555 1_555
H204 C265 1_555 1_555
C266 Ir5 1_555 1_555
C267 N20 1_555 1_555
H205 C267 1_555 1_555
C268 C267 1_555 1_555
H206 C268 1_555 1_555
C269 C268 1_555 1_555
H207 C269 1_555 1_555
C270 C269 1_555 1_555
H208 C270 1_555 1_555
C271 N20 1_555 1_555
C272 C271 1_555 1_555
C273 C272 1_555 1_555
H209 C273 1_555 1_555
C274 C273 1_555 1_555
H210 C274 1_555 1_555
C275 C274 1_555 1_555
H211 C275 1_555 1_555
C276 C275 1_555 1_555
H212 C276 1_555 1_555
C277 Ir5 1_555 1_555
N23 Ir6 1_555 1_555
C278 N23 1_555 1_555
H213 C278 1_555 1_555
C279 C278 1_555 1_555
H214 C279 1_555 1_555
C280 C279 1_555 1_555
H215 C280 1_555 1_555
C281 C280 1_555 1_555
H216 C281 1_555 1_555
C282 N23 1_555 1_555
C283 C282 1_555 1_555
C284 C283 1_555 1_555
H217 C284 1_555 1_555
C285 C284 1_555 1_555
H218 C285 1_555 1_555
C286 C285 1_555 1_555
H219 C286 1_555 1_555
C287 C286 1_555 1_555
H220 C287 1_555 1_555
C288 Ir6 1_555 1_555
C289 Ir6 1_555 1_555
C290 C289 1_555 1_555
H221 C290 1_555 1_555
C291 C290 1_555 1_555
H222 C291 1_555 1_555
C292 C291 1_555 1_555
H223 C292 1_555 1_555
C293 C292 1_555 1_555
H224 C293 1_555 1_555
C294 C289 1_555 1_555
N24 Ir6 1_555 1_555
C295 C294 1_555 1_555
C296 C295 1_555 1_555
H225 C296 1_555 1_555
C297 C296 1_555 1_555
H226 C297 1_555 1_555
C298 C297 1_555 1_555
H227 C298 1_555 1_555
C299 N24 1_555 1_555
H228 C299 1_555 1_555
O36 C300 1_555 1_555
C300 O26 1_555 1_555
O37 N25 1_555 1_555
O38 N25 1_555 1_555
N25 C301 1_555 1_555
C301 H229 1_555 1_555
H230 C301 1_555 1_555
H231 C301 1_555 1_555
O39 N26 1_555 1_555
O40 N26 1_555 1_555
N26 C302 1_555 1_555
C302 H232 1_555 1_555
H233 C302 1_555 1_555
H234 C302 1_555 1_555
O41 N27 1_555 1_555
O42 N27 1_555 1_555
N27 C303 1_555 1_555
C303 H235 1_555 1_555
H236 C303 1_555 1_555
H237 C303 1_555 1_555
O43 N28 1_555 1_555
O44 N28 1_555 1_555
N28 C304 1_555 1_555
C304 H238 1_555 1_555
H239 C304 1_555 1_555
H240 C304 1_555 1_555
O45 N29 1_555 1_555
O46 N29 1_555 1_555
N29 C305 1_555 1_555
C305 H241 1_555 1_555
H242 C305 1_555 1_555
H243 C305 1_555 1_555
C5 C6 1_555 1_555
C12 C13 1_555 1_555
C19 C20 1_555 1_555
C20 C21 1_555 1_555
C27 C28 1_555 1_555
C34 C35 1_555 1_555
C41 C42 1_555 1_555
C47 C48 1_555 1_555
C54 C55 1_555 1_555
C61 C62 1_555 1_555
C62 C63 1_555 1_555
C68 N7 1_555 1_555
C69 C70 1_555 1_555
C75 N8 1_555 1_555
C76 C77 1_555 1_555
C81 C82 1_555 1_555
C83 C84 1_555 1_555
C85 N9 1_555 1_555
C89 N9 1_555 1_555
C90 C95 1_555 1_555
C94 C95 1_555 1_555
C100 C101 1_555 1_555
N10 C102 1_555 1_555
C105 C106 1_555 1_555
C110 C111 1_555 1_555
C112 C117 1_555 1_555
C116 C117 1_555 1_555
C122 C123 1_555 1_555
N11 C124 1_555 1_555
C127 C128 1_555 1_555
C132 C133 1_555 1_555
C134 C139 1_555 1_555
C138 C139 1_555 1_555
C143 C144 1_555 1_555
C145 C150 1_555 1_555
C149 C150 1_555 1_555
C155 C156 1_555 1_555
C162 C163 1_555 1_555
C169 C170 1_555 1_555
C170 C171 1_555 1_555
C177 C178 1_555 1_555
C184 C185 1_555 1_555
C187 C300 1_555 1_555
C189 N21 1_555 1_555
C190 C191 1_555 1_555
C196 C197 1_555 1_555
C203 C204 1_555 1_555
C210 C211 1_555 1_555
C211 C212 1_555 1_555
C216 C217 1_555 1_555
C218 C219 1_555 1_555
C225 C226 1_555 1_555
C230 C231 1_555 1_555
C232 C233 1_555 1_555
C237 C238 1_555 1_555
C239 C244 1_555 1_555
C243 C244 1_555 1_555
C248 C249 1_555 1_555
C250 C255 1_555 1_555
C254 C255 1_555 1_555
C259 C260 1_555 1_555
C261 C266 1_555 1_555
C265 C266 1_555 1_555
C270 C271 1_555 1_555
C272 C277 1_555 1_555
C276 C277 1_555 1_555
C281 C282 1_555 1_555
C283 C288 1_555 1_555
C287 C288 1_555 1_555
C293 C294 1_555 1_555
N24 C295 1_555 1_555
C298 C299 1_555 1_555

#END
