# generated using pymatgen
data_B4H178Pd2C197N10O5F16
_symmetry_space_group_name_H-M   'P 1'
_cell_length_a   23.09700000
_cell_length_b   28.87610000
_cell_length_c   29.69650000
_cell_angle_alpha   70.49100000
_cell_angle_beta   74.52500000
_cell_angle_gamma   68.87400000
_symmetry_Int_Tables_number   1
_chemical_formula_structural   B4H178Pd2C197N10O5F16
_chemical_formula_sum   'B16 H712 Pd8 C788 N40 O20 F64'
_cell_volume   17171.00518941
_cell_formula_units_Z   4
loop_
 _symmetry_equiv_pos_site_id
 _symmetry_equiv_pos_as_xyz
  1  'x, y, z'
loop_
 _atom_site_type_symbol
 _atom_site_label
 _atom_site_symmetry_multiplicity
 _atom_site_fract_x
 _atom_site_fract_y
 _atom_site_fract_z
 _atom_site_occupancy
  B  B1  1  0.930700  0.379300  0.129100  1.0
  B  B2  1  0.069300  0.620700  0.870900  1.0
  B  B3  1  0.251600  0.103300  0.305800  1.0
  B  B4  1  0.748400  0.896700  0.694200  1.0
  B  B5  1  0.335200  0.921600  0.257500  1.0
  B  B6  1  0.664800  0.078400  0.742500  1.0
  B  B7  1  0.828900  0.357200  0.740500  1.0
  B  B8  1  0.171100  0.642800  0.259500  1.0
  B  B9  1  0.790900  0.519900  0.814000  1.0
  B  B10  1  0.209100  0.480100  0.186000  1.0
  B  B11  1  0.462000  0.624400  0.437400  0.5
  B  B12  1  0.538000  0.375600  0.562600  0.5
  B  B13  1  0.497700  0.609700  0.421500  0.5
  B  B14  1  0.502300  0.390300  0.578500  0.5
  B  B15  1  0.164200  0.327800  0.861100  0.5
  B  B16  1  0.835800  0.672200  0.138900  0.5
  B  B17  1  0.145300  0.339700  0.882100  0.5
  B  B18  1  0.854700  0.660300  0.117900  0.5
  B  B19  1  0.528900  0.878700  0.494500  0.5
  B  B20  1  0.471100  0.121300  0.505500  0.5
  B  B21  1  0.547000  0.850300  0.486200  0.5
  B  B22  1  0.453000  0.149700  0.513800  0.5
  H  H23  1  0.857067  0.443429  0.894737  1.0
  H  H24  1  0.142933  0.556571  0.105263  1.0
  H  H25  1  0.020349  0.387433  0.939361  1.0
  H  H26  1  0.979651  0.612567  0.060639  1.0
  H  H27  1  0.973312  0.402322  0.014052  1.0
  H  H28  1  0.026688  0.597678  0.985948  1.0
  H  H29  1  0.864358  0.438136  0.030918  1.0
  H  H30  1  0.135642  0.561864  0.969082  1.0
  H  H31  1  0.653562  0.557518  0.016510  1.0
  H  H32  1  0.346438  0.442482  0.983490  1.0
  H  H33  1  0.545915  0.598699  0.022996  1.0
  H  H34  1  0.454085  0.401301  0.977004  1.0
  H  H35  1  0.647565  0.485802  0.922278  1.0
  H  H36  1  0.352435  0.514198  0.077722  1.0
  H  H37  1  0.360361  0.591127  0.947239  1.0
  H  H38  1  0.639639  0.408873  0.052761  1.0
  H  H39  1  0.361029  0.550623  0.890855  1.0
  H  H40  1  0.638971  0.449377  0.109145  1.0
  H  H41  1  0.550621  0.482946  0.881055  1.0
  H  H42  1  0.449379  0.517054  0.118945  1.0
  H  H43  1  0.537132  0.453011  0.744134  1.0
  H  H44  1  0.462868  0.546989  0.255866  1.0
  H  H45  1  0.457808  0.400700  0.677722  1.0
  H  H46  1  0.542192  0.599300  0.322278  1.0
  H  H47  1  0.365752  0.413807  0.733545  1.0
  H  H48  1  0.634248  0.586193  0.266455  1.0
  H  H49  1  0.358659  0.449190  0.796065  1.0
  H  H50  1  0.641341  0.550810  0.203935  1.0
  H  H51  1  0.439323  0.616564  0.031263  1.0
  H  H52  1  0.560677  0.383436  0.968737  1.0
  H  H53  1  0.383621  0.608389  0.015446  1.0
  H  H54  1  0.616379  0.391611  0.984554  1.0
  H  H55  1  0.397197  0.694313  0.997929  1.0
  H  H56  1  0.602803  0.305687  0.002071  1.0
  H  H57  1  0.363220  0.681102  0.966089  1.0
  H  H58  1  0.636780  0.318898  0.033911  1.0
  H  H59  1  0.479385  0.695127  0.942048  1.0
  H  H60  1  0.520615  0.304873  0.057952  1.0
  H  H61  1  0.454824  0.672872  0.911106  1.0
  H  H62  1  0.545176  0.327128  0.088894  1.0
  H  H63  1  0.383155  0.748087  0.888216  1.0
  H  H64  1  0.616845  0.251913  0.111784  1.0
  H  H65  1  0.399140  0.771141  0.923360  1.0
  H  H66  1  0.600860  0.228859  0.076640  1.0
  H  H67  1  0.479480  0.749595  0.839944  1.0
  H  H68  1  0.520520  0.250405  0.160056  1.0
  H  H69  1  0.490346  0.776982  0.874173  1.0
  H  H70  1  0.509654  0.223018  0.125827  1.0
  H  H71  1  0.926901  0.510551  0.787760  1.0
  H  H72  1  0.073099  0.489449  0.212240  1.0
  H  H73  1  0.071419  0.449075  0.856992  1.0
  H  H74  1  0.928581  0.550925  0.143008  1.0
  H  H75  1  0.089471  0.528355  0.836456  1.0
  H  H76  1  0.910529  0.471645  0.163544  1.0
  H  H77  1  0.025205  0.600098  0.788998  1.0
  H  H78  1  0.974795  0.399902  0.211002  1.0
  H  H79  1  0.867333  0.737307  0.705356  1.0
  H  H80  1  0.132667  0.262693  0.294644  1.0
  H  H81  1  0.791026  0.803011  0.663159  1.0
  H  H82  1  0.208974  0.196989  0.336841  1.0
  H  H83  1  0.792713  0.629185  0.706404  1.0
  H  H84  1  0.207287  0.370815  0.293596  1.0
  H  H85  1  0.596449  0.804298  0.590260  1.0
  H  H86  1  0.403551  0.195702  0.409740  1.0
  H  H87  1  0.562060  0.738410  0.587944  1.0
  H  H88  1  0.437940  0.261590  0.412056  1.0
  H  H89  1  0.692648  0.629401  0.667161  1.0
  H  H90  1  0.307352  0.370599  0.332839  1.0
  H  H91  1  0.599330  0.511988  0.655091  1.0
  H  H92  1  0.400670  0.488012  0.344909  1.0
  H  H93  1  0.519798  0.477647  0.574227  1.0
  H  H94  1  0.480202  0.522353  0.425773  1.0
  H  H95  1  0.500730  0.559759  0.523950  1.0
  H  H96  1  0.499270  0.440241  0.476050  1.0
  H  H97  1  0.529613  0.622037  0.540175  1.0
  H  H98  1  0.470387  0.377963  0.459825  1.0
  H  H99  1  0.688676  0.858270  0.632575  1.0
  H  H100  1  0.311324  0.141730  0.367425  1.0
  H  H101  1  0.643601  0.855210  0.601738  1.0
  H  H102  1  0.356399  0.144790  0.398262  1.0
  H  H103  1  0.716917  0.888392  0.548028  1.0
  H  H104  1  0.283083  0.111608  0.451972  1.0
  H  H105  1  0.772554  0.846553  0.574716  1.0
  H  H106  1  0.227446  0.153447  0.425284  1.0
  H  H107  1  0.709667  0.830602  0.516897  1.0
  H  H108  1  0.290333  0.169398  0.483103  1.0
  H  H109  1  0.762181  0.786643  0.545698  1.0
  H  H110  1  0.237819  0.213357  0.454302  1.0
  H  H111  1  0.784045  0.870147  0.466595  1.0
  H  H112  1  0.215955  0.129853  0.533405  1.0
  H  H113  1  0.837312  0.829419  0.496965  1.0
  H  H114  1  0.162688  0.170581  0.503035  1.0
  H  H115  1  0.779321  0.810124  0.435276  1.0
  H  H116  1  0.220679  0.189876  0.564724  1.0
  H  H117  1  0.819858  0.764082  0.472580  1.0
  H  H118  1  0.180142  0.235918  0.527420  1.0
  H  H119  1  0.844056  0.300202  0.860012  1.0
  H  H120  1  0.155944  0.699798  0.139988  1.0
  H  H121  1  0.873508  0.373403  0.844499  1.0
  H  H122  1  0.126492  0.626597  0.155501  1.0
  H  H123  1  0.039469  0.290890  0.880300  1.0
  H  H124  1  0.960531  0.709110  0.119700  1.0
  H  H125  1  0.015510  0.215212  0.896113  1.0
  H  H126  1  0.984490  0.784788  0.103887  1.0
  H  H127  1  0.973287  0.153549  0.934324  1.0
  H  H128  1  0.026713  0.846451  0.065676  1.0
  H  H129  1  0.944588  0.080226  0.950931  1.0
  H  H130  1  0.055412  0.919774  0.049069  1.0
  H  H131  1  0.842452  0.233056  0.847442  1.0
  H  H132  1  0.157548  0.766944  0.152558  1.0
  H  H133  1  0.712917  0.084920  0.855830  1.0
  H  H134  1  0.287083  0.915080  0.144170  1.0
  H  H135  1  0.661048  0.158864  0.804185  1.0
  H  H136  1  0.338952  0.841136  0.195815  1.0
  H  H137  1  0.771654  0.233818  0.815873  1.0
  H  H138  1  0.228346  0.766182  0.184127  1.0
  H  H139  1  0.636930  0.222878  0.740308  1.0
  H  H140  1  0.363070  0.777122  0.259692  1.0
  H  H141  1  0.590264  0.299478  0.688322  1.0
  H  H142  1  0.409736  0.700522  0.311678  1.0
  H  H143  1  0.657335  0.376073  0.738664  1.0
  H  H144  1  0.342665  0.623927  0.261336  1.0
  H  H145  1  0.705286  0.302224  0.792088  1.0
  H  H146  1  0.294714  0.697776  0.207912  1.0
  H  H147  1  0.941923  0.953663  0.964330  1.0
  H  H148  1  0.058077  0.046337  0.035670  1.0
  H  H149  1  0.901477  0.969879  0.922367  1.0
  H  H150  1  0.098523  0.030121  0.077633  1.0
  H  H151  1  0.958567  0.992604  0.913465  1.0
  H  H152  1  0.041433  0.007396  0.086535  1.0
  H  H153  1  0.732540  0.987871  0.967047  1.0
  H  H154  1  0.267460  0.012129  0.032953  1.0
  H  H155  1  0.764628  0.016965  0.986031  1.0
  H  H156  1  0.235372  0.983035  0.013969  1.0
  H  H157  1  0.706379  0.049114  0.957713  1.0
  H  H158  1  0.293621  0.950886  0.042287  1.0
  H  H159  1  0.808824  0.411264  0.621140  1.0
  H  H160  1  0.191176  0.588736  0.378860  1.0
  H  H161  1  0.705136  0.428724  0.658823  1.0
  H  H162  1  0.294864  0.571276  0.341177  1.0
  H  H163  1  0.662824  0.369111  0.575524  1.0
  H  H164  1  0.337176  0.630889  0.424476  1.0
  H  H165  1  0.765628  0.349183  0.535790  1.0
  H  H166  1  0.234372  0.650817  0.464210  1.0
  H  H167  1  0.848869  0.366136  0.484845  1.0
  H  H168  1  0.151131  0.633864  0.515155  1.0
  H  H169  1  0.951664  0.350279  0.445733  1.0
  H  H170  1  0.048336  0.649721  0.554267  1.0
  H  H171  1  0.901748  0.367615  0.603352  1.0
  H  H172  1  0.098252  0.632385  0.396648  1.0
  H  H173  1  0.174150  0.348697  0.547361  1.0
  H  H174  1  0.825850  0.651303  0.452639  1.0
  H  H175  1  0.150741  0.366058  0.621191  1.0
  H  H176  1  0.849259  0.633942  0.378809  1.0
  H  H177  1  0.970895  0.370369  0.633960  1.0
  H  H178  1  0.029105  0.629631  0.366040  1.0
  H  H179  1  0.131138  0.358586  0.698076  1.0
  H  H180  1  0.868862  0.641414  0.301924  1.0
  H  H181  1  0.100145  0.371254  0.774821  1.0
  H  H182  1  0.899855  0.628746  0.225179  1.0
  H  H183  1  0.922664  0.425487  0.760353  1.0
  H  H184  1  0.077336  0.574513  0.239647  1.0
  H  H185  1  0.946790  0.412248  0.684284  1.0
  H  H186  1  0.053210  0.587752  0.315716  1.0
  H  H187  1  0.101170  0.286244  0.391756  1.0
  H  H188  1  0.898830  0.713756  0.608244  1.0
  H  H189  1  0.133386  0.271872  0.438085  1.0
  H  H190  1  0.866614  0.728128  0.561915  1.0
  H  H191  1  0.064558  0.266907  0.444957  1.0
  H  H192  1  0.935442  0.733093  0.555043  1.0
  H  H193  1  0.226817  0.347466  0.421748  1.0
  H  H194  1  0.773183  0.652534  0.578252  1.0
  H  H195  1  0.160580  0.358779  0.406541  1.0
  H  H196  1  0.839420  0.641221  0.593459  1.0
  H  H197  1  0.169777  0.396961  0.430806  1.0
  H  H198  1  0.830223  0.603039  0.569194  1.0
  H  H199  1  0.462378  0.906947  0.283522  1.0
  H  H200  1  0.537622  0.093053  0.716478  1.0
  H  H201  1  0.556250  0.838960  0.391039  1.0
  H  H202  1  0.443750  0.161040  0.608961  1.0
  H  H203  1  0.641173  0.799930  0.342104  1.0
  H  H204  1  0.358827  0.200070  0.657896  1.0
  H  H205  1  0.637603  0.810390  0.260872  1.0
  H  H206  1  0.362397  0.189610  0.739128  1.0
  H  H207  1  0.576748  0.831795  0.108015  1.0
  H  H208  1  0.423252  0.168205  0.891985  1.0
  H  H209  1  0.556912  0.852572  0.029548  1.0
  H  H210  1  0.443088  0.147428  0.970452  1.0
  H  H211  1  0.443182  0.962347  0.130879  1.0
  H  H212  1  0.556818  0.037653  0.869121  1.0
  H  H213  1  0.399427  0.020028  0.921409  1.0
  H  H214  1  0.600573  0.979972  0.078591  1.0
  H  H215  1  0.325422  0.095459  0.936980  1.0
  H  H216  1  0.674578  0.904541  0.063020  1.0
  H  H217  1  0.359197  0.049871  0.075317  1.0
  H  H218  1  0.640803  0.950129  0.924683  1.0
  H  H219  1  0.172298  0.176599  0.100277  1.0
  H  H220  1  0.827702  0.823401  0.899723  1.0
  H  H221  1  0.077260  0.322957  0.062832  1.0
  H  H222  1  0.922740  0.677043  0.937168  1.0
  H  H223  1  0.132917  0.331870  0.984848  1.0
  H  H224  1  0.867083  0.668130  0.015152  1.0
  H  H225  1  0.210915  0.260491  0.963547  1.0
  H  H226  1  0.789085  0.739509  0.036453  1.0
  H  H227  1  0.536840  0.903867  0.943695  1.0
  H  H228  1  0.463160  0.096133  0.056305  1.0
  H  H229  1  0.481248  0.947202  0.917032  1.0
  H  H230  1  0.518752  0.052798  0.082968  1.0
  H  H231  1  0.476014  0.864907  0.926264  1.0
  H  H232  1  0.523986  0.135093  0.073736  1.0
  H  H233  1  0.471314  0.851827  0.983504  1.0
  H  H234  1  0.528686  0.148173  0.016496  1.0
  H  H235  1  0.375844  0.908141  0.990293  1.0
  H  H236  1  0.624156  0.091859  0.009707  1.0
  H  H237  1  0.380534  0.928865  0.933106  1.0
  H  H238  1  0.619466  0.071135  0.066894  1.0
  H  H239  1  0.350209  0.863845  0.356966  1.0
  H  H240  1  0.649791  0.136155  0.643034  1.0
  H  H241  1  0.456852  0.805239  0.457505  1.0
  H  H242  1  0.543148  0.194761  0.542495  1.0
  H  H243  1  0.430062  0.729280  0.482042  1.0
  H  H244  1  0.569938  0.270720  0.517958  1.0
  H  H245  1  0.363262  0.719979  0.440756  1.0
  H  H246  1  0.636738  0.280021  0.559244  1.0
  H  H247  1  0.224545  0.721371  0.345122  1.0
  H  H248  1  0.775455  0.278629  0.654878  1.0
  H  H249  1  0.147351  0.727604  0.304270  1.0
  H  H250  1  0.852649  0.272396  0.695730  1.0
  H  H251  1  0.201166  0.875066  0.291937  1.0
  H  H252  1  0.798834  0.124934  0.708063  1.0
  H  H253  1  0.994736  0.887562  0.189571  1.0
  H  H254  1  0.005264  0.112438  0.810429  1.0
  H  H255  1  0.974731  0.976732  0.166968  1.0
  H  H256  1  0.025269  0.023268  0.833032  1.0
  H  H257  1  0.115589  0.960854  0.234016  1.0
  H  H258  1  0.884411  0.039146  0.765984  1.0
  H  H259  1  0.072193  0.139645  0.171598  1.0
  H  H260  1  0.927807  0.860355  0.828402  1.0
  H  H261  1  0.951577  0.274692  0.127740  1.0
  H  H262  1  0.048423  0.725308  0.872260  1.0
  H  H263  1  0.879294  0.237109  0.125041  1.0
  H  H264  1  0.120706  0.762891  0.874959  1.0
  H  H265  1  0.905113  0.147029  0.147428  1.0
  H  H266  1  0.094887  0.852971  0.852572  1.0
  H  H267  1  0.008858  0.761127  0.317026  1.0
  H  H268  1  0.991142  0.238873  0.682974  1.0
  H  H269  1  0.968941  0.816228  0.288640  1.0
  H  H270  1  0.031059  0.183772  0.711360  1.0
  H  H271  1  0.080721  0.749111  0.248533  1.0
  H  H272  1  0.919279  0.250889  0.751467  1.0
  H  H273  1  0.036179  0.795558  0.213996  1.0
  H  H274  1  0.963821  0.204442  0.786004  1.0
  H  H275  1  0.080986  0.138587  0.327551  1.0
  H  H276  1  0.919014  0.861413  0.672449  1.0
  H  H277  1  0.096221  0.154861  0.244243  1.0
  H  H278  1  0.903779  0.845139  0.755757  1.0
  H  H279  1  0.997188  0.299799  0.230753  1.0
  H  H280  1  0.002812  0.700201  0.769247  1.0
  H  H281  1  0.978016  0.287865  0.313517  1.0
  H  H282  1  0.021984  0.712135  0.686483  1.0
  H  H283  1  0.936978  0.261840  0.389975  1.0
  H  H284  1  0.063022  0.738160  0.610025  1.0
  H  H285  1  0.919782  0.246052  0.472994  1.0
  H  H286  1  0.080218  0.753948  0.527006  1.0
  H  H287  1  0.096490  0.142638  0.393399  1.0
  H  H288  1  0.903510  0.857362  0.606601  1.0
  H  H289  1  0.109340  0.043075  0.602331  1.0
  H  H290  1  0.890660  0.956925  0.397669  1.0
  H  H291  1  0.199045  0.992423  0.565187  1.0
  H  H292  1  0.800955  0.007577  0.434813  1.0
  H  H293  1  0.156818  0.082232  0.433720  1.0
  H  H294  1  0.843182  0.917768  0.566280  1.0
  H  H295  1  0.295097  0.975817  0.523686  1.0
  H  H296  1  0.704903  0.024183  0.476314  1.0
  H  H297  1  0.383547  0.927214  0.482124  1.0
  H  H298  1  0.616453  0.072786  0.517876  1.0
  H  H299  1  0.297974  0.966234  0.370474  1.0
  H  H300  1  0.702026  0.033766  0.629526  1.0
  H  H301  1  0.206193  0.013773  0.410029  1.0
  H  H302  1  0.793807  0.986227  0.589971  1.0
  H  H303  1  0.899020  0.249579  0.597728  1.0
  H  H304  1  0.100980  0.750421  0.402272  1.0
  H  H305  1  0.963430  0.206537  0.610771  1.0
  H  H306  1  0.036570  0.793463  0.389229  1.0
  H  H307  1  0.964164  0.252800  0.562551  1.0
  H  H308  1  0.035836  0.747200  0.437449  1.0
  H  H309  1  0.959177  0.086906  0.671501  1.0
  H  H310  1  0.040823  0.913094  0.328499  1.0
  H  H311  1  0.923600  0.122170  0.626651  1.0
  H  H312  1  0.076400  0.877830  0.373349  1.0
  H  H313  1  0.966930  0.064609  0.626896  1.0
  H  H314  1  0.033070  0.935391  0.373104  1.0
  H  H315  1  0.283033  0.202858  0.204040  1.0
  H  H316  1  0.716967  0.797142  0.795960  1.0
  H  H317  1  0.199319  0.189095  0.187468  1.0
  H  H318  1  0.800681  0.810905  0.812532  1.0
  H  H319  1  0.112968  0.338221  0.150179  1.0
  H  H320  1  0.887032  0.661779  0.849821  1.0
  H  H321  1  0.194921  0.355970  0.166005  1.0
  H  H322  1  0.805079  0.644030  0.833995  1.0
  H  H323  1  0.284451  0.366677  0.163849  1.0
  H  H324  1  0.715549  0.633323  0.836151  1.0
  H  H325  1  0.367707  0.378963  0.181753  1.0
  H  H326  1  0.632293  0.621037  0.818247  1.0
  H  H327  1  0.334006  0.218119  0.240547  1.0
  H  H328  1  0.665994  0.781881  0.759453  1.0
  H  H329  1  0.565922  0.185227  0.312533  1.0
  H  H330  1  0.434078  0.814773  0.687467  1.0
  H  H331  1  0.551590  0.105150  0.340787  1.0
  H  H332  1  0.448410  0.894850  0.659213  1.0
  H  H333  1  0.397437  0.157522  0.277736  1.0
  H  H334  1  0.602563  0.842478  0.722264  1.0
  H  H335  1  0.514372  0.041514  0.384317  1.0
  H  H336  1  0.485628  0.958486  0.615683  1.0
  H  H337  1  0.501391  0.960546  0.407136  1.0
  H  H338  1  0.498609  0.039454  0.592864  1.0
  H  H339  1  0.402488  0.999805  0.304068  1.0
  H  H340  1  0.597512  0.000195  0.695932  1.0
  H  H341  1  0.413049  0.081512  0.277743  1.0
  H  H342  1  0.586951  0.918488  0.722257  1.0
  H  H343  1  0.523166  0.395643  0.164247  1.0
  H  H344  1  0.476834  0.604357  0.835753  1.0
  H  H345  1  0.557359  0.336347  0.187612  1.0
  H  H346  1  0.442641  0.663653  0.812388  1.0
  H  H347  1  0.512296  0.351598  0.149002  1.0
  H  H348  1  0.487704  0.648402  0.850998  1.0
  H  H349  1  0.716326  0.500484  0.768058  1.0
  H  H350  1  0.283674  0.499516  0.231942  1.0
  H  H351  1  0.720513  0.441950  0.775404  1.0
  H  H352  1  0.279487  0.558050  0.224596  1.0
  H  H353  1  0.741385  0.476143  0.722764  1.0
  H  H354  1  0.258615  0.523857  0.277236  1.0
  H  H355  1  0.629058  0.553562  0.771776  1.0
  H  H356  1  0.370942  0.446438  0.228224  1.0
  H  H357  1  0.592410  0.565609  0.728472  1.0
  H  H358  1  0.407590  0.434391  0.271528  1.0
  H  H359  1  0.571161  0.531635  0.781124  1.0
  H  H360  1  0.428839  0.468365  0.218876  1.0
  H  H361  1  0.235285  0.005367  0.162649  1.0
  H  H362  1  0.764715  0.994633  0.837351  1.0
  H  H363  1  0.168698  0.040783  0.146884  1.0
  H  H364  1  0.831302  0.959217  0.853116  1.0
  H  H365  1  0.231663  0.054817  0.117078  1.0
  H  H366  1  0.768337  0.945183  0.882922  1.0
  H  H367  1  0.250895  0.010907  0.221806  1.0
  H  H368  1  0.749105  0.989093  0.778194  1.0
  H  H369  1  0.260925  0.062474  0.223014  1.0
  H  H370  1  0.739075  0.937526  0.776986  1.0
  H  H371  1  0.197544  0.048400  0.251440  1.0
  H  H372  1  0.802456  0.951600  0.748560  1.0
  H  H373  1  0.914070  0.557662  0.889962  1.0
  H  H374  1  0.085930  0.442338  0.110038  1.0
  H  H375  1  0.804751  0.577459  0.919700  1.0
  H  H376  1  0.195249  0.422541  0.080300  1.0
  H  H377  1  0.768020  0.581112  0.999222  1.0
  H  H378  1  0.231980  0.418888  0.000778  1.0
  H  H379  1  0.837272  0.563686  0.050423  1.0
  H  H380  1  0.162728  0.436314  0.949577  1.0
  H  H381  1  0.942634  0.547390  0.021634  1.0
  H  H382  1  0.057366  0.452610  0.978366  1.0
  H  H383  1  0.982946  0.544485  0.942527  1.0
  H  H384  1  0.017054  0.455515  0.057473  1.0
  H  H385  1  0.293601  0.734589  0.506222  1.0
  H  H386  1  0.706399  0.265411  0.493778  1.0
  H  H387  1  0.188997  0.742419  0.543029  1.0
  H  H388  1  0.811003  0.257581  0.456971  1.0
  H  H389  1  0.159047  0.668455  0.586138  1.0
  H  H390  1  0.840953  0.331545  0.413862  1.0
  H  H391  1  0.231895  0.587253  0.591497  1.0
  H  H392  1  0.768105  0.412747  0.408503  1.0
  H  H393  1  0.337035  0.580091  0.554606  1.0
  H  H394  1  0.662965  0.419909  0.445394  1.0
  H  H395  1  0.367333  0.653266  0.514162  1.0
  H  H396  1  0.632667  0.346734  0.485838  1.0
  H  H397  1  0.734914  0.256982  0.951074  1.0
  H  H398  1  0.265086  0.743018  0.048926  1.0
  H  H399  1  0.688348  0.290674  0.883026  1.0
  H  H400  1  0.311652  0.709326  0.116974  1.0
  H  H401  1  0.679214  0.374684  0.839055  1.0
  H  H402  1  0.320786  0.625316  0.160945  1.0
  H  H403  1  0.718074  0.425239  0.860844  1.0
  H  H404  1  0.281926  0.574761  0.139156  1.0
  H  H405  1  0.759204  0.394789  0.933199  1.0
  H  H406  1  0.240796  0.605211  0.066801  1.0
  H  H407  1  0.764357  0.309066  0.979915  1.0
  H  H408  1  0.235643  0.690934  0.020085  1.0
  H  H409  1  0.807202  0.488418  0.647655  1.0
  H  H410  1  0.192798  0.511582  0.352345  1.0
  H  H411  1  0.877454  0.473178  0.577627  1.0
  H  H412  1  0.122546  0.526822  0.422373  1.0
  H  H413  1  0.969851  0.495054  0.554988  1.0
  H  H414  1  0.030149  0.504946  0.445012  1.0
  H  H415  1  0.993215  0.537652  0.599836  1.0
  H  H416  1  0.006785  0.462348  0.400164  1.0
  H  H417  1  0.922641  0.552643  0.671214  1.0
  H  H418  1  0.077359  0.447357  0.328786  1.0
  H  H419  1  0.833179  0.525369  0.695198  1.0
  H  H420  1  0.166821  0.474631  0.304802  1.0
  H  H421  1  0.052376  0.494206  0.682800  1.0
  H  H422  1  0.947624  0.505794  0.317200  1.0
  H  H423  1  0.017800  0.581855  0.644787  1.0
  H  H424  1  0.982200  0.418145  0.355213  1.0
  H  H425  1  0.068009  0.637654  0.647630  1.0
  H  H426  1  0.931991  0.362346  0.352370  1.0
  H  H427  1  0.150154  0.606513  0.691914  1.0
  H  H428  1  0.849846  0.393487  0.308086  1.0
  H  H429  1  0.184631  0.518290  0.730631  1.0
  H  H430  1  0.815369  0.481710  0.269369  1.0
  H  H431  1  0.135413  0.463024  0.726595  1.0
  H  H432  1  0.864587  0.536976  0.273405  1.0
  H  H433  1  0.103973  0.041142  0.269292  1.0
  H  H434  1  0.896027  0.958858  0.730708  1.0
  H  H435  1  0.994872  0.062732  0.282704  1.0
  H  H436  1  0.005128  0.937268  0.717296  1.0
  H  H437  1  0.938838  0.055682  0.361182  1.0
  H  H438  1  0.061162  0.944318  0.638818  1.0
  H  H439  1  0.993003  0.027383  0.426427  1.0
  H  H440  1  0.006997  0.972617  0.573573  1.0
  H  H441  1  0.101863  0.008056  0.413043  1.0
  H  H442  1  0.898137  0.991944  0.586957  1.0
  H  H443  1  0.158168  0.012138  0.333884  1.0
  H  H444  1  0.841832  0.987862  0.666116  1.0
  H  H445  1  0.317432  0.699696  0.628619  1.0
  H  H446  1  0.682568  0.300304  0.371381  1.0
  H  H447  1  0.420050  0.667259  0.590777  1.0
  H  H448  1  0.579950  0.332741  0.409223  1.0
  H  H449  1  0.484408  0.719881  0.554488  1.0
  H  H450  1  0.515592  0.280119  0.445512  1.0
  H  H451  1  0.448541  0.805310  0.557662  1.0
  H  H452  1  0.551459  0.194690  0.442338  1.0
  H  H453  1  0.348702  0.836968  0.599168  1.0
  H  H454  1  0.651298  0.163032  0.400832  1.0
  H  H455  1  0.282290  0.784734  0.633916  1.0
  H  H456  1  0.717710  0.215266  0.366084  1.0
  H  H457  1  0.272756  0.365908  0.860399  1.0
  H  H458  1  0.727244  0.634092  0.139601  1.0
  H  H459  1  0.203773  0.445703  0.829106  1.0
  H  H460  1  0.796227  0.554297  0.170894  1.0
  H  H461  1  0.204225  0.519211  0.843375  1.0
  H  H462  1  0.795775  0.480789  0.156625  1.0
  H  H463  1  0.274517  0.515031  0.889950  1.0
  H  H464  1  0.725483  0.484969  0.110050  1.0
  H  H465  1  0.347816  0.436190  0.915935  1.0
  H  H466  1  0.652184  0.563810  0.084065  1.0
  H  H467  1  0.347049  0.362426  0.902950  1.0
  H  H468  1  0.652951  0.637574  0.097050  1.0
  H  H469  1  0.878827  0.272922  0.216267  1.0
  H  H470  1  0.121173  0.727078  0.783733  1.0
  H  H471  1  0.921347  0.186704  0.256403  1.0
  H  H472  1  0.078653  0.813296  0.743597  1.0
  H  H473  1  0.901360  0.159684  0.340362  1.0
  H  H474  1  0.098640  0.840316  0.659638  1.0
  H  H475  1  0.837813  0.217866  0.384874  1.0
  H  H476  1  0.162187  0.782134  0.615126  1.0
  H  H477  1  0.796248  0.304698  0.345489  1.0
  H  H478  1  0.203752  0.695302  0.654511  1.0
  H  H479  1  0.816924  0.331529  0.260830  1.0
  H  H480  1  0.183076  0.668471  0.739170  1.0
  H  H481  1  0.282955  0.843117  0.488030  1.0
  H  H482  1  0.717045  0.156883  0.511970  1.0
  H  H483  1  0.222999  0.841264  0.437725  1.0
  H  H484  1  0.777001  0.158736  0.562275  1.0
  H  H485  1  0.114341  0.871821  0.453901  1.0
  H  H486  1  0.885659  0.128179  0.546099  1.0
  H  H487  1  0.064562  0.908009  0.518749  1.0
  H  H488  1  0.935438  0.091991  0.481251  1.0
  H  H489  1  0.124925  0.912841  0.567990  1.0
  H  H490  1  0.875075  0.087159  0.432010  1.0
  H  H491  1  0.234343  0.879314  0.552729  1.0
  H  H492  1  0.765657  0.120686  0.447271  1.0
  H  H493  1  0.459187  0.836373  0.804666  0.5
  H  H494  1  0.540813  0.163627  0.195334  0.5
  H  H495  1  0.395780  0.821029  0.815871  0.5
  H  H496  1  0.604220  0.178971  0.184129  0.5
  H  H497  1  0.406696  0.848541  0.850257  0.5
  H  H498  1  0.593304  0.151459  0.149743  0.5
  H  H499  1  0.381922  0.834255  0.842530  0.5
  H  H500  1  0.618078  0.165745  0.157470  0.5
  H  H501  1  0.445329  0.849600  0.831325  0.5
  H  H502  1  0.554671  0.150400  0.168675  0.5
  H  H503  1  0.434413  0.822087  0.796939  0.5
  H  H504  1  0.565587  0.177913  0.203061  0.5
  H  H505  1  0.880293  0.776825  0.395413  0.5
  H  H506  1  0.119707  0.223175  0.604587  0.5
  H  H507  1  0.869890  0.835221  0.393704  0.5
  H  H508  1  0.130110  0.164779  0.606296  0.5
  H  H509  1  0.910562  0.789024  0.431134  0.5
  H  H510  1  0.089438  0.210976  0.568866  0.5
  H  H511  1  0.893537  0.823888  0.418088  0.5
  H  H512  1  0.106463  0.176112  0.581912  0.5
  H  H513  1  0.903940  0.765492  0.419797  0.5
  H  H514  1  0.096060  0.234508  0.580203  0.5
  H  H515  1  0.863268  0.811689  0.382367  0.5
  H  H516  1  0.136732  0.188311  0.617633  0.5
  H  H517  1  0.348500  0.871428  0.927089  0.5
  H  H518  1  0.651500  0.128572  0.072911  0.5
  H  H519  1  0.383135  0.827820  0.968781  0.5
  H  H520  1  0.616865  0.172180  0.031219  0.5
  H  H521  1  0.310687  0.884699  0.960160  0.5
  H  H522  1  0.689313  0.115301  0.039840  0.5
  H  H523  1  0.370885  0.852136  0.930619  0.5
  H  H524  1  0.629115  0.147864  0.069381  0.5
  H  H525  1  0.217707  0.837662  0.010741  0.5
  H  H526  1  0.782293  0.162338  0.989259  0.5
  H  H527  1  0.247502  0.845547  0.954492  0.5
  H  H528  1  0.752498  0.154453  0.045508  0.5
  H  H529  1  0.281772  0.797022  0.993938  0.5
  H  H530  1  0.718228  0.202978  0.006062  0.5
  H  H531  1  0.300773  0.851890  0.026265  0.5
  H  H532  1  0.699227  0.148110  0.973735  0.5
  H  H533  1  0.266697  0.900139  0.987043  0.5
  H  H534  1  0.733303  0.099861  0.012957  0.5
  H  H535  1  0.401709  0.795822  0.003576  0.5
  H  H536  1  0.598291  0.204178  0.996424  0.5
  H  H537  1  0.334020  0.796868  0.998251  0.5
  H  H538  1  0.665980  0.203132  0.001749  0.5
  H  H539  1  0.331696  0.800520  0.076075  0.5
  H  H540  1  0.668304  0.199480  0.923925  0.5
  H  H541  1  0.353106  0.851648  0.053886  0.5
  H  H542  1  0.646894  0.148352  0.946114  0.5
  H  H543  1  0.285468  0.852693  0.048565  0.5
  H  H544  1  0.714532  0.147307  0.951435  0.5
  H  H545  1  0.923999  0.749057  0.309675  0.5
  H  H546  1  0.076001  0.250943  0.690325  0.5
  H  H547  1  0.978630  0.724336  0.271079  0.5
  H  H548  1  0.021370  0.275664  0.728921  0.5
  H  H549  1  0.964381  0.720967  0.297855  0.5
  H  H550  1  0.035619  0.279033  0.702145  0.5
  H  H551  1  0.963503  0.756915  0.244162  0.5
  H  H552  1  0.036497  0.243085  0.755838  0.5
  H  H553  1  0.868177  0.762147  0.324291  0.5
  H  H554  1  0.131823  0.237853  0.675709  0.5
  H  H555  1  0.869701  0.814875  0.284362  0.5
  H  H556  1  0.130299  0.185125  0.715638  0.5
  H  H557  1  0.844690  0.795026  0.230974  0.5
  H  H558  1  0.155310  0.204974  0.769026  0.5
  H  H559  1  0.872011  0.735397  0.252852  0.5
  H  H560  1  0.127989  0.264603  0.747148  0.5
  H  H561  1  0.773754  0.755521  0.242138  0.5
  H  H562  1  0.226246  0.244479  0.757862  0.5
  H  H563  1  0.776447  0.732816  0.298872  0.5
  H  H564  1  0.223553  0.267184  0.701128  0.5
  H  H565  1  0.748647  0.793492  0.276610  0.5
  H  H566  1  0.251353  0.206508  0.723390  0.5
  H  H567  1  0.835354  0.772052  0.169157  0.5
  H  H568  1  0.164646  0.227948  0.830843  0.5
  H  H569  1  0.810145  0.812876  0.200747  0.5
  H  H570  1  0.189855  0.187124  0.799253  0.5
  H  H571  1  0.868185  0.816003  0.157213  0.5
  H  H572  1  0.131815  0.183997  0.842787  0.5
  H  H573  1  0.871884  0.733935  0.243352  0.5
  H  H574  1  0.128116  0.266065  0.756648  0.5
  H  H575  1  0.930010  0.737067  0.199754  0.5
  H  H576  1  0.069990  0.262933  0.800246  0.5
  H  H577  1  0.873469  0.811859  0.253132  0.5
  H  H578  1  0.126531  0.188141  0.746868  0.5
  H  H579  1  0.935420  0.809659  0.213030  0.5
  H  H580  1  0.064580  0.190341  0.786970  0.5
  H  H581  1  0.578592  0.307474  0.305386  0.5
  H  H582  1  0.421408  0.692526  0.694614  0.5
  H  H583  1  0.511675  0.340516  0.289091  0.5
  H  H584  1  0.488325  0.659484  0.710909  0.5
  H  H585  1  0.517714  0.288965  0.332486  0.5
  H  H586  1  0.482286  0.711035  0.667514  0.5
  H  H587  1  0.493395  0.317163  0.312590  0.5
  H  H588  1  0.506605  0.682837  0.687410  0.5
  H  H589  1  0.560313  0.284121  0.328885  0.5
  H  H590  1  0.439687  0.715879  0.671115  0.5
  H  H591  1  0.554274  0.335672  0.285489  0.5
  H  H592  1  0.445726  0.664328  0.714511  0.5
  H  H593  1  0.687801  0.437328  0.337011  0.5
  H  H594  1  0.312199  0.562672  0.662989  0.5
  H  H595  1  0.741273  0.433981  0.258620  0.5
  H  H596  1  0.258727  0.566019  0.741380  0.5
  H  H597  1  0.694553  0.415446  0.209664  0.5
  H  H598  1  0.305447  0.584554  0.790336  0.5
  H  H599  1  0.597267  0.402367  0.235615  0.5
  H  H600  1  0.402733  0.597633  0.764385  0.5
  H  H601  1  0.541990  0.409396  0.312207  0.5
  H  H602  1  0.458010  0.590604  0.687793  0.5
  H  H603  1  0.588449  0.426580  0.362414  0.5
  H  H604  1  0.411551  0.573420  0.637586  0.5
  H  H605  1  0.663818  0.527974  0.380970  0.5
  H  H606  1  0.336182  0.472026  0.619030  0.5
  H  H607  1  0.738328  0.492116  0.321926  0.5
  H  H608  1  0.261672  0.507884  0.678074  0.5
  H  H609  1  0.719367  0.435856  0.289902  0.5
  H  H610  1  0.280633  0.564144  0.710098  0.5
  H  H611  1  0.624585  0.415333  0.318212  0.5
  H  H612  1  0.375415  0.584667  0.681788  0.5
  H  H613  1  0.551072  0.450672  0.377316  0.5
  H  H614  1  0.448928  0.549328  0.622684  0.5
  H  H615  1  0.568386  0.507782  0.408310  0.5
  H  H616  1  0.431614  0.492218  0.591690  0.5
  H  H617  1  0.325638  0.901146  0.634978  0.5
  H  H618  1  0.674362  0.098854  0.365022  0.5
  H  H619  1  0.414301  0.911363  0.577758  0.5
  H  H620  1  0.585699  0.088637  0.422242  0.5
  H  H621  1  0.424313  0.993096  0.538631  0.5
  H  H622  1  0.575687  0.006904  0.461369  0.5
  H  H623  1  0.342725  0.065321  0.552511  0.5
  H  H624  1  0.657275  0.934679  0.447489  0.5
  H  H625  1  0.252631  0.055927  0.608561  0.5
  H  H626  1  0.747369  0.944073  0.391439  0.5
  H  H627  1  0.245779  0.973622  0.651665  0.5
  H  H628  1  0.754221  0.026378  0.348335  0.5
  H  H629  1  0.335324  0.924349  0.627924  0.5
  H  H630  1  0.664676  0.075651  0.372076  0.5
  H  H631  1  0.283163  0.010321  0.628265  0.5
  H  H632  1  0.716837  0.989679  0.371735  0.5
  H  H633  1  0.320722  0.075323  0.571750  0.5
  H  H634  1  0.679278  0.924677  0.428250  0.5
  H  H635  1  0.409288  0.055203  0.513464  0.5
  H  H636  1  0.590712  0.944797  0.486536  0.5
  H  H637  1  0.462332  0.969637  0.514577  0.5
  H  H638  1  0.537668  0.030363  0.485423  0.5
  H  H639  1  0.425561  0.904567  0.571275  0.5
  H  H640  1  0.574439  0.095433  0.428725  0.5
  H  H641  1  0.551836  0.727754  0.444105  0.5
  H  H642  1  0.448164  0.272246  0.555895  0.5
  H  H643  1  0.600141  0.642786  0.443177  0.5
  H  H644  1  0.399859  0.357214  0.556823  0.5
  H  H645  1  0.695519  0.597952  0.471434  0.5
  H  H646  1  0.304481  0.402048  0.528566  0.5
  H  H647  1  0.743582  0.640668  0.497422  0.5
  H  H648  1  0.256418  0.359332  0.502578  0.5
  H  H649  1  0.695474  0.727161  0.497168  0.5
  H  H650  1  0.304526  0.272839  0.502832  0.5
  H  H651  1  0.598009  0.770691  0.470421  0.5
  H  H652  1  0.401991  0.229309  0.529579  0.5
  H  H653  1  0.699946  0.710590  0.367392  0.5
  H  H654  1  0.300054  0.289410  0.632608  0.5
  H  H655  1  0.683866  0.631711  0.412884  0.5
  H  H656  1  0.316134  0.368289  0.587116  0.5
  H  H657  1  0.665405  0.611945  0.497106  0.5
  H  H658  1  0.334595  0.388055  0.502894  0.5
  H  H659  1  0.659982  0.671867  0.535457  0.5
  H  H660  1  0.340018  0.328133  0.464543  0.5
  H  H661  1  0.672156  0.751729  0.490763  0.5
  H  H662  1  0.327844  0.248271  0.509237  0.5
  H  H663  1  0.694732  0.770461  0.406306  0.5
  H  H664  1  0.305268  0.229539  0.593694  0.5
  H  H665  1  0.304351  0.128007  0.117609  0.5
  H  H666  1  0.695649  0.871993  0.882391  0.5
  H  H667  1  0.347797  0.194003  0.100521  0.5
  H  H668  1  0.652203  0.805997  0.899479  0.5
  H  H669  1  0.433183  0.181558  0.135779  0.5
  H  H670  1  0.566817  0.818442  0.864221  0.5
  H  H671  1  0.470443  0.103399  0.191651  0.5
  H  H672  1  0.529557  0.896601  0.808349  0.5
  H  H673  1  0.428147  0.036757  0.207485  0.5
  H  H674  1  0.571853  0.963243  0.792515  0.5
  H  H675  1  0.345634  0.048407  0.169646  0.5
  H  H676  1  0.654366  0.951593  0.830354  0.5
  H  H677  1  0.384170  0.017586  0.188925  0.5
  H  H678  1  0.615830  0.982414  0.811075  0.5
  H  H679  1  0.491613  0.989109  0.190520  0.5
  H  H680  1  0.508387  0.010891  0.809480  0.5
  H  H681  1  0.544563  0.049798  0.177337  0.5
  H  H682  1  0.455437  0.950202  0.822663  0.5
  H  H683  1  0.489130  0.136585  0.162107  0.5
  H  H684  1  0.510870  0.863415  0.837893  0.5
  H  H685  1  0.382262  0.164333  0.161205  0.5
  H  H686  1  0.617738  0.835667  0.838795  0.5
  H  H687  1  0.328787  0.104391  0.175141  0.5
  H  H688  1  0.671213  0.895609  0.824859  0.5
  H  H689  1  0.611901  0.660484  0.353271  0.5
  H  H690  1  0.388099  0.339516  0.646729  0.5
  H  H691  1  0.529084  0.716495  0.314111  0.5
  H  H692  1  0.470916  0.283505  0.685889  0.5
  H  H693  1  0.543403  0.745499  0.230198  0.5
  H  H694  1  0.456597  0.254501  0.769802  0.5
  H  H695  1  0.643077  0.719390  0.185120  0.5
  H  H696  1  0.356923  0.280610  0.814880  0.5
  H  H697  1  0.727488  0.665164  0.224471  0.5
  H  H698  1  0.272512  0.334836  0.775529  0.5
  H  H699  1  0.712259  0.635243  0.308603  0.5
  H  H700  1  0.287741  0.364757  0.691397  0.5
  H  H701  1  0.495511  0.731914  0.369127  0.5
  H  H702  1  0.504489  0.268086  0.630873  0.5
  H  H703  1  0.434692  0.789853  0.310987  0.5
  H  H704  1  0.565308  0.210147  0.689013  0.5
  H  H705  1  0.473597  0.794807  0.229582  0.5
  H  H706  1  0.526403  0.205193  0.770418  0.5
  H  H707  1  0.571859  0.741936  0.205519  0.5
  H  H708  1  0.428141  0.258064  0.794481  0.5
  H  H709  1  0.634175  0.684167  0.263732  0.5
  H  H710  1  0.365825  0.315833  0.736268  0.5
  H  H711  1  0.595218  0.680081  0.345471  0.5
  H  H712  1  0.404782  0.319919  0.654529  0.5
  H  H713  1  0.485023  0.769514  0.158040  0.5
  H  H714  1  0.514977  0.230486  0.841960  0.5
  H  H715  1  0.423380  0.807277  0.096872  0.5
  H  H716  1  0.576620  0.192723  0.903128  0.5
  H  H717  1  0.400021  0.755808  0.063154  0.5
  H  H718  1  0.599979  0.244192  0.936846  0.5
  H  H719  1  0.443164  0.666963  0.086763  0.5
  H  H720  1  0.556836  0.333037  0.913237  0.5
  H  H721  1  0.515909  0.630230  0.139441  0.5
  H  H722  1  0.484091  0.369770  0.860559  0.5
  H  H723  1  0.537011  0.680786  0.175859  0.5
  H  H724  1  0.462989  0.319214  0.824141  0.5
  H  H725  1  0.490262  0.776118  0.133707  0.5
  H  H726  1  0.509738  0.223882  0.866293  0.5
  H  H727  1  0.456822  0.711699  0.195170  0.5
  H  H728  1  0.543178  0.288301  0.804830  0.5
  H  H729  1  0.448741  0.642562  0.176360  0.5
  H  H730  1  0.551259  0.357438  0.823640  0.5
  H  H731  1  0.480026  0.634876  0.097831  0.5
  H  H732  1  0.519974  0.365124  0.902169  0.5
  H  H733  1  0.524469  0.694265  0.037322  0.5
  H  H734  1  0.475531  0.305735  0.962678  0.5
  H  H735  1  0.526544  0.766755  0.055096  0.5
  H  H736  1  0.473456  0.233245  0.944904  0.5
  H  H737  1  0.719539  0.290063  0.188413  0.5
  H  H738  1  0.280461  0.709937  0.811587  0.5
  H  H739  1  0.629724  0.322411  0.239780  0.5
  H  H740  1  0.370276  0.677589  0.760220  0.5
  H  H741  1  0.610028  0.400563  0.256750  0.5
  H  H742  1  0.389972  0.599437  0.743250  0.5
  H  H743  1  0.683408  0.446398  0.221860  0.5
  H  H744  1  0.316592  0.553602  0.778140  0.5
  H  H745  1  0.772216  0.415501  0.168620  0.5
  H  H746  1  0.227784  0.584499  0.831380  0.5
  H  H747  1  0.792179  0.337309  0.151344  0.5
  H  H748  1  0.207821  0.662691  0.848656  0.5
  H  H749  1  0.734381  0.295006  0.208158  0.5
  H  H750  1  0.265619  0.704994  0.791842  0.5
  H  H751  1  0.794054  0.351010  0.165418  0.5
  H  H752  1  0.205946  0.648990  0.834582  0.5
  H  H753  1  0.807437  0.378029  0.081752  0.5
  H  H754  1  0.192563  0.621971  0.918248  0.5
  H  H755  1  0.767551  0.344615  0.040064  0.5
  H  H756  1  0.232449  0.655385  0.959936  0.5
  H  H757  1  0.717673  0.282269  0.081597  0.5
  H  H758  1  0.282327  0.717731  0.918403  0.5
  H  H759  1  0.695311  0.260498  0.165704  0.5
  H  H760  1  0.304689  0.739502  0.834296  0.5
  H  H761  1  0.427985  0.246883  0.961739  0.5
  H  H762  1  0.572015  0.753117  0.038261  0.5
  H  H763  1  0.319795  0.265014  0.972953  0.5
  H  H764  1  0.680205  0.734986  0.027047  0.5
  H  H765  1  0.255255  0.302704  0.033733  0.5
  H  H766  1  0.744745  0.697296  0.966267  0.5
  H  H767  1  0.300019  0.322749  0.084093  0.5
  H  H768  1  0.699981  0.677251  0.915907  0.5
  H  H769  1  0.408227  0.307975  0.070099  0.5
  H  H770  1  0.591773  0.692025  0.929901  0.5
  H  H771  1  0.472806  0.268409  0.010339  0.5
  H  H772  1  0.527194  0.731591  0.989661  0.5
  H  H773  1  0.311112  0.231401  0.026616  0.5
  H  H774  1  0.688888  0.768599  0.973384  0.5
  H  H775  1  0.401969  0.187183  0.061249  0.5
  H  H776  1  0.598031  0.812817  0.938751  0.5
  H  H777  1  0.449762  0.231878  0.085138  0.5
  H  H778  1  0.550238  0.768122  0.914862  0.5
  H  H779  1  0.403651  0.319743  0.078032  0.5
  H  H780  1  0.596349  0.680257  0.921968  0.5
  H  H781  1  0.306755  0.360358  0.053229  0.5
  H  H782  1  0.693245  0.639642  0.946771  0.5
  H  H783  1  0.261808  0.318169  0.024811  0.5
  H  H784  1  0.738192  0.681831  0.975189  0.5
  H  H785  1  0.853834  0.860758  0.172501  0.5
  H  H786  1  0.146166  0.139242  0.827499  0.5
  H  H787  1  0.823232  0.807338  0.145299  0.5
  H  H788  1  0.176768  0.192662  0.854701  0.5
  H  H789  1  0.818430  0.825674  0.063616  0.5
  H  H790  1  0.181570  0.174326  0.936384  0.5
  H  H791  1  0.838012  0.899711  0.009720  0.5
  H  H792  1  0.161988  0.100289  0.990280  0.5
  H  H793  1  0.864610  0.955218  0.037232  0.5
  H  H794  1  0.135390  0.044782  0.962768  0.5
  H  H795  1  0.875423  0.934688  0.117629  0.5
  H  H796  1  0.124577  0.065312  0.882371  0.5
  H  H797  1  0.750645  0.782167  0.113586  0.5
  H  H798  1  0.249355  0.217833  0.886414  0.5
  H  H799  1  0.674852  0.818816  0.171475  0.5
  H  H800  1  0.325148  0.181184  0.828525  0.5
  H  H801  1  0.673741  0.896335  0.180139  0.5
  H  H802  1  0.326259  0.103665  0.819861  0.5
  H  H803  1  0.748030  0.936841  0.131540  0.5
  H  H804  1  0.251970  0.063159  0.868460  0.5
  H  H805  1  0.822912  0.900948  0.072492  0.5
  H  H806  1  0.177088  0.099052  0.927508  0.5
  H  H807  1  0.824654  0.822830  0.064040  0.5
  H  H808  1  0.175346  0.177170  0.935960  0.5
  H  H809  1  0.776770  0.842663  0.258176  0.5
  H  H810  1  0.223230  0.157337  0.741824  0.5
  H  H811  1  0.700197  0.915985  0.274902  0.5
  H  H812  1  0.299803  0.084015  0.725098  0.5
  H  H813  1  0.652980  0.916546  0.354785  0.5
  H  H814  1  0.347020  0.083454  0.645215  0.5
  H  H815  1  0.681857  0.842565  0.417486  0.5
  H  H816  1  0.318143  0.157435  0.582514  0.5
  H  H817  1  0.758512  0.768867  0.400189  0.5
  H  H818  1  0.241488  0.231133  0.599811  0.5
  H  H819  1  0.806710  0.769124  0.320478  0.5
  H  H820  1  0.193290  0.230876  0.679522  0.5
  H  H821  1  0.701494  0.905799  0.305325  0.5
  H  H822  1  0.298506  0.094201  0.694675  0.5
  H  H823  1  0.759440  0.928765  0.228829  0.5
  H  H824  1  0.240560  0.071235  0.771171  0.5
  H  H825  1  0.855774  0.941911  0.220360  0.5
  H  H826  1  0.144226  0.058089  0.779640  0.5
  H  H827  1  0.895716  0.930490  0.289107  0.5
  H  H828  1  0.104284  0.069510  0.710893  0.5
  H  H829  1  0.837343  0.907873  0.365509  0.5
  H  H830  1  0.162657  0.092127  0.634491  0.5
  H  H831  1  0.740455  0.895842  0.374126  0.5
  H  H832  1  0.259545  0.104158  0.625874  0.5
  H  H833  1  0.774515  0.975089  0.269760  0.5
  H  H834  1  0.225485  0.024911  0.730240  0.5
  H  H835  1  0.799443  0.051775  0.248966  0.5
  H  H836  1  0.200557  0.948225  0.751034  0.5
  H  H837  1  0.893766  0.051815  0.262709  0.5
  H  H838  1  0.106234  0.948185  0.737291  0.5
  H  H839  1  0.965705  0.974402  0.295310  0.5
  H  H840  1  0.034295  0.025598  0.704690  0.5
  H  H841  1  0.942041  0.897762  0.314799  0.5
  H  H842  1  0.057959  0.102238  0.685201  0.5
  H  H843  1  0.847257  0.897363  0.302403  0.5
  H  H844  1  0.152743  0.102637  0.697597  0.5
  H  H845  1  0.855165  0.035566  0.282389  0.5
  H  H846  1  0.144835  0.964434  0.717611  0.5
  H  H847  1  0.759449  0.031511  0.274988  0.5
  H  H848  1  0.240551  0.968489  0.725012  0.5
  H  H849  1  0.677076  0.106736  0.256324  0.5
  H  H850  1  0.322924  0.893264  0.743676  0.5
  H  H851  1  0.690208  0.186008  0.246040  0.5
  H  H852  1  0.309792  0.813992  0.753960  0.5
  H  H853  1  0.785242  0.189754  0.254606  0.5
  H  H854  1  0.214758  0.810246  0.745394  0.5
  H  H855  1  0.868413  0.114876  0.271915  0.5
  H  H856  1  0.131587  0.885124  0.728085  0.5
  H  H857  1  0.774413  0.183764  0.299595  0.5
  H  H858  1  0.225587  0.816236  0.700405  0.5
  H  H859  1  0.843045  0.152315  0.235691  0.5
  H  H860  1  0.156955  0.847685  0.764309  0.5
  H  H861  1  0.804624  0.143884  0.174976  0.5
  H  H862  1  0.195376  0.856116  0.825024  0.5
  H  H863  1  0.696295  0.164626  0.178729  0.5
  H  H864  1  0.303705  0.835374  0.821271  0.5
  H  H865  1  0.627696  0.196111  0.242581  0.5
  H  H866  1  0.372304  0.803889  0.757419  0.5
  H  H867  1  0.665865  0.206766  0.302007  0.5
  H  H868  1  0.334135  0.793234  0.697993  0.5
  H  H869  1  0.678476  0.057143  0.259153  0.5
  H  H870  1  0.321524  0.942857  0.740847  0.5
  H  H871  1  0.614933  0.011318  0.317561  0.5
  H  H872  1  0.385067  0.988682  0.682439  0.5
  H  H873  1  0.556287  0.975471  0.293741  0.5
  H  H874  1  0.443713  0.024529  0.706259  0.5
  H  H875  1  0.560546  0.985918  0.211707  0.5
  H  H876  1  0.439454  0.014082  0.788293  0.5
  H  H877  1  0.628383  0.028115  0.153632  0.5
  H  H878  1  0.371617  0.971885  0.846368  0.5
  H  H879  1  0.687775  0.063357  0.177685  0.5
  H  H880  1  0.312225  0.936643  0.822315  0.5
  H  H881  1  0.643062  0.919319  0.180502  0.5
  H  H882  1  0.356938  0.080681  0.819498  0.5
  H  H883  1  0.716300  0.951291  0.119304  0.5
  H  H884  1  0.283700  0.048709  0.880696  0.5
  H  H885  1  0.738762  0.023116  0.120200  0.5
  H  H886  1  0.261238  0.976884  0.879800  0.5
  H  H887  1  0.689779  0.062057  0.183012  0.5
  H  H888  1  0.310221  0.937943  0.816988  0.5
  H  H889  1  0.618132  0.029096  0.245875  0.5
  H  H890  1  0.381868  0.970904  0.754125  0.5
  H  H891  1  0.594594  0.957309  0.244391  0.5
  H  H892  1  0.405406  0.042691  0.755609  0.5
  H  H893  1  0.817628  0.509171  0.406328  0.5
  H  H894  1  0.182372  0.490829  0.593672  0.5
  H  H895  1  0.744515  0.541560  0.353818  0.5
  H  H896  1  0.255485  0.458440  0.646182  0.5
  H  H897  1  0.605557  0.527062  0.468683  0.5
  H  H898  1  0.394443  0.472938  0.531317  0.5
  H  H899  1  0.678046  0.495507  0.520950  0.5
  H  H900  1  0.321954  0.504493  0.479050  0.5
  H  H901  1  0.784909  0.483913  0.489623  0.5
  H  H902  1  0.215091  0.516087  0.510377  0.5
  H  H903  1  0.638432  0.548841  0.385113  0.5
  H  H904  1  0.361568  0.451159  0.614887  0.5
  H  H905  1  0.715159  0.476410  0.465306  0.5
  H  H906  1  0.284841  0.523590  0.534694  0.5
  H  H907  1  0.695077  0.505025  0.534296  0.5
  H  H908  1  0.304923  0.494975  0.465704  0.5
  H  H909  1  0.769405  0.534106  0.548291  0.5
  H  H910  1  0.230595  0.465894  0.451709  0.5
  H  H911  1  0.861007  0.536002  0.492535  0.5
  H  H912  1  0.138993  0.463998  0.507465  0.5
  H  H913  1  0.879318  0.511219  0.421677  0.5
  H  H914  1  0.120682  0.488781  0.578323  0.5
  H  H915  1  0.805673  0.481022  0.408463  0.5
  H  H916  1  0.194327  0.518978  0.591537  0.5
  H  H917  1  0.007901  0.292292  0.994558  0.5
  H  H918  1  0.992099  0.707708  0.005442  0.5
  H  H919  1  0.904152  0.304131  0.991895  0.5
  H  H920  1  0.095848  0.695869  0.008105  0.5
  H  H921  1  0.868579  0.232698  0.008605  0.5
  H  H922  1  0.131421  0.767302  0.991395  0.5
  H  H923  1  0.937099  0.150162  0.032372  0.5
  H  H924  1  0.062901  0.849838  0.967628  0.5
  H  H925  1  0.040994  0.139349  0.033989  0.5
  H  H926  1  0.959006  0.860651  0.966011  0.5
  H  H927  1  0.078116  0.209597  0.012811  0.5
  H  H928  1  0.921884  0.790403  0.987189  0.5
  H  H929  1  0.757058  0.223583  0.085381  0.5
  H  H930  1  0.242942  0.776417  0.914619  0.5
  H  H931  1  0.734440  0.303018  0.101117  0.5
  H  H932  1  0.265560  0.696982  0.898883  0.5
  H  H933  1  0.806638  0.350347  0.064861  0.5
  H  H934  1  0.193362  0.649653  0.935139  0.5
  H  H935  1  0.847768  0.192642  0.034405  0.5
  H  H936  1  0.152232  0.807358  0.965595  0.5
  H  H937  1  0.919752  0.240247  0.997361  0.5
  H  H938  1  0.080248  0.759753  0.002639  0.5
  H  H939  1  0.897891  0.319025  0.014097  0.5
  H  H940  1  0.102109  0.680975  0.985903  0.5
  H  H941  1  0.915380  0.028574  0.033197  0.5
  H  H942  1  0.084620  0.971426  0.966803  0.5
  H  H943  1  0.935286  0.940146  0.058809  0.5
  H  H944  1  0.064714  0.059854  0.941191  0.5
  H  H945  1  0.898399  0.901362  0.138804  0.5
  H  H946  1  0.101601  0.098638  0.861196  0.5
  H  H947  1  0.841386  0.952419  0.191581  0.5
  H  H948  1  0.158614  0.047581  0.808419  0.5
  H  H949  1  0.822670  0.041118  0.166189  0.5
  H  H950  1  0.177330  0.958882  0.833811  0.5
  H  H951  1  0.860054  0.079938  0.085756  0.5
  H  H952  1  0.139946  0.920062  0.914244  0.5
  H  H953  1  0.759824  0.194929  0.053481  0.5
  H  H954  1  0.240176  0.805071  0.946519  0.5
  H  H955  1  0.810186  0.142830  0.000466  0.5
  H  H956  1  0.189814  0.857170  0.999534  0.5
  H  H957  1  0.868753  0.057878  0.029329  0.5
  H  H958  1  0.131247  0.942122  0.970671  0.5
  H  H959  1  0.878680  0.025723  0.110682  0.5
  H  H960  1  0.121320  0.974277  0.889318  0.5
  H  H961  1  0.827059  0.076646  0.163977  0.5
  H  H962  1  0.172941  0.923354  0.836023  0.5
  H  H963  1  0.767585  0.161492  0.135597  0.5
  H  H964  1  0.232415  0.838508  0.864403  0.5
  H  H965  1  0.771503  0.698843  0.216303  0.5
  H  H966  1  0.228497  0.301157  0.783697  0.5
  H  H967  1  0.743239  0.744984  0.273367  0.5
  H  H968  1  0.256761  0.255016  0.726633  0.5
  H  H969  1  0.726325  0.702803  0.355630  0.5
  H  H970  1  0.273675  0.297197  0.644370  0.5
  H  H971  1  0.729705  0.616515  0.379468  0.5
  H  H972  1  0.270295  0.383485  0.620532  0.5
  H  H973  1  0.776496  0.612158  0.239715  0.5
  H  H974  1  0.223504  0.387842  0.760285  0.5
  H  H975  1  0.755228  0.570881  0.321793  0.5
  H  H976  1  0.244772  0.429119  0.678207  0.5
  Pd  Pd977  1  0.979980  0.405300  0.843160  1.0
  Pd  Pd978  1  0.020020  0.594700  0.156840  1.0
  Pd  Pd979  1  0.588550  0.413880  0.660880  1.0
  Pd  Pd980  1  0.411450  0.586120  0.339120  1.0
  Pd  Pd981  1  0.080180  0.240590  0.158220  1.0
  Pd  Pd982  1  0.919820  0.759410  0.841780  1.0
  Pd  Pd983  1  0.429440  0.906470  0.382740  1.0
  Pd  Pd984  1  0.570560  0.093530  0.617260  1.0
  C  C985  1  0.848200  0.445000  0.964100  1.0
  C  C986  1  0.151800  0.555000  0.035900  1.0
  C  C987  1  0.880500  0.435000  0.919700  1.0
  C  C988  1  0.119500  0.565000  0.080300  1.0
  C  C989  1  0.976000  0.402400  0.945600  1.0
  C  C990  1  0.024000  0.597600  0.054400  1.0
  C  C991  1  0.948300  0.411000  0.990000  1.0
  C  C992  1  0.051700  0.589000  0.010000  1.0
  C  C993  1  0.884000  0.432200  0.000000  1.0
  C  C994  1  0.116000  0.567800  0.000000  1.0
  C  C995  1  0.781500  0.468700  0.969300  1.0
  C  C996  1  0.218500  0.531300  0.030700  1.0
  C  C997  1  0.726400  0.490200  0.969100  1.0
  C  C998  1  0.273600  0.509800  0.030900  1.0
  C  C999  1  0.660400  0.517000  0.970100  1.0
  C  C1000  1  0.339600  0.483000  0.029900  1.0
  C  C1001  1  0.629600  0.551000  0.999000  1.0
  C  C1002  1  0.370400  0.449000  0.001000  1.0
  C  C1003  1  0.566000  0.575500  0.003200  1.0
  C  C1004  1  0.434000  0.424500  0.996800  1.0
  C  C1005  1  0.532200  0.565100  0.977400  1.0
  C  C1006  1  0.467800  0.434900  0.022600  1.0
  C  C1007  1  0.561800  0.531800  0.947100  1.0
  C  C1008  1  0.438200  0.468200  0.052900  1.0
  C  C1009  1  0.626800  0.507900  0.943100  1.0
  C  C1010  1  0.373200  0.492100  0.056900  1.0
  C  C1011  1  0.455900  0.562100  0.945900  1.0
  C  C1012  1  0.544100  0.437900  0.054100  1.0
  C  C1013  1  0.512600  0.530100  0.926800  1.0
  C  C1014  1  0.487400  0.469900  0.073200  1.0
  C  C1015  1  0.398500  0.569900  0.933500  1.0
  C  C1016  1  0.601500  0.430100  0.066500  1.0
  C  C1017  1  0.399400  0.545600  0.900500  1.0
  C  C1018  1  0.600600  0.454400  0.099500  1.0
  C  C1019  1  0.455200  0.513700  0.880800  1.0
  C  C1020  1  0.544800  0.486300  0.119200  1.0
  C  C1021  1  0.512800  0.505100  0.894000  1.0
  C  C1022  1  0.487200  0.494900  0.106000  1.0
  C  C1023  1  0.453600  0.490700  0.845200  1.0
  C  C1024  1  0.546400  0.509300  0.154800  1.0
  C  C1025  1  0.449100  0.474000  0.815000  1.0
  C  C1026  1  0.550900  0.526000  0.185000  1.0
  C  C1027  1  0.448400  0.454500  0.776900  1.0
  C  C1028  1  0.551600  0.545500  0.223100  1.0
  C  C1029  1  0.501500  0.445200  0.742000  1.0
  C  C1030  1  0.498500  0.554800  0.258000  1.0
  C  C1031  1  0.455400  0.414700  0.703200  1.0
  C  C1032  1  0.544600  0.585300  0.296800  1.0
  C  C1033  1  0.400500  0.422400  0.736200  1.0
  C  C1034  1  0.599500  0.577600  0.263800  1.0
  C  C1035  1  0.396400  0.443000  0.773300  1.0
  C  C1036  1  0.603600  0.557000  0.226700  1.0
  C  C1037  1  0.422300  0.619200  0.002900  1.0
  C  C1038  1  0.577700  0.380800  0.997100  1.0
  C  C1039  1  0.404700  0.674000  0.974800  1.0
  C  C1040  1  0.595300  0.326000  0.025200  1.0
  C  C1041  1  0.441000  0.696400  0.932300  1.0
  C  C1042  1  0.559000  0.303600  0.067700  1.0
  C  C1043  1  0.418100  0.748100  0.901500  1.0
  C  C1044  1  0.581900  0.251900  0.098500  1.0
  C  C1045  1  0.457600  0.773100  0.861100  1.0
  C  C1046  1  0.542400  0.226900  0.138900  1.0
  C  C1047  1  0.427300  0.824100  0.830400  1.0
  C  C1048  1  0.572700  0.175900  0.169600  1.0
  C  C1049  1  0.969000  0.562800  0.783200  1.0
  C  C1050  1  0.031000  0.437200  0.216800  1.0
  C  C1051  1  0.960800  0.514400  0.797100  1.0
  C  C1052  1  0.039200  0.485600  0.202900  1.0
  C  C1053  1  0.045100  0.478400  0.837800  1.0
  C  C1054  1  0.954900  0.521600  0.162200  1.0
  C  C1055  1  0.056100  0.525300  0.825700  1.0
  C  C1056  1  0.943900  0.474700  0.174300  1.0
  C  C1057  1  0.018000  0.567600  0.798000  1.0
  C  C1058  1  0.982000  0.432400  0.202000  1.0
  C  C1059  1  0.925400  0.605200  0.755700  1.0
  C  C1060  1  0.074600  0.394800  0.244300  1.0
  C  C1061  1  0.886100  0.638400  0.734100  1.0
  C  C1062  1  0.113900  0.361600  0.265900  1.0
  C  C1063  1  0.837600  0.677600  0.708900  1.0
  C  C1064  1  0.162400  0.322400  0.291100  1.0
  C  C1065  1  0.836400  0.729000  0.696500  1.0
  C  C1066  1  0.163600  0.271000  0.303500  1.0
  C  C1067  1  0.791400  0.768100  0.671600  1.0
  C  C1068  1  0.208600  0.231900  0.328400  1.0
  C  C1069  1  0.746500  0.754500  0.659500  1.0
  C  C1070  1  0.253500  0.245500  0.340500  1.0
  C  C1071  1  0.746400  0.702900  0.672200  1.0
  C  C1072  1  0.253600  0.297100  0.327800  1.0
  C  C1073  1  0.792300  0.664100  0.697400  1.0
  C  C1074  1  0.207700  0.335900  0.302600  1.0
  C  C1075  1  0.666300  0.755200  0.629800  1.0
  C  C1076  1  0.333700  0.244800  0.370200  1.0
  C  C1077  1  0.694300  0.703400  0.653100  1.0
  C  C1078  1  0.305700  0.296600  0.346900  1.0
  C  C1079  1  0.616100  0.769300  0.605400  1.0
  C  C1080  1  0.383900  0.230700  0.394600  1.0
  C  C1081  1  0.596200  0.729900  0.604300  1.0
  C  C1082  1  0.403800  0.270100  0.395700  1.0
  C  C1083  1  0.624400  0.677900  0.626200  1.0
  C  C1084  1  0.375600  0.322100  0.373800  1.0
  C  C1085  1  0.673700  0.664300  0.651500  1.0
  C  C1086  1  0.326300  0.335700  0.348500  1.0
  C  C1087  1  0.604400  0.638900  0.620200  1.0
  C  C1088  1  0.395600  0.361100  0.379800  1.0
  C  C1089  1  0.587100  0.608600  0.612300  1.0
  C  C1090  1  0.412900  0.391400  0.387700  1.0
  C  C1091  1  0.567200  0.572800  0.600600  1.0
  C  C1092  1  0.432800  0.427200  0.399400  1.0
  C  C1093  1  0.578900  0.522000  0.628000  1.0
  C  C1094  1  0.421100  0.478000  0.372000  1.0
  C  C1095  1  0.533300  0.501900  0.580800  1.0
  C  C1096  1  0.466700  0.498100  0.419200  1.0
  C  C1097  1  0.520900  0.551000  0.551000  1.0
  C  C1098  1  0.479100  0.449000  0.449000  1.0
  C  C1099  1  0.537700  0.587800  0.560400  1.0
  C  C1100  1  0.462300  0.412200  0.439600  1.0
  C  C1101  1  0.686600  0.840700  0.609800  1.0
  C  C1102  1  0.313400  0.159300  0.390200  1.0
  C  C1103  1  0.732800  0.851400  0.564600  1.0
  C  C1104  1  0.267200  0.148600  0.435400  1.0
  C  C1105  1  0.748700  0.823800  0.529000  1.0
  C  C1106  1  0.251300  0.176200  0.471000  1.0
  C  C1107  1  0.798700  0.833900  0.485500  1.0
  C  C1108  1  0.201300  0.166100  0.514500  1.0
  C  C1109  1  0.815200  0.799900  0.452400  1.0
  C  C1110  1  0.184800  0.200100  0.547600  1.0
  C  C1111  1  0.874200  0.800300  0.414900  1.0
  C  C1112  1  0.125800  0.199700  0.585100  1.0
  C  C1113  1  0.926700  0.248800  0.880100  1.0
  C  C1114  1  0.073300  0.751200  0.119900  1.0
  C  C1115  1  0.884600  0.297100  0.864500  1.0
  C  C1116  1  0.115400  0.702900  0.135500  1.0
  C  C1117  1  0.902500  0.340700  0.855500  1.0
  C  C1118  1  0.097500  0.659300  0.144500  1.0
  C  C1119  1  0.999200  0.292700  0.876200  1.0
  C  C1120  1  0.000800  0.707300  0.123800  1.0
  C  C1121  1  0.985200  0.247300  0.885700  1.0
  C  C1122  1  0.014800  0.752700  0.114300  1.0
  C  C1123  1  0.909900  0.200800  0.889700  1.0
  C  C1124  1  0.090100  0.799200  0.110300  1.0
  C  C1125  1  0.940200  0.154700  0.920200  1.0
  C  C1126  1  0.059800  0.845300  0.079800  1.0
  C  C1127  1  0.923000  0.111300  0.930300  1.0
  C  C1128  1  0.077000  0.888700  0.069700  1.0
  C  C1129  1  0.873500  0.112000  0.910200  1.0
  C  C1130  1  0.126500  0.888000  0.089800  1.0
  C  C1131  1  0.842700  0.158100  0.878200  1.0
  C  C1132  1  0.157300  0.841900  0.121800  1.0
  C  C1133  1  0.862500  0.201800  0.868800  1.0
  C  C1134  1  0.137500  0.798200  0.131200  1.0
  C  C1135  1  0.853200  0.067400  0.922200  1.0
  C  C1136  1  0.146800  0.932600  0.077800  1.0
  C  C1137  1  0.805600  0.068800  0.902600  1.0
  C  C1138  1  0.194400  0.931200  0.097400  1.0
  C  C1139  1  0.774200  0.113700  0.869300  1.0
  C  C1140  1  0.225800  0.886300  0.130700  1.0
  C  C1141  1  0.792000  0.159400  0.857000  1.0
  C  C1142  1  0.208000  0.840600  0.143000  1.0
  C  C1143  1  0.724900  0.115200  0.848300  1.0
  C  C1144  1  0.275100  0.884800  0.151700  1.0
  C  C1145  1  0.694000  0.159100  0.817500  1.0
  C  C1146  1  0.306000  0.840900  0.182500  1.0
  C  C1147  1  0.710700  0.204600  0.805300  1.0
  C  C1148  1  0.289300  0.795400  0.194700  1.0
  C  C1149  1  0.759500  0.203400  0.824700  1.0
  C  C1150  1  0.240500  0.796600  0.175300  1.0
  C  C1151  1  0.677400  0.253100  0.772400  1.0
  C  C1152  1  0.322600  0.746900  0.227600  1.0
  C  C1153  1  0.642000  0.254000  0.740600  1.0
  C  C1154  1  0.358000  0.746000  0.259400  1.0
  C  C1155  1  0.614300  0.299900  0.709500  1.0
  C  C1156  1  0.385700  0.700100  0.290500  1.0
  C  C1157  1  0.653400  0.344400  0.738900  1.0
  C  C1158  1  0.346600  0.655600  0.261100  1.0
  C  C1159  1  0.682200  0.300400  0.771000  1.0
  C  C1160  1  0.317800  0.699600  0.229000  1.0
  C  C1161  1  0.924400  0.981800  0.937500  1.0
  C  C1162  1  0.075600  0.018200  0.062500  1.0
  C  C1163  1  0.744200  0.019300  0.960000  1.0
  C  C1164  1  0.255800  0.980700  0.040000  1.0
  C  C1165  1  0.799100  0.379000  0.573400  1.0
  C  C1166  1  0.200900  0.621000  0.426600  1.0
  C  C1167  1  0.779600  0.402300  0.610900  1.0
  C  C1168  1  0.220400  0.597700  0.389100  1.0
  C  C1169  1  0.717800  0.412600  0.633200  1.0
  C  C1170  1  0.282200  0.587400  0.366800  1.0
  C  C1171  1  0.693100  0.377800  0.584800  1.0
  C  C1172  1  0.306900  0.622200  0.415200  1.0
  C  C1173  1  0.754200  0.366000  0.560800  1.0
  C  C1174  1  0.245800  0.634000  0.439200  1.0
  C  C1175  1  0.865500  0.368000  0.548500  1.0
  C  C1176  1  0.134500  0.632000  0.451500  1.0
  C  C1177  1  0.881000  0.363300  0.500900  1.0
  C  C1178  1  0.119000  0.636700  0.499100  1.0
  C  C1179  1  0.941700  0.354800  0.477500  1.0
  C  C1180  1  0.058300  0.645200  0.522500  1.0
  C  C1181  1  0.990000  0.352600  0.499700  1.0
  C  C1182  1  0.010000  0.647400  0.500300  1.0
  C  C1183  1  0.975100  0.358000  0.547500  1.0
  C  C1184  1  0.024900  0.642000  0.452500  1.0
  C  C1185  1  0.912300  0.364900  0.570900  1.0
  C  C1186  1  0.087700  0.635100  0.429100  1.0
  C  C1187  1  0.053300  0.344500  0.475300  1.0
  C  C1188  1  0.946700  0.655500  0.524700  1.0
  C  C1189  1  0.098900  0.343100  0.496600  1.0
  C  C1190  1  0.901100  0.656900  0.503400  1.0
  C  C1191  1  0.085600  0.351100  0.543600  1.0
  C  C1192  1  0.914400  0.648900  0.456400  1.0
  C  C1193  1  0.023600  0.358100  0.569400  1.0
  C  C1194  1  0.976400  0.641900  0.430600  1.0
  C  C1195  1  0.132200  0.353900  0.564500  1.0
  C  C1196  1  0.867800  0.646100  0.435500  1.0
  C  C1197  1  0.118500  0.364000  0.608400  1.0
  C  C1198  1  0.881500  0.636000  0.391600  1.0
  C  C1199  1  0.057700  0.371200  0.634700  1.0
  C  C1200  1  0.942300  0.628800  0.365300  1.0
  C  C1201  1  0.011900  0.367100  0.615400  1.0
  C  C1202  1  0.988100  0.632900  0.384600  1.0
  C  C1203  1  0.041900  0.382300  0.682400  1.0
  C  C1204  1  0.958100  0.617700  0.317600  1.0
  C  C1205  1  0.087700  0.371500  0.710300  1.0
  C  C1206  1  0.912300  0.628500  0.289700  1.0
  C  C1207  1  0.068700  0.379800  0.755900  1.0
  C  C1208  1  0.931300  0.620200  0.244100  1.0
  C  C1209  1  0.965500  0.411000  0.747700  1.0
  C  C1210  1  0.034500  0.589000  0.252300  1.0
  C  C1211  1  0.979500  0.403300  0.702200  1.0
  C  C1212  1  0.020500  0.596700  0.297800  1.0
  C  C1213  1  0.093500  0.286900  0.425700  1.0
  C  C1214  1  0.906500  0.713100  0.574300  1.0
  C  C1215  1  0.181000  0.360900  0.430400  1.0
  C  C1216  1  0.819000  0.639100  0.569600  1.0
  C  C1217  1  0.547200  0.861700  0.263300  1.0
  C  C1218  1  0.452800  0.138300  0.736700  1.0
  C  C1219  1  0.499400  0.884100  0.295900  1.0
  C  C1220  1  0.500600  0.115900  0.704100  1.0
  C  C1221  1  0.553000  0.845500  0.358100  1.0
  C  C1222  1  0.447000  0.154500  0.641900  1.0
  C  C1223  1  0.604200  0.821400  0.328900  1.0
  C  C1224  1  0.395800  0.178600  0.671100  1.0
  C  C1225  1  0.603000  0.827800  0.280900  1.0
  C  C1226  1  0.397000  0.172200  0.719100  1.0
  C  C1227  1  0.542400  0.871200  0.213500  1.0
  C  C1228  1  0.457600  0.128800  0.786500  1.0
  C  C1229  1  0.529000  0.882300  0.174100  1.0
  C  C1230  1  0.471000  0.117700  0.825900  1.0
  C  C1231  1  0.513000  0.895400  0.126700  1.0
  C  C1232  1  0.487000  0.104600  0.873300  1.0
  C  C1233  1  0.545800  0.863000  0.096300  1.0
  C  C1234  1  0.454200  0.137000  0.903700  1.0
  C  C1235  1  0.534300  0.875100  0.049700  1.0
  C  C1236  1  0.465700  0.124900  0.950300  1.0
  C  C1237  1  0.488800  0.921100  0.033000  1.0
  C  C1238  1  0.511200  0.078900  0.967000  1.0
  C  C1239  1  0.454300  0.954100  0.063400  1.0
  C  C1240  1  0.545700  0.045900  0.936600  1.0
  C  C1241  1  0.466600  0.940600  0.110100  1.0
  C  C1242  1  0.533400  0.059400  0.889900  1.0
  C  C1243  1  0.423700  0.990000  0.989000  1.0
  C  C1244  1  0.576300  0.010000  0.011000  1.0
  C  C1245  1  0.412400  0.998300  0.034900  1.0
  C  C1246  1  0.587600  0.001700  0.965100  1.0
  C  C1247  1  0.391500  0.026000  0.952400  1.0
  C  C1248  1  0.608500  0.974000  0.047600  1.0
  C  C1249  1  0.347800  0.070600  0.961700  1.0
  C  C1250  1  0.652200  0.929400  0.038300  1.0
  C  C1251  1  0.336100  0.079500  0.007200  1.0
  C  C1252  1  0.663900  0.920500  0.992800  1.0
  C  C1253  1  0.367700  0.043800  0.044400  1.0
  C  C1254  1  0.632300  0.956200  0.955600  1.0
  C  C1255  1  0.289400  0.126000  0.015500  1.0
  C  C1256  1  0.710600  0.874000  0.984500  1.0
  C  C1257  1  0.249800  0.164800  0.021400  1.0
  C  C1258  1  0.750200  0.835200  0.978600  1.0
  C  C1259  1  0.201100  0.210000  0.030300  1.0
  C  C1260  1  0.798900  0.790000  0.969700  1.0
  C  C1261  1  0.164700  0.208500  0.076100  1.0
  C  C1262  1  0.835300  0.791500  0.923900  1.0
  C  C1263  1  0.108900  0.293900  0.054400  1.0
  C  C1264  1  0.891100  0.706100  0.945600  1.0
  C  C1265  1  0.141800  0.299400  0.008100  1.0
  C  C1266  1  0.858200  0.700600  0.991900  1.0
  C  C1267  1  0.188100  0.257200  0.995600  1.0
  C  C1268  1  0.811900  0.742800  0.004400  1.0
  C  C1269  1  0.490700  0.920000  0.947200  1.0
  C  C1270  1  0.509300  0.080000  0.052800  1.0
  C  C1271  1  0.459200  0.879800  0.954400  1.0
  C  C1272  1  0.540800  0.120200  0.045600  1.0
  C  C1273  1  0.391800  0.897400  0.959800  1.0
  C  C1274  1  0.608200  0.102600  0.040200  1.0
  C  C1275  1  0.355200  0.863700  0.960700  1.0
  C  C1276  1  0.644800  0.136300  0.039300  1.0
  C  C1277  1  0.349100  0.791600  0.394600  1.0
  C  C1278  1  0.650900  0.208400  0.605400  1.0
  C  C1279  1  0.367000  0.835700  0.382500  1.0
  C  C1280  1  0.633000  0.164300  0.617500  1.0
  C  C1281  1  0.429100  0.801700  0.441100  1.0
  C  C1282  1  0.570900  0.198300  0.558900  1.0
  C  C1283  1  0.413600  0.756400  0.455800  1.0
  C  C1284  1  0.586400  0.243600  0.544200  1.0
  C  C1285  1  0.373700  0.751200  0.431800  1.0
  C  C1286  1  0.626300  0.248800  0.568200  1.0
  C  C1287  1  0.304500  0.789800  0.370500  1.0
  C  C1288  1  0.695500  0.210200  0.629500  1.0
  C  C1289  1  0.266200  0.792600  0.348900  1.0
  C  C1290  1  0.733800  0.207400  0.651100  1.0
  C  C1291  1  0.219000  0.797500  0.322900  1.0
  C  C1292  1  0.781000  0.202500  0.677100  1.0
  C  C1293  1  0.203500  0.753900  0.326000  1.0
  C  C1294  1  0.796500  0.246100  0.674000  1.0
  C  C1295  1  0.158100  0.757300  0.301800  1.0
  C  C1296  1  0.841900  0.242700  0.698200  1.0
  C  C1297  1  0.128700  0.805100  0.274000  1.0
  C  C1298  1  0.871300  0.194900  0.726000  1.0
  C  C1299  1  0.143500  0.849900  0.270400  1.0
  C  C1300  1  0.856500  0.150100  0.729600  1.0
  C  C1301  1  0.189700  0.845700  0.294600  1.0
  C  C1302  1  0.810300  0.154300  0.705400  1.0
  C  C1303  1  0.064800  0.871300  0.227100  1.0
  C  C1304  1  0.935200  0.128700  0.772900  1.0
  C  C1305  1  0.101800  0.892600  0.240800  1.0
  C  C1306  1  0.898200  0.107400  0.759200  1.0
  C  C1307  1  0.018500  0.902400  0.199200  1.0
  C  C1308  1  0.981500  0.097600  0.800800  1.0
  C  C1309  1  0.007100  0.955200  0.185500  1.0
  C  C1310  1  0.992900  0.044800  0.814500  1.0
  C  C1311  1  0.043100  0.977200  0.198800  1.0
  C  C1312  1  0.956900  0.022800  0.801200  1.0
  C  C1313  1  0.090600  0.945900  0.225800  1.0
  C  C1314  1  0.909400  0.054100  0.774200  1.0
  C  C1315  1  0.027700  0.032200  0.185500  1.0
  C  C1316  1  0.972300  0.967800  0.814500  1.0
  C  C1317  1  0.011900  0.078100  0.174100  1.0
  C  C1318  1  0.988100  0.921900  0.825900  1.0
  C  C1319  1  0.992200  0.133200  0.161600  1.0
  C  C1320  1  0.007800  0.866800  0.838400  1.0
  C  C1321  1  0.032200  0.159300  0.162500  1.0
  C  C1322  1  0.967800  0.840700  0.837500  1.0
  C  C1323  1  0.961700  0.238200  0.137000  1.0
  C  C1324  1  0.038300  0.761800  0.863000  1.0
  C  C1325  1  0.918600  0.216300  0.135000  1.0
  C  C1326  1  0.081400  0.783700  0.865000  1.0
  C  C1327  1  0.934200  0.163100  0.147900  1.0
  C  C1328  1  0.065800  0.836900  0.852100  1.0
  C  C1329  1  0.993600  0.781000  0.285900  1.0
  C  C1330  1  0.006400  0.219000  0.714100  1.0
  C  C1331  1  0.050200  0.784000  0.245700  1.0
  C  C1332  1  0.949800  0.216000  0.754300  1.0
  C  C1333  1  0.952400  0.757300  0.278600  1.0
  C  C1334  1  0.047600  0.242700  0.721400  1.0
  C  C1335  1  0.027400  0.211800  0.330400  1.0
  C  C1336  1  0.972600  0.788200  0.669600  1.0
  C  C1337  1  0.063200  0.172200  0.308400  1.0
  C  C1338  1  0.936800  0.827800  0.691600  1.0
  C  C1339  1  0.072600  0.182400  0.258700  1.0
  C  C1340  1  0.927400  0.817600  0.741300  1.0
  C  C1341  1  0.014900  0.266700  0.250800  1.0
  C  C1342  1  0.985100  0.733300  0.749200  1.0
  C  C1343  1  0.002900  0.259800  0.300200  1.0
  C  C1344  1  0.997100  0.740200  0.699800  1.0
  C  C1345  1  0.017400  0.203000  0.383700  1.0
  C  C1346  1  0.982600  0.797000  0.616300  1.0
  C  C1347  1  0.965700  0.233600  0.408100  1.0
  C  C1348  1  0.034300  0.766400  0.591900  1.0
  C  C1349  1  0.955100  0.224200  0.457300  1.0
  C  C1350  1  0.044900  0.775800  0.542700  1.0
  C  C1351  1  0.997000  0.181700  0.484800  1.0
  C  C1352  1  0.003000  0.818300  0.515200  1.0
  C  C1353  1  0.051000  0.150600  0.461000  1.0
  C  C1354  1  0.949000  0.849400  0.539000  1.0
  C  C1355  1  0.060200  0.162600  0.410100  1.0
  C  C1356  1  0.939800  0.837400  0.589900  1.0
  C  C1357  1  0.985800  0.168800  0.536600  1.0
  C  C1358  1  0.014200  0.831200  0.463400  1.0
  C  C1359  1  0.024900  0.127400  0.563000  1.0
  C  C1360  1  0.975100  0.872600  0.437000  1.0
  C  C1361  1  0.079400  0.095300  0.540600  1.0
  C  C1362  1  0.920600  0.904700  0.459400  1.0
  C  C1363  1  0.092500  0.107500  0.489300  1.0
  C  C1364  1  0.907500  0.892500  0.510700  1.0
  C  C1365  1  0.119300  0.051600  0.568000  1.0
  C  C1366  1  0.880700  0.948400  0.432000  1.0
  C  C1367  1  0.171900  0.021300  0.546200  1.0
  C  C1368  1  0.828100  0.978700  0.453800  1.0
  C  C1369  1  0.185500  0.033200  0.495400  1.0
  C  C1370  1  0.814500  0.966800  0.504600  1.0
  C  C1371  1  0.146700  0.075000  0.468000  1.0
  C  C1372  1  0.853300  0.925000  0.532000  1.0
  C  C1373  1  0.241300  0.000400  0.471000  1.0
  C  C1374  1  0.758700  0.999600  0.529000  1.0
  C  C1375  1  0.294600  0.974000  0.492400  1.0
  C  C1376  1  0.705400  0.026000  0.507600  1.0
  C  C1377  1  0.346700  0.945200  0.467800  1.0
  C  C1378  1  0.653300  0.054800  0.532200  1.0
  C  C1379  1  0.296400  0.967800  0.402200  1.0
  C  C1380  1  0.703600  0.032200  0.597800  1.0
  C  C1381  1  0.242400  0.996600  0.425200  1.0
  C  C1382  1  0.757600  0.003400  0.574800  1.0
  C  C1383  1  0.940400  0.229500  0.584300  1.0
  C  C1384  1  0.059600  0.770500  0.415700  1.0
  C  C1385  1  0.962000  0.095400  0.636300  1.0
  C  C1386  1  0.038000  0.904600  0.363700  1.0
  C  C1387  1  0.248400  0.281300  0.187700  1.0
  C  C1388  1  0.751600  0.718700  0.812300  1.0
  C  C1389  1  0.248500  0.231400  0.193300  1.0
  C  C1390  1  0.751500  0.768600  0.806700  1.0
  C  C1391  1  0.198400  0.223400  0.183300  1.0
  C  C1392  1  0.801600  0.776600  0.816700  1.0
  C  C1393  1  0.147800  0.310500  0.161500  1.0
  C  C1394  1  0.852200  0.689500  0.838500  1.0
  C  C1395  1  0.196700  0.321300  0.171000  1.0
  C  C1396  1  0.803300  0.678700  0.829000  1.0
  C  C1397  1  0.301400  0.290500  0.199600  1.0
  C  C1398  1  0.698600  0.709500  0.800400  1.0
  C  C1399  1  0.312200  0.338600  0.183000  1.0
  C  C1400  1  0.687800  0.661400  0.817000  1.0
  C  C1401  1  0.361600  0.345900  0.193600  1.0
  C  C1402  1  0.638400  0.654100  0.806400  1.0
  C  C1403  1  0.404100  0.304900  0.222000  1.0
  C  C1404  1  0.595900  0.695100  0.778000  1.0
  C  C1405  1  0.393500  0.256200  0.239700  1.0
  C  C1406  1  0.606500  0.743800  0.760300  1.0
  C  C1407  1  0.341700  0.250600  0.228200  1.0
  C  C1408  1  0.658300  0.749400  0.771800  1.0
  C  C1409  1  0.457200  0.311200  0.232400  1.0
  C  C1410  1  0.542800  0.688800  0.767600  1.0
  C  C1411  1  0.498000  0.271600  0.258900  1.0
  C  C1412  1  0.502000  0.728400  0.741100  1.0
  C  C1413  1  0.489200  0.221800  0.277600  1.0
  C  C1414  1  0.510800  0.778200  0.722400  1.0
  C  C1415  1  0.437600  0.213500  0.267600  1.0
  C  C1416  1  0.562400  0.786500  0.732400  1.0
  C  C1417  1  0.531400  0.180000  0.305300  1.0
  C  C1418  1  0.468600  0.820000  0.694700  1.0
  C  C1419  1  0.523100  0.132500  0.321700  1.0
  C  C1420  1  0.476900  0.867500  0.678300  1.0
  C  C1421  1  0.473600  0.123100  0.311200  1.0
  C  C1422  1  0.526400  0.876900  0.688800  1.0
  C  C1423  1  0.431500  0.163600  0.284700  1.0
  C  C1424  1  0.568500  0.836400  0.715300  1.0
  C  C1425  1  0.465900  0.070900  0.327600  1.0
  C  C1426  1  0.534100  0.929100  0.672400  1.0
  C  C1427  1  0.491500  0.033800  0.366900  1.0
  C  C1428  1  0.508500  0.966200  0.633100  1.0
  C  C1429  1  0.483300  0.985600  0.380400  1.0
  C  C1430  1  0.516700  0.014400  0.619600  1.0
  C  C1431  1  0.425800  0.008500  0.320300  1.0
  C  C1432  1  0.574200  0.991500  0.679700  1.0
  C  C1433  1  0.431900  0.057200  0.304400  1.0
  C  C1434  1  0.568100  0.942800  0.695600  1.0
  C  C1435  1  0.518900  0.360800  0.175700  1.0
  C  C1436  1  0.481100  0.639200  0.824300  1.0
  C  C1437  1  0.538800  0.305600  0.301200  1.0
  C  C1438  1  0.461200  0.694400  0.698800  1.0
  C  C1439  1  0.651200  0.492400  0.744200  1.0
  C  C1440  1  0.348800  0.507600  0.255800  1.0
  C  C1441  1  0.711700  0.476600  0.753300  1.0
  C  C1442  1  0.288300  0.523400  0.246700  1.0
  C  C1443  1  0.607200  0.539800  0.757500  1.0
  C  C1444  1  0.392800  0.460200  0.242500  1.0
  C  C1445  1  0.202500  0.073200  0.182100  1.0
  C  C1446  1  0.797500  0.926800  0.817900  1.0
  C  C1447  1  0.210200  0.040700  0.149300  1.0
  C  C1448  1  0.789800  0.959300  0.850700  1.0
  C  C1449  1  0.229900  0.046900  0.222400  1.0
  C  C1450  1  0.770100  0.953100  0.777600  1.0
  C  C1451  1  0.898200  0.559700  0.922500  1.0
  C  C1452  1  0.101800  0.440300  0.077500  1.0
  C  C1453  1  0.833500  0.571100  0.940300  1.0
  C  C1454  1  0.166500  0.428900  0.059700  1.0
  C  C1455  1  0.812000  0.573000  0.987300  1.0
  C  C1456  1  0.188000  0.427000  0.012700  1.0
  C  C1457  1  0.852700  0.563300  0.017500  1.0
  C  C1458  1  0.147300  0.436700  0.982500  1.0
  C  C1459  1  0.914800  0.553300  0.000500  1.0
  C  C1460  1  0.085200  0.446700  0.999500  1.0
  C  C1461  1  0.938900  0.551400  0.953800  1.0
  C  C1462  1  0.061100  0.448600  0.046200  1.0
  C  C1463  1  0.280900  0.704700  0.524000  1.0
  C  C1464  1  0.719100  0.295300  0.476000  1.0
  C  C1465  1  0.219200  0.709400  0.545500  1.0
  C  C1466  1  0.780800  0.290600  0.454500  1.0
  C  C1467  1  0.201500  0.665400  0.570900  1.0
  C  C1468  1  0.798500  0.334600  0.429100  1.0
  C  C1469  1  0.244600  0.617200  0.574400  1.0
  C  C1470  1  0.755400  0.382800  0.425600  1.0
  C  C1471  1  0.306800  0.613100  0.552600  1.0
  C  C1472  1  0.693200  0.386900  0.447400  1.0
  C  C1473  1  0.324500  0.656300  0.528300  1.0
  C  C1474  1  0.675500  0.343700  0.471700  1.0
  C  C1475  1  0.729600  0.292100  0.933800  1.0
  C  C1476  1  0.270400  0.707900  0.066200  1.0
  C  C1477  1  0.703300  0.311500  0.893300  1.0
  C  C1478  1  0.296700  0.688500  0.106700  1.0
  C  C1479  1  0.698300  0.361100  0.867200  1.0
  C  C1480  1  0.301700  0.638900  0.132800  1.0
  C  C1481  1  0.720000  0.391400  0.880600  1.0
  C  C1482  1  0.280000  0.608600  0.119400  1.0
  C  C1483  1  0.745000  0.373500  0.922900  1.0
  C  C1484  1  0.255000  0.626500  0.077100  1.0
  C  C1485  1  0.748700  0.322400  0.950200  1.0
  C  C1486  1  0.251300  0.677600  0.049800  1.0
  C  C1487  1  0.845000  0.497700  0.638500  1.0
  C  C1488  1  0.155000  0.502300  0.361500  1.0
  C  C1489  1  0.886800  0.489000  0.597100  1.0
  C  C1490  1  0.113200  0.511000  0.402900  1.0
  C  C1491  1  0.941600  0.502600  0.583200  1.0
  C  C1492  1  0.058400  0.497400  0.416800  1.0
  C  C1493  1  0.956200  0.527200  0.609900  1.0
  C  C1494  1  0.043800  0.472800  0.390100  1.0
  C  C1495  1  0.914300  0.536000  0.652000  1.0
  C  C1496  1  0.085700  0.464000  0.348000  1.0
  C  C1497  1  0.860300  0.520300  0.665800  1.0
  C  C1498  1  0.139700  0.479700  0.334200  1.0
  C  C1499  1  0.072100  0.517000  0.684700  1.0
  C  C1500  1  0.927900  0.483000  0.315300  1.0
  C  C1501  1  0.052100  0.568900  0.662000  1.0
  C  C1502  1  0.947900  0.431100  0.338000  1.0
  C  C1503  1  0.081500  0.602200  0.664000  1.0
  C  C1504  1  0.918500  0.397800  0.336000  1.0
  C  C1505  1  0.130400  0.583700  0.689900  1.0
  C  C1506  1  0.869600  0.416300  0.310100  1.0
  C  C1507  1  0.150700  0.531300  0.713100  1.0
  C  C1508  1  0.849300  0.468700  0.286900  1.0
  C  C1509  1  0.121600  0.498600  0.710600  1.0
  C  C1510  1  0.878400  0.501400  0.289400  1.0
  C  C1511  1  0.081300  0.038300  0.301400  1.0
  C  C1512  1  0.918700  0.961700  0.698600  1.0
  C  C1513  1  0.016600  0.051100  0.309300  1.0
  C  C1514  1  0.983400  0.948900  0.690700  1.0
  C  C1515  1  0.983400  0.047100  0.355600  1.0
  C  C1516  1  0.016600  0.952900  0.644400  1.0
  C  C1517  1  0.015800  0.030500  0.394300  1.0
  C  C1518  1  0.984200  0.969500  0.605700  1.0
  C  C1519  1  0.080200  0.018400  0.386600  1.0
  C  C1520  1  0.919800  0.981600  0.613400  1.0
  C  C1521  1  0.113500  0.021500  0.339600  1.0
  C  C1522  1  0.886500  0.978500  0.660400  1.0
  C  C1523  1  0.344300  0.721000  0.614900  1.0
  C  C1524  1  0.655700  0.279000  0.385100  1.0
  C  C1525  1  0.404800  0.702200  0.591900  1.0
  C  C1526  1  0.595200  0.297800  0.408100  1.0
  C  C1527  1  0.443200  0.733300  0.570700  1.0
  C  C1528  1  0.556800  0.266700  0.429300  1.0
  C  C1529  1  0.422200  0.783700  0.572800  1.0
  C  C1530  1  0.577800  0.216300  0.427200  1.0
  C  C1531  1  0.363000  0.802500  0.596800  1.0
  C  C1532  1  0.637000  0.197500  0.403200  1.0
  C  C1533  1  0.323500  0.771300  0.617700  1.0
  C  C1534  1  0.676500  0.228700  0.382300  1.0
  C  C1535  1  0.274100  0.396300  0.865500  1.0
  C  C1536  1  0.725900  0.603700  0.134500  1.0
  C  C1537  1  0.232900  0.443400  0.847600  1.0
  C  C1538  1  0.767100  0.556600  0.152400  1.0
  C  C1539  1  0.233200  0.487100  0.856100  1.0
  C  C1540  1  0.766800  0.512900  0.143900  1.0
  C  C1541  1  0.275000  0.485100  0.882900  1.0
  C  C1542  1  0.725000  0.514900  0.117100  1.0
  C  C1543  1  0.317300  0.438200  0.898800  1.0
  C  C1544  1  0.682700  0.561800  0.101200  1.0
  C  C1545  1  0.317300  0.394300  0.890900  1.0
  C  C1546  1  0.682700  0.605700  0.109100  1.0
  C  C1547  1  0.870700  0.261800  0.250600  1.0
  C  C1548  1  0.129300  0.738200  0.749400  1.0
  C  C1549  1  0.895800  0.210700  0.274500  1.0
  C  C1550  1  0.104200  0.789300  0.725500  1.0
  C  C1551  1  0.883800  0.194700  0.324200  1.0
  C  C1552  1  0.116200  0.805300  0.675800  1.0
  C  C1553  1  0.846500  0.229300  0.350500  1.0
  C  C1554  1  0.153500  0.770700  0.649500  1.0
  C  C1555  1  0.821500  0.280700  0.327300  1.0
  C  C1556  1  0.178500  0.719300  0.672700  1.0
  C  C1557  1  0.834000  0.296400  0.277100  1.0
  C  C1558  1  0.166000  0.703600  0.722900  1.0
  C  C1559  1  0.238400  0.856800  0.494100  1.0
  C  C1560  1  0.761600  0.143200  0.505900  1.0
  C  C1561  1  0.203000  0.855200  0.464700  1.0
  C  C1562  1  0.797000  0.144800  0.535300  1.0
  C  C1563  1  0.138700  0.873700  0.474000  1.0
  C  C1564  1  0.861300  0.126300  0.526000  1.0
  C  C1565  1  0.109200  0.895100  0.512400  1.0
  C  C1566  1  0.890800  0.104900  0.487600  1.0
  C  C1567  1  0.144800  0.897700  0.541700  1.0
  C  C1568  1  0.855200  0.102300  0.458300  1.0
  C  C1569  1  0.209600  0.878100  0.532500  1.0
  C  C1570  1  0.790400  0.121900  0.467500  1.0
  C  C1571  1  0.257100  0.833500  0.987500  0.5
  C  C1572  1  0.742900  0.166500  0.012500  0.5
  C  C1573  1  0.293600  0.863900  0.992300  0.5
  C  C1574  1  0.706400  0.136100  0.007700  0.5
  C  C1575  1  0.357400  0.817400  0.002500  0.5
  C  C1576  1  0.642600  0.182600  0.997500  0.5
  C  C1577  1  0.330000  0.831800  0.049300  0.5
  C  C1578  1  0.670000  0.168200  0.950700  0.5
  C  C1579  1  0.881500  0.777200  0.289500  0.5
  C  C1580  1  0.118500  0.222800  0.710500  0.5
  C  C1581  1  0.844100  0.767000  0.261600  0.5
  C  C1582  1  0.155900  0.233000  0.738400  0.5
  C  C1583  1  0.780300  0.762000  0.270600  0.5
  C  C1584  1  0.219700  0.238000  0.729400  0.5
  C  C1585  1  0.847700  0.792700  0.183200  0.5
  C  C1586  1  0.152300  0.207300  0.816800  0.5
  C  C1587  1  0.892000  0.757800  0.217400  0.5
  C  C1588  1  0.108000  0.242200  0.782600  0.5
  C  C1589  1  0.911900  0.788200  0.239300  0.5
  C  C1590  1  0.088100  0.211800  0.760700  0.5
  C  C1591  1  0.669200  0.430900  0.315700  0.5
  C  C1592  1  0.330800  0.569100  0.684300  0.5
  C  C1593  1  0.701100  0.428400  0.269900  0.5
  C  C1594  1  0.298900  0.571600  0.730100  0.5
  C  C1595  1  0.673100  0.417700  0.241300  0.5
  C  C1596  1  0.326900  0.582300  0.758700  0.5
  C  C1597  1  0.615100  0.410200  0.256500  0.5
  C  C1598  1  0.384900  0.589800  0.743500  0.5
  C  C1599  1  0.582700  0.413900  0.301600  0.5
  C  C1600  1  0.417300  0.586100  0.698400  0.5
  C  C1601  1  0.610200  0.424100  0.330900  0.5
  C  C1602  1  0.389800  0.575900  0.669100  0.5
  C  C1603  1  0.655700  0.505200  0.368200  0.5
  C  C1604  1  0.344300  0.494800  0.631800  0.5
  C  C1605  1  0.699800  0.483800  0.333200  0.5
  C  C1606  1  0.300200  0.516200  0.666800  0.5
  C  C1607  1  0.688800  0.450200  0.314100  0.5
  C  C1608  1  0.311200  0.549800  0.685900  0.5
  C  C1609  1  0.632900  0.438100  0.330800  0.5
  C  C1610  1  0.367100  0.561900  0.669200  0.5
  C  C1611  1  0.589300  0.459400  0.365700  0.5
  C  C1612  1  0.410700  0.540600  0.634300  0.5
  C  C1613  1  0.599500  0.493100  0.384600  0.5
  C  C1614  1  0.400500  0.506900  0.615400  0.5
  C  C1615  1  0.329200  0.934600  0.618400  0.5
  C  C1616  1  0.670800  0.065400  0.381600  0.5
  C  C1617  1  0.381700  0.940700  0.584700  0.5
  C  C1618  1  0.618300  0.059300  0.415300  0.5
  C  C1619  1  0.387300  0.989200  0.561000  0.5
  C  C1620  1  0.612700  0.010800  0.439000  0.5
  C  C1621  1  0.339200  0.031900  0.569600  0.5
  C  C1622  1  0.660800  0.968100  0.430400  0.5
  C  C1623  1  0.286000  0.026400  0.602900  0.5
  C  C1624  1  0.714000  0.973600  0.397100  0.5
  C  C1625  1  0.281700  0.977600  0.627800  0.5
  C  C1626  1  0.718300  0.022400  0.372200  0.5
  C  C1627  1  0.350700  0.951000  0.604900  0.5
  C  C1628  1  0.649300  0.049000  0.395100  0.5
  C  C1629  1  0.319700  0.002000  0.605000  0.5
  C  C1630  1  0.680300  0.998000  0.395000  0.5
  C  C1631  1  0.341800  0.040400  0.571400  0.5
  C  C1632  1  0.658200  0.959600  0.428600  0.5
  C  C1633  1  0.394600  0.028600  0.537200  0.5
  C  C1634  1  0.605400  0.971400  0.462800  0.5
  C  C1635  1  0.425500  0.978000  0.537700  0.5
  C  C1636  1  0.574500  0.022000  0.462300  0.5
  C  C1637  1  0.403800  0.939500  0.571300  0.5
  C  C1638  1  0.596200  0.060500  0.428700  0.5
  C  C1639  1  0.591200  0.710100  0.454900  0.5
  C  C1640  1  0.408800  0.289900  0.545100  0.5
  C  C1641  1  0.619500  0.659600  0.454600  0.5
  C  C1642  1  0.380500  0.340400  0.545400  0.5
  C  C1643  1  0.676100  0.633200  0.470900  0.5
  C  C1644  1  0.323900  0.366800  0.529100  0.5
  C  C1645  1  0.704300  0.658600  0.486500  0.5
  C  C1646  1  0.295700  0.341400  0.513500  0.5
  C  C1647  1  0.675900  0.709800  0.486500  0.5
  C  C1648  1  0.324100  0.290200  0.513500  0.5
  C  C1649  1  0.618300  0.735600  0.470500  0.5
  C  C1650  1  0.381700  0.264400  0.529500  0.5
  C  C1651  1  0.691400  0.702800  0.401800  0.5
  C  C1652  1  0.308600  0.297200  0.598200  0.5
  C  C1653  1  0.682300  0.655900  0.428700  0.5
  C  C1654  1  0.317700  0.344100  0.571300  0.5
  C  C1655  1  0.671000  0.644400  0.478400  0.5
  C  C1656  1  0.329000  0.355600  0.521600  0.5
  C  C1657  1  0.667700  0.680000  0.501100  0.5
  C  C1658  1  0.332300  0.320000  0.498900  0.5
  C  C1659  1  0.675500  0.727100  0.474800  0.5
  C  C1660  1  0.324500  0.272900  0.525200  0.5
  C  C1661  1  0.688200  0.738300  0.424900  0.5
  C  C1662  1  0.311800  0.261700  0.575100  0.5
  C  C1663  1  0.338900  0.122700  0.132300  0.5
  C  C1664  1  0.661100  0.877300  0.867700  0.5
  C  C1665  1  0.364600  0.161800  0.122200  0.5
  C  C1666  1  0.635400  0.838200  0.877800  0.5
  C  C1667  1  0.414600  0.154800  0.143400  0.5
  C  C1668  1  0.585400  0.845200  0.856600  0.5
  C  C1669  1  0.437100  0.108300  0.175800  0.5
  C  C1670  1  0.562900  0.891700  0.824200  0.5
  C  C1671  1  0.411800  0.068800  0.185500  0.5
  C  C1672  1  0.588200  0.931200  0.814500  0.5
  C  C1673  1  0.362800  0.075700  0.163400  0.5
  C  C1674  1  0.637200  0.924300  0.836600  0.5
  C  C1675  1  0.405700  0.041900  0.183700  0.5
  C  C1676  1  0.594300  0.958100  0.816300  0.5
  C  C1677  1  0.469400  0.024800  0.184600  0.5
  C  C1678  1  0.530600  0.975200  0.815400  0.5
  C  C1679  1  0.500700  0.060800  0.176700  0.5
  C  C1680  1  0.499300  0.939200  0.823300  0.5
  C  C1681  1  0.467700  0.112100  0.167900  0.5
  C  C1682  1  0.532300  0.887900  0.832100  0.5
  C  C1683  1  0.404400  0.128600  0.167200  0.5
  C  C1684  1  0.595600  0.871400  0.832800  0.5
  C  C1685  1  0.372800  0.093200  0.175300  0.5
  C  C1686  1  0.627200  0.906800  0.824700  0.5
  C  C1687  1  0.618600  0.672800  0.319000  0.5
  C  C1688  1  0.381400  0.327200  0.681000  0.5
  C  C1689  1  0.569600  0.705600  0.295700  0.5
  C  C1690  1  0.430400  0.294400  0.704300  0.5
  C  C1691  1  0.577900  0.723000  0.246100  0.5
  C  C1692  1  0.422100  0.277000  0.753900  0.5
  C  C1693  1  0.636900  0.707700  0.219500  0.5
  C  C1694  1  0.363100  0.292300  0.780500  0.5
  C  C1695  1  0.686700  0.675300  0.242800  0.5
  C  C1696  1  0.313300  0.324700  0.757200  0.5
  C  C1697  1  0.677900  0.657700  0.292600  0.5
  C  C1698  1  0.322100  0.342300  0.707400  0.5
  C  C1699  1  0.511300  0.734200  0.335700  0.5
  C  C1700  1  0.488700  0.265800  0.664300  0.5
  C  C1701  1  0.475300  0.768300  0.301400  0.5
  C  C1702  1  0.524700  0.231700  0.698600  0.5
  C  C1703  1  0.498400  0.771100  0.253300  0.5
  C  C1704  1  0.501600  0.228900  0.746700  0.5
  C  C1705  1  0.556700  0.740000  0.238900  0.5
  C  C1706  1  0.443300  0.260000  0.761100  0.5
  C  C1707  1  0.593600  0.705700  0.273400  0.5
  C  C1708  1  0.406400  0.294300  0.726600  0.5
  C  C1709  1  0.570300  0.703300  0.321700  0.5
  C  C1710  1  0.429700  0.296700  0.678300  0.5
  C  C1711  1  0.478900  0.748700  0.141900  0.5
  C  C1712  1  0.521100  0.251300  0.858100  0.5
  C  C1713  1  0.440600  0.770900  0.106800  0.5
  C  C1714  1  0.559400  0.229100  0.893200  0.5
  C  C1715  1  0.427400  0.740600  0.086500  0.5
  C  C1716  1  0.572600  0.259400  0.913500  0.5
  C  C1717  1  0.453800  0.688200  0.099800  0.5
  C  C1718  1  0.546200  0.311800  0.900200  0.5
  C  C1719  1  0.495700  0.666300  0.132000  0.5
  C  C1720  1  0.504300  0.333700  0.868000  0.5
  C  C1721  1  0.508400  0.696000  0.153400  0.5
  C  C1722  1  0.491600  0.304000  0.846600  0.5
  C  C1723  1  0.489900  0.746500  0.126600  0.5
  C  C1724  1  0.510100  0.253500  0.873400  0.5
  C  C1725  1  0.468700  0.709100  0.162700  0.5
  C  C1726  1  0.531300  0.290900  0.837300  0.5
  C  C1727  1  0.464800  0.667900  0.151600  0.5
  C  C1728  1  0.535200  0.332100  0.848400  0.5
  C  C1729  1  0.483900  0.663100  0.105200  0.5
  C  C1730  1  0.516100  0.336900  0.894800  0.5
  C  C1731  1  0.508900  0.698800  0.069100  0.5
  C  C1732  1  0.491100  0.301200  0.930900  0.5
  C  C1733  1  0.510900  0.741200  0.079800  0.5
  C  C1734  1  0.489100  0.258800  0.920200  0.5
  C  C1735  1  0.712400  0.322100  0.194600  0.5
  C  C1736  1  0.287600  0.677900  0.805400  0.5
  C  C1737  1  0.659100  0.341400  0.225300  0.5
  C  C1738  1  0.340900  0.658600  0.774700  0.5
  C  C1739  1  0.647100  0.387800  0.235700  0.5
  C  C1740  1  0.352900  0.612200  0.764300  0.5
  C  C1741  1  0.690100  0.414900  0.214800  0.5
  C  C1742  1  0.309900  0.585100  0.785200  0.5
  C  C1743  1  0.743200  0.396100  0.183400  0.5
  C  C1744  1  0.256800  0.603900  0.816600  0.5
  C  C1745  1  0.755400  0.349700  0.172900  0.5
  C  C1746  1  0.244600  0.650300  0.827100  0.5
  C  C1747  1  0.742100  0.304300  0.173700  0.5
  C  C1748  1  0.257900  0.695700  0.826300  0.5
  C  C1749  1  0.776400  0.338200  0.148300  0.5
  C  C1750  1  0.223600  0.661800  0.851700  0.5
  C  C1751  1  0.785300  0.353600  0.099000  0.5
  C  C1752  1  0.214700  0.646400  0.901000  0.5
  C  C1753  1  0.762100  0.333600  0.074400  0.5
  C  C1754  1  0.237900  0.666400  0.925600  0.5
  C  C1755  1  0.731100  0.297700  0.099100  0.5
  C  C1756  1  0.268900  0.702300  0.900900  0.5
  C  C1757  1  0.719100  0.283800  0.148700  0.5
  C  C1758  1  0.280900  0.716200  0.851300  0.5
  C  C1759  1  0.402000  0.262900  0.986400  0.5
  C  C1760  1  0.598000  0.737100  0.013600  0.5
  C  C1761  1  0.337900  0.273400  0.993300  0.5
  C  C1762  1  0.662100  0.726600  0.006700  0.5
  C  C1763  1  0.299600  0.295700  0.029200  0.5
  C  C1764  1  0.700400  0.704300  0.970800  0.5
  C  C1765  1  0.325900  0.307900  0.058600  0.5
  C  C1766  1  0.674100  0.692100  0.941400  0.5
  C  C1767  1  0.390100  0.298500  0.050600  0.5
  C  C1768  1  0.609900  0.701500  0.949400  0.5
  C  C1769  1  0.428500  0.275500  0.015000  0.5
  C  C1770  1  0.571500  0.724500  0.985000  0.5
  C  C1771  1  0.328900  0.248900  0.038700  0.5
  C  C1772  1  0.671100  0.751100  0.961300  0.5
  C  C1773  1  0.383500  0.223100  0.058000  0.5
  C  C1774  1  0.616500  0.776900  0.942000  0.5
  C  C1775  1  0.411500  0.249500  0.072700  0.5
  C  C1776  1  0.588500  0.750500  0.927300  0.5
  C  C1777  1  0.383800  0.301100  0.069300  0.5
  C  C1778  1  0.616200  0.698900  0.930700  0.5
  C  C1779  1  0.327500  0.325300  0.053200  0.5
  C  C1780  1  0.672500  0.674700  0.946800  0.5
  C  C1781  1  0.300200  0.300300  0.037100  0.5
  C  C1782  1  0.699800  0.699700  0.962900  0.5
  C  C1783  1  0.850400  0.868900  0.139400  0.5
  C  C1784  1  0.149600  0.131100  0.860600  0.5
  C  C1785  1  0.832800  0.837100  0.123100  0.5
  C  C1786  1  0.167200  0.162900  0.876900  0.5
  C  C1787  1  0.829200  0.848300  0.074700  0.5
  C  C1788  1  0.170800  0.151700  0.925300  0.5
  C  C1789  1  0.841000  0.891800  0.042900  0.5
  C  C1790  1  0.159000  0.108200  0.957100  0.5
  C  C1791  1  0.857300  0.924500  0.059200  0.5
  C  C1792  1  0.142700  0.075500  0.940800  0.5
  C  C1793  1  0.862900  0.912700  0.106900  0.5
  C  C1794  1  0.137100  0.087300  0.893100  0.5
  C  C1795  1  0.750000  0.813900  0.117100  0.5
  C  C1796  1  0.250000  0.186100  0.882900  0.5
  C  C1797  1  0.705100  0.835400  0.151400  0.5
  C  C1798  1  0.294900  0.164600  0.848600  0.5
  C  C1799  1  0.704600  0.881300  0.156500  0.5
  C  C1800  1  0.295400  0.118700  0.843500  0.5
  C  C1801  1  0.748400  0.905400  0.127600  0.5
  C  C1802  1  0.251600  0.094600  0.872400  0.5
  C  C1803  1  0.793000  0.884000  0.092800  0.5
  C  C1804  1  0.207000  0.116000  0.907200  0.5
  C  C1805  1  0.793900  0.837900  0.087700  0.5
  C  C1806  1  0.206100  0.162100  0.912300  0.5
  C  C1807  1  0.757500  0.842600  0.290700  0.5
  C  C1808  1  0.242500  0.157400  0.709300  0.5
  C  C1809  1  0.712100  0.886100  0.300600  0.5
  C  C1810  1  0.287900  0.113900  0.699400  0.5
  C  C1811  1  0.684000  0.886500  0.347800  0.5
  C  C1812  1  0.316000  0.113500  0.652200  0.5
  C  C1813  1  0.701200  0.842700  0.384900  0.5
  C  C1814  1  0.298800  0.157300  0.615100  0.5
  C  C1815  1  0.746800  0.798900  0.374600  0.5
  C  C1816  1  0.253200  0.201100  0.625400  0.5
  C  C1817  1  0.775200  0.799000  0.327500  0.5
  C  C1818  1  0.224800  0.201000  0.672500  0.5
  C  C1819  1  0.740900  0.911000  0.302100  0.5
  C  C1820  1  0.259100  0.089000  0.697900  0.5
  C  C1821  1  0.775300  0.924600  0.256800  0.5
  C  C1822  1  0.224700  0.075400  0.743200  0.5
  C  C1823  1  0.832500  0.932200  0.251700  0.5
  C  C1824  1  0.167500  0.067800  0.748300  0.5
  C  C1825  1  0.856100  0.925700  0.292300  0.5
  C  C1826  1  0.143900  0.074300  0.707700  0.5
  C  C1827  1  0.821400  0.912200  0.337500  0.5
  C  C1828  1  0.178600  0.087800  0.662500  0.5
  C  C1829  1  0.764000  0.905000  0.342800  0.5
  C  C1830  1  0.236000  0.095000  0.657200  0.5
  C  C1831  1  0.813600  0.974900  0.274800  0.5
  C  C1832  1  0.186400  0.025100  0.725200  0.5
  C  C1833  1  0.828300  0.020200  0.262800  0.5
  C  C1834  1  0.171700  0.979800  0.737200  0.5
  C  C1835  1  0.884400  0.020300  0.270600  0.5
  C  C1836  1  0.115600  0.979700  0.729400  0.5
  C  C1837  1  0.926800  0.974600  0.290000  0.5
  C  C1838  1  0.073200  0.025400  0.710000  0.5
  C  C1839  1  0.912700  0.929300  0.301500  0.5
  C  C1840  1  0.087300  0.070700  0.698500  0.5
  C  C1841  1  0.856600  0.929000  0.294200  0.5
  C  C1842  1  0.143400  0.071000  0.705800  0.5
  C  C1843  1  0.821500  0.066300  0.275100  0.5
  C  C1844  1  0.178500  0.933700  0.724900  0.5
  C  C1845  1  0.764900  0.063900  0.270600  0.5
  C  C1846  1  0.235100  0.936100  0.729400  0.5
  C  C1847  1  0.716000  0.108500  0.259600  0.5
  C  C1848  1  0.284000  0.891500  0.740400  0.5
  C  C1849  1  0.723700  0.155200  0.253600  0.5
  C  C1850  1  0.276300  0.844800  0.746400  0.5
  C  C1851  1  0.780100  0.157400  0.258500  0.5
  C  C1852  1  0.219900  0.842600  0.741500  0.5
  C  C1853  1  0.829400  0.113100  0.269000  0.5
  C  C1854  1  0.170600  0.886900  0.731000  0.5
  C  C1855  1  0.758400  0.180200  0.275000  0.5
  C  C1856  1  0.241600  0.819800  0.725000  0.5
  C  C1857  1  0.798900  0.161600  0.237000  0.5
  C  C1858  1  0.201100  0.838400  0.763000  0.5
  C  C1859  1  0.776200  0.156200  0.201100  0.5
  C  C1860  1  0.223800  0.843800  0.798900  0.5
  C  C1861  1  0.712300  0.168700  0.203000  0.5
  C  C1862  1  0.287700  0.831300  0.797000  0.5
  C  C1863  1  0.671900  0.187400  0.241000  0.5
  C  C1864  1  0.328100  0.812600  0.759000  0.5
  C  C1865  1  0.694400  0.193400  0.276500  0.5
  C  C1866  1  0.305600  0.806600  0.723500  0.5
  C  C1867  1  0.655400  0.041700  0.249600  0.5
  C  C1868  1  0.344600  0.958300  0.750400  0.5
  C  C1869  1  0.617200  0.015100  0.284200  0.5
  C  C1870  1  0.382800  0.984900  0.715800  0.5
  C  C1871  1  0.582500  0.994000  0.270000  0.5
  C  C1872  1  0.417500  0.006000  0.730000  0.5
  C  C1873  1  0.585600  0.999600  0.221400  0.5
  C  C1874  1  0.414400  0.000400  0.778600  0.5
  C  C1875  1  0.625200  0.025000  0.187000  0.5
  C  C1876  1  0.374800  0.975000  0.813000  0.5
  C  C1877  1  0.660300  0.046000  0.201300  0.5
  C  C1878  1  0.339700  0.954000  0.798700  0.5
  C  C1879  1  0.652900  0.948200  0.181300  0.5
  C  C1880  1  0.347100  0.051800  0.818700  0.5
  C  C1881  1  0.695900  0.967300  0.144900  0.5
  C  C1882  1  0.304100  0.032700  0.855100  0.5
  C  C1883  1  0.709300  0.009700  0.145600  0.5
  C  C1884  1  0.290700  0.990300  0.854400  0.5
  C  C1885  1  0.680400  0.032700  0.182800  0.5
  C  C1886  1  0.319600  0.967300  0.817200  0.5
  C  C1887  1  0.637800  0.013400  0.219900  0.5
  C  C1888  1  0.362200  0.986600  0.780100  0.5
  C  C1889  1  0.624000  0.970900  0.219000  0.5
  C  C1890  1  0.376000  0.029100  0.781000  0.5
  C  C1891  1  0.774400  0.512500  0.419000  0.5
  C  C1892  1  0.225600  0.487500  0.581000  0.5
  C  C1893  1  0.731000  0.531700  0.387800  0.5
  C  C1894  1  0.269000  0.468300  0.612200  0.5
  C  C1895  1  0.648900  0.523100  0.455900  0.5
  C  C1896  1  0.351100  0.476900  0.544100  0.5
  C  C1897  1  0.692000  0.504300  0.486900  0.5
  C  C1898  1  0.308000  0.495700  0.513100  0.5
  C  C1899  1  0.755000  0.498100  0.468300  0.5
  C  C1900  1  0.245000  0.501900  0.531700  0.5
  C  C1901  1  0.668200  0.536500  0.406400  0.5
  C  C1902  1  0.331800  0.463500  0.593600  0.5
  C  C1903  1  0.744500  0.489400  0.470600  0.5
  C  C1904  1  0.255500  0.510600  0.529400  0.5
  C  C1905  1  0.732900  0.505700  0.511800  0.5
  C  C1906  1  0.267100  0.494300  0.488200  0.5
  C  C1907  1  0.777000  0.523100  0.519900  0.5
  C  C1908  1  0.223000  0.476900  0.480100  0.5
  C  C1909  1  0.830800  0.524500  0.486600  0.5
  C  C1910  1  0.169200  0.475500  0.513400  0.5
  C  C1911  1  0.842200  0.509400  0.444700  0.5
  C  C1912  1  0.157800  0.490600  0.555300  0.5
  C  C1913  1  0.799000  0.491700  0.437000  0.5
  C  C1914  1  0.201000  0.508300  0.563000  0.5
  C  C1915  1  0.993700  0.263200  0.001600  0.5
  C  C1916  1  0.006300  0.736800  0.998400  0.5
  C  C1917  1  0.932200  0.270300  0.000100  0.5
  C  C1918  1  0.067800  0.729700  0.999900  0.5
  C  C1919  1  0.910800  0.228000  0.010600  0.5
  C  C1920  1  0.089200  0.772000  0.989400  0.5
  C  C1921  1  0.951500  0.179400  0.023900  0.5
  C  C1922  1  0.048500  0.820600  0.976100  0.5
  C  C1923  1  0.013100  0.173100  0.024900  0.5
  C  C1924  1  0.986900  0.826900  0.975100  0.5
  C  C1925  1  0.035100  0.214400  0.013100  0.5
  C  C1926  1  0.964900  0.785600  0.986900  0.5
  C  C1927  1  0.785600  0.243400  0.070800  0.5
  C  C1928  1  0.214400  0.756600  0.929200  0.5
  C  C1929  1  0.772000  0.290300  0.080400  0.5
  C  C1930  1  0.228000  0.709700  0.919600  0.5
  C  C1931  1  0.814800  0.318100  0.058800  0.5
  C  C1932  1  0.185200  0.681900  0.941200  0.5
  C  C1933  1  0.839600  0.224900  0.040400  0.5
  C  C1934  1  0.160400  0.775100  0.959600  0.5
  C  C1935  1  0.882500  0.252800  0.018500  0.5
  C  C1936  1  0.117500  0.747200  0.981500  0.5
  C  C1937  1  0.869100  0.299400  0.028400  0.5
  C  C1938  1  0.130900  0.700600  0.971600  0.5
  C  C1939  1  0.900400  0.013000  0.065800  0.5
  C  C1940  1  0.099600  0.987000  0.934200  0.5
  C  C1941  1  0.912200  0.960500  0.080800  0.5
  C  C1942  1  0.087800  0.039500  0.919200  0.5
  C  C1943  1  0.890400  0.937600  0.127900  0.5
  C  C1944  1  0.109600  0.062400  0.872100  0.5
  C  C1945  1  0.856900  0.968000  0.159100  0.5
  C  C1946  1  0.143100  0.032000  0.840900  0.5
  C  C1947  1  0.845500  0.020700  0.144100  0.5
  C  C1948  1  0.154500  0.979300  0.855900  0.5
  C  C1949  1  0.867500  0.043700  0.096700  0.5
  C  C1950  1  0.132500  0.956300  0.903300  0.5
  C  C1951  1  0.783700  0.160200  0.065300  0.5
  C  C1952  1  0.216300  0.839800  0.934700  0.5
  C  C1953  1  0.813700  0.129400  0.033800  0.5
  C  C1954  1  0.186300  0.870600  0.966200  0.5
  C  C1955  1  0.848500  0.079300  0.050800  0.5
  C  C1956  1  0.151500  0.920700  0.949200  0.5
  C  C1957  1  0.853800  0.060200  0.099100  0.5
  C  C1958  1  0.146200  0.939800  0.900900  0.5
  C  C1959  1  0.823700  0.090400  0.130600  0.5
  C  C1960  1  0.176300  0.909600  0.869400  0.5
  C  C1961  1  0.788500  0.140500  0.113900  0.5
  C  C1962  1  0.211500  0.859500  0.886100  0.5
  C  C1963  1  0.762600  0.682100  0.249700  0.5
  C  C1964  1  0.237400  0.317900  0.750300  0.5
  C  C1965  1  0.746700  0.709400  0.283400  0.5
  C  C1966  1  0.253300  0.290600  0.716600  0.5
  C  C1967  1  0.735700  0.684600  0.331900  0.5
  C  C1968  1  0.264300  0.315400  0.668100  0.5
  C  C1969  1  0.738300  0.633300  0.346000  0.5
  C  C1970  1  0.261700  0.366700  0.654000  0.5
  C  C1971  1  0.765800  0.630500  0.263500  0.5
  C  C1972  1  0.234200  0.369500  0.736500  0.5
  C  C1973  1  0.753400  0.606200  0.311900  0.5
  C  C1974  1  0.246600  0.393800  0.688100  0.5
  N  N1975  1  0.942600  0.414300  0.910700  1.0
  N  N1976  1  0.057400  0.585700  0.089300  1.0
  N  N1977  1  0.468100  0.583200  0.976700  1.0
  N  N1978  1  0.531900  0.416800  0.023300  1.0
  N  N1979  1  0.506000  0.426100  0.705700  1.0
  N  N1980  1  0.494000  0.573900  0.294300  1.0
  N  N1981  1  0.998800  0.473000  0.823200  1.0
  N  N1982  1  0.001200  0.527000  0.176800  1.0
  N  N1983  1  0.698300  0.785600  0.633800  1.0
  N  N1984  1  0.301700  0.214400  0.366200  1.0
  N  N1985  1  0.563400  0.486100  0.618600  1.0
  N  N1986  1  0.436600  0.513900  0.381400  1.0
  N  N1987  1  0.958600  0.339000  0.861500  1.0
  N  N1988  1  0.041400  0.661000  0.138500  1.0
  N  N1989  1  0.619900  0.345100  0.707900  1.0
  N  N1990  1  0.380100  0.654900  0.292100  1.0
  N  N1991  1  0.674800  0.400700  0.620300  1.0
  N  N1992  1  0.325200  0.599300  0.379700  1.0
  N  N1993  1  0.009200  0.399000  0.774800  1.0
  N  N1994  1  0.990800  0.601000  0.225200  1.0
  N  N1995  1  0.498700  0.877600  0.343300  1.0
  N  N1996  1  0.501300  0.122400  0.656700  1.0
  N  N1997  1  0.469200  0.943400  0.988300  1.0
  N  N1998  1  0.530800  0.056600  0.011700  1.0
  N  N1999  1  0.120100  0.248700  0.088100  1.0
  N  N2000  1  0.879900  0.751300  0.911900  1.0
  N  N2001  1  0.406500  0.840700  0.404700  1.0
  N  N2002  1  0.593500  0.159300  0.595300  1.0
  N  N2003  1  0.081600  0.818700  0.247200  1.0
  N  N2004  1  0.918400  0.181300  0.752800  1.0
  N  N2005  1  0.016800  0.210300  0.151300  1.0
  N  N2006  1  0.983200  0.789700  0.848700  1.0
  N  N2007  1  0.050100  0.229100  0.229700  1.0
  N  N2008  1  0.949900  0.770900  0.770300  1.0
  N  N2009  1  0.346200  0.942300  0.424000  1.0
  N  N2010  1  0.653800  0.057700  0.576000  1.0
  N  N2011  1  0.148200  0.262400  0.167900  1.0
  N  N2012  1  0.851800  0.737600  0.832100  1.0
  N  N2013  1  0.451300  0.972800  0.357700  1.0
  N  N2014  1  0.548700  0.027200  0.642300  1.0
  O  O2015  1  0.882300  0.024200  0.955600  1.0
  O  O2016  1  0.117700  0.975800  0.044400  1.0
  O  O2017  1  0.787000  0.025100  0.914900  1.0
  O  O2018  1  0.213000  0.974900  0.085100  1.0
  O  O2019  1  0.066300  0.338700  0.428800  1.0
  O  O2020  1  0.933700  0.661300  0.571200  1.0
  O  O2021  1  0.160900  0.331800  0.476500  1.0
  O  O2022  1  0.839100  0.668200  0.523500  1.0
  O  O2023  1  0.932500  0.199600  0.558100  1.0
  O  O2024  1  0.067500  0.800400  0.441900  1.0
  O  O2025  1  0.015100  0.113900  0.612800  1.0
  O  O2026  1  0.984900  0.886100  0.387200  1.0
  O  O2027  1  0.466100  0.359200  0.214400  1.0
  O  O2028  1  0.533900  0.640800  0.785600  1.0
  O  O2029  1  0.551300  0.276500  0.267400  1.0
  O  O2030  1  0.448700  0.723500  0.732600  1.0
  O  O2031  1  0.634800  0.468000  0.725600  1.0
  O  O2032  1  0.365200  0.532000  0.274400  1.0
  O  O2033  1  0.173700  0.118400  0.174500  1.0
  O  O2034  1  0.826300  0.881600  0.825500  1.0
  F  F2035  1  0.898300  0.376700  0.174700  1.0
  F  F2036  1  0.101700  0.623300  0.825300  1.0
  F  F2037  1  0.921900  0.428700  0.103600  1.0
  F  F2038  1  0.078100  0.571300  0.896400  1.0
  F  F2039  1  0.993000  0.355600  0.134200  1.0
  F  F2040  1  0.007000  0.644400  0.865800  1.0
  F  F2041  1  0.910600  0.355300  0.106300  1.0
  F  F2042  1  0.089400  0.644700  0.893700  1.0
  F  F2043  1  0.210000  0.125200  0.272600  1.0
  F  F2044  1  0.790000  0.874800  0.727400  1.0
  F  F2045  1  0.218300  0.108100  0.351270  1.0
  F  F2046  1  0.781700  0.891900  0.648730  1.0
  F  F2047  1  0.280200  0.051800  0.306600  1.0
  F  F2048  1  0.719800  0.948200  0.693400  1.0
  F  F2049  1  0.296600  0.129400  0.290900  1.0
  F  F2050  1  0.703400  0.870600  0.709100  1.0
  F  F2051  1  0.345100  0.947700  0.210700  1.0
  F  F2052  1  0.654900  0.052300  0.789300  1.0
  F  F2053  1  0.271200  0.931400  0.271200  1.0
  F  F2054  1  0.728800  0.068600  0.728800  1.0
  F  F2055  1  0.365400  0.869300  0.262100  1.0
  F  F2056  1  0.634600  0.130700  0.737900  1.0
  F  F2057  1  0.358100  0.937400  0.286200  1.0
  F  F2058  1  0.641900  0.062600  0.713800  1.0
  F  F2059  1  0.773300  0.382300  0.722300  1.0
  F  F2060  1  0.226700  0.617700  0.277700  1.0
  F  F2061  1  0.824300  0.311600  0.774800  1.0
  F  F2062  1  0.175700  0.688400  0.225200  1.0
  F  F2063  1  0.877700  0.346400  0.702600  1.0
  F  F2064  1  0.122300  0.653600  0.297400  1.0
  F  F2065  1  0.839900  0.389100  0.761500  1.0
  F  F2066  1  0.160100  0.610900  0.238500  1.0
  F  F2067  1  0.786400  0.544000  0.766200  1.0
  F  F2068  1  0.213600  0.456000  0.233800  1.0
  F  F2069  1  0.733400  0.513000  0.835600  1.0
  F  F2070  1  0.266600  0.487000  0.164400  1.0
  F  F2071  1  0.836000  0.472750  0.816790  1.0
  F  F2072  1  0.164000  0.527250  0.183210  1.0
  F  F2073  1  0.806700  0.548500  0.835100  1.0
  F  F2074  1  0.193300  0.451500  0.164900  1.0
  F  F2075  1  0.519300  0.595300  0.416300  0.5
  F  F2076  1  0.480700  0.404700  0.583700  0.5
  F  F2077  1  0.427500  0.654600  0.400600  0.5
  F  F2078  1  0.572500  0.345400  0.599400  0.5
  F  F2079  1  0.474800  0.653300  0.459500  0.5
  F  F2080  1  0.525200  0.346700  0.540500  0.5
  F  F2081  1  0.427500  0.593900  0.472600  0.5
  F  F2082  1  0.572500  0.406100  0.527400  0.5
  F  F2083  1  0.546900  0.568500  0.409300  0.5
  F  F2084  1  0.453100  0.431500  0.590700  0.5
  F  F2085  1  0.469500  0.641500  0.381900  0.5
  F  F2086  1  0.530500  0.358500  0.618100  0.5
  F  F2087  1  0.519600  0.636100  0.441200  0.5
  F  F2088  1  0.480400  0.363900  0.558800  0.5
  F  F2089  1  0.451000  0.590700  0.455000  0.5
  F  F2090  1  0.549000  0.409300  0.545000  0.5
  F  F2091  1  0.217100  0.303200  0.882200  0.5
  F  F2092  1  0.782900  0.696800  0.117800  0.5
  F  F2093  1  0.169300  0.371600  0.824000  0.5
  F  F2094  1  0.830700  0.628400  0.176000  0.5
  F  F2095  1  0.150400  0.294700  0.844300  0.5
  F  F2096  1  0.849600  0.705300  0.155700  0.5
  F  F2097  1  0.111700  0.342500  0.894200  0.5
  F  F2098  1  0.888300  0.657500  0.105800  0.5
  F  F2099  1  0.109900  0.306900  0.907400  0.5
  F  F2100  1  0.890100  0.693100  0.092600  0.5
  F  F2101  1  0.127700  0.376600  0.906200  0.5
  F  F2102  1  0.872300  0.623400  0.093800  0.5
  F  F2103  1  0.208000  0.309200  0.881000  0.5
  F  F2104  1  0.792000  0.690800  0.119000  0.5
  F  F2105  1  0.136000  0.366100  0.835900  0.5
  F  F2106  1  0.864000  0.633900  0.164100  0.5
  F  F2107  1  0.512000  0.853000  0.543000  0.5
  F  F2108  1  0.488000  0.147000  0.457000  0.5
  F  F2109  1  0.594100  0.855900  0.485100  0.5
  F  F2110  1  0.405900  0.144100  0.514900  0.5
  F  F2111  1  0.515200  0.930100  0.489800  0.5
  F  F2112  1  0.484800  0.069900  0.510200  0.5
  F  F2113  1  0.505600  0.867600  0.462000  0.5
  F  F2114  1  0.494400  0.132400  0.538000  0.5
  F  F2115  1  0.547100  0.799500  0.498900  0.5
  F  F2116  1  0.452900  0.200500  0.501100  0.5
  F  F2117  1  0.551900  0.859800  0.527600  0.5
  F  F2118  1  0.448100  0.140200  0.472400  0.5
  F  F2119  1  0.594400  0.865700  0.450600  0.5
  F  F2120  1  0.405600  0.134300  0.549400  0.5
  F  F2121  1  0.489300  0.878200  0.471800  0.5
  F  F2122  1  0.510700  0.121800  0.528200  0.5
