
#######################################################################
#
#                 Cambridge Crystallographic Data Centre
#                                CCDC 
#
#######################################################################
#
# If this CIF has been generated from an entry in the Cambridge 
# Structural Database, then it will include bibliographic, chemical, 
# crystal, experimental, refinement or atomic coordinate data resulting 
# from the CCDC's data processing and validation procedures.
#
#######################################################################

data_ZAYPAT
_chemical_formula_moiety         'C156 H144 Cu12 N12 O60'
_chemical_name_systematic        
"hexakis(\m-3,3'-(diazene-1,2-diyl)dibenzoato)-hexakis(\m-5-t-butylbenzene-1,3-dicarboxylato)-dodeca-aqua-dodeca-copper(ii) unknown solvate"
_symmetry_cell_setting           triclinic
_symmetry_space_group_name_H-M   'P -1'
_symmetry_Int_Tables_number      2
_space_group_name_Hall           '-P 1'
loop_
_symmetry_equiv_pos_site_id
_symmetry_equiv_pos_as_xyz
1 x,y,z
2 -x,-y,-z
_cell_length_a                   20.1292(4)
_cell_length_b                   21.7528(4)
_cell_length_c                   22.5286(4)
_cell_angle_alpha                107.9914(18)
_cell_angle_beta                 99.9315(16)
_cell_angle_gamma                108.1284(18)
_cell_volume                     8513.75
_exptl_crystal_colour            'dark green'
_exptl_crystal_description       prism
_cell_formula_units_Z            1
_exptl_crystal_recrystallization_method N,N-Diethylformamide
loop_
_atom_site_label
_atom_site_type_symbol
_atom_site_fract_x
_atom_site_fract_y
_atom_site_fract_z
Cu1 Cu 0.46567(2) 0.08173(3) 0.27680(2)
Cu2 Cu 0.48092(3) 0.15392(3) 0.40049(2)
Cu3 Cu 0.82806(3) 0.07706(3) 0.15898(2)
Cu4 Cu 0.60751(3) 0.30715(3) 0.06333(3)
Cu5 Cu 0.95476(3) 0.14358(3) 0.25025(2)
Cu6 Cu 0.66967(3) 0.44533(3) 0.11837(3)
O1 O 0.36464(15) 0.07164(16) 0.25821(13)
O2 O 0.4592(2) 0.0312(2) 0.17766(15)
O3 O 0.58345(15) 0.15697(16) 0.41113(14)
O4 O 0.73339(17) 0.0128(2) 0.07481(16)
O5 O 0.56809(16) 0.09740(18) 0.30522(14)
O6 O 1.05230(19) 0.2060(2) 0.33083(16)
O7 O 0.37557(15) 0.13458(16) 0.36215(14)
O8 O 0.4997(2) 0.2211(2) 0.49983(16)
O9 O 0.10871(15) -0.07681(17) -0.10112(14)
O10 O -0.00016(16) -0.13841(18) -0.17939(14)
O11 O 0.83414(17) 0.16956(18) 0.16195(15)
O12 O 0.78492(16) 0.09020(18) 0.23188(14)
O13 O 0.45152(17) 0.06654(17) 0.41251(14)
O14 O 0.43975(18) 0.00394(16) 0.30812(14)
O15 O 0.84019(17) -0.00706(17) 0.16679(15)
O16 O 0.51020(18) 0.23688(16) 0.37943(15)
O17 O 0.95074(17) 0.04904(18) 0.24057(16)
O18 O 0.49466(18) 0.17757(16) 0.27368(15)
O19 O 0.70581(18) 0.31101(16) 0.10066(16)
O20 O 0.30158(18) -0.44030(16) -0.03854(16)
O21 O 0.48133(18) -0.32269(17) -0.03421(18)
O22 O 0.42647(18) -0.44052(17) -0.07552(18)
O23 O 0.5875(2) 0.31413(17) 0.14638(16)
O24 O 0.89343(16) 0.1401(2) 0.30843(15)
O25 O 0.75539(19) 0.42788(17) 0.15365(17)
O26 O 0.36189(19) -0.32349(16) 0.01072(16)
O27 O 0.6330(2) 0.43101(17) 0.19064(17)
O28 O 0.9393(2) 0.2263(2) 0.24350(18)
O29 O 0.7268(2) 0.55759(18) 0.17014(19)
O30 O 0.55556(19) 0.19681(17) 0.01324(18)
N1 N 0.3314(2) -0.2508(2) 0.2865(2)
N2 N 0.0422(2) -0.0178(2) 0.11293(19)
N3 N 0.1109(2) -0.0038(2) 0.12813(18)
N4 N 0.3400(2) -0.2507(2) 0.2328(2)
N5 N 0.7991(3) -0.2661(3) 0.0988(3)
N6 N 0.7382(3) -0.2637(3) 0.0820(2)
C1 C 0.3835(2) -0.1211(3) 0.3261(2)
H1 H 0.3798 -0.1233 0.2838
C2 C 0.1476(2) 0.0396(3) 0.1959(2)
C3 C 0.3618(3) -0.1818(3) 0.3370(2)
C4 C 0.8245(2) 0.1197(3) 0.2900(2)
C5 C 0.8985(2) -0.0048(3) 0.2009(2)
C6 C 0.0057(2) -0.0579(3) 0.0442(2)
C7 C 0.0395(2) -0.1068(2) -0.1202(2)
C8 C 0.2203(2) 0.0475(2) 0.2168(2)
H2 H 0.2408 0.0251 0.1874
C9 C 0.3402(2) 0.0987(2) 0.30235(19)
C10 C 0.5407(2) 0.3013(2) 0.3149(2)
C11 C 0.6061(2) 0.1322(2) 0.36467(19)
C12 C 0.3238(2) -0.3820(2) 0.0089(2)
C13 C 0.5129(2) 0.2334(2) 0.3231(2)
C14 C 0.4355(2) 0.0096(2) 0.3649(2)
C15 C 0.6863(2) 0.1437(2) 0.37926(19)
C16 C 0.6032(3) 0.3714(2) 0.1918(2)
C17 C 0.7154(2) 0.1221(2) 0.3287(2)
H3 H 0.6854 0.0993 0.2857
C18 C 0.2619(2) 0.0886(2) 0.2810(2)
C19 C 0.7887(2) 0.1349(3) 0.3429(2)
C20 C 0.0415(2) -0.0655(3) -0.0036(2)
H4 H 0.0923 -0.0461 0.0084
C21 C 0.4108(2) -0.0568(2) 0.3774(2)
C22 C 0.0018(2) -0.1014(2) -0.0682(2)
C23 C 0.5836(3) 0.3681(2) 0.2525(2)
C24 C 0.5966(3) 0.4310(2) 0.3053(2)
H5 H 0.6148 0.4739 0.3011
C25 C 0.5822(2) 0.4294(2) 0.3638(2)
C26 C 0.8046(3) 0.1888(3) 0.4592(2)
C27 C 0.5542(2) 0.3035(2) 0.2573(2)
H6 H 0.5438 0.2622 0.2221
C28 C 0.5547(2) 0.3642(2) 0.3678(2)
H7 H 0.5453 0.3618 0.4062
C29 C 0.3285(3) -0.3201(3) 0.1240(2)
H8 H 0.3594 -0.2790 0.1226
C30 C 0.3022(3) -0.3824(3) 0.0688(2)
C31 C -0.0702(3) -0.0880(3) 0.0270(2)
H9 H -0.0939 -0.0830 0.0592
C32 C 0.4159(2) -0.0541(3) 0.4405(2)
H10 H 0.4341 -0.0109 0.4754
C33 C -0.0750(2) -0.1323(3) -0.0859(2)
H11 H -0.1021 -0.1574 -0.1296
C34 C 0.8869(3) 0.2245(3) 0.2031(2)
C35 C 0.8476(3) -0.1356(3) 0.1509(2)
H12 H 0.8029 -0.1351 0.1321
C36 C 0.7558(3) 0.3666(3) 0.1399(2)
C37 C 0.8330(2) 0.1683(3) 0.4086(2)
H13 H 0.8826 0.1767 0.4179
C38 C 0.6796(3) -0.3293(3) 0.0435(3)
C39 C 0.2310(2) 0.1214(3) 0.3244(2)
H14 H 0.2580 0.1471 0.3681
C40 C 0.7312(3) 0.1769(3) 0.4444(2)
H15 H 0.7111 0.1911 0.4779
C41 C 0.6136(3) -0.3258(3) 0.0193(3)
H16 H 0.6100 -0.2825 0.0281
C42 C 0.3674(3) -0.1795(3) 0.4007(2)
H17 H 0.3535 -0.2206 0.4083
C43 C 0.5963(3) 0.4960(3) 0.4188(3)
C44 C 0.3940(3) -0.1151(3) 0.4517(2)
H18 H 0.3972 -0.1127 0.4940
C45 C 0.3096(3) -0.3177(3) 0.1815(3)
C46 C -0.1105(3) -0.1254(3) -0.0381(2)
H19 H -0.1613 -0.1460 -0.0498
C47 C 0.4800(3) -0.3832(2) -0.0450(2)
C48 C 0.8245(3) 0.2972(3) 0.1682(2)
H20 H 0.7847 0.2566 0.1397
C49 C 0.9050(3) -0.0735(3) 0.1908(3)
C50 C 0.5588(3) -0.4514(3) -0.0302(3)
H21 H 0.5183 -0.4925 -0.0563
C51 C 0.5530(3) -0.3867(3) -0.0180(2)
C52 C 0.1174(3) 0.0733(3) 0.2386(2)
H22 H 0.0688 0.0676 0.2246
C53 C 0.8861(3) 0.2926(3) 0.2049(3)
C54 C 0.8239(3) 0.3616(3) 0.1749(3)
C55 C 0.2610(3) -0.3798(3) 0.1822(3)
H23 H 0.2476 -0.3791 0.2198
C56 C 0.2548(3) -0.4436(3) 0.0716(3)
H24 H 0.2373 -0.4862 0.0361
C57 C 0.1595(3) 0.1162(4) 0.3028(3)
H25 H 0.1401 0.1414 0.3312
C58 C 0.8560(3) 0.2245(5) 0.5296(3)
C59 C 0.8561(3) -0.1993(3) 0.1383(3)
C60 C 0.6848(3) -0.3941(3) 0.0321(3)
H26 H 0.7292 -0.3964 0.0486
C61 C 0.8181(4) 0.2510(5) 0.5786(3)
H27 H 0.7976 0.2812 0.5663
H28 H 0.8530 0.2767 0.6213
H29 H 0.7798 0.2119 0.5792
C62 C 0.9474(3) 0.3547(3) 0.2421(3)
H30 H 0.9891 0.3516 0.2640
C63 C 0.9234(4) -0.1990(4) 0.1653(4)
H31 H 0.9296 -0.2412 0.1553
C64 C 0.9494(4) 0.4197(4) 0.2480(4)
C65 C 0.8849(3) 0.4216(3) 0.2127(3)
H32 H 0.8839 0.4648 0.2151
C66 C 0.6233(3) -0.4550(3) -0.0042(3)
H33 H 0.6259 -0.4984 -0.0109
C67 C 0.9725(3) -0.0741(4) 0.2191(4)
H34 H 1.0115 -0.0322 0.2463
C68 C 0.2339(4) -0.4399(3) 0.1292(3)
H35 H 0.2007 -0.4800 0.1302
C69 C 1.0163(4) 0.4868(4) 0.2892(5)
C70 C 0.5956(4) 0.4855(3) 0.4834(3)
H36 H 0.5509 0.4477 0.4766
H37 H 0.5988 0.5278 0.5161
H38 H 0.6365 0.4745 0.4977
C71 C 1.0117(5) 0.5533(4) 0.2886(5)
H39 H 0.9950 0.5486 0.2442
H40 H 1.0592 0.5907 0.3097
H41 H 0.9780 0.5638 0.3114
C72 C 1.0346(5) 0.4902(5) 0.3610(5)
H42 H 1.0007 0.5039 0.3815
H43 H 1.0835 0.5238 0.3851
H44 H 1.0309 0.4448 0.3602
C73 C 0.9019(6) 0.1934(9) 0.5450(4)
H45 H 0.8738 0.1452 0.5361
H46 H 0.9290 0.2174 0.5905
H47 H 0.9351 0.1958 0.5192
C74 C 0.9810(4) -0.1384(4) 0.2062(4)
H48 H 1.0252 -0.1395 0.2252
C75 C 0.5333(4) 0.5199(4) 0.4037(4)
H49 H 0.5298 0.5261 0.3630
H50 H 0.5426 0.5635 0.4381
H51 H 0.4882 0.4850 0.4005
C76 C 0.6686(4) 0.5538(3) 0.4296(4)
H52 H 0.7083 0.5442 0.4496
H53 H 0.6703 0.5980 0.4577
H54 H 0.6729 0.5557 0.3883
C77 C 0.9157(6) 0.2997(8) 0.5319(5)
H55 H 0.8893 0.3247 0.5169
H56 H 0.9452 0.2893 0.5041
H57 H 0.9465 0.3282 0.5759
C78 C 1.0844(4) 0.4793(5) 0.2662(5)
H58 H 1.0901 0.4382 0.2694
H59 H 1.1277 0.5200 0.2936
H60 H 1.0766 0.4754 0.2217
Cu1A Cu 0.53433(2) -0.08173(3) -0.27680(2)
Cu2A Cu 0.51908(3) -0.15392(3) -0.40049(2)
Cu3A Cu 0.17194(3) -0.07706(3) -0.15898(2)
Cu4A Cu 0.39249(3) -0.30715(3) -0.06333(3)
Cu5A Cu 0.04524(3) -0.14358(3) -0.25025(2)
Cu6A Cu 0.33033(3) -0.44533(3) -0.11837(3)
O1A O 0.63536(15) -0.07164(16) -0.25821(13)
O2A O 0.5408(2) -0.0312(2) -0.17766(15)
O3A O 0.41655(15) -0.15697(16) -0.41113(14)
O4A O 0.26661(17) -0.0128(2) -0.07481(16)
O5A O 0.43191(16) -0.09740(18) -0.30522(14)
O6A O -0.05230(19) -0.2060(2) -0.33083(16)
O7A O 0.62443(15) -0.13458(16) -0.36215(14)
O8A O 0.5003(2) -0.2211(2) -0.49983(16)
O9A O 0.89129(15) 0.07681(17) 0.10112(14)
O10A O 1.00016(16) 0.13841(18) 0.17939(14)
O11A O 0.16586(17) -0.16956(18) -0.16195(15)
O12A O 0.21508(16) -0.09020(18) -0.23188(14)
O13A O 0.54848(17) -0.06654(17) -0.41251(14)
O14A O 0.56025(18) -0.00394(16) -0.30812(14)
O15A O 0.15981(17) 0.00706(17) -0.16679(15)
O16A O 0.48980(18) -0.23688(16) -0.37943(15)
O17A O 0.04926(17) -0.04904(18) -0.24057(16)
O18A O 0.50534(18) -0.17757(16) -0.27368(15)
O19A O 0.29419(18) -0.31101(16) -0.10066(16)
O20A O 0.69842(18) 0.44030(16) 0.03854(16)
O21A O 0.51867(18) 0.32269(17) 0.03421(18)
O22A O 0.57353(18) 0.44052(17) 0.07552(18)
O23A O 0.4125(2) -0.31413(17) -0.14638(16)
O24A O 0.10657(16) -0.1401(2) -0.30843(15)
O25A O 0.24461(19) -0.42788(17) -0.15365(17)
O26A O 0.63811(19) 0.32349(16) -0.01072(16)
O27A O 0.3670(2) -0.43101(17) -0.19064(17)
O28A O 0.0607(2) -0.2263(2) -0.24350(18)
O29A O 0.2732(2) -0.55759(18) -0.17014(19)
O30A O 0.44444(19) -0.19681(17) -0.01324(18)
N1A N 0.6686(2) 0.2508(2) -0.2865(2)
N2A N 0.9578(2) 0.0178(2) -0.11293(19)
N3A N 0.8891(2) 0.0038(2) -0.12813(18)
N4A N 0.6600(2) 0.2507(2) -0.2328(2)
N5A N 0.2009(3) 0.2661(3) -0.0988(3)
N6A N 0.2618(3) 0.2637(3) -0.0820(2)
C1A C 0.6165(2) 0.1211(3) -0.3261(2)
H1A H 0.6202 0.1233 -0.2838
C2A C 0.8524(2) -0.0396(3) -0.1959(2)
C3A C 0.6382(3) 0.1818(3) -0.3370(2)
C4A C 0.1755(2) -0.1197(3) -0.2900(2)
C5A C 0.1015(2) 0.0048(3) -0.2009(2)
C6A C 0.9943(2) 0.0579(3) -0.0442(2)
C7A C 0.9605(2) 0.1068(2) 0.1202(2)
C8A C 0.7797(2) -0.0475(2) -0.2168(2)
H2A H 0.7592 -0.0251 -0.1874
C9A C 0.6598(2) -0.0987(2) -0.30235(19)
C10A C 0.4593(2) -0.3013(2) -0.3149(2)
C11A C 0.3939(2) -0.1322(2) -0.36467(19)
C12A C 0.6762(2) 0.3820(2) -0.0089(2)
C13A C 0.4871(2) -0.2334(2) -0.3231(2)
C14A C 0.5645(2) -0.0096(2) -0.3649(2)
C15A C 0.3137(2) -0.1437(2) -0.37926(19)
C16A C 0.3968(3) -0.3714(2) -0.1918(2)
C17A C 0.2846(2) -0.1221(2) -0.3287(2)
H3A H 0.3146 -0.0993 -0.2857
C18A C 0.7381(2) -0.0886(2) -0.2810(2)
C19A C 0.2113(2) -0.1349(3) -0.3429(2)
C20A C 0.9585(2) 0.0655(3) 0.0036(2)
H4A H 0.9077 0.0461 -0.0084
C21A C 0.5892(2) 0.0568(2) -0.3774(2)
C22A C 0.9982(2) 0.1014(2) 0.0682(2)
C23A C 0.4164(3) -0.3681(2) -0.2525(2)
C24A C 0.4034(3) -0.4310(2) -0.3053(2)
H5A H 0.3852 -0.4739 -0.3011
C25A C 0.4178(2) -0.4294(2) -0.3638(2)
C26A C 0.1954(3) -0.1888(3) -0.4592(2)
C27A C 0.4458(2) -0.3035(2) -0.2573(2)
H6A H 0.4562 -0.2622 -0.2221
C28A C 0.4453(2) -0.3642(2) -0.3678(2)
H7A H 0.4547 -0.3618 -0.4062
C29A C 0.6715(3) 0.3201(3) -0.1240(2)
H8A H 0.6406 0.2790 -0.1226
C30A C 0.6978(3) 0.3824(3) -0.0688(2)
C31A C 1.0702(3) 0.0880(3) -0.0270(2)
H9A H 1.0939 0.0830 -0.0592
C32A C 0.5841(2) 0.0541(3) -0.4405(2)
H10A H 0.5659 0.0109 -0.4754
C33A C 1.0750(2) 0.1323(3) 0.0859(2)
H11A H 1.1021 0.1574 0.1296
C34A C 0.1131(3) -0.2245(3) -0.2031(2)
C35A C 0.1524(3) 0.1356(3) -0.1509(2)
H12A H 0.1971 0.1351 -0.1321
C36A C 0.2442(3) -0.3666(3) -0.1399(2)
C37A C 0.1670(2) -0.1683(3) -0.4086(2)
H13A H 0.1174 -0.1767 -0.4179
C38A C 0.3204(3) 0.3293(3) -0.0435(3)
C39A C 0.7690(2) -0.1214(3) -0.3244(2)
H14A H 0.7420 -0.1471 -0.3681
C40A C 0.2688(3) -0.1769(3) -0.4444(2)
H15A H 0.2889 -0.1911 -0.4779
C41A C 0.3864(3) 0.3258(3) -0.0193(3)
H16A H 0.3900 0.2825 -0.0281
C42A C 0.6326(3) 0.1795(3) -0.4007(2)
H17A H 0.6465 0.2206 -0.4083
C43A C 0.4037(3) -0.4960(3) -0.4188(3)
C44A C 0.6060(3) 0.1151(3) -0.4517(2)
H18A H 0.6028 0.1127 -0.4940
C45A C 0.6904(3) 0.3177(3) -0.1815(3)
C46A C 1.1105(3) 0.1254(3) 0.0381(2)
H19A H 1.1613 0.1460 0.0498
C47A C 0.5200(3) 0.3832(2) 0.0450(2)
C48A C 0.1755(3) -0.2972(3) -0.1682(2)
H20A H 0.2153 -0.2566 -0.1397
C49A C 0.0950(3) 0.0735(3) -0.1908(3)
C50A C 0.4412(3) 0.4514(3) 0.0302(3)
H21A H 0.4817 0.4925 0.0563
C51A C 0.4470(3) 0.3867(3) 0.0180(2)
C52A C 0.8826(3) -0.0733(3) -0.2386(2)
H22A H 0.9312 -0.0676 -0.2246
C53A C 0.1139(3) -0.2926(3) -0.2049(3)
C54A C 0.1761(3) -0.3616(3) -0.1749(3)
C55A C 0.7390(3) 0.3798(3) -0.1822(3)
H23A H 0.7524 0.3791 -0.2198
C56A C 0.7452(3) 0.4436(3) -0.0716(3)
H24A H 0.7627 0.4862 -0.0361
C57A C 0.8405(3) -0.1162(4) -0.3028(3)
H25A H 0.8599 -0.1414 -0.3312
C58A C 0.1440(3) -0.2245(5) -0.5296(3)
C59A C 0.1439(3) 0.1993(3) -0.1383(3)
C60A C 0.3152(3) 0.3941(3) -0.0321(3)
H26A H 0.2708 0.3964 -0.0486
C61A C 0.1819(4) -0.2510(5) -0.5786(3)
H27A H 0.2024 -0.2812 -0.5663
H28A H 0.1470 -0.2767 -0.6213
H29A H 0.2202 -0.2119 -0.5792
C62A C 0.0526(3) -0.3547(3) -0.2421(3)
H30A H 0.0109 -0.3516 -0.2640
C63A C 0.0766(4) 0.1990(4) -0.1653(4)
H31A H 0.0704 0.2412 -0.1553
C64A C 0.0506(4) -0.4197(4) -0.2480(4)
C65A C 0.1151(3) -0.4216(3) -0.2127(3)
H32A H 0.1161 -0.4648 -0.2151
C66A C 0.3767(3) 0.4550(3) 0.0042(3)
H33A H 0.3741 0.4984 0.0109
C67A C 0.0275(3) 0.0741(4) -0.2191(4)
H34A H -0.0115 0.0322 -0.2463
C68A C 0.7661(4) 0.4399(3) -0.1292(3)
H35A H 0.7993 0.4800 -0.1302
C69A C -0.0163(4) -0.4868(4) -0.2892(5)
C70A C 0.4044(4) -0.4855(3) -0.4834(3)
H36A H 0.4491 -0.4477 -0.4766
H37A H 0.4012 -0.5278 -0.5161
H38A H 0.3635 -0.4745 -0.4977
C71A C -0.0117(5) -0.5533(4) -0.2886(5)
H39A H 0.0050 -0.5486 -0.2442
H40A H -0.0592 -0.5907 -0.3097
H41A H 0.0220 -0.5638 -0.3114
C72A C -0.0346(5) -0.4902(5) -0.3610(5)
H42A H -0.0007 -0.5039 -0.3815
H43A H -0.0835 -0.5238 -0.3851
H44A H -0.0309 -0.4448 -0.3602
C73A C 0.0981(6) -0.1934(9) -0.5450(4)
H45A H 0.1262 -0.1452 -0.5361
H46A H 0.0710 -0.2174 -0.5905
H47A H 0.0649 -0.1958 -0.5192
C74A C 0.0190(4) 0.1384(4) -0.2062(4)
H48A H -0.0252 0.1395 -0.2252
C75A C 0.4667(4) -0.5199(4) -0.4037(4)
H49A H 0.4702 -0.5261 -0.3630
H50A H 0.4574 -0.5635 -0.4381
H51A H 0.5118 -0.4850 -0.4005
C76A C 0.3314(4) -0.5538(3) -0.4296(4)
H52A H 0.2917 -0.5442 -0.4496
H53A H 0.3297 -0.5980 -0.4577
H54A H 0.3271 -0.5557 -0.3883
C77A C 0.0843(6) -0.2997(8) -0.5319(5)
H55A H 0.1107 -0.3247 -0.5169
H56A H 0.0548 -0.2893 -0.5041
H57A H 0.0535 -0.3282 -0.5759
C78A C -0.0844(4) -0.4793(5) -0.2662(5)
H58A H -0.0901 -0.4382 -0.2694
H59A H -0.1277 -0.5200 -0.2936
H60A H -0.0766 -0.4754 -0.2217
loop_
_geom_bond_atom_site_label_1
_geom_bond_atom_site_label_2
_geom_bond_site_symmetry_1
_geom_bond_site_symmetry_2
Cu1 O1 1_555 1_555
Cu2 O3 1_555 1_555
Cu3 O4 1_555 1_555
Cu4 O19 1_555 1_555
Cu5 O6 1_555 1_555
Cu6 O25 1_555 1_555
O1 C9 1_555 1_555
O2 Cu1 1_555 1_555
O3 C11 1_555 1_555
O5 Cu1 1_555 1_555
O7 Cu2 1_555 1_555
O8 Cu2 1_555 1_555
O9 C7 1_555 1_555
O10 C7 1_555 1_555
O11 Cu3 1_555 1_555
O12 Cu3 1_555 1_555
O13 Cu2 1_555 1_555
O14 Cu1 1_555 1_555
O15 Cu3 1_555 1_555
O16 Cu2 1_555 1_555
O17 Cu5 1_555 1_555
O18 Cu1 1_555 1_555
O19 C36 1_555 1_555
O20 C12 1_555 1_555
O21 C47 1_555 1_555
O22 C47 1_555 1_555
O23 Cu4 1_555 1_555
O24 Cu5 1_555 1_555
O25 C36 1_555 1_555
O26 C12 1_555 1_555
O27 Cu6 1_555 1_555
O28 Cu5 1_555 1_555
O29 Cu6 1_555 1_555
O30 Cu4 1_555 1_555
N1 N4 1_555 1_555
N2 N3 1_555 1_555
N3 C2 1_555 1_555
N4 C45 1_555 1_555
N5 N6 1_555 1_555
N6 C38 1_555 1_555
C1 H1 1_555 1_555
C2 C8 1_555 1_555
C3 N1 1_555 1_555
C4 O12 1_555 1_555
C5 O15 1_555 1_555
C6 N2 1_555 1_555
C7 C22 1_555 1_555
C8 H2 1_555 1_555
C9 O7 1_555 1_555
C10 C13 1_555 1_555
C11 O5 1_555 1_555
C12 C30 1_555 1_555
C13 O16 1_555 1_555
C14 O13 1_555 1_555
C15 C11 1_555 1_555
C16 O23 1_555 1_555
C17 C15 1_555 1_555
H3 C17 1_555 1_555
C18 C8 1_555 1_555
C19 C4 1_555 1_555
C20 C6 1_555 1_555
H4 C20 1_555 1_555
C21 C1 1_555 1_555
C22 C20 1_555 1_555
C23 C16 1_555 1_555
C24 C23 1_555 1_555
H5 C24 1_555 1_555
C25 C24 1_555 1_555
C26 C37 1_555 1_555
C27 C10 1_555 1_555
H6 C27 1_555 1_555
C28 C10 1_555 1_555
H7 C28 1_555 1_555
C29 H8 1_555 1_555
C30 C29 1_555 1_555
C31 C6 1_555 1_555
H9 C31 1_555 1_555
C32 C21 1_555 1_555
H10 C32 1_555 1_555
C33 C22 1_555 1_555
H11 C33 1_555 1_555
C34 O11 1_555 1_555
C35 H12 1_555 1_555
C36 C54 1_555 1_555
C37 C19 1_555 1_555
H13 C37 1_555 1_555
C38 C41 1_555 1_555
C39 C18 1_555 1_555
H14 C39 1_555 1_555
C40 C15 1_555 1_555
H15 C40 1_555 1_555
C41 H16 1_555 1_555
C42 C3 1_555 1_555
H17 C42 1_555 1_555
C43 C25 1_555 1_555
C44 C32 1_555 1_555
H18 C44 1_555 1_555
C45 C29 1_555 1_555
C46 C31 1_555 1_555
H19 C46 1_555 1_555
C47 C51 1_555 1_555
C48 H20 1_555 1_555
C49 C5 1_555 1_555
C50 H21 1_555 1_555
C51 C41 1_555 1_555
C52 C2 1_555 1_555
H22 C52 1_555 1_555
C53 C34 1_555 1_555
C54 C48 1_555 1_555
C55 C45 1_555 1_555
H23 C55 1_555 1_555
C56 C30 1_555 1_555
H24 C56 1_555 1_555
C57 C39 1_555 1_555
H25 C57 1_555 1_555
C58 C26 1_555 1_555
C59 N5 1_555 1_555
C60 C38 1_555 1_555
H26 C60 1_555 1_555
C61 C58 1_555 1_555
H27 C61 1_555 1_555
H28 C61 1_555 1_555
H29 C61 1_555 1_555
C62 C53 1_555 1_555
H30 C62 1_555 1_555
C63 C59 1_555 1_555
H31 C63 1_555 1_555
C64 C62 1_555 1_555
C65 C54 1_555 1_555
H32 C65 1_555 1_555
C66 C50 1_555 1_555
H33 C66 1_555 1_555
C67 C49 1_555 1_555
H34 C67 1_555 1_555
C68 C55 1_555 1_555
H35 C68 1_555 1_555
C69 C64 1_555 1_555
C70 C43 1_555 1_555
H36 C70 1_555 1_555
H37 C70 1_555 1_555
H38 C70 1_555 1_555
C71 C69 1_555 1_555
H39 C71 1_555 1_555
H40 C71 1_555 1_555
H41 C71 1_555 1_555
C72 C69 1_555 1_555
H42 C72 1_555 1_555
H43 C72 1_555 1_555
H44 C72 1_555 1_555
C73 C58 1_555 1_555
H45 C73 1_555 1_555
H46 C73 1_555 1_555
H47 C73 1_555 1_555
C74 C63 1_555 1_555
H48 C74 1_555 1_555
C75 C43 1_555 1_555
H49 C75 1_555 1_555
H50 C75 1_555 1_555
H51 C75 1_555 1_555
C76 C43 1_555 1_555
H52 C76 1_555 1_555
H53 C76 1_555 1_555
H54 C76 1_555 1_555
C77 C58 1_555 1_555
H55 C77 1_555 1_555
H56 C77 1_555 1_555
H57 C77 1_555 1_555
C78 C69 1_555 1_555
H58 C78 1_555 1_555
H59 C78 1_555 1_555
H60 C78 1_555 1_555
Cu1A O1A 1_555 1_555
Cu2A O3A 1_555 1_555
Cu3A O9 1_555 1_555
Cu4A O21 1_555 1_555
Cu5A O10 1_555 1_555
Cu6A O20 1_555 1_555
O1A C9A 1_555 1_555
O2A Cu1A 1_555 1_555
O3A C11A 1_555 1_555
O4A Cu3A 1_555 1_555
O5A Cu1A 1_555 1_555
O6A Cu5A 1_555 1_555
O7A Cu2A 1_555 1_555
O8A Cu2A 1_555 1_555
O9A Cu3 1_555 1_555
O10A Cu5 1_555 1_555
O11A Cu3A 1_555 1_555
O12A Cu3A 1_555 1_555
O13A Cu2A 1_555 1_555
O14A Cu1A 1_555 1_555
O15A Cu3A 1_555 1_555
O16A Cu2A 1_555 1_555
O17A Cu5A 1_555 1_555
O18A Cu1A 1_555 1_555
O19A Cu4A 1_555 1_555
O20A Cu6 1_555 1_555
O21A Cu4 1_555 1_555
O22A Cu6 1_555 1_555
O23A Cu4A 1_555 1_555
O24A Cu5A 1_555 1_555
O25A Cu6A 1_555 1_555
O26A Cu4 1_555 1_555
O27A Cu6A 1_555 1_555
O28A Cu5A 1_555 1_555
O29A Cu6A 1_555 1_555
O30A Cu4A 1_555 1_555
N1A N4A 1_555 1_555
N2A N3A 1_555 1_555
N3A C2A 1_555 1_555
N4A C45A 1_555 1_555
N5A N6A 1_555 1_555
N6A C38A 1_555 1_555
C1A H1A 1_555 1_555
C2A C8A 1_555 1_555
C3A N1A 1_555 1_555
C4A O12A 1_555 1_555
C5A O15A 1_555 1_555
C6A N2A 1_555 1_555
C7A O9A 1_555 1_555
C8A H2A 1_555 1_555
C9A O7A 1_555 1_555
C10A C13A 1_555 1_555
C11A O5A 1_555 1_555
C12A O20A 1_555 1_555
C13A O16A 1_555 1_555
C14A O13A 1_555 1_555
C15A C11A 1_555 1_555
C16A O23A 1_555 1_555
C17A C15A 1_555 1_555
H3A C17A 1_555 1_555
C18A C8A 1_555 1_555
C19A C4A 1_555 1_555
C20A C6A 1_555 1_555
H4A C20A 1_555 1_555
C21A C1A 1_555 1_555
C22A C7A 1_555 1_555
C23A C16A 1_555 1_555
C24A C23A 1_555 1_555
H5A C24A 1_555 1_555
C25A C24A 1_555 1_555
C26A C37A 1_555 1_555
C27A C10A 1_555 1_555
H6A C27A 1_555 1_555
C28A C10A 1_555 1_555
H7A C28A 1_555 1_555
C29A H8A 1_555 1_555
C30A C12A 1_555 1_555
C31A C6A 1_555 1_555
H9A C31A 1_555 1_555
C32A C21A 1_555 1_555
H10A C32A 1_555 1_555
C33A C22A 1_555 1_555
H11A C33A 1_555 1_555
C34A O11A 1_555 1_555
C35A H12A 1_555 1_555
C36A O19A 1_555 1_555
C37A C19A 1_555 1_555
H13A C37A 1_555 1_555
C38A C41A 1_555 1_555
C39A C18A 1_555 1_555
H14A C39A 1_555 1_555
C40A C15A 1_555 1_555
H15A C40A 1_555 1_555
C41A H16A 1_555 1_555
C42A C3A 1_555 1_555
H17A C42A 1_555 1_555
C43A C25A 1_555 1_555
C44A C32A 1_555 1_555
H18A C44A 1_555 1_555
C45A C29A 1_555 1_555
C46A C31A 1_555 1_555
H19A C46A 1_555 1_555
C47A O21A 1_555 1_555
C48A H20A 1_555 1_555
C49A C5A 1_555 1_555
C50A H21A 1_555 1_555
C51A C41A 1_555 1_555
C52A C2A 1_555 1_555
H22A C52A 1_555 1_555
C53A C34A 1_555 1_555
C54A C36A 1_555 1_555
C55A C45A 1_555 1_555
H23A C55A 1_555 1_555
C56A C30A 1_555 1_555
H24A C56A 1_555 1_555
C57A C39A 1_555 1_555
H25A C57A 1_555 1_555
C58A C26A 1_555 1_555
C59A N5A 1_555 1_555
C60A C38A 1_555 1_555
H26A C60A 1_555 1_555
C61A C58A 1_555 1_555
H27A C61A 1_555 1_555
H28A C61A 1_555 1_555
H29A C61A 1_555 1_555
C62A C53A 1_555 1_555
H30A C62A 1_555 1_555
C63A C59A 1_555 1_555
H31A C63A 1_555 1_555
C64A C62A 1_555 1_555
C65A C54A 1_555 1_555
H32A C65A 1_555 1_555
C66A C50A 1_555 1_555
H33A C66A 1_555 1_555
C67A C49A 1_555 1_555
H34A C67A 1_555 1_555
C68A C55A 1_555 1_555
H35A C68A 1_555 1_555
C69A C64A 1_555 1_555
C70A C43A 1_555 1_555
H36A C70A 1_555 1_555
H37A C70A 1_555 1_555
H38A C70A 1_555 1_555
C71A C69A 1_555 1_555
H39A C71A 1_555 1_555
H40A C71A 1_555 1_555
H41A C71A 1_555 1_555
C72A C69A 1_555 1_555
H42A C72A 1_555 1_555
H43A C72A 1_555 1_555
H44A C72A 1_555 1_555
C73A C58A 1_555 1_555
H45A C73A 1_555 1_555
H46A C73A 1_555 1_555
H47A C73A 1_555 1_555
C74A C63A 1_555 1_555
H48A C74A 1_555 1_555
C75A C43A 1_555 1_555
H49A C75A 1_555 1_555
H50A C75A 1_555 1_555
H51A C75A 1_555 1_555
C76A C43A 1_555 1_555
H52A C76A 1_555 1_555
H53A C76A 1_555 1_555
H54A C76A 1_555 1_555
C77A C58A 1_555 1_555
H55A C77A 1_555 1_555
H56A C77A 1_555 1_555
H57A C77A 1_555 1_555
C78A C69A 1_555 1_555
H58A C78A 1_555 1_555
H59A C78A 1_555 1_555
H60A C78A 1_555 1_555
O14 C14 1_555 1_555
O17 C5 1_555 1_555
O18 C13 1_555 1_555
O22 Cu6A 1_555 1_555
O24 C4 1_555 1_555
O26 Cu4A 1_555 1_555
O27 C16 1_555 1_555
O28 C34 1_555 1_555
C1 C3 1_555 1_555
C9 C18 1_555 1_555
C14 C21 1_555 1_555
C17 C19 1_555 1_555
C23 C27 1_555 1_555
C25 C28 1_555 1_555
C26 C40 1_555 1_555
C33 C46 1_555 1_555
C35 C49 1_555 1_555
C35 C59 1_555 1_555
C42 C44 1_555 1_555
C48 C53 1_555 1_555
C50 C51 1_555 1_555
C52 C57 1_555 1_555
C56 C68 1_555 1_555
C60 C66 1_555 1_555
C64 C65 1_555 1_555
C67 C74 1_555 1_555
O10A C7A 1_555 1_555
O14A C14A 1_555 1_555
O17A C5A 1_555 1_555
O18A C13A 1_555 1_555
O22A C47A 1_555 1_555
O24A C4A 1_555 1_555
O25A C36A 1_555 1_555
O26A C12A 1_555 1_555
O27A C16A 1_555 1_555
O28A C34A 1_555 1_555
C1A C3A 1_555 1_555
C9A C18A 1_555 1_555
C14A C21A 1_555 1_555
C17A C19A 1_555 1_555
C20A C22A 1_555 1_555
C23A C27A 1_555 1_555
C25A C28A 1_555 1_555
C26A C40A 1_555 1_555
C29A C30A 1_555 1_555
C33A C46A 1_555 1_555
C35A C49A 1_555 1_555
C35A C59A 1_555 1_555
C42A C44A 1_555 1_555
C47A C51A 1_555 1_555
C48A C53A 1_555 1_555
C48A C54A 1_555 1_555
C50A C51A 1_555 1_555
C52A C57A 1_555 1_555
C56A C68A 1_555 1_555
C60A C66A 1_555 1_555
C64A C65A 1_555 1_555
C67A C74A 1_555 1_555

#END
