
#######################################################################
#
#                 Cambridge Crystallographic Data Centre
#                                CCDC 
#
#######################################################################
#
# If this CIF has been generated from an entry in the Cambridge 
# Structural Database, then it will include bibliographic, chemical, 
# crystal, experimental, refinement or atomic coordinate data resulting 
# from the CCDC's data processing and validation procedures.
#
#######################################################################

data_ZAZWEC
_chemical_formula_moiety         
'C68 H92 I2 N4 P4 Pd2 6+,6(C1 F3 O3 S1 1-),2(C3 H6 O1),3(H2 O1)'
_chemical_name_systematic        
"bis(\m~2~-bis(4-(4'-Pyridyl)phenyl)iodonium)-tetrakis(triethylphosphine)-di-palladium(ii) hexakis(trifluoromethanesulfonate) acetone solvate trihydrate"
_symmetry_cell_setting           monoclinic
_symmetry_space_group_name_H-M   'C 2/c'
_symmetry_Int_Tables_number      15
_space_group_name_Hall           '-C 2yn'
loop_
_symmetry_equiv_pos_site_id
_symmetry_equiv_pos_as_xyz
1 x,y,z
2 -x,y,1/2-z
3 1/2+x,1/2+y,z
4 1/2-x,1/2+y,1/2-z
5 -x,-y,-z
6 x,-y,1/2+z
7 1/2-x,1/2-y,-z
8 1/2+x,1/2-y,1/2+z
_cell_length_a                   25.395(8)
_cell_length_b                   9.501(3)
_cell_length_c                   49.072(10)
_cell_angle_alpha                90
_cell_angle_beta                 93.42(2)
_cell_angle_gamma                90
_cell_volume                     11818.9
_chemical_melting_point          165-167deg.C(dec)
_cell_formula_units_Z            4
loop_
_atom_site_label
_atom_site_type_symbol
_atom_site_fract_x
_atom_site_fract_y
_atom_site_fract_z
S1 S 0.6226(2) 0.7015(6) 0.6219(1)
F1 F 0.5771(6) 0.802(1) 0.6642(3)
F2 F 0.5262(6) 0.676(2) 0.6351(3)
F3 F 0.5815(7) 0.580(2) 0.6630(4)
O1 O 0.6102(6) 0.834(2) 0.6091(3)
O2 O 0.6725(7) 0.696(2) 0.6376(4)
O3 O 0.6140(6) 0.578(1) 0.6055(3)
C35 C 0.5769(9) 0.690(3) 0.6472(5)
S2 S 0.3996(3) 0.818(1) 0.5577(2)
F4 F 0.4233(8) 0.591(2) 0.5828(5)
F5 F 0.466(1) 0.611(3) 0.5490(5)
F6 F 0.4831(9) 0.733(3) 0.5832(5)
O4 O 0.3600(9) 0.744(3) 0.5400(5)
O5 O 0.3785(8) 0.873(3) 0.5817(4)
O6 O 0.4308(8) 0.929(3) 0.5413(5)
C36 C 0.444(1) 0.674(4) 0.5671(8)
S3 S 0.3380(4) 0.770(1) 0.6890(2)
F7 F 0.432(1) 0.677(3) 0.6857(8)
F8 F 0.4205(9) 0.877(3) 0.6687(6)
F9 F 0.397(1) 0.699(4) 0.6523(5)
O7 O 0.357(1) 0.848(3) 0.7137(8)
O8 O 0.306(1) 0.869(3) 0.6742(6)
O9 O 0.323(1) 0.624(2) 0.6940(6)
C37 C 0.401(2) 0.768(5) 0.672(1)
O10 O 0.159(2) 0.243(6) 0.487(1)
C38 C 0.198(2) 0.426(5) 0.4740(7)
C39 C 0.173(2) 0.305(5) 0.470(1)
C40 C 0.140(2) 0.273(5) 0.447(1)
O11 O 0.3569(7) 0.233(2) 0.2835(4)
C41 C 0.370(2) 0.442(4) 0.2602(9)
C42 C 0.389(1) 0.304(4) 0.2714(6)
C43 C 0.442(1) 0.222(5) 0.2683(9)
I1 I 0.23812(6) 0.2381(2) 0.68731(3)
Pd1 Pd 0.62559(6) 0.1813(2) 0.59171(4)
P1 P 0.5959(3) 0.1894(8) 0.5469(1)
P2 P 0.7119(2) 0.1509(8) 0.5830(2)
N1 N 0.5489(6) 0.198(2) 0.6040(4)
N2 N 0.6460(8) 0.200(2) 0.6340(3)
C1 C 0.5203(8) 0.083(2) 0.6076(5)
C2 C 0.4688(8) 0.090(3) 0.6185(4)
C3 C 0.4501(8) 0.221(2) 0.6257(4)
C4 C 0.4811(8) 0.328(2) 0.6222(5)
C5 C 0.5303(9) 0.319(3) 0.6115(5)
C6 C 0.3972(9) 0.224(2) 0.6390(4)
C7 C 0.3577(8) 0.127(3) 0.6329(5)
C8 C 0.3128(8) 0.137(3) 0.6470(5)
C9 C 0.3074(8) 0.234(3) 0.6668(4)
C10 C 0.3438(8) 0.335(2) 0.6728(5)
C11 C 0.3910(9) 0.328(3) 0.6584(5)
C12 C 0.6420(9) 0.089(3) 0.6501(6)
C13 C 0.6534(9) 0.089(2) 0.6775(4)
C14 C 0.6691(8) 0.217(2) 0.6895(4)
C15 C 0.6714(9) 0.329(2) 0.6733(5)
C16 C 0.6610(9) 0.318(2) 0.6463(4)
C17 C 0.6882(8) 0.229(2) 0.7196(5)
C18 C 0.6675(9) 0.139(2) 0.7389(5)
C19 C 0.6874(9) 0.148(2) 0.7654(5)
C20 C 0.2718(8) 0.240(2) 0.7281(4)
C21 C 0.257(1) 0.331(3) 0.7454(5)
C22 C 0.7270(9) 0.314(2) 0.7267(5)
C23 C 0.529(1) 0.251(4) 0.5437(5)
C24 C 0.506(1) 0.279(5) 0.5179(7)
C25 C 0.5950(9) 0.030(3) 0.5283(6)
C26 C 0.568(1) -0.100(4) 0.5435(6)
C27 C 0.629(1) 0.317(3) 0.5263(5)
C28 C 0.620(2) 0.455(4) 0.5374(6)
C29 C 0.727(1) 0.036(4) 0.5575(5)
C30 C 0.711(1) -0.128(4) 0.567(1)
C31 C 0.7433(9) 0.318(3) 0.5766(6)
C32 C 0.7433(9) 0.421(3) 0.5942(7)
C33 C 0.7460(9) 0.072(3) 0.6133(7)
C34 C 0.805(1) 0.043(4) 0.6106(8)
C20A C 0.7282(8) 0.240(2) 0.7719(4)
C19A C 0.3126(9) 0.148(2) 0.7346(5)
C22A C 0.2730(9) 0.314(2) 0.7733(5)
C21A C 0.743(1) 0.331(3) 0.7546(5)
I1A I 0.76188(6) 0.2381(2) 0.81269(3)
C18A C 0.3325(9) 0.139(2) 0.7611(5)
C17A C 0.3118(8) 0.229(2) 0.7804(5)
C9A C 0.6926(8) 0.234(3) 0.8332(4)
C14A C 0.3309(8) 0.217(2) 0.8105(4)
C8A C 0.6872(8) 0.137(3) 0.8530(5)
C10A C 0.6562(8) 0.335(2) 0.8272(5)
C13A C 0.3466(9) 0.089(2) 0.8225(4)
C15A C 0.3286(9) 0.329(2) 0.8267(5)
C7A C 0.6423(8) 0.127(3) 0.8671(5)
C11A C 0.6090(9) 0.328(3) 0.8416(5)
C12A C 0.3580(9) 0.089(3) 0.8499(6)
C16A C 0.3390(9) 0.318(2) 0.8537(4)
C6A C 0.6028(9) 0.224(2) 0.8610(4)
N2A N 0.3540(8) 0.200(2) 0.8660(3)
C3A C 0.5499(8) 0.221(2) 0.8743(4)
Pd1A Pd 0.37441(6) 0.1813(2) 0.90829(4)
C2A C 0.5312(8) 0.090(3) 0.8815(4)
C4A C 0.5189(8) 0.328(2) 0.8778(5)
P1A P 0.4041(3) 0.1894(8) 0.9531(1)
P2A P 0.2881(2) 0.1509(8) 0.9170(2)
N1A N 0.4511(6) 0.198(2) 0.8960(4)
C1A C 0.4797(8) 0.083(2) 0.8924(5)
C5A C 0.4697(9) 0.319(3) 0.8885(5)
C23A C 0.471(1) 0.251(4) 0.9563(5)
C25A C 0.4050(9) 0.030(3) 0.9717(6)
C27A C 0.371(1) 0.317(3) 0.9737(5)
C29A C 0.273(1) 0.036(4) 0.9425(5)
C31A C 0.2567(9) 0.318(3) 0.9234(6)
C33A C 0.2540(9) 0.072(3) 0.8867(7)
C24A C 0.494(1) 0.279(5) 0.9821(7)
C26A C 0.432(1) -0.100(4) 0.9565(6)
C28A C 0.380(2) 0.455(4) 0.9626(6)
C30A C 0.289(1) -0.128(4) 0.933(1)
C32A C 0.2567(9) 0.421(3) 0.9058(7)
C34A C 0.195(1) 0.043(4) 0.8894(8)
loop_
_geom_bond_atom_site_label_1
_geom_bond_atom_site_label_2
_geom_bond_site_symmetry_1
_geom_bond_site_symmetry_2
I1 C9 1_555 1_555
Pd1 P1 1_555 1_555
P1 C23 1_555 1_555
P2 Pd1 1_555 1_555
N1 Pd1 1_555 1_555
N2 Pd1 1_555 1_555
C1 N1 1_555 1_555
C2 C1 1_555 1_555
C3 C2 1_555 1_555
C4 C3 1_555 1_555
C5 N1 1_555 1_555
C6 C3 1_555 1_555
C7 C6 1_555 1_555
C8 C7 1_555 1_555
C9 C8 1_555 1_555
C10 C9 1_555 1_555
C11 C6 1_555 1_555
C12 N2 1_555 1_555
C13 C12 1_555 1_555
C14 C13 1_555 1_555
C15 C14 1_555 1_555
C16 N2 1_555 1_555
C17 C14 1_555 1_555
C18 C17 1_555 1_555
C19 C18 1_555 1_555
C20 I1 1_555 1_555
C21 C20 1_555 1_555
C22 C17 1_555 1_555
C23 C24 1_555 1_555
C25 P1 1_555 1_555
C26 C25 1_555 1_555
C27 P1 1_555 1_555
C28 C27 1_555 1_555
C29 P2 1_555 1_555
C30 C29 1_555 1_555
C31 P2 1_555 1_555
C32 C31 1_555 1_555
C33 P2 1_555 1_555
C34 C33 1_555 1_555
S1 O1 1_555 1_555
S2 O4 1_555 1_555
S3 O7 1_555 1_555
F1 C35 1_555 1_555
F2 C35 1_555 1_555
F3 C35 1_555 1_555
F4 C36 1_555 1_555
F5 C36 1_555 1_555
F6 C36 1_555 1_555
F7 C37 1_555 1_555
F8 C37 1_555 1_555
F9 C37 1_555 1_555
O2 S1 1_555 1_555
O3 S1 1_555 1_555
O5 S2 1_555 1_555
O6 S2 1_555 1_555
O8 S3 1_555 1_555
O9 S3 1_555 1_555
O10 C39 1_555 1_555
O11 C42 1_555 1_555
C35 S1 1_555 1_555
C36 S2 1_555 1_555
C37 S3 1_555 1_555
C38 C39 1_555 1_555
C39 C40 1_555 1_555
C41 C42 1_555 1_555
C42 C43 1_555 1_555
C20A C19 1_555 1_555
C19A C20 1_555 1_555
C22A C21 1_555 1_555
C21A C22 1_555 1_555
I1A C20A 1_555 1_555
C18A C19A 1_555 1_555
C17A C22A 1_555 1_555
C9A I1A 1_555 1_555
C14A C17A 1_555 1_555
C8A C9A 1_555 1_555
C10A C9A 1_555 1_555
C13A C14A 1_555 1_555
C15A C14A 1_555 1_555
C7A C8A 1_555 1_555
C11A C10A 1_555 1_555
C12A C13A 1_555 1_555
C16A C15A 1_555 1_555
C6A C7A 1_555 1_555
N2A C12A 1_555 1_555
C3A C6A 1_555 1_555
Pd1A N2A 1_555 1_555
C2A C3A 1_555 1_555
C4A C3A 1_555 1_555
P1A Pd1A 1_555 1_555
P2A Pd1A 1_555 1_555
N1A Pd1A 1_555 1_555
C1A C2A 1_555 1_555
C5A C4A 1_555 1_555
C23A P1A 1_555 1_555
C25A P1A 1_555 1_555
C27A P1A 1_555 1_555
C29A P2A 1_555 1_555
C31A P2A 1_555 1_555
C33A P2A 1_555 1_555
C24A C23A 1_555 1_555
C26A C25A 1_555 1_555
C28A C27A 1_555 1_555
C30A C29A 1_555 1_555
C32A C31A 1_555 1_555
C34A C33A 1_555 1_555
C4 C5 1_555 1_555
C10 C11 1_555 1_555
C15 C16 1_555 1_555
C20A C21A 1_555 1_555
C18A C17A 1_555 1_555
C11A C6A 1_555 1_555
C16A N2A 1_555 1_555
N1A C1A 1_555 1_555
N1A C5A 1_555 1_555

#END
