
#######################################################################
#
#                 Cambridge Crystallographic Data Centre
#                                CCDC 
#
#######################################################################
#
# If this CIF has been generated from an entry in the Cambridge 
# Structural Database, then it will include bibliographic, chemical, 
# crystal, experimental, refinement or atomic coordinate data resulting 
# from the CCDC's data processing and validation procedures.
#
#######################################################################

data_ZECHIB
_chemical_formula_moiety         'C68 H18 F20 N12 Ni2,0.25(C6 H14)'
_chemical_name_systematic        
'(\m-3,24-diimino-9,18,30,39-tetrakis(pentafluorophenyl)-4,25,43,44,45,47,48,49-octaazaundecacyclo[38.2.1.1^2,5^.1^10,13^.1^14,17^.1^19,22^.1^23,26^.1^31,34^.1^35,38^.0^4,8^.0^25,29^]pentaconta-1,5(50),6,8,10,12,14(48),15,17,19,21,23(46),26,28,30,32,34,36,38(44),39,41-henicosaene-46,50-dicarbonitrilato expanded porphyrinoid)-di-nickel(ii) hexane solvate'
_symmetry_cell_setting           triclinic
_symmetry_space_group_name_H-M   'P -1'
_symmetry_Int_Tables_number      2
_space_group_name_Hall           '-P 1'
loop_
_symmetry_equiv_pos_site_id
_symmetry_equiv_pos_as_xyz
1 x,y,z
2 -x,-y,-z
_cell_length_a                   16.065(3)
_cell_length_b                   20.758(4)
_cell_length_c                   21.059(4)
_cell_angle_alpha                103.63(3)
_cell_angle_beta                 94.83(3)
_cell_angle_gamma                108.69(3)
_cell_volume                     6366.98
_exptl_crystal_colour            green
_exptl_crystal_description       block
_cell_formula_units_Z            4
_exptl_crystal_recrystallization_method 'Dichloromethane/ Hexane'
loop_
_atom_site_label
_atom_site_type_symbol
_atom_site_fract_x
_atom_site_fract_y
_atom_site_fract_z
C1 C 0.8996(3) 0.4586(3) 0.2854(3)
C2 C 0.9376(3) 0.4162(3) 0.2413(3)
H1 H 0.9056 0.3722 0.2092
C3 C 1.0274(3) 0.4503(3) 0.2537(3)
H2 H 1.0701 0.4344 0.2326
C4 C 1.0456(3) 0.5151(3) 0.3048(3)
C5 C 1.1206(3) 0.5712(3) 0.3425(3)
C6 C 1.2157(3) 0.5916(3) 0.3514(3)
H3 H 1.2488 0.5679 0.3260
C7 C 1.2495(3) 0.6513(3) 0.4032(3)
H4 H 1.3109 0.6764 0.4213
C8 C 1.1755(3) 0.6697(3) 0.4257(3)
C9 C 1.1719(3) 0.7255(3) 0.4762(2)
C10 C 1.0914(3) 0.7355(3) 0.4861(3)
C11 C 1.0809(3) 0.7914(3) 0.5353(3)
H5 H 1.1274 0.8289 0.5667
C12 C 0.9925(3) 0.7814(3) 0.5291(3)
H6 H 0.9657 0.8099 0.5560
C13 C 0.9477(3) 0.7202(3) 0.4749(3)
C14 C 0.8567(3) 0.6920(3) 0.4468(3)
C15 C 0.8228(3) 0.6415(3) 0.3819(3)
C16 C 0.7839(3) 0.7099(3) 0.4694(3)
C17 C 0.7850(3) 0.7532(3) 0.5321(3)
C18 C 0.7087(3) 0.6740(3) 0.4194(3)
C19 C 0.6175(3) 0.6612(3) 0.4032(3)
H7 H 0.5819 0.6786 0.4316
C20 C 0.5888(3) 0.6194(3) 0.3392(3)
H8 H 0.5289 0.6016 0.3163
C21 C 0.6628(3) 0.6067(2) 0.3118(3)
C22 C 0.6661(3) 0.5845(3) 0.2433(3)
C23 C 0.5854(3) 0.5439(3) 0.1990(3)
C24 C 0.5598(4) 0.5525(3) 0.1355(3)
H9 H 0.5985 0.5785 0.1114
C25 C 0.4691(4) 0.5164(3) 0.1153(3)
H10 H 0.4327 0.5141 0.0762
C26 C 0.4424(3) 0.4836(3) 0.1657(3)
C27 C 0.3596(3) 0.4429(3) 0.1790(3)
C28 C 0.2672(3) 0.4149(3) 0.1498(3)
H11 H 0.2419 0.4181 0.1088
C29 C 0.2227(3) 0.3826(3) 0.1929(3)
H12 H 0.1602 0.3584 0.1867
C30 C 0.2866(3) 0.3916(2) 0.2491(3)
C31 C 0.2783(3) 0.3748(2) 0.3086(3)
C32 C 0.3503(3) 0.3914(2) 0.3582(2)
C33 C 0.3472(3) 0.3853(3) 0.4244(3)
H13 H 0.2947 0.3688 0.4424
C34 C 0.4318(3) 0.4071(3) 0.4568(3)
H14 H 0.4497 0.4097 0.5017
C35 C 0.4896(3) 0.4255(2) 0.4108(2)
C36 C 0.5822(3) 0.4425(2) 0.4187(2)
C37 C 0.6313(3) 0.4502(2) 0.3646(2)
C38 C 0.6433(3) 0.4478(3) 0.4740(2)
C39 C 0.6241(3) 0.4413(3) 0.5371(3)
C40 C 0.7268(3) 0.4560(3) 0.4547(2)
C41 C 0.8155(3) 0.4646(3) 0.4759(3)
H15 H 0.8415 0.4683 0.5194
C42 C 0.8580(3) 0.4667(3) 0.4223(2)
H16 H 0.9198 0.4741 0.4238
C43 C 0.7985(3) 0.4566(2) 0.3648(2)
C44 C 0.8113(3) 0.4375(2) 0.2983(3)
C45 C 1.2569(3) 0.7757(3) 0.5198(3)
C46 C 1.3221(4) 0.8220(3) 0.4966(3)
C47 C 1.4012(4) 0.8674(3) 0.5348(3)
C48 C 1.4188(4) 0.8674(3) 0.5994(3)
C49 C 1.3580(4) 0.8236(3) 0.6252(3)
C50 C 1.2769(4) 0.7772(3) 0.5852(3)
C51 C 0.7470(3) 0.6117(3) 0.2151(3)
C52 C 0.7625(4) 0.5712(3) 0.1575(3)
C53 C 0.8347(4) 0.5944(4) 0.1271(3)
C54 C 0.8968(4) 0.6628(4) 0.1549(4)
C55 C 0.8826(4) 0.7050(3) 0.2099(4)
C56 C 0.8094(4) 0.6804(3) 0.2390(3)
C57 C 0.1867(3) 0.3388(3) 0.3202(3)
C58 C 0.1379(4) 0.3767(3) 0.3530(3)
C59 C 0.0523(4) 0.3442(4) 0.3609(3)
C60 C 0.0124(4) 0.2723(4) 0.3356(4)
C61 C 0.0576(4) 0.2338(4) 0.3047(4)
C62 C 0.1443(4) 0.2660(3) 0.2964(3)
C63 C 0.7406(3) 0.3860(3) 0.2440(3)
C64 C 0.6731(3) 0.3272(3) 0.2514(3)
C65 C 0.6108(3) 0.2778(3) 0.1998(3)
C66 C 0.6119(3) 0.2854(3) 0.1367(3)
C67 C 0.6761(4) 0.3421(3) 0.1264(3)
C68 C 0.7394(3) 0.3907(3) 0.1785(3)
F1 F 1.3066(2) 0.8217(2) 0.43287(17)
F2 F 1.4623(2) 0.9106(2) 0.51008(19)
F3 F 1.4980(2) 0.91092(17) 0.63714(18)
F4 F 1.3749(3) 0.82396(18) 0.68880(18)
F5 F 1.2185(2) 0.73374(17) 0.61173(16)
F6 F 0.7048(2) 0.50510(18) 0.12733(17)
F7 F 0.8459(3) 0.5536(3) 0.0723(2)
F8 F 0.9669(3) 0.6853(3) 0.1272(2)
F9 F 0.9400(2) 0.7720(2) 0.2364(2)
F10 F 0.7975(2) 0.72598(16) 0.29094(18)
F11 F 0.1769(2) 0.44687(19) 0.37751(18)
F12 F 0.0071(3) 0.3838(3) 0.3918(2)
F13 F -0.0736(2) 0.2410(3) 0.3392(2)
F14 F 0.0188(3) 0.1620(2) 0.2809(3)
F15 F 0.1872(2) 0.22618(17) 0.2646(2)
F16 F 0.6700(2) 0.31699(15) 0.31241(15)
F17 F 0.5484(2) 0.22110(15) 0.20919(17)
F18 F 0.5504(2) 0.23767(16) 0.08554(16)
F19 F 0.6775(2) 0.34891(19) 0.06402(15)
F20 F 0.8029(2) 0.44305(17) 0.16482(16)
N1 N 0.9665(3) 0.5196(2) 0.3211(2)
N2 N 1.0985(3) 0.6191(2) 0.3878(2)
N3 N 1.0080(3) 0.6919(2) 0.4491(2)
N4 N 0.8658(3) 0.6057(2) 0.3498(2)
H17 H 0.8388 0.5770 0.3104
N5 N 0.7846(3) 0.7870(2) 0.5843(3)
N6 N 0.7345(3) 0.6376(2) 0.3649(2)
N7 N 0.5122(3) 0.4987(2) 0.2146(2)
N8 N 0.3700(3) 0.4291(2) 0.2391(2)
N9 N 0.4392(3) 0.4179(2) 0.3511(2)
N10 N 0.5993(3) 0.4552(2) 0.30817(19)
H18 H 0.6359 0.4612 0.2795
N11 N 0.6043(3) 0.4332(3) 0.5865(2)
N12 N 0.7172(3) 0.4535(2) 0.3873(2)
Ni1 Ni 0.98091(4) 0.60944(3) 0.37953(3)
Ni2 Ni 0.48349(4) 0.45121(3) 0.28150(3)
C69 C 0.1319(3) 0.0205(3) 0.2635(3)
C70 C 0.1009(4) 0.0565(3) 0.3191(3)
H19 H 0.1367 0.0956 0.3551
C71 C 0.0107(4) 0.0237(3) 0.3100(3)
H20 H -0.0282 0.0363 0.3380
C72 C -0.0145(3) -0.0336(3) 0.2503(3)
C73 C -0.0938(3) -0.0820(3) 0.2106(3)
C74 C -0.1885(3) -0.0969(3) 0.2079(3)
H21 H -0.2165 -0.0757 0.2404
C75 C -0.2291(4) -0.1468(3) 0.1503(3)
H22 H -0.2916 -0.1675 0.1347
C76 C -0.1607(3) -0.1634(3) 0.1163(3)
C77 C -0.1671(3) -0.2120(3) 0.0558(3)
C78 C -0.0913(3) -0.2243(2) 0.0360(3)
C79 C -0.0899(3) -0.2748(3) -0.0233(3)
H23 H -0.1400 -0.3056 -0.0561
C80 C -0.0034(3) -0.2703(3) -0.0238(3)
H24 H 0.0176 -0.2973 -0.0573
C81 C 0.0499(3) -0.2179(2) 0.0348(3)
C82 C 0.1407(3) -0.1982(2) 0.0572(3)
C83 C 0.1838(3) -0.1572(2) 0.1237(3)
C84 C 0.2075(3) -0.2162(3) 0.0245(3)
C85 C 0.1943(3) -0.2535(3) -0.0433(3)
C86 C 0.2870(3) -0.1902(2) 0.0698(3)
C87 C 0.3776(3) -0.1829(2) 0.0774(3)
H25 H 0.4079 -0.1982 0.0434
C88 C 0.4142(3) -0.1496(2) 0.1428(3)
H26 H 0.4752 -0.1370 0.1613
C89 C 0.3465(3) -0.1366(2) 0.1796(3)
C90 C 0.3492(3) -0.1222(3) 0.2480(3)
C91 C 0.4328(3) -0.0876(3) 0.2922(3)
C92 C 0.4606(4) -0.0997(3) 0.3536(3)
H27 H 0.4229 -0.1271 0.3773
C93 C 0.5510(4) -0.0648(3) 0.3722(3)
H28 H 0.5880 -0.0640 0.4102
C94 C 0.5774(4) -0.0300(3) 0.3229(3)
C95 C 0.6584(3) 0.0108(3) 0.3076(3)
C96 C 0.7514(3) 0.0373(3) 0.3329(3)
H29 H 0.7791 0.0335 0.3729
C97 C 0.7931(3) 0.0693(3) 0.2889(3)
H30 H 0.8557 0.0916 0.2924
C98 C 0.7261(3) 0.0633(3) 0.2365(3)
C99 C 0.7300(3) 0.0851(3) 0.1786(3)
C100 C 0.6549(3) 0.0803(3) 0.1375(3)
C101 C 0.6514(3) 0.0975(3) 0.0753(3)
H31 H 0.7010 0.1138 0.0542
C102 C 0.5662(3) 0.0865(3) 0.0521(3)
H32 H 0.5444 0.0929 0.0115
C103 C 0.5141(3) 0.0633(2) 0.0998(3)
C104 C 0.4229(3) 0.0507(2) 0.1000(3)
C105 C 0.3807(3) 0.0355(2) 0.1556(3)
C106 C 0.3578(3) 0.0564(3) 0.0545(3)
C107 C 0.3723(4) 0.0771(3) -0.0054(3)
C108 C 0.2778(3) 0.0448(3) 0.0806(3)
C109 C 0.1882(3) 0.0380(3) 0.0670(3)
H33 H 0.1578 0.0396 0.0270
C110 C 0.1527(3) 0.0286(3) 0.1230(3)
H34 H 0.0921 0.0212 0.1268
C111 C 0.2173(3) 0.0312(2) 0.1734(3)
C112 C 0.2145(3) 0.0465(3) 0.2433(3)
C113 C -0.2556(3) -0.2532(2) 0.0140(3)
C114 C -0.3199(4) -0.3037(3) 0.0330(3)
C115 C -0.4034(4) -0.3408(3) -0.0037(3)
C116 C -0.4260(3) -0.3284(3) -0.0626(3)
C117 C -0.3648(4) -0.2793(3) -0.0840(3)
C118 C -0.2814(3) -0.2420(3) -0.0461(3)
C119 C 0.2694(4) -0.1494(3) 0.2782(3)
C120 C 0.2551(4) -0.1042(4) 0.3369(3)
C121 C 0.1811(6) -0.1285(6) 0.3646(5)
C122 C 0.1167(5) -0.1920(6) 0.3385(5)
C123 C 0.1293(5) -0.2387(5) 0.2824(5)
C124 C 0.2057(4) -0.2149(4) 0.2538(4)
C125 C 0.8192(3) 0.1155(3) 0.1606(3)
C126 C 0.8586(3) 0.0716(3) 0.1243(3)
C127 C 0.9428(4) 0.0979(3) 0.1093(3)
C128 C 0.9901(4) 0.1705(3) 0.1319(3)
C129 C 0.9522(4) 0.2143(3) 0.1655(3)
C130 C 0.8680(3) 0.1874(3) 0.1801(3)
C131 C 0.2900(4) 0.1035(3) 0.2923(4)
C132 C 0.3416(4) 0.1634(3) 0.2754(4)
C133 C 0.4093(4) 0.2182(3) 0.3218(5)
C134 C 0.4265(5) 0.2158(4) 0.3861(6)
C135 C 0.3759(6) 0.1597(4) 0.4048(4)
C136 C 0.3082(4) 0.1047(3) 0.3586(4)
F21 F -0.2990(2) -0.3182(2) 0.09029(19)
F22 F -0.4642(2) -0.3898(2) 0.0166(2)
F23 F -0.5074(2) -0.36554(17) -0.09964(17)
F24 F -0.3873(2) -0.2677(2) -0.14226(19)
F25 F -0.2236(2) -0.19344(18) -0.06809(19)
F26 F 0.3167(3) -0.0429(2) 0.3673(2)
F27 F 0.1719(4) -0.0860(4) 0.4207(3)
F28 F 0.0448(3) -0.2134(4) 0.3637(3)
F29 F 0.0701(3) -0.3032(3) 0.2559(3)
F30 F 0.2160(3) -0.26051(19) 0.2005(2)
F31 F 0.8149(2) 0.00178(17) 0.10270(18)
F32 F 0.9788(2) 0.05445(19) 0.07434(19)
F33 F 1.0746(2) 0.1955(2) 0.1220(2)
F34 F 0.9979(2) 0.28512(17) 0.18598(18)
F35 F 0.8337(2) 0.23250(16) 0.21599(17)
F36 F 0.3264(3) 0.17164(17) 0.2151(2)
F37 F 0.4578(3) 0.27460(19) 0.3033(3)
F38 F 0.4924(3) 0.2682(2) 0.4304(3)
F39 F 0.3886(4) 0.1566(3) 0.4675(3)
F40 F 0.2586(3) 0.0527(2) 0.3813(2)
N13 N 0.0597(3) -0.0369(2) 0.2247(2)
N14 N -0.0802(3) -0.1223(2) 0.1541(2)
N15 N -0.0043(3) -0.1897(2) 0.0709(2)
N16 N 0.1481(3) -0.1227(2) 0.1659(2)
H35 H 0.1806 -0.0992 0.2053
N17 N 0.1821(3) -0.2835(3) -0.0991(3)
N18 N 0.2694(3) -0.1596(2) 0.1308(2)
N19 N 0.5055(3) -0.0425(2) 0.2761(2)
N20 N 0.6447(3) 0.0275(2) 0.2496(2)
N21 N 0.5682(3) 0.0583(2) 0.1507(2)
N22 N 0.4160(3) 0.0197(2) 0.2048(2)
H36 H 0.3834 0.0107 0.2354
N23 N 0.3862(3) 0.0972(3) -0.0504(3)
N24 N 0.2950(3) 0.0377(2) 0.1439(2)
Ni3 Ni 0.03430(4) -0.11790(3) 0.15098(3)
Ni4 Ni 0.52989(4) 0.01414(3) 0.21636(3)
C137 C 0.2214(16) 1.1294(12) 0.5904(14)
H37 H 0.2378 1.1065 0.6227
H38 H 0.2428 1.1807 0.6104
H39 H 0.2488 1.1188 0.5512
C138 C 0.1238(17) 1.1027(16) 0.5708(17)
H40 H 0.1069 1.1357 0.5499
H41 H 0.0965 1.1025 0.6112
C139 C 0.0852(18) 1.0290(16) 0.523(2)
H42 H 0.1026 0.9956 0.5434
H43 H 0.1108 1.0290 0.4819
C140 C -0.0161(18) 1.0035(19) 0.506(3)
H44 H -0.0397 1.0134 0.5476
H45 H -0.0319 1.0322 0.4786
C141 C -0.064(2) 0.9258(17) 0.469(2)
H46 H -0.0565 0.9181 0.4218
H47 H -0.0367 0.8967 0.4882
C142 C -0.162(2) 0.903(2) 0.473(3)
H48 H -0.1700 0.9100 0.5193
H49 H -0.1912 0.8522 0.4490
H50 H -0.1900 0.9303 0.4523
C137A C -0.2214(16) 0.8706(12) 0.4096(14)
H37A H -0.2378 0.8935 0.3773
H38A H -0.2428 0.8193 0.3896
H39A H -0.2488 0.8812 0.4488
C138A C -0.1238(17) 0.8973(16) 0.4292(17)
H40A H -0.1069 0.8643 0.4501
H41A H -0.0965 0.8975 0.3888
C139A C -0.0852(18) 0.9710(16) 0.477(2)
H42A H -0.1026 1.0044 0.4566
H43A H -0.1108 0.9710 0.5181
C140A C 0.0161(18) 0.9965(19) 0.494(3)
H44A H 0.0397 0.9866 0.4524
H45A H 0.0319 0.9678 0.5214
C141A C 0.064(2) 1.0742(17) 0.531(2)
H46A H 0.0565 1.0819 0.5782
H47A H 0.0367 1.1033 0.5118
C142A C 0.162(2) 1.097(2) 0.527(3)
H48A H 0.1700 1.0900 0.4807
H49A H 0.1912 1.1478 0.5510
H50A H 0.1900 1.0697 0.5477
loop_
_geom_bond_atom_site_label_1
_geom_bond_atom_site_label_2
_geom_bond_site_symmetry_1
_geom_bond_site_symmetry_2
C1 C2 1_555 1_555
C2 H1 1_555 1_555
C3 C2 1_555 1_555
H2 C3 1_555 1_555
C4 C3 1_555 1_555
C5 C4 1_555 1_555
C6 C5 1_555 1_555
H3 C6 1_555 1_555
C7 C6 1_555 1_555
H4 C7 1_555 1_555
C8 C7 1_555 1_555
C9 C8 1_555 1_555
C10 C9 1_555 1_555
C11 C10 1_555 1_555
H5 C11 1_555 1_555
C12 C11 1_555 1_555
H6 C12 1_555 1_555
C13 C12 1_555 1_555
C14 C13 1_555 1_555
C15 C14 1_555 1_555
C16 C14 1_555 1_555
C17 C16 1_555 1_555
C18 C16 1_555 1_555
C19 C18 1_555 1_555
H7 C19 1_555 1_555
C20 C19 1_555 1_555
H8 C20 1_555 1_555
C21 C20 1_555 1_555
C22 C21 1_555 1_555
C23 C22 1_555 1_555
C24 C23 1_555 1_555
H9 C24 1_555 1_555
C25 C24 1_555 1_555
H10 C25 1_555 1_555
C26 C25 1_555 1_555
C27 C26 1_555 1_555
C28 C27 1_555 1_555
H11 C28 1_555 1_555
C29 C28 1_555 1_555
H12 C29 1_555 1_555
C30 C29 1_555 1_555
C31 C30 1_555 1_555
C32 C31 1_555 1_555
C33 C32 1_555 1_555
H13 C33 1_555 1_555
C34 C33 1_555 1_555
H14 C34 1_555 1_555
C35 C34 1_555 1_555
C36 C35 1_555 1_555
C37 C36 1_555 1_555
C38 C36 1_555 1_555
C39 C38 1_555 1_555
C40 C38 1_555 1_555
C41 C40 1_555 1_555
H15 C41 1_555 1_555
C42 C41 1_555 1_555
H16 C42 1_555 1_555
C43 C42 1_555 1_555
C44 C1 1_555 1_555
C45 C9 1_555 1_555
C46 C45 1_555 1_555
C47 C46 1_555 1_555
C48 C47 1_555 1_555
C49 C48 1_555 1_555
C50 C45 1_555 1_555
C51 C22 1_555 1_555
C52 C51 1_555 1_555
C53 C52 1_555 1_555
C54 C53 1_555 1_555
C55 C54 1_555 1_555
C56 C51 1_555 1_555
C57 C31 1_555 1_555
C58 C57 1_555 1_555
C59 C58 1_555 1_555
C60 C59 1_555 1_555
C61 C60 1_555 1_555
C62 C57 1_555 1_555
C63 C44 1_555 1_555
C64 C63 1_555 1_555
C65 C64 1_555 1_555
C66 C65 1_555 1_555
C67 C66 1_555 1_555
C68 C63 1_555 1_555
F1 C46 1_555 1_555
F2 C47 1_555 1_555
F3 C48 1_555 1_555
F4 C49 1_555 1_555
F5 C50 1_555 1_555
F6 C52 1_555 1_555
F7 C53 1_555 1_555
F8 C54 1_555 1_555
F9 C55 1_555 1_555
F10 C56 1_555 1_555
F11 C58 1_555 1_555
F12 C59 1_555 1_555
F13 C60 1_555 1_555
F14 C61 1_555 1_555
F15 C62 1_555 1_555
F16 C64 1_555 1_555
F17 C65 1_555 1_555
F18 C66 1_555 1_555
F19 C67 1_555 1_555
F20 C68 1_555 1_555
N1 C1 1_555 1_555
N2 C5 1_555 1_555
N3 C10 1_555 1_555
N4 C15 1_555 1_555
H17 N4 1_555 1_555
N5 C17 1_555 1_555
N6 C15 1_555 1_555
N7 C23 1_555 1_555
N8 C27 1_555 1_555
N9 C32 1_555 1_555
N10 C37 1_555 1_555
H18 N10 1_555 1_555
N11 C39 1_555 1_555
N12 C37 1_555 1_555
Ni1 N1 1_555 1_555
Ni2 N7 1_555 1_555
C69 C70 1_555 1_555
C70 H19 1_555 1_555
C71 C70 1_555 1_555
H20 C71 1_555 1_555
C72 C71 1_555 1_555
C73 C72 1_555 1_555
C74 C73 1_555 1_555
H21 C74 1_555 1_555
C75 C74 1_555 1_555
H22 C75 1_555 1_555
C76 C75 1_555 1_555
C77 C76 1_555 1_555
C78 C77 1_555 1_555
C79 C78 1_555 1_555
H23 C79 1_555 1_555
C80 C79 1_555 1_555
H24 C80 1_555 1_555
C81 C80 1_555 1_555
C82 C81 1_555 1_555
C83 C82 1_555 1_555
C84 C82 1_555 1_555
C85 C84 1_555 1_555
C86 C84 1_555 1_555
C87 C86 1_555 1_555
H25 C87 1_555 1_555
C88 C87 1_555 1_555
H26 C88 1_555 1_555
C89 C88 1_555 1_555
C90 C89 1_555 1_555
C91 C90 1_555 1_555
C92 C91 1_555 1_555
H27 C92 1_555 1_555
C93 C92 1_555 1_555
H28 C93 1_555 1_555
C94 C93 1_555 1_555
C95 C94 1_555 1_555
C96 C95 1_555 1_555
H29 C96 1_555 1_555
C97 C96 1_555 1_555
H30 C97 1_555 1_555
C98 C97 1_555 1_555
C99 C98 1_555 1_555
C100 C99 1_555 1_555
C101 C100 1_555 1_555
H31 C101 1_555 1_555
C102 C101 1_555 1_555
H32 C102 1_555 1_555
C103 C102 1_555 1_555
C104 C103 1_555 1_555
C105 C104 1_555 1_555
C106 C104 1_555 1_555
C107 C106 1_555 1_555
C108 C106 1_555 1_555
C109 C108 1_555 1_555
H33 C109 1_555 1_555
C110 C109 1_555 1_555
H34 C110 1_555 1_555
C111 C110 1_555 1_555
C112 C69 1_555 1_555
C113 C77 1_555 1_555
C114 C113 1_555 1_555
C115 C114 1_555 1_555
C116 C115 1_555 1_555
C117 C116 1_555 1_555
C118 C113 1_555 1_555
C119 C90 1_555 1_555
C120 C119 1_555 1_555
C121 C120 1_555 1_555
C122 C121 1_555 1_555
C123 C122 1_555 1_555
C124 C119 1_555 1_555
C125 C99 1_555 1_555
C126 C125 1_555 1_555
C127 C126 1_555 1_555
C128 C127 1_555 1_555
C129 C128 1_555 1_555
C130 C125 1_555 1_555
C131 C112 1_555 1_555
C132 C131 1_555 1_555
C133 C132 1_555 1_555
C134 C133 1_555 1_555
C135 C134 1_555 1_555
C136 C131 1_555 1_555
F21 C114 1_555 1_555
F22 C115 1_555 1_555
F23 C116 1_555 1_555
F24 C117 1_555 1_555
F25 C118 1_555 1_555
F26 C120 1_555 1_555
F27 C121 1_555 1_555
F28 C122 1_555 1_555
F29 C123 1_555 1_555
F30 C124 1_555 1_555
F31 C126 1_555 1_555
F32 C127 1_555 1_555
F33 C128 1_555 1_555
F34 C129 1_555 1_555
F35 C130 1_555 1_555
F36 C132 1_555 1_555
F37 C133 1_555 1_555
F38 C134 1_555 1_555
F39 C135 1_555 1_555
F40 C136 1_555 1_555
N13 C69 1_555 1_555
N14 C73 1_555 1_555
N15 C78 1_555 1_555
N16 C83 1_555 1_555
H35 N16 1_555 1_555
N17 C85 1_555 1_555
N18 C83 1_555 1_555
N19 C91 1_555 1_555
N20 C95 1_555 1_555
N21 C100 1_555 1_555
N22 C105 1_555 1_555
H36 N22 1_555 1_555
N23 C107 1_555 1_555
N24 C105 1_555 1_555
Ni3 N13 1_555 1_555
Ni4 N19 1_555 1_555
C137 H37 1_555 1_555
H38 C137 1_555 1_555
H39 C137 1_555 1_555
C138 C137 1_555 1_555
H40 C138 1_555 1_555
H41 C138 1_555 1_555
C139 C138 1_555 1_555
H42 C139 1_555 1_555
H43 C139 1_555 1_555
C140 C139 1_555 1_555
H44 C140 1_555 1_555
H45 C140 1_555 1_555
C141 C140 1_555 1_555
H46 C141 1_555 1_555
H47 C141 1_555 1_555
C142 C141 1_555 1_555
H48 C142 1_555 1_555
H49 C142 1_555 1_555
H50 C142 1_555 1_555
C137A H37A 1_555 1_555
H38A C137A 1_555 1_555
H39A C137A 1_555 1_555
C138A C137A 1_555 1_555
H40A C138A 1_555 1_555
H41A C138A 1_555 1_555
C139A C138A 1_555 1_555
H42A C139A 1_555 1_555
H43A C139A 1_555 1_555
C140A C139A 1_555 1_555
H44A C140A 1_555 1_555
H45A C140A 1_555 1_555
C141A C140A 1_555 1_555
H46A C141A 1_555 1_555
H47A C141A 1_555 1_555
C142A C141A 1_555 1_555
H48A C142A 1_555 1_555
H49A C142A 1_555 1_555
H50A C142A 1_555 1_555
C4 N1 1_555 1_555
C8 N2 1_555 1_555
C13 N3 1_555 1_555
C18 N6 1_555 1_555
C21 N6 1_555 1_555
C26 N7 1_555 1_555
C30 N8 1_555 1_555
C35 N9 1_555 1_555
C40 N12 1_555 1_555
C43 C44 1_555 1_555
C43 N12 1_555 1_555
C49 C50 1_555 1_555
C55 C56 1_555 1_555
C61 C62 1_555 1_555
C67 C68 1_555 1_555
N2 Ni1 1_555 1_555
N3 Ni1 1_555 1_555
N4 Ni1 1_555 1_555
N8 Ni2 1_555 1_555
N9 Ni2 1_555 1_555
N10 Ni2 1_555 1_555
C72 N13 1_555 1_555
C76 N14 1_555 1_555
C81 N15 1_555 1_555
C86 N18 1_555 1_555
C89 N18 1_555 1_555
C94 N19 1_555 1_555
C98 N20 1_555 1_555
C103 N21 1_555 1_555
C108 N24 1_555 1_555
C111 C112 1_555 1_555
C111 N24 1_555 1_555
C117 C118 1_555 1_555
C123 C124 1_555 1_555
C129 C130 1_555 1_555
C135 C136 1_555 1_555
N14 Ni3 1_555 1_555
N15 Ni3 1_555 1_555
N16 Ni3 1_555 1_555
N20 Ni4 1_555 1_555
N21 Ni4 1_555 1_555
N22 Ni4 1_555 1_555

#END
