
#######################################################################
#
#                 Cambridge Crystallographic Data Centre
#                                CCDC 
#
#######################################################################
#
# If this CIF has been generated from an entry in the Cambridge 
# Structural Database, then it will include bibliographic, chemical, 
# crystal, experimental, refinement or atomic coordinate data resulting 
# from the CCDC's data processing and validation procedures.
#
#######################################################################

data_ZEKRAL
_chemical_formula_moiety         
'C390 H330 N60 Zn10 20+,2(C7 H7 O3 S1 1-),4(C2 H3 N1),17(Cl1 O4 1-),2(H2 O1),Br1 1-'
_chemical_name_systematic        
"pentadecakis(\m-([3,3'-bipyridine]-6,6'-diyl)bis[N-(4-methylphenyl)methanimine])-deca-zinc bromide bis(4-methylbenzene-1-sulfonate) heptadecaperchlorate acetonitrile solvate dihydrate"
_symmetry_cell_setting           monoclinic
_symmetry_space_group_name_H-M   'P 2/n'
_symmetry_Int_Tables_number      13
_space_group_name_Hall           '-P 2yac'
loop_
_symmetry_equiv_pos_site_id
_symmetry_equiv_pos_as_xyz
1 x,y,z
2 1/2-x,y,1/2-z
3 -x,-y,-z
4 1/2+x,-y,1/2+z
_cell_length_a                   21.6000(7)
_cell_length_b                   30.4349(10)
_cell_length_c                   34.2304(10)
_cell_angle_alpha                90
_cell_angle_beta                 97.241(2)
_cell_angle_gamma                90
_cell_volume                     22323.4
_exptl_crystal_colour            'pale yellow'
_exptl_crystal_description       block
_cell_formula_units_Z            2
_exptl_crystal_recrystallization_method 'Re-crystallisation from solvent'
loop_
_atom_site_label
_atom_site_type_symbol
_atom_site_fract_x
_atom_site_fract_y
_atom_site_fract_z
Zn1 Zn 0.36210(6) 0.92331(5) 0.42855(4)
Zn2 Zn 0.47952(6) 0.96395(5) 0.20153(4)
Zn3 Zn 0.51645(7) 0.70326(6) 0.10418(4)
Zn4 Zn 0.44134(9) 0.51580(5) 0.27688(4)
Zn5 Zn 0.34328(7) 0.65733(6) 0.48128(4)
N1 N 0.4106(4) 0.9639(3) 0.4785(2)
N2 N 0.4042(3) 0.9759(3) 0.3996(2)
N3 N 0.4329(4) 1.0031(3) 0.2393(2)
N4 N 0.4145(4) 1.0039(3) 0.1599(2)
C1 C 0.4104(5) 0.9571(4) 0.5198(3)
C2 C 0.4275(5) 0.9159(4) 0.5352(3)
H1 H 0.4387 0.8933 0.5183
C3 C 0.4283(6) 0.9075(5) 0.5756(3)
H2 H 0.4407 0.8796 0.5861
C4 C 0.4109(7) 0.9405(5) 0.5999(3)
C5 C 0.3919(7) 0.9808(5) 0.5838(3)
H3 H 0.3789 1.0031 0.6005
C6 C 0.3914(5) 0.9896(4) 0.5441(3)
H4 H 0.3782 1.0175 0.5336
C7 C 0.4137(9) 0.9309(7) 0.6444(3)
H5 H 0.4552 0.9383 0.6577
H6 H 0.4053 0.8997 0.6483
H7 H 0.3822 0.9486 0.6554
C8 C 0.4236(5) 1.0017(4) 0.4660(3)
H8 H 0.4360 1.0244 0.4843
C9 C 0.4197(4) 1.0105(3) 0.4236(3)
C10 C 0.4296(5) 1.0523(3) 0.4099(3)
H9 H 0.4396 1.0759 0.4278
C11 C 0.4246(5) 1.0590(4) 0.3701(3)
H10 H 0.4300 1.0876 0.3600
C12 C 0.4115(5) 1.0239(3) 0.3446(3)
C13 C 0.4019(4) 0.9832(3) 0.3608(3)
H11 H 0.3932 0.9591 0.3435
C14 C 0.4355(5) 0.9995(3) 0.2781(3)
H12 H 0.4577 0.9754 0.2908
C15 C 0.4072(5) 1.0295(3) 0.3014(3)
C16 C 0.3742(5) 1.0641(4) 0.2822(3)
H13 H 0.3546 1.0854 0.2969
C17 C 0.3701(6) 1.0676(4) 0.2420(3)
H14 H 0.3484 1.0915 0.2286
C18 C 0.3980(5) 1.0358(3) 0.2212(3)
C19 C 0.3920(5) 1.0358(4) 0.1777(3)
H15 H 0.3716 1.0594 0.1632
C20 C 0.4114(5) 1.0044(3) 0.1180(3)
C21 C 0.4233(6) 1.0423(4) 0.0979(3)
H16 H 0.4307 1.0693 0.1116
C22 C 0.4244(6) 1.0405(5) 0.0575(3)
H17 H 0.4335 1.0663 0.0437
C23 C 0.4123(6) 1.0013(4) 0.0369(3)
C24 C 0.4010(5) 0.9639(4) 0.0577(3)
H18 H 0.3939 0.9368 0.0441
C25 C 0.3998(5) 0.9653(4) 0.0979(3)
H19 H 0.3910 0.9394 0.1117
C26 C 0.4140(7) 1.0002(6) -0.0075(3)
H20 H 0.4204 0.9699 -0.0158
H21 H 0.4483 1.0186 -0.0142
H22 H 0.3744 1.0112 -0.0210
N5 N 0.5500(4) 1.0144(3) 0.1906(2)
N6 N 0.5218(3) 0.9363(3) 0.1538(2)
N7 N 0.4994(4) 0.7675(3) 0.0807(2)
N8 N 0.4623(4) 0.6907(3) 0.0455(2)
C27 C 0.5740(8) 1.0532(5) 0.2121(5)
C28 C 0.6359(9) 1.0571(7) 0.2276(6)
H23 H 0.6651 1.0349 0.2229
C29 C 0.6550(10) 1.0934(7) 0.2502(7)
H24 H 0.6972 1.0957 0.2618
C30 C 0.6133(11) 1.1264(7) 0.2560(8)
C31 C 0.5505(11) 1.1193(8) 0.2457(8)
H25 H 0.5207 1.1380 0.2552
C32 C 0.5311(9) 1.0841(7) 0.2209(7)
H26 H 0.4885 1.0814 0.2102
C33 C 0.6370(16) 1.1670(9) 0.2797(10)
H27 H 0.6105 1.1922 0.2712
H28 H 0.6800 1.1732 0.2752
H29 H 0.6356 1.1615 0.3077
C34 C 0.5744(5) 1.0056(4) 0.1595(3)
H30 H 0.6022 1.0261 0.1501
C35 C 0.5607(4) 0.9648(3) 0.1381(3)
C36 C 0.5854(5) 0.9558(4) 0.1038(3)
H31 H 0.6130 0.9760 0.0937
C37 C 0.5696(5) 0.9178(4) 0.0847(3)
H32 H 0.5853 0.9117 0.0606
C38 C 0.5308(5) 0.8874(3) 0.0995(3)
C39 C 0.5083(5) 0.8986(4) 0.1348(3)
H33 H 0.4820 0.8782 0.1458
C40 C 0.5141(5) 0.8057(3) 0.0982(3)
H34 H 0.5274 0.8053 0.1258
C41 C 0.5114(5) 0.8463(3) 0.0791(3)
C42 C 0.4917(6) 0.8453(4) 0.0387(3)
H35 H 0.4895 0.8717 0.0238
C43 C 0.4756(6) 0.8062(4) 0.0208(3)
H36 H 0.4622 0.8057 -0.0067
C44 C 0.4785(5) 0.7678(4) 0.0417(3)
C45 C 0.4615(6) 0.7251(4) 0.0242(3)
H37 H 0.4497 0.7229 -0.0034
C46 C 0.4488(5) 0.6484(4) 0.0288(3)
C47 C 0.4682(6) 0.6360(4) -0.0063(3)
H38 H 0.4888 0.6563 -0.0213
C48 C 0.4570(6) 0.5931(4) -0.0195(4)
H39 H 0.4693 0.5847 -0.0441
C49 C 0.4288(6) 0.5620(4) 0.0020(4)
C50 C 0.4082(5) 0.5759(4) 0.0368(3)
H40 H 0.3866 0.5560 0.0516
C51 C 0.4188(5) 0.6178(4) 0.0499(3)
H41 H 0.4053 0.6264 0.0742
C52 C 0.4199(7) 0.5149(4) -0.0124(5)
H42 H 0.3838 0.5133 -0.0328
H43 H 0.4128 0.4959 0.0097
H44 H 0.4573 0.5051 -0.0233
N9 N 0.5946(4) 0.6916(3) 0.0697(2)
N10 N 0.5370(4) 0.6348(3) 0.1127(2)
N11 N 0.4442(5) 0.5121(3) 0.2153(3)
N12 N 0.3673(5) 0.4655(3) 0.2565(3)
C53 C 0.6180(5) 0.7230(4) 0.0444(3)
C54 C 0.6353(5) 0.7640(4) 0.0587(4)
H45 H 0.6361 0.7698 0.0860
C55 C 0.6513(6) 0.7965(5) 0.0344(4)
H46 H 0.6630 0.8246 0.0450
C56 C 0.6507(9) 0.7890(5) -0.0055(4)
C57 C 0.6362(9) 0.7468(5) -0.0195(4)
H47 H 0.6381 0.7405 -0.0465
C58 C 0.6193(7) 0.7141(5) 0.0047(3)
H48 H 0.6085 0.6858 -0.0056
C59 C 0.6634(11) 0.8267(6) -0.0333(5)
H49 H 0.6238 0.8403 -0.0441
H50 H 0.6843 0.8151 -0.0549
H51 H 0.6902 0.8487 -0.0187
C60 C 0.6047(6) 0.6511(4) 0.0651(3)
H52 H 0.6306 0.6420 0.0461
C61 C 0.5770(5) 0.6184(4) 0.0886(3)
C62 C 0.5873(6) 0.5743(4) 0.0848(4)
H53 H 0.6147 0.5641 0.0672
C63 C 0.5577(5) 0.5451(4) 0.1065(3)
H54 H 0.5648 0.5144 0.1044
C64 C 0.5170(5) 0.5607(4) 0.1318(3)
C65 C 0.5085(5) 0.6057(3) 0.1334(3)
H55 H 0.4804 0.6166 0.1504
C66 C 0.4764(5) 0.5375(4) 0.1938(3)
H56 H 0.4975 0.5621 0.2063
C67 C 0.4813(5) 0.5305(4) 0.1539(3)
C68 C 0.4498(6) 0.4939(4) 0.1369(3)
H57 H 0.4524 0.4871 0.1101
C69 C 0.4150(6) 0.4676(4) 0.1583(3)
H58 H 0.3931 0.4430 0.1464
C70 C 0.4124(5) 0.4774(4) 0.1973(3)
C71 C 0.3738(6) 0.4525(4) 0.2215(3)
H59 H 0.3533 0.4265 0.2114
C72 C 0.3321(6) 0.4402(4) 0.2811(3)
C73 C 0.2974(6) 0.4621(4) 0.3063(3)
H60 H 0.2960 0.4933 0.3063
C74 C 0.2648(7) 0.4386(4) 0.3314(4)
H61 H 0.2402 0.4539 0.3481
C75 C 0.2670(8) 0.3933(5) 0.3328(4)
C76 C 0.3020(8) 0.3718(5) 0.3074(4)
H62 H 0.3039 0.3407 0.3079
C77 C 0.3344(8) 0.3946(4) 0.2812(4)
H63 H 0.3576 0.3793 0.2637
C78 C 0.2308(10) 0.3677(6) 0.3609(5)
H64 H 0.2246 0.3864 0.3835
H65 H 0.2544 0.3414 0.3702
H66 H 0.1901 0.3590 0.3471
N13 N 0.4995(5) 0.4572(3) 0.2895(3)
N14 N 0.4319(4) 0.5007(3) 0.3380(2)
N15 N 0.3252(4) 0.5922(3) 0.4587(2)
N16 N 0.2501(4) 0.6406(3) 0.4992(3)
C79 C 0.5265(7) 0.4317(4) 0.2610(4)
C80 C 0.5128(8) 0.3873(5) 0.2557(4)
H67 H 0.4841 0.3731 0.2705
C81 C 0.5427(9) 0.3643(6) 0.2279(5)
H68 H 0.5351 0.3337 0.2240
C82 C 0.5832(11) 0.3858(6) 0.2060(6)
C83 C 0.5983(9) 0.4299(5) 0.2125(5)
H69 H 0.6295 0.4437 0.1995
C84 C 0.5666(7) 0.4528(5) 0.2384(4)
H70 H 0.5722 0.4837 0.2408
C85 C 0.6180(14) 0.3612(8) 0.1761(8)
H71 H 0.5878 0.3503 0.1544
H72 H 0.6408 0.3363 0.1891
H73 H 0.6474 0.3812 0.1656
C86 C 0.4898(6) 0.4382(4) 0.3212(3)
H74 H 0.5065 0.4098 0.3272
C87 C 0.4533(6) 0.4597(4) 0.3484(3)
C88 C 0.4393(6) 0.4391(4) 0.3817(3)
H75 H 0.4542 0.4103 0.3879
C89 C 0.4033(6) 0.4606(4) 0.4059(3)
H76 H 0.3926 0.4465 0.4289
C90 C 0.3826(5) 0.5030(4) 0.3970(3)
C91 C 0.3981(5) 0.5213(4) 0.3626(3)
H77 H 0.3839 0.5502 0.3560
C92 C 0.3573(5) 0.5701(4) 0.4346(3)
H78 H 0.3908 0.5847 0.4245
C93 C 0.3446(5) 0.5267(4) 0.4233(3)
C94 C 0.2949(5) 0.5066(4) 0.4387(4)
H79 H 0.2846 0.4769 0.4323
C95 C 0.2611(6) 0.5296(4) 0.4630(3)
H80 H 0.2272 0.5161 0.4735
C96 C 0.2766(5) 0.5725(4) 0.4722(3)
C97 C 0.2403(5) 0.5989(4) 0.4966(3)
H81 H 0.2098 0.5856 0.5104
C98 C 0.2166(6) 0.6657(4) 0.5246(3)
C99 C 0.1992(6) 0.7082(4) 0.5124(4)
H82 H 0.2064 0.7186 0.4872
C100 C 0.1712(6) 0.7346(5) 0.5379(4)
H83 H 0.1577 0.7631 0.5293
C101 C 0.1621(8) 0.7212(5) 0.5755(4)
C102 C 0.1795(7) 0.6788(5) 0.5863(4)
H84 H 0.1718 0.6682 0.6113
C103 C 0.2078(6) 0.6514(4) 0.5617(3)
H85 H 0.2211 0.6229 0.5703
C104 C 0.1343(12) 0.7518(6) 0.6036(6)
H86 H 0.1631 0.7545 0.6280
H87 H 0.0944 0.7397 0.6096
H88 H 0.1273 0.7808 0.5914
N17 N 0.3781(4) 0.6344(3) 0.5402(3)
N18 N 0.3428(4) 0.7156(3) 0.5163(2)
N19 N 0.3127(3) 0.8904(3) 0.4691(2)
N20 N 0.2804(3) 0.9678(3) 0.4343(2)
C105 C 0.3947(5) 0.5902(4) 0.5509(3)
C106 C 0.4373(6) 0.5682(4) 0.5317(3)
H89 H 0.4558 0.5826 0.5114
C107 C 0.4536(6) 0.5256(4) 0.5412(4)
H90 H 0.4837 0.5113 0.5278
C108 C 0.4268(6) 0.5031(4) 0.5702(4)
C109 C 0.3840(6) 0.5255(4) 0.5896(4)
H91 H 0.3653 0.5109 0.6096
C110 C 0.3676(6) 0.5687(4) 0.5807(3)
H92 H 0.3383 0.5834 0.5946
C111 C 0.4456(7) 0.4565(4) 0.5823(5)
H93 H 0.4828 0.4572 0.6019
H94 H 0.4549 0.4400 0.5591
H95 H 0.4114 0.4421 0.5936
C112 C 0.3700(5) 0.6624(4) 0.5663(3)
H96 H 0.3755 0.6539 0.5932
C113 C 0.3523(6) 0.7075(4) 0.5558(3)
C114 C 0.3424(6) 0.7392(4) 0.5829(3)
H97 H 0.3481 0.7323 0.6102
C115 C 0.3243(6) 0.7804(4) 0.5708(3)
H98 H 0.3172 0.8022 0.5896
C116 C 0.3165(5) 0.7901(4) 0.5309(3)
C117 C 0.3265(5) 0.7562(4) 0.5056(3)
H99 H 0.3213 0.7626 0.4782
C118 C 0.3267(5) 0.8516(4) 0.4847(3)
H100 H 0.3583 0.8349 0.4746
C119 C 0.2979(5) 0.8337(4) 0.5151(3)
C120 C 0.2531(6) 0.8594(4) 0.5295(4)
H101 H 0.2323 0.8487 0.5505
C121 C 0.2384(6) 0.9003(4) 0.5139(4)
H102 H 0.2080 0.9181 0.5239
C122 C 0.2689(5) 0.9147(4) 0.4832(3)
C123 C 0.2539(4) 0.9568(4) 0.4643(3)
H103 H 0.2247 0.9760 0.4740
C124 C 0.2688(4) 1.0100(3) 0.4169(3)
C125 C 0.2636(5) 1.0467(4) 0.4402(3)
H104 H 0.2652 1.0437 0.4679
C126 C 0.2559(6) 1.0880(4) 0.4227(3)
H105 H 0.2523 1.1132 0.4386
C127 C 0.2536(6) 1.0926(4) 0.3824(4)
C128 C 0.2570(5) 1.0555(4) 0.3597(3)
H106 H 0.2534 1.0582 0.3319
C129 C 0.2656(5) 1.0146(4) 0.3767(3)
H107 H 0.2693 0.9895 0.3606
C130 C 0.2498(8) 1.1377(4) 0.3634(5)
H108 H 0.2267 1.1577 0.3788
H109 H 0.2281 1.1355 0.3365
H110 H 0.2920 1.1492 0.3626
N21 N 0.5608(4) 0.7165(4) 0.1642(3)
N22 N 0.4393(4) 0.7067(3) 0.1362(2)
N23 N 0.1891(4) 0.6856(3) 0.0738(2)
N24 N 0.0691(4) 0.6774(3) 0.0408(3)
C131 C 0.5210(4) 0.7170(4) 0.1884(3)
H111 H 0.5350 0.7202 0.2157
C132 C 0.4545(4) 0.7127(4) 0.1755(2)
C133 C 0.4101(5) 0.7141(5) 0.2003(3)
H112 H 0.4214 0.7168 0.2279
C134 C 0.3488(5) 0.7116(5) 0.1846(3)
H113 H 0.3173 0.7129 0.2016
C135 C 0.3317(4) 0.7072(4) 0.1445(2)
C136 C 0.3797(4) 0.7050(3) 0.1216(3)
H114 H 0.3694 0.7021 0.0939
C137 C 0.2469(5) 0.6870(3) 0.0907(3)
H115 H 0.2780 0.6734 0.0775
C138 C 0.2659(4) 0.7069(3) 0.1268(2)
C139 C 0.2184(5) 0.7249(4) 0.1456(3)
H116 H 0.2281 0.7389 0.1704
C140 C 0.1577(5) 0.7225(4) 0.1284(3)
H117 H 0.1253 0.7348 0.1413
C141 C 0.1436(4) 0.7024(3) 0.0927(3)
C142 C 0.0801(5) 0.6981(4) 0.0729(3)
H118 H 0.0466 0.7111 0.0842
C143 C 0.0077(3) 0.6765(2) 0.0194(3)
C144 C -0.0397(4) 0.6565(4) 0.0373(4)
H119 H -0.0320 0.6475 0.0641
C145 C -0.0984(4) 0.6496(3) 0.0160(5)
H120 H -0.1302 0.6359 0.0284
C146 C -0.1110(4) 0.6626(3) -0.0235(4)
C147 C -0.0629(4) 0.6826(5) -0.0411(3)
H121 H -0.0705 0.6915 -0.0679
C148 C -0.0042(3) 0.6895(5) -0.0199(3)
H122 H 0.0278 0.7031 -0.0323
C149 C -0.1748(4) 0.6562(4) -0.0462(5)
H123 H -0.1749 0.6671 -0.0731
H124 H -0.1853 0.6248 -0.0470
H125 H -0.2058 0.6724 -0.0333
N25 N 0.5333(3) 0.9206(3) 0.2443(2)
N26 N 0.4176(3) 0.9105(2) 0.2055(2)
N27 N 0.1777(3) 0.8897(2) 0.1227(2)
N28 N 0.0665(3) 0.8740(3) 0.0793(2)
C150 C 0.5953(4) 0.9252(4) 0.2631(3)
C151 C 0.6378(5) 0.8904(5) 0.2646(4)
H126 H 0.6254 0.8628 0.2534
C152 C 0.6983(6) 0.8966(5) 0.2826(4)
H127 H 0.7269 0.8728 0.2845
C153 C 0.7176(6) 0.9371(5) 0.2979(5)
C154 C 0.6759(6) 0.9718(5) 0.2952(5)
H128 H 0.6887 0.9998 0.3056
C155 C 0.6146(5) 0.9655(5) 0.2769(4)
H129 H 0.5863 0.9896 0.2741
C156 C 0.7856(6) 0.9440(7) 0.3170(5)
H130 H 0.8082 0.9615 0.2994
H131 H 0.8061 0.9154 0.3215
H132 H 0.7858 0.9593 0.3422
C157 C 0.5054(4) 0.8843(4) 0.2476(3)
H133 H 0.5260 0.8616 0.2633
C158 C 0.4430(4) 0.8768(3) 0.2279(3)
C159 C 0.4104(5) 0.8390(4) 0.2319(4)
H134 H 0.4292 0.8152 0.2469
C160 C 0.3510(5) 0.8360(4) 0.2141(4)
H135 H 0.3281 0.8097 0.2166
C161 C 0.3230(4) 0.8705(3) 0.1925(3)
C162 C 0.3584(4) 0.9074(3) 0.1894(2)
H136 H 0.3398 0.9319 0.1753
C163 C 0.2356(4) 0.8926(3) 0.1406(2)
H137 H 0.2636 0.9120 0.1300
C164 C 0.2575(4) 0.8689(3) 0.1742(3)
C165 C 0.2142(5) 0.8429(4) 0.1893(3)
H138 H 0.2257 0.8278 0.2134
C166 C 0.1550(5) 0.8382(4) 0.1705(3)
H139 H 0.1261 0.8192 0.1807
C167 C 0.1380(4) 0.8614(3) 0.1364(3)
C168 C 0.0789(4) 0.8536(4) 0.1117(3)
H140 H 0.0497 0.8333 0.1198
C169 C 0.0120(5) 0.8607(4) 0.0541(3)
C170 C 0.0065(7) 0.8177(4) 0.0422(5)
H141 H 0.0368 0.7966 0.0522
C171 C -0.0445(8) 0.8056(5) 0.0153(6)
H142 H -0.0474 0.7762 0.0059
C172 C -0.0914(8) 0.8353(5) 0.0018(6)
C173 C -0.0833(5) 0.8782(4) 0.0133(4)
H143 H -0.1140 0.8993 0.0040
C174 C -0.0310(4) 0.8911(4) 0.0381(3)
H144 H -0.0248 0.9213 0.0443
C175 C -0.1494(9) 0.8203(7) -0.0243(7)
H145 H -0.1837 0.8167 -0.0084
H146 H -0.1410 0.7923 -0.0367
H147 H -0.1609 0.8424 -0.0448
N29 N 0.5050(6) 0.5714(4) 0.2911(3)
N30 N 0.3806(5) 0.5699(3) 0.2719(3)
C176 C 0.5704(4) 0.5735(5) 0.2949(4)
C177 C 0.6045(6) 0.5394(4) 0.3146(4)
H148 H 0.5834 0.5147 0.3235
C178 C 0.6695(6) 0.5416(4) 0.3212(4)
H149 H 0.6923 0.5183 0.3347
C179 C 0.7018(4) 0.5777(4) 0.3084(4)
C180 C 0.6669(6) 0.6118(4) 0.2888(5)
H150 H 0.6879 0.6366 0.2799
C181 C 0.6019(6) 0.6098(5) 0.2820(5)
H151 H 0.5790 0.6331 0.2686
C182 C 0.7721(4) 0.5795(7) 0.3148(7)
H152 H 0.7871 0.5699 0.3416
H153 H 0.7860 0.6097 0.3110
H154 H 0.7889 0.5601 0.2958
C183 C 0.4735(7) 0.6063(5) 0.2944(4)
H155 H 0.4948 0.6322 0.3041
C184 C 0.4065(7) 0.6082(5) 0.2840(4)
C185 C 0.3735(8) 0.6462(5) 0.2846(6)
H156 H 0.3934 0.6728 0.2936
C186 C 0.3131(8) 0.6452(5) 0.2723(5)
H157 H 0.2894 0.6714 0.2735
C187 C 0.2832(6) 0.6079(4) 0.2578(4)
C188 C 0.3194(7) 0.5704(4) 0.2588(3)
H158 H 0.3000 0.5436 0.2498
C189 C 0.6248(4) 0.7289(6) 0.1774(4)
C190 C 0.7055(6) 0.7612(7) 0.2234(5)
C191 C 0.6426(5) 0.7556(6) 0.2099(5)
C192 C 0.7506(4) 0.7402(7) 0.2046(5)
C193 C 0.6699(5) 0.7079(5) 0.1586(4)
H159 H 0.6578 0.6896 0.1364
C194 C 0.7328(5) 0.7135(6) 0.1722(5)
H160 H 0.7636 0.6992 0.1593
H161 H 0.6118 0.7699 0.2227
C195 C 0.8199(7) 0.7492(12) 0.2193(10)
H162 H 0.8411 0.7213 0.2266
H163 H 0.8397 0.7632 0.1983
N29A N -0.0050(6) 0.5714(4) 0.2089(3)
N30A N 0.1194(5) 0.5699(3) 0.2281(3)
C176A C -0.0704(4) 0.5735(5) 0.2051(4)
C177A C -0.1045(6) 0.5394(4) 0.1854(4)
H148A H -0.0834 0.5147 0.1765
C178A C -0.1695(6) 0.5416(4) 0.1788(4)
H149A H -0.1923 0.5183 0.1653
C179A C -0.2018(4) 0.5777(4) 0.1916(4)
C180A C -0.1669(6) 0.6118(4) 0.2112(5)
H150A H -0.1879 0.6366 0.2201
C181A C -0.1019(6) 0.6098(5) 0.2180(5)
H151A H -0.0790 0.6331 0.2314
C182A C -0.2721(4) 0.5795(7) 0.1852(7)
H152A H -0.2871 0.5699 0.1584
H153A H -0.2860 0.6097 0.1890
H154A H -0.2889 0.5601 0.2042
C183A C 0.0265(7) 0.6063(5) 0.2056(4)
H155A H 0.0052 0.6322 0.1959
C184A C 0.0935(7) 0.6082(5) 0.2160(4)
C185A C 0.1265(8) 0.6462(5) 0.2154(6)
H156A H 0.1066 0.6728 0.2064
C186A C 0.1869(8) 0.6452(5) 0.2277(5)
H157A H 0.2106 0.6714 0.2265
C187A C 0.2168(6) 0.6079(4) 0.2422(4)
C188A C 0.1806(7) 0.5704(4) 0.2412(3)
H158A H 0.2000 0.5436 0.2502
Zn1A Zn 0.13790(6) 0.92331(5) 0.07145(4)
Zn2A Zn 0.02048(6) 0.96395(5) 0.29847(4)
Zn3A Zn -0.01645(7) 0.70326(6) 0.39582(4)
Zn4A Zn 0.05866(9) 0.51580(5) 0.22312(4)
Zn5A Zn 0.15672(7) 0.65733(6) 0.01872(4)
N1A N 0.0894(4) 0.9639(3) 0.0215(2)
N2A N 0.0958(3) 0.9759(3) 0.1004(2)
N3A N 0.0671(4) 1.0031(3) 0.2607(2)
N4A N 0.0855(4) 1.0039(3) 0.3401(2)
C1A C 0.0896(5) 0.9571(4) -0.0198(3)
C2A C 0.0725(5) 0.9159(4) -0.0352(3)
H1A H 0.0613 0.8933 -0.0183
C3A C 0.0717(6) 0.9075(5) -0.0756(3)
H2A H 0.0593 0.8796 -0.0861
C4A C 0.0891(7) 0.9405(5) -0.0999(3)
C5A C 0.1081(7) 0.9808(5) -0.0838(3)
H3A H 0.1211 1.0031 -0.1005
C6A C 0.1086(5) 0.9896(4) -0.0441(3)
H4A H 0.1218 1.0175 -0.0336
C7A C 0.0863(9) 0.9309(7) -0.1444(3)
H5A H 0.0448 0.9383 -0.1577
H6A H 0.0947 0.8997 -0.1483
H7A H 0.1178 0.9486 -0.1554
C8A C 0.0764(5) 1.0017(4) 0.0340(3)
H8A H 0.0640 1.0244 0.0157
C9A C 0.0803(4) 1.0105(3) 0.0764(3)
C10A C 0.0704(5) 1.0523(3) 0.0901(3)
H9A H 0.0604 1.0759 0.0722
C11A C 0.0754(5) 1.0590(4) 0.1299(3)
H10A H 0.0700 1.0876 0.1400
C12A C 0.0885(5) 1.0239(3) 0.1554(3)
C13A C 0.0981(4) 0.9832(3) 0.1392(3)
H11A H 0.1068 0.9591 0.1565
C14A C 0.0645(5) 0.9995(3) 0.2219(3)
H12A H 0.0423 0.9754 0.2092
C15A C 0.0928(5) 1.0295(3) 0.1986(3)
C16A C 0.1258(5) 1.0641(4) 0.2178(3)
H13A H 0.1454 1.0854 0.2031
C17A C 0.1299(6) 1.0676(4) 0.2580(3)
H14A H 0.1516 1.0915 0.2714
C18A C 0.1020(5) 1.0358(3) 0.2788(3)
C19A C 0.1080(5) 1.0358(4) 0.3223(3)
H15A H 0.1284 1.0594 0.3368
C20A C 0.0886(5) 1.0044(3) 0.3820(3)
C21A C 0.0767(6) 1.0423(4) 0.4021(3)
H16A H 0.0693 1.0693 0.3884
C22A C 0.0756(6) 1.0405(5) 0.4425(3)
H17A H 0.0665 1.0663 0.4563
C23A C 0.0877(6) 1.0013(4) 0.4631(3)
C24A C 0.0990(5) 0.9639(4) 0.4423(3)
H18A H 0.1061 0.9368 0.4559
C25A C 0.1002(5) 0.9653(4) 0.4021(3)
H19A H 0.1090 0.9394 0.3883
C26A C 0.0860(7) 1.0002(6) 0.5075(3)
H20A H 0.0796 0.9699 0.5158
H21A H 0.0517 1.0186 0.5142
H22A H 0.1256 1.0112 0.5210
N5A N -0.0500(4) 1.0144(3) 0.3094(2)
N6A N -0.0218(3) 0.9363(3) 0.3462(2)
N7A N 0.0006(4) 0.7675(3) 0.4193(2)
N8A N 0.0377(4) 0.6907(3) 0.4545(2)
C27A C -0.0740(8) 1.0532(5) 0.2879(5)
C28A C -0.1359(9) 1.0571(7) 0.2724(6)
H23A H -0.1651 1.0349 0.2771
C29A C -0.1550(10) 1.0934(7) 0.2498(7)
H24A H -0.1972 1.0957 0.2382
C30A C -0.1133(11) 1.1264(7) 0.2440(8)
C31A C -0.0505(11) 1.1193(8) 0.2543(8)
H25A H -0.0207 1.1380 0.2448
C32A C -0.0311(9) 1.0841(7) 0.2791(7)
H26A H 0.0115 1.0814 0.2898
C33A C -0.1370(16) 1.1670(9) 0.2203(10)
H27A H -0.1105 1.1922 0.2288
H28A H -0.1800 1.1732 0.2248
H29A H -0.1356 1.1615 0.1923
C34A C -0.0744(5) 1.0056(4) 0.3405(3)
H30A H -0.1022 1.0261 0.3499
C35A C -0.0607(4) 0.9648(3) 0.3619(3)
C36A C -0.0854(5) 0.9558(4) 0.3962(3)
H31A H -0.1130 0.9760 0.4063
C37A C -0.0696(5) 0.9178(4) 0.4153(3)
H32A H -0.0853 0.9117 0.4394
C38A C -0.0308(5) 0.8874(3) 0.4005(3)
C39A C -0.0083(5) 0.8986(4) 0.3652(3)
H33A H 0.0180 0.8782 0.3542
C40A C -0.0141(5) 0.8057(3) 0.4018(3)
H34A H -0.0274 0.8053 0.3742
C41A C -0.0114(5) 0.8463(3) 0.4209(3)
C42A C 0.0083(6) 0.8453(4) 0.4613(3)
H35A H 0.0105 0.8717 0.4762
C43A C 0.0244(6) 0.8062(4) 0.4792(3)
H36A H 0.0378 0.8057 0.5067
C44A C 0.0215(5) 0.7678(4) 0.4583(3)
C45A C 0.0385(6) 0.7251(4) 0.4758(3)
H37A H 0.0503 0.7229 0.5034
C46A C 0.0512(5) 0.6484(4) 0.4712(3)
C47A C 0.0318(6) 0.6360(4) 0.5063(3)
H38A H 0.0112 0.6563 0.5213
C48A C 0.0430(6) 0.5931(4) 0.5195(4)
H39A H 0.0307 0.5847 0.5441
C49A C 0.0712(6) 0.5620(4) 0.4980(4)
C50A C 0.0918(5) 0.5759(4) 0.4632(3)
H40A H 0.1134 0.5560 0.4484
C51A C 0.0812(5) 0.6178(4) 0.4501(3)
H41A H 0.0947 0.6264 0.4258
C52A C 0.0801(7) 0.5149(4) 0.5124(5)
H42A H 0.1162 0.5133 0.5328
H43A H 0.0872 0.4959 0.4903
H44A H 0.0427 0.5051 0.5233
N9A N -0.0946(4) 0.6916(3) 0.4303(2)
N10A N -0.0370(4) 0.6348(3) 0.3873(2)
N11A N 0.0558(5) 0.5121(3) 0.2847(3)
N12A N 0.1327(5) 0.4655(3) 0.2435(3)
C53A C -0.1180(5) 0.7230(4) 0.4556(3)
C54A C -0.1353(5) 0.7640(4) 0.4413(4)
H45A H -0.1361 0.7698 0.4140
C55A C -0.1513(6) 0.7965(5) 0.4656(4)
H46A H -0.1630 0.8246 0.4550
C56A C -0.1507(9) 0.7890(5) 0.5055(4)
C57A C -0.1362(9) 0.7468(5) 0.5195(4)
H47A H -0.1381 0.7405 0.5465
C58A C -0.1193(7) 0.7141(5) 0.4953(3)
H48A H -0.1085 0.6858 0.5056
C59A C -0.1634(11) 0.8267(6) 0.5333(5)
H49A H -0.1238 0.8403 0.5441
H50A H -0.1843 0.8151 0.5549
H51A H -0.1902 0.8487 0.5187
C60A C -0.1047(6) 0.6511(4) 0.4349(3)
H52A H -0.1306 0.6420 0.4539
C61A C -0.0770(5) 0.6184(4) 0.4114(3)
C62A C -0.0873(6) 0.5743(4) 0.4152(4)
H53A H -0.1147 0.5641 0.4328
C63A C -0.0577(5) 0.5451(4) 0.3935(3)
H54A H -0.0648 0.5144 0.3956
C64A C -0.0170(5) 0.5607(4) 0.3682(3)
C65A C -0.0085(5) 0.6057(3) 0.3666(3)
H55A H 0.0196 0.6166 0.3496
C66A C 0.0236(5) 0.5375(4) 0.3062(3)
H56A H 0.0025 0.5621 0.2937
C67A C 0.0187(5) 0.5305(4) 0.3461(3)
C68A C 0.0502(6) 0.4939(4) 0.3631(3)
H57A H 0.0476 0.4871 0.3899
C69A C 0.0850(6) 0.4676(4) 0.3417(3)
H58A H 0.1069 0.4430 0.3536
C70A C 0.0876(5) 0.4774(4) 0.3027(3)
C71A C 0.1262(6) 0.4525(4) 0.2785(3)
H59A H 0.1467 0.4265 0.2886
C72A C 0.1679(6) 0.4402(4) 0.2189(3)
C73A C 0.2026(6) 0.4621(4) 0.1937(3)
H60A H 0.2040 0.4933 0.1937
C74A C 0.2352(7) 0.4386(4) 0.1686(4)
H61A H 0.2598 0.4539 0.1519
C75A C 0.2330(8) 0.3933(5) 0.1672(4)
C76A C 0.1980(8) 0.3718(5) 0.1926(4)
H62A H 0.1961 0.3407 0.1921
C77A C 0.1656(8) 0.3946(4) 0.2188(4)
H63A H 0.1424 0.3793 0.2363
C78A C 0.2692(10) 0.3677(6) 0.1391(5)
H64A H 0.2754 0.3864 0.1165
H65A H 0.2456 0.3414 0.1298
H66A H 0.3099 0.3590 0.1529
N13A N 0.0005(5) 0.4572(3) 0.2105(3)
N14A N 0.0681(4) 0.5007(3) 0.1620(2)
N15A N 0.1748(4) 0.5922(3) 0.0413(2)
N16A N 0.2499(4) 0.6406(3) 0.0008(3)
C79A C -0.0265(7) 0.4317(4) 0.2390(4)
C80A C -0.0128(8) 0.3873(5) 0.2443(4)
H67A H 0.0159 0.3731 0.2295
C81A C -0.0427(9) 0.3643(6) 0.2721(5)
H68A H -0.0351 0.3337 0.2760
C82A C -0.0832(11) 0.3858(6) 0.2940(6)
C83A C -0.0983(9) 0.4299(5) 0.2875(5)
H69A H -0.1295 0.4437 0.3005
C84A C -0.0666(7) 0.4528(5) 0.2616(4)
H70A H -0.0722 0.4837 0.2592
C85A C -0.1180(14) 0.3612(8) 0.3239(8)
H71A H -0.0878 0.3503 0.3456
H72A H -0.1408 0.3363 0.3109
H73A H -0.1474 0.3812 0.3344
C86A C 0.0102(6) 0.4382(4) 0.1788(3)
H74A H -0.0065 0.4098 0.1728
C87A C 0.0467(6) 0.4597(4) 0.1516(3)
C88A C 0.0607(6) 0.4391(4) 0.1183(3)
H75A H 0.0458 0.4103 0.1121
C89A C 0.0967(6) 0.4606(4) 0.0941(3)
H76A H 0.1074 0.4465 0.0711
C90A C 0.1174(5) 0.5030(4) 0.1030(3)
C91A C 0.1019(5) 0.5213(4) 0.1374(3)
H77A H 0.1161 0.5502 0.1440
C92A C 0.1427(5) 0.5701(4) 0.0654(3)
H78A H 0.1092 0.5847 0.0755
C93A C 0.1554(5) 0.5267(4) 0.0767(3)
C94A C 0.2051(5) 0.5066(4) 0.0613(4)
H79A H 0.2154 0.4769 0.0677
C95A C 0.2389(6) 0.5296(4) 0.0370(3)
H80A H 0.2728 0.5161 0.0265
C96A C 0.2234(5) 0.5725(4) 0.0278(3)
C97A C 0.2597(5) 0.5989(4) 0.0034(3)
H81A H 0.2902 0.5856 -0.0104
C98A C 0.2834(6) 0.6657(4) -0.0246(3)
C99A C 0.3008(6) 0.7082(4) -0.0124(4)
H82A H 0.2936 0.7186 0.0128
C100A C 0.3288(6) 0.7346(5) -0.0379(4)
H83A H 0.3423 0.7631 -0.0293
C101A C 0.3379(8) 0.7212(5) -0.0755(4)
C102A C 0.3205(7) 0.6788(5) -0.0863(4)
H84A H 0.3282 0.6682 -0.1113
C103A C 0.2922(6) 0.6514(4) -0.0617(3)
H85A H 0.2789 0.6229 -0.0703
C104A C 0.3657(12) 0.7518(6) -0.1036(6)
H86A H 0.3369 0.7545 -0.1280
H87A H 0.4056 0.7397 -0.1096
H88A H 0.3727 0.7808 -0.0914
N17A N 0.1219(4) 0.6344(3) -0.0402(3)
N18A N 0.1572(4) 0.7156(3) -0.0163(2)
N19A N 0.1873(3) 0.8904(3) 0.0309(2)
N20A N 0.2196(3) 0.9678(3) 0.0657(2)
C105A C 0.1053(5) 0.5902(4) -0.0509(3)
C106A C 0.0627(6) 0.5682(4) -0.0317(3)
H89A H 0.0442 0.5826 -0.0114
C107A C 0.0464(6) 0.5256(4) -0.0412(4)
H90A H 0.0163 0.5113 -0.0278
C108A C 0.0732(6) 0.5031(4) -0.0702(4)
C109A C 0.1160(6) 0.5255(4) -0.0896(4)
H91A H 0.1347 0.5109 -0.1096
C110A C 0.1324(6) 0.5687(4) -0.0807(3)
H92A H 0.1617 0.5834 -0.0946
C111A C 0.0544(7) 0.4565(4) -0.0823(5)
H93A H 0.0172 0.4572 -0.1019
H94A H 0.0451 0.4400 -0.0591
H95A H 0.0886 0.4421 -0.0936
C112A C 0.1300(5) 0.6624(4) -0.0663(3)
H96A H 0.1245 0.6539 -0.0932
C113A C 0.1477(6) 0.7075(4) -0.0558(3)
C114A C 0.1576(6) 0.7392(4) -0.0829(3)
H97A H 0.1519 0.7323 -0.1102
C115A C 0.1757(6) 0.7804(4) -0.0708(3)
H98A H 0.1828 0.8022 -0.0896
C116A C 0.1835(5) 0.7901(4) -0.0309(3)
C117A C 0.1735(5) 0.7562(4) -0.0056(3)
H99A H 0.1787 0.7626 0.0218
C118A C 0.1733(5) 0.8516(4) 0.0153(3)
H100A H 0.1417 0.8349 0.0254
C119A C 0.2021(5) 0.8337(4) -0.0151(3)
C120A C 0.2469(6) 0.8594(4) -0.0295(4)
H101A H 0.2677 0.8487 -0.0505
C121A C 0.2616(6) 0.9003(4) -0.0139(4)
H102A H 0.2920 0.9181 -0.0239
C122A C 0.2311(5) 0.9147(4) 0.0168(3)
C123A C 0.2461(4) 0.9568(4) 0.0357(3)
H103A H 0.2753 0.9760 0.0260
C124A C 0.2312(4) 1.0100(3) 0.0831(3)
C125A C 0.2364(5) 1.0467(4) 0.0598(3)
H104A H 0.2348 1.0437 0.0321
C126A C 0.2441(6) 1.0880(4) 0.0773(3)
H105A H 0.2477 1.1132 0.0614
C127A C 0.2464(6) 1.0926(4) 0.1176(4)
C128A C 0.2430(5) 1.0555(4) 0.1403(3)
H106A H 0.2466 1.0582 0.1681
C129A C 0.2344(5) 1.0146(4) 0.1233(3)
H107A H 0.2307 0.9895 0.1394
C130A C 0.2502(8) 1.1377(4) 0.1366(5)
H108A H 0.2733 1.1577 0.1212
H109A H 0.2719 1.1355 0.1635
H110A H 0.2080 1.1492 0.1374
N21A N -0.0608(4) 0.7165(4) 0.3358(3)
N22A N 0.0607(4) 0.7067(3) 0.3638(2)
N23A N 0.3109(4) 0.6856(3) 0.4262(2)
N24A N 0.4309(4) 0.6774(3) 0.4592(3)
C131A C -0.0210(4) 0.7170(4) 0.3116(3)
H111A H -0.0350 0.7202 0.2843
C132A C 0.0455(4) 0.7127(4) 0.3245(2)
C133A C 0.0899(5) 0.7141(5) 0.2997(3)
H112A H 0.0786 0.7168 0.2721
C134A C 0.1512(5) 0.7116(5) 0.3154(3)
H113A H 0.1827 0.7129 0.2984
C135A C 0.1683(4) 0.7072(4) 0.3555(2)
C136A C 0.1203(4) 0.7050(3) 0.3784(3)
H114A H 0.1306 0.7021 0.4061
C137A C 0.2531(5) 0.6870(3) 0.4093(3)
H115A H 0.2220 0.6734 0.4225
C138A C 0.2341(4) 0.7069(3) 0.3732(2)
C139A C 0.2816(5) 0.7249(4) 0.3544(3)
H116A H 0.2719 0.7389 0.3296
C140A C 0.3423(5) 0.7225(4) 0.3716(3)
H117A H 0.3747 0.7348 0.3587
C141A C 0.3564(4) 0.7024(3) 0.4073(3)
C142A C 0.4199(5) 0.6981(4) 0.4271(3)
H118A H 0.4534 0.7111 0.4158
C143A C 0.4923(3) 0.6765(2) 0.4806(3)
C144A C 0.5397(4) 0.6565(4) 0.4627(4)
H119A H 0.5320 0.6475 0.4359
C145A C 0.5984(4) 0.6496(3) 0.4840(5)
H120A H 0.6302 0.6359 0.4716
C146A C 0.6110(4) 0.6626(3) 0.5235(4)
C147A C 0.5629(4) 0.6826(5) 0.5411(3)
H121A H 0.5705 0.6915 0.5679
C148A C 0.5042(3) 0.6895(5) 0.5199(3)
H122A H 0.4722 0.7031 0.5323
C149A C 0.6748(4) 0.6562(4) 0.5462(5)
H123A H 0.6749 0.6671 0.5731
H124A H 0.6853 0.6248 0.5470
H125A H 0.7058 0.6724 0.5333
N25A N -0.0333(3) 0.9206(3) 0.2557(2)
N26A N 0.0824(3) 0.9105(2) 0.2945(2)
N27A N 0.3223(3) 0.8897(2) 0.3773(2)
N28A N 0.4335(3) 0.8740(3) 0.4207(2)
C150A C -0.0953(4) 0.9252(4) 0.2369(3)
C151A C -0.1378(5) 0.8904(5) 0.2354(4)
H126A H -0.1254 0.8628 0.2466
C152A C -0.1983(6) 0.8966(5) 0.2174(4)
H127A H -0.2269 0.8728 0.2155
C153A C -0.2176(6) 0.9371(5) 0.2021(5)
C154A C -0.1759(6) 0.9718(5) 0.2048(5)
H128A H -0.1887 0.9998 0.1944
C155A C -0.1146(5) 0.9655(5) 0.2231(4)
H129A H -0.0863 0.9896 0.2259
C156A C -0.2856(6) 0.9440(7) 0.1830(5)
H130A H -0.3082 0.9615 0.2006
H131A H -0.3061 0.9154 0.1785
H132A H -0.2858 0.9593 0.1578
C157A C -0.0054(4) 0.8843(4) 0.2524(3)
H133A H -0.0260 0.8616 0.2367
C158A C 0.0570(4) 0.8768(3) 0.2721(3)
C159A C 0.0896(5) 0.8390(4) 0.2681(4)
H134A H 0.0708 0.8152 0.2531
C160A C 0.1490(5) 0.8360(4) 0.2859(4)
H135A H 0.1719 0.8097 0.2834
C161A C 0.1770(4) 0.8705(3) 0.3075(3)
C162A C 0.1416(4) 0.9074(3) 0.3106(2)
H136A H 0.1602 0.9319 0.3247
C163A C 0.2644(4) 0.8926(3) 0.3594(2)
H137A H 0.2364 0.9120 0.3700
C164A C 0.2425(4) 0.8689(3) 0.3258(3)
C165A C 0.2858(5) 0.8429(4) 0.3107(3)
H138A H 0.2743 0.8278 0.2866
C166A C 0.3450(5) 0.8382(4) 0.3295(3)
H139A H 0.3739 0.8192 0.3193
C167A C 0.3620(4) 0.8614(3) 0.3636(3)
C168A C 0.4211(4) 0.8536(4) 0.3883(3)
H140A H 0.4503 0.8333 0.3802
C169A C 0.4880(5) 0.8607(4) 0.4459(3)
C170A C 0.4935(7) 0.8177(4) 0.4578(5)
H141A H 0.4632 0.7966 0.4478
C171A C 0.5445(8) 0.8056(5) 0.4847(6)
H142A H 0.5474 0.7762 0.4941
C172A C 0.5914(8) 0.8353(5) 0.4982(6)
C173A C 0.5833(5) 0.8782(4) 0.4867(4)
H143A H 0.6140 0.8993 0.4960
C174A C 0.5310(4) 0.8911(4) 0.4619(3)
H144A H 0.5248 0.9213 0.4557
C175A C 0.6494(9) 0.8203(7) 0.5243(7)
H145A H 0.6837 0.8167 0.5084
H146A H 0.6410 0.7923 0.5367
H147A H 0.6609 0.8424 0.5448
C189A C -0.1248(4) 0.7289(6) 0.3226(4)
C190A C -0.2055(6) 0.7612(7) 0.2766(5)
C191A C -0.1426(5) 0.7556(6) 0.2901(5)
C192A C -0.2506(4) 0.7402(7) 0.2954(5)
C193A C -0.1699(5) 0.7079(5) 0.3414(4)
H159A H -0.1578 0.6896 0.3636
C194A C -0.2328(5) 0.7135(6) 0.3278(5)
H160A H -0.2636 0.6992 0.3407
H161A H -0.1118 0.7699 0.2773
C195A C -0.3199(7) 0.7492(12) 0.2807(10)
H162A H -0.3411 0.7213 0.2734
H163A H -0.3397 0.7632 0.3017
S1 S 0.5057(4) 0.7508(3) 0.3038(3)
O1 O 0.5311(7) 0.7840(5) 0.2793(4)
O2 O 0.4413(5) 0.7571(5) 0.3065(5)
O3 O 0.5134(9) 0.7071(5) 0.2855(5)
C196 C 0.5562(7) 0.7483(5) 0.3479(4)
C197 C 0.5648(10) 0.7855(6) 0.3713(5)
H164 H 0.5423 0.8117 0.3642
C198 C 0.6067(10) 0.7839(6) 0.4053(5)
H165 H 0.6135 0.8095 0.4211
C199 C 0.6391(9) 0.7458(7) 0.4168(5)
C200 C 0.6294(10) 0.7089(6) 0.3929(6)
H166 H 0.6513 0.6825 0.4003
C201 C 0.5884(10) 0.7099(6) 0.3582(5)
H167 H 0.5826 0.6846 0.3419
C202 C 0.6850(15) 0.7448(10) 0.4538(7)
H168 H 0.7033 0.7153 0.4573
H169 H 0.7182 0.7663 0.4516
H170 H 0.6635 0.7520 0.4765
Cl1 Cl 0.3205(2) 0.81561(13) 0.08431(11)
O4 O 0.3264(5) 0.8595(3) 0.0737(3)
O5 O 0.3391(5) 0.7863(3) 0.0566(3)
O6 O 0.2569(4) 0.8077(3) 0.0889(3)
O7 O 0.3579(5) 0.8085(4) 0.1202(2)
Cl2 Cl 0.3024(2) 0.58172(13) 0.14779(10)
O8 O 0.3498(5) 0.6024(4) 0.1734(3)
O9 O 0.2447(5) 0.6029(4) 0.1502(4)
O10 O 0.3152(6) 0.5866(4) 0.1094(2)
O11 O 0.2953(6) 0.5386(3) 0.1598(3)
Cl3 Cl 0.2500 0.96451(16) 0.2500
O12 O 0.1997(5) 0.9376(4) 0.2348(3)
O13 O 0.2315(5) 0.9895(3) 0.2809(3)
O12A O 0.3003(5) 0.9376(4) 0.2652(3)
O13A O 0.2685(5) 0.9895(3) 0.2191(3)
Cl4 Cl 0.14403(19) 0.41214(17) 0.45380(12)
O14 O 0.1381(5) 0.4106(4) 0.4939(2)
O15 O 0.1567(9) 0.3670(4) 0.4437(5)
O16 O 0.1924(8) 0.4367(7) 0.4428(6)
O17 O 0.0865(5) 0.4217(7) 0.4314(4)
Cl5 Cl 0.5132(7) 0.3129(5) 0.3517(5)
O18 O 0.4982(13) 0.3257(10) 0.3879(6)
O19 O 0.5648(10) 0.3383(8) 0.3454(8)
O20 O 0.4619(11) 0.3208(9) 0.3244(7)
O21 O 0.5265(14) 0.2684(7) 0.3481(11)
Cl6 Cl 0.6915(12) 0.4590(9) 0.1238(7)
O22 O 0.6292(15) 0.4454(19) 0.1101(16)
O23 O 0.7301(16) 0.4212(10) 0.1292(11)
O24 O 0.7119(19) 0.4883(13) 0.0961(11)
O25 O 0.6906(15) 0.4800(11) 0.1597(9)
Cl7 Cl 0.7527(6) 0.9373(5) 0.4455(4)
O26 O 0.7115(11) 0.9096(9) 0.4604(9)
O27 O 0.7585(9) 0.9795(7) 0.4636(5)
O28 O 0.7401(11) 0.9433(9) 0.4045(4)
O29 O 0.8104(9) 0.9156(9) 0.4515(8)
Cl8 Cl 0.4183(7) 0.8858(5) -0.0719(4)
O30 O 0.4114(12) 0.8962(8) -0.0328(5)
O31 O 0.4231(11) 0.9235(7) -0.0938(6)
O32 O 0.4777(10) 0.8637(8) -0.0717(8)
O33 O 0.3662(10) 0.8602(9) -0.0856(7)
Br1 Br 0.2500 0.7516(3) 0.2500
N31 N -0.0007(7) 0.9114(5) 0.1605(4)
C203 C -0.0502(8) 0.9052(7) 0.1453(4)
C204 C -0.1122(8) 0.8909(9) 0.1287(6)
H171 H -0.1107 0.8600 0.1207
H172 H -0.1269 0.9090 0.1057
H173 H -0.1410 0.8940 0.1485
C205 C 0.7688(13) 0.5598(9) 0.0407(7)
H174 H 0.7720 0.5314 0.0542
H175 H 0.7325 0.5597 0.0204
H176 H 0.8067 0.5651 0.0284
C206 C 0.7615(13) 0.5945(11) 0.0690(10)
N32 N 0.7551(17) 0.6299(12) 0.0836(11)
O34 O 0.4644(3) 0.6273(2) 0.37338(17)
H177 H 0.4647 0.6574 0.3650
H178 H 0.4221 0.6169 0.3693
loop_
_geom_bond_atom_site_label_1
_geom_bond_atom_site_label_2
_geom_bond_site_symmetry_1
_geom_bond_site_symmetry_2
Zn1 N1 1_555 1_555
Zn2 N3 1_555 1_555
Zn3 N7 1_555 1_555
Zn4 N11 1_555 1_555
Zn5 N15 1_555 1_555
N1 C1 1_555 1_555
N2 Zn1 1_555 1_555
N3 C14 1_555 1_555
N4 Zn2 1_555 1_555
C1 C2 1_555 1_555
C2 H1 1_555 1_555
C3 C2 1_555 1_555
H2 C3 1_555 1_555
C4 C3 1_555 1_555
C5 C4 1_555 1_555
H3 C5 1_555 1_555
C6 C1 1_555 1_555
H4 C6 1_555 1_555
C7 C4 1_555 1_555
H5 C7 1_555 1_555
H6 C7 1_555 1_555
H7 C7 1_555 1_555
C8 N1 1_555 1_555
H8 C8 1_555 1_555
C9 N2 1_555 1_555
C10 C9 1_555 1_555
H9 C10 1_555 1_555
C11 C10 1_555 1_555
H10 C11 1_555 1_555
C12 C11 1_555 1_555
C13 N2 1_555 1_555
H11 C13 1_555 1_555
C14 H12 1_555 1_555
C15 C12 1_555 1_555
C16 C15 1_555 1_555
H13 C16 1_555 1_555
C17 C16 1_555 1_555
H14 C17 1_555 1_555
C18 N3 1_555 1_555
C19 N4 1_555 1_555
H15 C19 1_555 1_555
C20 N4 1_555 1_555
C21 C20 1_555 1_555
H16 C21 1_555 1_555
C22 C21 1_555 1_555
H17 C22 1_555 1_555
C23 C22 1_555 1_555
C24 C23 1_555 1_555
H18 C24 1_555 1_555
C25 C20 1_555 1_555
H19 C25 1_555 1_555
C26 C23 1_555 1_555
H20 C26 1_555 1_555
H21 C26 1_555 1_555
H22 C26 1_555 1_555
N5 Zn2 1_555 1_555
N6 Zn2 1_555 1_555
N7 C40 1_555 1_555
N8 Zn3 1_555 1_555
C27 N5 1_555 1_555
C28 C27 1_555 1_555
H23 C28 1_555 1_555
C29 C28 1_555 1_555
H24 C29 1_555 1_555
C30 C29 1_555 1_555
C31 C30 1_555 1_555
H25 C31 1_555 1_555
C32 C27 1_555 1_555
H26 C32 1_555 1_555
C33 C30 1_555 1_555
H27 C33 1_555 1_555
H28 C33 1_555 1_555
H29 C33 1_555 1_555
C34 N5 1_555 1_555
H30 C34 1_555 1_555
C35 N6 1_555 1_555
C36 C35 1_555 1_555
H31 C36 1_555 1_555
C37 C36 1_555 1_555
H32 C37 1_555 1_555
C38 C37 1_555 1_555
C39 N6 1_555 1_555
H33 C39 1_555 1_555
C40 H34 1_555 1_555
C41 C38 1_555 1_555
C42 C41 1_555 1_555
H35 C42 1_555 1_555
C43 C42 1_555 1_555
H36 C43 1_555 1_555
C44 N7 1_555 1_555
C45 N8 1_555 1_555
H37 C45 1_555 1_555
C46 N8 1_555 1_555
C47 C46 1_555 1_555
H38 C47 1_555 1_555
C48 C47 1_555 1_555
H39 C48 1_555 1_555
C49 C48 1_555 1_555
C50 C49 1_555 1_555
H40 C50 1_555 1_555
C51 C46 1_555 1_555
H41 C51 1_555 1_555
C52 C49 1_555 1_555
H42 C52 1_555 1_555
H43 C52 1_555 1_555
H44 C52 1_555 1_555
N9 Zn3 1_555 1_555
N10 Zn3 1_555 1_555
N11 C66 1_555 1_555
N12 Zn4 1_555 1_555
C53 N9 1_555 1_555
C54 C53 1_555 1_555
H45 C54 1_555 1_555
C55 C54 1_555 1_555
H46 C55 1_555 1_555
C56 C55 1_555 1_555
C57 C56 1_555 1_555
H47 C57 1_555 1_555
C58 C53 1_555 1_555
H48 C58 1_555 1_555
C59 C56 1_555 1_555
H49 C59 1_555 1_555
H50 C59 1_555 1_555
H51 C59 1_555 1_555
C60 N9 1_555 1_555
H52 C60 1_555 1_555
C61 N10 1_555 1_555
C62 C61 1_555 1_555
H53 C62 1_555 1_555
C63 C62 1_555 1_555
H54 C63 1_555 1_555
C64 C63 1_555 1_555
C65 N10 1_555 1_555
H55 C65 1_555 1_555
C66 H56 1_555 1_555
C67 C64 1_555 1_555
C68 C67 1_555 1_555
H57 C68 1_555 1_555
C69 C68 1_555 1_555
H58 C69 1_555 1_555
C70 N11 1_555 1_555
C71 N12 1_555 1_555
H59 C71 1_555 1_555
C72 N12 1_555 1_555
C73 C72 1_555 1_555
H60 C73 1_555 1_555
C74 C73 1_555 1_555
H61 C74 1_555 1_555
C75 C74 1_555 1_555
C76 C75 1_555 1_555
H62 C76 1_555 1_555
C77 C72 1_555 1_555
H63 C77 1_555 1_555
C78 C75 1_555 1_555
H64 C78 1_555 1_555
H65 C78 1_555 1_555
H66 C78 1_555 1_555
N13 Zn4 1_555 1_555
N14 Zn4 1_555 1_555
N15 C92 1_555 1_555
N16 Zn5 1_555 1_555
C79 N13 1_555 1_555
C80 C79 1_555 1_555
H67 C80 1_555 1_555
C81 C80 1_555 1_555
H68 C81 1_555 1_555
C82 C81 1_555 1_555
C83 C82 1_555 1_555
H69 C83 1_555 1_555
C84 C79 1_555 1_555
H70 C84 1_555 1_555
C85 C82 1_555 1_555
H71 C85 1_555 1_555
H72 C85 1_555 1_555
H73 C85 1_555 1_555
C86 N13 1_555 1_555
H74 C86 1_555 1_555
C87 N14 1_555 1_555
C88 C87 1_555 1_555
H75 C88 1_555 1_555
C89 C88 1_555 1_555
H76 C89 1_555 1_555
C90 C89 1_555 1_555
C91 N14 1_555 1_555
H77 C91 1_555 1_555
C92 H78 1_555 1_555
C93 C90 1_555 1_555
C94 C93 1_555 1_555
H79 C94 1_555 1_555
C95 C94 1_555 1_555
H80 C95 1_555 1_555
C96 N15 1_555 1_555
C97 N16 1_555 1_555
H81 C97 1_555 1_555
C98 N16 1_555 1_555
C99 C98 1_555 1_555
H82 C99 1_555 1_555
C100 C99 1_555 1_555
H83 C100 1_555 1_555
C101 C100 1_555 1_555
C102 C101 1_555 1_555
H84 C102 1_555 1_555
C103 C98 1_555 1_555
H85 C103 1_555 1_555
C104 C101 1_555 1_555
H86 C104 1_555 1_555
H87 C104 1_555 1_555
H88 C104 1_555 1_555
N17 Zn5 1_555 1_555
N18 Zn5 1_555 1_555
N19 Zn1 1_555 1_555
N20 Zn1 1_555 1_555
C105 N17 1_555 1_555
C106 C105 1_555 1_555
H89 C106 1_555 1_555
C107 C106 1_555 1_555
H90 C107 1_555 1_555
C108 C107 1_555 1_555
C109 C108 1_555 1_555
H91 C109 1_555 1_555
C110 C105 1_555 1_555
H92 C110 1_555 1_555
C111 C108 1_555 1_555
H93 C111 1_555 1_555
H94 C111 1_555 1_555
H95 C111 1_555 1_555
C112 N17 1_555 1_555
H96 C112 1_555 1_555
C113 N18 1_555 1_555
C114 C113 1_555 1_555
H97 C114 1_555 1_555
C115 C114 1_555 1_555
H98 C115 1_555 1_555
C116 C115 1_555 1_555
C117 N18 1_555 1_555
H99 C117 1_555 1_555
C118 N19 1_555 1_555
H100 C118 1_555 1_555
C119 C116 1_555 1_555
C120 C119 1_555 1_555
H101 C120 1_555 1_555
C121 C120 1_555 1_555
H102 C121 1_555 1_555
C122 N19 1_555 1_555
C123 N20 1_555 1_555
H103 C123 1_555 1_555
C124 N20 1_555 1_555
C125 C124 1_555 1_555
H104 C125 1_555 1_555
C126 C125 1_555 1_555
H105 C126 1_555 1_555
C127 C126 1_555 1_555
C128 C127 1_555 1_555
H106 C128 1_555 1_555
C129 C124 1_555 1_555
H107 C129 1_555 1_555
C130 C127 1_555 1_555
H108 C130 1_555 1_555
H109 C130 1_555 1_555
H110 C130 1_555 1_555
N21 Zn3 1_555 1_555
N22 Zn3 1_555 1_555
N23 C137 1_555 1_555
N24 C142 1_555 1_555
C131 N21 1_555 1_555
H111 C131 1_555 1_555
C132 N22 1_555 1_555
C133 C132 1_555 1_555
H112 C133 1_555 1_555
C134 C133 1_555 1_555
H113 C134 1_555 1_555
C135 C134 1_555 1_555
C136 N22 1_555 1_555
H114 C136 1_555 1_555
C137 H115 1_555 1_555
C138 C135 1_555 1_555
C139 C138 1_555 1_555
H116 C139 1_555 1_555
C140 C139 1_555 1_555
H117 C140 1_555 1_555
C141 N23 1_555 1_555
C142 C141 1_555 1_555
H118 C142 1_555 1_555
C143 N24 1_555 1_555
C144 C143 1_555 1_555
H119 C144 1_555 1_555
C145 C144 1_555 1_555
H120 C145 1_555 1_555
C146 C145 1_555 1_555
C147 C146 1_555 1_555
H121 C147 1_555 1_555
C148 C143 1_555 1_555
H122 C148 1_555 1_555
C149 C146 1_555 1_555
H123 C149 1_555 1_555
H124 C149 1_555 1_555
H125 C149 1_555 1_555
N25 Zn2 1_555 1_555
N26 Zn2 1_555 1_555
N27 C163 1_555 1_555
N28 C168 1_555 1_555
C150 N25 1_555 1_555
C151 C150 1_555 1_555
H126 C151 1_555 1_555
C152 C151 1_555 1_555
H127 C152 1_555 1_555
C153 C152 1_555 1_555
C154 C153 1_555 1_555
H128 C154 1_555 1_555
C155 C150 1_555 1_555
H129 C155 1_555 1_555
C156 C153 1_555 1_555
H130 C156 1_555 1_555
H131 C156 1_555 1_555
H132 C156 1_555 1_555
C157 N25 1_555 1_555
H133 C157 1_555 1_555
C158 N26 1_555 1_555
C159 C158 1_555 1_555
H134 C159 1_555 1_555
C160 C159 1_555 1_555
H135 C160 1_555 1_555
C161 C160 1_555 1_555
C162 N26 1_555 1_555
H136 C162 1_555 1_555
C163 H137 1_555 1_555
C164 C161 1_555 1_555
C165 C164 1_555 1_555
H138 C165 1_555 1_555
C166 C165 1_555 1_555
H139 C166 1_555 1_555
C167 N27 1_555 1_555
C168 C167 1_555 1_555
H140 C168 1_555 1_555
C169 N28 1_555 1_555
C170 C169 1_555 1_555
H141 C170 1_555 1_555
C171 C170 1_555 1_555
H142 C171 1_555 1_555
C172 C171 1_555 1_555
C173 C172 1_555 1_555
H143 C173 1_555 1_555
C174 C169 1_555 1_555
H144 C174 1_555 1_555
C175 C172 1_555 1_555
H145 C175 1_555 1_555
H146 C175 1_555 1_555
H147 C175 1_555 1_555
N29 Zn4 1_555 1_555
N30 Zn4 1_555 1_555
C176 N29 1_555 1_555
C177 C176 1_555 1_555
H148 C177 1_555 1_555
C178 C177 1_555 1_555
H149 C178 1_555 1_555
C179 C178 1_555 1_555
C180 C179 1_555 1_555
H150 C180 1_555 1_555
C181 C176 1_555 1_555
H151 C181 1_555 1_555
C182 C179 1_555 1_555
H152 C182 1_555 1_555
H153 C182 1_555 1_555
H154 C182 1_555 1_555
C183 N29 1_555 1_555
H155 C183 1_555 1_555
C184 N30 1_555 1_555
C185 C184 1_555 1_555
H156 C185 1_555 1_555
C186 C185 1_555 1_555
H157 C186 1_555 1_555
C187 C186 1_555 1_555
C188 N30 1_555 1_555
H158 C188 1_555 1_555
C189 N21 1_555 1_555
C190 C191 1_555 1_555
C191 C189 1_555 1_555
C192 C190 1_555 1_555
C193 C189 1_555 1_555
H159 C193 1_555 1_555
C194 C192 1_555 1_555
H160 C194 1_555 1_555
H161 C191 1_555 1_555
C195 C192 1_555 1_555
H162 C195 1_555 1_555
H163 C195 1_555 1_555
S1 O1 1_555 1_555
O2 S1 1_555 1_555
O3 S1 1_555 1_555
C196 S1 1_555 1_555
C197 C196 1_555 1_555
H164 C197 1_555 1_555
C198 C197 1_555 1_555
H165 C198 1_555 1_555
C199 C198 1_555 1_555
C200 C199 1_555 1_555
H166 C200 1_555 1_555
C201 C196 1_555 1_555
H167 C201 1_555 1_555
C202 C199 1_555 1_555
H168 C202 1_555 1_555
H169 C202 1_555 1_555
H170 C202 1_555 1_555
Cl1 O4 1_555 1_555
O5 Cl1 1_555 1_555
O6 Cl1 1_555 1_555
O7 Cl1 1_555 1_555
Cl2 O8 1_555 1_555
O9 Cl2 1_555 1_555
O10 Cl2 1_555 1_555
O11 Cl2 1_555 1_555
Cl3 O12 1_555 1_555
O13 Cl3 1_555 1_555
Cl4 O14 1_555 1_555
O15 Cl4 1_555 1_555
O16 Cl4 1_555 1_555
O17 Cl4 1_555 1_555
Cl5 O18 1_555 1_555
O19 Cl5 1_555 1_555
O20 Cl5 1_555 1_555
O21 Cl5 1_555 1_555
Cl6 O22 1_555 1_555
O23 Cl6 1_555 1_555
O24 Cl6 1_555 1_555
O25 Cl6 1_555 1_555
Cl7 O26 1_555 1_555
O27 Cl7 1_555 1_555
O28 Cl7 1_555 1_555
O29 Cl7 1_555 1_555
Cl8 O30 1_555 1_555
O31 Cl8 1_555 1_555
O32 Cl8 1_555 1_555
O33 Cl8 1_555 1_555
N31 C203 1_555 1_555
C203 C204 1_555 1_555
C204 H171 1_555 1_555
H172 C204 1_555 1_555
H173 C204 1_555 1_555
C205 H174 1_555 1_555
H175 C205 1_555 1_555
H176 C205 1_555 1_555
C206 C205 1_555 1_555
N32 C206 1_555 1_555
O34 H177 1_555 1_555
H178 O34 1_555 1_555
N29A C176A 1_555 1_555
N30A C184A 1_555 1_555
C176A C177A 1_555 1_555
C177A H148A 1_555 1_555
C178A C177A 1_555 1_555
H149A C178A 1_555 1_555
C179A C178A 1_555 1_555
C180A C179A 1_555 1_555
H150A C180A 1_555 1_555
C181A C176A 1_555 1_555
H151A C181A 1_555 1_555
C182A C179A 1_555 1_555
H152A C182A 1_555 1_555
H153A C182A 1_555 1_555
H154A C182A 1_555 1_555
C183A N29A 1_555 1_555
H155A C183A 1_555 1_555
C184A C183A 1_555 1_555
C185A C184A 1_555 1_555
H156A C185A 1_555 1_555
C186A C185A 1_555 1_555
H157A C186A 1_555 1_555
C187A C187 1_555 1_555
C188A N30A 1_555 1_555
H158A C188A 1_555 1_555
Zn1A N27 1_555 1_555
Zn2A N3A 1_555 1_555
Zn3A N7A 1_555 1_555
Zn4A N29A 1_555 1_555
Zn5A N23 1_555 1_555
N1A Zn1A 1_555 1_555
N2A Zn1A 1_555 1_555
N3A C14A 1_555 1_555
N4A Zn2A 1_555 1_555
C1A N1A 1_555 1_555
C2A C1A 1_555 1_555
H1A C2A 1_555 1_555
C3A C2A 1_555 1_555
H2A C3A 1_555 1_555
C4A C3A 1_555 1_555
C5A C4A 1_555 1_555
H3A C5A 1_555 1_555
C6A C1A 1_555 1_555
H4A C6A 1_555 1_555
C7A C4A 1_555 1_555
H5A C7A 1_555 1_555
H6A C7A 1_555 1_555
H7A C7A 1_555 1_555
C8A N1A 1_555 1_555
H8A C8A 1_555 1_555
C9A N2A 1_555 1_555
C10A C9A 1_555 1_555
H9A C10A 1_555 1_555
C11A C10A 1_555 1_555
H10A C11A 1_555 1_555
C12A C11A 1_555 1_555
C13A N2A 1_555 1_555
H11A C13A 1_555 1_555
C14A H12A 1_555 1_555
C15A C12A 1_555 1_555
C16A C15A 1_555 1_555
H13A C16A 1_555 1_555
C17A C16A 1_555 1_555
H14A C17A 1_555 1_555
C18A N3A 1_555 1_555
C19A N4A 1_555 1_555
H15A C19A 1_555 1_555
C20A N4A 1_555 1_555
C21A C20A 1_555 1_555
H16A C21A 1_555 1_555
C22A C21A 1_555 1_555
H17A C22A 1_555 1_555
C23A C22A 1_555 1_555
C24A C23A 1_555 1_555
H18A C24A 1_555 1_555
C25A C20A 1_555 1_555
H19A C25A 1_555 1_555
C26A C23A 1_555 1_555
H20A C26A 1_555 1_555
H21A C26A 1_555 1_555
H22A C26A 1_555 1_555
N5A Zn2A 1_555 1_555
N6A Zn2A 1_555 1_555
N7A C40A 1_555 1_555
N8A Zn3A 1_555 1_555
C27A N5A 1_555 1_555
C28A C27A 1_555 1_555
H23A C28A 1_555 1_555
C29A C28A 1_555 1_555
H24A C29A 1_555 1_555
C30A C29A 1_555 1_555
C31A C30A 1_555 1_555
H25A C31A 1_555 1_555
C32A C27A 1_555 1_555
H26A C32A 1_555 1_555
C33A C30A 1_555 1_555
H27A C33A 1_555 1_555
H28A C33A 1_555 1_555
H29A C33A 1_555 1_555
C34A N5A 1_555 1_555
H30A C34A 1_555 1_555
C35A N6A 1_555 1_555
C36A C35A 1_555 1_555
H31A C36A 1_555 1_555
C37A C36A 1_555 1_555
H32A C37A 1_555 1_555
C38A C37A 1_555 1_555
C39A N6A 1_555 1_555
H33A C39A 1_555 1_555
C40A H34A 1_555 1_555
C41A C38A 1_555 1_555
C42A C41A 1_555 1_555
H35A C42A 1_555 1_555
C43A C42A 1_555 1_555
H36A C43A 1_555 1_555
C44A N7A 1_555 1_555
C45A N8A 1_555 1_555
H37A C45A 1_555 1_555
C46A N8A 1_555 1_555
C47A C46A 1_555 1_555
H38A C47A 1_555 1_555
C48A C47A 1_555 1_555
H39A C48A 1_555 1_555
C49A C48A 1_555 1_555
C50A C49A 1_555 1_555
H40A C50A 1_555 1_555
C51A C46A 1_555 1_555
H41A C51A 1_555 1_555
C52A C49A 1_555 1_555
H42A C52A 1_555 1_555
H43A C52A 1_555 1_555
H44A C52A 1_555 1_555
N9A Zn3A 1_555 1_555
N10A Zn3A 1_555 1_555
N11A Zn4A 1_555 1_555
N12A Zn4A 1_555 1_555
C53A N9A 1_555 1_555
C54A C53A 1_555 1_555
H45A C54A 1_555 1_555
C55A C54A 1_555 1_555
H46A C55A 1_555 1_555
C56A C55A 1_555 1_555
C57A C56A 1_555 1_555
H47A C57A 1_555 1_555
C58A C53A 1_555 1_555
H48A C58A 1_555 1_555
C59A C56A 1_555 1_555
H49A C59A 1_555 1_555
H50A C59A 1_555 1_555
H51A C59A 1_555 1_555
C60A N9A 1_555 1_555
H52A C60A 1_555 1_555
C61A N10A 1_555 1_555
C62A C61A 1_555 1_555
H53A C62A 1_555 1_555
C63A C62A 1_555 1_555
H54A C63A 1_555 1_555
C64A C63A 1_555 1_555
C65A N10A 1_555 1_555
H55A C65A 1_555 1_555
C66A N11A 1_555 1_555
H56A C66A 1_555 1_555
C67A C64A 1_555 1_555
C68A C67A 1_555 1_555
H57A C68A 1_555 1_555
C69A C68A 1_555 1_555
H58A C69A 1_555 1_555
C70A N11A 1_555 1_555
C71A N12A 1_555 1_555
H59A C71A 1_555 1_555
C72A N12A 1_555 1_555
C73A C72A 1_555 1_555
H60A C73A 1_555 1_555
C74A C73A 1_555 1_555
H61A C74A 1_555 1_555
C75A C74A 1_555 1_555
C76A C75A 1_555 1_555
H62A C76A 1_555 1_555
C77A C72A 1_555 1_555
H63A C77A 1_555 1_555
C78A C75A 1_555 1_555
H64A C78A 1_555 1_555
H65A C78A 1_555 1_555
H66A C78A 1_555 1_555
N13A Zn4A 1_555 1_555
N14A Zn4A 1_555 1_555
N15A Zn5A 1_555 1_555
N16A Zn5A 1_555 1_555
C79A N13A 1_555 1_555
C80A C79A 1_555 1_555
H67A C80A 1_555 1_555
C81A C80A 1_555 1_555
H68A C81A 1_555 1_555
C82A C81A 1_555 1_555
C83A C82A 1_555 1_555
H69A C83A 1_555 1_555
C84A C79A 1_555 1_555
H70A C84A 1_555 1_555
C85A C82A 1_555 1_555
H71A C85A 1_555 1_555
H72A C85A 1_555 1_555
H73A C85A 1_555 1_555
C86A N13A 1_555 1_555
H74A C86A 1_555 1_555
C87A N14A 1_555 1_555
C88A C87A 1_555 1_555
H75A C88A 1_555 1_555
C89A C88A 1_555 1_555
H76A C89A 1_555 1_555
C90A C89A 1_555 1_555
C91A N14A 1_555 1_555
H77A C91A 1_555 1_555
C92A N15A 1_555 1_555
H78A C92A 1_555 1_555
C93A C90A 1_555 1_555
C94A C93A 1_555 1_555
H79A C94A 1_555 1_555
C95A C94A 1_555 1_555
H80A C95A 1_555 1_555
C96A N15A 1_555 1_555
C97A N16A 1_555 1_555
H81A C97A 1_555 1_555
C98A N16A 1_555 1_555
C99A C98A 1_555 1_555
H82A C99A 1_555 1_555
C100A C99A 1_555 1_555
H83A C100A 1_555 1_555
C101A C100A 1_555 1_555
C102A C101A 1_555 1_555
H84A C102A 1_555 1_555
C103A C98A 1_555 1_555
H85A C103A 1_555 1_555
C104A C101A 1_555 1_555
H86A C104A 1_555 1_555
H87A C104A 1_555 1_555
H88A C104A 1_555 1_555
N17A Zn5A 1_555 1_555
N18A Zn5A 1_555 1_555
N19A Zn1A 1_555 1_555
N20A Zn1A 1_555 1_555
C105A N17A 1_555 1_555
C106A C105A 1_555 1_555
H89A C106A 1_555 1_555
C107A C106A 1_555 1_555
H90A C107A 1_555 1_555
C108A C107A 1_555 1_555
C109A C108A 1_555 1_555
H91A C109A 1_555 1_555
C110A C105A 1_555 1_555
H92A C110A 1_555 1_555
C111A C108A 1_555 1_555
H93A C111A 1_555 1_555
H94A C111A 1_555 1_555
H95A C111A 1_555 1_555
C112A N17A 1_555 1_555
H96A C112A 1_555 1_555
C113A N18A 1_555 1_555
C114A C113A 1_555 1_555
H97A C114A 1_555 1_555
C115A C114A 1_555 1_555
H98A C115A 1_555 1_555
C116A C115A 1_555 1_555
C117A N18A 1_555 1_555
H99A C117A 1_555 1_555
C118A N19A 1_555 1_555
H100A C118A 1_555 1_555
C119A C116A 1_555 1_555
C120A C119A 1_555 1_555
H101A C120A 1_555 1_555
C121A C120A 1_555 1_555
H102A C121A 1_555 1_555
C122A N19A 1_555 1_555
C123A N20A 1_555 1_555
H103A C123A 1_555 1_555
C124A N20A 1_555 1_555
C125A C124A 1_555 1_555
H104A C125A 1_555 1_555
C126A C125A 1_555 1_555
H105A C126A 1_555 1_555
C127A C126A 1_555 1_555
C128A C127A 1_555 1_555
H106A C128A 1_555 1_555
C129A C124A 1_555 1_555
H107A C129A 1_555 1_555
C130A C127A 1_555 1_555
H108A C130A 1_555 1_555
H109A C130A 1_555 1_555
H110A C130A 1_555 1_555
N21A Zn3A 1_555 1_555
N22A Zn3A 1_555 1_555
N23A Zn5 1_555 1_555
N24A Zn5 1_555 1_555
C131A N21A 1_555 1_555
H111A C131A 1_555 1_555
C132A N22A 1_555 1_555
C133A C132A 1_555 1_555
H112A C133A 1_555 1_555
C134A C133A 1_555 1_555
H113A C134A 1_555 1_555
C135A C134A 1_555 1_555
C136A N22A 1_555 1_555
H114A C136A 1_555 1_555
C137A N23A 1_555 1_555
H115A C137A 1_555 1_555
C138A C135A 1_555 1_555
C139A C138A 1_555 1_555
H116A C139A 1_555 1_555
C140A C139A 1_555 1_555
H117A C140A 1_555 1_555
C141A N23A 1_555 1_555
C142A N24A 1_555 1_555
H118A C142A 1_555 1_555
C143A N24A 1_555 1_555
C144A C143A 1_555 1_555
H119A C144A 1_555 1_555
C145A C144A 1_555 1_555
H120A C145A 1_555 1_555
C146A C145A 1_555 1_555
C147A C146A 1_555 1_555
H121A C147A 1_555 1_555
C148A C143A 1_555 1_555
H122A C148A 1_555 1_555
C149A C146A 1_555 1_555
H123A C149A 1_555 1_555
H124A C149A 1_555 1_555
H125A C149A 1_555 1_555
N25A Zn2A 1_555 1_555
N26A Zn2A 1_555 1_555
N27A Zn1 1_555 1_555
N28A Zn1 1_555 1_555
C150A N25A 1_555 1_555
C151A C150A 1_555 1_555
H126A C151A 1_555 1_555
C152A C151A 1_555 1_555
H127A C152A 1_555 1_555
C153A C152A 1_555 1_555
C154A C153A 1_555 1_555
H128A C154A 1_555 1_555
C155A C150A 1_555 1_555
H129A C155A 1_555 1_555
C156A C153A 1_555 1_555
H130A C156A 1_555 1_555
H131A C156A 1_555 1_555
H132A C156A 1_555 1_555
C157A N25A 1_555 1_555
H133A C157A 1_555 1_555
C158A N26A 1_555 1_555
C159A C158A 1_555 1_555
H134A C159A 1_555 1_555
C160A C159A 1_555 1_555
H135A C160A 1_555 1_555
C161A C160A 1_555 1_555
C162A N26A 1_555 1_555
H136A C162A 1_555 1_555
C163A N27A 1_555 1_555
H137A C163A 1_555 1_555
C164A C161A 1_555 1_555
C165A C164A 1_555 1_555
H138A C165A 1_555 1_555
C166A C165A 1_555 1_555
H139A C166A 1_555 1_555
C167A N27A 1_555 1_555
C168A N28A 1_555 1_555
H140A C168A 1_555 1_555
C169A N28A 1_555 1_555
C170A C169A 1_555 1_555
H141A C170A 1_555 1_555
C171A C170A 1_555 1_555
H142A C171A 1_555 1_555
C172A C171A 1_555 1_555
C173A C172A 1_555 1_555
H143A C173A 1_555 1_555
C174A C169A 1_555 1_555
H144A C174A 1_555 1_555
C175A C172A 1_555 1_555
H145A C175A 1_555 1_555
H146A C175A 1_555 1_555
H147A C175A 1_555 1_555
C189A N21A 1_555 1_555
C190A C191A 1_555 1_555
C191A C189A 1_555 1_555
C192A C190A 1_555 1_555
C193A C189A 1_555 1_555
H159A C193A 1_555 1_555
C194A C192A 1_555 1_555
H160A C194A 1_555 1_555
H161A C191A 1_555 1_555
C195A C192A 1_555 1_555
H162A C195A 1_555 1_555
H163A C195A 1_555 1_555
O12A Cl3 1_555 1_555
O13A Cl3 1_555 1_555
C5 C6 1_555 1_555
C8 C9 1_555 1_555
C12 C13 1_555 1_555
C14 C15 1_555 1_555
C17 C18 1_555 1_555
C18 C19 1_555 1_555
C24 C25 1_555 1_555
C31 C32 1_555 1_555
C34 C35 1_555 1_555
C38 C39 1_555 1_555
C40 C41 1_555 1_555
C43 C44 1_555 1_555
C44 C45 1_555 1_555
C50 C51 1_555 1_555
C57 C58 1_555 1_555
C60 C61 1_555 1_555
C64 C65 1_555 1_555
C66 C67 1_555 1_555
C69 C70 1_555 1_555
C70 C71 1_555 1_555
C76 C77 1_555 1_555
C83 C84 1_555 1_555
C86 C87 1_555 1_555
C90 C91 1_555 1_555
C92 C93 1_555 1_555
C95 C96 1_555 1_555
C96 C97 1_555 1_555
C102 C103 1_555 1_555
C109 C110 1_555 1_555
C112 C113 1_555 1_555
C116 C117 1_555 1_555
C118 C119 1_555 1_555
C121 C122 1_555 1_555
C122 C123 1_555 1_555
C128 C129 1_555 1_555
N24 Zn5A 1_555 1_555
C131 C132 1_555 1_555
C135 C136 1_555 1_555
C137 C138 1_555 1_555
C140 C141 1_555 1_555
C147 C148 1_555 1_555
N28 Zn1A 1_555 1_555
C154 C155 1_555 1_555
C157 C158 1_555 1_555
C161 C162 1_555 1_555
C163 C164 1_555 1_555
C166 C167 1_555 1_555
C173 C174 1_555 1_555
C180 C181 1_555 1_555
C183 C184 1_555 1_555
C187 C188 1_555 1_555
C193 C194 1_555 1_555
C200 C201 1_555 1_555
N30A Zn4A 1_555 1_555
C180A C181A 1_555 1_555
C186A C187A 1_555 1_555
C187A C188A 1_555 1_555
C5A C6A 1_555 1_555
C8A C9A 1_555 1_555
C12A C13A 1_555 1_555
C14A C15A 1_555 1_555
C17A C18A 1_555 1_555
C18A C19A 1_555 1_555
C24A C25A 1_555 1_555
C31A C32A 1_555 1_555
C34A C35A 1_555 1_555
C38A C39A 1_555 1_555
C40A C41A 1_555 1_555
C43A C44A 1_555 1_555
C44A C45A 1_555 1_555
C50A C51A 1_555 1_555
C57A C58A 1_555 1_555
C60A C61A 1_555 1_555
C64A C65A 1_555 1_555
C66A C67A 1_555 1_555
C69A C70A 1_555 1_555
C70A C71A 1_555 1_555
C76A C77A 1_555 1_555
C83A C84A 1_555 1_555
C86A C87A 1_555 1_555
C90A C91A 1_555 1_555
C92A C93A 1_555 1_555
C95A C96A 1_555 1_555
C96A C97A 1_555 1_555
C102A C103A 1_555 1_555
C109A C110A 1_555 1_555
C112A C113A 1_555 1_555
C116A C117A 1_555 1_555
C118A C119A 1_555 1_555
C121A C122A 1_555 1_555
C122A C123A 1_555 1_555
C128A C129A 1_555 1_555
C131A C132A 1_555 1_555
C135A C136A 1_555 1_555
C137A C138A 1_555 1_555
C140A C141A 1_555 1_555
C141A C142A 1_555 1_555
C147A C148A 1_555 1_555
C154A C155A 1_555 1_555
C157A C158A 1_555 1_555
C161A C162A 1_555 1_555
C163A C164A 1_555 1_555
C166A C167A 1_555 1_555
C167A C168A 1_555 1_555
C173A C174A 1_555 1_555
C193A C194A 1_555 1_555

#END
