# generated using pymatgen
data_Zn10H444C496S6Br3N64Cl25O126
_symmetry_space_group_name_H-M   'P 1'
_cell_length_a   21.60000000
_cell_length_b   30.43490000
_cell_length_c   34.23040000
_cell_angle_alpha   90.00000000
_cell_angle_beta   97.24100000
_cell_angle_gamma   90.00000000
_symmetry_Int_Tables_number   1
_chemical_formula_structural   Zn10H444C496S6Br3N64Cl25O126
_chemical_formula_sum   'Zn20 H888 C992 S12 Br6 N128 Cl50 O252'
_cell_volume   22323.38845500
_cell_formula_units_Z   2
loop_
 _symmetry_equiv_pos_site_id
 _symmetry_equiv_pos_as_xyz
  1  'x, y, z'
loop_
 _atom_site_type_symbol
 _atom_site_label
 _atom_site_symmetry_multiplicity
 _atom_site_fract_x
 _atom_site_fract_y
 _atom_site_fract_z
 _atom_site_occupancy
  Zn  Zn1  1  0.362100  0.923310  0.428550  1.0
  Zn  Zn2  1  0.137900  0.923310  0.071450  1.0
  Zn  Zn3  1  0.637900  0.076690  0.571450  1.0
  Zn  Zn4  1  0.862100  0.076690  0.928550  1.0
  Zn  Zn5  1  0.479520  0.963950  0.201530  1.0
  Zn  Zn6  1  0.020480  0.963950  0.298470  1.0
  Zn  Zn7  1  0.520480  0.036050  0.798470  1.0
  Zn  Zn8  1  0.979520  0.036050  0.701530  1.0
  Zn  Zn9  1  0.516450  0.703260  0.104180  1.0
  Zn  Zn10  1  0.983550  0.703260  0.395820  1.0
  Zn  Zn11  1  0.483550  0.296740  0.895820  1.0
  Zn  Zn12  1  0.016450  0.296740  0.604180  1.0
  Zn  Zn13  1  0.441340  0.515800  0.276880  1.0
  Zn  Zn14  1  0.058660  0.515800  0.223120  1.0
  Zn  Zn15  1  0.558660  0.484200  0.723120  1.0
  Zn  Zn16  1  0.941340  0.484200  0.776880  1.0
  Zn  Zn17  1  0.343280  0.657330  0.481280  1.0
  Zn  Zn18  1  0.156720  0.657330  0.018720  1.0
  Zn  Zn19  1  0.656720  0.342670  0.518720  1.0
  Zn  Zn20  1  0.843280  0.342670  0.981280  1.0
  H  H21  1  0.542300  0.811700  0.364200  1
  H  H22  1  0.957700  0.811700  0.135800  1
  H  H23  1  0.457700  0.188300  0.635800  1
  H  H24  1  0.042300  0.188300  0.864200  1
  H  H25  1  0.613500  0.809500  0.421100  1
  H  H26  1  0.886500  0.809500  0.078900  1
  H  H27  1  0.386500  0.190500  0.578900  1
  H  H28  1  0.113500  0.190500  0.921100  1
  H  H29  1  0.651300  0.682500  0.400300  1
  H  H30  1  0.848700  0.682500  0.099700  1
  H  H31  1  0.348700  0.317500  0.599700  1
  H  H32  1  0.151300  0.317500  0.900300  1
  H  H33  1  0.582600  0.684600  0.341900  1
  H  H34  1  0.917400  0.684600  0.158100  1
  H  H35  1  0.417400  0.315400  0.658100  1
  H  H36  1  0.082600  0.315400  0.841900  1
  H  H37  1  0.703300  0.715300  0.457300  1
  H  H38  1  0.796700  0.715300  0.042700  1
  H  H39  1  0.296700  0.284700  0.542700  1
  H  H40  1  0.203300  0.284700  0.957300  1
  H  H41  1  0.718200  0.766300  0.451600  1
  H  H42  1  0.781800  0.766300  0.048400  1
  H  H43  1  0.281800  0.233700  0.548400  1
  H  H44  1  0.218200  0.233700  0.951600  1
  H  H45  1  0.663500  0.752000  0.476500  1
  H  H46  1  0.836500  0.752000  0.023500  1
  H  H47  1  0.336500  0.248000  0.523500  1
  H  H48  1  0.163500  0.248000  0.976500  1
  H  H49  1  0.889300  0.860000  0.120700  1
  H  H50  1  0.610700  0.860000  0.379300  1
  H  H51  1  0.110700  0.140000  0.879300  1
  H  H52  1  0.389300  0.140000  0.620700  1
  H  H53  1  0.873100  0.909000  0.105700  1
  H  H54  1  0.626900  0.909000  0.394300  1
  H  H55  1  0.126900  0.091000  0.894300  1
  H  H56  1  0.373100  0.091000  0.605700  1
  H  H57  1  0.859000  0.894000  0.148500  1
  H  H58  1  0.641000  0.894000  0.351500  1
  H  H59  1  0.141000  0.106000  0.851500  1
  H  H60  1  0.359000  0.106000  0.648500  1
  H  H61  1  0.772000  0.531400  0.054200  1
  H  H62  1  0.728000  0.531400  0.445800  1
  H  H63  1  0.228000  0.468600  0.945800  1
  H  H64  1  0.272000  0.468600  0.554200  1
  H  H65  1  0.732500  0.559700  0.020400  1
  H  H66  1  0.767500  0.559700  0.479600  1
  H  H67  1  0.267500  0.440300  0.979600  1
  H  H68  1  0.232500  0.440300  0.520400  1
  H  H69  1  0.806700  0.565100  0.028400  1
  H  H70  1  0.693300  0.565100  0.471600  1
  H  H71  1  0.193300  0.434900  0.971600  1
  H  H72  1  0.306700  0.434900  0.528400  1
  H  H73  1  0.464700  0.657400  0.365000  1
  H  H74  1  0.035300  0.657400  0.135000  1
  H  H75  1  0.535300  0.342600  0.635000  1
  H  H76  1  0.964700  0.342600  0.865000  1
  H  H77  1  0.422100  0.616900  0.369300  1
  H  H78  1  0.077900  0.616900  0.130700  1
  H  H79  1  0.577900  0.383100  0.630700  1
  H  H80  1  0.922100  0.383100  0.869300  1
  H  H81  1  0.538400  0.090300  0.152100  1
  H  H82  1  0.961600  0.090300  0.347900  1
  H  H83  1  0.461600  0.909700  0.847900  1
  H  H84  1  0.038400  0.909700  0.652100  1
  H  H85  1  0.536300  0.161700  0.177100  1
  H  H86  1  0.963700  0.161700  0.322900  1
  H  H87  1  0.463700  0.838300  0.822900  1
  H  H88  1  0.036300  0.838300  0.677100  1
  H  H89  1  0.554600  0.113100  0.288200  1
  H  H90  1  0.945400  0.113100  0.211800  1
  H  H91  1  0.445400  0.886900  0.711800  1
  H  H92  1  0.054600  0.886900  0.788200  1
  H  H93  1  0.556800  0.041700  0.263200  1
  H  H94  1  0.943200  0.041700  0.236800  1
  H  H95  1  0.443200  0.958300  0.736800  1
  H  H96  1  0.056800  0.958300  0.763200  1
  H  H97  1  0.537700  0.212400  0.231100  1
  H  H98  1  0.962300  0.212400  0.268900  1
  H  H99  1  0.462300  0.787600  0.768900  1
  H  H100  1  0.037700  0.787600  0.731100  1
  H  H101  1  0.505800  0.192700  0.267100  1
  H  H102  1  0.994200  0.192700  0.232900  1
  H  H103  1  0.494200  0.807300  0.732900  1
  H  H104  1  0.005800  0.807300  0.767100  1
  H  H105  1  0.580200  0.196600  0.270300  1
  H  H106  1  0.919800  0.196600  0.229700  1
  H  H107  1  0.419800  0.803400  0.729700  1
  H  H108  1  0.080200  0.803400  0.770300  1
  H  H109  1  0.618300  0.653800  0.217900  1
  H  H110  1  0.881700  0.653800  0.282100  1
  H  H111  1  0.381700  0.346200  0.782100  1
  H  H112  1  0.118300  0.346200  0.717900  1
  H  H113  1  0.725500  0.647300  0.237500  1
  H  H114  1  0.774500  0.647300  0.262500  1
  H  H115  1  0.274500  0.352700  0.762500  1
  H  H116  1  0.225500  0.352700  0.737500  1
  H  H117  1  0.759000  0.740300  0.157900  1
  H  H118  1  0.741000  0.740300  0.342100  1
  H  H119  1  0.241000  0.259700  0.842100  1
  H  H120  1  0.259000  0.259700  0.657900  1
  H  H121  1  0.651800  0.746900  0.138100  1
  H  H122  1  0.848200  0.746900  0.361900  1
  H  H123  1  0.348200  0.253100  0.861900  1
  H  H124  1  0.151800  0.253100  0.638100  1
  H  H125  1  0.830400  0.665900  0.232700  1
  H  H126  1  0.669600  0.665900  0.267300  1
  H  H127  1  0.169600  0.334100  0.767300  1
  H  H128  1  0.330400  0.334100  0.732700  1
  H  H129  1  0.843000  0.678500  0.189000  1
  H  H130  1  0.657000  0.678500  0.311000  1
  H  H131  1  0.157000  0.321500  0.811000  1
  H  H132  1  0.343000  0.321500  0.689000  1
  H  H133  1  0.840700  0.716200  0.221400  1
  H  H134  1  0.659300  0.716200  0.278600  1
  H  H135  1  0.159300  0.283800  0.778600  1
  H  H136  1  0.340700  0.283800  0.721400  1
  H  H137  1  0.018200  0.669600  0.970000  1
  H  H138  1  0.481800  0.669600  0.530000  1
  H  H139  1  0.981800  0.330400  0.030000  1
  H  H140  1  0.518200  0.330400  0.470000  1
  H  H141  1  0.913200  0.668200  0.943100  1
  H  H142  1  0.586800  0.668200  0.556900  1
  H  H143  1  0.086800  0.331800  0.056900  1
  H  H144  1  0.413200  0.331800  0.443100  1
  H  H145  1  0.861500  0.665600  0.053000  1
  H  H146  1  0.638500  0.665600  0.447000  1
  H  H147  1  0.138500  0.334400  0.947000  1
  H  H148  1  0.361500  0.334400  0.553000  1
  H  H149  1  0.966400  0.667000  0.080000  1
  H  H150  1  0.533600  0.667000  0.420000  1
  H  H151  1  0.033600  0.333000  0.920000  1
  H  H152  1  0.466400  0.333000  0.580000  1
  H  H153  1  0.782100  0.663800  0.999000  1
  H  H154  1  0.717900  0.663800  0.501000  1
  H  H155  1  0.217900  0.336200  0.001000  1
  H  H156  1  0.282100  0.336200  0.499000  1
  H  H157  1  0.798200  0.690500  0.961200  1
  H  H158  1  0.701800  0.690500  0.538800  1
  H  H159  1  0.201800  0.309500  0.038800  1
  H  H160  1  0.298200  0.309500  0.461200  1
  H  H161  1  0.801300  0.638000  0.961600  1
  H  H162  1  0.698700  0.638000  0.538400  1
  H  H163  1  0.198700  0.362000  0.038400  1
  H  H164  1  0.301300  0.362000  0.461600  1
  H  H165  1  0.557600  0.627700  0.343900  1
  H  H166  1  0.942400  0.627700  0.156100  1
  H  H167  1  0.442400  0.372300  0.656100  1
  H  H168  1  0.057600  0.372300  0.843900  1
  H  H169  1  0.663700  0.636500  0.366100  1
  H  H170  1  0.836300  0.636500  0.133900  1
  H  H171  1  0.336300  0.363500  0.633900  1
  H  H172  1  0.163700  0.363500  0.866100  1
  H  H173  1  0.704500  0.533100  0.299000  1
  H  H174  1  0.795500  0.533100  0.201000  1
  H  H175  1  0.295500  0.466900  0.701000  1
  H  H176  1  0.204500  0.466900  0.799000  1
  H  H177  1  0.598400  0.524200  0.276700  1
  H  H178  1  0.901600  0.524200  0.223300  1
  H  H179  1  0.401600  0.475800  0.723300  1
  H  H180  1  0.098400  0.475800  0.776700  1
  H  H181  1  0.787900  0.568400  0.338000  1
  H  H182  1  0.712100  0.568400  0.162000  1
  H  H183  1  0.212100  0.431600  0.662000  1
  H  H184  1  0.287900  0.431600  0.838000  1
  H  H185  1  0.777900  0.620000  0.343600  1
  H  H186  1  0.722100  0.620000  0.156400  1
  H  H187  1  0.222100  0.380000  0.656400  1
  H  H188  1  0.277900  0.380000  0.843600  1
  H  H189  1  0.769800  0.586800  0.378900  1
  H  H190  1  0.730200  0.586800  0.121100  1
  H  H191  1  0.230200  0.413200  0.621100  1
  H  H192  1  0.269800  0.413200  0.878900  1
  H  H193  1  0.565400  0.820700  0.328200  1
  H  H194  1  0.934600  0.820700  0.171800  1
  H  H195  1  0.434600  0.179300  0.671800  1
  H  H196  1  0.065400  0.179300  0.828200  1
  H  H197  1  0.650700  0.848700  0.369100  1
  H  H198  1  0.849300  0.848700  0.130900  1
  H  H199  1  0.349300  0.151300  0.630900  1
  H  H200  1  0.150700  0.151300  0.869100  1
  H  H201  1  0.685700  0.729000  0.417000  1
  H  H202  1  0.814300  0.729000  0.083000  1
  H  H203  1  0.314300  0.271000  0.583000  1
  H  H204  1  0.185700  0.271000  0.917000  1
  H  H205  1  0.600800  0.700000  0.376100  1
  H  H206  1  0.899200  0.700000  0.123900  1
  H  H207  1  0.399200  0.300000  0.623900  1
  H  H208  1  0.100800  0.300000  0.876100  1
  H  H209  1  0.750600  0.787300  0.441200  1
  H  H210  1  0.749400  0.787300  0.058800  1
  H  H211  1  0.249400  0.212700  0.558800  1
  H  H212  1  0.250600  0.212700  0.941200  1
  H  H213  1  0.761000  0.823200  0.408500  1
  H  H214  1  0.739000  0.823200  0.091500  1
  H  H215  1  0.239000  0.176800  0.591500  1
  H  H216  1  0.261000  0.176800  0.908500  1
  H  H217  1  0.715700  0.833700  0.440900  1
  H  H218  1  0.784300  0.833700  0.059100  1
  H  H219  1  0.284300  0.166300  0.559100  1
  H  H220  1  0.215700  0.166300  0.940900  1
  H  H221  1  0.600500  0.790400  0.280400  1
  H  H222  1  0.899500  0.790400  0.219600  1
  H  H223  1  0.399500  0.209600  0.719600  1
  H  H224  1  0.100500  0.209600  0.780400  1
  H  H225  1  0.697300  0.822300  0.299700  1
  H  H226  1  0.802700  0.822300  0.200300  1
  H  H227  1  0.302700  0.177700  0.700300  1
  H  H228  1  0.197300  0.177700  0.799700  1
  H  H229  1  0.695000  0.777000  0.409800  1
  H  H230  1  0.805000  0.777000  0.090200  1
  H  H231  1  0.305000  0.223000  0.590200  1
  H  H232  1  0.195000  0.223000  0.909800  1
  H  H233  1  0.597600  0.745100  0.391300  1
  H  H234  1  0.902400  0.745100  0.108700  1
  H  H235  1  0.402400  0.254900  0.608700  1
  H  H236  1  0.097600  0.254900  0.891300  1
  H  H237  1  0.778700  0.822900  0.397700  1
  H  H238  1  0.721300  0.822900  0.102300  1
  H  H239  1  0.221300  0.177100  0.602300  1
  H  H240  1  0.278700  0.177100  0.897700  1
  H  H241  1  0.797600  0.818200  0.354200  1
  H  H242  1  0.702400  0.818200  0.145800  1
  H  H243  1  0.202400  0.181800  0.645800  1
  H  H244  1  0.297600  0.181800  0.854200  1
  H  H245  1  0.759000  0.860200  0.365500  1
  H  H246  1  0.741000  0.860200  0.134500  1
  H  H247  1  0.241000  0.139800  0.634500  1
  H  H248  1  0.259000  0.139800  0.865500  1
  H  H249  1  0.717700  0.779500  0.245600  1
  H  H250  1  0.782300  0.779500  0.254400  1
  H  H251  1  0.282300  0.220500  0.754400  1
  H  H252  1  0.217700  0.220500  0.745600  1
  H  H253  1  0.823000  0.768600  0.242300  1
  H  H254  1  0.677000  0.768600  0.257700  1
  H  H255  1  0.177000  0.231400  0.757700  1
  H  H256  1  0.323000  0.231400  0.742300  1
  H  H257  1  0.438700  0.893300  0.518300  1.0
  H  H258  1  0.061300  0.893300  0.981700  1.0
  H  H259  1  0.561300  0.106700  0.481700  1.0
  H  H260  1  0.938700  0.106700  0.018300  1.0
  H  H261  1  0.440700  0.879600  0.586100  1.0
  H  H262  1  0.059300  0.879600  0.913900  1.0
  H  H263  1  0.559300  0.120400  0.413900  1.0
  H  H264  1  0.940700  0.120400  0.086100  1.0
  H  H265  1  0.378900  0.003100  0.600500  1.0
  H  H266  1  0.121100  0.003100  0.899500  1.0
  H  H267  1  0.621100  0.996900  0.399500  1.0
  H  H268  1  0.878900  0.996900  0.100500  1.0
  H  H269  1  0.378200  0.017500  0.533600  1.0
  H  H270  1  0.121800  0.017500  0.966400  1.0
  H  H271  1  0.621800  0.982500  0.466400  1.0
  H  H272  1  0.878200  0.982500  0.033600  1.0
  H  H273  1  0.455200  0.938300  0.657700  1.0
  H  H274  1  0.044800  0.938300  0.842300  1.0
  H  H275  1  0.544800  0.061700  0.342300  1.0
  H  H276  1  0.955200  0.061700  0.157700  1.0
  H  H277  1  0.405300  0.899700  0.648300  1.0
  H  H278  1  0.094700  0.899700  0.851700  1.0
  H  H279  1  0.594700  0.100300  0.351700  1.0
  H  H280  1  0.905300  0.100300  0.148300  1.0
  H  H281  1  0.382200  0.948600  0.655400  1.0
  H  H282  1  0.117800  0.948600  0.844600  1.0
  H  H283  1  0.617800  0.051400  0.344600  1.0
  H  H284  1  0.882200  0.051400  0.155400  1.0
  H  H285  1  0.436000  0.024400  0.484300  1.0
  H  H286  1  0.064000  0.024400  0.015700  1.0
  H  H287  1  0.564000  0.975600  0.515700  1.0
  H  H288  1  0.936000  0.975600  0.984300  1.0
  H  H289  1  0.439600  0.075900  0.427800  1.0
  H  H290  1  0.060400  0.075900  0.072200  1.0
  H  H291  1  0.560400  0.924100  0.572200  1.0
  H  H292  1  0.939600  0.924100  0.927800  1.0
  H  H293  1  0.430000  0.087600  0.360000  1.0
  H  H294  1  0.070000  0.087600  0.140000  1.0
  H  H295  1  0.570000  0.912400  0.640000  1.0
  H  H296  1  0.930000  0.912400  0.860000  1.0
  H  H297  1  0.393200  0.959100  0.343500  1.0
  H  H298  1  0.106800  0.959100  0.156500  1.0
  H  H299  1  0.606800  0.040900  0.656500  1.0
  H  H300  1  0.893200  0.040900  0.843500  1.0
  H  H301  1  0.457700  0.975400  0.290800  1.0
  H  H302  1  0.042300  0.975400  0.209200  1.0
  H  H303  1  0.542300  0.024600  0.709200  1.0
  H  H304  1  0.957700  0.024600  0.790800  1.0
  H  H305  1  0.354600  0.085400  0.296900  1.0
  H  H306  1  0.145400  0.085400  0.203100  1.0
  H  H307  1  0.645400  0.914600  0.703100  1.0
  H  H308  1  0.854600  0.914600  0.796900  1.0
  H  H309  1  0.348400  0.091500  0.228600  1.0
  H  H310  1  0.151600  0.091500  0.271400  1.0
  H  H311  1  0.651600  0.908500  0.771400  1.0
  H  H312  1  0.848400  0.908500  0.728600  1.0
  H  H313  1  0.371600  0.059400  0.163200  1.0
  H  H314  1  0.128400  0.059400  0.336800  1.0
  H  H315  1  0.628400  0.940600  0.836800  1.0
  H  H316  1  0.871600  0.940600  0.663200  1.0
  H  H317  1  0.430700  0.069300  0.111600  1.0
  H  H318  1  0.069300  0.069300  0.388400  1.0
  H  H319  1  0.569300  0.930700  0.888400  1.0
  H  H320  1  0.930700  0.930700  0.611600  1.0
  H  H321  1  0.433500  0.066300  0.043700  1.0
  H  H322  1  0.066500  0.066300  0.456300  1.0
  H  H323  1  0.566500  0.933700  0.956300  1.0
  H  H324  1  0.933500  0.933700  0.543700  1.0
  H  H325  1  0.393900  0.936800  0.044100  1.0
  H  H326  1  0.106100  0.936800  0.455900  1.0
  H  H327  1  0.606100  0.063200  0.955900  1.0
  H  H328  1  0.893900  0.063200  0.544100  1.0
  H  H329  1  0.391000  0.939400  0.111700  1.0
  H  H330  1  0.109000  0.939400  0.388300  1.0
  H  H331  1  0.609000  0.060600  0.888300  1.0
  H  H332  1  0.891000  0.060600  0.611700  1.0
  H  H333  1  0.420400  0.969900  0.984200  1.0
  H  H334  1  0.079600  0.969900  0.515800  1.0
  H  H335  1  0.579600  0.030100  0.015800  1.0
  H  H336  1  0.920400  0.030100  0.484200  1.0
  H  H337  1  0.448300  0.018600  0.985800  1.0
  H  H338  1  0.051700  0.018600  0.514200  1.0
  H  H339  1  0.551700  0.981400  0.014200  1.0
  H  H340  1  0.948300  0.981400  0.485800  1.0
  H  H341  1  0.374400  0.011200  0.979000  1.0
  H  H342  1  0.125600  0.011200  0.521000  1.0
  H  H343  1  0.625600  0.988800  0.021000  1.0
  H  H344  1  0.874400  0.988800  0.479000  1.0
  H  H345  1  0.665100  0.034900  0.222900  1.0
  H  H346  1  0.834900  0.034900  0.277100  1.0
  H  H347  1  0.334900  0.965100  0.777100  1.0
  H  H348  1  0.165100  0.965100  0.722900  1.0
  H  H349  1  0.697200  0.095700  0.261800  1.0
  H  H350  1  0.802800  0.095700  0.238200  1.0
  H  H351  1  0.302800  0.904300  0.738200  1.0
  H  H352  1  0.197200  0.904300  0.761800  1.0
  H  H353  1  0.520700  0.138000  0.255200  1.0
  H  H354  1  0.979300  0.138000  0.244800  1.0
  H  H355  1  0.479300  0.862000  0.744800  1.0
  H  H356  1  0.020700  0.862000  0.755200  1.0
  H  H357  1  0.488500  0.081400  0.210200  1.0
  H  H358  1  0.011500  0.081400  0.289800  1.0
  H  H359  1  0.511500  0.918600  0.789800  1.0
  H  H360  1  0.988500  0.918600  0.710200  1.0
  H  H361  1  0.610500  0.192200  0.271200  1.0
  H  H362  1  0.889500  0.192200  0.228800  1.0
  H  H363  1  0.389500  0.807800  0.728800  1.0
  H  H364  1  0.110500  0.807800  0.771200  1.0
  H  H365  1  0.680000  0.173200  0.275200  1.0
  H  H366  1  0.820000  0.173200  0.224800  1.0
  H  H367  1  0.320000  0.826800  0.724800  1.0
  H  H368  1  0.180000  0.826800  0.775200  1.0
  H  H369  1  0.635600  0.161500  0.307700  1.0
  H  H370  1  0.864400  0.161500  0.192300  1.0
  H  H371  1  0.364400  0.838500  0.692300  1.0
  H  H372  1  0.135600  0.838500  0.807700  1.0
  H  H373  1  0.602200  0.026100  0.150100  1.0
  H  H374  1  0.897800  0.026100  0.349900  1.0
  H  H375  1  0.397800  0.973900  0.849900  1.0
  H  H376  1  0.102200  0.973900  0.650100  1.0
  H  H377  1  0.613000  0.976000  0.093700  1.0
  H  H378  1  0.887000  0.976000  0.406300  1.0
  H  H379  1  0.387000  0.024000  0.906300  1.0
  H  H380  1  0.113000  0.024000  0.593700  1.0
  H  H381  1  0.585300  0.911700  0.060600  1.0
  H  H382  1  0.914700  0.911700  0.439400  1.0
  H  H383  1  0.414700  0.088300  0.939400  1.0
  H  H384  1  0.085300  0.088300  0.560600  1.0
  H  H385  1  0.482000  0.878200  0.145800  1.0
  H  H386  1  0.018000  0.878200  0.354200  1.0
  H  H387  1  0.518000  0.121800  0.854200  1.0
  H  H388  1  0.982000  0.121800  0.645800  1.0
  H  H389  1  0.527400  0.805300  0.125800  1.0
  H  H390  1  0.972600  0.805300  0.374200  1.0
  H  H391  1  0.472600  0.194700  0.874200  1.0
  H  H392  1  0.027400  0.194700  0.625800  1.0
  H  H393  1  0.489500  0.871700  0.023800  1.0
  H  H394  1  0.010500  0.871700  0.476200  1.0
  H  H395  1  0.510500  0.128300  0.976200  1.0
  H  H396  1  0.989500  0.128300  0.523800  1.0
  H  H397  1  0.462200  0.805700  0.993300  1.0
  H  H398  1  0.037800  0.805700  0.506700  1.0
  H  H399  1  0.537800  0.194300  0.006700  1.0
  H  H400  1  0.962200  0.194300  0.493300  1.0
  H  H401  1  0.449700  0.722900  0.996600  1.0
  H  H402  1  0.050300  0.722900  0.503400  1.0
  H  H403  1  0.550300  0.277100  0.003400  1.0
  H  H404  1  0.949700  0.277100  0.496600  1.0
  H  H405  1  0.488800  0.656300  0.978700  1.0
  H  H406  1  0.011200  0.656300  0.521300  1.0
  H  H407  1  0.511200  0.343700  0.021300  1.0
  H  H408  1  0.988800  0.343700  0.478700  1.0
  H  H409  1  0.469300  0.584700  0.955900  1.0
  H  H410  1  0.030700  0.584700  0.544100  1.0
  H  H411  1  0.530700  0.415300  0.044100  1.0
  H  H412  1  0.969300  0.415300  0.455900  1.0
  H  H413  1  0.386600  0.556000  0.051600  1.0
  H  H414  1  0.113400  0.556000  0.448400  1.0
  H  H415  1  0.613400  0.444000  0.948400  1.0
  H  H416  1  0.886600  0.444000  0.551600  1.0
  H  H417  1  0.405300  0.626400  0.074200  1.0
  H  H418  1  0.094700  0.626400  0.425800  1.0
  H  H419  1  0.594700  0.373600  0.925800  1.0
  H  H420  1  0.905300  0.373600  0.574200  1.0
  H  H421  1  0.383800  0.513300  0.967200  1.0
  H  H422  1  0.116200  0.513300  0.532800  1.0
  H  H423  1  0.616200  0.486700  0.032800  1.0
  H  H424  1  0.883800  0.486700  0.467200  1.0
  H  H425  1  0.412800  0.495900  0.009700  1.0
  H  H426  1  0.087200  0.495900  0.490300  1.0
  H  H427  1  0.587200  0.504100  0.990300  1.0
  H  H428  1  0.912800  0.504100  0.509700  1.0
  H  H429  1  0.457300  0.505100  0.976700  1.0
  H  H430  1  0.042700  0.505100  0.523300  1.0
  H  H431  1  0.542700  0.494900  0.023300  1.0
  H  H432  1  0.957300  0.494900  0.476700  1.0
  H  H433  1  0.636100  0.769800  0.086000  1.0
  H  H434  1  0.863900  0.769800  0.414000  1.0
  H  H435  1  0.363900  0.230200  0.914000  1.0
  H  H436  1  0.136100  0.230200  0.586000  1.0
  H  H437  1  0.663000  0.824600  0.045000  1.0
  H  H438  1  0.837000  0.824600  0.455000  1.0
  H  H439  1  0.337000  0.175400  0.955000  1.0
  H  H440  1  0.163000  0.175400  0.545000  1.0
  H  H441  1  0.638100  0.740500  0.953500  1.0
  H  H442  1  0.861900  0.740500  0.546500  1.0
  H  H443  1  0.361900  0.259500  0.046500  1.0
  H  H444  1  0.138100  0.259500  0.453500  1.0
  H  H445  1  0.608500  0.685800  0.994400  1.0
  H  H446  1  0.891500  0.685800  0.505600  1.0
  H  H447  1  0.391500  0.314200  0.005600  1.0
  H  H448  1  0.108500  0.314200  0.494400  1.0
  H  H449  1  0.623800  0.840300  0.955900  1.0
  H  H450  1  0.876200  0.840300  0.544100  1.0
  H  H451  1  0.376200  0.159700  0.044100  1.0
  H  H452  1  0.123800  0.159700  0.455900  1.0
  H  H453  1  0.684300  0.815100  0.945100  1.0
  H  H454  1  0.815700  0.815100  0.554900  1.0
  H  H455  1  0.315700  0.184900  0.054900  1.0
  H  H456  1  0.184300  0.184900  0.445100  1.0
  H  H457  1  0.690200  0.848700  0.981300  1.0
  H  H458  1  0.809800  0.848700  0.518700  1.0
  H  H459  1  0.309800  0.151300  0.018700  1.0
  H  H460  1  0.190200  0.151300  0.481300  1.0
  H  H461  1  0.630600  0.642000  0.046100  1.0
  H  H462  1  0.869400  0.642000  0.453900  1.0
  H  H463  1  0.369400  0.358000  0.953900  1.0
  H  H464  1  0.130600  0.358000  0.546100  1.0
  H  H465  1  0.614700  0.564100  0.067200  1.0
  H  H466  1  0.885300  0.564100  0.432800  1.0
  H  H467  1  0.385300  0.435900  0.932800  1.0
  H  H468  1  0.114700  0.435900  0.567200  1.0
  H  H469  1  0.564800  0.514400  0.104400  1.0
  H  H470  1  0.935200  0.514400  0.395600  1.0
  H  H471  1  0.435200  0.485600  0.895600  1.0
  H  H472  1  0.064800  0.485600  0.604400  1.0
  H  H473  1  0.480400  0.616600  0.150400  1.0
  H  H474  1  0.019600  0.616600  0.349600  1.0
  H  H475  1  0.519600  0.383400  0.849600  1.0
  H  H476  1  0.980400  0.383400  0.650400  1.0
  H  H477  1  0.497500  0.562100  0.206300  1.0
  H  H478  1  0.002500  0.562100  0.293700  1.0
  H  H479  1  0.502500  0.437900  0.793700  1.0
  H  H480  1  0.997500  0.437900  0.706300  1.0
  H  H481  1  0.452400  0.487100  0.110100  1.0
  H  H482  1  0.047600  0.487100  0.389900  1.0
  H  H483  1  0.547600  0.512900  0.889900  1.0
  H  H484  1  0.952400  0.512900  0.610100  1.0
  H  H485  1  0.393100  0.443000  0.146400  1.0
  H  H486  1  0.106900  0.443000  0.353600  1.0
  H  H487  1  0.606900  0.557000  0.853600  1.0
  H  H488  1  0.893100  0.557000  0.646400  1.0
  H  H489  1  0.353300  0.426500  0.211400  1.0
  H  H490  1  0.146700  0.426500  0.288600  1.0
  H  H491  1  0.646700  0.573500  0.788600  1.0
  H  H492  1  0.853300  0.573500  0.711400  1.0
  H  H493  1  0.296000  0.493300  0.306300  1.0
  H  H494  1  0.204000  0.493300  0.193700  1.0
  H  H495  1  0.704000  0.506700  0.693700  1.0
  H  H496  1  0.796000  0.506700  0.806300  1.0
  H  H497  1  0.240200  0.453900  0.348100  1.0
  H  H498  1  0.259800  0.453900  0.151900  1.0
  H  H499  1  0.759800  0.546100  0.651900  1.0
  H  H500  1  0.740200  0.546100  0.848100  1.0
  H  H501  1  0.303900  0.340700  0.307900  1.0
  H  H502  1  0.196100  0.340700  0.192100  1.0
  H  H503  1  0.696100  0.659300  0.692100  1.0
  H  H504  1  0.803900  0.659300  0.807900  1.0
  H  H505  1  0.357600  0.379300  0.263700  1.0
  H  H506  1  0.142400  0.379300  0.236300  1.0
  H  H507  1  0.642400  0.620700  0.736300  1.0
  H  H508  1  0.857600  0.620700  0.763700  1.0
  H  H509  1  0.224600  0.386400  0.383500  1.0
  H  H510  1  0.275400  0.386400  0.116500  1.0
  H  H511  1  0.775400  0.613600  0.616500  1.0
  H  H512  1  0.724600  0.613600  0.883500  1.0
  H  H513  1  0.254400  0.341400  0.370200  1.0
  H  H514  1  0.245600  0.341400  0.129800  1.0
  H  H515  1  0.745600  0.658600  0.629800  1.0
  H  H516  1  0.754400  0.658600  0.870200  1.0
  H  H517  1  0.190100  0.359000  0.347100  1.0
  H  H518  1  0.309900  0.359000  0.152900  1.0
  H  H519  1  0.809900  0.641000  0.652900  1.0
  H  H520  1  0.690100  0.641000  0.847100  1.0
  H  H521  1  0.484100  0.373100  0.270500  1.0
  H  H522  1  0.015900  0.373100  0.229500  1.0
  H  H523  1  0.515900  0.626900  0.729500  1.0
  H  H524  1  0.984100  0.626900  0.770500  1.0
  H  H525  1  0.535100  0.333700  0.224000  1.0
  H  H526  1  0.964900  0.333700  0.276000  1.0
  H  H527  1  0.464900  0.666300  0.776000  1.0
  H  H528  1  0.035100  0.666300  0.724000  1.0
  H  H529  1  0.629500  0.443700  0.199500  1.0
  H  H530  1  0.870500  0.443700  0.300500  1.0
  H  H531  1  0.370500  0.556300  0.800500  1.0
  H  H532  1  0.129500  0.556300  0.699500  1.0
  H  H533  1  0.572200  0.483700  0.240800  1.0
  H  H534  1  0.927800  0.483700  0.259200  1.0
  H  H535  1  0.427800  0.516300  0.759200  1.0
  H  H536  1  0.072200  0.516300  0.740800  1.0
  H  H537  1  0.587800  0.350300  0.154400  1.0
  H  H538  1  0.912200  0.350300  0.345600  1.0
  H  H539  1  0.412200  0.649700  0.845600  1.0
  H  H540  1  0.087800  0.649700  0.654400  1.0
  H  H541  1  0.640800  0.336300  0.189100  1.0
  H  H542  1  0.859200  0.336300  0.310900  1.0
  H  H543  1  0.359200  0.663700  0.810900  1.0
  H  H544  1  0.140800  0.663700  0.689100  1.0
  H  H545  1  0.647400  0.381200  0.165600  1.0
  H  H546  1  0.852600  0.381200  0.334400  1.0
  H  H547  1  0.352600  0.618800  0.834400  1.0
  H  H548  1  0.147400  0.618800  0.665600  1.0
  H  H549  1  0.506500  0.409800  0.327200  1.0
  H  H550  1  0.993500  0.409800  0.172800  1.0
  H  H551  1  0.493500  0.590200  0.672800  1.0
  H  H552  1  0.006500  0.590200  0.827200  1.0
  H  H553  1  0.454200  0.410300  0.387900  1.0
  H  H554  1  0.045800  0.410300  0.112100  1.0
  H  H555  1  0.545800  0.589700  0.612100  1.0
  H  H556  1  0.954200  0.589700  0.887900  1.0
  H  H557  1  0.392600  0.446500  0.428900  1.0
  H  H558  1  0.107400  0.446500  0.071100  1.0
  H  H559  1  0.607400  0.553500  0.571100  1.0
  H  H560  1  0.892600  0.553500  0.928900  1.0
  H  H561  1  0.383900  0.550200  0.356000  1.0
  H  H562  1  0.116100  0.550200  0.144000  1.0
  H  H563  1  0.616100  0.449800  0.644000  1.0
  H  H564  1  0.883900  0.449800  0.856000  1.0
  H  H565  1  0.390800  0.584700  0.424500  1.0
  H  H566  1  0.109200  0.584700  0.075500  1.0
  H  H567  1  0.609200  0.415300  0.575500  1.0
  H  H568  1  0.890800  0.415300  0.924500  1.0
  H  H569  1  0.284600  0.476900  0.432300  1.0
  H  H570  1  0.215400  0.476900  0.067700  1.0
  H  H571  1  0.715400  0.523100  0.567700  1.0
  H  H572  1  0.784600  0.523100  0.932300  1.0
  H  H573  1  0.227200  0.516100  0.473500  1.0
  H  H574  1  0.272800  0.516100  0.026500  1.0
  H  H575  1  0.772800  0.483900  0.526500  1.0
  H  H576  1  0.727200  0.483900  0.973500  1.0
  H  H577  1  0.209800  0.585600  0.510400  1.0
  H  H578  1  0.290200  0.585600  0.989600  1.0
  H  H579  1  0.790200  0.414400  0.489600  1.0
  H  H580  1  0.709800  0.414400  0.010400  1.0
  H  H581  1  0.206400  0.718600  0.487200  1.0
  H  H582  1  0.293600  0.718600  0.012800  1.0
  H  H583  1  0.793600  0.281400  0.512800  1.0
  H  H584  1  0.706400  0.281400  0.987200  1.0
  H  H585  1  0.157700  0.763100  0.529300  1.0
  H  H586  1  0.342300  0.763100  0.970700  1.0
  H  H587  1  0.842300  0.236900  0.470700  1.0
  H  H588  1  0.657700  0.236900  0.029300  1.0
  H  H589  1  0.171800  0.668200  0.611300  1.0
  H  H590  1  0.328200  0.668200  0.888700  1.0
  H  H591  1  0.828200  0.331800  0.388700  1.0
  H  H592  1  0.671800  0.331800  0.111300  1.0
  H  H593  1  0.221100  0.622900  0.570300  1.0
  H  H594  1  0.278900  0.622900  0.929700  1.0
  H  H595  1  0.778900  0.377100  0.429700  1.0
  H  H596  1  0.721100  0.377100  0.070300  1.0
  H  H597  1  0.163100  0.754500  0.628000  1.0
  H  H598  1  0.336900  0.754500  0.872000  1.0
  H  H599  1  0.836900  0.245500  0.372000  1.0
  H  H600  1  0.663100  0.245500  0.128000  1.0
  H  H601  1  0.094400  0.739700  0.609600  1.0
  H  H602  1  0.405600  0.739700  0.890400  1.0
  H  H603  1  0.905600  0.260300  0.390400  1.0
  H  H604  1  0.594400  0.260300  0.109600  1.0
  H  H605  1  0.127300  0.780800  0.591400  1.0
  H  H606  1  0.372700  0.780800  0.908600  1.0
  H  H607  1  0.872700  0.219200  0.408600  1.0
  H  H608  1  0.627300  0.219200  0.091400  1.0
  H  H609  1  0.455800  0.582600  0.511400  1.0
  H  H610  1  0.044200  0.582600  0.988600  1.0
  H  H611  1  0.544200  0.417400  0.488600  1.0
  H  H612  1  0.955800  0.417400  0.011400  1.0
  H  H613  1  0.483700  0.511300  0.527800  1.0
  H  H614  1  0.016300  0.511300  0.972200  1.0
  H  H615  1  0.516300  0.488700  0.472200  1.0
  H  H616  1  0.983700  0.488700  0.027800  1.0
  H  H617  1  0.365300  0.510900  0.609600  1.0
  H  H618  1  0.134700  0.510900  0.890400  1.0
  H  H619  1  0.634700  0.489100  0.390400  1.0
  H  H620  1  0.865300  0.489100  0.109600  1.0
  H  H621  1  0.338300  0.583400  0.594600  1.0
  H  H622  1  0.161700  0.583400  0.905400  1.0
  H  H623  1  0.661700  0.416600  0.405400  1.0
  H  H624  1  0.838300  0.416600  0.094600  1.0
  H  H625  1  0.482800  0.457200  0.601900  1.0
  H  H626  1  0.017200  0.457200  0.898100  1.0
  H  H627  1  0.517200  0.542800  0.398100  1.0
  H  H628  1  0.982800  0.542800  0.101900  1.0
  H  H629  1  0.454900  0.440000  0.559100  1.0
  H  H630  1  0.045100  0.440000  0.940900  1.0
  H  H631  1  0.545100  0.560000  0.440900  1.0
  H  H632  1  0.954900  0.560000  0.059100  1.0
  H  H633  1  0.411400  0.442100  0.593600  1.0
  H  H634  1  0.088600  0.442100  0.906400  1.0
  H  H635  1  0.588600  0.557900  0.406400  1.0
  H  H636  1  0.911400  0.557900  0.093600  1.0
  H  H637  1  0.375500  0.653900  0.593200  1.0
  H  H638  1  0.124500  0.653900  0.906800  1.0
  H  H639  1  0.624500  0.346100  0.406800  1.0
  H  H640  1  0.875500  0.346100  0.093200  1.0
  H  H641  1  0.348100  0.732300  0.610200  1.0
  H  H642  1  0.151900  0.732300  0.889800  1.0
  H  H643  1  0.651900  0.267700  0.389800  1.0
  H  H644  1  0.848100  0.267700  0.110200  1.0
  H  H645  1  0.317200  0.802200  0.589600  1.0
  H  H646  1  0.182800  0.802200  0.910400  1.0
  H  H647  1  0.682800  0.197800  0.410400  1.0
  H  H648  1  0.817200  0.197800  0.089600  1.0
  H  H649  1  0.321300  0.762600  0.478200  1.0
  H  H650  1  0.178700  0.762600  0.021800  1.0
  H  H651  1  0.678700  0.237400  0.521800  1.0
  H  H652  1  0.821300  0.237400  0.978200  1.0
  H  H653  1  0.358300  0.834900  0.474600  1.0
  H  H654  1  0.141700  0.834900  0.025400  1.0
  H  H655  1  0.641700  0.165100  0.525400  1.0
  H  H656  1  0.858300  0.165100  0.974600  1.0
  H  H657  1  0.232300  0.848700  0.550500  1.0
  H  H658  1  0.267700  0.848700  0.949500  1.0
  H  H659  1  0.767700  0.151300  0.449500  1.0
  H  H660  1  0.732300  0.151300  0.050500  1.0
  H  H661  1  0.208000  0.918100  0.523900  1.0
  H  H662  1  0.292000  0.918100  0.976100  1.0
  H  H663  1  0.792000  0.081900  0.476100  1.0
  H  H664  1  0.708000  0.081900  0.023900  1.0
  H  H665  1  0.224700  0.976000  0.474000  1.0
  H  H666  1  0.275300  0.976000  0.026000  1.0
  H  H667  1  0.775300  0.024000  0.526000  1.0
  H  H668  1  0.724700  0.024000  0.974000  1.0
  H  H669  1  0.265200  0.043700  0.467900  1.0
  H  H670  1  0.234800  0.043700  0.032100  1.0
  H  H671  1  0.734800  0.956300  0.532100  1.0
  H  H672  1  0.765200  0.956300  0.967900  1.0
  H  H673  1  0.252300  0.113200  0.438600  1.0
  H  H674  1  0.247700  0.113200  0.061400  1.0
  H  H675  1  0.747700  0.886800  0.561400  1.0
  H  H676  1  0.752300  0.886800  0.938600  1.0
  H  H677  1  0.253400  0.058200  0.331900  1.0
  H  H678  1  0.246600  0.058200  0.168100  1.0
  H  H679  1  0.746600  0.941800  0.668100  1.0
  H  H680  1  0.753400  0.941800  0.831900  1.0
  H  H681  1  0.269300  0.989500  0.360600  1.0
  H  H682  1  0.230700  0.989500  0.139400  1.0
  H  H683  1  0.730700  0.010500  0.639400  1.0
  H  H684  1  0.769300  0.010500  0.860600  1.0
  H  H685  1  0.226700  0.157700  0.378800  1.0
  H  H686  1  0.273300  0.157700  0.121200  1.0
  H  H687  1  0.773300  0.842300  0.621200  1.0
  H  H688  1  0.726700  0.842300  0.878800  1.0
  H  H689  1  0.228100  0.135500  0.336500  1.0
  H  H690  1  0.271900  0.135500  0.163500  1.0
  H  H691  1  0.771900  0.864500  0.663500  1.0
  H  H692  1  0.728100  0.864500  0.836500  1.0
  H  H693  1  0.292000  0.149200  0.362600  1.0
  H  H694  1  0.208000  0.149200  0.137400  1.0
  H  H695  1  0.708000  0.850800  0.637400  1.0
  H  H696  1  0.792000  0.850800  0.862600  1.0
  H  H697  1  0.535000  0.720200  0.215700  1.0
  H  H698  1  0.965000  0.720200  0.284300  1.0
  H  H699  1  0.465000  0.279800  0.784300  1.0
  H  H700  1  0.035000  0.279800  0.715700  1.0
  H  H701  1  0.421400  0.716800  0.227900  1.0
  H  H702  1  0.078600  0.716800  0.272100  1.0
  H  H703  1  0.578600  0.283200  0.772100  1.0
  H  H704  1  0.921400  0.283200  0.727900  1.0
  H  H705  1  0.317300  0.712900  0.201600  1.0
  H  H706  1  0.182700  0.712900  0.298400  1.0
  H  H707  1  0.682700  0.287100  0.798400  1.0
  H  H708  1  0.817300  0.287100  0.701600  1.0
  H  H709  1  0.369400  0.702100  0.093900  1.0
  H  H710  1  0.130600  0.702100  0.406100  1.0
  H  H711  1  0.630600  0.297900  0.906100  1.0
  H  H712  1  0.869400  0.297900  0.593900  1.0
  H  H713  1  0.278000  0.673400  0.077500  1.0
  H  H714  1  0.222000  0.673400  0.422500  1.0
  H  H715  1  0.722000  0.326600  0.922500  1.0
  H  H716  1  0.778000  0.326600  0.577500  1.0
  H  H717  1  0.228100  0.738900  0.170400  1.0
  H  H718  1  0.271900  0.738900  0.329600  1.0
  H  H719  1  0.771900  0.261100  0.829600  1.0
  H  H720  1  0.728100  0.261100  0.670400  1.0
  H  H721  1  0.125300  0.734800  0.141300  1.0
  H  H722  1  0.374700  0.734800  0.358700  1.0
  H  H723  1  0.874700  0.265200  0.858700  1.0
  H  H724  1  0.625300  0.265200  0.641300  1.0
  H  H725  1  0.046600  0.711100  0.084200  1.0
  H  H726  1  0.453400  0.711100  0.415800  1.0
  H  H727  1  0.953400  0.288900  0.915800  1.0
  H  H728  1  0.546600  0.288900  0.584200  1.0
  H  H729  1  0.968000  0.647500  0.064100  1.0
  H  H730  1  0.532000  0.647500  0.435900  1.0
  H  H731  1  0.032000  0.352500  0.935900  1.0
  H  H732  1  0.468000  0.352500  0.564100  1.0
  H  H733  1  0.869800  0.635900  0.028400  1.0
  H  H734  1  0.630200  0.635900  0.471600  1.0
  H  H735  1  0.130200  0.364100  0.971600  1.0
  H  H736  1  0.369800  0.364100  0.528400  1.0
  H  H737  1  0.929500  0.691500  0.932100  1.0
  H  H738  1  0.570500  0.691500  0.567900  1.0
  H  H739  1  0.070500  0.308500  0.067900  1.0
  H  H740  1  0.429500  0.308500  0.432100  1.0
  H  H741  1  0.027800  0.703100  0.967700  1.0
  H  H742  1  0.472200  0.703100  0.532300  1.0
  H  H743  1  0.972200  0.296900  0.032300  1.0
  H  H744  1  0.527800  0.296900  0.467700  1.0
  H  H745  1  0.825100  0.667100  0.926900  1.0
  H  H746  1  0.674900  0.667100  0.573100  1.0
  H  H747  1  0.174900  0.332900  0.073100  1.0
  H  H748  1  0.325100  0.332900  0.426900  1.0
  H  H749  1  0.814700  0.624800  0.953000  1.0
  H  H750  1  0.685300  0.624800  0.547000  1.0
  H  H751  1  0.185300  0.375200  0.047000  1.0
  H  H752  1  0.314700  0.375200  0.453000  1.0
  H  H753  1  0.794200  0.672400  0.966700  1.0
  H  H754  1  0.705800  0.672400  0.533300  1.0
  H  H755  1  0.205800  0.327600  0.033300  1.0
  H  H756  1  0.294200  0.327600  0.466700  1.0
  H  H757  1  0.625400  0.862800  0.253400  1.0
  H  H758  1  0.874600  0.862800  0.246600  1.0
  H  H759  1  0.374600  0.137200  0.746600  1.0
  H  H760  1  0.125400  0.137200  0.753400  1.0
  H  H761  1  0.726900  0.872800  0.284500  1.0
  H  H762  1  0.773100  0.872800  0.215500  1.0
  H  H763  1  0.273100  0.127200  0.715500  1.0
  H  H764  1  0.226900  0.127200  0.784500  1.0
  H  H765  1  0.688700  0.999800  0.305600  1.0
  H  H766  1  0.811300  0.999800  0.194400  1.0
  H  H767  1  0.311300  0.000200  0.694400  1.0
  H  H768  1  0.188700  0.000200  0.805600  1.0
  H  H769  1  0.586300  0.989600  0.274100  1.0
  H  H770  1  0.913700  0.989600  0.225900  1.0
  H  H771  1  0.413700  0.010400  0.725900  1.0
  H  H772  1  0.086300  0.010400  0.774100  1.0
  H  H773  1  0.808200  0.961500  0.299400  1.0
  H  H774  1  0.691800  0.961500  0.200600  1.0
  H  H775  1  0.191800  0.038500  0.700600  1.0
  H  H776  1  0.308200  0.038500  0.799400  1.0
  H  H777  1  0.806100  0.915400  0.321500  1.0
  H  H778  1  0.693900  0.915400  0.178500  1.0
  H  H779  1  0.193900  0.084600  0.678500  1.0
  H  H780  1  0.306100  0.084600  0.821500  1.0
  H  H781  1  0.785800  0.959300  0.342200  1.0
  H  H782  1  0.714200  0.959300  0.157800  1.0
  H  H783  1  0.214200  0.040700  0.657800  1.0
  H  H784  1  0.285800  0.040700  0.842200  1.0
  H  H785  1  0.526000  0.861600  0.263300  1.0
  H  H786  1  0.974000  0.861600  0.236700  1.0
  H  H787  1  0.474000  0.138400  0.736700  1.0
  H  H788  1  0.026000  0.138400  0.763300  1.0
  H  H789  1  0.429200  0.815200  0.246900  1.0
  H  H790  1  0.070800  0.815200  0.253100  1.0
  H  H791  1  0.570800  0.184800  0.753100  1.0
  H  H792  1  0.929200  0.184800  0.746900  1.0
  H  H793  1  0.328100  0.809700  0.216600  1.0
  H  H794  1  0.171900  0.809700  0.283400  1.0
  H  H795  1  0.671900  0.190300  0.783400  1.0
  H  H796  1  0.828100  0.190300  0.716600  1.0
  H  H797  1  0.339800  0.931900  0.175300  1.0
  H  H798  1  0.160200  0.931900  0.324700  1.0
  H  H799  1  0.660200  0.068100  0.824700  1.0
  H  H800  1  0.839800  0.068100  0.675300  1.0
  H  H801  1  0.263600  0.912000  0.130000  1.0
  H  H802  1  0.236400  0.912000  0.370000  1.0
  H  H803  1  0.736400  0.088000  0.870000  1.0
  H  H804  1  0.763600  0.088000  0.630000  1.0
  H  H805  1  0.225700  0.827800  0.213400  1.0
  H  H806  1  0.274300  0.827800  0.286600  1.0
  H  H807  1  0.774300  0.172200  0.786600  1.0
  H  H808  1  0.725700  0.172200  0.713400  1.0
  H  H809  1  0.126100  0.819200  0.180700  1.0
  H  H810  1  0.373900  0.819200  0.319300  1.0
  H  H811  1  0.873900  0.180800  0.819300  1.0
  H  H812  1  0.626100  0.180800  0.680700  1.0
  H  H813  1  0.049700  0.833300  0.119800  1.0
  H  H814  1  0.450300  0.833300  0.380200  1.0
  H  H815  1  0.950300  0.166700  0.880200  1.0
  H  H816  1  0.549700  0.166700  0.619800  1.0
  H  H817  1  0.036800  0.796600  0.052200  1.0
  H  H818  1  0.463200  0.796600  0.447800  1.0
  H  H819  1  0.963200  0.203400  0.947800  1.0
  H  H820  1  0.536800  0.203400  0.552200  1.0
  H  H821  1  0.952600  0.776200  0.005900  1.0
  H  H822  1  0.547400  0.776200  0.494100  1.0
  H  H823  1  0.047400  0.223800  0.994100  1.0
  H  H824  1  0.452600  0.223800  0.505900  1.0
  H  H825  1  0.886000  0.899300  0.004000  1.0
  H  H826  1  0.614000  0.899300  0.496000  1.0
  H  H827  1  0.114000  0.100700  0.996000  1.0
  H  H828  1  0.386000  0.100700  0.504000  1.0
  H  H829  1  0.975200  0.921300  0.044300  1.0
  H  H830  1  0.524800  0.921300  0.455700  1.0
  H  H831  1  0.024800  0.078700  0.955700  1.0
  H  H832  1  0.475200  0.078700  0.544300  1.0
  H  H833  1  0.816300  0.816700  0.991600  1.0
  H  H834  1  0.683700  0.816700  0.508400  1.0
  H  H835  1  0.183700  0.183300  0.008400  1.0
  H  H836  1  0.316300  0.183300  0.491600  1.0
  H  H837  1  0.859000  0.792300  0.963300  1.0
  H  H838  1  0.641000  0.792300  0.536700  1.0
  H  H839  1  0.141000  0.207700  0.036700  1.0
  H  H840  1  0.359000  0.207700  0.463300  1.0
  H  H841  1  0.839100  0.842400  0.955200  1.0
  H  H842  1  0.660900  0.842400  0.544800  1.0
  H  H843  1  0.160900  0.157600  0.044800  1.0
  H  H844  1  0.339100  0.157600  0.455200  1.0
  H  H845  1  0.583400  0.514700  0.323500  1.0
  H  H846  1  0.916600  0.514700  0.176500  1.0
  H  H847  1  0.416600  0.485300  0.676500  1.0
  H  H848  1  0.083400  0.485300  0.823500  1.0
  H  H849  1  0.692300  0.518300  0.334700  1.0
  H  H850  1  0.807700  0.518300  0.165300  1.0
  H  H851  1  0.307700  0.481700  0.665300  1.0
  H  H852  1  0.192300  0.481700  0.834700  1.0
  H  H853  1  0.687900  0.636600  0.279900  1.0
  H  H854  1  0.812100  0.636600  0.220100  1.0
  H  H855  1  0.312100  0.363400  0.720100  1.0
  H  H856  1  0.187900  0.363400  0.779900  1.0
  H  H857  1  0.579000  0.633100  0.268600  1.0
  H  H858  1  0.921000  0.633100  0.231400  1.0
  H  H859  1  0.421000  0.366900  0.731400  1.0
  H  H860  1  0.079000  0.366900  0.768600  1.0
  H  H861  1  0.787100  0.569900  0.341600  1.0
  H  H862  1  0.712900  0.569900  0.158400  1.0
  H  H863  1  0.212900  0.430100  0.658400  1.0
  H  H864  1  0.287100  0.430100  0.841600  1.0
  H  H865  1  0.786000  0.609700  0.311000  1.0
  H  H866  1  0.714000  0.609700  0.189000  1.0
  H  H867  1  0.214000  0.390300  0.689000  1.0
  H  H868  1  0.286000  0.390300  0.811000  1.0
  H  H869  1  0.788900  0.560100  0.295800  1.0
  H  H870  1  0.711100  0.560100  0.204200  1.0
  H  H871  1  0.211100  0.439900  0.704200  1.0
  H  H872  1  0.288900  0.439900  0.795800  1.0
  H  H873  1  0.494800  0.632200  0.304100  1.0
  H  H874  1  0.005200  0.632200  0.195900  1.0
  H  H875  1  0.505200  0.367800  0.695900  1.0
  H  H876  1  0.994800  0.367800  0.804100  1.0
  H  H877  1  0.393400  0.672800  0.293600  1.0
  H  H878  1  0.106600  0.672800  0.206400  1.0
  H  H879  1  0.606600  0.327200  0.706400  1.0
  H  H880  1  0.893400  0.327200  0.793600  1.0
  H  H881  1  0.289400  0.671400  0.273500  1.0
  H  H882  1  0.210600  0.671400  0.226500  1.0
  H  H883  1  0.710600  0.328600  0.726500  1.0
  H  H884  1  0.789400  0.328600  0.773500  1.0
  H  H885  1  0.300000  0.543600  0.249800  1.0
  H  H886  1  0.200000  0.543600  0.250200  1.0
  H  H887  1  0.700000  0.456400  0.750200  1.0
  H  H888  1  0.800000  0.456400  0.749800  1.0
  H  H889  1  0.657800  0.689600  0.136400  1.0
  H  H890  1  0.842200  0.689600  0.363600  1.0
  H  H891  1  0.342200  0.310400  0.863600  1.0
  H  H892  1  0.157800  0.310400  0.636400  1.0
  H  H893  1  0.763600  0.699200  0.159300  1.0
  H  H894  1  0.736400  0.699200  0.340700  1.0
  H  H895  1  0.236400  0.300800  0.840700  1.0
  H  H896  1  0.263600  0.300800  0.659300  1.0
  H  H897  1  0.611800  0.769900  0.222700  1.0
  H  H898  1  0.888200  0.769900  0.277300  1.0
  H  H899  1  0.388200  0.230100  0.777300  1.0
  H  H900  1  0.111800  0.230100  0.722700  1.0
  H  H901  1  0.841100  0.721300  0.226600  1.0
  H  H902  1  0.658900  0.721300  0.273400  1.0
  H  H903  1  0.158900  0.278700  0.773400  1.0
  H  H904  1  0.341100  0.278700  0.726600  1.0
  H  H905  1  0.839700  0.763200  0.198300  1.0
  H  H906  1  0.660300  0.763200  0.301700  1.0
  H  H907  1  0.160300  0.236800  0.801700  1.0
  H  H908  1  0.339700  0.236800  0.698300  1.0
  C  C909  1  0.556200  0.748300  0.347900  1
  C  C910  1  0.943800  0.748300  0.152100  1
  C  C911  1  0.443800  0.251700  0.652100  1
  C  C912  1  0.056200  0.251700  0.847900  1
  C  C913  1  0.564800  0.785500  0.371300  1
  C  C914  1  0.935200  0.785500  0.128700  1
  C  C915  1  0.435200  0.214500  0.628700  1
  C  C916  1  0.064800  0.214500  0.871300  1
  C  C917  1  0.606700  0.783900  0.405300  1
  C  C918  1  0.893300  0.783900  0.094700  1
  C  C919  1  0.393300  0.216100  0.594700  1
  C  C920  1  0.106700  0.216100  0.905300  1
  C  C921  1  0.639100  0.745800  0.416800  1
  C  C922  1  0.860900  0.745800  0.083200  1
  C  C923  1  0.360900  0.254200  0.583200  1
  C  C924  1  0.139100  0.254200  0.916800  1
  C  C925  1  0.629400  0.708900  0.392900  1
  C  C926  1  0.870600  0.708900  0.107100  1
  C  C927  1  0.370600  0.291100  0.607100  1
  C  C928  1  0.129400  0.291100  0.892900  1
  C  C929  1  0.588400  0.709900  0.358200  1
  C  C930  1  0.911600  0.709900  0.141800  1
  C  C931  1  0.411600  0.290100  0.641800  1
  C  C932  1  0.088400  0.290100  0.858200  1
  C  C933  1  0.685000  0.744800  0.453800  1
  C  C934  1  0.815000  0.744800  0.046200  1
  C  C935  1  0.315000  0.255200  0.546200  1
  C  C936  1  0.185000  0.255200  0.953800  1
  C  C937  1  0.949800  0.905200  0.145300  1
  C  C938  1  0.550200  0.905200  0.354700  1
  C  C939  1  0.050200  0.094800  0.854700  1
  C  C940  1  0.449800  0.094800  0.645300  1
  C  C941  1  0.887800  0.890900  0.128700  1
  C  C942  1  0.612200  0.890900  0.371300  1
  C  C943  1  0.112200  0.109100  0.871300  1
  C  C944  1  0.387800  0.109100  0.628700  1
  C  C945  1  0.768800  0.559800  0.040700  1
  C  C946  1  0.731200  0.559800  0.459300  1
  C  C947  1  0.231200  0.440200  0.959300  1
  C  C948  1  0.268800  0.440200  0.540700  1
  C  C949  1  0.761500  0.594500  0.069000  1
  C  C950  1  0.738500  0.594500  0.431000  1
  C  C951  1  0.238500  0.405500  0.931000  1
  C  C952  1  0.261500  0.405500  0.569000  1
  C  C953  1  0.547800  0.059300  0.205300  1
  C  C954  1  0.952200  0.059300  0.294700  1
  C  C955  1  0.452200  0.940700  0.794700  1
  C  C956  1  0.047800  0.940700  0.705300  1
  C  C957  1  0.541700  0.094900  0.179800  1
  C  C958  1  0.958300  0.094900  0.320200  1
  C  C959  1  0.458300  0.905100  0.820200  1
  C  C960  1  0.041700  0.905100  0.679800  1
  C  C961  1  0.540400  0.137400  0.194600  1
  C  C962  1  0.959600  0.137400  0.305400  1
  C  C963  1  0.459600  0.862600  0.805400  1
  C  C964  1  0.040400  0.862600  0.694600  1
  C  C965  1  0.545200  0.144200  0.235000  1
  C  C966  1  0.954800  0.144200  0.265000  1
  C  C967  1  0.454800  0.855800  0.765000  1
  C  C968  1  0.045200  0.855800  0.735000  1
  C  C969  1  0.551300  0.108500  0.260600  1
  C  C970  1  0.948700  0.108500  0.239400  1
  C  C971  1  0.448700  0.891500  0.739400  1
  C  C972  1  0.051300  0.891500  0.760600  1
  C  C973  1  0.552600  0.066100  0.245800  1
  C  C974  1  0.947400  0.066100  0.254200  1
  C  C975  1  0.447400  0.933900  0.754200  1
  C  C976  1  0.052600  0.933900  0.745800  1
  C  C977  1  0.542000  0.190700  0.252500  1
  C  C978  1  0.958000  0.190700  0.247500  1
  C  C979  1  0.458000  0.809300  0.747500  1
  C  C980  1  0.042000  0.809300  0.752500  1
  C  C981  1  0.624400  0.700900  0.176000  1
  C  C982  1  0.875600  0.700900  0.324000  1
  C  C983  1  0.375600  0.299100  0.824000  1
  C  C984  1  0.124400  0.299100  0.676000  1
  C  C985  1  0.646800  0.671400  0.205600  1
  C  C986  1  0.853200  0.671400  0.294400  1
  C  C987  1  0.353200  0.328600  0.794400  1
  C  C988  1  0.146800  0.328600  0.705600  1
  C  C989  1  0.710800  0.667500  0.217300  1
  C  C990  1  0.789200  0.667500  0.282700  1
  C  C991  1  0.289200  0.332500  0.782700  1
  C  C992  1  0.210800  0.332500  0.717300  1
  C  C993  1  0.753800  0.693000  0.199700  1
  C  C994  1  0.746200  0.693000  0.300300  1
  C  C995  1  0.246200  0.307000  0.800300  1
  C  C996  1  0.253800  0.307000  0.699700  1
  C  C997  1  0.730600  0.722600  0.170100  1
  C  C998  1  0.769400  0.722600  0.329900  1
  C  C999  1  0.269400  0.277400  0.829900  1
  C  C1000  1  0.230600  0.277400  0.670100  1
  C  C1001  1  0.666667  0.726600  0.158300  1
  C  C1002  1  0.833333  0.726600  0.341700  1
  C  C1003  1  0.333333  0.273400  0.841700  1
  C  C1004  1  0.166667  0.273400  0.658300  1
  C  C1005  1  0.823000  0.687900  0.211700  1
  C  C1006  1  0.677000  0.687900  0.288300  1
  C  C1007  1  0.177000  0.312100  0.788300  1
  C  C1008  1  0.323000  0.312100  0.711700  1
  C  C1009  1  0.002700  0.668400  0.027700  1
  C  C1010  1  0.497300  0.668400  0.472300  1
  C  C1011  1  0.997300  0.331600  0.972300  1
  C  C1012  1  0.502700  0.331600  0.527700  1
  C  C1013  1  0.986500  0.668800  0.986900  1
  C  C1014  1  0.513500  0.668800  0.513100  1
  C  C1015  1  0.013500  0.331200  0.013100  1
  C  C1016  1  0.486500  0.331200  0.486900  1
  C  C1017  1  0.923800  0.667900  0.970900  1
  C  C1018  1  0.576200  0.667900  0.529100  1
  C  C1019  1  0.076200  0.332100  0.029100  1
  C  C1020  1  0.423800  0.332100  0.470900  1
  C  C1021  1  0.876100  0.666667  0.995100  1
  C  C1022  1  0.623900  0.666667  0.504900  1
  C  C1023  1  0.123900  0.333333  0.004900  1
  C  C1024  1  0.376100  0.333333  0.495100  1
  C  C1025  1  0.893100  0.666400  0.036000  1
  C  C1026  1  0.606900  0.666400  0.464000  1
  C  C1027  1  0.106900  0.333600  0.964000  1
  C  C1028  1  0.393100  0.333600  0.536000  1
  C  C1029  1  0.955800  0.667200  0.052300  1
  C  C1030  1  0.544200  0.667200  0.447700  1
  C  C1031  1  0.044200  0.332800  0.947700  1
  C  C1032  1  0.455800  0.332800  0.552300  1
  C  C1033  1  0.808500  0.664500  0.977700  1
  C  C1034  1  0.691500  0.664500  0.522300  1
  C  C1035  1  0.191500  0.335500  0.022300  1
  C  C1036  1  0.308500  0.335500  0.477700  1
  C  C1037  1  0.567500  0.575100  0.308200  1
  C  C1038  1  0.932500  0.575100  0.191800  1
  C  C1039  1  0.432500  0.424900  0.691800  1
  C  C1040  1  0.067500  0.424900  0.808200  1
  C  C1041  1  0.587300  0.608500  0.334800  1
  C  C1042  1  0.912700  0.608500  0.165200  1
  C  C1043  1  0.412700  0.391500  0.665200  1
  C  C1044  1  0.087300  0.391500  0.834800  1
  C  C1045  1  0.650700  0.613600  0.348000  1
  C  C1046  1  0.849300  0.613600  0.152000  1
  C  C1047  1  0.349300  0.386400  0.652000  1
  C  C1048  1  0.150700  0.386400  0.848000  1
  C  C1049  1  0.695500  0.585700  0.335100  1
  C  C1050  1  0.804500  0.585700  0.164900  1
  C  C1051  1  0.304500  0.414300  0.664900  1
  C  C1052  1  0.195500  0.414300  0.835100  1
  C  C1053  1  0.674900  0.552400  0.308300  1
  C  C1054  1  0.825100  0.552400  0.191700  1
  C  C1055  1  0.325100  0.447600  0.691700  1
  C  C1056  1  0.174900  0.447600  0.808300  1
  C  C1057  1  0.611500  0.547000  0.294900  1
  C  C1058  1  0.888500  0.547000  0.205100  1
  C  C1059  1  0.388500  0.453000  0.705100  1
  C  C1060  1  0.111500  0.453000  0.794900  1
  C  C1061  1  0.763700  0.591000  0.350000  1
  C  C1062  1  0.736300  0.591000  0.150000  1
  C  C1063  1  0.236300  0.409000  0.650000  1
  C  C1064  1  0.263700  0.409000  0.850000  1
  C  C1065  1  0.574300  0.758100  0.349300  1
  C  C1066  1  0.925700  0.758100  0.150700  1
  C  C1067  1  0.425700  0.241900  0.650700  1
  C  C1068  1  0.074300  0.241900  0.849300  1
  C  C1069  1  0.589500  0.802100  0.346500  1
  C  C1070  1  0.910500  0.802100  0.153500  1
  C  C1071  1  0.410500  0.197900  0.653500  1
  C  C1072  1  0.089500  0.197900  0.846500  1
  C  C1073  1  0.640200  0.818500  0.370800  1
  C  C1074  1  0.859800  0.818500  0.129200  1
  C  C1075  1  0.359800  0.181500  0.629200  1
  C  C1076  1  0.140200  0.181500  0.870800  1
  C  C1077  1  0.676200  0.791900  0.397500  1
  C  C1078  1  0.823800  0.791900  0.102500  1
  C  C1079  1  0.323800  0.208100  0.602500  1
  C  C1080  1  0.176200  0.208100  0.897500  1
  C  C1081  1  0.661000  0.747700  0.399100  1
  C  C1082  1  0.839000  0.747700  0.100900  1
  C  C1083  1  0.339000  0.252300  0.600900  1
  C  C1084  1  0.161000  0.252300  0.899100  1
  C  C1085  1  0.610400  0.730400  0.375000  1
  C  C1086  1  0.889600  0.730400  0.125000  1
  C  C1087  1  0.389600  0.269600  0.625000  1
  C  C1088  1  0.110400  0.269600  0.875000  1
  C  C1089  1  0.731000  0.811000  0.424000  1
  C  C1090  1  0.769000  0.811000  0.076000  1
  C  C1091  1  0.269000  0.189000  0.576000  1
  C  C1092  1  0.231000  0.189000  0.924000  1
  C  C1093  1  0.588400  0.767000  0.334700  1
  C  C1094  1  0.911600  0.767000  0.165300  1
  C  C1095  1  0.411600  0.233000  0.665300  1
  C  C1096  1  0.088400  0.233000  0.834700  1
  C  C1097  1  0.619000  0.788500  0.307000  1
  C  C1098  1  0.881000  0.788500  0.193000  1
  C  C1099  1  0.381000  0.211500  0.693000  1
  C  C1100  1  0.119000  0.211500  0.807000  1
  C  C1101  1  0.676700  0.807200  0.318600  1
  C  C1102  1  0.823300  0.807200  0.181400  1
  C  C1103  1  0.323300  0.192800  0.681400  1
  C  C1104  1  0.176700  0.192800  0.818600  1
  C  C1105  1  0.705200  0.804500  0.357100  1
  C  C1106  1  0.794800  0.804500  0.142900  1
  C  C1107  1  0.294800  0.195500  0.642900  1
  C  C1108  1  0.205200  0.195500  0.857100  1
  C  C1109  1  0.675300  0.780600  0.383600  1
  C  C1110  1  0.824700  0.780600  0.116400  1
  C  C1111  1  0.324700  0.219400  0.616400  1
  C  C1112  1  0.175300  0.219400  0.883600  1
  C  C1113  1  0.617300  0.761600  0.372800  1
  C  C1114  1  0.882700  0.761600  0.127200  1
  C  C1115  1  0.382700  0.238400  0.627200  1
  C  C1116  1  0.117300  0.238400  0.872800  1
  C  C1117  1  0.765400  0.829000  0.369700  1
  C  C1118  1  0.734600  0.829000  0.130300  1
  C  C1119  1  0.234600  0.171000  0.630300  1
  C  C1120  1  0.265400  0.171000  0.869700  1
  C  C1121  1  0.410400  0.957100  0.519800  1.0
  C  C1122  1  0.089600  0.957100  0.980200  1.0
  C  C1123  1  0.589600  0.042900  0.480200  1.0
  C  C1124  1  0.910400  0.042900  0.019800  1.0
  C  C1125  1  0.427500  0.915900  0.535200  1.0
  C  C1126  1  0.072500  0.915900  0.964800  1.0
  C  C1127  1  0.572500  0.084100  0.464800  1.0
  C  C1128  1  0.927500  0.084100  0.035200  1.0
  C  C1129  1  0.428300  0.907500  0.575600  1.0
  C  C1130  1  0.071700  0.907500  0.924400  1.0
  C  C1131  1  0.571700  0.092500  0.424400  1.0
  C  C1132  1  0.928300  0.092500  0.075600  1.0
  C  C1133  1  0.410900  0.940500  0.599900  1.0
  C  C1134  1  0.089100  0.940500  0.900100  1.0
  C  C1135  1  0.589100  0.059500  0.400100  1.0
  C  C1136  1  0.910900  0.059500  0.099900  1.0
  C  C1137  1  0.391900  0.980800  0.583800  1.0
  C  C1138  1  0.108100  0.980800  0.916200  1.0
  C  C1139  1  0.608100  0.019200  0.416200  1.0
  C  C1140  1  0.891900  0.019200  0.083800  1.0
  C  C1141  1  0.391400  0.989600  0.544100  1.0
  C  C1142  1  0.108600  0.989600  0.955900  1.0
  C  C1143  1  0.608600  0.010400  0.455900  1.0
  C  C1144  1  0.891400  0.010400  0.044100  1.0
  C  C1145  1  0.413700  0.930900  0.644400  1.0
  C  C1146  1  0.086300  0.930900  0.855600  1.0
  C  C1147  1  0.586300  0.069100  0.355600  1.0
  C  C1148  1  0.913700  0.069100  0.144400  1.0
  C  C1149  1  0.423600  0.001700  0.466000  1.0
  C  C1150  1  0.076400  0.001700  0.034000  1.0
  C  C1151  1  0.576400  0.998300  0.534000  1.0
  C  C1152  1  0.923600  0.998300  0.966000  1.0
  C  C1153  1  0.419700  0.010500  0.423600  1.0
  C  C1154  1  0.080300  0.010500  0.076400  1.0
  C  C1155  1  0.580300  0.989500  0.576400  1.0
  C  C1156  1  0.919700  0.989500  0.923600  1.0
  C  C1157  1  0.429600  0.052300  0.409900  1.0
  C  C1158  1  0.070400  0.052300  0.090100  1.0
  C  C1159  1  0.570400  0.947700  0.590100  1.0
  C  C1160  1  0.929600  0.947700  0.909900  1.0
  C  C1161  1  0.424600  0.059000  0.370100  1.0
  C  C1162  1  0.075400  0.059000  0.129900  1.0
  C  C1163  1  0.575400  0.941000  0.629900  1.0
  C  C1164  1  0.924600  0.941000  0.870100  1.0
  C  C1165  1  0.411500  0.023900  0.344600  1.0
  C  C1166  1  0.088500  0.023900  0.155400  1.0
  C  C1167  1  0.588500  0.976100  0.655400  1.0
  C  C1168  1  0.911500  0.976100  0.844600  1.0
  C  C1169  1  0.401900  0.983200  0.360800  1.0
  C  C1170  1  0.098100  0.983200  0.139200  1.0
  C  C1171  1  0.598100  0.016800  0.639200  1.0
  C  C1172  1  0.901900  0.016800  0.860800  1.0
  C  C1173  1  0.435500  0.999500  0.278100  1.0
  C  C1174  1  0.064500  0.999500  0.221900  1.0
  C  C1175  1  0.564500  0.000500  0.721900  1.0
  C  C1176  1  0.935500  0.000500  0.778100  1.0
  C  C1177  1  0.407200  0.029500  0.301400  1.0
  C  C1178  1  0.092800  0.029500  0.198600  1.0
  C  C1179  1  0.592800  0.970500  0.698600  1.0
  C  C1180  1  0.907200  0.970500  0.801400  1.0
  C  C1181  1  0.374200  0.064100  0.282200  1.0
  C  C1182  1  0.125800  0.064100  0.217800  1.0
  C  C1183  1  0.625800  0.935900  0.717800  1.0
  C  C1184  1  0.874200  0.935900  0.782200  1.0
  C  C1185  1  0.370100  0.067600  0.242000  1.0
  C  C1186  1  0.129900  0.067600  0.258000  1.0
  C  C1187  1  0.629900  0.932400  0.758000  1.0
  C  C1188  1  0.870100  0.932400  0.742000  1.0
  C  C1189  1  0.398000  0.035800  0.221200  1.0
  C  C1190  1  0.102000  0.035800  0.278800  1.0
  C  C1191  1  0.602000  0.964200  0.778800  1.0
  C  C1192  1  0.898000  0.964200  0.721200  1.0
  C  C1193  1  0.392000  0.035800  0.177700  1.0
  C  C1194  1  0.108000  0.035800  0.322300  1.0
  C  C1195  1  0.608000  0.964200  0.822300  1.0
  C  C1196  1  0.892000  0.964200  0.677700  1.0
  C  C1197  1  0.411400  0.004400  0.118000  1.0
  C  C1198  1  0.088600  0.004400  0.382000  1.0
  C  C1199  1  0.588600  0.995600  0.882000  1.0
  C  C1200  1  0.911400  0.995600  0.618000  1.0
  C  C1201  1  0.423300  0.042300  0.097900  1.0
  C  C1202  1  0.076700  0.042300  0.402100  1.0
  C  C1203  1  0.576700  0.957700  0.902100  1.0
  C  C1204  1  0.923300  0.957700  0.597900  1.0
  C  C1205  1  0.424400  0.040500  0.057500  1.0
  C  C1206  1  0.075600  0.040500  0.442500  1.0
  C  C1207  1  0.575600  0.959500  0.942500  1.0
  C  C1208  1  0.924400  0.959500  0.557500  1.0
  C  C1209  1  0.412300  0.001300  0.036900  1.0
  C  C1210  1  0.087700  0.001300  0.463100  1.0
  C  C1211  1  0.587700  0.998700  0.963100  1.0
  C  C1212  1  0.912300  0.998700  0.536900  1.0
  C  C1213  1  0.401000  0.963900  0.057700  1.0
  C  C1214  1  0.099000  0.963900  0.442300  1.0
  C  C1215  1  0.599000  0.036100  0.942300  1.0
  C  C1216  1  0.901000  0.036100  0.557700  1.0
  C  C1217  1  0.399800  0.965300  0.097900  1.0
  C  C1218  1  0.100200  0.965300  0.402100  1.0
  C  C1219  1  0.600200  0.034700  0.902100  1.0
  C  C1220  1  0.899800  0.034700  0.597900  1.0
  C  C1221  1  0.414000  0.000200  0.992500  1.0
  C  C1222  1  0.086000  0.000200  0.507500  1.0
  C  C1223  1  0.586000  0.999800  0.007500  1.0
  C  C1224  1  0.914000  0.999800  0.492500  1.0
  C  C1225  1  0.574000  0.053200  0.212100  1.0
  C  C1226  1  0.926000  0.053200  0.287900  1.0
  C  C1227  1  0.426000  0.946800  0.787900  1.0
  C  C1228  1  0.074000  0.946800  0.712100  1.0
  C  C1229  1  0.635900  0.057100  0.227600  1.0
  C  C1230  1  0.864100  0.057100  0.272400  1.0
  C  C1231  1  0.364100  0.942900  0.772400  1.0
  C  C1232  1  0.135900  0.942900  0.727600  1.0
  C  C1233  1  0.655000  0.093400  0.250200  1.0
  C  C1234  1  0.845000  0.093400  0.249800  1.0
  C  C1235  1  0.345000  0.906600  0.749800  1.0
  C  C1236  1  0.155000  0.906600  0.750200  1.0
  C  C1237  1  0.613300  0.126400  0.256000  1.0
  C  C1238  1  0.886700  0.126400  0.244000  1.0
  C  C1239  1  0.386700  0.873600  0.744000  1.0
  C  C1240  1  0.113300  0.873600  0.756000  1.0
  C  C1241  1  0.550500  0.119300  0.245700  1.0
  C  C1242  1  0.949500  0.119300  0.254300  1.0
  C  C1243  1  0.449500  0.880700  0.754300  1.0
  C  C1244  1  0.050500  0.880700  0.745700  1.0
  C  C1245  1  0.531100  0.084100  0.220900  1.0
  C  C1246  1  0.968900  0.084100  0.279100  1.0
  C  C1247  1  0.468900  0.915900  0.779100  1.0
  C  C1248  1  0.031100  0.915900  0.720900  1.0
  C  C1249  1  0.637000  0.167000  0.279700  1.0
  C  C1250  1  0.863000  0.167000  0.220300  1.0
  C  C1251  1  0.363000  0.833000  0.720300  1.0
  C  C1252  1  0.137000  0.833000  0.779700  1.0
  C  C1253  1  0.574400  0.005600  0.159500  1.0
  C  C1254  1  0.925600  0.005600  0.340500  1.0
  C  C1255  1  0.425600  0.994400  0.840500  1.0
  C  C1256  1  0.074400  0.994400  0.659500  1.0
  C  C1257  1  0.560700  0.964800  0.138100  1.0
  C  C1258  1  0.939300  0.964800  0.361900  1.0
  C  C1259  1  0.439300  0.035200  0.861900  1.0
  C  C1260  1  0.060700  0.035200  0.638100  1.0
  C  C1261  1  0.585400  0.955800  0.103800  1.0
  C  C1262  1  0.914600  0.955800  0.396200  1.0
  C  C1263  1  0.414600  0.044200  0.896200  1.0
  C  C1264  1  0.085400  0.044200  0.603800  1.0
  C  C1265  1  0.569600  0.917800  0.084700  1.0
  C  C1266  1  0.930400  0.917800  0.415300  1.0
  C  C1267  1  0.430400  0.082200  0.915300  1.0
  C  C1268  1  0.069600  0.082200  0.584700  1.0
  C  C1269  1  0.530800  0.887400  0.099500  1.0
  C  C1270  1  0.969200  0.887400  0.400500  1.0
  C  C1271  1  0.469200  0.112600  0.900500  1.0
  C  C1272  1  0.030800  0.112600  0.599500  1.0
  C  C1273  1  0.508300  0.898600  0.134800  1.0
  C  C1274  1  0.991700  0.898600  0.365200  1.0
  C  C1275  1  0.491700  0.101400  0.865200  1.0
  C  C1276  1  0.008300  0.101400  0.634800  1.0
  C  C1277  1  0.514100  0.805700  0.098200  1.0
  C  C1278  1  0.985900  0.805700  0.401800  1.0
  C  C1279  1  0.485900  0.194300  0.901800  1.0
  C  C1280  1  0.014100  0.194300  0.598200  1.0
  C  C1281  1  0.511400  0.846300  0.079100  1.0
  C  C1282  1  0.988600  0.846300  0.420900  1.0
  C  C1283  1  0.488600  0.153700  0.920900  1.0
  C  C1284  1  0.011400  0.153700  0.579100  1.0
  C  C1285  1  0.491700  0.845300  0.038700  1.0
  C  C1286  1  0.008300  0.845300  0.461300  1.0
  C  C1287  1  0.508300  0.154700  0.961300  1.0
  C  C1288  1  0.991700  0.154700  0.538700  1.0
  C  C1289  1  0.475600  0.806200  0.020800  1.0
  C  C1290  1  0.024400  0.806200  0.479200  1.0
  C  C1291  1  0.524400  0.193800  0.979200  1.0
  C  C1292  1  0.975600  0.193800  0.520800  1.0
  C  C1293  1  0.478500  0.767800  0.041700  1.0
  C  C1294  1  0.021500  0.767800  0.458300  1.0
  C  C1295  1  0.521500  0.232200  0.958300  1.0
  C  C1296  1  0.978500  0.232200  0.541700  1.0
  C  C1297  1  0.461500  0.725100  0.024200  1.0
  C  C1298  1  0.038500  0.725100  0.475800  1.0
  C  C1299  1  0.538500  0.274900  0.975800  1.0
  C  C1300  1  0.961500  0.274900  0.524200  1.0
  C  C1301  1  0.448800  0.648400  0.028800  1.0
  C  C1302  1  0.051200  0.648400  0.471200  1.0
  C  C1303  1  0.551200  0.351600  0.971200  1.0
  C  C1304  1  0.948800  0.351600  0.528800  1.0
  C  C1305  1  0.468200  0.636000  0.993700  1.0
  C  C1306  1  0.031800  0.636000  0.506300  1.0
  C  C1307  1  0.531800  0.364000  0.006300  1.0
  C  C1308  1  0.968200  0.364000  0.493700  1.0
  C  C1309  1  0.457000  0.593100  0.980500  1.0
  C  C1310  1  0.043000  0.593100  0.519500  1.0
  C  C1311  1  0.543000  0.406900  0.019500  1.0
  C  C1312  1  0.957000  0.406900  0.480500  1.0
  C  C1313  1  0.428800  0.562000  0.002000  1.0
  C  C1314  1  0.071200  0.562000  0.498000  1.0
  C  C1315  1  0.571200  0.438000  0.998000  1.0
  C  C1316  1  0.928800  0.438000  0.502000  1.0
  C  C1317  1  0.408200  0.575900  0.036800  1.0
  C  C1318  1  0.091800  0.575900  0.463200  1.0
  C  C1319  1  0.591800  0.424100  0.963200  1.0
  C  C1320  1  0.908200  0.424100  0.536800  1.0
  C  C1321  1  0.418800  0.617800  0.049900  1.0
  C  C1322  1  0.081200  0.617800  0.450100  1.0
  C  C1323  1  0.581200  0.382200  0.950100  1.0
  C  C1324  1  0.918800  0.382200  0.549900  1.0
  C  C1325  1  0.419900  0.514900  0.987600  1.0
  C  C1326  1  0.080100  0.514900  0.512400  1.0
  C  C1327  1  0.580100  0.485100  0.012400  1.0
  C  C1328  1  0.919900  0.485100  0.487600  1.0
  C  C1329  1  0.618000  0.723000  0.044400  1.0
  C  C1330  1  0.882000  0.723000  0.455600  1.0
  C  C1331  1  0.382000  0.277000  0.955600  1.0
  C  C1332  1  0.118000  0.277000  0.544400  1.0
  C  C1333  1  0.635300  0.764000  0.058700  1.0
  C  C1334  1  0.864700  0.764000  0.441300  1.0
  C  C1335  1  0.364700  0.236000  0.941300  1.0
  C  C1336  1  0.135300  0.236000  0.558700  1.0
  C  C1337  1  0.651300  0.796500  0.034400  1.0
  C  C1338  1  0.848700  0.796500  0.465600  1.0
  C  C1339  1  0.348700  0.203500  0.965600  1.0
  C  C1340  1  0.151300  0.203500  0.534400  1.0
  C  C1341  1  0.650700  0.789000  0.994500  1.0
  C  C1342  1  0.849300  0.789000  0.505500  1.0
  C  C1343  1  0.349300  0.211000  0.005500  1.0
  C  C1344  1  0.150700  0.211000  0.494500  1.0
  C  C1345  1  0.636200  0.746800  0.980500  1.0
  C  C1346  1  0.863800  0.746800  0.519500  1.0
  C  C1347  1  0.363800  0.253200  0.019500  1.0
  C  C1348  1  0.136200  0.253200  0.480500  1.0
  C  C1349  1  0.619300  0.714100  0.004700  1.0
  C  C1350  1  0.880700  0.714100  0.495300  1.0
  C  C1351  1  0.380700  0.285900  0.995300  1.0
  C  C1352  1  0.119300  0.285900  0.504700  1.0
  C  C1353  1  0.663400  0.826700  0.966700  1.0
  C  C1354  1  0.836600  0.826700  0.533300  1.0
  C  C1355  1  0.336600  0.173300  0.033300  1.0
  C  C1356  1  0.163400  0.173300  0.466700  1.0
  C  C1357  1  0.604700  0.651100  0.065100  1.0
  C  C1358  1  0.895300  0.651100  0.434900  1.0
  C  C1359  1  0.395300  0.348900  0.934900  1.0
  C  C1360  1  0.104700  0.348900  0.565100  1.0
  C  C1361  1  0.577000  0.618400  0.088600  1.0
  C  C1362  1  0.923000  0.618400  0.411400  1.0
  C  C1363  1  0.423000  0.381600  0.911400  1.0
  C  C1364  1  0.077000  0.381600  0.588600  1.0
  C  C1365  1  0.587300  0.574300  0.084800  1.0
  C  C1366  1  0.912700  0.574300  0.415200  1.0
  C  C1367  1  0.412700  0.425700  0.915200  1.0
  C  C1368  1  0.087300  0.425700  0.584800  1.0
  C  C1369  1  0.557700  0.545100  0.106500  1.0
  C  C1370  1  0.942300  0.545100  0.393500  1.0
  C  C1371  1  0.442300  0.454900  0.893500  1.0
  C  C1372  1  0.057700  0.454900  0.606500  1.0
  C  C1373  1  0.517000  0.560700  0.131800  1.0
  C  C1374  1  0.983000  0.560700  0.368200  1.0
  C  C1375  1  0.483000  0.439300  0.868200  1.0
  C  C1376  1  0.017000  0.439300  0.631800  1.0
  C  C1377  1  0.508500  0.605700  0.133400  1.0
  C  C1378  1  0.991500  0.605700  0.366600  1.0
  C  C1379  1  0.491500  0.394300  0.866600  1.0
  C  C1380  1  0.008500  0.394300  0.633400  1.0
  C  C1381  1  0.476400  0.537500  0.193800  1.0
  C  C1382  1  0.023600  0.537500  0.306200  1.0
  C  C1383  1  0.523600  0.462500  0.806200  1.0
  C  C1384  1  0.976400  0.462500  0.693800  1.0
  C  C1385  1  0.481300  0.530500  0.153900  1.0
  C  C1386  1  0.018700  0.530500  0.346100  1.0
  C  C1387  1  0.518700  0.469500  0.846100  1.0
  C  C1388  1  0.981300  0.469500  0.653900  1.0
  C  C1389  1  0.449800  0.493900  0.136900  1.0
  C  C1390  1  0.050200  0.493900  0.363100  1.0
  C  C1391  1  0.550200  0.506100  0.863100  1.0
  C  C1392  1  0.949800  0.506100  0.636900  1.0
  C  C1393  1  0.415000  0.467600  0.158300  1.0
  C  C1394  1  0.085000  0.467600  0.341700  1.0
  C  C1395  1  0.585000  0.532400  0.841700  1.0
  C  C1396  1  0.915000  0.532400  0.658300  1.0
  C  C1397  1  0.412400  0.477400  0.197300  1.0
  C  C1398  1  0.087600  0.477400  0.302700  1.0
  C  C1399  1  0.587600  0.522600  0.802700  1.0
  C  C1400  1  0.912400  0.522600  0.697300  1.0
  C  C1401  1  0.373800  0.452500  0.221500  1.0
  C  C1402  1  0.126200  0.452500  0.278500  1.0
  C  C1403  1  0.626200  0.547500  0.778500  1.0
  C  C1404  1  0.873800  0.547500  0.721500  1.0
  C  C1405  1  0.332100  0.440200  0.281100  1.0
  C  C1406  1  0.167900  0.440200  0.218900  1.0
  C  C1407  1  0.667900  0.559800  0.718900  1.0
  C  C1408  1  0.832100  0.559800  0.781100  1.0
  C  C1409  1  0.297400  0.462100  0.306300  1.0
  C  C1410  1  0.202600  0.462100  0.193700  1.0
  C  C1411  1  0.702600  0.537900  0.693700  1.0
  C  C1412  1  0.797400  0.537900  0.806300  1.0
  C  C1413  1  0.264800  0.438600  0.331400  1.0
  C  C1414  1  0.235200  0.438600  0.168600  1.0
  C  C1415  1  0.735200  0.561400  0.668600  1.0
  C  C1416  1  0.764800  0.561400  0.831400  1.0
  C  C1417  1  0.267000  0.393300  0.332800  1.0
  C  C1418  1  0.233000  0.393300  0.167200  1.0
  C  C1419  1  0.733000  0.606700  0.667200  1.0
  C  C1420  1  0.767000  0.606700  0.832800  1.0
  C  C1421  1  0.302000  0.371800  0.307400  1.0
  C  C1422  1  0.198000  0.371800  0.192600  1.0
  C  C1423  1  0.698000  0.628200  0.692600  1.0
  C  C1424  1  0.802000  0.628200  0.807400  1.0
  C  C1425  1  0.334400  0.394600  0.281200  1.0
  C  C1426  1  0.165600  0.394600  0.218800  1.0
  C  C1427  1  0.665600  0.605400  0.718800  1.0
  C  C1428  1  0.834400  0.605400  0.781200  1.0
  C  C1429  1  0.230800  0.367700  0.360900  1.0
  C  C1430  1  0.269200  0.367700  0.139100  1.0
  C  C1431  1  0.769200  0.632300  0.639100  1.0
  C  C1432  1  0.730800  0.632300  0.860900  1.0
  C  C1433  1  0.526500  0.431700  0.261000  1.0
  C  C1434  1  0.973500  0.431700  0.239000  1.0
  C  C1435  1  0.473500  0.568300  0.739000  1.0
  C  C1436  1  0.026500  0.568300  0.761000  1.0
  C  C1437  1  0.512800  0.387300  0.255700  1.0
  C  C1438  1  0.987200  0.387300  0.244300  1.0
  C  C1439  1  0.487200  0.612700  0.744300  1.0
  C  C1440  1  0.012800  0.612700  0.755700  1.0
  C  C1441  1  0.542700  0.364300  0.227900  1.0
  C  C1442  1  0.957300  0.364300  0.272100  1.0
  C  C1443  1  0.457300  0.635700  0.772100  1.0
  C  C1444  1  0.042700  0.635700  0.727900  1.0
  C  C1445  1  0.583200  0.385800  0.206000  1.0
  C  C1446  1  0.916800  0.385800  0.294000  1.0
  C  C1447  1  0.416800  0.614200  0.794000  1.0
  C  C1448  1  0.083200  0.614200  0.706000  1.0
  C  C1449  1  0.598300  0.429900  0.212500  1.0
  C  C1450  1  0.901700  0.429900  0.287500  1.0
  C  C1451  1  0.401700  0.570100  0.787500  1.0
  C  C1452  1  0.098300  0.570100  0.712500  1.0
  C  C1453  1  0.566600  0.452800  0.238400  1.0
  C  C1454  1  0.933400  0.452800  0.261600  1.0
  C  C1455  1  0.433400  0.547200  0.761600  1.0
  C  C1456  1  0.066600  0.547200  0.738400  1.0
  C  C1457  1  0.618000  0.361200  0.176100  1.0
  C  C1458  1  0.882000  0.361200  0.323900  1.0
  C  C1459  1  0.382000  0.638800  0.823900  1.0
  C  C1460  1  0.118000  0.638800  0.676100  1.0
  C  C1461  1  0.489800  0.438200  0.321200  1.0
  C  C1462  1  0.010200  0.438200  0.178800  1.0
  C  C1463  1  0.510200  0.561800  0.678800  1.0
  C  C1464  1  0.989800  0.561800  0.821200  1.0
  C  C1465  1  0.453300  0.459700  0.348400  1.0
  C  C1466  1  0.046700  0.459700  0.151600  1.0
  C  C1467  1  0.546700  0.540300  0.651600  1.0
  C  C1468  1  0.953300  0.540300  0.848400  1.0
  C  C1469  1  0.439300  0.439100  0.381700  1.0
  C  C1470  1  0.060700  0.439100  0.118300  1.0
  C  C1471  1  0.560700  0.560900  0.618300  1.0
  C  C1472  1  0.939300  0.560900  0.881700  1.0
  C  C1473  1  0.403300  0.460600  0.405900  1.0
  C  C1474  1  0.096700  0.460600  0.094100  1.0
  C  C1475  1  0.596700  0.539400  0.594100  1.0
  C  C1476  1  0.903300  0.539400  0.905900  1.0
  C  C1477  1  0.382600  0.503000  0.397000  1.0
  C  C1478  1  0.117400  0.503000  0.103000  1.0
  C  C1479  1  0.617400  0.497000  0.603000  1.0
  C  C1480  1  0.882600  0.497000  0.897000  1.0
  C  C1481  1  0.398100  0.521300  0.362600  1.0
  C  C1482  1  0.101900  0.521300  0.137400  1.0
  C  C1483  1  0.601900  0.478700  0.637400  1.0
  C  C1484  1  0.898100  0.478700  0.862600  1.0
  C  C1485  1  0.357300  0.570100  0.434600  1.0
  C  C1486  1  0.142700  0.570100  0.065400  1.0
  C  C1487  1  0.642700  0.429900  0.565400  1.0
  C  C1488  1  0.857300  0.429900  0.934600  1.0
  C  C1489  1  0.344600  0.526700  0.423300  1.0
  C  C1490  1  0.155400  0.526700  0.076700  1.0
  C  C1491  1  0.655400  0.473300  0.576700  1.0
  C  C1492  1  0.844600  0.473300  0.923300  1.0
  C  C1493  1  0.294900  0.506600  0.438700  1.0
  C  C1494  1  0.205100  0.506600  0.061300  1.0
  C  C1495  1  0.705100  0.493400  0.561300  1.0
  C  C1496  1  0.794900  0.493400  0.938700  1.0
  C  C1497  1  0.261100  0.529600  0.463000  1.0
  C  C1498  1  0.238900  0.529600  0.037000  1.0
  C  C1499  1  0.738900  0.470400  0.537000  1.0
  C  C1500  1  0.761100  0.470400  0.963000  1.0
  C  C1501  1  0.276600  0.572500  0.472200  1.0
  C  C1502  1  0.223400  0.572500  0.027800  1.0
  C  C1503  1  0.723400  0.427500  0.527800  1.0
  C  C1504  1  0.776600  0.427500  0.972200  1.0
  C  C1505  1  0.240300  0.598900  0.496600  1.0
  C  C1506  1  0.259700  0.598900  0.003400  1.0
  C  C1507  1  0.759700  0.401100  0.503400  1.0
  C  C1508  1  0.740300  0.401100  0.996600  1.0
  C  C1509  1  0.216600  0.665700  0.524600  1.0
  C  C1510  1  0.283400  0.665700  0.975400  1.0
  C  C1511  1  0.783400  0.334300  0.475400  1.0
  C  C1512  1  0.716600  0.334300  0.024600  1.0
  C  C1513  1  0.199200  0.708200  0.512400  1.0
  C  C1514  1  0.300800  0.708200  0.987600  1.0
  C  C1515  1  0.800800  0.291800  0.487600  1.0
  C  C1516  1  0.699200  0.291800  0.012400  1.0
  C  C1517  1  0.171200  0.734600  0.537900  1.0
  C  C1518  1  0.328800  0.734600  0.962100  1.0
  C  C1519  1  0.828800  0.265400  0.462100  1.0
  C  C1520  1  0.671200  0.265400  0.037900  1.0
  C  C1521  1  0.162100  0.721200  0.575500  1.0
  C  C1522  1  0.337900  0.721200  0.924500  1.0
  C  C1523  1  0.837900  0.278800  0.424500  1.0
  C  C1524  1  0.662100  0.278800  0.075500  1.0
  C  C1525  1  0.179500  0.678800  0.586300  1.0
  C  C1526  1  0.320500  0.678800  0.913700  1.0
  C  C1527  1  0.820500  0.321200  0.413700  1.0
  C  C1528  1  0.679500  0.321200  0.086300  1.0
  C  C1529  1  0.207800  0.651400  0.561700  1.0
  C  C1530  1  0.292200  0.651400  0.938300  1.0
  C  C1531  1  0.792200  0.348600  0.438300  1.0
  C  C1532  1  0.707800  0.348600  0.061700  1.0
  C  C1533  1  0.134300  0.751800  0.603600  1.0
  C  C1534  1  0.365700  0.751800  0.896400  1.0
  C  C1535  1  0.865700  0.248200  0.396400  1.0
  C  C1536  1  0.634300  0.248200  0.103600  1.0
  C  C1537  1  0.394700  0.590200  0.550900  1.0
  C  C1538  1  0.105300  0.590200  0.949100  1.0
  C  C1539  1  0.605300  0.409800  0.449100  1.0
  C  C1540  1  0.894700  0.409800  0.050900  1.0
  C  C1541  1  0.437300  0.568200  0.531700  1.0
  C  C1542  1  0.062700  0.568200  0.968300  1.0
  C  C1543  1  0.562700  0.431800  0.468300  1.0
  C  C1544  1  0.937300  0.431800  0.031700  1.0
  C  C1545  1  0.453600  0.525600  0.541200  1.0
  C  C1546  1  0.046400  0.525600  0.958800  1.0
  C  C1547  1  0.546400  0.474400  0.458800  1.0
  C  C1548  1  0.953600  0.474400  0.041200  1.0
  C  C1549  1  0.426800  0.503100  0.570200  1.0
  C  C1550  1  0.073200  0.503100  0.929800  1.0
  C  C1551  1  0.573200  0.496900  0.429800  1.0
  C  C1552  1  0.926800  0.496900  0.070200  1.0
  C  C1553  1  0.384000  0.525500  0.589600  1.0
  C  C1554  1  0.116000  0.525500  0.910400  1.0
  C  C1555  1  0.616000  0.474500  0.410400  1.0
  C  C1556  1  0.884000  0.474500  0.089600  1.0
  C  C1557  1  0.367600  0.568700  0.580700  1.0
  C  C1558  1  0.132400  0.568700  0.919300  1.0
  C  C1559  1  0.632400  0.431300  0.419300  1.0
  C  C1560  1  0.867600  0.431300  0.080700  1.0
  C  C1561  1  0.445600  0.456500  0.582300  1.0
  C  C1562  1  0.054400  0.456500  0.917700  1.0
  C  C1563  1  0.554400  0.543500  0.417700  1.0
  C  C1564  1  0.945600  0.543500  0.082300  1.0
  C  C1565  1  0.370000  0.662400  0.566300  1.0
  C  C1566  1  0.130000  0.662400  0.933700  1.0
  C  C1567  1  0.630000  0.337600  0.433700  1.0
  C  C1568  1  0.870000  0.337600  0.066300  1.0
  C  C1569  1  0.352300  0.707500  0.555800  1.0
  C  C1570  1  0.147700  0.707500  0.944200  1.0
  C  C1571  1  0.647700  0.292500  0.444200  1.0
  C  C1572  1  0.852300  0.292500  0.055800  1.0
  C  C1573  1  0.342400  0.739200  0.582900  1.0
  C  C1574  1  0.157600  0.739200  0.917100  1.0
  C  C1575  1  0.657600  0.260800  0.417100  1.0
  C  C1576  1  0.842400  0.260800  0.082900  1.0
  C  C1577  1  0.324300  0.780400  0.570800  1.0
  C  C1578  1  0.175700  0.780400  0.929200  1.0
  C  C1579  1  0.675700  0.219600  0.429200  1.0
  C  C1580  1  0.824300  0.219600  0.070800  1.0
  C  C1581  1  0.316500  0.790100  0.530900  1.0
  C  C1582  1  0.183500  0.790100  0.969100  1.0
  C  C1583  1  0.683500  0.209900  0.469100  1.0
  C  C1584  1  0.816500  0.209900  0.030900  1.0
  C  C1585  1  0.326500  0.756200  0.505600  1.0
  C  C1586  1  0.173500  0.756200  0.994400  1.0
  C  C1587  1  0.673500  0.243800  0.494400  1.0
  C  C1588  1  0.826500  0.243800  0.005600  1.0
  C  C1589  1  0.326700  0.851600  0.484700  1.0
  C  C1590  1  0.173300  0.851600  0.015300  1.0
  C  C1591  1  0.673300  0.148400  0.515300  1.0
  C  C1592  1  0.826700  0.148400  0.984700  1.0
  C  C1593  1  0.297900  0.833700  0.515100  1.0
  C  C1594  1  0.202100  0.833700  0.984900  1.0
  C  C1595  1  0.702100  0.166300  0.484900  1.0
  C  C1596  1  0.797900  0.166300  0.015100  1.0
  C  C1597  1  0.253100  0.859400  0.529500  1.0
  C  C1598  1  0.246900  0.859400  0.970500  1.0
  C  C1599  1  0.746900  0.140600  0.470500  1.0
  C  C1600  1  0.753100  0.140600  0.029500  1.0
  C  C1601  1  0.238400  0.900300  0.513900  1.0
  C  C1602  1  0.261600  0.900300  0.986100  1.0
  C  C1603  1  0.761600  0.099700  0.486100  1.0
  C  C1604  1  0.738400  0.099700  0.013900  1.0
  C  C1605  1  0.268900  0.914700  0.483200  1.0
  C  C1606  1  0.231100  0.914700  0.016800  1.0
  C  C1607  1  0.731100  0.085300  0.516800  1.0
  C  C1608  1  0.768900  0.085300  0.983200  1.0
  C  C1609  1  0.253900  0.956800  0.464300  1.0
  C  C1610  1  0.246100  0.956800  0.035700  1.0
  C  C1611  1  0.746100  0.043200  0.535700  1.0
  C  C1612  1  0.753900  0.043200  0.964300  1.0
  C  C1613  1  0.268800  0.010000  0.416900  1.0
  C  C1614  1  0.231200  0.010000  0.083100  1.0
  C  C1615  1  0.731200  0.990000  0.583100  1.0
  C  C1616  1  0.768800  0.990000  0.916900  1.0
  C  C1617  1  0.263600  0.046700  0.440200  1.0
  C  C1618  1  0.236400  0.046700  0.059800  1.0
  C  C1619  1  0.736400  0.953300  0.559800  1.0
  C  C1620  1  0.763600  0.953300  0.940200  1.0
  C  C1621  1  0.255900  0.088000  0.422700  1.0
  C  C1622  1  0.244100  0.088000  0.077300  1.0
  C  C1623  1  0.744100  0.912000  0.577300  1.0
  C  C1624  1  0.755900  0.912000  0.922700  1.0
  C  C1625  1  0.253600  0.092600  0.382400  1.0
  C  C1626  1  0.246400  0.092600  0.117600  1.0
  C  C1627  1  0.746400  0.907400  0.617600  1.0
  C  C1628  1  0.753600  0.907400  0.882400  1.0
  C  C1629  1  0.257000  0.055500  0.359700  1.0
  C  C1630  1  0.243000  0.055500  0.140300  1.0
  C  C1631  1  0.743000  0.944500  0.640300  1.0
  C  C1632  1  0.757000  0.944500  0.859700  1.0
  C  C1633  1  0.265600  0.014600  0.376700  1.0
  C  C1634  1  0.234400  0.014600  0.123300  1.0
  C  C1635  1  0.734400  0.985400  0.623300  1.0
  C  C1636  1  0.765600  0.985400  0.876700  1.0
  C  C1637  1  0.249800  0.137700  0.363400  1.0
  C  C1638  1  0.250200  0.137700  0.136600  1.0
  C  C1639  1  0.750200  0.862300  0.636600  1.0
  C  C1640  1  0.749800  0.862300  0.863400  1.0
  C  C1641  1  0.521000  0.717000  0.188400  1.0
  C  C1642  1  0.979000  0.717000  0.311600  1.0
  C  C1643  1  0.479000  0.283000  0.811600  1.0
  C  C1644  1  0.021000  0.283000  0.688400  1.0
  C  C1645  1  0.454500  0.712700  0.175500  1.0
  C  C1646  1  0.045500  0.712700  0.324500  1.0
  C  C1647  1  0.545500  0.287300  0.824500  1.0
  C  C1648  1  0.954500  0.287300  0.675500  1.0
  C  C1649  1  0.410100  0.714100  0.200300  1.0
  C  C1650  1  0.089900  0.714100  0.299700  1.0
  C  C1651  1  0.589900  0.285900  0.799700  1.0
  C  C1652  1  0.910100  0.285900  0.700300  1.0
  C  C1653  1  0.348800  0.711600  0.184600  1.0
  C  C1654  1  0.151200  0.711600  0.315400  1.0
  C  C1655  1  0.651200  0.288400  0.815400  1.0
  C  C1656  1  0.848800  0.288400  0.684600  1.0
  C  C1657  1  0.331700  0.707200  0.144500  1.0
  C  C1658  1  0.168300  0.707200  0.355500  1.0
  C  C1659  1  0.668300  0.292800  0.855500  1.0
  C  C1660  1  0.831700  0.292800  0.644500  1.0
  C  C1661  1  0.379700  0.705000  0.121600  1.0
  C  C1662  1  0.120300  0.705000  0.378400  1.0
  C  C1663  1  0.620300  0.295000  0.878400  1.0
  C  C1664  1  0.879700  0.295000  0.621600  1.0
  C  C1665  1  0.246900  0.687000  0.090700  1.0
  C  C1666  1  0.253100  0.687000  0.409300  1.0
  C  C1667  1  0.753100  0.313000  0.909300  1.0
  C  C1668  1  0.746900  0.313000  0.590700  1.0
  C  C1669  1  0.265900  0.706900  0.126800  1.0
  C  C1670  1  0.234100  0.706900  0.373200  1.0
  C  C1671  1  0.734100  0.293100  0.873200  1.0
  C  C1672  1  0.765900  0.293100  0.626800  1.0
  C  C1673  1  0.218400  0.724900  0.145600  1.0
  C  C1674  1  0.281600  0.724900  0.354400  1.0
  C  C1675  1  0.781600  0.275100  0.854400  1.0
  C  C1676  1  0.718400  0.275100  0.645600  1.0
  C  C1677  1  0.157700  0.722500  0.128400  1.0
  C  C1678  1  0.342300  0.722500  0.371600  1.0
  C  C1679  1  0.842300  0.277500  0.871600  1.0
  C  C1680  1  0.657700  0.277500  0.628400  1.0
  C  C1681  1  0.143600  0.702400  0.092700  1.0
  C  C1682  1  0.356400  0.702400  0.407300  1.0
  C  C1683  1  0.856400  0.297600  0.907300  1.0
  C  C1684  1  0.643600  0.297600  0.592700  1.0
  C  C1685  1  0.080100  0.698100  0.072900  1.0
  C  C1686  1  0.419900  0.698100  0.427100  1.0
  C  C1687  1  0.919900  0.301900  0.927100  1.0
  C  C1688  1  0.580100  0.301900  0.572900  1.0
  C  C1689  1  0.007700  0.676500  0.019400  1.0
  C  C1690  1  0.492300  0.676500  0.480600  1.0
  C  C1691  1  0.992300  0.323500  0.980600  1.0
  C  C1692  1  0.507700  0.323500  0.519400  1.0
  C  C1693  1  0.960300  0.656500  0.037300  1.0
  C  C1694  1  0.539700  0.656500  0.462700  1.0
  C  C1695  1  0.039700  0.343500  0.962700  1.0
  C  C1696  1  0.460300  0.343500  0.537300  1.0
  C  C1697  1  0.901600  0.649600  0.016000  1.0
  C  C1698  1  0.598400  0.649600  0.484000  1.0
  C  C1699  1  0.098400  0.350400  0.984000  1.0
  C  C1700  1  0.401600  0.350400  0.516000  1.0
  C  C1701  1  0.889000  0.662600  0.976500  1.0
  C  C1702  1  0.611000  0.662600  0.523500  1.0
  C  C1703  1  0.111000  0.337400  0.023500  1.0
  C  C1704  1  0.389000  0.337400  0.476500  1.0
  C  C1705  1  0.937100  0.682600  0.958900  1.0
  C  C1706  1  0.562900  0.682600  0.541100  1.0
  C  C1707  1  0.062900  0.317400  0.041100  1.0
  C  C1708  1  0.437100  0.317400  0.458900  1.0
  C  C1709  1  0.995800  0.689500  0.980100  1.0
  C  C1710  1  0.504200  0.689500  0.519900  1.0
  C  C1711  1  0.004200  0.310500  0.019900  1.0
  C  C1712  1  0.495800  0.310500  0.480100  1.0
  C  C1713  1  0.825200  0.656200  0.953800  1.0
  C  C1714  1  0.674800  0.656200  0.546200  1.0
  C  C1715  1  0.174800  0.343800  0.046200  1.0
  C  C1716  1  0.325200  0.343800  0.453800  1.0
  C  C1717  1  0.595300  0.925200  0.263100  1.0
  C  C1718  1  0.904700  0.925200  0.236900  1.0
  C  C1719  1  0.404700  0.074800  0.736900  1.0
  C  C1720  1  0.095300  0.074800  0.763100  1.0
  C  C1721  1  0.637800  0.890400  0.264600  1.0
  C  C1722  1  0.862200  0.890400  0.235400  1.0
  C  C1723  1  0.362200  0.109600  0.735400  1.0
  C  C1724  1  0.137800  0.109600  0.764600  1.0
  C  C1725  1  0.698300  0.896600  0.282600  1.0
  C  C1726  1  0.801700  0.896600  0.217400  1.0
  C  C1727  1  0.301700  0.103400  0.717400  1.0
  C  C1728  1  0.198300  0.103400  0.782600  1.0
  C  C1729  1  0.717600  0.937100  0.297900  1.0
  C  C1730  1  0.782400  0.937100  0.202100  1.0
  C  C1731  1  0.282400  0.062900  0.702100  1.0
  C  C1732  1  0.217600  0.062900  0.797900  1.0
  C  C1733  1  0.675900  0.971800  0.295200  1.0
  C  C1734  1  0.824100  0.971800  0.204800  1.0
  C  C1735  1  0.324100  0.028200  0.704800  1.0
  C  C1736  1  0.175900  0.028200  0.795200  1.0
  C  C1737  1  0.614600  0.965500  0.276900  1.0
  C  C1738  1  0.885400  0.965500  0.223100  1.0
  C  C1739  1  0.385400  0.034500  0.723100  1.0
  C  C1740  1  0.114600  0.034500  0.776900  1.0
  C  C1741  1  0.785600  0.944000  0.317000  1.0
  C  C1742  1  0.714400  0.944000  0.183000  1.0
  C  C1743  1  0.214400  0.056000  0.683000  1.0
  C  C1744  1  0.285600  0.056000  0.817000  1.0
  C  C1745  1  0.505400  0.884300  0.247600  1.0
  C  C1746  1  0.994600  0.884300  0.252400  1.0
  C  C1747  1  0.494600  0.115700  0.752400  1.0
  C  C1748  1  0.005400  0.115700  0.747600  1.0
  C  C1749  1  0.443000  0.876800  0.227900  1.0
  C  C1750  1  0.057000  0.876800  0.272100  1.0
  C  C1751  1  0.557000  0.123200  0.772100  1.0
  C  C1752  1  0.943000  0.123200  0.727900  1.0
  C  C1753  1  0.410400  0.839000  0.231900  1.0
  C  C1754  1  0.089600  0.839000  0.268100  1.0
  C  C1755  1  0.589600  0.161000  0.768100  1.0
  C  C1756  1  0.910400  0.161000  0.731900  1.0
  C  C1757  1  0.351000  0.836000  0.214100  1.0
  C  C1758  1  0.149000  0.836000  0.285900  1.0
  C  C1759  1  0.649000  0.164000  0.785900  1.0
  C  C1760  1  0.851000  0.164000  0.714100  1.0
  C  C1761  1  0.323000  0.870500  0.192500  1.0
  C  C1762  1  0.177000  0.870500  0.307500  1.0
  C  C1763  1  0.677000  0.129500  0.807500  1.0
  C  C1764  1  0.823000  0.129500  0.692500  1.0
  C  C1765  1  0.358400  0.907400  0.189400  1.0
  C  C1766  1  0.141600  0.907400  0.310600  1.0
  C  C1767  1  0.641600  0.092600  0.810600  1.0
  C  C1768  1  0.858400  0.092600  0.689400  1.0
  C  C1769  1  0.235600  0.892600  0.140600  1.0
  C  C1770  1  0.264400  0.892600  0.359400  1.0
  C  C1771  1  0.764400  0.107400  0.859400  1.0
  C  C1772  1  0.735600  0.107400  0.640600  1.0
  C  C1773  1  0.257500  0.868900  0.174200  1.0
  C  C1774  1  0.242500  0.868900  0.325800  1.0
  C  C1775  1  0.742500  0.131100  0.825800  1.0
  C  C1776  1  0.757500  0.131100  0.674200  1.0
  C  C1777  1  0.214200  0.842900  0.189300  1.0
  C  C1778  1  0.285800  0.842900  0.310700  1.0
  C  C1779  1  0.785800  0.157100  0.810700  1.0
  C  C1780  1  0.714200  0.157100  0.689300  1.0
  C  C1781  1  0.155000  0.838200  0.170500  1.0
  C  C1782  1  0.345000  0.838200  0.329500  1.0
  C  C1783  1  0.845000  0.161800  0.829500  1.0
  C  C1784  1  0.655000  0.161800  0.670500  1.0
  C  C1785  1  0.138000  0.861400  0.136400  1.0
  C  C1786  1  0.362000  0.861400  0.363600  1.0
  C  C1787  1  0.862000  0.138600  0.863600  1.0
  C  C1788  1  0.638000  0.138600  0.636400  1.0
  C  C1789  1  0.078900  0.853600  0.111700  1.0
  C  C1790  1  0.421100  0.853600  0.388300  1.0
  C  C1791  1  0.921100  0.146400  0.888300  1.0
  C  C1792  1  0.578900  0.146400  0.611700  1.0
  C  C1793  1  0.012000  0.860700  0.054100  1.0
  C  C1794  1  0.488000  0.860700  0.445900  1.0
  C  C1795  1  0.988000  0.139300  0.945900  1.0
  C  C1796  1  0.512000  0.139300  0.554100  1.0
  C  C1797  1  0.006500  0.817700  0.042200  1.0
  C  C1798  1  0.493500  0.817700  0.457800  1.0
  C  C1799  1  0.993500  0.182300  0.957800  1.0
  C  C1800  1  0.506500  0.182300  0.542200  1.0
  C  C1801  1  0.955500  0.805600  0.015300  1.0
  C  C1802  1  0.544500  0.805600  0.484700  1.0
  C  C1803  1  0.044500  0.194400  0.984700  1.0
  C  C1804  1  0.455500  0.194400  0.515300  1.0
  C  C1805  1  0.908600  0.835300  0.001800  1.0
  C  C1806  1  0.591400  0.835300  0.498200  1.0
  C  C1807  1  0.091400  0.164700  0.998200  1.0
  C  C1808  1  0.408600  0.164700  0.501800  1.0
  C  C1809  1  0.916700  0.878200  0.013300  1.0
  C  C1810  1  0.583300  0.878200  0.486700  1.0
  C  C1811  1  0.083300  0.121800  0.986700  1.0
  C  C1812  1  0.416700  0.121800  0.513300  1.0
  C  C1813  1  0.969000  0.891100  0.038100  1.0
  C  C1814  1  0.531000  0.891100  0.461900  1.0
  C  C1815  1  0.031000  0.108900  0.961900  1.0
  C  C1816  1  0.469000  0.108900  0.538100  1.0
  C  C1817  1  0.850600  0.820300  0.975700  1.0
  C  C1818  1  0.649400  0.820300  0.524300  1.0
  C  C1819  1  0.149400  0.179700  0.024300  1.0
  C  C1820  1  0.350600  0.179700  0.475700  1.0
  C  C1821  1  0.570400  0.573500  0.294900  1.0
  C  C1822  1  0.929600  0.573500  0.205100  1.0
  C  C1823  1  0.429600  0.426500  0.705100  1.0
  C  C1824  1  0.070400  0.426500  0.794900  1.0
  C  C1825  1  0.604500  0.539400  0.314600  1.0
  C  C1826  1  0.895500  0.539400  0.185400  1.0
  C  C1827  1  0.395500  0.460600  0.685400  1.0
  C  C1828  1  0.104500  0.460600  0.814600  1.0
  C  C1829  1  0.669500  0.541600  0.321200  1.0
  C  C1830  1  0.830500  0.541600  0.178800  1.0
  C  C1831  1  0.330500  0.458400  0.678800  1.0
  C  C1832  1  0.169500  0.458400  0.821200  1.0
  C  C1833  1  0.701800  0.577700  0.308400  1.0
  C  C1834  1  0.798200  0.577700  0.191600  1.0
  C  C1835  1  0.298200  0.422300  0.691600  1.0
  C  C1836  1  0.201800  0.422300  0.808400  1.0
  C  C1837  1  0.666900  0.611800  0.288800  1.0
  C  C1838  1  0.833100  0.611800  0.211200  1.0
  C  C1839  1  0.333100  0.388200  0.711200  1.0
  C  C1840  1  0.166900  0.388200  0.788800  1.0
  C  C1841  1  0.601900  0.609800  0.282000  1.0
  C  C1842  1  0.898100  0.609800  0.218000  1.0
  C  C1843  1  0.398100  0.390200  0.718000  1.0
  C  C1844  1  0.101900  0.390200  0.782000  1.0
  C  C1845  1  0.772100  0.579500  0.314800  1.0
  C  C1846  1  0.727900  0.579500  0.185200  1.0
  C  C1847  1  0.227900  0.420500  0.685200  1.0
  C  C1848  1  0.272100  0.420500  0.814800  1.0
  C  C1849  1  0.473500  0.606300  0.294400  1.0
  C  C1850  1  0.026500  0.606300  0.205600  1.0
  C  C1851  1  0.526500  0.393700  0.705600  1.0
  C  C1852  1  0.973500  0.393700  0.794400  1.0
  C  C1853  1  0.406500  0.608200  0.284000  1.0
  C  C1854  1  0.093500  0.608200  0.216000  1.0
  C  C1855  1  0.593500  0.391800  0.716000  1.0
  C  C1856  1  0.906500  0.391800  0.784000  1.0
  C  C1857  1  0.373500  0.646200  0.284600  1.0
  C  C1858  1  0.126500  0.646200  0.215400  1.0
  C  C1859  1  0.626500  0.353800  0.715400  1.0
  C  C1860  1  0.873500  0.353800  0.784600  1.0
  C  C1861  1  0.313100  0.645200  0.272300  1.0
  C  C1862  1  0.186900  0.645200  0.227700  1.0
  C  C1863  1  0.686900  0.354800  0.727700  1.0
  C  C1864  1  0.813100  0.354800  0.772300  1.0
  C  C1865  1  0.283200  0.607900  0.257800  1.0
  C  C1866  1  0.216800  0.607900  0.242200  1.0
  C  C1867  1  0.716800  0.392100  0.742200  1.0
  C  C1868  1  0.783200  0.392100  0.757800  1.0
  C  C1869  1  0.319400  0.570400  0.258800  1.0
  C  C1870  1  0.180600  0.570400  0.241200  1.0
  C  C1871  1  0.680600  0.429600  0.741200  1.0
  C  C1872  1  0.819400  0.429600  0.758800  1.0
  C  C1873  1  0.624800  0.728900  0.177400  1.0
  C  C1874  1  0.875200  0.728900  0.322600  1.0
  C  C1875  1  0.375200  0.271100  0.822600  1.0
  C  C1876  1  0.124800  0.271100  0.677400  1.0
  C  C1877  1  0.705500  0.761200  0.223400  1.0
  C  C1878  1  0.794500  0.761200  0.276600  1.0
  C  C1879  1  0.294500  0.238800  0.776600  1.0
  C  C1880  1  0.205500  0.238800  0.723400  1.0
  C  C1881  1  0.642600  0.755600  0.209900  1.0
  C  C1882  1  0.857400  0.755600  0.290100  1.0
  C  C1883  1  0.357400  0.244400  0.790100  1.0
  C  C1884  1  0.142600  0.244400  0.709900  1.0
  C  C1885  1  0.750600  0.740200  0.204600  1.0
  C  C1886  1  0.749400  0.740200  0.295400  1.0
  C  C1887  1  0.249400  0.259800  0.795400  1.0
  C  C1888  1  0.250600  0.259800  0.704600  1.0
  C  C1889  1  0.669900  0.707900  0.158600  1.0
  C  C1890  1  0.830100  0.707900  0.341400  1.0
  C  C1891  1  0.330100  0.292100  0.841400  1.0
  C  C1892  1  0.169900  0.292100  0.658600  1.0
  C  C1893  1  0.732800  0.713500  0.172200  1.0
  C  C1894  1  0.767200  0.713500  0.327800  1.0
  C  C1895  1  0.267200  0.286500  0.827800  1.0
  C  C1896  1  0.232800  0.286500  0.672200  1.0
  C  C1897  1  0.819900  0.749200  0.219300  1.0
  C  C1898  1  0.680100  0.749200  0.280700  1.0
  C  C1899  1  0.180100  0.250800  0.780700  1.0
  C  C1900  1  0.319900  0.250800  0.719300  1.0
  S  S1901  1  0.505700  0.750800  0.303800  1
  S  S1902  1  0.994300  0.750800  0.196200  1
  S  S1903  1  0.494300  0.249200  0.696200  1
  S  S1904  1  0.005700  0.249200  0.803800  1
  S  S1905  1  0.504000  0.738300  0.322800  1
  S  S1906  1  0.996000  0.738300  0.177200  1
  S  S1907  1  0.496000  0.261700  0.677200  1
  S  S1908  1  0.004000  0.261700  0.822800  1
  S  S1909  1  0.508700  0.752900  0.321700  1
  S  S1910  1  0.991300  0.752900  0.178300  1
  S  S1911  1  0.491300  0.247100  0.678300  1
  S  S1912  1  0.008700  0.247100  0.821700  1
  Br  Br1913  1  0.250000  0.751600  0.250000  1
  Br  Br1914  1  0.750000  0.248400  0.750000  1
  Br  Br1915  1  0.281600  0.752200  0.257400  1
  Br  Br1916  1  0.218400  0.752200  0.242600  1
  Br  Br1917  1  0.718400  0.247800  0.742600  1
  Br  Br1918  1  0.781600  0.247800  0.757400  1
  N  N1919  1  0.999300  0.911400  0.160500  1
  N  N1920  1  0.500700  0.911400  0.339500  1
  N  N1921  1  0.000700  0.088600  0.839500  1
  N  N1922  1  0.499300  0.088600  0.660500  1
  N  N1923  1  0.755100  0.629900  0.083600  1
  N  N1924  1  0.744900  0.629900  0.416400  1
  N  N1925  1  0.244900  0.370100  0.916400  1
  N  N1926  1  0.255100  0.370100  0.583600  1
  N  N1927  1  0.410600  0.963900  0.478500  1.0
  N  N1928  1  0.089400  0.963900  0.021500  1.0
  N  N1929  1  0.589400  0.036100  0.521500  1.0
  N  N1930  1  0.910600  0.036100  0.978500  1.0
  N  N1931  1  0.404200  0.975900  0.399600  1.0
  N  N1932  1  0.095800  0.975900  0.100400  1.0
  N  N1933  1  0.595800  0.024100  0.600400  1.0
  N  N1934  1  0.904200  0.024100  0.899600  1.0
  N  N1935  1  0.432900  0.003100  0.239300  1.0
  N  N1936  1  0.067100  0.003100  0.260700  1.0
  N  N1937  1  0.567100  0.996900  0.760700  1.0
  N  N1938  1  0.932900  0.996900  0.739300  1.0
  N  N1939  1  0.414500  0.003900  0.159900  1.0
  N  N1940  1  0.085500  0.003900  0.340100  1.0
  N  N1941  1  0.585500  0.996100  0.840100  1.0
  N  N1942  1  0.914500  0.996100  0.659900  1.0
  N  N1943  1  0.550000  0.014400  0.190600  1.0
  N  N1944  1  0.950000  0.014400  0.309400  1.0
  N  N1945  1  0.450000  0.985600  0.809400  1.0
  N  N1946  1  0.050000  0.985600  0.690600  1.0
  N  N1947  1  0.521800  0.936300  0.153800  1.0
  N  N1948  1  0.978200  0.936300  0.346200  1.0
  N  N1949  1  0.478200  0.063700  0.846200  1.0
  N  N1950  1  0.021800  0.063700  0.653800  1.0
  N  N1951  1  0.499400  0.767500  0.080700  1.0
  N  N1952  1  0.000600  0.767500  0.419300  1.0
  N  N1953  1  0.500600  0.232500  0.919300  1.0
  N  N1954  1  0.999400  0.232500  0.580700  1.0
  N  N1955  1  0.462300  0.690700  0.045500  1.0
  N  N1956  1  0.037700  0.690700  0.454500  1.0
  N  N1957  1  0.537700  0.309300  0.954500  1.0
  N  N1958  1  0.962300  0.309300  0.545500  1.0
  N  N1959  1  0.594600  0.691600  0.069700  1.0
  N  N1960  1  0.905400  0.691600  0.430300  1.0
  N  N1961  1  0.405400  0.308400  0.930300  1.0
  N  N1962  1  0.094600  0.308400  0.569700  1.0
  N  N1963  1  0.537000  0.634800  0.112700  1.0
  N  N1964  1  0.963000  0.634800  0.387300  1.0
  N  N1965  1  0.463000  0.365200  0.887300  1.0
  N  N1966  1  0.037000  0.365200  0.612700  1.0
  N  N1967  1  0.444200  0.512100  0.215300  1.0
  N  N1968  1  0.055800  0.512100  0.284700  1.0
  N  N1969  1  0.555800  0.487900  0.784700  1.0
  N  N1970  1  0.944200  0.487900  0.715300  1.0
  N  N1971  1  0.367300  0.465500  0.256500  1.0
  N  N1972  1  0.132700  0.465500  0.243500  1.0
  N  N1973  1  0.632700  0.534500  0.743500  1.0
  N  N1974  1  0.867300  0.534500  0.756500  1.0
  N  N1975  1  0.499500  0.457200  0.289500  1.0
  N  N1976  1  0.000500  0.457200  0.210500  1.0
  N  N1977  1  0.500500  0.542800  0.710500  1.0
  N  N1978  1  0.999500  0.542800  0.789500  1.0
  N  N1979  1  0.431900  0.500700  0.338000  1.0
  N  N1980  1  0.068100  0.500700  0.162000  1.0
  N  N1981  1  0.568100  0.499300  0.662000  1.0
  N  N1982  1  0.931900  0.499300  0.838000  1.0
  N  N1983  1  0.325200  0.592200  0.458700  1.0
  N  N1984  1  0.174800  0.592200  0.041300  1.0
  N  N1985  1  0.674800  0.407800  0.541300  1.0
  N  N1986  1  0.825200  0.407800  0.958700  1.0
  N  N1987  1  0.250100  0.640600  0.499200  1.0
  N  N1988  1  0.249900  0.640600  0.000800  1.0
  N  N1989  1  0.749900  0.359400  0.500800  1.0
  N  N1990  1  0.750100  0.359400  0.999200  1.0
  N  N1991  1  0.378100  0.634400  0.540200  1.0
  N  N1992  1  0.121900  0.634400  0.959800  1.0
  N  N1993  1  0.621900  0.365600  0.459800  1.0
  N  N1994  1  0.878100  0.365600  0.040200  1.0
  N  N1995  1  0.342800  0.715600  0.516300  1.0
  N  N1996  1  0.157200  0.715600  0.983700  1.0
  N  N1997  1  0.657200  0.284400  0.483700  1.0
  N  N1998  1  0.842800  0.284400  0.016300  1.0
  N  N1999  1  0.312700  0.890400  0.469100  1.0
  N  N2000  1  0.187300  0.890400  0.030900  1.0
  N  N2001  1  0.687300  0.109600  0.530900  1.0
  N  N2002  1  0.812700  0.109600  0.969100  1.0
  N  N2003  1  0.280400  0.967800  0.434300  1.0
  N  N2004  1  0.219600  0.967800  0.065700  1.0
  N  N2005  1  0.719600  0.032200  0.565700  1.0
  N  N2006  1  0.780400  0.032200  0.934300  1.0
  N  N2007  1  0.560800  0.716500  0.164200  1.0
  N  N2008  1  0.939200  0.716500  0.335800  1.0
  N  N2009  1  0.439200  0.283500  0.835800  1.0
  N  N2010  1  0.060800  0.283500  0.664200  1.0
  N  N2011  1  0.439300  0.706700  0.136200  1.0
  N  N2012  1  0.060700  0.706700  0.363800  1.0
  N  N2013  1  0.560700  0.293300  0.863800  1.0
  N  N2014  1  0.939300  0.293300  0.636200  1.0
  N  N2015  1  0.189100  0.685600  0.073800  1.0
  N  N2016  1  0.310900  0.685600  0.426200  1.0
  N  N2017  1  0.810900  0.314400  0.926200  1.0
  N  N2018  1  0.689100  0.314400  0.573800  1.0
  N  N2019  1  0.069100  0.677400  0.040800  1.0
  N  N2020  1  0.430900  0.677400  0.459200  1.0
  N  N2021  1  0.930900  0.322600  0.959200  1.0
  N  N2022  1  0.569100  0.322600  0.540800  1.0
  N  N2023  1  0.533300  0.920600  0.244300  1.0
  N  N2024  1  0.966700  0.920600  0.255700  1.0
  N  N2025  1  0.466700  0.079400  0.755700  1.0
  N  N2026  1  0.033300  0.079400  0.744300  1.0
  N  N2027  1  0.417600  0.910500  0.205500  1.0
  N  N2028  1  0.082400  0.910500  0.294500  1.0
  N  N2029  1  0.582400  0.089500  0.794500  1.0
  N  N2030  1  0.917600  0.089500  0.705500  1.0
  N  N2031  1  0.177700  0.889700  0.122700  1.0
  N  N2032  1  0.322300  0.889700  0.377300  1.0
  N  N2033  1  0.822300  0.110300  0.877300  1.0
  N  N2034  1  0.677700  0.110300  0.622700  1.0
  N  N2035  1  0.066500  0.874000  0.079300  1.0
  N  N2036  1  0.433500  0.874000  0.420700  1.0
  N  N2037  1  0.933500  0.126000  0.920700  1.0
  N  N2038  1  0.566500  0.126000  0.579300  1.0
  N  N2039  1  0.505000  0.571400  0.291100  1.0
  N  N2040  1  0.995000  0.571400  0.208900  1.0
  N  N2041  1  0.495000  0.428600  0.708900  1.0
  N  N2042  1  0.005000  0.428600  0.791100  1.0
  N  N2043  1  0.380600  0.569900  0.271900  1.0
  N  N2044  1  0.119400  0.569900  0.228100  1.0
  N  N2045  1  0.619400  0.430100  0.728100  1.0
  N  N2046  1  0.880600  0.430100  0.771900  1.0
  Cl  Cl2047  1  0.320500  0.815610  0.084310  1
  Cl  Cl2048  1  0.179500  0.815610  0.415690  1
  Cl  Cl2049  1  0.679500  0.184390  0.915690  1
  Cl  Cl2050  1  0.820500  0.184390  0.584310  1
  Cl  Cl2051  1  0.302400  0.581720  0.147790  1
  Cl  Cl2052  1  0.197600  0.581720  0.352210  1
  Cl  Cl2053  1  0.697600  0.418280  0.852210  1
  Cl  Cl2054  1  0.802400  0.418280  0.647790  1
  Cl  Cl2055  1  0.250000  0.964510  0.250000  1
  Cl  Cl2056  1  0.750000  0.035490  0.750000  1
  Cl  Cl2057  1  0.144030  0.412140  0.453800  1
  Cl  Cl2058  1  0.355970  0.412140  0.046200  1
  Cl  Cl2059  1  0.855970  0.587860  0.546200  1
  Cl  Cl2060  1  0.644030  0.587860  0.953800  1
  Cl  Cl2061  1  0.513200  0.312900  0.351700  1
  Cl  Cl2062  1  0.986800  0.312900  0.148300  1
  Cl  Cl2063  1  0.486800  0.687100  0.648300  1
  Cl  Cl2064  1  0.013200  0.687100  0.851700  1
  Cl  Cl2065  1  0.691500  0.459000  0.123800  1
  Cl  Cl2066  1  0.808500  0.459000  0.376200  1
  Cl  Cl2067  1  0.308500  0.541000  0.876200  1
  Cl  Cl2068  1  0.191500  0.541000  0.623800  1
  Cl  Cl2069  1  0.752700  0.937300  0.445500  1
  Cl  Cl2070  1  0.747300  0.937300  0.054500  1
  Cl  Cl2071  1  0.247300  0.062700  0.554500  1
  Cl  Cl2072  1  0.252700  0.062700  0.945500  1
  Cl  Cl2073  1  0.418300  0.885800  0.928100  1
  Cl  Cl2074  1  0.081700  0.885800  0.571900  1
  Cl  Cl2075  1  0.581700  0.114200  0.071900  1
  Cl  Cl2076  1  0.918300  0.114200  0.428100  1
  Cl  Cl2077  1  0.492900  0.311000  0.356800  1
  Cl  Cl2078  1  0.007100  0.311000  0.143200  1
  Cl  Cl2079  1  0.507100  0.689000  0.643200  1
  Cl  Cl2080  1  0.992900  0.689000  0.856800  1
  Cl  Cl2081  1  0.472600  0.181100  0.379000  1
  Cl  Cl2082  1  0.027400  0.181100  0.121000  1
  Cl  Cl2083  1  0.527400  0.818900  0.621000  1
  Cl  Cl2084  1  0.972600  0.818900  0.879000  1
  Cl  Cl2085  1  0.701600  0.463300  0.109300  1
  Cl  Cl2086  1  0.798400  0.463300  0.390700  1
  Cl  Cl2087  1  0.298400  0.536700  0.890700  1
  Cl  Cl2088  1  0.201600  0.536700  0.609300  1
  Cl  Cl2089  1  0.756200  0.919500  0.445800  1
  Cl  Cl2090  1  0.743800  0.919500  0.054200  1
  Cl  Cl2091  1  0.243800  0.080500  0.554200  1
  Cl  Cl2092  1  0.256200  0.080500  0.945800  1
  Cl  Cl2093  1  0.420200  0.885700  0.926200  1
  Cl  Cl2094  1  0.079800  0.885700  0.573800  1
  Cl  Cl2095  1  0.579800  0.114300  0.073800  1
  Cl  Cl2096  1  0.920200  0.114300  0.426200  1
  O  O2097  1  0.531100  0.784000  0.279300  1
  O  O2098  1  0.968900  0.784000  0.220700  1
  O  O2099  1  0.468900  0.216000  0.720700  1
  O  O2100  1  0.031100  0.216000  0.779300  1
  O  O2101  1  0.441300  0.757100  0.306500  1
  O  O2102  1  0.058700  0.757100  0.193500  1
  O  O2103  1  0.558700  0.242900  0.693500  1
  O  O2104  1  0.941300  0.242900  0.806500  1
  O  O2105  1  0.513400  0.707100  0.285500  1
  O  O2106  1  0.986600  0.707100  0.214500  1
  O  O2107  1  0.486600  0.292900  0.714500  1
  O  O2108  1  0.013400  0.292900  0.785500  1
  O  O2109  1  0.326400  0.859500  0.073700  1
  O  O2110  1  0.173600  0.859500  0.426300  1
  O  O2111  1  0.673600  0.140500  0.926300  1
  O  O2112  1  0.826400  0.140500  0.573700  1
  O  O2113  1  0.339100  0.786300  0.056600  1
  O  O2114  1  0.160900  0.786300  0.443400  1
  O  O2115  1  0.660900  0.213700  0.943400  1
  O  O2116  1  0.839100  0.213700  0.556600  1
  O  O2117  1  0.256900  0.807700  0.088900  1
  O  O2118  1  0.243100  0.807700  0.411100  1
  O  O2119  1  0.743100  0.192300  0.911100  1
  O  O2120  1  0.756900  0.192300  0.588900  1
  O  O2121  1  0.357900  0.808500  0.120200  1
  O  O2122  1  0.142100  0.808500  0.379800  1
  O  O2123  1  0.642100  0.191500  0.879800  1
  O  O2124  1  0.857900  0.191500  0.620200  1
  O  O2125  1  0.349800  0.602400  0.173400  1
  O  O2126  1  0.150200  0.602400  0.326600  1
  O  O2127  1  0.650200  0.397600  0.826600  1
  O  O2128  1  0.849800  0.397600  0.673400  1
  O  O2129  1  0.244700  0.602900  0.150200  1
  O  O2130  1  0.255300  0.602900  0.349800  1
  O  O2131  1  0.755300  0.397100  0.849800  1
  O  O2132  1  0.744700  0.397100  0.650200  1
  O  O2133  1  0.315200  0.586600  0.109400  1
  O  O2134  1  0.184800  0.586600  0.390600  1
  O  O2135  1  0.684800  0.413400  0.890600  1
  O  O2136  1  0.815200  0.413400  0.609400  1
  O  O2137  1  0.295300  0.538600  0.159800  1
  O  O2138  1  0.204700  0.538600  0.340200  1
  O  O2139  1  0.704700  0.461400  0.840200  1
  O  O2140  1  0.795300  0.461400  0.659800  1
  O  O2141  1  0.138100  0.410600  0.493900  1
  O  O2142  1  0.361900  0.410600  0.006100  1
  O  O2143  1  0.861900  0.589400  0.506100  1
  O  O2144  1  0.638100  0.589400  0.993900  1
  O  O2145  1  0.156700  0.367000  0.443700  1
  O  O2146  1  0.343300  0.367000  0.056300  1
  O  O2147  1  0.843300  0.633000  0.556300  1
  O  O2148  1  0.656700  0.633000  0.943700  1
  O  O2149  1  0.192400  0.436700  0.442800  1
  O  O2150  1  0.307600  0.436700  0.057200  1
  O  O2151  1  0.807600  0.563300  0.557200  1
  O  O2152  1  0.692400  0.563300  0.942800  1
  O  O2153  1  0.086500  0.421700  0.431400  1
  O  O2154  1  0.413500  0.421700  0.068600  1
  O  O2155  1  0.913500  0.578300  0.568600  1
  O  O2156  1  0.586500  0.578300  0.931400  1
  O  O2157  1  0.498200  0.325700  0.387900  1
  O  O2158  1  0.001800  0.325700  0.112100  1
  O  O2159  1  0.501800  0.674300  0.612100  1
  O  O2160  1  0.998200  0.674300  0.887900  1
  O  O2161  1  0.564800  0.338300  0.345400  1
  O  O2162  1  0.935200  0.338300  0.154600  1
  O  O2163  1  0.435200  0.661700  0.654600  1
  O  O2164  1  0.064800  0.661700  0.845400  1
  O  O2165  1  0.461900  0.320800  0.324400  1
  O  O2166  1  0.038100  0.320800  0.175600  1
  O  O2167  1  0.538100  0.679200  0.675600  1
  O  O2168  1  0.961900  0.679200  0.824400  1
  O  O2169  1  0.526500  0.268400  0.348100  1
  O  O2170  1  0.973500  0.268400  0.151900  1
  O  O2171  1  0.473500  0.731600  0.651900  1
  O  O2172  1  0.026500  0.731600  0.848100  1
  O  O2173  1  0.629200  0.445400  0.110100  1
  O  O2174  1  0.870800  0.445400  0.389900  1
  O  O2175  1  0.370800  0.554600  0.889900  1
  O  O2176  1  0.129200  0.554600  0.610100  1
  O  O2177  1  0.730100  0.421200  0.129200  1
  O  O2178  1  0.769900  0.421200  0.370800  1
  O  O2179  1  0.269900  0.578800  0.870800  1
  O  O2180  1  0.230100  0.578800  0.629200  1
  O  O2181  1  0.711900  0.488300  0.096100  1
  O  O2182  1  0.788100  0.488300  0.403900  1
  O  O2183  1  0.288100  0.511700  0.903900  1
  O  O2184  1  0.211900  0.511700  0.596100  1
  O  O2185  1  0.690600  0.480000  0.159700  1
  O  O2186  1  0.809400  0.480000  0.340300  1
  O  O2187  1  0.309400  0.520000  0.840300  1
  O  O2188  1  0.190600  0.520000  0.659700  1
  O  O2189  1  0.711500  0.909600  0.460400  1
  O  O2190  1  0.788500  0.909600  0.039600  1
  O  O2191  1  0.288500  0.090400  0.539600  1
  O  O2192  1  0.211500  0.090400  0.960400  1
  O  O2193  1  0.758500  0.979500  0.463600  1
  O  O2194  1  0.741500  0.979500  0.036400  1
  O  O2195  1  0.241500  0.020500  0.536400  1
  O  O2196  1  0.258500  0.020500  0.963600  1
  O  O2197  1  0.740100  0.943300  0.404500  1
  O  O2198  1  0.759900  0.943300  0.095500  1
  O  O2199  1  0.259900  0.056700  0.595500  1
  O  O2200  1  0.240100  0.056700  0.904500  1
  O  O2201  1  0.810400  0.915600  0.451500  1
  O  O2202  1  0.689600  0.915600  0.048500  1
  O  O2203  1  0.189600  0.084400  0.548500  1
  O  O2204  1  0.310400  0.084400  0.951500  1
  O  O2205  1  0.411400  0.896200  0.967200  1
  O  O2206  1  0.088600  0.896200  0.532800  1
  O  O2207  1  0.588600  0.103800  0.032800  1
  O  O2208  1  0.911400  0.103800  0.467200  1
  O  O2209  1  0.423100  0.923500  0.906200  1
  O  O2210  1  0.076900  0.923500  0.593800  1
  O  O2211  1  0.576900  0.076500  0.093800  1
  O  O2212  1  0.923100  0.076500  0.406200  1
  O  O2213  1  0.477700  0.863700  0.928300  1
  O  O2214  1  0.022300  0.863700  0.571700  1
  O  O2215  1  0.522300  0.136300  0.071700  1
  O  O2216  1  0.977700  0.136300  0.428300  1
  O  O2217  1  0.366200  0.860200  0.914400  1
  O  O2218  1  0.133800  0.860200  0.585600  1
  O  O2219  1  0.633800  0.139800  0.085600  1
  O  O2220  1  0.866200  0.139800  0.414400  1
  O  O2221  1  0.464400  0.627300  0.373380  1
  O  O2222  1  0.035600  0.627300  0.126620  1
  O  O2223  1  0.535600  0.372700  0.626620  1
  O  O2224  1  0.964400  0.372700  0.873380  1
  O  O2225  1  0.489600  0.698900  0.344000  1
  O  O2226  1  0.010400  0.698900  0.156000  1
  O  O2227  1  0.510400  0.301100  0.656000  1
  O  O2228  1  0.989600  0.301100  0.844000  1
  O  O2229  1  0.515000  0.731200  0.282800  1
  O  O2230  1  0.985000  0.731200  0.217200  1
  O  O2231  1  0.485000  0.268800  0.717200  1
  O  O2232  1  0.015000  0.268800  0.782800  1
  O  O2233  1  0.459200  0.773100  0.327600  1
  O  O2234  1  0.040800  0.773100  0.172400  1
  O  O2235  1  0.540800  0.226900  0.672400  1
  O  O2236  1  0.959200  0.226900  0.827600  1
  O  O2237  1  0.484900  0.741500  0.358100  1
  O  O2238  1  0.015100  0.741500  0.141900  1
  O  O2239  1  0.515100  0.258500  0.641900  1
  O  O2240  1  0.984900  0.258500  0.858100  1
  O  O2241  1  0.483200  0.794900  0.307300  1
  O  O2242  1  0.016800  0.794900  0.192700  1
  O  O2243  1  0.516800  0.205100  0.692700  1
  O  O2244  1  0.983200  0.205100  0.807300  1
  O  O2245  1  0.506000  0.717500  0.293800  1
  O  O2246  1  0.994000  0.717500  0.206200  1
  O  O2247  1  0.494000  0.282500  0.706200  1
  O  O2248  1  0.006000  0.282500  0.793800  1
  O  O2249  1  0.121300  0.453800  0.439800  1
  O  O2250  1  0.378700  0.453800  0.060200  1
  O  O2251  1  0.878700  0.546200  0.560200  1
  O  O2252  1  0.621300  0.546200  0.939800  1
  O  O2253  1  0.113100  0.377800  0.432900  1
  O  O2254  1  0.386900  0.377800  0.067100  1
  O  O2255  1  0.886900  0.622200  0.567100  1
  O  O2256  1  0.613100  0.622200  0.932900  1
  O  O2257  1  0.208300  0.413300  0.449500  1
  O  O2258  1  0.291700  0.413300  0.050500  1
  O  O2259  1  0.791700  0.586700  0.550500  1
  O  O2260  1  0.708300  0.586700  0.949500  1
  O  O2261  1  0.508000  0.290200  0.321800  1
  O  O2262  1  0.992000  0.290200  0.178200  1
  O  O2263  1  0.492000  0.709800  0.678200  1
  O  O2264  1  0.008000  0.709800  0.821800  1
  O  O2265  1  0.429900  0.318100  0.357200  1
  O  O2266  1  0.070100  0.318100  0.142800  1
  O  O2267  1  0.570100  0.681900  0.642800  1
  O  O2268  1  0.929900  0.681900  0.857200  1
  O  O2269  1  0.523300  0.350000  0.366000  1
  O  O2270  1  0.976700  0.350000  0.134000  1
  O  O2271  1  0.476700  0.650000  0.634000  1
  O  O2272  1  0.023300  0.650000  0.866000  1
  O  O2273  1  0.514500  0.281400  0.386900  1
  O  O2274  1  0.985500  0.281400  0.113100  1
  O  O2275  1  0.485500  0.718600  0.613100  1
  O  O2276  1  0.014500  0.718600  0.886900  1
  O  O2277  1  0.467000  0.224000  0.393900  1
  O  O2278  1  0.033000  0.224000  0.106100  1
  O  O2279  1  0.533000  0.776000  0.606100  1
  O  O2280  1  0.967000  0.776000  0.893900  1
  O  O2281  1  0.435700  0.172500  0.342300  1
  O  O2282  1  0.064300  0.172500  0.157700  1
  O  O2283  1  0.564300  0.827500  0.657700  1
  O  O2284  1  0.935700  0.827500  0.842300  1
  O  O2285  1  0.534000  0.177200  0.369200  1
  O  O2286  1  0.966000  0.177200  0.130800  1
  O  O2287  1  0.466000  0.822800  0.630800  1
  O  O2288  1  0.034000  0.822800  0.869200  1
  O  O2289  1  0.461000  0.154300  0.409400  1
  O  O2290  1  0.039000  0.154300  0.090600  1
  O  O2291  1  0.539000  0.845700  0.590600  1
  O  O2292  1  0.961000  0.845700  0.909400  1
  O  O2293  1  0.698700  0.509500  0.116700  1
  O  O2294  1  0.801300  0.509500  0.383300  1
  O  O2295  1  0.301300  0.490500  0.883300  1
  O  O2296  1  0.198700  0.490500  0.616700  1
  O  O2297  1  0.640500  0.446200  0.109600  1
  O  O2298  1  0.859500  0.446200  0.390400  1
  O  O2299  1  0.359500  0.553800  0.890400  1
  O  O2300  1  0.140500  0.553800  0.609600  1
  O  O2301  1  0.749800  0.443700  0.134100  1
  O  O2302  1  0.750200  0.443700  0.365900  1
  O  O2303  1  0.250200  0.556300  0.865900  1
  O  O2304  1  0.249800  0.556300  0.634100  1
  O  O2305  1  0.716900  0.459400  0.070100  1
  O  O2306  1  0.783100  0.459400  0.429900  1
  O  O2307  1  0.283100  0.540600  0.929900  1
  O  O2308  1  0.216900  0.540600  0.570100  1
  O  O2309  1  0.698100  0.926900  0.456700  1
  O  O2310  1  0.801900  0.926900  0.043300  1
  O  O2311  1  0.301900  0.073100  0.543300  1
  O  O2312  1  0.198100  0.073100  0.956700  1
  O  O2313  1  0.766800  0.965600  0.435100  1
  O  O2314  1  0.733200  0.965600  0.064900  1
  O  O2315  1  0.233200  0.034400  0.564900  1
  O  O2316  1  0.266800  0.034400  0.935100  1
  O  O2317  1  0.807000  0.912900  0.475200  1
  O  O2318  1  0.693000  0.912900  0.024800  1
  O  O2319  1  0.193000  0.087100  0.524800  1
  O  O2320  1  0.307000  0.087100  0.975200  1
  O  O2321  1  0.770500  0.898200  0.412700  1
  O  O2322  1  0.729500  0.898200  0.087300  1
  O  O2323  1  0.229500  0.101800  0.587300  1
  O  O2324  1  0.270500  0.101800  0.912700  1
  O  O2325  1  0.437800  0.867900  0.890000  1
  O  O2326  1  0.062200  0.867900  0.610000  1
  O  O2327  1  0.562200  0.132100  0.110000  1
  O  O2328  1  0.937800  0.132100  0.390000  1
  O  O2329  1  0.475700  0.887500  0.953100  1
  O  O2330  1  0.024300  0.887500  0.546900  1
  O  O2331  1  0.524300  0.112500  0.046900  1
  O  O2332  1  0.975700  0.112500  0.453100  1
  O  O2333  1  0.383000  0.855100  0.942900  1
  O  O2334  1  0.117000  0.855100  0.557100  1
  O  O2335  1  0.617000  0.144900  0.057100  1
  O  O2336  1  0.883000  0.144900  0.442900  1
  O  O2337  1  0.381500  0.921700  0.915500  1
  O  O2338  1  0.118500  0.921700  0.584500  1
  O  O2339  1  0.618500  0.078300  0.084500  1
  O  O2340  1  0.881500  0.078300  0.415500  1
  O  O2341  1  0.199700  0.937600  0.234800  1.0
  O  O2342  1  0.300300  0.937600  0.265200  1.0
  O  O2343  1  0.800300  0.062400  0.765200  1.0
  O  O2344  1  0.699700  0.062400  0.734800  1.0
  O  O2345  1  0.231500  0.989500  0.280900  1.0
  O  O2346  1  0.268500  0.989500  0.219100  1.0
  O  O2347  1  0.768500  0.010500  0.719100  1.0
  O  O2348  1  0.731500  0.010500  0.780900  1.0
