
#######################################################################
#
#                 Cambridge Crystallographic Data Centre
#                                CCDC 
#
#######################################################################
#
# If this CIF has been generated from an entry in the Cambridge 
# Structural Database, then it will include bibliographic, chemical, 
# crystal, experimental, refinement or atomic coordinate data resulting 
# from the CCDC's data processing and validation procedures.
#
#######################################################################

data_ZEXSEC
_chemical_formula_moiety         
'C200 H160 N8 O16 Pd2 4+,2(C18 H12),4(N1 O3 1-),21(H2 O1)'
_chemical_name_systematic        
"tetrakis(\m~2~-3,3'-((4,6-bis(2-methoxyethoxy)-1,3-phenylene)dianthracene-10,9-diyl)dipyridine)-di-palladium(ii) tetranitrate bis(triphenylene) henicosahydrate"
_symmetry_cell_setting           triclinic
_symmetry_space_group_name_H-M   'P -1'
_symmetry_Int_Tables_number      2
_space_group_name_Hall           '-P 1'
loop_
_symmetry_equiv_pos_site_id
_symmetry_equiv_pos_as_xyz
1 x,y,z
2 -x,-y,-z
_cell_length_a                   18.864(5)
_cell_length_b                   22.735(6)
_cell_length_c                   24.442(6)
_cell_angle_alpha                91.429(3)
_cell_angle_beta                 100.638(3)
_cell_angle_gamma                95.164(3)
_cell_volume                     10251.3
_exptl_crystal_colour            'pale yellow'
_exptl_crystal_description       plate
_cell_formula_units_Z            2
loop_
_atom_site_label
_atom_site_type_symbol
_atom_site_fract_x
_atom_site_fract_y
_atom_site_fract_z
C1 C 0.7658(9) 0.6462(7) 0.7274(7)
C2 C 0.8842(9) 0.8019(9) 0.6891(8)
H1 H 0.8628 0.8270 0.6629
C3 C 0.7746(9) 0.7347(8) 0.6688(7)
C4 C 0.8465(10) 0.7498(8) 0.6982(8)
C5 C 0.7379(9) 0.6821(7) 0.6841(7)
C6 C 0.9551(9) 0.7293(8) 0.7677(8)
H2 H 0.9793 0.7039 0.7922
C7 C 0.8273(9) 0.5850(7) 0.8215(8)
H3 H 0.8473 0.5656 0.8529
C8 C 0.6661(11) 0.7529(9) 0.6050(8)
H4 H 0.6411 0.7793 0.5822
C9 C 0.6289(11) 0.7013(8) 0.6129(8)
H5 H 0.5826 0.6901 0.5929
C10 C 0.8647(9) 0.6291(7) 0.8028(7)
H6 H 0.9118 0.6396 0.8218
C11 C 0.7279(9) 0.5971(7) 0.7481(6)
H7 H 0.6812 0.5852 0.7291
C12 C 0.7362(9) 0.7698(8) 0.6271(7)
H8 H 0.7594 0.8038 0.6156
C13 C 0.7529(10) 0.5670(8) 0.7917(7)
H9 H 0.7248 0.5357 0.8032
C14 C 0.9874(11) 0.7863(9) 0.7544(9)
H10 H 1.0338 0.7996 0.7732
C15 C 0.9558(11) 0.8181(10) 0.7192(9)
H11 H 0.9797 0.8539 0.7121
C16 C 0.6637(9) 0.6662(8) 0.6523(6)
H12 H 0.6392 0.6306 0.6593
C17 C 0.8396(9) 0.6614(7) 0.7567(7)
C18 C 0.8776(9) 0.7158(8) 0.7373(8)
C19 C 0.9729(8) 1.0115(7) 0.6724(6)
H13 H 0.9373 0.9802 0.6713
C20 C 0.5399(9) 0.4694(7) 0.7678(7)
C21 C 0.8379(9) 1.0132(7) 1.0012(6)
H14 H 0.8503 1.0505 1.0186
C22 C 0.7109(8) 1.0521(7) 0.8008(7)
C23 C 1.0581(9) 0.7521(7) 0.6072(7)
C24 C 1.0794(8) 1.1046(7) 0.6732(6)
H15 H 1.1133 1.1366 0.6717
C25 C 0.4773(9) 0.8075(8) 0.4849(7)
C26 C 0.5530(9) 0.5178(8) 0.8053(7)
H16 H 0.5820 0.5504 0.7969
C27 C 0.9604(8) 1.0651(7) 0.6934(6)
C28 C 0.8603(9) 0.7129(7) 0.4284(7)
H17 H 0.8851 0.7178 0.3991
C29 C 0.4697(8) 0.8238(7) 0.5383(7)
H18 H 0.5114 0.8256 0.5655
C30 C 0.4442(9) 0.8826(7) 0.7911(7)
C31 C 0.6807(8) 0.5129(7) 0.5792(6)
C32 C 0.6980(9) 0.5110(7) 0.4825(7)
H19 H 0.6802 0.5009 0.4450
C33 C 0.3941(10) 0.8833(7) 0.8297(7)
H20 H 0.3447 0.8817 0.8155
C34 C 0.9169(9) 0.4941(7) 0.6077(8)
H21 H 0.8995 0.4833 0.5703
C35 C 0.7570(8) 0.7260(7) 0.4703(7)
C36 C 0.4176(9) 0.8862(7) 0.8861(7)
H22 H 0.3845 0.8818 0.9099
C37 C 1.0566(9) 0.7266(8) 0.9908(8)
C38 C 1.0356(8) 1.0005(7) 0.6523(6)
C39 C 0.6467(9) 0.8177(7) 1.0516(7)
H23 H 0.6547 0.8269 1.0897
C40 C 0.5157(8) 0.8901(6) 0.8203(6)
H24 H 0.5506 0.8893 0.7980
C41 C 0.6180(7) 0.7959(7) 0.9414(7)
H25 H 0.6067 0.7880 0.9031
C42 C 0.7857(8) 0.6932(7) 0.5127(7)
H26 H 0.7600 0.6860 0.5413
C43 C 0.9818(10) 0.5255(8) 0.7187(8)
C44 C 1.1116(10) 0.6612(8) 0.5959(7)
H27 H 1.1532 0.6415 0.5984
C45 C 0.7678(9) 0.9978(7) 0.9722(6)
H28 H 0.7335 1.0250 0.9697
C46 C 0.7974(8) 0.7369(7) 0.4281(7)
H29 H 0.7804 0.7610 0.3994
C47 C 0.6113(9) 0.7482(7) 0.9760(7)
C48 C 0.6547(8) 0.8600(7) 1.0163(7)
H30 H 0.6716 0.8979 1.0307
C49 C 0.7978(8) 0.9022(6) 0.9507(6)
H31 H 0.7843 0.8656 0.9321
C50 C 1.0465(9) 0.6874(8) 0.9447(8)
H32 H 1.0109 0.6948 0.9146
C51 C 0.7022(7) 1.0007(7) 0.8300(6)
H33 H 0.7347 0.9725 0.8287
C52 C 0.6267(9) 0.7604(7) 1.0319(7)
H34 H 0.6237 0.7302 1.0566
C53 C 0.5989(9) 1.0280(7) 0.8578(7)
H35 H 0.5600 1.0201 0.8759
C54 C 0.6590(9) 1.0917(8) 0.8021(6)
H36 H 0.6616 1.1272 0.7842
C55 C 0.8693(9) 0.9132(7) 0.9815(7)
C56 C 0.8868(9) 0.6809(7) 0.4739(7)
H37 H 0.9316 0.6660 0.4761
C57 C 1.0827(10) 0.6400(9) 0.9390(8)
C58 C 0.4907(9) 0.8958(7) 0.9073(7)
H38 H 0.5057 0.9010 0.9457
C59 C 0.6040(9) 1.0773(8) 0.8302(7)
H39 H 0.5685 1.1032 0.8299
C60 C 0.8889(9) 0.9732(7) 1.0042(6)
H40 H 0.9366 0.9848 1.0211
C61 C 1.1161(9) 0.7197(7) 0.6002(6)
H41 H 1.1603 0.7406 0.5985
C62 C 0.7634(9) 0.5428(7) 0.4973(7)
H42 H 0.7928 0.5510 0.4712
C63 C 0.5262(10) 0.5212(8) 0.8536(8)
C64 C 0.4688(9) 0.4237(9) 0.8288(8)
H43 H 0.4406 0.3898 0.8353
C65 C 0.9453(8) 0.5642(8) 0.6797(7)
H44 H 0.9426 0.6026 0.6927
C66 C 0.6563(8) 0.4928(7) 0.5223(6)
H45 H 0.6137 0.4681 0.5118
C67 C 1.0433(9) 0.6301(8) 0.5876(7)
H46 H 1.0378 0.5898 0.5783
C68 C 0.7457(8) 0.5483(6) 0.5908(6)
H47 H 0.7623 0.5623 0.6274
C69 C 0.4086(10) 0.8376(9) 0.5556(8)
C70 C 0.9875(9) 0.7157(6) 0.6045(6)
H48 H 0.9465 0.7328 0.6107
C71 C 0.9829(10) 0.4667(8) 0.6977(6)
H49 H 1.0080 0.4393 0.7191
C72 C 0.9457(10) 0.4521(9) 0.6451(8)
H50 H 0.9390 0.4125 0.6333
C73 C 0.3488(11) 0.8163(9) 0.4575(9)
H51 H 0.3059 0.8107 0.4314
C74 C 1.1512(10) 0.6643(9) 1.0313(9)
H52 H 1.1863 0.6550 1.0610
C75 C 1.0172(8) 1.1124(6) 0.6950(5)
C76 C 1.0689(7) 1.2061(5) 0.7368(6)
H53 H 1.0816 1.2265 0.7051
H54 H 1.1099 1.1859 0.7542
C77 C 1.0487(8) 1.2487(5) 0.7776(5)
H55 H 1.0283 1.2272 0.8058
H56 H 1.0916 1.2733 0.7961
C78 C 0.9836(10) 1.3309(7) 0.7857(7)
H57 H 0.9541 1.3575 0.7642
H58 H 1.0285 1.3521 0.8037
H59 H 0.9585 1.3143 0.8134
C79 C 0.9874(5) 1.0789(7) 0.8705(4)
H60 H 1.0340 1.0825 0.8918
C80 C 0.9779(4) 1.0734(7) 0.8149(3)
H61 H 1.0183 1.0711 0.7985
C81 C 0.9079(4) 1.0708(7) 0.7798(3)
C82 C 0.8976(4) 1.0689(7) 0.7214(3)
C83 C 0.8275(4) 1.0692(7) 0.6890(3)
C84 C 0.8133(5) 1.0699(7) 0.6291(3)
H62 H 0.8523 1.0713 0.6105
C85 C 0.7465(5) 1.0685(7) 0.5992(3)
H63 H 0.7399 1.0721 0.5608
C86 C 0.6863(5) 1.0615(7) 0.6251(4)
H64 H 0.6399 1.0568 0.6035
C87 C 0.6950(4) 1.0616(7) 0.6803(3)
H65 H 0.6541 1.0591 0.6966
C88 C 0.7655(4) 1.0653(7) 0.7160(3)
C89 C 0.7758(4) 1.0640(7) 0.7745(3)
C90 C 0.8457(4) 1.0683(7) 0.8069(3)
C91 C 0.8598(5) 1.0736(7) 0.8666(3)
H66 H 0.8207 1.0729 0.8850
C92 C 0.9269(5) 1.0793(7) 0.8969(3)
H67 H 0.9338 1.0835 0.9355
C93 C 1.0902(6) 1.0488(6) 0.6538(6)
C94 C 1.2140(6) 1.0770(6) 0.6504(7)
H68 H 1.2214 1.0882 0.6897
H69 H 1.2086 1.1124 0.6293
C95 C 1.2772(6) 1.0473(6) 0.6381(7)
H70 H 1.2668 1.0317 0.5999
H71 H 1.3195 1.0758 0.6425
C96 C 1.2698(12) 0.9443(6) 0.6473(8)
H72 H 1.3009 0.9369 0.6214
H73 H 1.2207 0.9430 0.6277
H74 H 1.2734 0.9146 0.6747
C97 C 1.1776(8) 0.9037(5) 0.7637(4)
H75 H 1.2045 0.9225 0.7962
C98 C 1.1336(7) 0.9341(4) 0.7280(4)
H76 H 1.1290 0.9733 0.7372
C99 C 1.0935(7) 0.9080(4) 0.6761(4)
C100 C 1.0476(7) 0.9393(4) 0.6381(4)
C101 C 1.0104(7) 0.9120(4) 0.5873(4)
C102 C 0.9679(7) 0.9433(4) 0.5443(4)
H77 H 0.9637 0.9832 0.5507
C103 C 0.9342(7) 0.9173(5) 0.4959(4)
H78 H 0.9070 0.9390 0.4695
C104 C 0.9397(8) 0.8575(5) 0.4846(4)
H79 H 0.9161 0.8397 0.4507
C105 C 0.9784(7) 0.8257(4) 0.5220(4)
H80 H 0.9810 0.7860 0.5133
C106 C 1.0164(7) 0.8504(4) 0.5754(4)
C107 C 1.0594(7) 0.8181(4) 0.6152(4)
C108 C 1.1018(7) 0.8469(4) 0.6633(4)
C109 C 1.1482(7) 0.8168(4) 0.7043(4)
H81 H 1.1541 0.7773 0.6972
C110 C 1.1833(8) 0.8434(5) 0.7524(4)
H82 H 1.2116 0.8220 0.7784
C111 C 0.3493(9) 0.8327(10) 0.5082(10)
C112 C 0.2249(9) 0.8042(11) 0.5084(11)
H83 H 0.2084 0.7868 0.5402
H84 H 0.2426 0.7734 0.4878
C113 C 0.1633(10) 0.8295(11) 0.4718(9)
H85 H 0.1811 0.8514 0.4427
H86 H 0.1279 0.7978 0.4542
C114 C 0.1677(15) 0.9254(12) 0.5118(16)
H87 H 0.2177 0.9236 0.5095
H88 H 0.1643 0.9417 0.5477
H89 H 0.1458 0.9500 0.4833
C115 C 0.4863(9) 1.0092(4) 0.6290(5)
H90 H 0.4963 1.0399 0.6064
C116 C 0.4621(9) 0.9553(4) 0.6063(4)
H91 H 0.4614 0.9480 0.5686
C117 C 0.4371(8) 0.9083(4) 0.6383(3)
C118 C 0.4084(8) 0.8524(4) 0.6146(4)
C119 C 0.3803(8) 0.8092(4) 0.6473(3)
C120 C 0.3471(8) 0.7518(4) 0.6251(4)
H92 H 0.3434 0.7428 0.5873
C121 C 0.3214(8) 0.7113(4) 0.6567(5)
H93 H 0.2978 0.6758 0.6403
C122 C 0.3298(8) 0.7218(4) 0.7142(4)
H94 H 0.3134 0.6925 0.7360
C123 C 0.3610(8) 0.7733(4) 0.7379(4)
H95 H 0.3648 0.7794 0.7762
C124 C 0.3892(8) 0.8200(4) 0.7067(3)
C125 C 0.4239(8) 0.8745(4) 0.7311(3)
C126 C 0.4471(8) 0.9189(4) 0.6979(3)
C127 C 0.4753(8) 0.9774(4) 0.7194(4)
H96 H 0.4786 0.9863 0.7572
C128 C 0.4968(9) 1.0194(4) 0.6873(5)
H97 H 0.5188 1.0556 0.7033
C129 C 0.4125(9) 0.8078(7) 0.4437(6)
C130 C 0.3529(8) 0.7729(7) 0.3527(5)
H98 H 0.3284 0.8080 0.3429
H99 H 0.3213 0.7458 0.3695
C131 C 0.3705(9) 0.7443(5) 0.3018(4)
H100 H 0.4072 0.7174 0.3126
H101 H 0.3276 0.7217 0.2810
C132 C 0.4054(11) 0.7628(7) 0.2158(5)
H102 H 0.3592 0.7558 0.1913
H103 H 0.4268 0.7261 0.2215
H104 H 0.4366 0.7900 0.1995
C133 C 0.6654(5) 0.9294(3) 0.5029(6)
H105 H 0.6617 0.9692 0.5104
C134 C 0.6055(5) 0.8916(3) 0.4911(6)
H106 H 0.5606 0.9061 0.4897
C135 C 0.6080(4) 0.8295(3) 0.4805(6)
C136 C 0.5464(4) 0.7887(3) 0.4733(6)
C137 C 0.5517(4) 0.7285(3) 0.4611(6)
C138 C 0.4902(4) 0.6843(4) 0.4519(6)
H107 H 0.4451 0.6955 0.4557
C139 C 0.4960(5) 0.6282(4) 0.4382(6)
H108 H 0.4551 0.6011 0.4324
C140 C 0.5627(5) 0.6094(4) 0.4324(6)
H109 H 0.5655 0.5703 0.4215
C141 C 0.6225(5) 0.6471(3) 0.4424(6)
H110 H 0.6667 0.6331 0.4400
C142 C 0.6210(4) 0.7088(3) 0.4567(6)
C143 C 0.6837(4) 0.7493(3) 0.4678(6)
C144 C 0.6781(4) 0.8093(3) 0.4790(6)
C145 C 0.7399(4) 0.8524(4) 0.4914(6)
H111 H 0.7856 0.8405 0.4906
C146 C 0.7340(5) 0.9091(4) 0.5040(6)
H112 H 0.7755 0.9353 0.5136
C147 C 0.4785(11) 0.4696(9) 0.8674(9)
C148 C 0.3943(9) 0.4376(10) 0.9251(8)
H113 H 0.3860 0.4472 0.9621
H114 H 0.4109 0.3984 0.9251
C149 C 0.3256(7) 0.4384(9) 0.8837(9)
H115 H 0.3366 0.4436 0.8468
H116 H 0.2964 0.4009 0.8832
C150 C 0.2151(11) 0.4812(12) 0.8643(11)
H117 H 0.2129 0.5120 0.8381
H118 H 0.1806 0.4859 0.8880
H119 H 0.2041 0.4435 0.8445
C151 C 0.3730(5) 0.6466(5) 0.8607(6)
H120 H 0.3259 0.6381 0.8409
C152 C 0.4210(5) 0.6067(5) 0.8611(6)
H121 H 0.4061 0.5706 0.8418
C153 C 0.4945(5) 0.6175(4) 0.8903(6)
C154 C 0.5454(5) 0.5762(4) 0.8906(6)
C155 C 0.6159(5) 0.5878(4) 0.9224(6)
C156 C 0.6709(5) 0.5474(5) 0.9240(6)
H122 H 0.6591 0.5113 0.9043
C157 C 0.7379(5) 0.5600(5) 0.9526(7)
H123 H 0.7713 0.5322 0.9536
C158 C 0.7586(5) 0.6146(5) 0.9812(7)
H124 H 0.8060 0.6233 1.0002
C159 C 0.7110(5) 0.6544(5) 0.9816(6)
H125 H 0.7258 0.6898 1.0021
C160 C 0.6374(5) 0.6446(4) 0.9513(6)
C161 C 0.5861(5) 0.6859(4) 0.9512(6)
C162 C 0.5153(5) 0.6736(4) 0.9208(6)
C163 C 0.4612(5) 0.7142(4) 0.9184(6)
H126 H 0.4736 0.7508 0.9373
C164 C 0.3935(5) 0.7015(5) 0.8902(7)
H127 H 0.3598 0.7290 0.8899
C165 C 0.4983(9) 0.4238(7) 0.7800(7)
C166 C 0.4140(10) 0.3503(5) 0.7265(7)
H128 H 0.3876 0.3802 0.7063
H129 H 0.3911 0.3399 0.7578
C167 C 0.4108(9) 0.2967(5) 0.6889(5)
H130 H 0.3636 0.2905 0.6647
H131 H 0.4472 0.3025 0.6657
C168 C 0.4212(12) 0.1943(6) 0.6875(7)
H132 H 0.4510 0.2014 0.6600
H133 H 0.3722 0.1826 0.6693
H134 H 0.4390 0.1634 0.7108
C169 C 0.4440(5) 0.5669(6) 0.6317(5)
H135 H 0.4001 0.5821 0.6329
C170 C 0.4721(5) 0.5325(6) 0.6721(5)
H136 H 0.4471 0.5243 0.7009
C171 C 0.5396(5) 0.5078(6) 0.6724(4)
C172 C 0.5715(5) 0.4740(6) 0.7158(4)
C173 C 0.6356(5) 0.4478(5) 0.7123(4)
C174 C 0.6715(6) 0.4128(6) 0.7556(4)
H137 H 0.6506 0.4058 0.7868
C175 C 0.7334(6) 0.3903(6) 0.7526(5)
H138 H 0.7557 0.3692 0.7820
C176 C 0.7652(6) 0.3981(6) 0.7057(5)
H139 H 0.8074 0.3808 0.7034
C177 C 0.7356(5) 0.4302(5) 0.6642(5)
H140 H 0.7576 0.4342 0.6332
C178 C 0.6708(5) 0.4590(5) 0.6656(4)
C179 C 0.6395(5) 0.4943(5) 0.6227(4)
C180 C 0.5744(5) 0.5184(5) 0.6251(4)
C181 C 0.5419(6) 0.5568(5) 0.5841(4)
H141 H 0.5644 0.5655 0.5540
C182 C 0.4803(6) 0.5804(6) 0.5875(5)
H142 H 0.4614 0.6059 0.5605
C183 C 1.1114(10) 0.7131(9) 1.0335(6)
C184 C 1.1683(11) 0.7325(8) 1.1286(4)
H143 H 1.2178 0.7363 1.1225
H144 H 1.1556 0.6916 1.1362
C185 C 1.1623(11) 0.7718(6) 1.1775(4)
H145 H 1.1935 0.8082 1.1779
H146 H 1.1128 0.7818 1.1743
C186 C 1.1730(10) 0.7763(8) 1.2749(5)
H147 H 1.1235 0.7852 1.2705
H148 H 1.2043 0.8125 1.2788
H149 H 1.1848 0.7539 1.3075
C187 C 0.8857(7) 0.7203(5) 1.0815(6)
H150 H 0.8761 0.6868 1.1010
C188 C 0.9400(7) 0.7230(5) 1.0531(6)
H151 H 0.9685 0.6916 1.0542
C189 C 0.9558(6) 0.7728(4) 1.0210(6)
C190 C 1.0133(6) 0.7768(5) 0.9919(6)
C191 C 1.0248(6) 0.8257(5) 0.9593(5)
C192 C 1.0806(6) 0.8308(5) 0.9260(5)
H152 H 1.1143 0.8030 0.9294
C193 C 1.0856(6) 0.8738(5) 0.8906(5)
H153 H 1.1224 0.8755 0.8699
C194 C 1.0361(6) 0.9164(5) 0.8844(5)
H154 H 1.0380 0.9445 0.8575
C195 C 0.9864(6) 0.9172(5) 0.9166(5)
H155 H 0.9570 0.9481 0.9140
C196 C 0.9765(6) 0.8717(4) 0.9554(5)
C197 C 0.9198(6) 0.8685(4) 0.9859(5)
C198 C 0.9102(6) 0.8207(4) 1.0200(5)
C199 C 0.8537(6) 0.8152(5) 1.0521(5)
H156 H 0.8237 0.8454 1.0521
C200 C 0.8428(7) 0.7678(5) 1.0821(6)
H157 H 0.8066 0.7663 1.1034
C201 C 1.1345(11) 0.6315(9) 0.9821(10)
C202 C 1.2305(10) 0.5743(9) 0.9695(11)
H158 H 1.2253 0.5662 0.9298
H159 H 1.2460 0.5389 0.9875
C203 C 1.2920(8) 0.6212(9) 0.9853(9)
H160 H 1.3127 0.6310 0.9528
H161 H 1.2745 0.6566 0.9988
C204 C 1.3741(19) 0.6465(14) 1.0691(11)
H162 H 1.3999 0.6782 1.0534
H163 H 1.4066 0.6299 1.0984
H164 H 1.3352 0.6614 1.0840
C205 C 0.9336(8) 0.4829(6) 0.9167(4)
H165 H 0.9156 0.4687 0.9472
C206 C 0.9839(8) 0.5293(6) 0.9233(4)
H166 H 1.0005 0.5464 0.9588
C207 C 1.0132(7) 0.5534(5) 0.8777(3)
C208 C 1.0652(7) 0.6024(5) 0.8842(4)
C209 C 1.0937(7) 0.6235(5) 0.8382(4)
C210 C 1.1506(7) 0.6713(5) 0.8427(4)
H167 H 1.1675 0.6908 0.8772
C211 C 1.1797(7) 0.6884(6) 0.7994(5)
H168 H 1.2146 0.7206 0.8036
C212 C 1.1583(7) 0.6584(6) 0.7476(5)
H169 H 1.1789 0.6709 0.7176
C213 C 1.1085(7) 0.6121(6) 0.7407(4)
H170 H 1.0972 0.5916 0.7064
C214 C 1.0714(7) 0.5927(6) 0.7846(4)
C215 C 1.0141(7) 0.5470(6) 0.7770(3)
C216 C 0.9874(7) 0.5250(5) 0.8232(4)
C217 C 0.9319(6) 0.4767(5) 0.8189(4)
H171 H 0.9119 0.4595 0.7839
C218 C 0.9079(8) 0.4556(6) 0.8634(5)
H172 H 0.8741 0.4226 0.8592
N1 N 0.6496(7) 0.9893(6) 0.8599(5)
N2 N 0.5423(7) 0.8981(5) 0.8747(5)
N3 N 0.6390(7) 0.8504(5) 0.9587(5)
N4 N 0.7488(7) 0.9415(5) 0.9468(5)
N5 N 0.9150(7) 0.5507(6) 0.6271(6)
N6 N 0.9853(6) 0.6585(5) 0.5931(5)
N7 N 0.8485(7) 0.6706(5) 0.5155(5)
N8 N 0.7856(7) 0.5633(5) 0.5537(5)
O1 O 1.0040(5) 1.1635(4) 0.7192(4)
O2 O 0.9979(6) 1.2844(5) 0.7498(5)
O3 O 1.1504(5) 1.0362(4) 0.6350(4)
O4 O 1.2915(6) 1.0013(6) 0.6744(5)
O5 O 0.2809(8) 0.8494(7) 0.5266(6)
O6 O 0.1308(10) 0.8671(11) 0.5039(11)
O7 O 0.4200(6) 0.7887(5) 0.3911(4)
O8 O 0.3959(6) 0.7873(5) 0.2682(4)
O9 O 0.4477(7) 0.4796(6) 0.9109(6)
O10 O 0.2865(10) 0.4843(7) 0.8974(8)
O11 O 0.4849(6) 0.3727(5) 0.7458(5)
O12 O 0.4232(7) 0.2472(5) 0.7210(4)
O13 O 1.1219(7) 0.7483(5) 1.0812(4)
O14 O 1.1825(7) 0.7426(5) 1.2269(4)
O15 O 1.1707(8) 0.5794(7) 0.9783(7)
O16 O 1.3451(10) 0.6018(9) 1.0267(11)
Pd1 Pd 0.88432(7) 0.61119(5) 0.57383(6)
Pd2 Pd 0.64478(7) 0.91856(5) 0.90837(6)
C219 C 0.5994(8) 0.6915(7) 0.7953(7)
H173 H 0.6170 0.6680 0.8244
C220 C 0.6431(9) 0.7437(7) 0.7868(7)
C221 C 0.7153(9) 0.7561(8) 0.8193(7)
C222 C 0.5469(9) 0.7558(8) 0.7104(7)
H174 H 0.5269 0.7776 0.6806
C223 C 0.7605(10) 0.8041(8) 0.8013(8)
C224 C 0.5101(9) 0.7064(8) 0.7213(7)
H175 H 0.4660 0.6940 0.6983
C225 C 0.8355(10) 0.8155(9) 0.8285(8)
H176 H 0.8652 0.8468 0.8185
C226 C 0.5340(9) 0.6742(8) 0.7637(7)
H177 H 0.5066 0.6405 0.7717
C227 C 0.6285(11) 0.8674(8) 0.6859(8)
H178 H 0.5791 0.8616 0.6714
C228 C 0.8608(11) 0.7797(9) 0.8683(9)
H179 H 0.9098 0.7858 0.8840
C229 C 0.6166(9) 0.7771(7) 0.7428(7)
C230 C 0.7351(12) 0.9205(9) 0.6894(9)
H180 H 0.7623 0.9491 0.6735
C231 C 0.7729(11) 0.8914(9) 0.7393(9)
H181 H 0.8198 0.9037 0.7576
C232 C 0.7469(8) 0.7215(8) 0.8626(7)
H182 H 0.7191 0.6900 0.8742
C233 C 0.8199(11) 0.7340(9) 0.8883(8)
H183 H 0.8403 0.7123 0.9180
C234 C 0.6614(10) 0.8297(8) 0.7300(7)
C235 C 0.6694(12) 0.9091(9) 0.6673(9)
H184 H 0.6495 0.9306 0.6373
C236 C 0.7283(10) 0.8415(8) 0.7566(8)
N9 N 0.8121(17) 0.9327(14) 0.1500(13)
O17 O 0.8408(10) 0.9821(9) 0.1386(8)
O18 O 0.7597(12) 0.9167(10) 0.1208(9)
O19 O 0.8371(11) 0.9076(9) 0.1909(9)
N10 N 0.7373(12) 0.1901(13) 0.0712(12)
O20 O 0.7487(8) 0.2343(8) 0.0469(7)
O21 O 0.7421(9) 0.1839(8) 0.1209(8)
O22 O 0.7252(9) 0.1393(8) 0.0446(8)
O23 O 0.749(3) 0.139(2) 0.9400(19)
O24 O 0.3005(17) 0.2935(14) 0.8398(13)
O25 O 0.1309(17) 0.3987(14) 0.6999(16)
O26 O 0.0103(12) 0.3177(10) 0.6453(9)
O27 O 0.0524(9) 0.6478(8) 0.4600(7)
O28 O 0.7094(10) 0.0304(8) 0.0902(8)
O29 O 0.7771(16) 0.6587(13) 0.2837(13)
O30 O 0.7707(7) 0.7767(7) 0.3008(6)
O31 O 0.7169(13) 0.8234(11) 0.2028(10)
O32 O 0.5675(18) 0.8862(15) 0.1695(14)
O33 O 0.4954(13) 0.9211(11) 0.0456(9)
O34 O 0.5995(8) 0.9986(6) 0.9981(6)
O35 O 0.752(2) 0.5925(15) 0.3662(15)
O36 O 0.9580(9) 0.5478(7) 0.4794(7)
O37 O 0.8694(14) 0.4931(11) 0.3938(11)
O38 O 0.7591(18) 0.4287(15) 0.3905(15)
O39 O 0.7998(16) 0.3931(11) 0.5090(11)
O40 O 0.588(3) 0.9728(17) 0.1283(19)
O41 O 0.714(2) 0.474(2) 0.280(2)
O42 O 0.419(2) 0.2398(18) 0.8336(15)
O43? O 0.7171(15) 0.3576(11) 0.5076(11)
loop_
_geom_bond_atom_site_label_1
_geom_bond_atom_site_label_2
_geom_bond_site_symmetry_1
_geom_bond_site_symmetry_2
C1 C5 1_555 1_555
C2 H1 1_555 1_555
C3 C4 1_555 1_555
C4 C2 1_555 1_555
C5 C3 1_555 1_555
C6 H2 1_555 1_555
C7 H3 1_555 1_555
C8 H4 1_555 1_555
C9 C8 1_555 1_555
H5 C9 1_555 1_555
C10 C7 1_555 1_555
H6 C10 1_555 1_555
C11 C1 1_555 1_555
H7 C11 1_555 1_555
C12 C3 1_555 1_555
H8 C12 1_555 1_555
C13 C7 1_555 1_555
H9 C13 1_555 1_555
C14 C6 1_555 1_555
H10 C14 1_555 1_555
C15 C2 1_555 1_555
H11 C15 1_555 1_555
C16 C5 1_555 1_555
H12 C16 1_555 1_555
C17 C1 1_555 1_555
C18 C4 1_555 1_555
C19 H13 1_555 1_555
C20 C26 1_555 1_555
C21 H14 1_555 1_555
C22 C51 1_555 1_555
C23 C61 1_555 1_555
C24 H15 1_555 1_555
C25 C29 1_555 1_555
C26 H16 1_555 1_555
C27 C19 1_555 1_555
C28 H17 1_555 1_555
C29 H18 1_555 1_555
C30 C33 1_555 1_555
C31 C66 1_555 1_555
C32 H19 1_555 1_555
C33 H20 1_555 1_555
C34 H21 1_555 1_555
C35 C42 1_555 1_555
C36 C33 1_555 1_555
H22 C36 1_555 1_555
C37 C50 1_555 1_555
C38 C19 1_555 1_555
C39 H23 1_555 1_555
C40 C30 1_555 1_555
H24 C40 1_555 1_555
C41 H25 1_555 1_555
C42 H26 1_555 1_555
C43 C65 1_555 1_555
C44 H27 1_555 1_555
C45 C21 1_555 1_555
H28 C45 1_555 1_555
C46 C28 1_555 1_555
H29 C46 1_555 1_555
C47 C41 1_555 1_555
C48 C39 1_555 1_555
H30 C48 1_555 1_555
C49 H31 1_555 1_555
C50 H32 1_555 1_555
C51 H33 1_555 1_555
C52 C39 1_555 1_555
H34 C52 1_555 1_555
C53 H35 1_555 1_555
C54 C22 1_555 1_555
H36 C54 1_555 1_555
C55 C49 1_555 1_555
C56 C28 1_555 1_555
H37 C56 1_555 1_555
C57 C50 1_555 1_555
C58 C36 1_555 1_555
H38 C58 1_555 1_555
C59 C53 1_555 1_555
H39 C59 1_555 1_555
C60 C21 1_555 1_555
H40 C60 1_555 1_555
C61 C44 1_555 1_555
H41 C61 1_555 1_555
C62 C32 1_555 1_555
H42 C62 1_555 1_555
C63 C26 1_555 1_555
C64 H43 1_555 1_555
C65 H44 1_555 1_555
C66 C32 1_555 1_555
H45 C66 1_555 1_555
C67 C44 1_555 1_555
H46 C67 1_555 1_555
C68 C31 1_555 1_555
H47 C68 1_555 1_555
C69 C29 1_555 1_555
C70 C23 1_555 1_555
H48 C70 1_555 1_555
C71 C43 1_555 1_555
H49 C71 1_555 1_555
C72 C34 1_555 1_555
H50 C72 1_555 1_555
C73 H51 1_555 1_555
C74 H52 1_555 1_555
C75 C24 1_555 1_555
C76 H53 1_555 1_555
H54 C76 1_555 1_555
C77 C76 1_555 1_555
H55 C77 1_555 1_555
H56 C77 1_555 1_555
C78 H57 1_555 1_555
H58 C78 1_555 1_555
H59 C78 1_555 1_555
C79 H60 1_555 1_555
C80 C79 1_555 1_555
H61 C80 1_555 1_555
C81 C80 1_555 1_555
C82 C27 1_555 1_555
C83 C82 1_555 1_555
C84 C83 1_555 1_555
H62 C84 1_555 1_555
C85 C84 1_555 1_555
H63 C85 1_555 1_555
C86 C85 1_555 1_555
H64 C86 1_555 1_555
C87 C86 1_555 1_555
H65 C87 1_555 1_555
C88 C83 1_555 1_555
C89 C22 1_555 1_555
C90 C81 1_555 1_555
C91 C90 1_555 1_555
H66 C91 1_555 1_555
C92 C79 1_555 1_555
H67 C92 1_555 1_555
C93 C24 1_555 1_555
C94 H68 1_555 1_555
H69 C94 1_555 1_555
C95 C94 1_555 1_555
H70 C95 1_555 1_555
H71 C95 1_555 1_555
C96 H72 1_555 1_555
H73 C96 1_555 1_555
H74 C96 1_555 1_555
C97 H75 1_555 1_555
C98 C97 1_555 1_555
H76 C98 1_555 1_555
C99 C98 1_555 1_555
C100 C38 1_555 1_555
C101 C100 1_555 1_555
C102 C101 1_555 1_555
H77 C102 1_555 1_555
C103 C102 1_555 1_555
H78 C103 1_555 1_555
C104 C103 1_555 1_555
H79 C104 1_555 1_555
C105 C104 1_555 1_555
H80 C105 1_555 1_555
C106 C101 1_555 1_555
C107 C23 1_555 1_555
C108 C99 1_555 1_555
C109 C108 1_555 1_555
H81 C109 1_555 1_555
C110 C97 1_555 1_555
H82 C110 1_555 1_555
C111 C69 1_555 1_555
C112 H83 1_555 1_555
H84 C112 1_555 1_555
C113 C112 1_555 1_555
H85 C113 1_555 1_555
H86 C113 1_555 1_555
C114 H87 1_555 1_555
H88 C114 1_555 1_555
H89 C114 1_555 1_555
C115 H90 1_555 1_555
C116 C115 1_555 1_555
H91 C116 1_555 1_555
C117 C116 1_555 1_555
C118 C69 1_555 1_555
C119 C118 1_555 1_555
C120 C119 1_555 1_555
H92 C120 1_555 1_555
C121 C120 1_555 1_555
H93 C121 1_555 1_555
C122 C121 1_555 1_555
H94 C122 1_555 1_555
C123 C122 1_555 1_555
H95 C123 1_555 1_555
C124 C119 1_555 1_555
C125 C30 1_555 1_555
C126 C117 1_555 1_555
C127 C126 1_555 1_555
H96 C127 1_555 1_555
C128 C115 1_555 1_555
H97 C128 1_555 1_555
C129 C25 1_555 1_555
C130 H98 1_555 1_555
H99 C130 1_555 1_555
C131 C130 1_555 1_555
H100 C131 1_555 1_555
H101 C131 1_555 1_555
C132 H102 1_555 1_555
H103 C132 1_555 1_555
H104 C132 1_555 1_555
C133 H105 1_555 1_555
C134 C133 1_555 1_555
H106 C134 1_555 1_555
C135 C134 1_555 1_555
C136 C25 1_555 1_555
C137 C136 1_555 1_555
C138 C137 1_555 1_555
H107 C138 1_555 1_555
C139 C138 1_555 1_555
H108 C139 1_555 1_555
C140 C139 1_555 1_555
H109 C140 1_555 1_555
C141 C140 1_555 1_555
H110 C141 1_555 1_555
C142 C137 1_555 1_555
C143 C35 1_555 1_555
C144 C135 1_555 1_555
C145 C144 1_555 1_555
H111 C145 1_555 1_555
C146 C133 1_555 1_555
H112 C146 1_555 1_555
C147 C63 1_555 1_555
C148 H113 1_555 1_555
H114 C148 1_555 1_555
C149 C148 1_555 1_555
H115 C149 1_555 1_555
H116 C149 1_555 1_555
C150 H117 1_555 1_555
H118 C150 1_555 1_555
H119 C150 1_555 1_555
C151 H120 1_555 1_555
C152 C151 1_555 1_555
H121 C152 1_555 1_555
C153 C152 1_555 1_555
C154 C63 1_555 1_555
C155 C154 1_555 1_555
C156 C155 1_555 1_555
H122 C156 1_555 1_555
C157 C156 1_555 1_555
H123 C157 1_555 1_555
C158 C157 1_555 1_555
H124 C158 1_555 1_555
C159 C158 1_555 1_555
H125 C159 1_555 1_555
C160 C155 1_555 1_555
C161 C47 1_555 1_555
C162 C153 1_555 1_555
C163 C162 1_555 1_555
H126 C163 1_555 1_555
C164 C151 1_555 1_555
H127 C164 1_555 1_555
C165 C20 1_555 1_555
C166 H128 1_555 1_555
H129 C166 1_555 1_555
C167 C166 1_555 1_555
H130 C167 1_555 1_555
H131 C167 1_555 1_555
C168 H132 1_555 1_555
H133 C168 1_555 1_555
H134 C168 1_555 1_555
C169 H135 1_555 1_555
C170 C169 1_555 1_555
H136 C170 1_555 1_555
C171 C170 1_555 1_555
C172 C20 1_555 1_555
C173 C172 1_555 1_555
C174 C173 1_555 1_555
H137 C174 1_555 1_555
C175 C174 1_555 1_555
H138 C175 1_555 1_555
C176 C175 1_555 1_555
H139 C176 1_555 1_555
C177 C176 1_555 1_555
H140 C177 1_555 1_555
C178 C173 1_555 1_555
C179 C31 1_555 1_555
C180 C171 1_555 1_555
C181 C180 1_555 1_555
H141 C181 1_555 1_555
C182 C169 1_555 1_555
H142 C182 1_555 1_555
C183 C37 1_555 1_555
C184 H143 1_555 1_555
H144 C184 1_555 1_555
C185 C184 1_555 1_555
H145 C185 1_555 1_555
H146 C185 1_555 1_555
C186 H147 1_555 1_555
H148 C186 1_555 1_555
H149 C186 1_555 1_555
C187 H150 1_555 1_555
C188 C187 1_555 1_555
H151 C188 1_555 1_555
C189 C188 1_555 1_555
C190 C37 1_555 1_555
C191 C190 1_555 1_555
C192 C191 1_555 1_555
H152 C192 1_555 1_555
C193 C192 1_555 1_555
H153 C193 1_555 1_555
C194 C193 1_555 1_555
H154 C194 1_555 1_555
C195 C194 1_555 1_555
H155 C195 1_555 1_555
C196 C191 1_555 1_555
C197 C55 1_555 1_555
C198 C189 1_555 1_555
C199 C198 1_555 1_555
H156 C199 1_555 1_555
C200 C187 1_555 1_555
H157 C200 1_555 1_555
C201 C57 1_555 1_555
C202 H158 1_555 1_555
H159 C202 1_555 1_555
C203 C202 1_555 1_555
H160 C203 1_555 1_555
H161 C203 1_555 1_555
C204 H162 1_555 1_555
H163 C204 1_555 1_555
H164 C204 1_555 1_555
C205 H165 1_555 1_555
C206 C205 1_555 1_555
H166 C206 1_555 1_555
C207 C206 1_555 1_555
C208 C57 1_555 1_555
C209 C208 1_555 1_555
C210 C209 1_555 1_555
H167 C210 1_555 1_555
C211 C210 1_555 1_555
H168 C211 1_555 1_555
C212 C211 1_555 1_555
H169 C212 1_555 1_555
C213 C212 1_555 1_555
H170 C213 1_555 1_555
C214 C209 1_555 1_555
C215 C43 1_555 1_555
C216 C207 1_555 1_555
C217 C216 1_555 1_555
H171 C217 1_555 1_555
C218 C205 1_555 1_555
H172 C218 1_555 1_555
N1 C51 1_555 1_555
N2 C40 1_555 1_555
N3 C41 1_555 1_555
N4 C45 1_555 1_555
N5 C34 1_555 1_555
N6 C67 1_555 1_555
N7 C42 1_555 1_555
N8 C62 1_555 1_555
O1 C75 1_555 1_555
O2 C77 1_555 1_555
O3 C93 1_555 1_555
O4 C95 1_555 1_555
O5 C111 1_555 1_555
O6 C113 1_555 1_555
O7 C129 1_555 1_555
O8 C131 1_555 1_555
O9 C147 1_555 1_555
O10 C149 1_555 1_555
O11 C165 1_555 1_555
O12 C167 1_555 1_555
O13 C183 1_555 1_555
O14 C185 1_555 1_555
O15 C201 1_555 1_555
O16 C203 1_555 1_555
Pd1 N5 1_555 1_555
Pd2 N1 1_555 1_555
C219 H173 1_555 1_555
C220 C219 1_555 1_555
C221 C220 1_555 1_555
C222 H174 1_555 1_555
C223 C221 1_555 1_555
C224 C222 1_555 1_555
H175 C224 1_555 1_555
C225 C223 1_555 1_555
H176 C225 1_555 1_555
C226 C219 1_555 1_555
H177 C226 1_555 1_555
C227 H178 1_555 1_555
C228 C225 1_555 1_555
H179 C228 1_555 1_555
C229 C220 1_555 1_555
C230 H180 1_555 1_555
C231 C230 1_555 1_555
H181 C231 1_555 1_555
C232 C221 1_555 1_555
H182 C232 1_555 1_555
C233 C228 1_555 1_555
H183 C233 1_555 1_555
C234 C227 1_555 1_555
C235 C227 1_555 1_555
H184 C235 1_555 1_555
C236 C223 1_555 1_555
N9 O17 1_555 1_555
O18 N9 1_555 1_555
O19 N9 1_555 1_555
N10 O20 1_555 1_555
O21 N10 1_555 1_555
O22 N10 1_555 1_555
C6 C18 1_555 1_555
C8 C12 1_555 1_555
C9 C16 1_555 1_555
C10 C17 1_555 1_555
C11 C13 1_555 1_555
C14 C15 1_555 1_555
C17 C18 1_555 1_555
C27 C75 1_555 1_555
C35 C46 1_555 1_555
C38 C93 1_555 1_555
C47 C52 1_555 1_555
C48 N3 1_555 1_555
C49 N4 1_555 1_555
C53 N1 1_555 1_555
C54 C59 1_555 1_555
C55 C60 1_555 1_555
C56 N7 1_555 1_555
C58 N2 1_555 1_555
C64 C147 1_555 1_555
C64 C165 1_555 1_555
C65 N5 1_555 1_555
C68 N8 1_555 1_555
C70 N6 1_555 1_555
C71 C72 1_555 1_555
C73 C111 1_555 1_555
C73 C129 1_555 1_555
C74 C183 1_555 1_555
C74 C201 1_555 1_555
C76 O1 1_555 1_555
C78 O2 1_555 1_555
C81 C82 1_555 1_555
C87 C88 1_555 1_555
C88 C89 1_555 1_555
C89 C90 1_555 1_555
C91 C92 1_555 1_555
C94 O3 1_555 1_555
C96 O4 1_555 1_555
C99 C100 1_555 1_555
C105 C106 1_555 1_555
C106 C107 1_555 1_555
C107 C108 1_555 1_555
C109 C110 1_555 1_555
C112 O5 1_555 1_555
C114 O6 1_555 1_555
C117 C118 1_555 1_555
C123 C124 1_555 1_555
C124 C125 1_555 1_555
C125 C126 1_555 1_555
C127 C128 1_555 1_555
C130 O7 1_555 1_555
C132 O8 1_555 1_555
C135 C136 1_555 1_555
C141 C142 1_555 1_555
C142 C143 1_555 1_555
C143 C144 1_555 1_555
C145 C146 1_555 1_555
C148 O9 1_555 1_555
C150 O10 1_555 1_555
C153 C154 1_555 1_555
C159 C160 1_555 1_555
C160 C161 1_555 1_555
C161 C162 1_555 1_555
C163 C164 1_555 1_555
C166 O11 1_555 1_555
C168 O12 1_555 1_555
C171 C172 1_555 1_555
C177 C178 1_555 1_555
C178 C179 1_555 1_555
C179 C180 1_555 1_555
C181 C182 1_555 1_555
C184 O13 1_555 1_555
C186 O14 1_555 1_555
C189 C190 1_555 1_555
C195 C196 1_555 1_555
C196 C197 1_555 1_555
C197 C198 1_555 1_555
C199 C200 1_555 1_555
C202 O15 1_555 1_555
C204 O16 1_555 1_555
C207 C208 1_555 1_555
C213 C214 1_555 1_555
C214 C215 1_555 1_555
C215 C216 1_555 1_555
C217 C218 1_555 1_555
N2 Pd2 1_555 1_555
N3 Pd2 1_555 1_555
N4 Pd2 1_555 1_555
N6 Pd1 1_555 1_555
N7 Pd1 1_555 1_555
N8 Pd1 1_555 1_555
C222 C229 1_555 1_555
C224 C226 1_555 1_555
C229 C234 1_555 1_555
C230 C235 1_555 1_555
C231 C236 1_555 1_555
C232 C233 1_555 1_555
C234 C236 1_555 1_555

#END
