# generated using pymatgen
data_H184Pd2C236N10O43
_symmetry_space_group_name_H-M   'P 1'
_cell_length_a   18.86400000
_cell_length_b   22.73500000
_cell_length_c   24.44200000
_cell_angle_alpha   91.42900000
_cell_angle_beta   100.63800000
_cell_angle_gamma   95.16400000
_symmetry_Int_Tables_number   1
_chemical_formula_structural   H184Pd2C236N10O43
_chemical_formula_sum   'H368 Pd4 C472 N20 O86'
_cell_volume   10251.28741630
_cell_formula_units_Z   2
loop_
 _symmetry_equiv_pos_site_id
 _symmetry_equiv_pos_as_xyz
  1  'x, y, z'
loop_
 _atom_site_type_symbol
 _atom_site_label
 _atom_site_symmetry_multiplicity
 _atom_site_fract_x
 _atom_site_fract_y
 _atom_site_fract_z
 _atom_site_occupancy
  H  H1  1  0.862800  0.827000  0.662900  1
  H  H2  1  0.137200  0.173000  0.337100  1
  H  H3  1  0.979300  0.703900  0.792200  1
  H  H4  1  0.020700  0.296100  0.207800  1
  H  H5  1  0.847300  0.565600  0.852900  1
  H  H6  1  0.152700  0.434400  0.147100  1
  H  H7  1  0.641100  0.779300  0.582200  1
  H  H8  1  0.358900  0.220700  0.417800  1
  H  H9  1  0.582600  0.690100  0.592900  1
  H  H10  1  0.417400  0.309900  0.407100  1
  H  H11  1  0.911800  0.639600  0.821800  1
  H  H12  1  0.088200  0.360400  0.178200  1
  H  H13  1  0.681200  0.585200  0.729100  1
  H  H14  1  0.318800  0.414800  0.270900  1
  H  H15  1  0.759400  0.803800  0.615600  1
  H  H16  1  0.240600  0.196200  0.384400  1
  H  H17  1  0.724800  0.535700  0.803200  1
  H  H18  1  0.275200  0.464300  0.196800  1
  H  H19  1  0.033800  0.799600  0.773200  1
  H  H20  1  0.966200  0.200400  0.226800  1
  H  H21  1  0.979700  0.853900  0.712100  1
  H  H22  1  0.020300  0.146100  0.287900  1
  H  H23  1  0.639200  0.630600  0.659300  1
  H  H24  1  0.360800  0.369400  0.340700  1
  H  H25  1  0.937300  0.980200  0.671300  1
  H  H26  1  0.062700  0.019800  0.328700  1
  H  H27  1  0.850300  0.050500  0.018600  1
  H  H28  1  0.149700  0.949500  0.981400  1
  H  H29  1  0.113300  0.136600  0.671700  1
  H  H30  1  0.886700  0.863400  0.328300  1
  H  H31  1  0.582000  0.550400  0.796900  1
  H  H32  1  0.418000  0.449600  0.203100  1
  H  H33  1  0.885100  0.717800  0.399100  1
  H  H34  1  0.114900  0.282200  0.600900  1
  H  H35  1  0.511400  0.825600  0.565500  1
  H  H36  1  0.488600  0.174400  0.434500  1
  H  H37  1  0.680200  0.500900  0.445000  1
  H  H38  1  0.319800  0.499100  0.555000  1
  H  H39  1  0.344700  0.881700  0.815500  1
  H  H40  1  0.655300  0.118300  0.184500  1
  H  H41  1  0.899500  0.483300  0.570300  1
  H  H42  1  0.100500  0.516700  0.429700  1
  H  H43  1  0.384500  0.881800  0.909900  1
  H  H44  1  0.615500  0.118200  0.090100  1
  H  H45  1  0.654700  0.826900  0.089700  1
  H  H46  1  0.345300  0.173100  0.910300  1
  H  H47  1  0.550600  0.889300  0.798000  1
  H  H48  1  0.449400  0.110700  0.202000  1
  H  H49  1  0.606700  0.788000  0.903100  1
  H  H50  1  0.393300  0.212000  0.096900  1
  H  H51  1  0.760000  0.686000  0.541300  1
  H  H52  1  0.240000  0.314000  0.458700  1
  H  H53  1  0.153200  0.641500  0.598400  1
  H  H54  1  0.846800  0.358500  0.401600  1
  H  H55  1  0.733500  0.025000  0.969700  1
  H  H56  1  0.266500  0.975000  0.030300  1
  H  H57  1  0.780400  0.761000  0.399400  1
  H  H58  1  0.219600  0.239000  0.600600  1
  H  H59  1  0.671600  0.897900  0.030700  1
  H  H60  1  0.328400  0.102100  0.969300  1
  H  H61  1  0.784300  0.865600  0.932100  1
  H  H62  1  0.215700  0.134400  0.067900  1
  H  H63  1  0.010900  0.694800  0.914600  1
  H  H64  1  0.989100  0.305200  0.085400  1
  H  H65  1  0.734700  0.972500  0.828700  1
  H  H66  1  0.265300  0.027500  0.171300  1
  H  H67  1  0.623700  0.730200  0.056600  1
  H  H68  1  0.376300  0.269800  0.943400  1
  H  H69  1  0.560000  0.020100  0.875900  1
  H  H70  1  0.440000  0.979900  0.124100  1
  H  H71  1  0.661600  0.127200  0.784200  1
  H  H72  1  0.338400  0.872800  0.215800  1
  H  H73  1  0.931600  0.666000  0.476100  1
  H  H74  1  0.068400  0.334000  0.523900  1
  H  H75  1  0.505700  0.901000  0.945700  1
  H  H76  1  0.494300  0.099000  0.054300  1
  H  H77  1  0.568500  0.103200  0.829900  1
  H  H78  1  0.431500  0.896800  0.170100  1
  H  H79  1  0.936600  0.984800  0.021100  1
  H  H80  1  0.063400  0.015200  0.978900  1
  H  H81  1  0.160300  0.740600  0.598500  1
  H  H82  1  0.839700  0.259400  0.401500  1
  H  H83  1  0.792800  0.551000  0.471200  1
  H  H84  1  0.207200  0.449000  0.528800  1
  H  H85  1  0.440600  0.389800  0.835300  1
  H  H86  1  0.559400  0.610200  0.164700  1
  H  H87  1  0.942600  0.602600  0.692700  1
  H  H88  1  0.057400  0.397400  0.307300  1
  H  H89  1  0.613700  0.468100  0.511800  1
  H  H90  1  0.386300  0.531900  0.488200  1
  H  H91  1  0.037800  0.589800  0.578300  1
  H  H92  1  0.962200  0.410200  0.421700  1
  H  H93  1  0.762300  0.562300  0.627400  1
  H  H94  1  0.237700  0.437700  0.372600  1
  H  H95  1  0.946500  0.732800  0.610700  1
  H  H96  1  0.053500  0.267200  0.389300  1
  H  H97  1  0.008000  0.439300  0.719100  1
  H  H98  1  0.992000  0.560700  0.280900  1
  H  H99  1  0.939000  0.412500  0.633300  1
  H  H100  1  0.061000  0.587500  0.366700  1
  H  H101  1  0.305900  0.810700  0.431400  1
  H  H102  1  0.694100  0.189300  0.568600  1
  H  H103  1  0.186300  0.655000  0.061000  1
  H  H104  1  0.813700  0.345000  0.939000  1
  H  H105  1  0.081600  0.226500  0.705100  1
  H  H106  1  0.918400  0.773500  0.294900  1
  H  H107  1  0.109900  0.185900  0.754200  1
  H  H108  1  0.890100  0.814100  0.245800  1
  H  H109  1  0.028300  0.227200  0.805800  1
  H  H110  1  0.971700  0.772800  0.194200  1
  H  H111  1  0.091600  0.273300  0.796100  1
  H  H112  1  0.908400  0.726700  0.203900  1
  H  H113  1  0.954100  0.357500  0.764200  1
  H  H114  1  0.045900  0.642500  0.235800  1
  H  H115  1  0.028500  0.352100  0.803700  1
  H  H116  1  0.971500  0.647900  0.196300  1
  H  H117  1  0.958500  0.314300  0.813400  1
  H  H118  1  0.041500  0.685700  0.186600  1
  H  H119  1  0.034000  0.082500  0.891800  1
  H  H120  1  0.966000  0.917500  0.108200  1
  H  H121  1  0.018300  0.071100  0.798500  1
  H  H122  1  0.981700  0.928900  0.201500  1
  H  H123  1  0.852300  0.071300  0.610500  1
  H  H124  1  0.147700  0.928700  0.389500  1
  H  H125  1  0.739900  0.072100  0.560800  1
  H  H126  1  0.260100  0.927900  0.439200  1
  H  H127  1  0.639900  0.056800  0.603500  1
  H  H128  1  0.360100  0.943200  0.396500  1
  H  H129  1  0.654100  0.059100  0.696600  1
  H  H130  1  0.345900  0.940900  0.303400  1
  H  H131  1  0.820700  0.072900  0.885000  1
  H  H132  1  0.179300  0.927100  0.115000  1
  H  H133  1  0.933800  0.083500  0.935500  1
  H  H134  1  0.066200  0.916500  0.064500  1
  H  H135  1  0.221400  0.088200  0.689700  1
  H  H136  1  0.778600  0.911800  0.310300  1
  H  H137  1  0.208600  0.112400  0.629300  1
  H  H138  1  0.791400  0.887600  0.370700  1
  H  H139  1  0.266800  0.031700  0.599900  1
  H  H140  1  0.733200  0.968300  0.400100  1
  H  H141  1  0.319500  0.075800  0.642500  1
  H  H142  1  0.680500  0.924200  0.357500  1
  H  H143  1  0.300900  0.936900  0.621400  1
  H  H144  1  0.699100  0.063100  0.378600  1
  H  H145  1  0.220700  0.943000  0.627700  1
  H  H146  1  0.779300  0.057000  0.372300  1
  H  H147  1  0.273400  0.914600  0.674700  1
  H  H148  1  0.726600  0.085400  0.325300  1
  H  H149  1  0.204500  0.922500  0.796200  1
  H  H150  1  0.795500  0.077500  0.203800  1
  H  H151  1  0.129000  0.973300  0.737200  1
  H  H152  1  0.871000  0.026700  0.262800  1
  H  H153  1  0.963700  0.983200  0.550700  1
  H  H154  1  0.036300  0.016800  0.449300  1
  H  H155  1  0.907000  0.939000  0.469500  1
  H  H156  1  0.093000  0.061000  0.530500  1
  H  H157  1  0.916100  0.839700  0.450700  1
  H  H158  1  0.083900  0.160300  0.549300  1
  H  H159  1  0.981000  0.786000  0.513300  1
  H  H160  1  0.019000  0.214000  0.486700  1
  H  H161  1  0.154100  0.777300  0.697200  1
  H  H162  1  0.845900  0.222700  0.302800  1
  H  H163  1  0.211600  0.822000  0.778400  1
  H  H164  1  0.788400  0.178000  0.221600  1
  H  H165  1  0.208400  0.786800  0.540200  1
  H  H166  1  0.791600  0.213200  0.459800  1
  H  H167  1  0.242600  0.773400  0.487800  1
  H  H168  1  0.757400  0.226600  0.512200  1
  H  H169  1  0.181100  0.851400  0.442700  1
  H  H170  1  0.818900  0.148600  0.557300  1
  H  H171  1  0.127900  0.797800  0.454200  1
  H  H172  1  0.872100  0.202200  0.545800  1
  H  H173  1  0.217700  0.923600  0.509500  1
  H  H174  1  0.782300  0.076400  0.490500  1
  H  H175  1  0.164300  0.941700  0.547700  1
  H  H176  1  0.835700  0.058300  0.452300  1
  H  H177  1  0.145800  0.950000  0.483300  1
  H  H178  1  0.854200  0.050000  0.516700  1
  H  H179  1  0.496300  0.039900  0.606400  1
  H  H180  1  0.503700  0.960100  0.393600  1
  H  H181  1  0.461400  0.948000  0.568600  1
  H  H182  1  0.538600  0.052000  0.431400  1
  H  H183  1  0.343400  0.742800  0.587300  1
  H  H184  1  0.656600  0.257200  0.412700  1
  H  H185  1  0.297800  0.675800  0.640300  1
  H  H186  1  0.702200  0.324200  0.359700  1
  H  H187  1  0.313400  0.692500  0.736000  1
  H  H188  1  0.686600  0.307500  0.264000  1
  H  H189  1  0.364800  0.779400  0.776200  1
  H  H190  1  0.635200  0.220600  0.223800  1
  H  H191  1  0.478600  0.986300  0.757200  1
  H  H192  1  0.521400  0.013700  0.242800  1
  H  H193  1  0.518800  0.055600  0.703300  1
  H  H194  1  0.481200  0.944400  0.296700  1
  H  H195  1  0.328400  0.808000  0.342900  1
  H  H196  1  0.671600  0.192000  0.657100  1
  H  H197  1  0.321300  0.745800  0.369500  1
  H  H198  1  0.678700  0.254200  0.630500  1
  H  H199  1  0.407200  0.717400  0.312600  1
  H  H200  1  0.592800  0.282600  0.687400  1
  H  H201  1  0.327600  0.721700  0.281000  1
  H  H202  1  0.672400  0.278300  0.719000  1
  H  H203  1  0.359200  0.755800  0.191300  1
  H  H204  1  0.640800  0.244200  0.808700  1
  H  H205  1  0.426800  0.726100  0.221500  1
  H  H206  1  0.573200  0.273900  0.778500  1
  H  H207  1  0.436600  0.790000  0.199500  1
  H  H208  1  0.563400  0.210000  0.800500  1
  H  H209  1  0.661700  0.969200  0.510400  1
  H  H210  1  0.338300  0.030800  0.489600  1
  H  H211  1  0.560600  0.906100  0.489700  1
  H  H212  1  0.439400  0.093900  0.510300  1
  H  H213  1  0.445100  0.695500  0.455700  1
  H  H214  1  0.554900  0.304500  0.544300  1
  H  H215  1  0.455100  0.601100  0.432400  1
  H  H216  1  0.544900  0.398900  0.567600  1
  H  H217  1  0.565500  0.570300  0.421500  1
  H  H218  1  0.434500  0.429700  0.578500  1
  H  H219  1  0.666667  0.633100  0.440000  1
  H  H220  1  0.333333  0.366900  0.560000  1
  H  H221  1  0.785600  0.840500  0.490600  1
  H  H222  1  0.214400  0.159500  0.509400  1
  H  H223  1  0.775500  0.935300  0.513600  1
  H  H224  1  0.224500  0.064700  0.486400  1
  H  H225  1  0.386000  0.447200  0.962100  1
  H  H226  1  0.614000  0.552800  0.037900  1
  H  H227  1  0.410900  0.398400  0.925100  1
  H  H228  1  0.589100  0.601600  0.074900  1
  H  H229  1  0.336600  0.443600  0.846800  1
  H  H230  1  0.663400  0.556400  0.153200  1
  H  H231  1  0.296400  0.400900  0.883200  1
  H  H232  1  0.703600  0.599100  0.116800  1
  H  H233  1  0.212900  0.512000  0.838100  1
  H  H234  1  0.787100  0.488000  0.161900  1
  H  H235  1  0.180600  0.485900  0.888000  1
  H  H236  1  0.819400  0.514100  0.112000  1
  H  H237  1  0.204100  0.443500  0.844500  1
  H  H238  1  0.795900  0.556500  0.155500  1
  H  H239  1  0.325900  0.638100  0.840900  1
  H  H240  1  0.674100  0.361900  0.159100  1
  H  H241  1  0.406100  0.570600  0.841800  1
  H  H242  1  0.593900  0.429400  0.158200  1
  H  H243  1  0.659100  0.511300  0.904300  1
  H  H244  1  0.340900  0.488700  0.095700  1
  H  H245  1  0.771300  0.532200  0.953600  1
  H  H246  1  0.228700  0.467800  0.046400  1
  H  H247  1  0.806000  0.623300  0.000200  1
  H  H248  1  0.194000  0.376700  0.999800  1
  H  H249  1  0.725800  0.689800  0.002100  1
  H  H250  1  0.274200  0.310200  0.997900  1
  H  H251  1  0.473600  0.750800  0.937300  1
  H  H252  1  0.526400  0.249200  0.062700  1
  H  H253  1  0.359800  0.729000  0.889900  1
  H  H254  1  0.640200  0.271000  0.110100  1
  H  H255  1  0.387600  0.380200  0.706300  1
  H  H256  1  0.612400  0.619800  0.293700  1
  H  H257  1  0.391100  0.339900  0.757800  1
  H  H258  1  0.608900  0.660100  0.242200  1
  H  H259  1  0.363600  0.290500  0.664700  1
  H  H260  1  0.636400  0.709500  0.335300  1
  H  H261  1  0.447200  0.302500  0.665700  1
  H  H262  1  0.552800  0.697500  0.334300  1
  H  H263  1  0.451000  0.201400  0.660000  1
  H  H264  1  0.549000  0.798600  0.340000  1
  H  H265  1  0.372200  0.182600  0.669300  1
  H  H266  1  0.627800  0.817400  0.330700  1
  H  H267  1  0.439000  0.163400  0.710800  1
  H  H268  1  0.561000  0.836600  0.289200  1
  H  H269  1  0.400100  0.582100  0.632900  1
  H  H270  1  0.599900  0.417900  0.367100  1
  H  H271  1  0.447100  0.524300  0.700900  1
  H  H272  1  0.552900  0.475700  0.299100  1
  H  H273  1  0.650600  0.405800  0.786800  1
  H  H274  1  0.349400  0.594200  0.213200  1
  H  H275  1  0.755700  0.369200  0.782000  1
  H  H276  1  0.244300  0.630800  0.218000  1
  H  H277  1  0.807400  0.380800  0.703400  1
  H  H278  1  0.192600  0.619200  0.296600  1
  H  H279  1  0.757600  0.434200  0.633200  1
  H  H280  1  0.242400  0.565800  0.366800  1
  H  H281  1  0.564400  0.565500  0.554000  1
  H  H282  1  0.435600  0.434500  0.446000  1
  H  H283  1  0.461400  0.605900  0.560500  1
  H  H284  1  0.538600  0.394100  0.439500  1
  H  H285  1  0.217800  0.736300  0.122500  1
  H  H286  1  0.782200  0.263700  0.877500  1
  H  H287  1  0.155600  0.691600  0.136200  1
  H  H288  1  0.844400  0.308400  0.863800  1
  H  H289  1  0.193500  0.808200  0.177900  1
  H  H290  1  0.806500  0.191800  0.822100  1
  H  H291  1  0.112800  0.781800  0.174300  1
  H  H292  1  0.887200  0.218200  0.825700  1
  H  H293  1  0.123500  0.785200  0.270500  1
  H  H294  1  0.876500  0.214800  0.729500  1
  H  H295  1  0.204300  0.812500  0.278800  1
  H  H296  1  0.795700  0.187500  0.721200  1
  H  H297  1  0.184800  0.753900  0.307500  1
  H  H298  1  0.815200  0.246100  0.692500  1
  H  H299  1  0.876100  0.686800  0.101000  1
  H  H300  1  0.123900  0.313200  0.899000  1
  H  H301  1  0.968500  0.691600  0.054200  1
  H  H302  1  0.031500  0.308400  0.945800  1
  H  H303  1  0.114300  0.803000  0.929400  1
  H  H304  1  0.885700  0.197000  0.070600  1
  H  H305  1  0.122400  0.875500  0.869900  1
  H  H306  1  0.877600  0.124500  0.130100  1
  H  H307  1  0.038000  0.944500  0.857500  1
  H  H308  1  0.962000  0.055500  0.142500  1
  H  H309  1  0.957000  0.948100  0.914000  1
  H  H310  1  0.043000  0.051900  0.086000  1
  H  H311  1  0.823700  0.845400  0.052100  1
  H  H312  1  0.176300  0.154600  0.947900  1
  H  H313  1  0.806600  0.766300  0.103400  1
  H  H314  1  0.193400  0.233700  0.896600  1
  H  H315  1  0.225300  0.566200  0.929800  1
  H  H316  1  0.774700  0.433800  0.070200  1
  H  H317  1  0.246000  0.538900  0.987500  1
  H  H318  1  0.754000  0.461100  0.012500  1
  H  H319  1  0.312700  0.631000  0.952800  1
  H  H320  1  0.687300  0.369000  0.047200  1
  H  H321  1  0.274500  0.656600  0.998800  1
  H  H322  1  0.725500  0.343400  0.001200  1
  H  H323  1  0.399900  0.678200  0.053400  1
  H  H324  1  0.600100  0.321800  0.946600  1
  H  H325  1  0.406600  0.629900  0.098400  1
  H  H326  1  0.593400  0.370100  0.901600  1
  H  H327  1  0.335200  0.661400  0.084000  1
  H  H328  1  0.664800  0.338600  0.916000  1
  H  H329  1  0.915600  0.468700  0.947200  1
  H  H330  1  0.084400  0.531300  0.052800  1
  H  H331  1  0.000500  0.546400  0.958800  1
  H  H332  1  0.999500  0.453600  0.041200  1
  H  H333  1  0.167500  0.690800  0.877200  1
  H  H334  1  0.832500  0.309200  0.122800  1
  H  H335  1  0.214600  0.720600  0.803600  1
  H  H336  1  0.785400  0.279400  0.196400  1
  H  H337  1  0.178900  0.670900  0.717600  1
  H  H338  1  0.821100  0.329100  0.282400  1
  H  H339  1  0.097200  0.591600  0.706400  1
  H  H340  1  0.902800  0.408400  0.293600  1
  H  H341  1  0.911900  0.459500  0.783900  1
  H  H342  1  0.088100  0.540500  0.216100  1
  H  H343  1  0.874100  0.422600  0.859200  1
  H  H344  1  0.125900  0.577400  0.140800  1
  H  H345  1  0.617000  0.668000  0.824400  1
  H  H346  1  0.383000  0.332000  0.175600  1
  H  H347  1  0.526900  0.777600  0.680600  1
  H  H348  1  0.473100  0.222400  0.319400  1
  H  H349  1  0.466000  0.694000  0.698300  1
  H  H350  1  0.534000  0.306000  0.301700  1
  H  H351  1  0.865200  0.846800  0.818500  1
  H  H352  1  0.134800  0.153200  0.181500  1
  H  H353  1  0.506600  0.640500  0.771700  1
  H  H354  1  0.493400  0.359500  0.228300  1
  H  H355  1  0.579100  0.861600  0.671400  1
  H  H356  1  0.420900  0.138400  0.328600  1
  H  H357  1  0.909800  0.785800  0.884000  1
  H  H358  1  0.090200  0.214200  0.116000  1
  H  H359  1  0.762300  0.949100  0.673500  1
  H  H360  1  0.237700  0.050900  0.326500  1
  H  H361  1  0.819800  0.903700  0.757600  1
  H  H362  1  0.180200  0.096300  0.242400  1
  H  H363  1  0.719100  0.690000  0.874200  1
  H  H364  1  0.280900  0.310000  0.125800  1
  H  H365  1  0.840300  0.712300  0.918000  1
  H  H366  1  0.159700  0.287700  0.082000  1
  H  H367  1  0.649500  0.930600  0.637300  1
  H  H368  1  0.350500  0.069400  0.362700  1
  Pd  Pd369  1  0.884320  0.611190  0.573830  1
  Pd  Pd370  1  0.115680  0.388810  0.426170  1
  Pd  Pd371  1  0.644780  0.918560  0.908370  1
  Pd  Pd372  1  0.355220  0.081440  0.091630  1
  C  C373  1  0.765800  0.646200  0.727400  1
  C  C374  1  0.234200  0.353800  0.272600  1
  C  C375  1  0.884200  0.801900  0.689100  1
  C  C376  1  0.115800  0.198100  0.310900  1
  C  C377  1  0.774600  0.734700  0.668800  1
  C  C378  1  0.225400  0.265300  0.331200  1
  C  C379  1  0.846500  0.749800  0.698200  1
  C  C380  1  0.153500  0.250200  0.301800  1
  C  C381  1  0.737900  0.682100  0.684100  1
  C  C382  1  0.262100  0.317900  0.315900  1
  C  C383  1  0.955100  0.729300  0.767700  1
  C  C384  1  0.044900  0.270700  0.232300  1
  C  C385  1  0.827300  0.585000  0.821500  1
  C  C386  1  0.172700  0.415000  0.178500  1
  C  C387  1  0.666100  0.752900  0.605000  1
  C  C388  1  0.333900  0.247100  0.395000  1
  C  C389  1  0.628900  0.701300  0.612900  1
  C  C390  1  0.371100  0.298700  0.387100  1
  C  C391  1  0.864700  0.629100  0.802800  1
  C  C392  1  0.135300  0.370900  0.197200  1
  C  C393  1  0.727900  0.597100  0.748100  1
  C  C394  1  0.272100  0.402900  0.251900  1
  C  C395  1  0.736200  0.769800  0.627100  1
  C  C396  1  0.263800  0.230200  0.372900  1
  C  C397  1  0.752900  0.567000  0.791700  1
  C  C398  1  0.247100  0.433000  0.208300  1
  C  C399  1  0.987400  0.786300  0.754400  1
  C  C400  1  0.012600  0.213700  0.245600  1
  C  C401  1  0.955800  0.818100  0.719200  1
  C  C402  1  0.044200  0.181900  0.280800  1
  C  C403  1  0.663700  0.666200  0.652300  1
  C  C404  1  0.336300  0.333800  0.347700  1
  C  C405  1  0.839600  0.661400  0.756700  1
  C  C406  1  0.160400  0.338600  0.243300  1
  C  C407  1  0.877600  0.715800  0.737300  1
  C  C408  1  0.122400  0.284200  0.262700  1
  C  C409  1  0.972900  0.011500  0.672400  1
  C  C410  1  0.027100  0.988500  0.327600  1
  C  C411  1  0.539900  0.469400  0.767800  1
  C  C412  1  0.460100  0.530600  0.232200  1
  C  C413  1  0.837900  0.013200  0.001200  1
  C  C414  1  0.162100  0.986800  0.998800  1
  C  C415  1  0.710900  0.052100  0.800800  1
  C  C416  1  0.289100  0.947900  0.199200  1
  C  C417  1  0.058100  0.752100  0.607200  1
  C  C418  1  0.941900  0.247900  0.392800  1
  C  C419  1  0.079400  0.104600  0.673200  1
  C  C420  1  0.920600  0.895400  0.326800  1
  C  C421  1  0.477300  0.807500  0.484900  1
  C  C422  1  0.522700  0.192500  0.515100  1
  C  C423  1  0.553000  0.517800  0.805300  1
  C  C424  1  0.447000  0.482200  0.194700  1
  C  C425  1  0.960400  0.065100  0.693400  1
  C  C426  1  0.039600  0.934900  0.306600  1
  C  C427  1  0.860300  0.712900  0.428400  1
  C  C428  1  0.139700  0.287100  0.571600  1
  C  C429  1  0.469700  0.823800  0.538300  1
  C  C430  1  0.530300  0.176200  0.461700  1
  C  C431  1  0.444200  0.882600  0.791100  1
  C  C432  1  0.555800  0.117400  0.208900  1
  C  C433  1  0.680700  0.512900  0.579200  1
  C  C434  1  0.319300  0.487100  0.420800  1
  C  C435  1  0.698000  0.511000  0.482500  1
  C  C436  1  0.302000  0.489000  0.517500  1
  C  C437  1  0.394100  0.883300  0.829700  1
  C  C438  1  0.605900  0.116700  0.170300  1
  C  C439  1  0.916900  0.494100  0.607700  1
  C  C440  1  0.083100  0.505900  0.392300  1
  C  C441  1  0.757000  0.726000  0.470300  1
  C  C442  1  0.243000  0.274000  0.529700  1
  C  C443  1  0.417600  0.886200  0.886100  1
  C  C444  1  0.582400  0.113800  0.113900  1
  C  C445  1  0.056600  0.726600  0.990800  1
  C  C446  1  0.943400  0.273400  0.009200  1
  C  C447  1  0.035600  0.000500  0.652300  1
  C  C448  1  0.964400  0.999500  0.347700  1
  C  C449  1  0.646700  0.817700  0.051600  1
  C  C450  1  0.353300  0.182300  0.948400  1
  C  C451  1  0.515700  0.890100  0.820300  1
  C  C452  1  0.484300  0.109900  0.179700  1
  C  C453  1  0.618000  0.795900  0.941400  1
  C  C454  1  0.382000  0.204100  0.058600  1
  C  C455  1  0.785700  0.693200  0.512700  1
  C  C456  1  0.214300  0.306800  0.487300  1
  C  C457  1  0.981800  0.525500  0.718700  1
  C  C458  1  0.018200  0.474500  0.281300  1
  C  C459  1  0.111600  0.661200  0.595900  1
  C  C460  1  0.888400  0.338800  0.404100  1
  C  C461  1  0.767800  0.997800  0.972200  1
  C  C462  1  0.232200  0.002200  0.027800  1
  C  C463  1  0.797400  0.736900  0.428100  1
  C  C464  1  0.202600  0.263100  0.571900  1
  C  C465  1  0.611300  0.748200  0.976000  1
  C  C466  1  0.388700  0.251800  0.024000  1
  C  C467  1  0.654700  0.860000  0.016300  1
  C  C468  1  0.345300  0.140000  0.983700  1
  C  C469  1  0.797800  0.902200  0.950700  1
  C  C470  1  0.202200  0.097800  0.049300  1
  C  C471  1  0.046500  0.687400  0.944700  1
  C  C472  1  0.953500  0.312600  0.055300  1
  C  C473  1  0.702200  0.000700  0.830000  1
  C  C474  1  0.297800  0.999300  0.170000  1
  C  C475  1  0.626700  0.760400  0.031900  1
  C  C476  1  0.373300  0.239600  0.968100  1
  C  C477  1  0.598900  0.028000  0.857800  1
  C  C478  1  0.401100  0.972000  0.142200  1
  C  C479  1  0.659000  0.091700  0.802100  1
  C  C480  1  0.341000  0.908300  0.197900  1
  C  C481  1  0.869300  0.913200  0.981500  1
  C  C482  1  0.130700  0.086800  0.018500  1
  C  C483  1  0.886800  0.680900  0.473900  1
  C  C484  1  0.113200  0.319100  0.526100  1
  C  C485  1  0.082700  0.640000  0.939000  1
  C  C486  1  0.917300  0.360000  0.061000  1
  C  C487  1  0.490700  0.895800  0.907300  1
  C  C488  1  0.509300  0.104200  0.092700  1
  C  C489  1  0.604000  0.077300  0.830200  1
  C  C490  1  0.396000  0.922700  0.169800  1
  C  C491  1  0.888900  0.973200  0.004200  1
  C  C492  1  0.111100  0.026800  0.995800  1
  C  C493  1  0.116100  0.719700  0.600200  1
  C  C494  1  0.883900  0.280300  0.399800  1
  C  C495  1  0.763400  0.542800  0.497300  1
  C  C496  1  0.236600  0.457200  0.502700  1
  C  C497  1  0.526200  0.521200  0.853600  1
  C  C498  1  0.473800  0.478800  0.146400  1
  C  C499  1  0.468800  0.423700  0.828800  1
  C  C500  1  0.531200  0.576300  0.171200  1
  C  C501  1  0.945300  0.564200  0.679700  1
  C  C502  1  0.054700  0.435800  0.320300  1
  C  C503  1  0.656300  0.492800  0.522300  1
  C  C504  1  0.343700  0.507200  0.477700  1
  C  C505  1  0.043300  0.630100  0.587600  1
  C  C506  1  0.956700  0.369900  0.412400  1
  C  C507  1  0.745700  0.548300  0.590800  1
  C  C508  1  0.254300  0.451700  0.409200  1
  C  C509  1  0.408600  0.837600  0.555600  1
  C  C510  1  0.591400  0.162400  0.444400  1
  C  C511  1  0.987500  0.715700  0.604500  1
  C  C512  1  0.012500  0.284300  0.395500  1
  C  C513  1  0.982900  0.466700  0.697700  1
  C  C514  1  0.017100  0.533300  0.302300  1
  C  C515  1  0.945700  0.452100  0.645100  1
  C  C516  1  0.054300  0.547900  0.354900  1
  C  C517  1  0.348800  0.816300  0.457500  1
  C  C518  1  0.651200  0.183700  0.542500  1
  C  C519  1  0.151200  0.664300  0.031300  1
  C  C520  1  0.848800  0.335700  0.968700  1
  C  C521  1  0.017200  0.112400  0.695000  1
  C  C522  1  0.982800  0.887600  0.305000  1
  C  C523  1  0.068900  0.206100  0.736800  1
  C  C524  1  0.931100  0.793900  0.263200  1
  C  C525  1  0.048700  0.248700  0.777600  1
  C  C526  1  0.951300  0.751300  0.222400  1
  C  C527  1  0.983600  0.330900  0.785700  1
  C  C528  1  0.016400  0.669100  0.214300  1
  C  C529  1  0.987400  0.078900  0.870500  1
  C  C530  1  0.012600  0.921100  0.129500  1
  C  C531  1  0.977900  0.073400  0.814900  1
  C  C532  1  0.022100  0.926600  0.185100  1
  C  C533  1  0.907900  0.070800  0.779800  1
  C  C534  1  0.092100  0.929200  0.220200  1
  C  C535  1  0.897600  0.068900  0.721400  1
  C  C536  1  0.102400  0.931100  0.278600  1
  C  C537  1  0.827500  0.069200  0.689000  1
  C  C538  1  0.172500  0.930800  0.311000  1
  C  C539  1  0.813300  0.069900  0.629100  1
  C  C540  1  0.186700  0.930100  0.370900  1
  C  C541  1  0.746500  0.068500  0.599200  1
  C  C542  1  0.253500  0.931500  0.400800  1
  C  C543  1  0.686300  0.061500  0.625100  1
  C  C544  1  0.313700  0.938500  0.374900  1
  C  C545  1  0.695000  0.061600  0.680300  1
  C  C546  1  0.305000  0.938400  0.319700  1
  C  C547  1  0.765500  0.065300  0.716000  1
  C  C548  1  0.234500  0.934700  0.284000  1
  C  C549  1  0.775800  0.064000  0.774500  1
  C  C550  1  0.224200  0.936000  0.225500  1
  C  C551  1  0.845700  0.068300  0.806900  1
  C  C552  1  0.154300  0.931700  0.193100  1
  C  C553  1  0.859800  0.073600  0.866600  1
  C  C554  1  0.140200  0.926400  0.133400  1
  C  C555  1  0.926900  0.079300  0.896900  1
  C  C556  1  0.073100  0.920700  0.103100  1
  C  C557  1  0.090200  0.048800  0.653800  1
  C  C558  1  0.909800  0.951200  0.346200  1
  C  C559  1  0.214000  0.077000  0.650400  1
  C  C560  1  0.786000  0.923000  0.349600  1
  C  C561  1  0.277200  0.047300  0.638100  1
  C  C562  1  0.722800  0.952700  0.361900  1
  C  C563  1  0.269800  0.944300  0.647300  1
  C  C564  1  0.730200  0.055700  0.352700  1
  C  C565  1  0.177600  0.903700  0.763700  1
  C  C566  1  0.822400  0.096300  0.236300  1
  C  C567  1  0.133600  0.934100  0.728000  1
  C  C568  1  0.866400  0.065900  0.272000  1
  C  C569  1  0.093500  0.908000  0.676100  1
  C  C570  1  0.906500  0.092000  0.323900  1
  C  C571  1  0.047600  0.939300  0.638100  1
  C  C572  1  0.952400  0.060700  0.361900  1
  C  C573  1  0.010400  0.912000  0.587300  1
  C  C574  1  0.989600  0.088000  0.412700  1
  C  C575  1  0.967900  0.943300  0.544300  1
  C  C576  1  0.032100  0.056700  0.455700  1
  C  C577  1  0.934200  0.917300  0.495900  1
  C  C578  1  0.065800  0.082700  0.504100  1
  C  C579  1  0.939700  0.857500  0.484600  1
  C  C580  1  0.060300  0.142500  0.515400  1
  C  C581  1  0.978400  0.825700  0.522000  1
  C  C582  1  0.021600  0.174300  0.478000  1
  C  C583  1  0.016400  0.850400  0.575400  1
  C  C584  1  0.983600  0.149600  0.424600  1
  C  C585  1  0.059400  0.818100  0.615200  1
  C  C586  1  0.940600  0.181900  0.384800  1
  C  C587  1  0.101800  0.846900  0.663300  1
  C  C588  1  0.898200  0.153100  0.336700  1
  C  C589  1  0.148200  0.816800  0.704300  1
  C  C590  1  0.851800  0.183200  0.295700  1
  C  C591  1  0.183300  0.843400  0.752400  1
  C  C592  1  0.816700  0.156600  0.247600  1
  C  C593  1  0.349300  0.832700  0.508200  1
  C  C594  1  0.650700  0.167300  0.491800  1
  C  C595  1  0.224900  0.804200  0.508400  1
  C  C596  1  0.775100  0.195800  0.491600  1
  C  C597  1  0.163300  0.829500  0.471800  1
  C  C598  1  0.836700  0.170500  0.528200  1
  C  C599  1  0.167700  0.925400  0.511800  1
  C  C600  1  0.832300  0.074600  0.488200  1
  C  C601  1  0.486300  0.009200  0.629000  1
  C  C602  1  0.513700  0.990800  0.371000  1
  C  C603  1  0.462100  0.955300  0.606300  1
  C  C604  1  0.537900  0.044700  0.393700  1
  C  C605  1  0.437100  0.908300  0.638300  1
  C  C606  1  0.562900  0.091700  0.361700  1
  C  C607  1  0.408400  0.852400  0.614600  1
  C  C608  1  0.591600  0.147600  0.385400  1
  C  C609  1  0.380300  0.809200  0.647300  1
  C  C610  1  0.619700  0.190800  0.352700  1
  C  C611  1  0.347100  0.751800  0.625100  1
  C  C612  1  0.652900  0.248200  0.374900  1
  C  C613  1  0.321400  0.711300  0.656700  1
  C  C614  1  0.678600  0.288700  0.343300  1
  C  C615  1  0.329800  0.721800  0.714200  1
  C  C616  1  0.670200  0.278200  0.285800  1
  C  C617  1  0.361000  0.773300  0.737900  1
  C  C618  1  0.639000  0.226700  0.262100  1
  C  C619  1  0.389200  0.820000  0.706700  1
  C  C620  1  0.610800  0.180000  0.293300  1
  C  C621  1  0.423900  0.874500  0.731100  1
  C  C622  1  0.576100  0.125500  0.268900  1
  C  C623  1  0.447100  0.918900  0.697900  1
  C  C624  1  0.552900  0.081100  0.302100  1
  C  C625  1  0.475300  0.977400  0.719400  1
  C  C626  1  0.524700  0.022600  0.280600  1
  C  C627  1  0.496800  0.019400  0.687300  1
  C  C628  1  0.503200  0.980600  0.312700  1
  C  C629  1  0.412500  0.807800  0.443700  1
  C  C630  1  0.587500  0.192200  0.556300  1
  C  C631  1  0.352900  0.772900  0.352700  1
  C  C632  1  0.647100  0.227100  0.647300  1
  C  C633  1  0.370500  0.744300  0.301800  1
  C  C634  1  0.629500  0.255700  0.698200  1
  C  C635  1  0.405400  0.762800  0.215800  1
  C  C636  1  0.594600  0.237200  0.784200  1
  C  C637  1  0.665400  0.929400  0.502900  1
  C  C638  1  0.334600  0.070600  0.497100  1
  C  C639  1  0.605500  0.891600  0.491100  1
  C  C640  1  0.394500  0.108400  0.508900  1
  C  C641  1  0.608000  0.829500  0.480500  1
  C  C642  1  0.392000  0.170500  0.519500  1
  C  C643  1  0.546400  0.788700  0.473300  1
  C  C644  1  0.453600  0.211300  0.526700  1
  C  C645  1  0.551700  0.728500  0.461100  1
  C  C646  1  0.448300  0.271500  0.538900  1
  C  C647  1  0.490200  0.684300  0.451900  1
  C  C648  1  0.509800  0.315700  0.548100  1
  C  C649  1  0.496000  0.628200  0.438200  1
  C  C650  1  0.504000  0.371800  0.561800  1
  C  C651  1  0.562700  0.609400  0.432400  1
  C  C652  1  0.437300  0.390600  0.567600  1
  C  C653  1  0.622500  0.647100  0.442400  1
  C  C654  1  0.377500  0.352900  0.557600  1
  C  C655  1  0.621000  0.708800  0.456700  1
  C  C656  1  0.379000  0.291200  0.543300  1
  C  C657  1  0.683700  0.749300  0.467800  1
  C  C658  1  0.316300  0.250700  0.532200  1
  C  C659  1  0.678100  0.809300  0.479000  1
  C  C660  1  0.321900  0.190700  0.521000  1
  C  C661  1  0.739900  0.852400  0.491400  1
  C  C662  1  0.260100  0.147600  0.508600  1
  C  C663  1  0.734000  0.909100  0.504000  1
  C  C664  1  0.266000  0.090900  0.496000  1
  C  C665  1  0.478500  0.469600  0.867400  1
  C  C666  1  0.521500  0.530400  0.132600  1
  C  C667  1  0.394300  0.437600  0.925100  1
  C  C668  1  0.605700  0.562400  0.074900  1
  C  C669  1  0.325600  0.438400  0.883700  1
  C  C670  1  0.674400  0.561600  0.116300  1
  C  C671  1  0.215100  0.481200  0.864300  1
  C  C672  1  0.784900  0.518800  0.135700  1
  C  C673  1  0.373000  0.646600  0.860700  1
  C  C674  1  0.627000  0.353400  0.139300  1
  C  C675  1  0.421000  0.606700  0.861100  1
  C  C676  1  0.579000  0.393300  0.138900  1
  C  C677  1  0.494500  0.617500  0.890300  1
  C  C678  1  0.505500  0.382500  0.109700  1
  C  C679  1  0.545400  0.576200  0.890600  1
  C  C680  1  0.454600  0.423800  0.109400  1
  C  C681  1  0.615900  0.587800  0.922400  1
  C  C682  1  0.384100  0.412200  0.077600  1
  C  C683  1  0.670900  0.547400  0.924000  1
  C  C684  1  0.329100  0.452600  0.076000  1
  C  C685  1  0.737900  0.560000  0.952600  1
  C  C686  1  0.262100  0.440000  0.047400  1
  C  C687  1  0.758600  0.614600  0.981200  1
  C  C688  1  0.241400  0.385400  0.018800  1
  C  C689  1  0.711000  0.654400  0.981600  1
  C  C690  1  0.289000  0.345600  0.018400  1
  C  C691  1  0.637400  0.644600  0.951300  1
  C  C692  1  0.362600  0.355400  0.048700  1
  C  C693  1  0.586100  0.685900  0.951200  1
  C  C694  1  0.413900  0.314100  0.048800  1
  C  C695  1  0.515300  0.673600  0.920800  1
  C  C696  1  0.484700  0.326400  0.079200  1
  C  C697  1  0.461200  0.714200  0.918400  1
  C  C698  1  0.538800  0.285800  0.081600  1
  C  C699  1  0.393500  0.701500  0.890200  1
  C  C700  1  0.606500  0.298500  0.109800  1
  C  C701  1  0.498300  0.423800  0.780000  1
  C  C702  1  0.501700  0.576200  0.220000  1
  C  C703  1  0.414000  0.350300  0.726500  1
  C  C704  1  0.586000  0.649700  0.273500  1
  C  C705  1  0.410800  0.296700  0.688900  1
  C  C706  1  0.589200  0.703300  0.311100  1
  C  C707  1  0.421200  0.194300  0.687500  1
  C  C708  1  0.578800  0.805700  0.312500  1
  C  C709  1  0.444000  0.566900  0.631700  1
  C  C710  1  0.556000  0.433100  0.368300  1
  C  C711  1  0.472100  0.532500  0.672100  1
  C  C712  1  0.527900  0.467500  0.327900  1
  C  C713  1  0.539600  0.507800  0.672400  1
  C  C714  1  0.460400  0.492200  0.327600  1
  C  C715  1  0.571500  0.474000  0.715800  1
  C  C716  1  0.428500  0.526000  0.284200  1
  C  C717  1  0.635600  0.447800  0.712300  1
  C  C718  1  0.364400  0.552200  0.287700  1
  C  C719  1  0.671500  0.412800  0.755600  1
  C  C720  1  0.328500  0.587200  0.244400  1
  C  C721  1  0.733400  0.390300  0.752600  1
  C  C722  1  0.266600  0.609700  0.247400  1
  C  C723  1  0.765200  0.398100  0.705700  1
  C  C724  1  0.234800  0.601900  0.294300  1
  C  C725  1  0.735600  0.430200  0.664200  1
  C  C726  1  0.264400  0.569800  0.335800  1
  C  C727  1  0.670800  0.459000  0.665600  1
  C  C728  1  0.329200  0.541000  0.334400  1
  C  C729  1  0.639500  0.494300  0.622700  1
  C  C730  1  0.360500  0.505700  0.377300  1
  C  C731  1  0.574400  0.518400  0.625100  1
  C  C732  1  0.425600  0.481600  0.374900  1
  C  C733  1  0.541900  0.556800  0.584100  1
  C  C734  1  0.458100  0.443200  0.415900  1
  C  C735  1  0.480300  0.580400  0.587500  1
  C  C736  1  0.519700  0.419600  0.412500  1
  C  C737  1  0.111400  0.713100  0.033500  1
  C  C738  1  0.888600  0.286900  0.966500  1
  C  C739  1  0.168300  0.732500  0.128600  1
  C  C740  1  0.831700  0.267500  0.871400  1
  C  C741  1  0.162300  0.771800  0.177500  1
  C  C742  1  0.837700  0.228200  0.822500  1
  C  C743  1  0.173000  0.776300  0.274900  1
  C  C744  1  0.827000  0.223700  0.725100  1
  C  C745  1  0.885700  0.720300  0.081500  1
  C  C746  1  0.114300  0.279700  0.918500  1
  C  C747  1  0.940000  0.723000  0.053100  1
  C  C748  1  0.060000  0.277000  0.946900  1
  C  C749  1  0.955800  0.772800  0.021000  1
  C  C750  1  0.044200  0.227200  0.979000  1
  C  C751  1  0.013300  0.776800  0.991900  1
  C  C752  1  0.986700  0.223200  0.008100  1
  C  C753  1  0.024800  0.825700  0.959300  1
  C  C754  1  0.975200  0.174300  0.040700  1
  C  C755  1  0.080600  0.830800  0.926000  1
  C  C756  1  0.919400  0.169200  0.074000  1
  C  C757  1  0.085600  0.873800  0.890600  1
  C  C758  1  0.914400  0.126200  0.109400  1
  C  C759  1  0.036100  0.916400  0.884400  1
  C  C760  1  0.963900  0.083600  0.115600  1
  C  C761  1  0.986400  0.917200  0.916600  1
  C  C762  1  0.013600  0.082800  0.083400  1
  C  C763  1  0.976500  0.871700  0.955400  1
  C  C764  1  0.023500  0.128300  0.044600  1
  C  C765  1  0.919800  0.868500  0.985900  1
  C  C766  1  0.080200  0.131500  0.014100  1
  C  C767  1  0.910200  0.820700  0.020000  1
  C  C768  1  0.089800  0.179300  0.980000  1
  C  C769  1  0.853700  0.815200  0.052100  1
  C  C770  1  0.146300  0.184800  0.947900  1
  C  C771  1  0.842800  0.767800  0.082100  1
  C  C772  1  0.157200  0.232200  0.917900  1
  C  C773  1  0.134500  0.631500  0.982100  1
  C  C774  1  0.865500  0.368500  0.017900  1
  C  C775  1  0.230500  0.574300  0.969500  1
  C  C776  1  0.769500  0.425700  0.030500  1
  C  C777  1  0.292000  0.621200  0.985300  1
  C  C778  1  0.708000  0.378800  0.014700  1
  C  C779  1  0.374100  0.646500  0.069100  1
  C  C780  1  0.625900  0.353500  0.930900  1
  C  C781  1  0.933600  0.482900  0.916700  1
  C  C782  1  0.066400  0.517100  0.083300  1
  C  C783  1  0.983900  0.529300  0.923300  1
  C  C784  1  0.016100  0.470700  0.076700  1
  C  C785  1  0.013200  0.553400  0.877700  1
  C  C786  1  0.986800  0.446600  0.122300  1
  C  C787  1  0.065200  0.602400  0.884200  1
  C  C788  1  0.934800  0.397600  0.115800  1
  C  C789  1  0.093700  0.623500  0.838200  1
  C  C790  1  0.906300  0.376500  0.161800  1
  C  C791  1  0.150600  0.671300  0.842700  1
  C  C792  1  0.849400  0.328700  0.157300  1
  C  C793  1  0.179700  0.688400  0.799400  1
  C  C794  1  0.820300  0.311600  0.200600  1
  C  C795  1  0.158300  0.658400  0.747600  1
  C  C796  1  0.841700  0.341600  0.252400  1
  C  C797  1  0.108500  0.612100  0.740700  1
  C  C798  1  0.891500  0.387900  0.259300  1
  C  C799  1  0.071400  0.592700  0.784600  1
  C  C800  1  0.928600  0.407300  0.215400  1
  C  C801  1  0.014100  0.547000  0.777000  1
  C  C802  1  0.985900  0.453000  0.223000  1
  C  C803  1  0.987400  0.525000  0.823200  1
  C  C804  1  0.012600  0.475000  0.176800  1
  C  C805  1  0.931900  0.476700  0.818900  1
  C  C806  1  0.068100  0.523300  0.181100  1
  C  C807  1  0.907900  0.455600  0.863400  1
  C  C808  1  0.092100  0.544400  0.136600  1
  C  C809  1  0.599400  0.691500  0.795300  1
  C  C810  1  0.400600  0.308500  0.204700  1
  C  C811  1  0.643100  0.743700  0.786800  1
  C  C812  1  0.356900  0.256300  0.213200  1
  C  C813  1  0.715300  0.756100  0.819300  1
  C  C814  1  0.284700  0.243900  0.180700  1
  C  C815  1  0.546900  0.755800  0.710400  1
  C  C816  1  0.453100  0.244200  0.289600  1
  C  C817  1  0.760500  0.804100  0.801300  1
  C  C818  1  0.239500  0.195900  0.198700  1
  C  C819  1  0.510100  0.706400  0.721300  1
  C  C820  1  0.489900  0.293600  0.278700  1
  C  C821  1  0.835500  0.815500  0.828500  1
  C  C822  1  0.164500  0.184500  0.171500  1
  C  C823  1  0.534000  0.674200  0.763700  1
  C  C824  1  0.466000  0.325800  0.236300  1
  C  C825  1  0.628500  0.867400  0.685900  1
  C  C826  1  0.371500  0.132600  0.314100  1
  C  C827  1  0.860800  0.779700  0.868300  1
  C  C828  1  0.139200  0.220300  0.131700  1
  C  C829  1  0.616600  0.777100  0.742800  1
  C  C830  1  0.383400  0.222900  0.257200  1
  C  C831  1  0.735100  0.920500  0.689400  1
  C  C832  1  0.264900  0.079500  0.310600  1
  C  C833  1  0.772900  0.891400  0.739300  1
  C  C834  1  0.227100  0.108600  0.260700  1
  C  C835  1  0.746900  0.721500  0.862600  1
  C  C836  1  0.253100  0.278500  0.137400  1
  C  C837  1  0.819900  0.734000  0.888300  1
  C  C838  1  0.180100  0.266000  0.111700  1
  C  C839  1  0.661400  0.829700  0.730000  1
  C  C840  1  0.338600  0.170300  0.270000  1
  C  C841  1  0.669400  0.909100  0.667300  1
  C  C842  1  0.330600  0.090900  0.332700  1
  C  C843  1  0.728300  0.841500  0.756600  1
  C  C844  1  0.271700  0.158500  0.243400  1
  N  N845  1  0.649600  0.989300  0.859900  1
  N  N846  1  0.350400  0.010700  0.140100  1
  N  N847  1  0.542300  0.898100  0.874700  1
  N  N848  1  0.457700  0.101900  0.125300  1
  N  N849  1  0.639000  0.850400  0.958700  1
  N  N850  1  0.361000  0.149600  0.041300  1
  N  N851  1  0.748800  0.941500  0.946800  1
  N  N852  1  0.251200  0.058500  0.053200  1
  N  N853  1  0.915000  0.550700  0.627100  1
  N  N854  1  0.085000  0.449300  0.372900  1
  N  N855  1  0.985300  0.658500  0.593100  1
  N  N856  1  0.014700  0.341500  0.406900  1
  N  N857  1  0.848500  0.670600  0.515500  1
  N  N858  1  0.151500  0.329400  0.484500  1
  N  N859  1  0.785600  0.563300  0.553700  1
  N  N860  1  0.214400  0.436700  0.446300  1
  N  N861  1  0.812100  0.932700  0.150000  1
  N  N862  1  0.187900  0.067300  0.850000  1
  N  N863  1  0.737300  0.190100  0.071200  1
  N  N864  1  0.262700  0.809900  0.928800  1
  O  O865  1  0.004000  0.163500  0.719200  1
  O  O866  1  0.996000  0.836500  0.280800  1
  O  O867  1  0.997900  0.284400  0.749800  1
  O  O868  1  0.002100  0.715600  0.250200  1
  O  O869  1  0.150400  0.036200  0.635000  1
  O  O870  1  0.849600  0.963800  0.365000  1
  O  O871  1  0.291500  0.001300  0.674400  1
  O  O872  1  0.708500  0.998700  0.325600  1
  O  O873  1  0.280900  0.849400  0.526600  1
  O  O874  1  0.719100  0.150600  0.473400  1
  O  O875  1  0.130800  0.867100  0.503900  1
  O  O876  1  0.869200  0.132900  0.496100  1
  O  O877  1  0.420000  0.788700  0.391100  1
  O  O878  1  0.580000  0.211300  0.608900  1
  O  O879  1  0.395900  0.787300  0.268200  1
  O  O880  1  0.604100  0.212700  0.731800  1
  O  O881  1  0.447700  0.479600  0.910900  1
  O  O882  1  0.552300  0.520400  0.089100  1
  O  O883  1  0.286500  0.484300  0.897400  1
  O  O884  1  0.713500  0.515700  0.102600  1
  O  O885  1  0.484900  0.372700  0.745800  1
  O  O886  1  0.515100  0.627300  0.254200  1
  O  O887  1  0.423200  0.247200  0.721000  1
  O  O888  1  0.576800  0.752800  0.279000  1
  O  O889  1  0.121900  0.748300  0.081200  1
  O  O890  1  0.878100  0.251700  0.918800  1
  O  O891  1  0.182500  0.742600  0.226900  1
  O  O892  1  0.817500  0.257400  0.773100  1
  O  O893  1  0.170700  0.579400  0.978300  1
  O  O894  1  0.829300  0.420600  0.021700  1
  O  O895  1  0.345100  0.601800  0.026700  1
  O  O896  1  0.654900  0.398200  0.973300  1
  O  O897  1  0.840800  0.982100  0.138600  1
  O  O898  1  0.159200  0.017900  0.861400  1
  O  O899  1  0.759700  0.916700  0.120800  1
  O  O900  1  0.240300  0.083300  0.879200  1
  O  O901  1  0.837100  0.907600  0.190900  1
  O  O902  1  0.162900  0.092400  0.809100  1
  O  O903  1  0.748700  0.234300  0.046900  1
  O  O904  1  0.251300  0.765700  0.953100  1
  O  O905  1  0.742100  0.183900  0.120900  1
  O  O906  1  0.257900  0.816100  0.879100  1
  O  O907  1  0.725200  0.139300  0.044600  1
  O  O908  1  0.274800  0.860700  0.955400  1
  O  O909  1  0.749000  0.139000  0.940000  1
  O  O910  1  0.251000  0.861000  0.060000  1
  O  O911  1  0.300500  0.293500  0.839800  1
  O  O912  1  0.699500  0.706500  0.160200  1
  O  O913  1  0.130900  0.398700  0.699900  1
  O  O914  1  0.869100  0.601300  0.300100  1
  O  O915  1  0.010300  0.317700  0.645300  1
  O  O916  1  0.989700  0.682300  0.354700  1
  O  O917  1  0.052400  0.647800  0.460000  1
  O  O918  1  0.947600  0.352200  0.540000  1
  O  O919  1  0.709400  0.030400  0.090200  1
  O  O920  1  0.290600  0.969600  0.909800  1
  O  O921  1  0.777100  0.658700  0.283700  1
  O  O922  1  0.222900  0.341300  0.716300  1
  O  O923  1  0.770700  0.776700  0.300800  1
  O  O924  1  0.229300  0.223300  0.699200  1
  O  O925  1  0.716900  0.823400  0.202800  1
  O  O926  1  0.283100  0.176600  0.797200  1
  O  O927  1  0.567500  0.886200  0.169500  1
  O  O928  1  0.432500  0.113800  0.830500  1
  O  O929  1  0.495400  0.921100  0.045600  1
  O  O930  1  0.504600  0.078900  0.954400  1
  O  O931  1  0.599500  0.998600  0.998100  1
  O  O932  1  0.400500  0.001400  0.001900  1
  O  O933  1  0.752000  0.592500  0.366200  1
  O  O934  1  0.248000  0.407500  0.633800  1
  O  O935  1  0.958000  0.547800  0.479400  1
  O  O936  1  0.042000  0.452200  0.520600  1
  O  O937  1  0.869400  0.493100  0.393800  1
  O  O938  1  0.130600  0.506900  0.606200  1
  O  O939  1  0.759100  0.428700  0.390500  1
  O  O940  1  0.240900  0.571300  0.609500  1
  O  O941  1  0.799800  0.393100  0.509000  1
  O  O942  1  0.200200  0.606900  0.491000  1
  O  O943  1  0.588000  0.972800  0.128300  1
  O  O944  1  0.412000  0.027200  0.871700  1
  O  O945  1  0.714000  0.474000  0.280000  1
  O  O946  1  0.286000  0.526000  0.720000  1
  O  O947  1  0.419000  0.239800  0.833600  1
  O  O948  1  0.581000  0.760200  0.166400  1
  O  O949  1  0.717100  0.357600  0.507600  1
  O  O950  1  0.282900  0.642400  0.492400  1
