
#######################################################################
#
#                 Cambridge Crystallographic Data Centre
#                                CCDC 
#
#######################################################################
#
# If this CIF has been generated from an entry in the Cambridge 
# Structural Database, then it will include bibliographic, chemical, 
# crystal, experimental, refinement or atomic coordinate data resulting 
# from the CCDC's data processing and validation procedures.
#
#######################################################################

data_ZEXSAY
_chemical_formula_moiety         
'C200 H160 N8 O16 Pd2 4+,3(C14 H10),4(N1 O3 1-),C1 H4 O1,H2 O1'
_chemical_name_systematic        
"tetrakis(\m~2~-3,3'-((4,6-bis(2-methoxyethoxy)-1,3-phenylene)dianthracene-10,9-diyl)dipyridine)-di-palladium(ii) tetranitrate tris(phenanthrene) methanol solvate hydrate"
_symmetry_cell_setting           triclinic
_symmetry_space_group_name_H-M   'P -1'
_symmetry_Int_Tables_number      2
_space_group_name_Hall           '-P 1'
loop_
_symmetry_equiv_pos_site_id
_symmetry_equiv_pos_as_xyz
1 x,y,z
2 -x,-y,-z
_cell_length_a                   20.9670(19)
_cell_length_b                   20.9916(18)
_cell_length_c                   29.317(3)
_cell_angle_alpha                83.039(2)
_cell_angle_beta                 89.851(2)
_cell_angle_gamma                74.998(2)
_cell_volume                     12366.1
_exptl_crystal_colour            yellow
_exptl_crystal_description       plate
_cell_formula_units_Z            2
loop_
_atom_site_label
_atom_site_type_symbol
_atom_site_fract_x
_atom_site_fract_y
_atom_site_fract_z
O17 O 0.8838(17) 0.5360(16) 0.4623(11)
C201 C 0.8846(5) 0.8678(5) 0.9777(5)
C202 C 0.8347(6) 0.8352(6) 0.9808(5)
H161 H 0.8459 0.7908 0.9758
C203 C 0.7706(6) 0.8628(6) 0.9908(5)
H162 H 0.7386 0.8391 0.9926
C204 C 0.7562(6) 0.9322(6) 0.9983(5)
H163 H 0.7138 0.9538 1.0062
C205 C 0.8029(6) 0.9657(6) 0.9940(5)
H164 H 0.7927 1.0107 0.9975
C206 C 0.8666(5) 0.9318(5) 0.9844(5)
C207 C 0.9171(6) 0.9683(6) 0.9799(5)
H165 H 0.9065 1.0129 0.9843
C208 C 0.9810(6) 0.9367(5) 0.9690(5)
H166 H 1.0122 0.9611 0.9653
C209 C 0.9995(5) 0.8706(5) 0.9635(4)
C210 C 1.0657(6) 0.8404(6) 0.9559(5)
H167 H 1.0979 0.8637 0.9557
C211 C 1.0812(6) 0.7744(6) 0.9488(5)
H168 H 1.1248 0.7538 0.9429
C212 C 1.0384(6) 0.7394(6) 0.9498(5)
H169 H 1.0513 0.6953 0.9440
C213 C 0.9724(6) 0.7683(5) 0.9596(5)
H170 H 0.9415 0.7434 0.9611
C214 C 0.9539(5) 0.8343(5) 0.9668(4)
C215 C 0.2329(6) 0.6395(7) 0.2475(4)
C216 C 0.1661(5) 0.6719(6) 0.2441(4)
H171 H 0.1446 0.6800 0.2714
C217 C 0.1292(6) 0.6931(7) 0.2043(4)
H172 H 0.0849 0.7162 0.2035
C218 C 0.1653(7) 0.6763(7) 0.1628(4)
H173 H 0.1431 0.6874 0.1343
C219 C 0.2302(6) 0.6450(7) 0.1652(4)
H174 H 0.2531 0.6348 0.1387
C220 C 0.2622(6) 0.6285(7) 0.2080(4)
C221 C 0.3320(6) 0.5928(7) 0.2106(4)
H175 H 0.3534 0.5799 0.1841
C222 C 0.3666(6) 0.5779(7) 0.2524(4)
H176 H 0.4115 0.5568 0.2532
C223 C 0.3367(6) 0.5934(7) 0.2927(4)
C224 C 0.3749(6) 0.5802(8) 0.3334(4)
H177 H 0.4204 0.5627 0.3338
C225 C 0.3412(7) 0.5946(8) 0.3731(4)
H178 H 0.3655 0.5854 0.4007
C226 C 0.2784(7) 0.6199(8) 0.3744(4)
H179 H 0.2587 0.6282 0.4023
C227 C 0.2396(6) 0.6351(8) 0.3333(4)
H180 H 0.1944 0.6546 0.3335
C228 C 0.2704(6) 0.6204(7) 0.2927(4)
C229 C 0.3193(6) 0.7751(8) 0.2496(4)
C230 C 0.3864(6) 0.7472(7) 0.2493(4)
H181 H 0.4092 0.7377 0.2775
C231 C 0.4226(6) 0.7323(7) 0.2116(5)
H182 H 0.4680 0.7137 0.2133
C232 C 0.3843(7) 0.7481(7) 0.1682(5)
H183 H 0.4052 0.7379 0.1410
C233 C 0.3188(7) 0.7772(7) 0.1673(4)
H184 H 0.2950 0.7903 0.1396
C234 C 0.2879(6) 0.7872(8) 0.2087(4)
C235 C 0.2173(7) 0.8171(10) 0.2083(5)
H185 H 0.1939 0.8310 0.1804
C236 C 0.1839(7) 0.8252(10) 0.2495(5)
H186 H 0.1382 0.8418 0.2483
C237 C 0.2163(7) 0.8095(10) 0.2913(5)
C238 C 0.1807(8) 0.8200(10) 0.3314(5)
H187 H 0.1349 0.8354 0.3307
C239 C 0.2175(9) 0.8061(11) 0.3723(5)
H188 H 0.1953 0.8157 0.3992
C240 C 0.2805(9) 0.7808(10) 0.3754(5)
H189 H 0.3017 0.7664 0.4040
C241 C 0.3170(7) 0.7751(9) 0.3351(5)
H190 H 0.3629 0.7631 0.3366
C242 C 0.2832(6) 0.7878(8) 0.2933(4)
C243 C 0.6144(9) 0.5497(7) 0.9978(8)
H191 H 0.6368 0.5059 1.0081
C244 C 0.6456(8) 0.5986(7) 1.0004(8)
C245 C 0.7121(8) 0.5821(9) 1.0150(9)
H192 H 0.7372 0.5382 1.0207
C246 C 0.7382(9) 0.6349(10) 1.0204(9)
H193 H 0.7810 0.6253 1.0326
C247 C 0.7074(10) 0.6965(10) 1.0096(9)
H194 H 0.7263 0.7298 1.0165
C248 C 0.6448(9) 0.7129(8) 0.9873(9)
H195 H 0.6254 0.7560 0.9738
C249 C 0.6129(8) 0.6631(7) 0.9861(8)
C250 C 0.5439(8) 0.6783(7) 0.9669(8)
C251 C 0.5089(9) 0.7425(8) 0.9499(9)
H196 H 0.5289 0.7766 0.9526
C252 C 0.4472(10) 0.7594(9) 0.9295(9)
H197 H 0.4253 0.8028 0.9181
C253 C 0.4186(9) 0.7036(10) 0.9273(9)
H198 H 0.3760 0.7116 0.9150
C254 C 0.4519(9) 0.6409(9) 0.9424(9)
H199 H 0.4339 0.6055 0.9394
C255 C 0.5141(8) 0.6304(8) 0.9626(8)
C256 C 0.5502(8) 0.5631(7) 0.9801(7)
H200 H 0.5301 0.5285 0.9795
O18 O 0.9579(17) 0.5820(16) 0.4922(11)
O19 O 0.7986(15) 0.6947(13) 0.9005(10)
O20 O 0.6821(16) 0.8464(15) 0.6117(11)
N9 N 0.0623(7) 0.5819(10) 0.7343(4)
O21 O 0.0043(7) 0.6110(8) 0.7332(5)
O22 O 0.0912(6) 0.5600(7) 0.7708(5)
O23 O 0.0882(9) 0.5646(10) 0.6991(5)
N10 N 0.8072(8) 0.7574(8) 0.7421(5)
O24 O 0.7971(8) 0.7202(8) 0.7161(5)
O25 O 0.7896(9) 0.7503(9) 0.7817(5)
O26 O 0.8530(9) 0.7831(9) 0.7349(6)
N11 N 0.4275(9) 0.0916(9) 1.0010(6)
O27 O 0.4381(11) 0.0540(10) 0.9720(7)
O28 O 0.4637(11) 0.0809(11) 1.0348(7)
O29 O 0.3777(10) 0.1368(10) 0.9982(9)
N12 N 0.4002(14) 0.9897(10) 0.7455(10)
O30 O 0.4348(14) 0.9895(14) 0.7122(10)
O31 O 0.3581(15) 1.0400(12) 0.7508(11)
O32 O 0.3965(17) 0.9368(12) 0.7661(11)
C1 C 0.9524(6) 0.4625(5) 0.7988(4)
C2 C 0.6985(6) 0.1190(6) 0.9465(4)
C3 C 0.7167(6) 0.5527(5) 0.8204(3)
H1 H 0.7415 0.5101 0.8167
C4 C 0.4185(6) 0.5416(5) 0.7120(4)
C5 C 0.8940(5) 0.4859(5) 0.7739(3)
H2 H 0.8813 0.4579 0.7555
C6 C 0.5790(6) 0.6275(6) 0.6723(4)
C7 C 0.7293(6) 0.2643(5) 0.9608(4)
H3 H 0.7245 0.2719 0.9289
C8 C 0.6356(6) 0.6005(5) 0.6975(4)
H4 H 0.6363 0.5663 0.7210
C9 C 0.7981(6) -0.0632(5) 0.8676(4)
H5 H 0.8231 -0.0773 0.8949
C10 C 0.7573(6) 0.4193(5) 0.9522(4)
C11 C 0.7616(6) -0.0861(5) 0.7966(4)
H6 H 0.7607 -0.1166 0.7763
C12 C 0.7205(6) 0.3191(5) 0.9851(4)
C13 C 0.4412(6) 0.5785(5) 0.7412(4)
C14 C 0.7445(6) 0.1998(5) 0.9817(4)
C15 C 0.6821(6) 0.5615(5) 0.8599(4)
C16 C 0.7475(6) 0.4795(5) 0.9204(4)
C17 C 0.7007(6) 0.0719(6) 0.9140(4)
C18 C 1.0525(6) 0.3084(6) 0.7471(4)
C19 C 1.0633(6) 0.2607(6) 0.7848(4)
C20 C 0.8191(6) 0.3957(6) 0.9773(4)
H7 H 0.8260 0.3574 0.9982
C21 C 0.5790(6) 0.6799(6) 0.6373(4)
H8 H 0.5403 0.7013 0.6205
C22 C 0.6371(6) 0.4716(6) 0.9011(4)
C23 C 1.0448(6) 0.2778(6) 0.8281(4)
C24 C 0.6961(8) 0.1180(7) 0.5385(5)
C25 C 0.6813(6) 0.6638(6) 0.7919(4)
H9 H 0.6822 0.6992 0.7698
C26 C 0.8147(6) 0.5268(5) 0.6456(4)
H10 H 0.7776 0.5106 0.6500
C27 C 0.7611(6) 0.0038(6) 0.8574(4)
C28 C 0.7437(6) 0.2428(5) 1.0552(4)
H11 H 0.7494 0.2353 1.0870
C29 C 0.8725(6) 0.5888(5) 0.8007(4)
H12 H 0.8464 0.6321 0.8000
C30 C 0.9706(6) 0.5033(5) 0.8267(4)
H13 H 1.0095 0.4889 0.8445
C31 C 0.4450(6) 0.5367(6) 0.6683(4)
C32 C 0.7283(6) 0.0210(5) 0.8150(4)
H14 H 0.7050 0.0650 0.8065
C33 C 0.7068(6) 0.3866(5) 0.9570(4)
C34 C 1.0190(6) 0.3781(6) 0.7521(4)
C35 C 0.6473(6) 0.4116(6) 0.9328(4)
C36 C 0.3998(6) 0.2794(6) 0.7247(4)
C37 C 0.6885(6) 0.5031(6) 0.8953(4)
C38 C 0.6351(6) 0.6992(6) 0.6280(4)
H15 H 0.6358 0.7308 0.6031
C39 C 0.4961(6) 0.5667(6) 0.6540(4)
C40 C 0.8761(7) -0.0244(6) 0.6864(4)
C41 C 0.5205(6) 0.6028(5) 0.6843(4)
C42 C 0.3853(6) 0.3180(6) 0.7624(4)
C43 C 0.4916(6) 0.6121(6) 0.7268(4)
C44 C 0.6377(6) 0.1349(6) 0.9725(4)
H16 H 0.6341 0.1647 0.9939
C45 C 1.0149(6) 0.4267(6) 0.7134(4)
H17 H 0.9965 0.4713 0.7162
C46 C 0.9069(6) 0.5360(6) 0.6011(4)
H18 H 0.9325 0.5267 0.5756
C47 C 1.0306(7) 0.0522(7) 0.7382(5)
C48 C 0.5545(7) 0.0929(6) 0.7590(4)
H19 H 0.5688 0.1262 0.7414
C49 C 0.6460(6) 0.0435(6) 0.9106(4)
H20 H 0.6482 0.0113 0.8911
C50 C 0.7266(7) 0.3200(7) 0.4953(4)
H21 H 0.7280 0.3099 0.5271
C51 C 0.4027(6) 0.2847(6) 0.8061(4)
C52 C 0.6445(6) 0.6262(5) 0.8636(4)
H22 H 0.6200 0.6350 0.8897
C53 C 0.7575(6) 0.0522(6) 0.8901(4)
C54 C 0.8518(6) 0.5133(6) 0.6075(4)
C55 C 0.8128(7) -0.0009(6) 0.7034(4)
H23 H 0.8070 0.0309 0.7236
C56 C 0.7964(6) -0.1073(6) 0.8364(4)
H24 H 0.8194 -0.1518 0.8430
C57 C 0.6435(6) 0.6753(6) 0.8299(4)
H25 H 0.6170 0.7177 0.8321
C58 C 0.7486(7) 0.4765(7) 0.5128(4)
C59 C 0.8850(6) 0.5857(6) 0.6710(4)
H26 H 0.8961 0.6102 0.6926
C60 C 0.7498(6) 0.1448(5) 0.9520(4)
C61 C 0.8578(7) 0.4880(6) 0.9402(4)
H27 H 0.8909 0.5101 0.9367
C62 C 0.4829(6) 0.6594(6) 0.7992(4)
H28 H 0.4955 0.6866 0.8183
C63 C 0.9576(7) -0.0250(6) 0.7482(5)
C64 C 0.4948(7) 0.1113(6) 0.7811(5)
C65 C 0.7716(7) 0.5091(7) 0.5454(4)
C66 C 0.7672(7) -0.0652(6) 0.6613(4)
H29 H 0.7302 -0.0778 0.6523
C67 C 0.4401(7) 0.2170(6) 0.8130(4)
C68 C 0.9867(6) 0.3581(6) 0.8786(4)
H30 H 0.9614 0.4005 0.8825
C69 C 0.3570(6) 0.3891(6) 0.7540(4)
C70 C 0.9388(7) -0.0756(6) 0.7783(5)
H31 H 0.9072 -0.0948 0.7678
C71 C 0.4239(7) 0.4993(6) 0.6356(4)
H32 H 0.3906 0.4786 0.6437
C72 C 0.6988(7) 0.2821(7) 0.4694(4)
C73 C 0.9945(6) 0.3924(5) 0.7955(4)
C74 C 0.7238(7) 0.3502(7) 0.4021(5)
H33 H 0.7253 0.3590 0.3703
C75 C 0.6929(6) 0.6710(6) 0.6567(4)
H34 H 0.7303 0.6869 0.6523
C76 C 0.3953(6) 0.4308(6) 0.7368(4)
H35 H 0.4390 0.4115 0.7305
C77 C 1.0073(6) 0.3458(5) 0.8333(4)
C78 C 0.9280(6) 0.5686(5) 0.8275(4)
H36 H 0.9386 0.5971 0.8464
C79 C 0.5017(7) 0.5215(6) 0.5807(4)
H37 H 0.5205 0.5152 0.5523
C80 C 0.5241(6) 0.5581(6) 0.6088(4)
H38 H 0.5575 0.5779 0.5993
C81 C 1.0087(7) 0.0034(6) 0.7680(5)
C82 C 0.4157(6) 0.5861(6) 0.7861(4)
H39 H 0.3853 0.5631 0.7973
C83 C 0.3719(6) 0.5015(6) 0.7283(4)
C84 C 0.8281(6) 0.4765(6) 0.5720(4)
C85 C 0.7148(8) 0.1699(7) 0.5085(5)
C86 C 0.2645(7) 0.4871(6) 0.7538(4)
H40 H 0.2206 0.5058 0.7603
C87 C 1.0597(6) 0.2302(6) 0.8682(4)
H41 H 1.0842 0.1871 0.8655
C88 C 0.8077(6) 0.1278(6) 0.9266(4)
C89 C 1.0927(6) 0.1906(6) 0.7786(5)
C90 C 0.6379(7) 0.0733(7) 0.6324(5)
H42 H 0.6698 0.0953 0.6379
C91 C 0.3809(7) 0.3107(7) 0.6786(5)
H43 H 0.3619 0.3562 0.6732
C92 C 0.9250(6) 0.5733(6) 0.6328(4)
H44 H 0.9622 0.5894 0.6289
C93 C 1.0339(7) -0.0206(6) 0.8122(4)
H45 H 1.0660 -0.0038 0.8246
C94 C 0.8107(7) 0.0797(6) 0.8940(4)
C95 C 0.5945(7) 0.3815(6) 0.9373(4)
H46 H 0.5996 0.3433 0.9582
C96 C 1.0528(7) 0.1515(6) 0.7658(5)
H47 H 1.0075 0.1706 0.7633
C97 C 0.5772(6) 0.4945(6) 0.8752(4)
H48 H 0.5705 0.5327 0.8542
C98 C 0.4357(6) 0.6267(6) 0.8125(4)
H49 H 0.4166 0.6326 0.8409
C99 C 0.4778(7) 0.0613(7) 0.8117(5)
H50 H 0.4411 0.0715 0.8300
C100 C 0.5109(6) 0.6516(6) 0.7578(4)
H51 H 0.5439 0.6726 0.7494
C101 C 0.3849(7) 0.3184(7) 0.8462(5)
H52 H 0.3594 0.3622 0.8420
C102 C 0.8664(7) 0.4262(6) 0.9719(4)
H53 H 0.9062 0.4085 0.9884
C103 C 0.7801(7) 0.4102(7) 0.5082(4)
C104 C 0.8600(7) 0.4118(7) 0.5678(4)
C105 C 0.4554(6) 0.1808(6) 0.7750(5)
C106 C 0.8600(7) 0.1550(6) 0.9307(5)
H54 H 0.8586 0.1836 0.9528
C107 C 0.7995(6) 0.5111(6) 0.9165(4)
H55 H 0.7933 0.5501 0.8964
C108 C 0.6732(7) 0.2289(7) 0.4926(4)
C109 C 1.0015(7) 0.3122(6) 0.9161(5)
H56 H 0.9876 0.3231 0.9449
C110 C 0.9311(7) -0.0028(6) 0.7027(5)
C111 C 1.0376(6) 0.4087(6) 0.6726(4)
H57 H 1.0328 0.4415 0.6475
C112 C 0.5366(7) 0.4050(6) 0.9130(4)
H58 H 0.5023 0.3845 0.9173
C113 C 1.0751(7) 0.0872(7) 0.7566(5)
C114 C 0.4333(7) 0.2104(6) 0.7307(5)
C115 C 0.5742(8) 0.0025(7) 0.6584(5)
H59 H 0.5634 -0.0265 0.6818
C116 C 1.0390(7) 0.2466(6) 0.9105(5)
H60 H 1.0494 0.2145 0.9360
C117 C 0.4629(7) 0.1881(7) 0.8601(5)
H61 H 0.4905 0.1453 0.8654
C118 C 0.4408(7) 0.1757(7) 0.6936(5)
H62 H 0.4594 0.1300 0.6982
C119 C 0.8375(7) 0.3782(7) 0.5343(5)
C120 C 0.8826(7) -0.0735(7) 0.6558(5)
H63 H 0.9237 -0.0933 0.6447
C121 C 0.9642(7) -0.0965(7) 0.8207(5)
H64 H 0.9509 -0.1294 0.8395
C122 C 0.8691(7) 0.0650(6) 0.8680(5)
H65 H 0.8739 0.0326 0.8483
C123 C 1.0734(6) 0.2956(6) 0.7017(4)
H66 H 1.0918 0.2517 0.6968
C124 C 0.5746(7) -0.0181(6) 0.7886(5)
H67 H 0.6007 -0.0617 0.7904
C125 C 0.4499(7) 0.4933(7) 0.5948(5)
H68 H 0.4335 0.4697 0.5748
C126 C 0.6074(8) 0.0842(7) 0.5874(5)
C127 C 0.8266(7) -0.0911(7) 0.6429(5)
H69 H 0.8296 -0.1209 0.6215
C128 C 0.5306(7) 0.4630(6) 0.8802(4)
H70 H 0.4923 0.4789 0.8619
C129 C 1.0680(6) 0.3429(6) 0.6661(4)
H71 H 1.0841 0.3323 0.6376
C130 C 0.5816(8) 0.1894(8) 0.5310(5)
C131 C 0.5914(7) 0.0627(6) 0.9352(4)
H72 H 0.5558 0.0451 0.9310
C132 C 0.9185(7) 0.0964(7) 0.8708(5)
H73 H 0.9540 0.0881 0.8513
C133 C 0.7525(7) 0.3718(7) 0.4769(4)
C134 C 0.9582(8) 0.0407(7) 0.6744(5)
C135 C 0.6042(8) 0.2392(8) 0.5031(5)
C136 C 0.4030(7) 0.2899(7) 0.8886(5)
H74 H 0.3889 0.3133 0.9133
C137 C 0.7407(7) 0.5784(7) 0.5472(5)
H75 H 0.7579 0.6017 0.5669
C138 C 1.0097(8) 0.0693(7) 0.6910(5)
C139 C 0.5580(8) 0.2963(8) 0.4822(6)
H76 H 0.5725 0.3261 0.4613
C140 C 0.5178(7) -0.0044(7) 0.8139(5)
H77 H 0.5060 -0.0386 0.8323
C141 C 1.1845(8) 0.0952(7) 0.7726(5)
H78 H 1.2297 0.0756 0.7755
C142 C 0.6281(8) 0.1330(7) 0.5517(5)
C143 C 0.9159(8) 0.3743(7) 0.5966(5)
H79 H 0.9319 0.3956 0.6183
C144 C 0.5873(7) 0.1082(6) 0.9666(4)
H80 H 0.5494 0.1201 0.9835
C145 C 1.0126(7) -0.0667(7) 0.8361(5)
H81 H 1.0303 -0.0814 0.8657
C146 C 0.7425(8) 0.0573(8) 0.5525(5)
H82 H 0.7287 0.0243 0.5708
C147 C 0.7841(8) 0.1577(8) 0.4975(5)
H83 H 0.8000 0.1907 0.4808
C148 C 0.6616(8) 0.5757(8) 0.4896(5)
H84 H 0.6245 0.5974 0.4712
C149 C 0.8279(9) 0.0930(8) 0.5130(6)
H85 H 0.8718 0.0829 0.5044
C150 C 0.6906(8) 0.5112(8) 0.4861(5)
H86 H 0.6725 0.4892 0.4659
C151 C 0.4440(7) 0.2238(7) 0.8966(5)
H87 H 0.4579 0.2047 0.9264
C152 C 0.4218(7) 0.2060(7) 0.6503(5)
H88 H 0.4294 0.1818 0.6254
C153 C 0.9151(7) 0.1418(7) 0.9035(5)
H89 H 0.9491 0.1622 0.9067
C154 C 0.6849(8) 0.6107(8) 0.5196(5)
H90 H 0.6638 0.6551 0.5213
C155 C 0.8739(8) 0.3111(8) 0.5290(5)
H91 H 0.8587 0.2883 0.5079
C156 C 0.3905(7) 0.2749(7) 0.6437(5)
H92 H 0.3763 0.2955 0.6142
C157 C 0.4961(9) 0.3085(9) 0.4912(6)
H93 H 0.4671 0.3483 0.4789
C158 C 0.8038(9) 0.0454(8) 0.5410(5)
H94 H 0.8326 0.0045 0.5515
C159 C 0.9460(9) 0.3102(8) 0.5938(6)
H95 H 0.9766 0.2850 0.6162
C160 C 1.0371(9) 0.1103(8) 0.6600(6)
H96 H 1.0687 0.1295 0.6706
C161 C 0.9403(9) 0.0589(8) 0.6260(6)
H97 H 0.9064 0.0443 0.6139
C162 C 0.4714(10) 0.2583(9) 0.5214(6)
H98 H 0.4264 0.2660 0.5266
C163 C 0.9710(9) 0.0961(9) 0.5979(7)
H99 H 0.9604 0.1044 0.5666
C164 C 1.0191(9) 0.1224(9) 0.6160(7)
H100 H 1.0390 0.1492 0.5964
C165 C 0.5130(9) 0.2023(9) 0.5411(6)
H101 H 0.4977 0.1722 0.5612
C166 C 0.5404(9) 0.0141(8) 0.6153(6)
H102 H 0.5047 -0.0036 0.6116
C167 C 0.5598(8) 0.0510(8) 0.5795(6)
H103 H 0.5417 0.0540 0.5501
C168 C 0.9284(9) 0.2817(9) 0.5537(6)
H104 H 0.9560 0.2425 0.5457
C169 C 0.3065(6) 0.5280(4) 0.7360(4)
O1 O 0.2849(4) 0.5958(3) 0.7273(3)
C170 C 0.2210(5) 0.6276(5) 0.7444(4)
H105 H 0.2215 0.6188 0.7777
H106 H 0.1870 0.6103 0.7320
C171 C 0.2072(7) 0.6992(5) 0.7301(4)
H107 H 0.1682 0.7225 0.7450
H108 H 0.2442 0.7155 0.7387
O2 O 0.1968(7) 0.7103(5) 0.6818(4)
C172 C 0.1785(12) 0.7808(7) 0.6661(6)
H109 H 0.1723 0.7878 0.6333
H110 H 0.2130 0.8000 0.6747
H111 H 0.1382 0.8015 0.6800
C173 C 0.2910(5) 0.4198(6) 0.7609(4)
O3 O 0.2540(4) 0.3765(4) 0.7758(3)
C174 C 0.1893(5) 0.4060(7) 0.7938(5)
H112 H 0.1910 0.4443 0.8087
H113 H 0.1565 0.4206 0.7688
C175 C 0.1715(7) 0.3565(8) 0.8265(4)
H114 H 0.1252 0.3713 0.8336
H115 H 0.1782 0.3151 0.8133
O4 O 0.2110(7) 0.3463(7) 0.8670(4)
C176 C 0.2034(12) 0.2875(10) 0.8957(6)
H116 H 0.2303 0.2804 0.9233
H117 H 0.2169 0.2496 0.8793
H118 H 0.1579 0.2936 0.9037
C177 C 0.7482(7) 0.3868(6) 0.4295(4)
O5 O 0.7766(5) 0.4363(4) 0.4132(3)
C178 C 0.7780(8) 0.4530(6) 0.3637(3)
H119 H 0.7336 0.4641 0.3503
H120 H 0.8048 0.4156 0.3500
C179 C 0.8062(7) 0.5102(6) 0.3552(5)
H121 H 0.8467 0.5023 0.3735
H122 H 0.8165 0.5174 0.3230
O6 O 0.7594(6) 0.5663(6) 0.3673(5)
C180 C 0.7873(11) 0.6221(8) 0.3686(10)
H123 H 0.7539 0.6594 0.3767
H124 H 0.8036 0.6334 0.3389
H125 H 0.8229 0.6105 0.3911
C181 C 0.6968(7) 0.3001(6) 0.4214(3)
O7 O 0.6680(5) 0.2625(4) 0.3972(2)
C182 C 0.6497(7) 0.2868(6) 0.3493(3)
H126 H 0.6872 0.2966 0.3332
H127 H 0.6142 0.3273 0.3470
C183 C 0.6284(6) 0.2355(7) 0.3286(4)
H128 H 0.6254 0.2461 0.2954
H129 H 0.6604 0.1929 0.3362
O8 O 0.5669(5) 0.2317(6) 0.3452(4)
C184 C 0.5423(8) 0.1837(9) 0.3236(7)
H130 H 0.5000 0.1821 0.3356
H131 H 0.5727 0.1406 0.3299
H132 H 0.5379 0.1966 0.2909
C185 C 1.1599(6) 0.1611(7) 0.7803(5)
O9 O 1.1986(5) 0.2005(5) 0.7910(4)
C186 C 1.2638(6) 0.1911(8) 0.7716(5)
H133 H 1.2861 0.1441 0.7743
H134 H 1.2902 0.2132 0.7880
C187 C 1.2560(10) 0.2192(8) 0.7230(5)
H135 H 1.2206 0.2598 0.7190
H136 H 1.2964 0.2296 0.7125
O10 O 1.2411(9) 0.1720(8) 0.6975(5)
C188 C 1.2380(15) 0.1936(12) 0.6489(5)
H137 H 1.1940 0.2195 0.6399
H138 H 1.2491 0.1555 0.6325
H139 H 1.2686 0.2201 0.6418
C189 C 1.1423(7) 0.0589(6) 0.7608(5)
O11 O 1.1648(5) -0.0056(5) 0.7516(4)
C190 C 1.2362(6) -0.0329(6) 0.7513(8)
H140 H 1.2553 -0.0372 0.7819
H141 H 1.2559 -0.0038 0.7309
C191 C 1.2485(9) -0.0982(7) 0.7351(7)
H142 H 1.2198 -0.0959 0.7087
H143 H 1.2940 -0.1125 0.7259
O12 O 1.2360(10) -0.1436(7) 0.7712(7)
C192 C 1.1657(12) -0.1390(15) 0.7731(11)
H144 H 1.1411 -0.0949 0.7610
H145 H 1.1541 -0.1485 0.8044
H146 H 1.1553 -0.1705 0.7552
C193 C 0.7282(6) 0.3061(5) 1.0329(3)
O13 O 0.7206(4) 0.3621(3) 1.0540(2)
C194 C 0.7390(6) 0.3538(4) 1.1025(3)
H147 H 0.7837 0.3259 1.1079
H148 H 0.7094 0.3330 1.1206
C195 C 0.7345(5) 0.4202(5) 1.1154(4)
H149 H 0.7531 0.4164 1.1462
H150 H 0.7592 0.4432 1.0944
O14 O 0.6680(4) 0.4558(3) 1.1138(3)
C196 C 0.6606(6) 0.5213(5) 1.1272(5)
H151 H 0.6147 0.5446 1.1261
H152 H 0.6841 0.5455 1.1065
H153 H 0.6782 0.5174 1.1579
C197 C 0.7510(6) 0.1892(4) 1.0297(3)
O15 O 0.7682(4) 0.1241(3) 1.0481(2)
C198 C 0.7790(6) 0.1090(4) 1.0976(3)
H154 H 0.7386 0.1264 1.1132
H155 H 0.8127 0.1289 1.1077
C199 C 0.8007(5) 0.0360(4) 1.1082(4)
H156 H 0.7999 0.0231 1.1411
H157 H 0.7716 0.0157 1.0929
O16 O 0.8657(4) 0.0153(3) 1.0925(3)
C200 C 0.8895(6) -0.0563(4) 1.1010(5)
H158 H 0.9336 -0.0699 1.0902
H159 H 0.8612 -0.0762 1.0850
H160 H 0.8894 -0.0705 1.1334
N1 N 0.6224(6) 0.0331(5) 0.6662(4)
N2 N 0.7611(5) -0.0214(5) 0.6924(3)
N3 N 0.7290(5) -0.0240(4) 0.7855(3)
N4 N 0.5930(5) 0.0298(5) 0.7615(4)
N5 N 0.7167(5) 0.6028(4) 0.7863(3)
N6 N 0.6927(5) 0.6214(4) 0.6900(3)
N7 N 0.8308(5) 0.5628(4) 0.6768(3)
N8 N 0.8541(4) 0.5469(4) 0.7746(3)
Pd1 Pd 0.77366(4) 0.58354(4) 0.73181(3)
Pd2 Pd 0.67518(5) 0.00566(4) 0.72565(3)
O33? O 0.9623(18) 0.4866(18) 0.4847(12)
O34? O 0.8649(16) 0.6903(14) 0.9060(10)
C257? C 0.9164(10) 0.7454(8) 0.8332(7)
C258? C 0.6621(12) 0.8697(11) 0.7234(8)
C259? C 0.6306(14) 0.8284(14) 0.7220(10)
C260? C 0.5188(11) 0.8226(9) 0.8141(8)
C261? C 0.6568(14) 0.8434(13) 0.8831(9)
C262? C 0.5897(14) 0.8581(13) 0.8787(9)
C263? C 0.1067(13) 0.4789(13) 0.9231(9)
C264? C 0.0611(13) 0.5558(13) 0.9077(9)
C265? C 0.0144(12) 0.4206(11) 0.0455(8)
C266? C 0.0315(11) 0.4918(12) -0.0239(8)
C267? C 0.0806(15) 0.4052(14) -0.0026(10)
O35? O 0.9941(15) -0.0322(13) 0.5152(10)
loop_
_geom_bond_atom_site_label_1
_geom_bond_atom_site_label_2
_geom_bond_site_symmetry_1
_geom_bond_site_symmetry_2
C1 C5 1_555 1_555
C2 C17 1_555 1_555
C3 H1 1_555 1_555
C4 C13 1_555 1_555
C5 H2 1_555 1_555
C6 C8 1_555 1_555
C7 H3 1_555 1_555
C8 H4 1_555 1_555
C9 H5 1_555 1_555
C10 C16 1_555 1_555
C11 H6 1_555 1_555
C12 C7 1_555 1_555
C13 C43 1_555 1_555
C14 C7 1_555 1_555
C15 C3 1_555 1_555
C16 C37 1_555 1_555
C17 C49 1_555 1_555
C18 C19 1_555 1_555
C19 C23 1_555 1_555
C20 C10 1_555 1_555
H7 C20 1_555 1_555
C21 C6 1_555 1_555
H8 C21 1_555 1_555
C22 C35 1_555 1_555
C23 C77 1_555 1_555
C24 C85 1_555 1_555
C25 H9 1_555 1_555
C26 H10 1_555 1_555
C27 C9 1_555 1_555
C28 H11 1_555 1_555
C29 H12 1_555 1_555
C30 C1 1_555 1_555
H13 C30 1_555 1_555
C31 C4 1_555 1_555
C32 C27 1_555 1_555
H14 C32 1_555 1_555
C33 C10 1_555 1_555
C34 C18 1_555 1_555
C35 C33 1_555 1_555
C36 C42 1_555 1_555
C37 C15 1_555 1_555
C38 C21 1_555 1_555
H15 C38 1_555 1_555
C39 C31 1_555 1_555
C40 C55 1_555 1_555
C41 C6 1_555 1_555
C42 C51 1_555 1_555
C43 C41 1_555 1_555
C44 C2 1_555 1_555
H16 C44 1_555 1_555
C45 C34 1_555 1_555
H17 C45 1_555 1_555
C46 H18 1_555 1_555
C47 C81 1_555 1_555
C48 H19 1_555 1_555
C49 H20 1_555 1_555
C50 H21 1_555 1_555
C51 C67 1_555 1_555
C52 C15 1_555 1_555
H22 C52 1_555 1_555
C53 C17 1_555 1_555
C54 C26 1_555 1_555
C55 H23 1_555 1_555
C56 C9 1_555 1_555
H24 C56 1_555 1_555
C57 C25 1_555 1_555
H25 C57 1_555 1_555
C58 C65 1_555 1_555
C59 H26 1_555 1_555
C60 C2 1_555 1_555
C61 H27 1_555 1_555
C62 H28 1_555 1_555
C63 C70 1_555 1_555
C64 C48 1_555 1_555
C65 C84 1_555 1_555
C66 H29 1_555 1_555
C67 C105 1_555 1_555
C68 H30 1_555 1_555
C69 C42 1_555 1_555
C70 H31 1_555 1_555
C71 C31 1_555 1_555
H32 C71 1_555 1_555
C72 C50 1_555 1_555
C73 C1 1_555 1_555
C74 H33 1_555 1_555
C75 C38 1_555 1_555
H34 C75 1_555 1_555
C76 C69 1_555 1_555
H35 C76 1_555 1_555
C77 C68 1_555 1_555
C78 C29 1_555 1_555
H36 C78 1_555 1_555
C79 H37 1_555 1_555
C80 C39 1_555 1_555
H38 C80 1_555 1_555
C81 C63 1_555 1_555
C82 C13 1_555 1_555
H39 C82 1_555 1_555
C83 C4 1_555 1_555
C84 C54 1_555 1_555
C85 C108 1_555 1_555
C86 H40 1_555 1_555
C87 C23 1_555 1_555
H41 C87 1_555 1_555
C88 C60 1_555 1_555
C89 C19 1_555 1_555
C90 H42 1_555 1_555
C91 C36 1_555 1_555
H43 C91 1_555 1_555
C92 C46 1_555 1_555
H44 C92 1_555 1_555
C93 C81 1_555 1_555
H45 C93 1_555 1_555
C94 C53 1_555 1_555
C95 C35 1_555 1_555
H46 C95 1_555 1_555
C96 C89 1_555 1_555
H47 C96 1_555 1_555
C97 C22 1_555 1_555
H48 C97 1_555 1_555
C98 C62 1_555 1_555
H49 C98 1_555 1_555
C99 C64 1_555 1_555
H50 C99 1_555 1_555
C100 C43 1_555 1_555
H51 C100 1_555 1_555
C101 C51 1_555 1_555
H52 C101 1_555 1_555
C102 C20 1_555 1_555
H53 C102 1_555 1_555
C103 C58 1_555 1_555
C104 C84 1_555 1_555
C105 C64 1_555 1_555
C106 C88 1_555 1_555
H54 C106 1_555 1_555
C107 C16 1_555 1_555
H55 C107 1_555 1_555
C108 C72 1_555 1_555
C109 C68 1_555 1_555
H56 C109 1_555 1_555
C110 C40 1_555 1_555
C111 C45 1_555 1_555
H57 C111 1_555 1_555
C112 C95 1_555 1_555
H58 C112 1_555 1_555
C113 C47 1_555 1_555
C114 C36 1_555 1_555
C115 H59 1_555 1_555
C116 C87 1_555 1_555
H60 C116 1_555 1_555
C117 C67 1_555 1_555
H61 C117 1_555 1_555
C118 C114 1_555 1_555
H62 C118 1_555 1_555
C119 C103 1_555 1_555
C120 C40 1_555 1_555
H63 C120 1_555 1_555
C121 C70 1_555 1_555
H64 C121 1_555 1_555
C122 C94 1_555 1_555
H65 C122 1_555 1_555
C123 C18 1_555 1_555
H66 C123 1_555 1_555
C124 H67 1_555 1_555
C125 C71 1_555 1_555
H68 C125 1_555 1_555
C126 C90 1_555 1_555
C127 C66 1_555 1_555
H69 C127 1_555 1_555
C128 C97 1_555 1_555
H70 C128 1_555 1_555
C129 C111 1_555 1_555
H71 C129 1_555 1_555
C130 C135 1_555 1_555
C131 C49 1_555 1_555
H72 C131 1_555 1_555
C132 C122 1_555 1_555
H73 C132 1_555 1_555
C133 C50 1_555 1_555
C134 C110 1_555 1_555
C135 C108 1_555 1_555
C136 C101 1_555 1_555
H74 C136 1_555 1_555
C137 C65 1_555 1_555
H75 C137 1_555 1_555
C138 C47 1_555 1_555
C139 C135 1_555 1_555
H76 C139 1_555 1_555
C140 C99 1_555 1_555
H77 C140 1_555 1_555
C141 H78 1_555 1_555
C142 C24 1_555 1_555
C143 C104 1_555 1_555
H79 C143 1_555 1_555
C144 C44 1_555 1_555
H80 C144 1_555 1_555
C145 C93 1_555 1_555
H81 C145 1_555 1_555
C146 C24 1_555 1_555
H82 C146 1_555 1_555
C147 C85 1_555 1_555
H83 C147 1_555 1_555
C148 H84 1_555 1_555
C149 C147 1_555 1_555
H85 C149 1_555 1_555
C150 C58 1_555 1_555
H86 C150 1_555 1_555
C151 C117 1_555 1_555
H87 C151 1_555 1_555
C152 C118 1_555 1_555
H88 C152 1_555 1_555
C153 C106 1_555 1_555
H89 C153 1_555 1_555
C154 C137 1_555 1_555
H90 C154 1_555 1_555
C155 C119 1_555 1_555
H91 C155 1_555 1_555
C156 C91 1_555 1_555
H92 C156 1_555 1_555
C157 C139 1_555 1_555
H93 C157 1_555 1_555
C158 C146 1_555 1_555
H94 C158 1_555 1_555
C159 C143 1_555 1_555
H95 C159 1_555 1_555
C160 C138 1_555 1_555
H96 C160 1_555 1_555
C161 C134 1_555 1_555
H97 C161 1_555 1_555
C162 C157 1_555 1_555
H98 C162 1_555 1_555
C163 C161 1_555 1_555
H99 C163 1_555 1_555
C164 C160 1_555 1_555
H100 C164 1_555 1_555
C165 C130 1_555 1_555
H101 C165 1_555 1_555
C166 C115 1_555 1_555
H102 C166 1_555 1_555
C167 C126 1_555 1_555
H103 C167 1_555 1_555
C168 C155 1_555 1_555
H104 C168 1_555 1_555
C169 C83 1_555 1_555
O1 C169 1_555 1_555
C170 O1 1_555 1_555
H105 C170 1_555 1_555
H106 C170 1_555 1_555
C171 C170 1_555 1_555
H107 C171 1_555 1_555
H108 C171 1_555 1_555
O2 C171 1_555 1_555
C172 O2 1_555 1_555
H109 C172 1_555 1_555
H110 C172 1_555 1_555
H111 C172 1_555 1_555
C173 C69 1_555 1_555
O3 C173 1_555 1_555
C174 O3 1_555 1_555
H112 C174 1_555 1_555
H113 C174 1_555 1_555
C175 C174 1_555 1_555
H114 C175 1_555 1_555
H115 C175 1_555 1_555
O4 C175 1_555 1_555
C176 O4 1_555 1_555
H116 C176 1_555 1_555
H117 C176 1_555 1_555
H118 C176 1_555 1_555
C177 C74 1_555 1_555
O5 C177 1_555 1_555
C178 O5 1_555 1_555
H119 C178 1_555 1_555
H120 C178 1_555 1_555
C179 C178 1_555 1_555
H121 C179 1_555 1_555
H122 C179 1_555 1_555
O6 C179 1_555 1_555
C180 O6 1_555 1_555
H123 C180 1_555 1_555
H124 C180 1_555 1_555
H125 C180 1_555 1_555
C181 C72 1_555 1_555
O7 C181 1_555 1_555
C182 O7 1_555 1_555
H126 C182 1_555 1_555
H127 C182 1_555 1_555
C183 C182 1_555 1_555
H128 C183 1_555 1_555
H129 C183 1_555 1_555
O8 C183 1_555 1_555
C184 O8 1_555 1_555
H130 C184 1_555 1_555
H131 C184 1_555 1_555
H132 C184 1_555 1_555
C185 C89 1_555 1_555
O9 C185 1_555 1_555
C186 O9 1_555 1_555
H133 C186 1_555 1_555
H134 C186 1_555 1_555
C187 C186 1_555 1_555
H135 C187 1_555 1_555
H136 C187 1_555 1_555
O10 C187 1_555 1_555
C188 O10 1_555 1_555
H137 C188 1_555 1_555
H138 C188 1_555 1_555
H139 C188 1_555 1_555
C189 C113 1_555 1_555
O11 C189 1_555 1_555
C190 O11 1_555 1_555
H140 C190 1_555 1_555
H141 C190 1_555 1_555
C191 C190 1_555 1_555
H142 C191 1_555 1_555
H143 C191 1_555 1_555
O12 C191 1_555 1_555
C192 O12 1_555 1_555
H144 C192 1_555 1_555
H145 C192 1_555 1_555
H146 C192 1_555 1_555
C193 C12 1_555 1_555
O13 C193 1_555 1_555
C194 O13 1_555 1_555
H147 C194 1_555 1_555
H148 C194 1_555 1_555
C195 C194 1_555 1_555
H149 C195 1_555 1_555
H150 C195 1_555 1_555
O14 C195 1_555 1_555
C196 O14 1_555 1_555
H151 C196 1_555 1_555
H152 C196 1_555 1_555
H153 C196 1_555 1_555
C197 C14 1_555 1_555
O15 C197 1_555 1_555
C198 O15 1_555 1_555
H154 C198 1_555 1_555
H155 C198 1_555 1_555
C199 C198 1_555 1_555
H156 C199 1_555 1_555
H157 C199 1_555 1_555
O16 C199 1_555 1_555
C200 O16 1_555 1_555
H158 C200 1_555 1_555
H159 C200 1_555 1_555
H160 C200 1_555 1_555
N1 C90 1_555 1_555
N2 C55 1_555 1_555
N3 C11 1_555 1_555
N4 C48 1_555 1_555
N5 C3 1_555 1_555
N6 C8 1_555 1_555
N7 C26 1_555 1_555
N8 C5 1_555 1_555
Pd1 N5 1_555 1_555
Pd2 N1 1_555 1_555
C201 C202 1_555 1_555
C202 H161 1_555 1_555
C203 C202 1_555 1_555
H162 C203 1_555 1_555
C204 C203 1_555 1_555
H163 C204 1_555 1_555
C205 C204 1_555 1_555
H164 C205 1_555 1_555
C206 C201 1_555 1_555
C207 C206 1_555 1_555
H165 C207 1_555 1_555
C208 C207 1_555 1_555
H166 C208 1_555 1_555
C209 C208 1_555 1_555
C210 C209 1_555 1_555
H167 C210 1_555 1_555
C211 C210 1_555 1_555
H168 C211 1_555 1_555
C212 C211 1_555 1_555
H169 C212 1_555 1_555
C213 C212 1_555 1_555
H170 C213 1_555 1_555
C214 C201 1_555 1_555
C215 C216 1_555 1_555
C216 H171 1_555 1_555
C217 C216 1_555 1_555
H172 C217 1_555 1_555
C218 C217 1_555 1_555
H173 C218 1_555 1_555
C219 C218 1_555 1_555
H174 C219 1_555 1_555
C220 C215 1_555 1_555
C221 C220 1_555 1_555
H175 C221 1_555 1_555
C222 C221 1_555 1_555
H176 C222 1_555 1_555
C223 C222 1_555 1_555
C224 C223 1_555 1_555
H177 C224 1_555 1_555
C225 C224 1_555 1_555
H178 C225 1_555 1_555
C226 C225 1_555 1_555
H179 C226 1_555 1_555
C227 C226 1_555 1_555
H180 C227 1_555 1_555
C228 C215 1_555 1_555
C229 C230 1_555 1_555
C230 H181 1_555 1_555
C231 C230 1_555 1_555
H182 C231 1_555 1_555
C232 C231 1_555 1_555
H183 C232 1_555 1_555
C233 C232 1_555 1_555
H184 C233 1_555 1_555
C234 C229 1_555 1_555
C235 C234 1_555 1_555
H185 C235 1_555 1_555
C236 C235 1_555 1_555
H186 C236 1_555 1_555
C237 C236 1_555 1_555
C238 C237 1_555 1_555
H187 C238 1_555 1_555
C239 C238 1_555 1_555
H188 C239 1_555 1_555
C240 C239 1_555 1_555
H189 C240 1_555 1_555
C241 C240 1_555 1_555
H190 C241 1_555 1_555
C242 C229 1_555 1_555
C243 H191 1_555 1_555
C244 C243 1_555 1_555
C245 C244 1_555 1_555
H192 C245 1_555 1_555
C246 C245 1_555 1_555
H193 C246 1_555 1_555
C247 C246 1_555 1_555
H194 C247 1_555 1_555
C248 C247 1_555 1_555
H195 C248 1_555 1_555
C249 C244 1_555 1_555
C250 C249 1_555 1_555
C251 C250 1_555 1_555
H196 C251 1_555 1_555
C252 C251 1_555 1_555
H197 C252 1_555 1_555
C253 C252 1_555 1_555
H198 C253 1_555 1_555
C254 C253 1_555 1_555
H199 C254 1_555 1_555
C255 C250 1_555 1_555
C256 C243 1_555 1_555
H200 C256 1_555 1_555
N9 O21 1_555 1_555
O22 N9 1_555 1_555
O23 N9 1_555 1_555
N10 O24 1_555 1_555
O25 N10 1_555 1_555
O26 N10 1_555 1_555
N11 O27 1_555 1_555
O28 N11 1_555 1_555
O29 N11 1_555 1_555
N12 O30 1_555 1_555
O31 N12 1_555 1_555
O32 N12 1_555 1_555
C11 C56 1_555 1_555
C12 C33 1_555 1_555
C14 C60 1_555 1_555
C22 C37 1_555 1_555
C25 N5 1_555 1_555
C27 C53 1_555 1_555
C28 C193 1_555 1_555
C28 C197 1_555 1_555
C29 N8 1_555 1_555
C30 C78 1_555 1_555
C32 N3 1_555 1_555
C34 C73 1_555 1_555
C39 C41 1_555 1_555
C46 C54 1_555 1_555
C52 C57 1_555 1_555
C59 C92 1_555 1_555
C59 N7 1_555 1_555
C61 C102 1_555 1_555
C61 C107 1_555 1_555
C62 C100 1_555 1_555
C63 C110 1_555 1_555
C66 N2 1_555 1_555
C73 C77 1_555 1_555
C74 C181 1_555 1_555
C75 N6 1_555 1_555
C76 C83 1_555 1_555
C79 C80 1_555 1_555
C79 C125 1_555 1_555
C82 C98 1_555 1_555
C86 C169 1_555 1_555
C86 C173 1_555 1_555
C88 C94 1_555 1_555
C96 C113 1_555 1_555
C103 C133 1_555 1_555
C104 C119 1_555 1_555
C105 C114 1_555 1_555
C109 C116 1_555 1_555
C112 C128 1_555 1_555
C115 N1 1_555 1_555
C120 C127 1_555 1_555
C121 C145 1_555 1_555
C123 C129 1_555 1_555
C124 C140 1_555 1_555
C124 N4 1_555 1_555
C126 C142 1_555 1_555
C130 C142 1_555 1_555
C131 C144 1_555 1_555
C132 C153 1_555 1_555
C133 C177 1_555 1_555
C134 C138 1_555 1_555
C136 C151 1_555 1_555
C141 C185 1_555 1_555
C141 C189 1_555 1_555
C148 C150 1_555 1_555
C148 C154 1_555 1_555
C149 C158 1_555 1_555
C152 C156 1_555 1_555
C159 C168 1_555 1_555
C162 C165 1_555 1_555
C163 C164 1_555 1_555
C166 C167 1_555 1_555
N2 Pd2 1_555 1_555
N3 Pd2 1_555 1_555
N4 Pd2 1_555 1_555
N6 Pd1 1_555 1_555
N7 Pd1 1_555 1_555
N8 Pd1 1_555 1_555
C205 C206 1_555 1_555
C209 C214 1_555 1_555
C213 C214 1_555 1_555
C219 C220 1_555 1_555
C223 C228 1_555 1_555
C227 C228 1_555 1_555
C233 C234 1_555 1_555
C237 C242 1_555 1_555
C241 C242 1_555 1_555
C248 C249 1_555 1_555
C254 C255 1_555 1_555
C255 C256 1_555 1_555

#END
