# generated using pymatgen
data_H200Pd2C267N12O35
_symmetry_space_group_name_H-M   'P 1'
_cell_length_a   20.96700000
_cell_length_b   20.99160000
_cell_length_c   29.31700000
_cell_angle_alpha   83.03900000
_cell_angle_beta   89.85100000
_cell_angle_gamma   74.99800000
_symmetry_Int_Tables_number   1
_chemical_formula_structural   H200Pd2C267N12O35
_chemical_formula_sum   'H400 Pd4 C534 N24 O70'
_cell_volume   12366.08908160
_cell_formula_units_Z   2
loop_
 _symmetry_equiv_pos_site_id
 _symmetry_equiv_pos_as_xyz
  1  'x, y, z'
loop_
 _atom_site_type_symbol
 _atom_site_label
 _atom_site_symmetry_multiplicity
 _atom_site_fract_x
 _atom_site_fract_y
 _atom_site_fract_z
 _atom_site_occupancy
  H  H1  1  0.845900  0.790800  0.975800  1
  H  H2  1  0.154100  0.209200  0.024200  1
  H  H3  1  0.738600  0.839100  0.992600  1
  H  H4  1  0.261400  0.160900  0.007400  1
  H  H5  1  0.713800  0.953800  0.006200  1
  H  H6  1  0.286200  0.046200  0.993800  1
  H  H7  1  0.792700  0.010700  0.997500  1
  H  H8  1  0.207300  0.989300  0.002500  1
  H  H9  1  0.906500  0.012900  0.984300  1
  H  H10  1  0.093500  0.987100  0.015700  1
  H  H11  1  0.012200  0.961100  0.965300  1
  H  H12  1  0.987800  0.038900  0.034700  1
  H  H13  1  0.097900  0.863700  0.955700  1
  H  H14  1  0.902100  0.136300  0.044300  1
  H  H15  1  0.124800  0.753800  0.942900  1
  H  H16  1  0.875200  0.246200  0.057100  1
  H  H17  1  0.051300  0.695300  0.944000  1
  H  H18  1  0.948700  0.304700  0.056000  1
  H  H19  1  0.941500  0.743400  0.961100  1
  H  H20  1  0.058500  0.256600  0.038900  1
  H  H21  1  0.144600  0.680000  0.271400  1
  H  H22  1  0.855400  0.320000  0.728600  1
  H  H23  1  0.084900  0.716200  0.203500  1
  H  H24  1  0.915100  0.283800  0.796500  1
  H  H25  1  0.143100  0.687400  0.134300  1
  H  H26  1  0.856900  0.312600  0.865700  1
  H  H27  1  0.253100  0.634800  0.138700  1
  H  H28  1  0.746900  0.365200  0.861300  1
  H  H29  1  0.353400  0.579900  0.184100  1
  H  H30  1  0.646600  0.420100  0.815900  1
  H  H31  1  0.411500  0.556800  0.253200  1
  H  H32  1  0.588500  0.443200  0.746800  1
  H  H33  1  0.420400  0.562700  0.333800  1
  H  H34  1  0.579600  0.437300  0.666200  1
  H  H35  1  0.365500  0.585400  0.400700  1
  H  H36  1  0.634500  0.414600  0.599300  1
  H  H37  1  0.258700  0.628200  0.402300  1
  H  H38  1  0.741300  0.371800  0.597700  1
  H  H39  1  0.194400  0.654600  0.333500  1
  H  H40  1  0.805600  0.345400  0.666500  1
  H  H41  1  0.409200  0.737700  0.277500  1
  H  H42  1  0.590800  0.262300  0.722500  1
  H  H43  1  0.468000  0.713700  0.213300  1
  H  H44  1  0.532000  0.286300  0.786700  1
  H  H45  1  0.405200  0.737900  0.141000  1
  H  H46  1  0.594800  0.262100  0.859000  1
  H  H47  1  0.295000  0.790300  0.139600  1
  H  H48  1  0.705000  0.209700  0.860400  1
  H  H49  1  0.193900  0.831000  0.180400  1
  H  H50  1  0.806100  0.169000  0.819600  1
  H  H51  1  0.138200  0.841800  0.248300  1
  H  H52  1  0.861800  0.158200  0.751700  1
  H  H53  1  0.134900  0.835400  0.330700  1
  H  H54  1  0.865100  0.164600  0.669300  1
  H  H55  1  0.195300  0.815700  0.399200  1
  H  H56  1  0.804700  0.184300  0.600800  1
  H  H57  1  0.301700  0.766400  0.404000  1
  H  H58  1  0.698300  0.233600  0.596000  1
  H  H59  1  0.362900  0.763100  0.336600  1
  H  H60  1  0.637100  0.236900  0.663400  1
  H  H61  1  0.636800  0.505900  0.008100  1
  H  H62  1  0.363200  0.494100  0.991900  1
  H  H63  1  0.737200  0.538200  0.020700  1
  H  H64  1  0.262800  0.461800  0.979300  1
  H  H65  1  0.781000  0.625300  0.032600  1
  H  H66  1  0.219000  0.374700  0.967400  1
  H  H67  1  0.726300  0.729800  0.016500  1
  H  H68  1  0.273700  0.270200  0.983500  1
  H  H69  1  0.625400  0.756000  0.973800  1
  H  H70  1  0.374600  0.244000  0.026200  1
  H  H71  1  0.528900  0.776600  0.952600  1
  H  H72  1  0.471100  0.223400  0.047400  1
  H  H73  1  0.425300  0.802800  0.918100  1
  H  H74  1  0.574700  0.197200  0.081900  1
  H  H75  1  0.376000  0.711600  0.915000  1
  H  H76  1  0.624000  0.288400  0.085000  1
  H  H77  1  0.433900  0.605500  0.939400  1
  H  H78  1  0.566100  0.394500  0.060600  1
  H  H79  1  0.530100  0.528500  0.979500  1
  H  H80  1  0.469900  0.471500  0.020500  1
  H  H81  1  0.741500  0.510100  0.816700  1
  H  H82  1  0.258500  0.489900  0.183300  1
  H  H83  1  0.881300  0.457900  0.755500  1
  H  H84  1  0.118700  0.542100  0.244500  1
  H  H85  1  0.724500  0.271900  0.928900  1
  H  H86  1  0.275500  0.728100  0.071100  1
  H  H87  1  0.636300  0.566300  0.721000  1
  H  H88  1  0.363700  0.433700  0.279000  1
  H  H89  1  0.823100  0.922700  0.894900  1
  H  H90  1  0.176900  0.077300  0.105100  1
  H  H91  1  0.760700  0.883400  0.776300  1
  H  H92  1  0.239300  0.116600  0.223700  1
  H  H93  1  0.826000  0.357400  0.998200  1
  H  H94  1  0.174000  0.642600  0.001800  1
  H  H95  1  0.540300  0.701300  0.620500  1
  H  H96  1  0.459700  0.298700  0.379500  1
  H  H97  1  0.682200  0.699200  0.769800  1
  H  H98  1  0.317800  0.300800  0.230200  1
  H  H99  1  0.777600  0.510600  0.650000  1
  H  H100  1  0.222400  0.489400  0.350000  1
  H  H101  1  0.749400  0.235300  0.087000  1
  H  H102  1  0.250600  0.764700  0.913000  1
  H  H103  1  0.846400  0.632100  0.800000  1
  H  H104  1  0.153600  0.367900  0.200000  1
  H  H105  1  0.009500  0.488900  0.844500  1
  H  H106  1  0.990500  0.511100  0.155500  1
  H  H107  1  0.705000  0.065000  0.806500  1
  H  H108  1  0.295000  0.935000  0.193500  1
  H  H109  1  0.635800  0.730800  0.603100  1
  H  H110  1  0.364200  0.269200  0.396900  1
  H  H111  1  0.634100  0.164700  0.993900  1
  H  H112  1  0.365900  0.835300  0.006100  1
  H  H113  1  0.996500  0.471300  0.716200  1
  H  H114  1  0.003500  0.528700  0.283800  1
  H  H115  1  0.932500  0.526700  0.575600  1
  H  H116  1  0.067500  0.473300  0.424400  1
  H  H117  1  0.568800  0.126200  0.741400  1
  H  H118  1  0.431200  0.873800  0.258600  1
  H  H119  1  0.648200  0.011300  0.891100  1
  H  H120  1  0.351800  0.988700  0.108900  1
  H  H121  1  0.728000  0.309900  0.527100  1
  H  H122  1  0.272000  0.690100  0.472900  1
  H  H123  1  0.620000  0.635000  0.889700  1
  H  H124  1  0.380000  0.365000  0.110300  1
  H  H125  1  0.807000  0.030900  0.723600  1
  H  H126  1  0.193000  0.969100  0.276400  1
  H  H127  1  0.819400  0.848200  0.843000  1
  H  H128  1  0.180600  0.151800  0.157000  1
  H  H129  1  0.617000  0.717700  0.832100  1
  H  H130  1  0.383000  0.282300  0.167900  1
  H  H131  1  0.896100  0.610200  0.692600  1
  H  H132  1  0.103900  0.389800  0.307400  1
  H  H133  1  0.890900  0.510100  0.936700  1
  H  H134  1  0.109100  0.489900  0.063300  1
  H  H135  1  0.495500  0.686600  0.818300  1
  H  H136  1  0.504500  0.313400  0.181700  1
  H  H137  1  0.730200  0.922200  0.652300  1
  H  H138  1  0.269800  0.077800  0.347700  1
  H  H139  1  0.961400  0.400500  0.882500  1
  H  H140  1  0.038600  0.599500  0.117500  1
  H  H141  1  0.907200  0.905200  0.767800  1
  H  H142  1  0.092800  0.094800  0.232200  1
  H  H143  1  0.390600  0.478600  0.643700  1
  H  H144  1  0.609400  0.521400  0.356300  1
  H  H145  1  0.725300  0.359000  0.370300  1
  H  H146  1  0.274700  0.641000  0.629700  1
  H  H147  1  0.730300  0.686900  0.652300  1
  H  H148  1  0.269700  0.313100  0.347700  1
  H  H149  1  0.439000  0.411500  0.730500  1
  H  H150  1  0.561000  0.588500  0.269500  1
  H  H151  1  0.938600  0.597100  0.846400  1
  H  H152  1  0.061400  0.402900  0.153600  1
  H  H153  1  0.520500  0.515200  0.552300  1
  H  H154  1  0.479500  0.484800  0.447700  1
  H  H155  1  0.557500  0.577900  0.599300  1
  H  H156  1  0.442500  0.422100  0.400700  1
  H  H157  1  0.385300  0.563100  0.797300  1
  H  H158  1  0.614700  0.436900  0.202700  1
  H  H159  1  0.220600  0.505800  0.760300  1
  H  H160  1  0.779400  0.494200  0.239700  1
  H  H161  1  0.084200  0.187100  0.865500  1
  H  H162  1  0.915800  0.812900  0.134500  1
  H  H163  1  0.669800  0.095300  0.637900  1
  H  H164  1  0.330200  0.904700  0.362100  1
  H  H165  1  0.361900  0.356200  0.673200  1
  H  H166  1  0.638100  0.643800  0.326800  1
  H  H167  1  0.962200  0.589400  0.628900  1
  H  H168  1  0.037800  0.410600  0.371100  1
  H  H169  1  0.066000  0.996200  0.824600  1
  H  H170  1  0.934000  0.003800  0.175400  1
  H  H171  1  0.599600  0.343300  0.958200  1
  H  H172  1  0.400400  0.656700  0.041800  1
  H  H173  1  0.007500  0.170600  0.763300  1
  H  H174  1  0.992500  0.829400  0.236700  1
  H  H175  1  0.570500  0.532700  0.854200  1
  H  H176  1  0.429500  0.467300  0.145800  1
  H  H177  1  0.416600  0.632600  0.840900  1
  H  H178  1  0.583400  0.367400  0.159100  1
  H  H179  1  0.441100  0.071500  0.830000  1
  H  H180  1  0.558900  0.928500  0.170000  1
  H  H181  1  0.543900  0.672600  0.749400  1
  H  H182  1  0.456100  0.327400  0.250600  1
  H  H183  1  0.359400  0.362200  0.842000  1
  H  H184  1  0.640600  0.637800  0.158000  1
  H  H185  1  0.906200  0.408500  0.988400  1
  H  H186  1  0.093800  0.591500  0.011600  1
  H  H187  1  0.858600  0.183600  0.952800  1
  H  H188  1  0.141400  0.816400  0.047200  1
  H  H189  1  0.793300  0.550100  0.896400  1
  H  H190  1  0.206700  0.449900  0.103600  1
  H  H191  1  0.987600  0.323100  0.944900  1
  H  H192  1  0.012400  0.676900  0.055100  1
  H  H193  1  0.032800  0.441500  0.647500  1
  H  H194  1  0.967200  0.558500  0.352500  1
  H  H195  1  0.502300  0.384500  0.917300  1
  H  H196  1  0.497700  0.615500  0.082700  1
  H  H197  1  0.563400  0.973500  0.681800  1
  H  H198  1  0.436600  0.026500  0.318200  1
  H  H199  1  0.049400  0.214500  0.936000  1
  H  H200  1  0.950600  0.785500  0.064000  1
  H  H201  1  0.490500  0.145300  0.865400  1
  H  H202  1  0.509500  0.854700  0.134600  1
  H  H203  1  0.459400  0.130000  0.698200  1
  H  H204  1  0.540600  0.870000  0.301800  1
  H  H205  1  0.923700  0.906700  0.644700  1
  H  H206  1  0.076300  0.093300  0.355300  1
  H  H207  1  0.950900  0.870600  0.839500  1
  H  H208  1  0.049100  0.129400  0.160500  1
  H  H209  1  0.873900  0.032600  0.848300  1
  H  H210  1  0.126100  0.967400  0.151700  1
  H  H211  1  0.091800  0.251700  0.696800  1
  H  H212  1  0.908200  0.748300  0.303200  1
  H  H213  1  0.600700  0.938300  0.790400  1
  H  H214  1  0.399300  0.061700  0.209600  1
  H  H215  1  0.433500  0.469700  0.574800  1
  H  H216  1  0.566500  0.530300  0.425200  1
  H  H217  1  0.829600  0.879100  0.621500  1
  H  H218  1  0.170400  0.120900  0.378500  1
  H  H219  1  0.492300  0.478900  0.861900  1
  H  H220  1  0.507700  0.521100  0.138100  1
  H  H221  1  0.084100  0.332300  0.637600  1
  H  H222  1  0.915900  0.667700  0.362400  1
  H  H223  1  0.555800  0.045100  0.931000  1
  H  H224  1  0.444200  0.954900  0.069000  1
  H  H225  1  0.954000  0.088100  0.851300  1
  H  H226  1  0.046000  0.911900  0.148700  1
  H  H227  1  0.388900  0.313300  0.913300  1
  H  H228  1  0.611100  0.686700  0.086700  1
  H  H229  1  0.757900  0.601700  0.566900  1
  H  H230  1  0.242100  0.398300  0.433100  1
  H  H231  1  0.572500  0.326100  0.461300  1
  H  H232  1  0.427500  0.673900  0.538700  1
  H  H233  1  0.506000  0.961400  0.832300  1
  H  H234  1  0.494000  0.038600  0.167700  1
  H  H235  1  0.229700  0.075600  0.775500  1
  H  H236  1  0.770300  0.924400  0.224500  1
  H  H237  1  0.931900  0.395600  0.618300  1
  H  H238  1  0.068100  0.604400  0.381700  1
  H  H239  1  0.549400  0.120100  0.983500  1
  H  H240  1  0.450600  0.879900  0.016500  1
  H  H241  1  0.030300  0.918600  0.865700  1
  H  H242  1  0.969700  0.081400  0.134300  1
  H  H243  1  0.728700  0.024300  0.570800  1
  H  H244  1  0.271300  0.975700  0.429200  1
  H  H245  1  0.800000  0.190700  0.480800  1
  H  H246  1  0.200000  0.809300  0.519200  1
  H  H247  1  0.624500  0.597400  0.471200  1
  H  H248  1  0.375500  0.402600  0.528800  1
  H  H249  1  0.871800  0.082900  0.504400  1
  H  H250  1  0.128200  0.917100  0.495600  1
  H  H251  1  0.672500  0.489200  0.465900  1
  H  H252  1  0.327500  0.510800  0.534100  1
  H  H253  1  0.457900  0.204700  0.926400  1
  H  H254  1  0.542100  0.795300  0.073600  1
  H  H255  1  0.429400  0.181800  0.625400  1
  H  H256  1  0.570600  0.818200  0.374600  1
  H  H257  1  0.949100  0.162200  0.906700  1
  H  H258  1  0.050900  0.837800  0.093300  1
  H  H259  1  0.663800  0.655100  0.521300  1
  H  H260  1  0.336200  0.344900  0.478700  1
  H  H261  1  0.858700  0.288300  0.507900  1
  H  H262  1  0.141300  0.711700  0.492100  1
  H  H263  1  0.376300  0.295500  0.614200  1
  H  H264  1  0.623700  0.704500  0.385800  1
  H  H265  1  0.467100  0.348300  0.478900  1
  H  H266  1  0.532900  0.651700  0.521100  1
  H  H267  1  0.832600  0.004500  0.551500  1
  H  H268  1  0.167400  0.995500  0.448500  1
  H  H269  1  0.976600  0.285000  0.616200  1
  H  H270  1  0.023400  0.715000  0.383800  1
  H  H271  1  0.068700  0.129500  0.670600  1
  H  H272  1  0.931300  0.870500  0.329400  1
  H  H273  1  0.906400  0.044300  0.613900  1
  H  H274  1  0.093600  0.955700  0.386100  1
  H  H275  1  0.426400  0.266000  0.526600  1
  H  H276  1  0.573600  0.734000  0.473400  1
  H  H277  1  0.960400  0.104400  0.566600  1
  H  H278  1  0.039600  0.895600  0.433400  1
  H  H279  1  0.039000  0.149200  0.596400  1
  H  H280  1  0.961000  0.850800  0.403600  1
  H  H281  1  0.497700  0.172200  0.561200  1
  H  H282  1  0.502300  0.827800  0.438800  1
  H  H283  1  0.504700  0.996400  0.611600  1
  H  H284  1  0.495300  0.003600  0.388400  1
  H  H285  1  0.541700  0.054000  0.550100  1
  H  H286  1  0.458300  0.946000  0.449900  1
  H  H287  1  0.956000  0.242500  0.545700  1
  H  H288  1  0.044000  0.757500  0.454300  1
  H  H289  1  0.221500  0.618800  0.777700  1
  H  H290  1  0.778500  0.381200  0.222300  1
  H  H291  1  0.187000  0.610300  0.732000  1
  H  H292  1  0.813000  0.389700  0.268000  1
  H  H293  1  0.168200  0.722500  0.745000  1
  H  H294  1  0.831800  0.277500  0.255000  1
  H  H295  1  0.244200  0.715500  0.738700  1
  H  H296  1  0.755800  0.284500  0.261300  1
  H  H297  1  0.172300  0.787800  0.633300  1
  H  H298  1  0.827700  0.212200  0.366700  1
  H  H299  1  0.213000  0.800000  0.674700  1
  H  H300  1  0.787000  0.200000  0.325300  1
  H  H301  1  0.138200  0.801500  0.680000  1
  H  H302  1  0.861800  0.198500  0.320000  1
  H  H303  1  0.191000  0.444300  0.808700  1
  H  H304  1  0.809000  0.555700  0.191300  1
  H  H305  1  0.156500  0.420600  0.768800  1
  H  H306  1  0.843500  0.579400  0.231200  1
  H  H307  1  0.125200  0.371300  0.833600  1
  H  H308  1  0.874800  0.628700  0.166400  1
  H  H309  1  0.178200  0.315100  0.813300  1
  H  H310  1  0.821800  0.684900  0.186700  1
  H  H311  1  0.230300  0.280400  0.923300  1
  H  H312  1  0.769700  0.719600  0.076700  1
  H  H313  1  0.216900  0.249600  0.879300  1
  H  H314  1  0.783100  0.750400  0.120700  1
  H  H315  1  0.157900  0.293600  0.903700  1
  H  H316  1  0.842100  0.706400  0.096300  1
  H  H317  1  0.733600  0.464100  0.350300  1
  H  H318  1  0.266400  0.535900  0.649700  1
  H  H319  1  0.804800  0.415600  0.350000  1
  H  H320  1  0.195200  0.584400  0.650000  1
  H  H321  1  0.846700  0.502300  0.373500  1
  H  H322  1  0.153300  0.497700  0.626500  1
  H  H323  1  0.816500  0.517400  0.323000  1
  H  H324  1  0.183500  0.482600  0.677000  1
  H  H325  1  0.753900  0.659400  0.376700  1
  H  H326  1  0.246100  0.340600  0.623300  1
  H  H327  1  0.803600  0.633400  0.338900  1
  H  H328  1  0.196400  0.366600  0.661100  1
  H  H329  1  0.822900  0.610500  0.391100  1
  H  H330  1  0.177100  0.389500  0.608900  1
  H  H331  1  0.687200  0.296600  0.333200  1
  H  H332  1  0.312800  0.703400  0.666800  1
  H  H333  1  0.614200  0.327300  0.347000  1
  H  H334  1  0.385800  0.672700  0.653000  1
  H  H335  1  0.625400  0.246100  0.295400  1
  H  H336  1  0.374600  0.753900  0.704600  1
  H  H337  1  0.660400  0.192900  0.336200  1
  H  H338  1  0.339600  0.807100  0.663800  1
  H  H339  1  0.500000  0.182100  0.335600  1
  H  H340  1  0.500000  0.817900  0.664400  1
  H  H341  1  0.572700  0.140600  0.329900  1
  H  H342  1  0.427300  0.859400  0.670100  1
  H  H343  1  0.537900  0.196600  0.290900  1
  H  H344  1  0.462100  0.803400  0.709100  1
  H  H345  1  0.286100  0.144100  0.774300  1
  H  H346  1  0.713900  0.855900  0.225700  1
  H  H347  1  0.290200  0.213200  0.788000  1
  H  H348  1  0.709800  0.786800  0.212000  1
  H  H349  1  0.220600  0.259800  0.719000  1
  H  H350  1  0.779400  0.740200  0.281000  1
  H  H351  1  0.296400  0.229600  0.712500  1
  H  H352  1  0.703600  0.770400  0.287500  1
  H  H353  1  0.194000  0.219500  0.639900  1
  H  H354  1  0.806000  0.780500  0.360100  1
  H  H355  1  0.249100  0.155500  0.632500  1
  H  H356  1  0.750900  0.844500  0.367500  1
  H  H357  1  0.268600  0.220100  0.641800  1
  H  H358  1  0.731400  0.779900  0.358200  1
  H  H359  1  0.255300  0.962800  0.781900  1
  H  H360  1  0.744700  0.037200  0.218100  1
  H  H361  1  0.255900  0.996200  0.730900  1
  H  H362  1  0.744100  0.003800  0.269100  1
  H  H363  1  0.219800  0.904100  0.708700  1
  H  H364  1  0.780200  0.095900  0.291300  1
  H  H365  1  0.294000  0.887500  0.725900  1
  H  H366  1  0.706000  0.112500  0.274100  1
  H  H367  1  0.141100  0.905100  0.761000  1
  H  H368  1  0.858900  0.094900  0.239000  1
  H  H369  1  0.154100  0.851500  0.804400  1
  H  H370  1  0.845900  0.148500  0.195600  1
  H  H371  1  0.155300  0.829500  0.755200  1
  H  H372  1  0.844700  0.170500  0.244800  1
  H  H373  1  0.783700  0.325900  0.107900  1
  H  H374  1  0.216300  0.674100  0.892100  1
  H  H375  1  0.709400  0.333000  0.120600  1
  H  H376  1  0.290600  0.667000  0.879400  1
  H  H377  1  0.753100  0.416400  0.146200  1
  H  H378  1  0.246900  0.583600  0.853800  1
  H  H379  1  0.759200  0.443200  0.094400  1
  H  H380  1  0.240800  0.556800  0.905600  1
  H  H381  1  0.614700  0.544600  0.126100  1
  H  H382  1  0.385300  0.455400  0.873900  1
  H  H383  1  0.684100  0.545500  0.106500  1
  H  H384  1  0.315900  0.454500  0.893500  1
  H  H385  1  0.678200  0.517400  0.157900  1
  H  H386  1  0.321800  0.482600  0.842100  1
  H  H387  1  0.738600  0.126400  0.113200  1
  H  H388  1  0.261400  0.873600  0.886800  1
  H  H389  1  0.812700  0.128900  0.107700  1
  H  H390  1  0.187300  0.871100  0.892300  1
  H  H391  1  0.799900  0.023100  0.141100  1
  H  H392  1  0.200100  0.976900  0.858900  1
  H  H393  1  0.771600  0.015700  0.092900  1
  H  H394  1  0.228400  0.984300  0.907100  1
  H  H395  1  0.933600  0.930100  0.090200  1
  H  H396  1  0.066400  0.069900  0.909800  1
  H  H397  1  0.861200  0.923800  0.085000  1
  H  H398  1  0.138800  0.076200  0.915000  1
  H  H399  1  0.889400  0.929500  0.133400  1
  H  H400  1  0.110600  0.070500  0.866600  1
  Pd  Pd401  1  0.773660  0.583540  0.731810  1
  Pd  Pd402  1  0.226340  0.416460  0.268190  1
  Pd  Pd403  1  0.675180  0.005660  0.725650  1
  Pd  Pd404  1  0.324820  0.994340  0.274350  1
  C  C405  1  0.884600  0.867800  0.977700  1
  C  C406  1  0.115400  0.132200  0.022300  1
  C  C407  1  0.834700  0.835200  0.980800  1
  C  C408  1  0.165300  0.164800  0.019200  1
  C  C409  1  0.770600  0.862800  0.990800  1
  C  C410  1  0.229400  0.137200  0.009200  1
  C  C411  1  0.756200  0.932200  0.998300  1
  C  C412  1  0.243800  0.067800  0.001700  1
  C  C413  1  0.802900  0.965700  0.994000  1
  C  C414  1  0.197100  0.034300  0.006000  1
  C  C415  1  0.866600  0.931800  0.984400  1
  C  C416  1  0.133400  0.068200  0.015600  1
  C  C417  1  0.917100  0.968300  0.979900  1
  C  C418  1  0.082900  0.031700  0.020100  1
  C  C419  1  0.981000  0.936700  0.969000  1
  C  C420  1  0.019000  0.063300  0.031000  1
  C  C421  1  0.999500  0.870600  0.963500  1
  C  C422  1  0.000500  0.129400  0.036500  1
  C  C423  1  0.065700  0.840400  0.955900  1
  C  C424  1  0.934300  0.159600  0.044100  1
  C  C425  1  0.081200  0.774400  0.948800  1
  C  C426  1  0.918800  0.225600  0.051200  1
  C  C427  1  0.038400  0.739400  0.949800  1
  C  C428  1  0.961600  0.260600  0.050200  1
  C  C429  1  0.972400  0.768300  0.959600  1
  C  C430  1  0.027600  0.231700  0.040400  1
  C  C431  1  0.953900  0.834300  0.966800  1
  C  C432  1  0.046100  0.165700  0.033200  1
  C  C433  1  0.232900  0.639500  0.247500  1
  C  C434  1  0.767100  0.360500  0.752500  1
  C  C435  1  0.166100  0.671900  0.244100  1
  C  C436  1  0.833900  0.328100  0.755900  1
  C  C437  1  0.129200  0.693100  0.204300  1
  C  C438  1  0.870800  0.306900  0.795700  1
  C  C439  1  0.165300  0.676300  0.162800  1
  C  C440  1  0.834700  0.323700  0.837200  1
  C  C441  1  0.230200  0.645000  0.165200  1
  C  C442  1  0.769800  0.355000  0.834800  1
  C  C443  1  0.262200  0.628500  0.208000  1
  C  C444  1  0.737800  0.371500  0.792000  1
  C  C445  1  0.332000  0.592800  0.210600  1
  C  C446  1  0.668000  0.407200  0.789400  1
  C  C447  1  0.366600  0.577900  0.252400  1
  C  C448  1  0.633400  0.422100  0.747600  1
  C  C449  1  0.336700  0.593400  0.292700  1
  C  C450  1  0.663300  0.406600  0.707300  1
  C  C451  1  0.374900  0.580200  0.333400  1
  C  C452  1  0.625100  0.419800  0.666600  1
  C  C453  1  0.341200  0.594600  0.373100  1
  C  C454  1  0.658800  0.405400  0.626900  1
  C  C455  1  0.278400  0.619900  0.374400  1
  C  C456  1  0.721600  0.380100  0.625600  1
  C  C457  1  0.239600  0.635100  0.333333  1
  C  C458  1  0.760400  0.364900  0.666667  1
  C  C459  1  0.270400  0.620400  0.292700  1
  C  C460  1  0.729600  0.379600  0.707300  1
  C  C461  1  0.319300  0.775100  0.249600  1
  C  C462  1  0.680700  0.224900  0.750400  1
  C  C463  1  0.386400  0.747200  0.249300  1
  C  C464  1  0.613600  0.252800  0.750700  1
  C  C465  1  0.422600  0.732300  0.211600  1
  C  C466  1  0.577400  0.267700  0.788400  1
  C  C467  1  0.384300  0.748100  0.168200  1
  C  C468  1  0.615700  0.251900  0.831800  1
  C  C469  1  0.318800  0.777200  0.167300  1
  C  C470  1  0.681200  0.222800  0.832700  1
  C  C471  1  0.287900  0.787200  0.208700  1
  C  C472  1  0.712100  0.212800  0.791300  1
  C  C473  1  0.217300  0.817100  0.208300  1
  C  C474  1  0.782700  0.182900  0.791700  1
  C  C475  1  0.183900  0.825200  0.249500  1
  C  C476  1  0.816100  0.174800  0.750500  1
  C  C477  1  0.216300  0.809500  0.291300  1
  C  C478  1  0.783700  0.190500  0.708700  1
  C  C479  1  0.180700  0.820000  0.331400  1
  C  C480  1  0.819300  0.180000  0.668600  1
  C  C481  1  0.217500  0.806100  0.372300  1
  C  C482  1  0.782500  0.193900  0.627700  1
  C  C483  1  0.280500  0.780800  0.375400  1
  C  C484  1  0.719500  0.219200  0.624600  1
  C  C485  1  0.317000  0.775100  0.335100  1
  C  C486  1  0.683000  0.224900  0.664900  1
  C  C487  1  0.283200  0.787800  0.293300  1
  C  C488  1  0.716800  0.212200  0.706700  1
  C  C489  1  0.614400  0.549700  0.997800  1
  C  C490  1  0.385600  0.450300  0.002200  1
  C  C491  1  0.645600  0.598600  0.000400  1
  C  C492  1  0.354400  0.401400  0.999600  1
  C  C493  1  0.712100  0.582100  0.015000  1
  C  C494  1  0.287900  0.417900  0.985000  1
  C  C495  1  0.738200  0.634900  0.020400  1
  C  C496  1  0.261800  0.365100  0.979600  1
  C  C497  1  0.707400  0.696500  0.009600  1
  C  C498  1  0.292600  0.303500  0.990400  1
  C  C499  1  0.644800  0.712900  0.987300  1
  C  C500  1  0.355200  0.287100  0.012700  1
  C  C501  1  0.612900  0.663100  0.986100  1
  C  C502  1  0.387100  0.336900  0.013900  1
  C  C503  1  0.543900  0.678300  0.966900  1
  C  C504  1  0.456100  0.321700  0.033100  1
  C  C505  1  0.508900  0.742500  0.949900  1
  C  C506  1  0.491100  0.257500  0.050100  1
  C  C507  1  0.447200  0.759400  0.929500  1
  C  C508  1  0.552800  0.240600  0.070500  1
  C  C509  1  0.418600  0.703600  0.927300  1
  C  C510  1  0.581400  0.296400  0.072700  1
  C  C511  1  0.451900  0.640900  0.942400  1
  C  C512  1  0.548100  0.359100  0.057600  1
  C  C513  1  0.514100  0.630400  0.962600  1
  C  C514  1  0.485900  0.369600  0.037400  1
  C  C515  1  0.550200  0.563100  0.980100  1
  C  C516  1  0.449800  0.436900  0.019900  1
  C  C517  1  0.952400  0.462500  0.798800  1
  C  C518  1  0.047600  0.537500  0.201200  1
  C  C519  1  0.698500  0.119000  0.946500  1
  C  C520  1  0.301500  0.881000  0.053500  1
  C  C521  1  0.716700  0.552700  0.820400  1
  C  C522  1  0.283300  0.447300  0.179600  1
  C  C523  1  0.418500  0.541600  0.712000  1
  C  C524  1  0.581500  0.458400  0.288000  1
  C  C525  1  0.894000  0.485900  0.773900  1
  C  C526  1  0.106000  0.514100  0.226100  1
  C  C527  1  0.579000  0.627500  0.672300  1
  C  C528  1  0.421000  0.372500  0.327700  1
  C  C529  1  0.729300  0.264300  0.960800  1
  C  C530  1  0.270700  0.735700  0.039200  1
  C  C531  1  0.635600  0.600500  0.697500  1
  C  C532  1  0.364400  0.399500  0.302500  1
  C  C533  1  0.798100  0.936800  0.867600  1
  C  C534  1  0.201900  0.063200  0.132400  1
  C  C535  1  0.757300  0.419300  0.952200  1
  C  C536  1  0.242700  0.580700  0.047800  1
  C  C537  1  0.761600  0.913900  0.796600  1
  C  C538  1  0.238400  0.086100  0.203400  1
  C  C539  1  0.720500  0.319100  0.985100  1
  C  C540  1  0.279500  0.680900  0.014900  1
  C  C541  1  0.441200  0.578500  0.741200  1
  C  C542  1  0.558800  0.421500  0.258800  1
  C  C543  1  0.744500  0.199800  0.981700  1
  C  C544  1  0.255500  0.800200  0.018300  1
  C  C545  1  0.682100  0.561500  0.859900  1
  C  C546  1  0.317900  0.438500  0.140100  1
  C  C547  1  0.747500  0.479500  0.920400  1
  C  C548  1  0.252500  0.520500  0.079600  1
  C  C549  1  0.700700  0.071900  0.914000  1
  C  C550  1  0.299300  0.928100  0.086000  1
  C  C551  1  0.052500  0.308400  0.747100  1
  C  C552  1  0.947500  0.691600  0.252900  1
  C  C553  1  0.063300  0.260700  0.784800  1
  C  C554  1  0.936700  0.739300  0.215200  1
  C  C555  1  0.819100  0.395700  0.977300  1
  C  C556  1  0.180900  0.604300  0.022700  1
  C  C557  1  0.579000  0.679900  0.637300  1
  C  C558  1  0.421000  0.320100  0.362700  1
  C  C559  1  0.637100  0.471600  0.901100  1
  C  C560  1  0.362900  0.528400  0.098900  1
  C  C561  1  0.044800  0.277800  0.828100  1
  C  C562  1  0.955200  0.722200  0.171900  1
  C  C563  1  0.696100  0.118000  0.538500  1
  C  C564  1  0.303900  0.882000  0.461500  1
  C  C565  1  0.681300  0.663800  0.791900  1
  C  C566  1  0.318700  0.336200  0.208100  1
  C  C567  1  0.814700  0.526800  0.645600  1
  C  C568  1  0.185300  0.473200  0.354400  1
  C  C569  1  0.761100  0.003800  0.857400  1
  C  C570  1  0.238900  0.996200  0.142600  1
  C  C571  1  0.743700  0.242800  0.055200  1
  C  C572  1  0.256300  0.757200  0.944800  1
  C  C573  1  0.872500  0.588800  0.800700  1
  C  C574  1  0.127500  0.411200  0.199300  1
  C  C575  1  0.970600  0.503300  0.826700  1
  C  C576  1  0.029400  0.496700  0.173300  1
  C  C577  1  0.445000  0.536700  0.668300  1
  C  C578  1  0.555000  0.463300  0.331700  1
  C  C579  1  0.728300  0.021000  0.815000  1
  C  C580  1  0.271700  0.979000  0.185000  1
  C  C581  1  0.706800  0.386600  0.957000  1
  C  C582  1  0.293200  0.613400  0.043000  1
  C  C583  1  0.019000  0.378100  0.752100  1
  C  C584  1  0.981000  0.621900  0.247900  1
  C  C585  1  0.647300  0.411600  0.932800  1
  C  C586  1  0.352700  0.588400  0.067200  1
  C  C587  1  0.399800  0.279400  0.724700  1
  C  C588  1  0.600200  0.720600  0.275300  1
  C  C589  1  0.688500  0.503100  0.895300  1
  C  C590  1  0.311500  0.496900  0.104700  1
  C  C591  1  0.635100  0.699200  0.628000  1
  C  C592  1  0.364900  0.300800  0.372000  1
  C  C593  1  0.496100  0.566700  0.654000  1
  C  C594  1  0.503900  0.433300  0.346000  1
  C  C595  1  0.876100  0.975600  0.686400  1
  C  C596  1  0.123900  0.024400  0.313600  1
  C  C597  1  0.520500  0.602800  0.684300  1
  C  C598  1  0.479500  0.397200  0.315700  1
  C  C599  1  0.385300  0.318000  0.762400  1
  C  C600  1  0.614700  0.682000  0.237600  1
  C  C601  1  0.491600  0.612100  0.726800  1
  C  C602  1  0.508400  0.387900  0.273200  1
  C  C603  1  0.637700  0.134900  0.972500  1
  C  C604  1  0.362300  0.865100  0.027500  1
  C  C605  1  0.014900  0.426700  0.713400  1
  C  C606  1  0.985100  0.573300  0.286600  1
  C  C607  1  0.906900  0.536000  0.601100  1
  C  C608  1  0.093100  0.464000  0.398900  1
  C  C609  1  0.030600  0.052200  0.738200  1
  C  C610  1  0.969400  0.947800  0.261800  1
  C  C611  1  0.554500  0.092900  0.759000  1
  C  C612  1  0.445500  0.907100  0.241000  1
  C  C613  1  0.646000  0.043500  0.910600  1
  C  C614  1  0.354000  0.956500  0.089400  1
  C  C615  1  0.726600  0.320000  0.495300  1
  C  C616  1  0.273400  0.680000  0.504700  1
  C  C617  1  0.402700  0.284700  0.806100  1
  C  C618  1  0.597300  0.715300  0.193900  1
  C  C619  1  0.644500  0.626200  0.863600  1
  C  C620  1  0.355500  0.373800  0.136400  1
  C  C621  1  0.757500  0.052200  0.890100  1
  C  C622  1  0.242500  0.947800  0.109900  1
  C  C623  1  0.851800  0.513300  0.607500  1
  C  C624  1  0.148200  0.486700  0.392500  1
  C  C625  1  0.812800  0.999100  0.703400  1
  C  C626  1  0.187200  0.000900  0.296600  1
  C  C627  1  0.796400  0.892700  0.836400  1
  C  C628  1  0.203600  0.107300  0.163600  1
  C  C629  1  0.643500  0.675300  0.829900  1
  C  C630  1  0.356500  0.324700  0.170100  1
  C  C631  1  0.748600  0.476500  0.512800  1
  C  C632  1  0.251400  0.523500  0.487200  1
  C  C633  1  0.885000  0.585700  0.671000  1
  C  C634  1  0.115000  0.414300  0.329000  1
  C  C635  1  0.749800  0.144800  0.952000  1
  C  C636  1  0.250200  0.855200  0.048000  1
  C  C637  1  0.857800  0.488000  0.940200  1
  C  C638  1  0.142200  0.512000  0.059800  1
  C  C639  1  0.482900  0.659400  0.799200  1
  C  C640  1  0.517100  0.340600  0.200800  1
  C  C641  1  0.957600  0.975000  0.748200  1
  C  C642  1  0.042400  0.025000  0.251800  1
  C  C643  1  0.494800  0.111300  0.781100  1
  C  C644  1  0.505200  0.888700  0.218900  1
  C  C645  1  0.771600  0.509100  0.545400  1
  C  C646  1  0.228400  0.490900  0.454600  1
  C  C647  1  0.767200  0.934800  0.661300  1
  C  C648  1  0.232800  0.065200  0.338700  1
  C  C649  1  0.440100  0.217000  0.813000  1
  C  C650  1  0.559900  0.783000  0.187000  1
  C  C651  1  0.986700  0.358100  0.878600  1
  C  C652  1  0.013300  0.641900  0.121400  1
  C  C653  1  0.357000  0.389100  0.754000  1
  C  C654  1  0.643000  0.610900  0.246000  1
  C  C655  1  0.938800  0.924400  0.778300  1
  C  C656  1  0.061200  0.075600  0.221700  1
  C  C657  1  0.423900  0.499300  0.635600  1
  C  C658  1  0.576100  0.500700  0.364400  1
  C  C659  1  0.698800  0.282100  0.469400  1
  C  C660  1  0.301200  0.717900  0.530600  1
  C  C661  1  0.994500  0.392400  0.795500  1
  C  C662  1  0.005500  0.607600  0.204500  1
  C  C663  1  0.723800  0.350200  0.402100  1
  C  C664  1  0.276200  0.649800  0.597900  1
  C  C665  1  0.692900  0.671000  0.656700  1
  C  C666  1  0.307100  0.329000  0.343300  1
  C  C667  1  0.395300  0.430800  0.736800  1
  C  C668  1  0.604700  0.569200  0.263200  1
  C  C669  1  0.007300  0.345800  0.833300  1
  C  C670  1  0.992700  0.654200  0.166700  1
  C  C671  1  0.928000  0.568600  0.827500  1
  C  C672  1  0.072000  0.431400  0.172500  1
  C  C673  1  0.501700  0.521500  0.580700  1
  C  C674  1  0.498300  0.478500  0.419300  1
  C  C675  1  0.524100  0.558100  0.608800  1
  C  C676  1  0.475900  0.441900  0.391200  1
  C  C677  1  0.008700  0.003400  0.768000  1
  C  C678  1  0.991300  0.996600  0.232000  1
  C  C679  1  0.415700  0.586100  0.786100  1
  C  C680  1  0.584300  0.413900  0.213900  1
  C  C681  1  0.371900  0.501500  0.728300  1
  C  C682  1  0.628100  0.498500  0.271700  1
  C  C683  1  0.828100  0.476500  0.572000  1
  C  C684  1  0.171900  0.523500  0.428000  1
  C  C685  1  0.714800  0.169900  0.508500  1
  C  C686  1  0.285200  0.830100  0.491500  1
  C  C687  1  0.264500  0.487100  0.753800  1
  C  C688  1  0.735500  0.512900  0.246200  1
  C  C689  1  0.059700  0.230200  0.868200  1
  C  C690  1  0.940300  0.769800  0.131800  1
  C  C691  1  0.807700  0.127800  0.926600  1
  C  C692  1  0.192300  0.872200  0.073400  1
  C  C693  1  0.092700  0.190600  0.778600  1
  C  C694  1  0.907300  0.809400  0.221400  1
  C  C695  1  0.637900  0.073300  0.632400  1
  C  C696  1  0.362100  0.926700  0.367600  1
  C  C697  1  0.380900  0.310700  0.678600  1
  C  C698  1  0.619100  0.689300  0.321400  1
  C  C699  1  0.925000  0.573300  0.632800  1
  C  C700  1  0.075000  0.426700  0.367200  1
  C  C701  1  0.033900  0.979400  0.812200  1
  C  C702  1  0.966100  0.020600  0.187800  1
  C  C703  1  0.810700  0.079700  0.894000  1
  C  C704  1  0.189300  0.920300  0.106000  1
  C  C705  1  0.594500  0.381500  0.937300  1
  C  C706  1  0.405500  0.618500  0.062700  1
  C  C707  1  0.052800  0.151500  0.765800  1
  C  C708  1  0.947200  0.848500  0.234200  1
  C  C709  1  0.577200  0.494500  0.875200  1
  C  C710  1  0.422800  0.505500  0.124800  1
  C  C711  1  0.435700  0.626700  0.812500  1
  C  C712  1  0.564300  0.373300  0.187500  1
  C  C713  1  0.477800  0.061300  0.811700  1
  C  C714  1  0.522200  0.938700  0.188300  1
  C  C715  1  0.510900  0.651600  0.757800  1
  C  C716  1  0.489100  0.348400  0.242200  1
  C  C717  1  0.384900  0.318400  0.846200  1
  C  C718  1  0.615100  0.681600  0.153800  1
  C  C719  1  0.866400  0.426200  0.971900  1
  C  C720  1  0.133600  0.573800  0.028100  1
  C  C721  1  0.780100  0.410200  0.508200  1
  C  C722  1  0.219900  0.589800  0.491800  1
  C  C723  1  0.860000  0.411800  0.567800  1
  C  C724  1  0.140000  0.588200  0.432200  1
  C  C725  1  0.455400  0.180800  0.775000  1
  C  C726  1  0.544600  0.819200  0.225000  1
  C  C727  1  0.860000  0.155000  0.930700  1
  C  C728  1  0.140000  0.845000  0.069300  1
  C  C729  1  0.799500  0.511100  0.916500  1
  C  C730  1  0.200500  0.488900  0.083500  1
  C  C731  1  0.673200  0.228900  0.492600  1
  C  C732  1  0.326800  0.771100  0.507400  1
  C  C733  1  0.001500  0.312200  0.916100  1
  C  C734  1  0.998500  0.687800  0.083900  1
  C  C735  1  0.931100  0.997200  0.702700  1
  C  C736  1  0.068900  0.002800  0.297300  1
  C  C737  1  0.037600  0.408700  0.672600  1
  C  C738  1  0.962400  0.591300  0.327400  1
  C  C739  1  0.536600  0.405000  0.913000  1
  C  C740  1  0.463400  0.595000  0.087000  1
  C  C741  1  0.075100  0.087200  0.756600  1
  C  C742  1  0.924900  0.912800  0.243400  1
  C  C743  1  0.433300  0.210400  0.730700  1
  C  C744  1  0.566700  0.789600  0.269300  1
  C  C745  1  0.574200  0.002500  0.658400  1
  C  C746  1  0.425800  0.997500  0.341600  1
  C  C747  1  0.039000  0.246600  0.910500  1
  C  C748  1  0.961000  0.753400  0.089500  1
  C  C749  1  0.462900  0.188100  0.860100  1
  C  C750  1  0.537100  0.811900  0.139900  1
  C  C751  1  0.440800  0.175700  0.693600  1
  C  C752  1  0.559200  0.824300  0.306400  1
  C  C753  1  0.837500  0.378200  0.534300  1
  C  C754  1  0.162500  0.621800  0.465700  1
  C  C755  1  0.882600  0.926500  0.655800  1
  C  C756  1  0.117400  0.073500  0.344200  1
  C  C757  1  0.964200  0.903500  0.820700  1
  C  C758  1  0.035800  0.096500  0.179300  1
  C  C759  1  0.869100  0.065000  0.868000  1
  C  C760  1  0.130900  0.935000  0.132000  1
  C  C761  1  0.073400  0.295600  0.701700  1
  C  C762  1  0.926600  0.704400  0.298300  1
  C  C763  1  0.574600  0.981900  0.788600  1
  C  C764  1  0.425400  0.018100  0.211400  1
  C  C765  1  0.449900  0.493300  0.594800  1
  C  C766  1  0.550100  0.506700  0.405200  1
  C  C767  1  0.607400  0.084200  0.587400  1
  C  C768  1  0.392600  0.915800  0.412600  1
  C  C769  1  0.826600  0.908900  0.642900  1
  C  C770  1  0.173400  0.091100  0.357100  1
  C  C771  1  0.530600  0.463000  0.880200  1
  C  C772  1  0.469400  0.537000  0.119800  1
  C  C773  1  0.068000  0.342900  0.666100  1
  C  C774  1  0.932000  0.657100  0.333900  1
  C  C775  1  0.581600  0.189400  0.531000  1
  C  C776  1  0.418400  0.810600  0.469000  1
  C  C777  1  0.591400  0.062700  0.935200  1
  C  C778  1  0.408600  0.937300  0.064800  1
  C  C779  1  0.918500  0.096400  0.870800  1
  C  C780  1  0.081500  0.903600  0.129200  1
  C  C781  1  0.752500  0.371800  0.476900  1
  C  C782  1  0.247500  0.628200  0.523100  1
  C  C783  1  0.958200  0.040700  0.674400  1
  C  C784  1  0.041800  0.959300  0.325600  1
  C  C785  1  0.604200  0.239200  0.503100  1
  C  C786  1  0.395800  0.760800  0.496900  1
  C  C787  1  0.403000  0.289900  0.888600  1
  C  C788  1  0.597000  0.710100  0.111400  1
  C  C789  1  0.740700  0.578400  0.547200  1
  C  C790  1  0.259300  0.421600  0.452800  1
  C  C791  1  0.009700  0.069300  0.691000  1
  C  C792  1  0.990300  0.930700  0.309000  1
  C  C793  1  0.558000  0.296300  0.482200  1
  C  C794  1  0.442000  0.703700  0.517800  1
  C  C795  1  0.517800  0.995600  0.813900  1
  C  C796  1  0.482200  0.004400  0.186100  1
  C  C797  1  0.184500  0.095200  0.772600  1
  C  C798  1  0.815500  0.904800  0.227400  1
  C  C799  1  0.628100  0.133000  0.551700  1
  C  C800  1  0.371900  0.867000  0.448300  1
  C  C801  1  0.915900  0.374300  0.596600  1
  C  C802  1  0.084100  0.625700  0.403400  1
  C  C803  1  0.587300  0.108200  0.966600  1
  C  C804  1  0.412700  0.891800  0.033400  1
  C  C805  1  0.012600  0.933300  0.836100  1
  C  C806  1  0.987400  0.066700  0.163900  1
  C  C807  1  0.742500  0.057300  0.552500  1
  C  C808  1  0.257500  0.942700  0.447500  1
  C  C809  1  0.784100  0.157700  0.497500  1
  C  C810  1  0.215900  0.842300  0.502500  1
  C  C811  1  0.661600  0.575700  0.489600  1
  C  C812  1  0.338400  0.424300  0.510400  1
  C  C813  1  0.827900  0.093000  0.513000  1
  C  C814  1  0.172100  0.907000  0.487000  1
  C  C815  1  0.690600  0.511200  0.486100  1
  C  C816  1  0.309400  0.488800  0.513900  1
  C  C817  1  0.444000  0.223800  0.896600  1
  C  C818  1  0.556000  0.776200  0.103400  1
  C  C819  1  0.421800  0.206000  0.650300  1
  C  C820  1  0.578200  0.794000  0.349700  1
  C  C821  1  0.915100  0.141800  0.903500  1
  C  C822  1  0.084900  0.858200  0.096500  1
  C  C823  1  0.684900  0.610700  0.519600  1
  C  C824  1  0.315100  0.389300  0.480400  1
  C  C825  1  0.873900  0.311100  0.529000  1
  C  C826  1  0.126100  0.688900  0.471000  1
  C  C827  1  0.390500  0.274900  0.643700  1
  C  C828  1  0.609500  0.725100  0.356300  1
  C  C829  1  0.496100  0.308500  0.491200  1
  C  C830  1  0.503900  0.691500  0.508800  1
  C  C831  1  0.803800  0.045400  0.541000  1
  C  C832  1  0.196200  0.954600  0.459000  1
  C  C833  1  0.946000  0.310200  0.593800  1
  C  C834  1  0.054000  0.689800  0.406200  1
  C  C835  1  0.037100  0.110300  0.660000  1
  C  C836  1  0.962900  0.889700  0.340000  1
  C  C837  1  0.940300  0.058900  0.626000  1
  C  C838  1  0.059700  0.941100  0.374000  1
  C  C839  1  0.471400  0.258300  0.521400  1
  C  C840  1  0.528600  0.741700  0.478600  1
  C  C841  1  0.971000  0.096100  0.597900  1
  C  C842  1  0.029000  0.903900  0.402100  1
  C  C843  1  0.019100  0.122400  0.616000  1
  C  C844  1  0.980900  0.877600  0.384000  1
  C  C845  1  0.513000  0.202300  0.541100  1
  C  C846  1  0.487000  0.797700  0.458900  1
  C  C847  1  0.540400  0.014100  0.615300  1
  C  C848  1  0.459600  0.985900  0.384700  1
  C  C849  1  0.559800  0.051000  0.579500  1
  C  C850  1  0.440200  0.949000  0.420500  1
  C  C851  1  0.928400  0.281700  0.553700  1
  C  C852  1  0.071600  0.718300  0.446300  1
  C  C853  1  0.306500  0.528000  0.736000  1
  C  C854  1  0.693500  0.472000  0.264000  1
  C  C855  1  0.221000  0.627600  0.744400  1
  C  C856  1  0.779000  0.372400  0.255600  1
  C  C857  1  0.207200  0.699200  0.730100  1
  C  C858  1  0.792800  0.300800  0.269900  1
  C  C859  1  0.178500  0.780800  0.666100  1
  C  C860  1  0.821500  0.219200  0.333900  1
  C  C861  1  0.291000  0.419800  0.760900  1
  C  C862  1  0.709000  0.580200  0.239100  1
  C  C863  1  0.189300  0.406000  0.793800  1
  C  C864  1  0.810700  0.594000  0.206200  1
  C  C865  1  0.171500  0.356500  0.826500  1
  C  C866  1  0.828500  0.643500  0.173500  1
  C  C867  1  0.203400  0.287500  0.895700  1
  C  C868  1  0.796600  0.712500  0.104300  1
  C  C869  1  0.748200  0.386800  0.429500  1
  C  C870  1  0.251800  0.613200  0.570500  1
  C  C871  1  0.778000  0.453000  0.363700  1
  C  C872  1  0.222000  0.547000  0.636300  1
  C  C873  1  0.806200  0.510200  0.355200  1
  C  C874  1  0.193800  0.489800  0.644800  1
  C  C875  1  0.787300  0.622100  0.368600  1
  C  C876  1  0.212700  0.377900  0.631400  1
  C  C877  1  0.696800  0.300100  0.421400  1
  C  C878  1  0.303200  0.699900  0.578600  1
  C  C879  1  0.649700  0.286800  0.349300  1
  C  C880  1  0.350300  0.713200  0.650700  1
  C  C881  1  0.628400  0.235500  0.328600  1
  C  C882  1  0.371600  0.764500  0.671400  1
  C  C883  1  0.542300  0.183700  0.323600  1
  C  C884  1  0.457700  0.816300  0.676400  1
  C  C885  1  0.159900  0.161100  0.780300  1
  C  C886  1  0.840100  0.838900  0.219700  1
  C  C887  1  0.263800  0.191100  0.771600  1
  C  C888  1  0.736200  0.808900  0.228400  1
  C  C889  1  0.256000  0.219200  0.723000  1
  C  C890  1  0.744000  0.780800  0.277000  1
  C  C891  1  0.238000  0.193600  0.648900  1
  C  C892  1  0.762000  0.806400  0.351100  1
  C  C893  1  0.142300  0.058900  0.760800  1
  C  C894  1  0.857700  0.941100  0.239200  1
  C  C895  1  0.236200  0.967100  0.751300  1
  C  C896  1  0.763800  0.032900  0.248700  1
  C  C897  1  0.248500  0.901800  0.735100  1
  C  C898  1  0.751500  0.098200  0.264900  1
  C  C899  1  0.165700  0.861000  0.773100  1
  C  C900  1  0.834300  0.139000  0.226900  1
  C  C901  1  0.728200  0.306100  0.032900  1
  C  C902  1  0.271800  0.693900  0.967100  1
  C  C903  1  0.739000  0.353800  0.102500  1
  C  C904  1  0.261000  0.646200  0.897500  1
  C  C905  1  0.734500  0.420200  0.115400  1
  C  C906  1  0.265500  0.579800  0.884600  1
  C  C907  1  0.660600  0.521300  0.127200  1
  C  C908  1  0.339400  0.478700  0.872800  1
  C  C909  1  0.751000  0.189200  0.029700  1
  C  C910  1  0.249000  0.810800  0.970300  1
  C  C911  1  0.779000  0.109000  0.097600  1
  C  C912  1  0.221000  0.891000  0.902400  1
  C  C913  1  0.800700  0.036000  0.108200  1
  C  C914  1  0.199300  0.964000  0.891800  1
  C  C915  1  0.889500  0.943700  0.101000  1
  C  C916  1  0.110500  0.056300  0.899000  1
  C  C917  1  0.916400  0.745400  0.833200  1
  C  C918  1  0.083600  0.254600  0.166800  1
  C  C919  1  0.662100  0.869700  0.723400  1
  C  C920  1  0.337900  0.130300  0.276600  1
  C  C921  1  0.630600  0.828400  0.722000  1
  C  C922  1  0.369400  0.171600  0.278000  1
  C  C923  1  0.518800  0.822600  0.814100  1
  C  C924  1  0.481200  0.177400  0.185900  1
  C  C925  1  0.656800  0.843400  0.883100  1
  C  C926  1  0.343200  0.156600  0.116900  1
  C  C927  1  0.589700  0.858100  0.878700  1
  C  C928  1  0.410300  0.141900  0.121300  1
  C  C929  1  0.106700  0.478900  0.923100  1
  C  C930  1  0.893300  0.521100  0.076900  1
  C  C931  1  0.061100  0.555800  0.907700  1
  C  C932  1  0.938900  0.444200  0.092300  1
  C  C933  1  0.014400  0.420600  0.045500  1
  C  C934  1  0.985600  0.579400  0.954500  1
  C  C935  1  0.031500  0.491800  0.976100  1
  C  C936  1  0.968500  0.508200  0.023900  1
  C  C937  1  0.080600  0.405200  0.997400  1
  C  C938  1  0.919400  0.594800  0.002600  1
  N  N939  1  0.062300  0.581900  0.734300  1
  N  N940  1  0.937700  0.418100  0.265700  1
  N  N941  1  0.807200  0.757400  0.742100  1
  N  N942  1  0.192800  0.242600  0.257900  1
  N  N943  1  0.427500  0.091600  0.001000  1
  N  N944  1  0.572500  0.908400  0.999000  1
  N  N945  1  0.400200  0.989700  0.745500  1
  N  N946  1  0.599800  0.010300  0.254500  1
  N  N947  1  0.622400  0.033100  0.666200  1
  N  N948  1  0.377600  0.966900  0.333800  1
  N  N949  1  0.761100  0.978600  0.692400  1
  N  N950  1  0.238900  0.021400  0.307600  1
  N  N951  1  0.729000  0.976000  0.785500  1
  N  N952  1  0.271000  0.024000  0.214500  1
  N  N953  1  0.593000  0.029800  0.761500  1
  N  N954  1  0.407000  0.970200  0.238500  1
  N  N955  1  0.716700  0.602800  0.786300  1
  N  N956  1  0.283300  0.397200  0.213700  1
  N  N957  1  0.692700  0.621400  0.690000  1
  N  N958  1  0.307300  0.378600  0.310000  1
  N  N959  1  0.830800  0.562800  0.676800  1
  N  N960  1  0.169200  0.437200  0.323200  1
  N  N961  1  0.854100  0.546900  0.774600  1
  N  N962  1  0.145900  0.453100  0.225400  1
  O  O963  1  0.883800  0.536000  0.462300  1
  O  O964  1  0.116200  0.464000  0.537700  1
  O  O965  1  0.957900  0.582000  0.492200  1
  O  O966  1  0.042100  0.418000  0.507800  1
  O  O967  1  0.798600  0.694700  0.900500  1
  O  O968  1  0.201400  0.305300  0.099500  1
  O  O969  1  0.682100  0.846400  0.611700  1
  O  O970  1  0.317900  0.153600  0.388300  1
  O  O971  1  0.004300  0.611000  0.733200  1
  O  O972  1  0.995700  0.389000  0.266800  1
  O  O973  1  0.091200  0.560000  0.770800  1
  O  O974  1  0.908800  0.440000  0.229200  1
  O  O975  1  0.088200  0.564600  0.699100  1
  O  O976  1  0.911800  0.435400  0.300900  1
  O  O977  1  0.797100  0.720200  0.716100  1
  O  O978  1  0.202900  0.279800  0.283900  1
  O  O979  1  0.789600  0.750300  0.781700  1
  O  O980  1  0.210400  0.249700  0.218300  1
  O  O981  1  0.853000  0.783100  0.734900  1
  O  O982  1  0.147000  0.216900  0.265100  1
  O  O983  1  0.438100  0.054000  0.972000  1
  O  O984  1  0.561900  0.946000  0.028000  1
  O  O985  1  0.463700  0.080900  0.034800  1
  O  O986  1  0.536300  0.919100  0.965200  1
  O  O987  1  0.377700  0.136800  0.998200  1
  O  O988  1  0.622300  0.863200  0.001800  1
  O  O989  1  0.434800  0.989500  0.712200  1
  O  O990  1  0.565200  0.010500  0.287800  1
  O  O991  1  0.358100  0.040000  0.750800  1
  O  O992  1  0.641900  0.960000  0.249200  1
  O  O993  1  0.396500  0.936800  0.766100  1
  O  O994  1  0.603500  0.063200  0.233900  1
  O  O995  1  0.284900  0.595800  0.727300  1
  O  O996  1  0.715100  0.404200  0.272700  1
  O  O997  1  0.196800  0.710300  0.681800  1
  O  O998  1  0.803200  0.289700  0.318200  1
  O  O999  1  0.254000  0.376500  0.775800  1
  O  O1000  1  0.746000  0.623500  0.224200  1
  O  O1001  1  0.211000  0.346300  0.867000  1
  O  O1002  1  0.789000  0.653700  0.133000  1
  O  O1003  1  0.776600  0.436300  0.413200  1
  O  O1004  1  0.223400  0.563700  0.586800  1
  O  O1005  1  0.759400  0.566300  0.367300  1
  O  O1006  1  0.240600  0.433700  0.632700  1
  O  O1007  1  0.668000  0.262500  0.397200  1
  O  O1008  1  0.332000  0.737500  0.602800  1
  O  O1009  1  0.566900  0.231700  0.345200  1
  O  O1010  1  0.433100  0.768300  0.654800  1
  O  O1011  1  0.198600  0.200500  0.791000  1
  O  O1012  1  0.801400  0.799500  0.209000  1
  O  O1013  1  0.241100  0.172000  0.697500  1
  O  O1014  1  0.758900  0.828000  0.302500  1
  O  O1015  1  0.164800  0.994400  0.751600  1
  O  O1016  1  0.835200  0.005600  0.248400  1
  O  O1017  1  0.236000  0.856400  0.771200  1
  O  O1018  1  0.764000  0.143600  0.228800  1
  O  O1019  1  0.720600  0.362100  0.054000  1
  O  O1020  1  0.279400  0.637900  0.946000  1
  O  O1021  1  0.668000  0.455800  0.113800  1
  O  O1022  1  0.332000  0.544200  0.886200  1
  O  O1023  1  0.768200  0.124100  0.048100  1
  O  O1024  1  0.231800  0.875900  0.951900  1
  O  O1025  1  0.865700  0.015300  0.092500  1
  O  O1026  1  0.134300  0.984700  0.907500  1
  O  O1027  1  0.962300  0.486600  0.484700  1
  O  O1028  1  0.037700  0.513400  0.515300  1
  O  O1029  1  0.864900  0.690300  0.906000  1
  O  O1030  1  0.135100  0.309700  0.094000  1
  O  O1031  1  0.994100  0.967800  0.515200  1
  O  O1032  1  0.005900  0.032200  0.484800  1
