
#######################################################################
#
#                 Cambridge Crystallographic Data Centre
#                                CCDC 
#
#######################################################################
#
# If this CIF has been generated from an entry in the Cambridge 
# Structural Database, then it will include bibliographic, chemical, 
# crystal, experimental, refinement or atomic coordinate data resulting 
# from the CCDC's data processing and validation procedures.
#
#######################################################################

data_ZEZREE
_chemical_formula_moiety         'C15 H27 In1 O3 S6'
_chemical_name_systematic        
'tris(O-(2-methylpropyl) carbonodithioato)-indium'
_symmetry_cell_setting           orthorhombic
_symmetry_space_group_name_H-M   'P b c a'
_symmetry_Int_Tables_number      61
_space_group_name_Hall           '-P 2ac 2ab'
loop_
_symmetry_equiv_pos_site_id
_symmetry_equiv_pos_as_xyz
1 x,y,z
2 1/2+x,1/2-y,-z
3 -x,1/2+y,1/2-z
4 1/2-x,-y,1/2+z
5 -x,-y,-z
6 1/2-x,1/2+y,z
7 x,1/2-y,1/2+z
8 1/2+x,y,1/2-z
_cell_length_a                   19.7328(5)
_cell_length_b                   9.9324(3)
_cell_length_c                   23.6448(6)
_cell_angle_alpha                90
_cell_angle_beta                 90
_cell_angle_gamma                90
_cell_volume                     4634.24
_exptl_crystal_colour            white
_exptl_crystal_description       block
_cell_formula_units_Z            8
loop_
_atom_site_label
_atom_site_type_symbol
_atom_site_fract_x
_atom_site_fract_y
_atom_site_fract_z
In1 In 0.94079(2) 0.10047(3) 0.72840(2)
S1 S 0.89126(6) 0.02366(12) 0.63297(5)
S2 S 0.96116(5) 0.28651(10) 0.65132(4)
S3 S 1.02987(5) 0.19183(9) 0.80029(4)
S4 S 1.05727(5) -0.01059(9) 0.71098(4)
S5 S 0.83592(5) 0.20842(9) 0.77766(4)
S6 S 0.87830(5) -0.07901(9) 0.78752(5)
O1 O 0.91276(19) 0.1862(4) 0.55351(14)
O2 O 1.14934(15) 0.0805(3) 0.77674(12)
O3 O 0.77638(15) 0.0206(3) 0.84036(12)
C1 C 0.9226(2) 0.1729(5) 0.60842(19)
C2 C 0.9387(3) 0.3041(5) 0.5267(2)
H1 H 0.9881 0.3119 0.5334
H2 H 0.9163 0.3855 0.5420
C3 C 0.9241(3) 0.2898(6) 0.4633(2)
H3 H 0.8747 0.2694 0.4588
C4 C 0.9624(4) 0.1785(6) 0.4385(2)
H4 H 0.9515 0.1713 0.3981
H5 H 0.9504 0.0944 0.4576
H6 H 1.0111 0.1955 0.4430
C5 C 0.9380(3) 0.4240(6) 0.4352(2)
H7 H 0.9865 0.4439 0.4373
H8 H 0.9125 0.4949 0.4547
H9 H 0.9239 0.4200 0.3955
C6 C 1.0843(2) 0.0885(4) 0.76505(16)
C7 C 1.1768(2) 0.1530(4) 0.82533(17)
H10 H 1.1546 0.2421 0.8284
H11 H 1.2260 0.1679 0.8199
C8 C 1.1652(2) 0.0738(4) 0.87954(18)
H12 H 1.1156 0.0544 0.8829
C9 C 1.1862(3) 0.1602(5) 0.9298(2)
H13 H 1.1744 0.1139 0.9650
H14 H 1.1626 0.2469 0.9280
H15 H 1.2353 0.1755 0.9285
C10 C 1.2030(2) -0.0595(4) 0.8786(2)
H16 H 1.2519 -0.0425 0.8782
H17 H 1.1903 -0.1102 0.8446
H18 H 1.1912 -0.1119 0.9123
C11 C 0.8253(2) 0.0507(4) 0.80424(17)
C12 C 0.7292(2) 0.1259(4) 0.85794(18)
H19 H 0.7007 0.1541 0.8256
H20 H 0.7545 0.2053 0.8719
C13 C 0.6852(2) 0.0683(4) 0.90482(17)
H21 H 0.6615 -0.0132 0.8899
C14 C 0.7271(3) 0.0268(6) 0.9559(2)
H22 H 0.7599 -0.0423 0.9446
H23 H 0.6971 -0.0096 0.9852
H24 H 0.7512 0.1054 0.9708
C15 C 0.6321(2) 0.1725(4) 0.92053(19)
H25 H 0.6545 0.2549 0.9335
H26 H 0.6033 0.1370 0.9508
H27 H 0.6041 0.1930 0.8873
loop_
_geom_bond_atom_site_label_1
_geom_bond_atom_site_label_2
_geom_bond_site_symmetry_1
_geom_bond_site_symmetry_2
In1 S1 1_555 1_555
S1 C1 1_555 1_555
S2 In1 1_555 1_555
S3 In1 1_555 1_555
S4 In1 1_555 1_555
S5 In1 1_555 1_555
S6 In1 1_555 1_555
O1 C1 1_555 1_555
O2 C6 1_555 1_555
O3 C11 1_555 1_555
C1 S2 1_555 1_555
C2 O1 1_555 1_555
H1 C2 1_555 1_555
H2 C2 1_555 1_555
C3 C2 1_555 1_555
H3 C3 1_555 1_555
C4 C3 1_555 1_555
H4 C4 1_555 1_555
H5 C4 1_555 1_555
H6 C4 1_555 1_555
C5 C3 1_555 1_555
H7 C5 1_555 1_555
H8 C5 1_555 1_555
H9 C5 1_555 1_555
C6 S3 1_555 1_555
C7 O2 1_555 1_555
H10 C7 1_555 1_555
H11 C7 1_555 1_555
C8 C7 1_555 1_555
H12 C8 1_555 1_555
C9 C8 1_555 1_555
H13 C9 1_555 1_555
H14 C9 1_555 1_555
H15 C9 1_555 1_555
C10 C8 1_555 1_555
H16 C10 1_555 1_555
H17 C10 1_555 1_555
H18 C10 1_555 1_555
C11 S5 1_555 1_555
C12 O3 1_555 1_555
H19 C12 1_555 1_555
H20 C12 1_555 1_555
C13 C12 1_555 1_555
H21 C13 1_555 1_555
C14 C13 1_555 1_555
H22 C14 1_555 1_555
H23 C14 1_555 1_555
H24 C14 1_555 1_555
C15 C13 1_555 1_555
H25 C15 1_555 1_555
H26 C15 1_555 1_555
H27 C15 1_555 1_555
S4 C6 1_555 1_555
S6 C11 1_555 1_555

#END
