# generated using pymatgen
data_Cu12H173C202(N4O11)8
_symmetry_space_group_name_H-M   'P 1'
_cell_length_a   27.99000000
_cell_length_b   28.10200000
_cell_length_c   28.30300000
_cell_angle_alpha   109.31900000
_cell_angle_beta   106.42600000
_cell_angle_gamma   107.18200000
_symmetry_Int_Tables_number   1
_chemical_formula_structural   Cu12H173C202(N4O11)8
_chemical_formula_sum   'Cu24 H346 C404 N64 O176'
_cell_volume   18196.09934216
_cell_formula_units_Z   2
loop_
 _symmetry_equiv_pos_site_id
 _symmetry_equiv_pos_as_xyz
  1  'x, y, z'
loop_
 _atom_site_type_symbol
 _atom_site_label
 _atom_site_symmetry_multiplicity
 _atom_site_fract_x
 _atom_site_fract_y
 _atom_site_fract_z
 _atom_site_occupancy
  Cu  Cu1  1  0.259860  0.591440  0.772140  1.0
  Cu  Cu2  1  0.740140  0.408560  0.227860  1.0
  Cu  Cu3  1  0.345990  0.619750  0.861850  1.0
  Cu  Cu4  1  0.654010  0.380250  0.138150  1.0
  Cu  Cu5  1  0.981490  0.316720  0.664280  1.0
  Cu  Cu6  1  0.018510  0.683280  0.335720  1.0
  Cu  Cu7  1  0.976740  0.256760  0.719110  1.0
  Cu  Cu8  1  0.023260  0.743240  0.280890  1.0
  Cu  Cu9  1  0.721230  0.224830  0.388430  1.0
  Cu  Cu10  1  0.278770  0.775170  0.611570  1.0
  Cu  Cu11  1  0.628840  0.136260  0.353880  1.0
  Cu  Cu12  1  0.371160  0.863740  0.646120  1.0
  Cu  Cu13  1  0.815010  0.500460  0.667500  1.0
  Cu  Cu14  1  0.184990  0.499540  0.332500  1.0
  Cu  Cu15  1  0.753280  0.501810  0.723410  1.0
  Cu  Cu16  1  0.246720  0.498190  0.276590  1.0
  Cu  Cu17  1  0.833310  0.686360  0.505060  1.0
  Cu  Cu18  1  0.166690  0.313640  0.494940  1.0
  Cu  Cu19  1  0.776660  0.747020  0.505460  1.0
  Cu  Cu20  1  0.223340  0.252980  0.494540  1.0
  Cu  Cu21  1  0.094510  0.777780  0.774960  1.0
  Cu  Cu22  1  0.905490  0.222220  0.225040  1.0
  Cu  Cu23  1  0.122720  0.867080  0.866280  1.0
  Cu  Cu24  1  0.877280  0.132920  0.133720  1.0
  H  H25  1  0.288700  0.801100  0.059900  1
  H  H26  1  0.711300  0.198900  0.940100  1
  H  H27  1  0.307100  0.861800  0.061900  1
  H  H28  1  0.692900  0.138200  0.938100  1
  H  H29  1  0.451500  0.790100  0.119200  1
  H  H30  1  0.548500  0.209900  0.880800  1
  H  H31  1  0.393500  0.906100  0.058900  1
  H  H32  1  0.606500  0.093900  0.941100  1
  H  H33  1  0.539500  0.946500  0.111400  1
  H  H34  1  0.460500  0.053500  0.888600  1
  H  H35  1  0.499900  0.977100  0.115700  1
  H  H36  1  0.500100  0.022900  0.884300  1
  H  H37  1  0.494700  0.939100  0.056500  1
  H  H38  1  0.505300  0.060900  0.943500  1
  H  H39  1  0.766500  0.158000  0.259100  1
  H  H40  1  0.233500  0.842000  0.740900  1
  H  H41  1  0.649800  0.014800  0.234200  1
  H  H42  1  0.350200  0.985200  0.765800  1
  H  H43  1  0.743800  0.008600  0.148600  1
  H  H44  1  0.256200  0.991400  0.851400  1
  H  H45  1  0.678900  0.920800  0.181300  1
  H  H46  1  0.321100  0.079200  0.818700  1
  H  H47  1  0.621900  0.924800  0.155900  1
  H  H48  1  0.378100  0.075200  0.844100  1
  H  H49  1  0.601100  0.907800  0.988500  1
  H  H50  1  0.398900  0.092200  0.011500  1
  H  H51  1  0.716100  0.884100  0.120400  1
  H  H52  1  0.283900  0.115900  0.879600  1
  H  H53  1  0.718400  0.830000  0.984500  1
  H  H54  1  0.281600  0.170000  0.015500  1
  H  H55  1  0.716000  0.805900  0.028100  1
  H  H56  1  0.284000  0.194100  0.971900  1
  H  H57  1  0.764600  0.865000  0.046800  1
  H  H58  1  0.235400  0.135000  0.953200  1
  H  H59  1  0.599100  0.996400  0.939900  1.0
  H  H60  1  0.400900  0.003600  0.060100  1.0
  H  H61  1  0.117700  0.339200  0.991700  1.0
  H  H62  1  0.882300  0.660800  0.008300  1.0
  H  H63  1  0.690200  0.883500  0.374800  1.0
  H  H64  1  0.309800  0.116500  0.625200  1.0
  H  H65  1  0.809900  0.491200  0.966600  1.0
  H  H66  1  0.190100  0.508800  0.033400  1.0
  H  H67  1  0.484800  0.360600  0.633800  1.0
  H  H68  1  0.515200  0.639400  0.366200  1.0
  H  H69  1  0.028400  0.932300  0.064800  1.0
  H  H70  1  0.971600  0.067700  0.935200  1.0
  H  H71  1  0.538300  0.702800  0.530300  1.0
  H  H72  1  0.461700  0.297200  0.469700  1.0
  H  H73  1  0.805200  0.985300  0.680800  1.0
  H  H74  1  0.194800  0.014700  0.319200  1.0
  H  H75  1  0.871100  0.896400  0.223200  1.0
  H  H76  1  0.128900  0.103600  0.776800  1.0
  H  H77  1  0.436100  0.447600  0.088100  1.0
  H  H78  1  0.563900  0.552400  0.911900  1.0
  H  H79  1  0.332400  0.715100  0.727000  1.0
  H  H80  1  0.667600  0.284900  0.273000  1.0
  H  H81  1  0.471100  0.739700  0.846400  1.0
  H  H82  1  0.528900  0.260300  0.153600  1.0
  H  H83  1  0.480800  0.831600  0.762300  1.0
  H  H84  1  0.519200  0.168400  0.237700  1.0
  H  H85  1  0.556000  0.813400  0.875300  1.0
  H  H86  1  0.444000  0.186600  0.124700  1.0
  H  H87  1  0.562300  0.796600  0.818400  1.0
  H  H88  1  0.437700  0.203400  0.181600  1.0
  H  H89  1  0.597000  0.861400  0.790300  1.0
  H  H90  1  0.403000  0.138600  0.209700  1.0
  H  H91  1  0.665300  0.003200  0.814900  1.0
  H  H92  1  0.334700  0.996800  0.185100  1.0
  H  H93  1  0.621900  0.945300  0.761800  1.0
  H  H94  1  0.378100  0.054700  0.238200  1.0
  H  H95  1  0.678900  0.950000  0.800800  1.0
  H  H96  1  0.321100  0.050000  0.199200  1.0
  H  H97  1  0.140900  0.453100  0.773700  1.0
  H  H98  1  0.859100  0.546900  0.226300  1.0
  H  H99  1  0.273000  0.503000  0.914500  1.0
  H  H100  1  0.727000  0.497000  0.085500  1.0
  H  H101  1  0.134900  0.362700  0.859400  1.0
  H  H102  1  0.865100  0.637300  0.140600  1.0
  H  H103  1  0.271300  0.421800  0.942700  1.0
  H  H104  1  0.728700  0.578200  0.057300  1.0
  H  H105  1  0.249500  0.460100  0.978100  1.0
  H  H106  1  0.750500  0.539900  0.021900  1.0
  H  H107  1  0.235000  0.326700  0.912300  1.0
  H  H108  1  0.765000  0.673300  0.087700  1.0
  H  H109  1  0.209400  0.234100  0.890300  1.0
  H  H110  1  0.790600  0.765900  0.109700  1.0
  H  H111  1  0.146500  0.201000  0.878100  1.0
  H  H112  1  0.853500  0.799000  0.121900  1.0
  H  H113  1  0.194900  0.219000  0.935800  1.0
  H  H114  1  0.805100  0.781000  0.064200  1.0
  H  H115  1  0.205400  0.713900  0.837000  1.0
  H  H116  1  0.794600  0.286100  0.163000  1.0
  H  H117  1  0.327400  0.750000  0.979600  1.0
  H  H118  1  0.672600  0.250000  0.020400  1.0
  H  H119  1  0.238700  0.841000  0.980700  1.0
  H  H120  1  0.761300  0.159000  0.019300  1.0
  H  H121  1  0.302300  0.864500  0.055800  1.0
  H  H122  1  0.697700  0.135500  0.944200  1.0
  H  H123  1  0.356100  0.865500  0.047100  1.0
  H  H124  1  0.643900  0.134500  0.952900  1.0
  H  H125  1  0.284700  0.798600  0.169700  1.0
  H  H126  1  0.715300  0.201400  0.830300  1.0
  H  H127  1  0.412300  0.823900  0.095200  1.0
  H  H128  1  0.587700  0.176100  0.904800  1.0
  H  H129  1  0.445400  0.786000  0.205800  1.0
  H  H130  1  0.554600  0.214000  0.794200  1.0
  H  H131  1  0.478300  0.831000  0.190100  1.0
  H  H132  1  0.521700  0.169000  0.809900  1.0
  H  H133  1  0.446500  0.766300  0.146400  1.0
  H  H134  1  0.553500  0.233700  0.853600  1.0
  H  H135  1  0.823000  0.214500  0.525100  1.0
  H  H136  1  0.177000  0.785500  0.474900  1.0
  H  H137  1  0.820200  0.115500  0.601900  1.0
  H  H138  1  0.179800  0.884500  0.398100  1.0
  H  H139  1  0.689500  0.067100  0.460500  1.0
  H  H140  1  0.310500  0.932900  0.539500  1.0
  H  H141  1  0.730500  0.028600  0.566100  1.0
  H  H142  1  0.269500  0.971400  0.433900  1.0
  H  H143  1  0.678400  0.016600  0.514400  1.0
  H  H144  1  0.321600  0.983400  0.485600  1.0
  H  H145  1  0.795600  0.002400  0.558100  1.0
  H  H146  1  0.204400  0.997600  0.441900  1.0
  H  H147  1  0.843600  0.901700  0.498100  1.0
  H  H148  1  0.156400  0.098300  0.501900  1.0
  H  H149  1  0.818100  0.908800  0.542600  1.0
  H  H150  1  0.181900  0.091200  0.457400  1.0
  H  H151  1  0.868100  0.961100  0.550400  1.0
  H  H152  1  0.131900  0.038900  0.449600  1.0
  H  H153  1  0.889200  0.402400  0.717300  1.0
  H  H154  1  0.110800  0.597600  0.282700  1.0
  H  H155  1  0.896200  0.325900  0.816300  1.0
  H  H156  1  0.103800  0.674100  0.183700  1.0
  H  H157  1  0.811400  0.420600  0.818500  1.0
  H  H158  1  0.188600  0.579400  0.181500  1.0
  H  H159  1  0.821600  0.317200  0.852400  1.0
  H  H160  1  0.178400  0.682800  0.147600  1.0
  H  H161  1  0.875400  0.372400  0.899000  1.0
  H  H162  1  0.124600  0.627600  0.101000  1.0
  H  H163  1  0.733300  0.316400  0.837800  1.0
  H  H164  1  0.266700  0.683600  0.162200  1.0
  H  H165  1  0.647400  0.294100  0.834600  1.0
  H  H166  1  0.352600  0.705900  0.165400  1.0
  H  H167  1  0.634400  0.347500  0.847000  1.0
  H  H168  1  0.365600  0.652500  0.153000  1.0
  H  H169  1  0.647900  0.326600  0.893200  1.0
  H  H170  1  0.352100  0.673400  0.106800  1.0
  H  H171  1  0.783800  0.153600  0.276300  1.0
  H  H172  1  0.216200  0.846400  0.723700  1.0
  H  H173  1  0.636200  0.020600  0.210300  1.0
  H  H174  1  0.363800  0.979400  0.789700  1.0
  H  H175  1  0.734100  0.022900  0.128700  1.0
  H  H176  1  0.265900  0.977100  0.871300  1.0
  H  H177  1  0.609800  0.932700  0.127600  1.0
  H  H178  1  0.390200  0.067300  0.872400  1.0
  H  H179  1  0.609200  0.956800  0.083400  1.0
  H  H180  1  0.390800  0.043200  0.916600  1.0
  H  H181  1  0.730800  0.856300  0.118100  1.0
  H  H182  1  0.269200  0.143700  0.881900  1.0
  H  H183  1  0.637700  0.926500  0.020800  1.0
  H  H184  1  0.362300  0.073500  0.979200  1.0
  H  H185  1  0.698700  0.849200  0.949000  1.0
  H  H186  1  0.301300  0.150800  0.051000  1.0
  H  H187  1  0.695400  0.907600  0.960100  1.0
  H  H188  1  0.304600  0.092400  0.039900  1.0
  H  H189  1  0.640000  0.851500  0.933200  1.0
  H  H190  1  0.360000  0.148500  0.066800  1.0
  H  H191  1  0.712400  0.341200  0.528300  1.0
  H  H192  1  0.287600  0.658800  0.471700  1.0
  H  H193  1  0.569200  0.205000  0.469100  1.0
  H  H194  1  0.430800  0.795000  0.530900  1.0
  H  H195  1  0.614000  0.342600  0.609300  1.0
  H  H196  1  0.386000  0.657400  0.390700  1.0
  H  H197  1  0.499700  0.227900  0.507500  1.0
  H  H198  1  0.500300  0.772100  0.492500  1.0
  H  H199  1  0.530800  0.202400  0.541600  1.0
  H  H200  1  0.469200  0.797600  0.458400  1.0
  H  H201  1  0.544600  0.227900  0.630900  1.0
  H  H202  1  0.455400  0.772100  0.369100  1.0
  H  H203  1  0.547100  0.239100  0.717900  1.0
  H  H204  1  0.452900  0.760900  0.282100  1.0
  H  H205  1  0.501700  0.257800  0.731200  1.0
  H  H206  1  0.498300  0.742200  0.268800  1.0
  H  H207  1  0.564500  0.302800  0.758200  1.0
  H  H208  1  0.435500  0.697200  0.241800  1.0
  H  H209  1  0.952000  0.662700  0.773800  1.0
  H  H210  1  0.048000  0.337300  0.226200  1.0
  H  H211  1  0.860000  0.658500  0.861400  1.0
  H  H212  1  0.140000  0.341500  0.138600  1.0
  H  H213  1  0.997400  0.798900  0.915400  1.0
  H  H214  1  0.002600  0.201100  0.084600  1.0
  H  H215  1  0.885100  0.773200  0.930200  1.0
  H  H216  1  0.114900  0.226800  0.069800  1.0
  H  H217  1  0.895300  0.730500  0.953400  1.0
  H  H218  1  0.104700  0.269500  0.046600  1.0
  H  H219  1  0.990300  0.747400  0.995300  1.0
  H  H220  1  0.009700  0.252600  0.004700  1.0
  H  H221  1  0.120900  0.839600  0.113800  1.0
  H  H222  1  0.879100  0.160400  0.886200  1.0
  H  H223  1  0.104700  0.801200  0.050400  1.0
  H  H224  1  0.895300  0.198800  0.949600  1.0
  H  H225  1  0.078300  0.775100  0.084400  1.0
  H  H226  1  0.921700  0.224900  0.915600  1.0
  H  H227  1  0.773800  0.601400  0.592400  1.0
  H  H228  1  0.226200  0.398600  0.407600  1.0
  H  H229  1  0.670400  0.592700  0.668000  1.0
  H  H230  1  0.329600  0.407300  0.332000  1.0
  H  H231  1  0.685600  0.692700  0.592400  1.0
  H  H232  1  0.314400  0.307300  0.407600  1.0
  H  H233  1  0.598900  0.630400  0.640900  1.0
  H  H234  1  0.401100  0.369600  0.359100  1.0
  H  H235  1  0.649900  0.684000  0.692900  1.0
  H  H236  1  0.350100  0.316000  0.307100  1.0
  H  H237  1  0.676700  0.771500  0.698600  1.0
  H  H238  1  0.323300  0.228500  0.301400  1.0
  H  H239  1  0.695800  0.865200  0.720400  1.0
  H  H240  1  0.304200  0.134800  0.279600  1.0
  H  H241  1  0.642500  0.874000  0.693800  1.0
  H  H242  1  0.357500  0.126000  0.306200  1.0
  H  H243  1  0.686300  0.876700  0.667500  1.0
  H  H244  1  0.313700  0.123300  0.332500  1.0
  H  H245  1  0.964500  0.791000  0.665800  1.0
  H  H246  1  0.035500  0.209000  0.334200  1.0
  H  H247  1  0.027100  0.943100  0.796000  1.0
  H  H248  1  0.972900  0.056900  0.204000  1.0
  H  H249  1  0.895800  0.897800  0.656400  1.0
  H  H250  1  0.104200  0.102200  0.343600  1.0
  H  H251  1  0.952600  0.986700  0.789900  1.0
  H  H252  1  0.047400  0.013300  0.210100  1.0
  H  H253  1  0.001900  0.014100  0.775700  1.0
  H  H254  1  0.998100  0.985900  0.224300  1.0
  H  H255  1  0.980700  0.034600  0.693000  1.0
  H  H256  1  0.019300  0.965400  0.307000  1.0
  H  H257  1  0.970000  0.086800  0.642900  1.0
  H  H258  1  0.030000  0.913200  0.357100  1.0
  H  H259  1  0.928400  0.114600  0.648600  1.0
  H  H260  1  0.071600  0.885400  0.351400  1.0
  H  H261  1  0.908800  0.057600  0.595200  1.0
  H  H262  1  0.091200  0.942400  0.404800  1.0
  H  H263  1  0.917000  0.733200  0.411700  1.0
  H  H264  1  0.083000  0.266800  0.588300  1.0
  H  H265  1  0.948500  0.845100  0.350900  1.0
  H  H266  1  0.051500  0.154900  0.649100  1.0
  H  H267  1  0.851200  0.845000  0.433100  1.0
  H  H268  1  0.148800  0.155000  0.566900  1.0
  H  H269  1  0.872200  0.915600  0.405900  1.0
  H  H270  1  0.127800  0.084400  0.594100  1.0
  H  H271  1  0.928600  0.933300  0.398600  1.0
  H  H272  1  0.071400  0.066700  0.601400  1.0
  H  H273  1  0.787800  0.850100  0.323600  1.0
  H  H274  1  0.212200  0.149900  0.676400  1.0
  H  H275  1  0.698300  0.806700  0.249700  1.0
  H  H276  1  0.301700  0.193300  0.750300  1.0
  H  H277  1  0.700700  0.779700  0.191400  1.0
  H  H278  1  0.299300  0.220300  0.808600  1.0
  H  H279  1  0.696800  0.838200  0.211900  1.0
  H  H280  1  0.303200  0.161800  0.788100  1.0
  H  H281  1  0.731600  0.547200  0.344200  1.0
  H  H282  1  0.268400  0.452800  0.655800  1.0
  H  H283  1  0.640300  0.635500  0.347000  1.0
  H  H284  1  0.359700  0.364500  0.653000  1.0
  H  H285  1  0.594600  0.496700  0.207700  1.0
  H  H286  1  0.405400  0.503300  0.792300  1.0
  H  H287  1  0.562200  0.610000  0.277200  1.0
  H  H288  1  0.437800  0.390000  0.722800  1.0
  H  H289  1  0.581800  0.605400  0.228400  1.0
  H  H290  1  0.418200  0.394600  0.771600  1.0
  H  H291  1  0.504900  0.535100  0.276700  1.0
  H  H292  1  0.495100  0.464900  0.723300  1.0
  H  H293  1  0.374300  0.412700  0.207400  1.0
  H  H294  1  0.625700  0.587300  0.792600  1.0
  H  H295  1  0.398300  0.474400  0.255900  1.0
  H  H296  1  0.601700  0.525600  0.744100  1.0
  H  H297  1  0.430700  0.436600  0.260300  1.0
  H  H298  1  0.569300  0.563400  0.739700  1.0
  H  H299  1  0.350100  0.616500  0.013500  1.0
  H  H300  1  0.649900  0.383500  0.986500  1.0
  H  H301  1  0.353100  0.662600  0.991700  1.0
  H  H302  1  0.646900  0.337400  0.008300  1.0
  H  H303  1  0.404400  0.674200  0.043900  1.0
  H  H304  1  0.595600  0.325800  0.956100  1.0
  H  H305  1  0.380900  0.575300  0.037500  1.0
  H  H306  1  0.619100  0.424700  0.962500  1.0
  H  H307  1  0.429200  0.556200  0.036400  1.0
  H  H308  1  0.570800  0.443800  0.963600  1.0
  H  H309  1  0.367000  0.515300  0.991700  1.0
  H  H310  1  0.633000  0.484700  0.008300  1.0
  H  H311  1  0.429900  0.566400  0.911700  1.0
  H  H312  1  0.570100  0.433600  0.088300  1.0
  H  H313  1  0.397600  0.509900  0.913300  1.0
  H  H314  1  0.602400  0.490100  0.086700  1.0
  H  H315  1  0.459500  0.551300  0.958200  1.0
  H  H316  1  0.540500  0.448700  0.041800  1.0
  H  H317  1  0.063600  0.228400  0.774600  1.0
  H  H318  1  0.936400  0.771600  0.225400  1.0
  H  H319  1  0.058100  0.169600  0.773400  1.0
  H  H320  1  0.941900  0.830400  0.226600  1.0
  H  H321  1  0.077800  0.222500  0.830700  1.0
  H  H322  1  0.922200  0.777500  0.169300  1.0
  H  H323  1  0.043700  0.148200  0.842600  1.0
  H  H324  1  0.956300  0.851800  0.157400  1.0
  H  H325  1  0.987500  0.094100  0.819600  1.0
  H  H326  1  0.012500  0.905900  0.180400  1.0
  H  H327  1  0.003700  0.149400  0.873300  1.0
  H  H328  1  0.996300  0.850600  0.126700  1.0
  H  H329  1  0.898900  0.148700  0.769100  1.0
  H  H330  1  0.101100  0.851300  0.230900  1.0
  H  H331  1  0.914600  0.148700  0.828000  1.0
  H  H332  1  0.085400  0.851300  0.172000  1.0
  H  H333  1  0.899600  0.093900  0.774300  1.0
  H  H334  1  0.100400  0.906100  0.225700  1.0
  H  H335  1  0.637000  0.419800  0.704800  1.0
  H  H336  1  0.363000  0.580200  0.295200  1.0
  H  H337  1  0.597200  0.428900  0.734500  1.0
  H  H338  1  0.402800  0.571100  0.265500  1.0
  H  H339  1  0.633800  0.397300  0.749400  1.0
  H  H340  1  0.366200  0.602700  0.250600  1.0
  H  H341  1  0.601700  0.424700  0.806400  1.0
  H  H342  1  0.398300  0.575300  0.193600  1.0
  H  H343  1  0.610200  0.479500  0.855900  1.0
  H  H344  1  0.389800  0.520500  0.144100  1.0
  H  H345  1  0.644800  0.445300  0.868100  1.0
  H  H346  1  0.355200  0.554700  0.131900  1.0
  H  H347  1  0.742800  0.561900  0.868600  1.0
  H  H348  1  0.257200  0.438100  0.131400  1.0
  H  H349  1  0.734200  0.533600  0.908100  1.0
  H  H350  1  0.265800  0.466400  0.091900  1.0
  H  H351  1  0.699600  0.567400  0.894600  1.0
  H  H352  1  0.300400  0.432600  0.105400  1.0
  H  H353  1  0.791800  0.856100  0.595600  1.0
  H  H354  1  0.208200  0.143900  0.404400  1.0
  H  H355  1  0.743100  0.863000  0.611900  1.0
  H  H356  1  0.256900  0.137000  0.388100  1.0
  H  H357  1  0.774400  0.904600  0.591900  1.0
  H  H358  1  0.225600  0.095400  0.408100  1.0
  H  H359  1  0.641200  0.772000  0.440800  1.0
  H  H360  1  0.358800  0.228000  0.559200  1.0
  H  H361  1  0.627800  0.823100  0.439000  1.0
  H  H362  1  0.372200  0.176900  0.561000  1.0
  H  H363  1  0.598400  0.786000  0.463900  1.0
  H  H364  1  0.401600  0.214000  0.536100  1.0
  H  H365  1  0.698000  0.907600  0.581600  1.0
  H  H366  1  0.302000  0.092400  0.418400  1.0
  H  H367  1  0.632700  0.870700  0.550100  1.0
  H  H368  1  0.367300  0.129300  0.449900  1.0
  H  H369  1  0.663300  0.908200  0.526400  1.0
  H  H370  1  0.336700  0.091800  0.473600  1.0
  C  C371  1  0.309900  0.825800  0.047800  1
  C  C372  1  0.690100  0.174200  0.952200  1
  C  C373  1  0.384700  0.800500  0.087500  1
  C  C374  1  0.615300  0.199500  0.912500  1
  C  C375  1  0.478200  0.858500  0.109700  1
  C  C376  1  0.521800  0.141500  0.890300  1
  C  C377  1  0.460800  0.893300  0.091600  1
  C  C378  1  0.539200  0.106700  0.908400  1
  C  C379  1  0.405400  0.882300  0.071300  1
  C  C380  1  0.594600  0.117700  0.928700  1
  C  C381  1  0.502400  0.943400  0.094000  1
  C  C382  1  0.497600  0.056600  0.906000  1
  C  C383  1  0.747700  0.118400  0.240800  1
  C  C384  1  0.252300  0.881600  0.759200  1
  C  C385  1  0.705900  0.091300  0.252800  1
  C  C386  1  0.294100  0.908700  0.747200  1
  C  C387  1  0.678300  0.033300  0.226000  1
  C  C388  1  0.321700  0.966700  0.774000  1
  C  C389  1  0.692500  0.002500  0.187100  1
  C  C390  1  0.307500  0.997500  0.812900  1
  C  C391  1  0.734200  0.029700  0.175100  1
  C  C392  1  0.265800  0.970300  0.824900  1
  C  C393  1  0.761800  0.087600  0.201900  1
  C  C394  1  0.238200  0.912400  0.798100  1
  C  C395  1  0.660100  0.935900  0.158900  1
  C  C396  1  0.339900  0.064100  0.841100  1
  C  C397  1  0.625000  0.922200  0.065100  1
  C  C398  1  0.375000  0.077800  0.934900  1
  C  C399  1  0.654700  0.877200  0.999900  1
  C  C400  1  0.345300  0.122800  0.000100  1
  C  C401  1  0.690700  0.868800  0.038800  1
  C  C402  1  0.309300  0.131200  0.961200  1
  C  C403  1  0.692400  0.888600  0.092300  1
  C  C404  1  0.307600  0.111400  0.907700  1
  C  C405  1  0.725500  0.839900  0.023200  1
  C  C406  1  0.274500  0.160100  0.976800  1
  C  C407  1  0.363200  0.677600  0.800300  1.0
  C  C408  1  0.636800  0.322400  0.199700  1.0
  C  C409  1  0.373200  0.791700  0.696900  1.0
  C  C410  1  0.626800  0.208300  0.303100  1.0
  C  C411  1  0.371250  0.734160  0.747910  1.0
  C  C412  1  0.628750  0.265840  0.252090  1.0
  C  C413  1  0.396810  0.720820  0.788200  1.0
  C  C414  1  0.603190  0.279180  0.211800  1.0
  C  C415  1  0.453700  0.748800  0.818830  1.0
  C  C416  1  0.546300  0.251200  0.181170  1.0
  C  C417  1  0.484970  0.790100  0.809200  1.0
  C  C418  1  0.515030  0.209900  0.190800  1.0
  C  C419  1  0.459400  0.803390  0.768900  1.0
  C  C420  1  0.540600  0.196610  0.231100  1.0
  C  C421  1  0.402540  0.775400  0.738260  1.0
  C  C422  1  0.597460  0.224600  0.261740  1.0
  C  C423  1  0.546700  0.817100  0.840700  1.0
  C  C424  1  0.453300  0.182900  0.159300  1.0
  C  C425  1  0.573040  0.914500  0.898900  1.0
  C  C426  1  0.426960  0.085500  0.101100  1.0
  C  C427  1  0.623200  0.985600  0.879200  1.0
  C  C428  1  0.376800  0.014400  0.120800  1.0
  C  C429  1  0.622560  0.945200  0.834400  1.0
  C  C430  1  0.377440  0.054800  0.165600  1.0
  C  C431  1  0.597390  0.889100  0.821000  1.0
  C  C432  1  0.402610  0.110900  0.179000  1.0
  C  C433  1  0.649500  0.962500  0.800000  1.0
  C  C434  1  0.350500  0.037500  0.200000  1.0
  C  C435  1  0.243900  0.532000  0.832400  1.0
  C  C436  1  0.756100  0.468000  0.167600  1.0
  C  C437  1  0.070900  0.358300  0.765400  1.0
  C  C438  1  0.929100  0.641700  0.234600  1.0
  C  C439  1  0.158000  0.447600  0.804360  1.0
  C  C440  1  0.842000  0.552400  0.195640  1.0
  C  C441  1  0.211500  0.485270  0.843100  1.0
  C  C442  1  0.788500  0.514730  0.156900  1.0
  C  C443  1  0.236460  0.477240  0.887990  1.0
  C  C444  1  0.763540  0.522760  0.112010  1.0
  C  C445  1  0.207900  0.431600  0.894070  1.0
  C  C446  1  0.792100  0.568400  0.105930  1.0
  C  C447  1  0.154400  0.393950  0.855300  1.0
  C  C448  1  0.845600  0.606050  0.144700  1.0
  C  C449  1  0.129460  0.401990  0.810400  1.0
  C  C450  1  0.870540  0.598010  0.189600  1.0
  C  C451  1  0.237700  0.425600  0.944400  1.0
  C  C452  1  0.762300  0.574400  0.055600  1.0
  C  C453  1  0.169200  0.384300  0.972600  1.0
  C  C454  1  0.830800  0.615700  0.027400  1.0
  C  C455  1  0.142000  0.285800  0.956300  1.0
  C  C456  1  0.858000  0.714200  0.043700  1.0
  C  C457  1  0.179500  0.282700  0.930100  1.0
  C  C458  1  0.820500  0.717300  0.069900  1.0
  C  C459  1  0.209400  0.328300  0.928100  1.0
  C  C460  1  0.790600  0.671700  0.071900  1.0
  C  C461  1  0.182900  0.229900  0.906600  1.0
  C  C462  1  0.817100  0.770100  0.093400  1.0
  C  C463  1  0.280100  0.679300  0.871300  1.0
  C  C464  1  0.719900  0.320700  0.128700  1.0
  C  C465  1  0.173700  0.794400  0.873200  1.0
  C  C466  1  0.826300  0.205600  0.126800  1.0
  C  C467  1  0.226400  0.736000  0.875750  1.0
  C  C468  1  0.773600  0.264000  0.124250  1.0
  C  C469  1  0.268100  0.725130  0.903800  1.0
  C  C470  1  0.731900  0.274870  0.096200  1.0
  C  C471  1  0.298900  0.757400  0.960400  1.0
  C  C472  1  0.701100  0.242600  0.039600  1.0
  C  C473  1  0.287900  0.800600  0.989090  1.0
  C  C474  1  0.712100  0.199400  0.010910  1.0
  C  C475  1  0.246200  0.811460  0.961100  1.0
  C  C476  1  0.753800  0.188540  0.038900  1.0
  C  C477  1  0.215400  0.779200  0.904400  1.0
  C  C478  1  0.784600  0.220800  0.095600  1.0
  C  C479  1  0.321600  0.841000  0.045900  1.0
  C  C480  1  0.678400  0.159000  0.954100  1.0
  C  C481  1  0.299500  0.818200  0.112500  1.0
  C  C482  1  0.700500  0.181800  0.887500  1.0
  C  C483  1  0.356300  0.796400  0.175700  1.0
  C  C484  1  0.643700  0.203600  0.824300  1.0
  C  C485  1  0.394500  0.804000  0.153300  1.0
  C  C486  1  0.605500  0.196000  0.846700  1.0
  C  C487  1  0.386100  0.818700  0.110500  1.0
  C  C488  1  0.613900  0.181300  0.889500  1.0
  C  C489  1  0.445600  0.796200  0.175900  1.0
  C  C490  1  0.554400  0.203800  0.824100  1.0
  C  C491  1  0.888700  0.217000  0.616100  1.0
  C  C492  1  0.111300  0.783000  0.383900  1.0
  C  C493  1  0.725400  0.157200  0.442200  1.0
  C  C494  1  0.274600  0.842800  0.557800  1.0
  C  C495  1  0.804600  0.181200  0.526800  1.0
  C  C496  1  0.195400  0.818800  0.473200  1.0
  C  C497  1  0.829900  0.171100  0.570000  1.0
  C  C498  1  0.170100  0.828900  0.430000  1.0
  C  C499  1  0.802900  0.122400  0.572400  1.0
  C  C500  1  0.197100  0.877600  0.427600  1.0
  C  C501  1  0.750600  0.083600  0.531600  1.0
  C  C502  1  0.249400  0.916400  0.468400  1.0
  C  C503  1  0.725300  0.093600  0.488400  1.0
  C  C504  1  0.274700  0.906400  0.511600  1.0
  C  C505  1  0.752300  0.142400  0.486000  1.0
  C  C506  1  0.247700  0.857600  0.514000  1.0
  C  C507  1  0.718200  0.025700  0.528400  1.0
  C  C508  1  0.281800  0.974300  0.471600  1.0
  C  C509  1  0.692100  0.940600  0.437700  1.0
  C  C510  1  0.307900  0.059400  0.562300  1.0
  C  C511  1  0.758700  0.904600  0.435500  1.0
  C  C512  1  0.241300  0.095400  0.564500  1.0
  C  C513  1  0.793900  0.942400  0.491000  1.0
  C  C514  1  0.206100  0.057600  0.509000  1.0
  C  C515  1  0.775000  0.978400  0.519600  1.0
  C  C516  1  0.225000  0.021600  0.480400  1.0
  C  C517  1  0.834500  0.927200  0.523300  1.0
  C  C518  1  0.165500  0.072800  0.476700  1.0
  C  C519  1  0.929200  0.333400  0.737100  1.0
  C  C520  1  0.070800  0.666600  0.262900  1.0
  C  C521  1  0.823700  0.448600  0.740100  1.0
  C  C522  1  0.176300  0.551400  0.259900  1.0
  C  C523  1  0.879600  0.394500  0.744400  1.0
  C  C524  1  0.120400  0.605500  0.255600  1.0
  C  C525  1  0.897800  0.360600  0.763600  1.0
  C  C526  1  0.102200  0.639400  0.236400  1.0
  C  C527  1  0.883800  0.349100  0.803200  1.0
  C  C528  1  0.116200  0.650900  0.196800  1.0
  C  C529  1  0.851600  0.371400  0.823670  1.0
  C  C530  1  0.148400  0.628600  0.176330  1.0
  C  C531  1  0.833400  0.405300  0.804500  1.0
  C  C532  1  0.166600  0.594700  0.195500  1.0
  C  C533  1  0.847400  0.416860  0.764900  1.0
  C  C534  1  0.152600  0.583140  0.235100  1.0
  C  C535  1  0.840000  0.358300  0.867100  1.0
  C  C536  1  0.160000  0.641700  0.132900  1.0
  C  C537  1  0.829300  0.436100  0.928000  1.0
  C  C538  1  0.170700  0.563900  0.072000  1.0
  C  C539  1  0.741200  0.426400  0.928500  1.0
  C  C540  1  0.258800  0.573600  0.071500  1.0
  C  C541  1  0.717400  0.368400  0.885500  1.0
  C  C542  1  0.282600  0.631600  0.114500  1.0
  C  C543  1  0.749700  0.352800  0.867700  1.0
  C  C544  1  0.250300  0.647200  0.132300  1.0
  C  C545  1  0.656300  0.330800  0.863100  1.0
  C  C546  1  0.343700  0.669200  0.136900  1.0
  C  C547  1  0.696300  0.124900  0.298400  1.0
  C  C548  1  0.303700  0.875100  0.701600  1.0
  C  C549  1  0.813200  0.122400  0.192900  1.0
  C  C550  1  0.186800  0.877600  0.807100  1.0
  C  C551  1  0.757100  0.117900  0.247400  1.0
  C  C552  1  0.242900  0.882100  0.752600  1.0
  C  C553  1  0.708500  0.091100  0.250500  1.0
  C  C554  1  0.291500  0.908900  0.749500  1.0
  C  C555  1  0.669400  0.038900  0.208200  1.0
  C  C556  1  0.330600  0.961100  0.791800  1.0
  C  C557  1  0.679000  0.013500  0.162800  1.0
  C  C558  1  0.321000  0.986500  0.837200  1.0
  C  C559  1  0.727600  0.040300  0.159700  1.0
  C  C560  1  0.272400  0.959700  0.840300  1.0
  C  C561  1  0.766700  0.092500  0.202000  1.0
  C  C562  1  0.233300  0.907500  0.798000  1.0
  C  C563  1  0.633200  0.952400  0.113400  1.0
  C  C564  1  0.366800  0.047600  0.886600  1.0
  C  C565  1  0.688200  0.899600  0.122000  1.0
  C  C566  1  0.311800  0.100400  0.878000  1.0
  C  C567  1  0.711000  0.859800  0.048200  1.0
  C  C568  1  0.289000  0.140200  0.951800  1.0
  C  C569  1  0.682900  0.880500  0.016600  1.0
  C  C570  1  0.317100  0.119500  0.983400  1.0
  C  C571  1  0.657300  0.911500  0.040400  1.0
  C  C572  1  0.342700  0.088500  0.959600  1.0
  C  C573  1  0.678900  0.871400  0.959700  1.0
  C  C574  1  0.321100  0.128600  0.040300  1.0
  C  C575  1  0.653900  0.236100  0.444200  1.0
  C  C576  1  0.346100  0.763900  0.555800  1.0
  C  C577  1  0.710900  0.407200  0.620000  1.0
  C  C578  1  0.289100  0.592800  0.380000  1.0
  C  C579  1  0.679710  0.323000  0.531300  1.0
  C  C580  1  0.320290  0.677000  0.468700  1.0
  C  C581  1  0.642500  0.268800  0.491790  1.0
  C  C582  1  0.357500  0.731200  0.508210  1.0
  C  C583  1  0.594610  0.242080  0.496100  1.0
  C  C584  1  0.405390  0.757920  0.503900  1.0
  C  C585  1  0.583990  0.269600  0.539900  1.0
  C  C586  1  0.416010  0.730400  0.460100  1.0
  C  C587  1  0.621200  0.323800  0.579360  1.0
  C  C588  1  0.378800  0.676200  0.420640  1.0
  C  C589  1  0.669080  0.350480  0.575050  1.0
  C  C590  1  0.330920  0.649520  0.424950  1.0
  C  C591  1  0.531200  0.237700  0.541500  1.0
  C  C592  1  0.468800  0.762300  0.458500  1.0
  C  C593  1  0.505700  0.308800  0.588200  1.0
  C  C594  1  0.494300  0.691200  0.411800  1.0
  C  C595  1  0.505900  0.324300  0.679600  1.0
  C  C596  1  0.494100  0.675700  0.320400  1.0
  C  C597  1  0.523900  0.281600  0.677700  1.0
  C  C598  1  0.476100  0.718400  0.322300  1.0
  C  C599  1  0.532100  0.256200  0.632400  1.0
  C  C600  1  0.467900  0.743800  0.367600  1.0
  C  C601  1  0.535300  0.269300  0.725200  1.0
  C  C602  1  0.464700  0.730700  0.274800  1.0
  C  C603  1  0.858800  0.594600  0.768600  1.0
  C  C604  1  0.141200  0.405400  0.231400  1.0
  C  C605  1  0.030500  0.767500  0.833700  1.0
  C  C606  1  0.969500  0.232500  0.166300  1.0
  C  C607  1  0.945700  0.680500  0.804800  1.0
  C  C608  1  0.054300  0.319500  0.195200  1.0
  C  C609  1  0.900300  0.651900  0.811500  1.0
  C  C610  1  0.099700  0.348100  0.188500  1.0
  C  C611  1  0.891100  0.678000  0.856900  1.0
  C  C612  1  0.108900  0.322000  0.143100  1.0
  C  C613  1  0.927300  0.732800  0.895600  1.0
  C  C614  1  0.072700  0.267200  0.104400  1.0
  C  C615  1  0.972700  0.761500  0.888900  1.0
  C  C616  1  0.027300  0.238500  0.111100  1.0
  C  C617  1  0.981900  0.735300  0.843500  1.0
  C  C618  1  0.018100  0.264700  0.156500  1.0
  C  C619  1  0.912200  0.759000  0.942600  1.0
  C  C620  1  0.087800  0.241000  0.057400  1.0
  C  C621  1  0.972800  0.859200  0.007200  1.0
  C  C622  1  0.027200  0.140800  0.992800  1.0
  C  C623  1  0.054500  0.880200  0.081200  1.0
  C  C624  1  0.945500  0.119800  0.918800  1.0
  C  C625  1  0.044200  0.823800  0.061900  1.0
  C  C626  1  0.955800  0.176200  0.938100  1.0
  C  C627  1  0.997100  0.785500  0.012400  1.0
  C  C628  1  0.002900  0.214500  0.987600  1.0
  C  C629  1  0.091100  0.808600  0.079100  1.0
  C  C630  1  0.908900  0.191400  0.920900  1.0
  C  C631  1  0.745300  0.554900  0.653900  1.0
  C  C632  1  0.254700  0.445100  0.346100  1.0
  C  C633  1  0.761400  0.676300  0.557200  1.0
  C  C634  1  0.238600  0.323700  0.442800  1.0
  C  C635  1  0.747850  0.612600  0.602600  1.0
  C  C636  1  0.252150  0.387400  0.397400  1.0
  C  C637  1  0.724400  0.591050  0.632540  1.0
  C  C638  1  0.275600  0.408950  0.367460  1.0
  C  C639  1  0.686500  0.607400  0.647510  1.0
  C  C640  1  0.313500  0.392600  0.352490  1.0
  C  C641  1  0.672000  0.645300  0.632600  1.0
  C  C642  1  0.328000  0.354700  0.367400  1.0
  C  C643  1  0.695500  0.666800  0.602700  1.0
  C  C644  1  0.304500  0.333200  0.397300  1.0
  C  C645  1  0.733400  0.650500  0.587680  1.0
  C  C646  1  0.266600  0.349500  0.412320  1.0
  C  C647  1  0.632300  0.664000  0.652100  1.0
  C  C648  1  0.367700  0.336000  0.347900  1.0
  C  C649  1  0.575300  0.677000  0.579500  1.0
  C  C650  1  0.424700  0.323000  0.420500  1.0
  C  C651  1  0.591600  0.773100  0.593700  1.0
  C  C652  1  0.408400  0.226900  0.406300  1.0
  C  C653  1  0.635600  0.795100  0.647500  1.0
  C  C654  1  0.364400  0.204900  0.352500  1.0
  C  C655  1  0.646800  0.757600  0.664000  1.0
  C  C656  1  0.353200  0.242400  0.336000  1.0
  C  C657  1  0.668000  0.858600  0.685800  1.0
  C  C658  1  0.332000  0.141400  0.314200  1.0
  C  C659  1  0.044200  0.850100  0.767900  1.0
  C  C660  1  0.955800  0.149900  0.232100  1.0
  C  C661  1  0.880200  0.793700  0.597500  1.0
  C  C662  1  0.119800  0.206300  0.402500  1.0
  C  C663  1  0.963700  0.826020  0.682100  1.0
  C  C664  1  0.036300  0.173980  0.317900  1.0
  C  C665  1  0.002050  0.865100  0.735600  1.0
  C  C666  1  0.997950  0.134900  0.264400  1.0
  C  C667  1  0.000800  0.916400  0.759500  1.0
  C  C668  1  0.999200  0.083600  0.240500  1.0
  C  C669  1  0.961300  0.928560  0.730000  1.0
  C  C670  1  0.038700  0.071440  0.270000  1.0
  C  C671  1  0.922900  0.889500  0.676600  1.0
  C  C672  1  0.077100  0.110500  0.323400  1.0
  C  C673  1  0.924100  0.838200  0.652630  1.0
  C  C674  1  0.075900  0.161800  0.347370  1.0
  C  C675  1  0.963400  0.985600  0.759300  1.0
  C  C676  1  0.036600  0.014400  0.240700  1.0
  C  C677  1  0.877100  0.986200  0.717400  1.0
  C  C678  1  0.122900  0.013800  0.282600  1.0
  C  C679  1  0.856200  0.028100  0.661100  1.0
  C  C680  1  0.143800  0.971900  0.338900  1.0
  C  C681  1  0.911000  0.045300  0.664800  1.0
  C  C682  1  0.089000  0.954700  0.335200  1.0
  C  C683  1  0.945500  0.028200  0.693400  1.0
  C  C684  1  0.054500  0.971800  0.306600  1.0
  C  C685  1  0.931400  0.079200  0.635100  1.0
  C  C686  1  0.068600  0.920800  0.364900  1.0
  C  C687  1  0.850600  0.757800  0.455600  1.0
  C  C688  1  0.149400  0.242200  0.544400  1.0
  C  C689  1  0.970400  0.760400  0.353200  1.0
  C  C690  1  0.029600  0.239600  0.646800  1.0
  C  C691  1  0.880000  0.785600  0.426900  1.0
  C  C692  1  0.120000  0.214400  0.573100  1.0
  C  C693  1  0.912300  0.763490  0.406300  1.0
  C  C694  1  0.087700  0.236510  0.593700  1.0
  C  C695  1  0.937800  0.785700  0.378000  1.0
  C  C696  1  0.062200  0.214300  0.622000  1.0
  C  C697  1  0.931000  0.830000  0.370200  1.0
  C  C698  1  0.069000  0.170000  0.629800  1.0
  C  C699  1  0.898700  0.852100  0.390800  1.0
  C  C700  1  0.101300  0.147900  0.609200  1.0
  C  C701  1  0.873200  0.829900  0.419100  1.0
  C  C702  1  0.126800  0.170100  0.580900  1.0
  C  C703  1  0.891800  0.902300  0.384300  1.0
  C  C704  1  0.108200  0.097700  0.615700  1.0
  C  C705  1  0.887900  0.900800  0.295800  1.0
  C  C706  1  0.112100  0.099200  0.704200  1.0
  C  C707  1  0.798400  0.858700  0.218200  1.0
  C  C708  1  0.201600  0.141300  0.781800  1.0
  C  C709  1  0.771600  0.843900  0.250400  1.0
  C  C710  1  0.228400  0.156100  0.749600  1.0
  C  C711  1  0.805000  0.859200  0.301200  1.0
  C  C712  1  0.195000  0.140800  0.698800  1.0
  C  C713  1  0.712000  0.814800  0.223700  1.0
  C  C714  1  0.288000  0.185200  0.776300  1.0
  C  C715  1  0.732400  0.639900  0.411900  1.0
  C  C716  1  0.267600  0.360100  0.588100  1.0
  C  C717  1  0.675700  0.468500  0.238400  1.0
  C  C718  1  0.324300  0.531500  0.761600  1.0
  C  C719  1  0.700700  0.552300  0.326100  1.0
  C  C720  1  0.299300  0.447700  0.673900  1.0
  C  C721  1  0.691700  0.597300  0.354300  1.0
  C  C722  1  0.308300  0.402700  0.645700  1.0
  C  C723  1  0.646500  0.604700  0.327800  1.0
  C  C724  1  0.353500  0.395300  0.672200  1.0
  C  C725  1  0.610300  0.567300  0.273200  1.0
  C  C726  1  0.389700  0.432700  0.726800  1.0
  C  C727  1  0.619400  0.522300  0.245000  1.0
  C  C728  1  0.380600  0.477700  0.755000  1.0
  C  C729  1  0.664600  0.514800  0.271500  1.0
  C  C730  1  0.335400  0.485200  0.728500  1.0
  C  C731  1  0.568500  0.584900  0.248000  1.0
  C  C732  1  0.431500  0.415100  0.752000  1.0
  C  C733  1  0.498100  0.510400  0.153700  1.0
  C  C734  1  0.501900  0.489600  0.846300  1.0
  C  C735  1  0.419900  0.443200  0.149600  1.0
  C  C736  1  0.580100  0.556800  0.850400  1.0
  C  C737  1  0.439600  0.468800  0.207000  1.0
  C  C738  1  0.560400  0.531200  0.793000  1.0
  C  C739  1  0.490100  0.516500  0.237500  1.0
  C  C740  1  0.509900  0.483500  0.762500  1.0
  C  C741  1  0.408000  0.446200  0.235100  1.0
  C  C742  1  0.592000  0.553800  0.764900  1.0
  C  C743  1  0.374300  0.645500  0.008200  1.0
  C  C744  1  0.625700  0.354500  0.991800  1.0
  C  C745  1  0.399600  0.617800  0.967400  1.0
  C  C746  1  0.600400  0.382200  0.032600  1.0
  C  C747  1  0.394400  0.554300  0.013600  1.0
  C  C748  1  0.605600  0.445700  0.986400  1.0
  C  C749  1  0.424400  0.549100  0.935800  1.0
  C  C750  1  0.575600  0.450900  0.064200  1.0
  C  C751  1  0.053700  0.203400  0.791100  1.0
  C  C752  1  0.946300  0.796600  0.208900  1.0
  C  C753  1  0.997500  0.188700  0.783200  1.0
  C  C754  1  0.002500  0.811300  0.216800  1.0
  C  C755  1  0.005200  0.135000  0.837300  1.0
  C  C756  1  0.994800  0.865000  0.162700  1.0
  C  C757  1  0.917400  0.134800  0.792700  1.0
  C  C758  1  0.082600  0.865200  0.207300  1.0
  C  C759  1  0.632700  0.427200  0.739400  1.0
  C  C760  1  0.367300  0.572800  0.260600  1.0
  C  C761  1  0.678500  0.481800  0.784300  1.0
  C  C762  1  0.321500  0.518200  0.215700  1.0
  C  C763  1  0.628600  0.457500  0.841400  1.0
  C  C764  1  0.371400  0.542500  0.158600  1.0
  C  C765  1  0.715800  0.542900  0.879700  1.0
  C  C766  1  0.284200  0.457100  0.120300  1.0
  C  C767  1  0.760800  0.866100  0.587000  1.0
  C  C768  1  0.239200  0.133900  0.413000  1.0
  C  C769  1  0.718500  0.826100  0.526500  1.0
  C  C770  1  0.281500  0.173900  0.473500  1.0
  C  C771  1  0.632600  0.802000  0.460200  1.0
  C  C772  1  0.367400  0.198000  0.539800  1.0
  C  C773  1  0.666500  0.885100  0.545300  1.0
  C  C774  1  0.333500  0.114900  0.454700  1.0
  N  N775  1  0.367100  0.835300  0.069400  1
  N  N776  1  0.632900  0.164700  0.930600  1
  N  N777  1  0.440300  0.812100  0.107700  1
  N  N778  1  0.559700  0.187900  0.892300  1
  N  N779  1  0.659600  0.914400  0.103200  1
  N  N780  1  0.340400  0.085600  0.896800  1
  N  N781  1  0.623300  0.903200  0.013800  1
  N  N782  1  0.376700  0.096800  0.986200  1
  N  N783  1  0.572380  0.874000  0.854000  1.0
  N  N784  1  0.427620  0.126000  0.146000  1.0
  N  N785  1  0.598500  0.970500  0.911500  1.0
  N  N786  1  0.401500  0.029500  0.088500  1.0
  N  N787  1  0.204400  0.378400  0.948600  1.0
  N  N788  1  0.795600  0.621600  0.051400  1.0
  N  N789  1  0.140100  0.336500  0.975500  1.0
  N  N790  1  0.859900  0.663500  0.024500  1.0
  N  N791  1  0.726300  0.978300  0.491200  1.0
  N  N792  1  0.273700  0.021700  0.508800  1.0
  N  N793  1  0.710400  0.906000  0.410300  1.0
  N  N794  1  0.289600  0.094000  0.589700  1.0
  N  N795  1  0.805100  0.382200  0.886600  1.0
  N  N796  1  0.194900  0.617800  0.113400  1.0
  N  N797  1  0.795200  0.455400  0.943700  1.0
  N  N798  1  0.204800  0.544600  0.056300  1.0
  N  N799  1  0.523500  0.268800  0.589600  1.0
  N  N800  1  0.476500  0.731200  0.410400  1.0
  N  N801  1  0.497000  0.335100  0.633800  1.0
  N  N802  1  0.503000  0.664900  0.366200  1.0
  N  N803  1  0.961300  0.804300  0.989300  1.0
  N  N804  1  0.038700  0.195700  0.010700  1.0
  N  N805  1  0.019900  0.896500  0.053000  1.0
  N  N806  1  0.980100  0.103500  0.947000  1.0
  N  N807  1  0.615900  0.699000  0.632000  1.0
  N  N808  1  0.384100  0.301000  0.368000  1.0
  N  N809  1  0.564800  0.716000  0.563300  1.0
  N  N810  1  0.435200  0.284000  0.436700  1.0
  N  N811  1  0.927200  0.001100  0.723300  1.0
  N  N812  1  0.072800  0.998900  0.276700  1.0
  N  N813  1  0.839700  0.997900  0.685200  1.0
  N  N814  1  0.160300  0.002100  0.314800  1.0
  N  N815  1  0.860600  0.886000  0.326100  1.0
  N  N816  1  0.139400  0.114000  0.673900  1.0
  N  N817  1  0.854800  0.886700  0.243100  1.0
  N  N818  1  0.145200  0.113300  0.756900  1.0
  N  N819  1  0.517770  0.535820  0.209800  1.0
  N  N820  1  0.482230  0.464180  0.790200  1.0
  N  N821  1  0.449200  0.464300  0.124300  1.0
  N  N822  1  0.550800  0.535700  0.875700  1.0
  N  N823  1  0.337800  0.825830  0.090100  1.0
  N  N824  1  0.662200  0.174170  0.909900  1.0
  N  N825  1  0.308800  0.803500  0.155400  1.0
  N  N826  1  0.691200  0.196500  0.844600  1.0
  N  N827  1  0.660900  0.919900  0.091900  1.0
  N  N828  1  0.339100  0.080100  0.908100  1.0
  N  N829  1  0.712900  0.869700  0.099200  1.0
  N  N830  1  0.287100  0.130300  0.900800  1.0
  N  N831  1  0.404300  0.581200  0.974500  1.0
  N  N832  1  0.595700  0.418800  0.025500  1.0
  N  N833  1  0.976300  0.154900  0.802700  1.0
  N  N834  1  0.023700  0.845100  0.197300  1.0
  N  N835  1  0.672500  0.491800  0.831900  1.0
  N  N836  1  0.327500  0.508200  0.168100  1.0
  N  N837  1  0.675000  0.837200  0.511600  1.0
  N  N838  1  0.325000  0.162800  0.488400  1.0
  O  O839  1  0.359400  0.762700  0.088300  1
  O  O840  1  0.640600  0.237300  0.911700  1
  O  O841  1  0.524300  0.872600  0.125000  1
  O  O842  1  0.475700  0.127400  0.875000  1
  O  O843  1  0.594200  0.946300  0.075200  1
  O  O844  1  0.405800  0.053700  0.924800  1
  O  O845  1  0.650600  0.860500  0.950500  1
  O  O846  1  0.349400  0.139500  0.049500  1
  O  O847  1  0.312500  0.649600  0.765300  1.0
  O  O848  1  0.687500  0.350400  0.234700  1.0
  O  O849  1  0.387800  0.673000  0.840800  1.0
  O  O850  1  0.612200  0.327000  0.159200  1.0
  O  O851  1  0.323700  0.761000  0.666667  1.0
  O  O852  1  0.676300  0.239000  0.333333  1.0
  O  O853  1  0.402840  0.833900  0.694260  1.0
  O  O854  1  0.597160  0.166100  0.305740  1.0
  O  O855  1  0.550300  0.897500  0.925200  1.0
  O  O856  1  0.449700  0.102500  0.074800  1.0
  O  O857  1  0.647400  0.039100  0.891600  1.0
  O  O858  1  0.352600  0.960900  0.108400  1.0
  O  O859  1  0.219900  0.535800  0.791100  1.0
  O  O860  1  0.780100  0.464200  0.208900  1.0
  O  O861  1  0.292200  0.563200  0.868600  1.0
  O  O862  1  0.707800  0.436800  0.131400  1.0
  O  O863  1  0.051100  0.370100  0.728000  1.0
  O  O864  1  0.948900  0.629900  0.272000  1.0
  O  O865  1  0.050100  0.317500  0.773000  1.0
  O  O866  1  0.949900  0.682500  0.227000  1.0
  O  O867  1  0.164300  0.427900  0.989500  1.0
  O  O868  1  0.835700  0.572100  0.010500  1.0
  O  O869  1  0.111100  0.245900  0.959400  1.0
  O  O870  1  0.888900  0.754100  0.040600  1.0
  O  O871  1  0.322300  0.675500  0.898700  1.0
  O  O872  1  0.677700  0.324500  0.101300  1.0
  O  O873  1  0.247200  0.648200  0.822200  1.0
  O  O874  1  0.752800  0.351800  0.177800  1.0
  O  O875  1  0.170100  0.836700  0.900100  1.0
  O  O876  1  0.829900  0.163300  0.099900  1.0
  O  O877  1  0.146200  0.761500  0.822600  1.0
  O  O878  1  0.853800  0.238500  0.177400  1.0
  O  O879  1  0.911700  0.256100  0.608000  1.0
  O  O880  1  0.088300  0.743900  0.392000  1.0
  O  O881  1  0.905000  0.205600  0.655900  1.0
  O  O882  1  0.095000  0.794400  0.344100  1.0
  O  O883  1  0.753100  0.199100  0.440500  1.0
  O  O884  1  0.246900  0.800900  0.559500  1.0
  O  O885  1  0.676200  0.122800  0.408200  1.0
  O  O886  1  0.323800  0.877200  0.591800  1.0
  O  O887  1  0.650400  0.954900  0.427500  1.0
  O  O888  1  0.349600  0.045100  0.572500  1.0
  O  O889  1  0.757000  0.860900  0.395500  1.0
  O  O890  1  0.243000  0.139100  0.604500  1.0
  O  O891  1  0.942200  0.300500  0.753700  1.0
  O  O892  1  0.057800  0.699500  0.246300  1.0
  O  O893  1  0.942100  0.348100  0.704100  1.0
  O  O894  1  0.057900  0.651900  0.295900  1.0
  O  O895  1  0.840800  0.460100  0.706600  1.0
  O  O896  1  0.159200  0.539900  0.293400  1.0
  O  O897  1  0.790800  0.463500  0.755900  1.0
  O  O898  1  0.209200  0.536500  0.244100  1.0
  O  O899  1  0.879400  0.465300  0.946400  1.0
  O  O900  1  0.120600  0.534700  0.053600  1.0
  O  O901  1  0.714300  0.447600  0.948300  1.0
  O  O902  1  0.285700  0.552400  0.051700  1.0
  O  O903  1  0.731700  0.172400  0.330900  1.0
  O  O904  1  0.268300  0.827600  0.669100  1.0
  O  O905  1  0.651100  0.098100  0.299000  1.0
  O  O906  1  0.348900  0.901900  0.701000  1.0
  O  O907  1  0.843700  0.170700  0.229400  1.0
  O  O908  1  0.156300  0.829300  0.770600  1.0
  O  O909  1  0.819000  0.096600  0.151100  1.0
  O  O910  1  0.181000  0.903400  0.848900  1.0
  O  O911  1  0.696200  0.263700  0.441200  1.0
  O  O912  1  0.303800  0.736300  0.558800  1.0
  O  O913  1  0.619700  0.186700  0.413800  1.0
  O  O914  1  0.380300  0.813300  0.586200  1.0
  O  O915  1  0.752500  0.429600  0.611630  1.0
  O  O916  1  0.247500  0.570400  0.388370  1.0
  O  O917  1  0.701900  0.429000  0.660070  1.0
  O  O918  1  0.298100  0.571000  0.339930  1.0
  O  O919  1  0.497900  0.320300  0.550500  1.0
  O  O920  1  0.502100  0.679700  0.449500  1.0
  O  O921  1  0.496900  0.351000  0.716900  1.0
  O  O922  1  0.503100  0.649000  0.283100  1.0
  O  O923  1  0.870600  0.571600  0.730300  1.0
  O  O924  1  0.129400  0.428400  0.269700  1.0
  O  O925  1  0.816600  0.573000  0.776500  1.0
  O  O926  1  0.183400  0.427000  0.223500  1.0
  O  O927  1  0.037880  0.740100  0.793900  1.0
  O  O928  1  0.962120  0.259900  0.206100  1.0
  O  O929  1  0.060000  0.817900  0.870200  1.0
  O  O930  1  0.940000  0.182100  0.129800  1.0
  O  O931  1  0.094000  0.918600  0.118700  1.0
  O  O932  1  0.906000  0.081400  0.881300  1.0
  O  O933  1  0.945200  0.874200  0.987800  1.0
  O  O934  1  0.054800  0.125800  0.012200  1.0
  O  O935  1  0.779600  0.541900  0.639100  1.0
  O  O936  1  0.220400  0.458100  0.360900  1.0
  O  O937  1  0.724200  0.540100  0.684000  1.0
  O  O938  1  0.275800  0.459900  0.316000  1.0
  O  O939  1  0.791800  0.656300  0.542200  1.0
  O  O940  1  0.208200  0.343700  0.457800  1.0
  O  O941  1  0.746300  0.709900  0.545400  1.0
  O  O942  1  0.253700  0.290100  0.454600  1.0
  O  O943  1  0.550400  0.628100  0.550300  1.0
  O  O944  1  0.449600  0.371900  0.449700  1.0
  O  O945  1  0.577900  0.802900  0.574000  1.0
  O  O946  1  0.422100  0.197100  0.426000  1.0
  O  O947  1  0.072600  0.884400  0.817600  1.0
  O  O948  1  0.927400  0.115600  0.182400  1.0
  O  O949  1  0.045800  0.805700  0.740760  1.0
  O  O950  1  0.954200  0.194300  0.259240  1.0
  O  O951  1  0.886700  0.750400  0.577200  1.0
  O  O952  1  0.113300  0.249600  0.422800  1.0
  O  O953  1  0.839800  0.803400  0.575390  1.0
  O  O954  1  0.160200  0.196600  0.424610  1.0
  O  O955  1  0.857700  0.957500  0.741500  1.0
  O  O956  1  0.142300  0.042500  0.258500  1.0
  O  O957  1  0.822100  0.040900  0.633900  1.0
  O  O958  1  0.177900  0.959100  0.366100  1.0
  O  O959  1  0.865600  0.725500  0.468300  1.0
  O  O960  1  0.134400  0.274500  0.531700  1.0
  O  O961  1  0.816400  0.776500  0.466300  1.0
  O  O962  1  0.183600  0.223500  0.533700  1.0
  O  O963  1  0.980300  0.724300  0.366600  1.0
  O  O964  1  0.019700  0.275700  0.633400  1.0
  O  O965  1  0.985900  0.776500  0.322100  1.0
  O  O966  1  0.014100  0.223500  0.677900  1.0
  O  O967  1  0.938000  0.923200  0.313500  1.0
  O  O968  1  0.062000  0.076800  0.686500  1.0
  O  O969  1  0.773300  0.848800  0.168300  1.0
  O  O970  1  0.226700  0.151200  0.831700  1.0
  O  O971  1  0.724200  0.681100  0.434400  1.0
  O  O972  1  0.275800  0.318900  0.565600  1.0
  O  O973  1  0.772700  0.630000  0.433200  1.0
  O  O974  1  0.227300  0.370000  0.566800  1.0
  O  O975  1  0.715500  0.461950  0.265860  1.0
  O  O976  1  0.284500  0.538050  0.734140  1.0
  O  O977  1  0.643400  0.439500  0.188200  1.0
  O  O978  1  0.356600  0.560500  0.811800  1.0
  O  O979  1  0.373900  0.395700  0.114900  1.0
  O  O980  1  0.626100  0.604300  0.885100  1.0
  O  O981  1  0.518400  0.530300  0.122500  1.0
  O  O982  1  0.481600  0.469700  0.877500  1.0
  O  O983  1  0.256300  0.825000  0.092900  1.0
  O  O984  1  0.743700  0.175000  0.907100  1.0
  O  O985  1  0.363400  0.781900  0.217800  1.0
  O  O986  1  0.636600  0.218100  0.782200  1.0
  O  O987  1  0.690200  0.908300  0.168100  1.0
  O  O988  1  0.309800  0.091700  0.831900  1.0
  O  O989  1  0.737000  0.829900  0.031100  1.0
  O  O990  1  0.263000  0.170100  0.968900  1.0
  O  O991  1  0.193000  0.572800  0.696700  1.0
  O  O992  1  0.807000  0.427200  0.303300  1.0
  O  O993  1  0.411500  0.636400  0.934400  1.0
  O  O994  1  0.588500  0.363600  0.065600  1.0
  O  O995  1  0.982600  0.367700  0.619800  1.0
  O  O996  1  0.017400  0.632300  0.380200  1.0
  O  O997  1  0.968200  0.207000  0.761000  1.0
  O  O998  1  0.031800  0.793000  0.239000  1.0
  O  O999  1  0.797700  0.294200  0.409800  1.0
  O  O1000  1  0.202300  0.705800  0.590200  1.0
  O  O1001  1  0.553600  0.066700  0.327200  1.0
  O  O1002  1  0.446400  0.933300  0.672800  1.0
  O  O1003  1  0.865600  0.493300  0.621700  1.0
  O  O1004  1  0.134400  0.506700  0.378300  1.0
  O  O1005  1  0.712700  0.512200  0.775900  1.0
  O  O1006  1  0.287300  0.487800  0.224100  1.0
  O  O1007  1  0.882900  0.639300  0.506000  1.0
  O  O1008  1  0.117100  0.360700  0.494000  1.0
  O  O1009  1  0.723700  0.787200  0.499500  1.0
  O  O1010  1  0.276300  0.212800  0.500500  1.0
  O  O1011  1  0.072200  0.708800  0.698000  1.0
  O  O1012  1  0.927800  0.291200  0.302000  1.0
  O  O1013  1  0.148500  0.936000  0.944300  1.0
  O  O1014  1  0.851500  0.064000  0.055700  1.0
