
#######################################################################
#
#                 Cambridge Crystallographic Data Centre
#                                CCDC 
#
#######################################################################
#
# If this CIF has been generated from an entry in the Cambridge 
# Structural Database, then it will include bibliographic, chemical, 
# crystal, experimental, refinement or atomic coordinate data resulting 
# from the CCDC's data processing and validation procedures.
#
#######################################################################

data_ZIWMAV
_chemical_formula_moiety         'C368 H344 Cu24 N56 O168'
_chemical_name_systematic        
'tetracosakis(\m~4~-5-((5-methyl-2,4-dioxo-3,4-dihydropyrimidin-1(2H)-yl)methyl)benzene-1,3-dicarboxylato)-octakis(N,N-dimethylacetamide)-hexadecaaqua-tetracosa-copper unknown solvate'
_symmetry_cell_setting           triclinic
_symmetry_space_group_name_H-M   'P -1'
_symmetry_Int_Tables_number      2
_space_group_name_Hall           '-P 1'
loop_
_symmetry_equiv_pos_site_id
_symmetry_equiv_pos_as_xyz
1 x,y,z
2 -x,-y,-z
_cell_length_a                   27.990(3)
_cell_length_b                   28.102(3)
_cell_length_c                   28.303(5)
_cell_angle_alpha                109.319(2)
_cell_angle_beta                 106.426(2)
_cell_angle_gamma                107.1820(10)
_cell_volume                     18196.1
_exptl_crystal_colour            'blue green'
_exptl_crystal_description       block
_cell_formula_units_Z            1
loop_
_atom_site_label
_atom_site_type_symbol
_atom_site_fract_x
_atom_site_fract_y
_atom_site_fract_z
Cu1 Cu 0.25986(3) 0.59144(4) 0.77214(4)
Cu2 Cu 0.34599(4) 0.61975(4) 0.86185(4)
Cu3 Cu -0.01851(4) 0.31672(4) 0.66428(4)
Cu4 Cu -0.02326(4) 0.25676(4) 0.71911(4)
Cu5 Cu -0.27877(3) 0.22483(4) 0.38843(4)
Cu6 Cu -0.37116(3) 0.13626(4) 0.35388(4)
Cu7 Cu -0.18499(4) 0.50046(4) 0.66750(4)
Cu8 Cu -0.24672(4) 0.50181(4) 0.72341(4)
Cu9 Cu -0.16669(4) 0.68636(4) 0.50506(4)
Cu10 Cu -0.22334(4) 0.74702(4) 0.50546(4)
Cu11 Cu 0.09451(4) 0.77778(4) 0.77496(4)
Cu12 Cu 0.12272(4) 0.86708(4) 0.86628(3)
O1 O 0.3125(2) 0.6496(2) 0.7653(2)
O2 O 0.3878(2) 0.6730(2) 0.8408(2)
O3 O 0.3237(2) 0.7610(2) 0.6667(2)
O4 O 0.40284(19) 0.8339(2) 0.69426(19)
O5 O 0.5503(3) 0.8975(4) 0.9252(4)
O6 O 0.6474(3) 1.0391(4) 0.8916(4)
O7 O 0.2199(2) 0.5358(2) 0.7911(2)
O8 O 0.2922(2) 0.5632(2) 0.8686(2)
O9 O 0.0511(2) 0.3701(2) 0.7280(2)
O10 O 0.0501(2) 0.3175(2) 0.7730(2)
O11 O 0.1643(2) 0.4279(2) 0.9895(2)
O12 O 0.1111(3) 0.2459(3) 0.9594(3)
O13 O 0.3223(2) 0.6755(2) 0.8987(2)
O14 O 0.2472(2) 0.6482(2) 0.8222(2)
O15 O 0.1701(2) 0.8367(2) 0.9001(2)
O16 O 0.1462(2) 0.7615(2) 0.8226(2)
O17 O -0.0883(2) 0.2561(2) 0.6080(2)
O18 O -0.0950(2) 0.2056(2) 0.6559(2)
O19 O -0.2469(2) 0.1991(2) 0.4405(2)
O20 O -0.3238(2) 0.1228(2) 0.4082(2)
O21 O -0.3496(4) -0.0451(4) 0.4275(4)
O22 O -0.2430(4) -0.1391(5) 0.3955(5)
O23 O -0.0578(2) 0.3005(2) 0.7537(2)
O24 O -0.0579(2) 0.3481(2) 0.7041(2)
O25 O -0.1592(2) 0.4601(2) 0.7066(2)
O26 O -0.2092(2) 0.4635(2) 0.7559(2)
O27 O -0.1206(3) 0.4653(3) 0.9464(3)
O28 O -0.2857(3) 0.4476(3) 0.9483(3)
O29 O -0.2683(2) 0.1724(2) 0.3309(2)
O30 O -0.3489(2) 0.0981(2) 0.2990(2)
O31 O -0.1563(2) 0.1707(2) 0.2294(2)
O32 O -0.1810(2) 0.0966(2) 0.1511(2)
O33 O -0.3038(2) 0.2637(2) 0.4412(2)
O34 O -0.3803(2) 0.1867(2) 0.4138(2)
O35 O -0.2475(2) 0.4296(2) 0.61163(19)
O36 O -0.2981(2) 0.4290(2) 0.66007(19)
O37 O -0.5021(2) 0.3203(2) 0.5505(2)
O38 O -0.5031(3) 0.3510(3) 0.7169(3)
O39 O -0.1294(2) 0.5716(2) 0.7303(2)
O40 O -0.1834(2) 0.5730(2) 0.7765(2)
O41 O 0.03788(19) 0.7401(2) 0.7939(2)
O42 O 0.0600(2) 0.8179(2) 0.8702(2)
O43 O 0.0940(3) 0.9186(3) 1.1187(3)
O44 O -0.0548(2) 0.8742(3) 0.9878(3)
O45 O -0.2204(2) 0.5419(2) 0.6391(2)
O46 O -0.2758(2) 0.5401(2) 0.6840(2)
O47 O -0.2082(2) 0.6563(2) 0.5422(2)
O48 O -0.2537(2) 0.7099(2) 0.5454(2)
O49 O -0.4496(3) 0.6281(3) 0.5503(3)
O50 O -0.4221(3) 0.8029(3) 0.5740(3)
O51 O 0.0726(2) 0.8844(2) 0.8176(2)
O52 O 0.0458(2) 0.8057(2) 0.74076(19)
O53 O -0.1133(2) 0.7504(2) 0.5772(2)
O54 O -0.1602(2) 0.8034(2) 0.57539(19)
O55 O -0.1423(5) 0.9575(4) 0.7415(4)
O56 O -0.1779(4) 1.0409(4) 0.6339(4)
O57 O -0.1344(2) 0.7255(2) 0.4683(2)
O58 O -0.1836(2) 0.7765(2) 0.4663(2)
O59 O -0.0197(2) 0.7243(2) 0.3666(2)
O60 O -0.0141(2) 0.7765(2) 0.3221(2)
O61 O -0.0620(3) 0.9232(3) 0.3135(3)
O62 O -0.2267(4) 0.8488(4) 0.1683(4)
O63 O -0.2758(2) 0.6811(2) 0.4344(2)
O64 O -0.2273(2) 0.6300(2) 0.4332(2)
O65 O -0.2845(2) 0.46195(19) 0.26586(19)
O66 O -0.3566(2) 0.4395(2) 0.1882(2)
O67 O -0.6261(4) 0.3957(4) 0.1149(4)
O68 O -0.4816(4) 0.5303(4) 0.1225(4)
N1 N 0.57238(11) 0.8740(3) 0.8540(4)
N2 N 0.5985(2) 0.9705(3) 0.9115(3)
H1 H 0.5991 0.9964 0.9399
N3 N 0.2044(3) 0.3784(3) 0.9486(3)
N4 N 0.1401(3) 0.3365(3) 0.9755(3)
H2 H 0.1177 0.3392 0.9917
N5 N -0.2737(4) -0.0217(4) 0.4912(4)
N6 N -0.2896(4) -0.0940(4) 0.4103(3)
H3 H -0.3098 -0.1165 0.3748
N7 N -0.1949(4) 0.3822(4) 0.8866(3)
N8 N -0.2048(3) 0.4554(3) 0.9437(3)
H4 H -0.1901 0.4912 0.9666
N9 N -0.4765(2) 0.2688(3) 0.5896(3)
N10 N -0.5030(3) 0.3351(3) 0.6338(3)
H5 H -0.5152 0.3606 0.6338
N11 N -0.0387(3) 0.8043(3) 0.9893(3)
N12 N 0.0199(3) 0.8965(3) 1.0530(3)
H6 H 0.0284 0.9323 1.0648
N13 N -0.3841(3) 0.6990(3) 0.6320(3)
N14 N -0.4352(3) 0.7160(3) 0.5633(3)
H7 H -0.4617 0.7028 0.5303
N15 N -0.0728(6) 1.0011(4) 0.7233(5)
N16 N -0.1603(4) 0.9979(4) 0.6852(5)
H8 H -0.1948 0.9853 0.6808
N17 N -0.1394(4) 0.8860(3) 0.3261(3)
N18 N -0.1452(4) 0.8867(3) 0.2431(4)
H9 H -0.1289 0.8964 0.2232
N19 N -0.48223(11) 0.53582(19) 0.2098(3)
N20 N -0.5508(3) 0.4643(3) 0.1243(3)
H10 H -0.5639 0.4476 0.0881
C1 C 0.3632(3) 0.6776(3) 0.8003(3)
C2 C 0.3732(3) 0.7917(3) 0.6969(3)
C3 C 0.37125(14) 0.73416(18) 0.74791(18)
H11 H 0.3324 0.7151 0.7270
C4 C 0.39681(19) 0.72082(18) 0.7882(2)
C5 C 0.4537(2) 0.7488(2) 0.81883(19)
H12 H 0.4711 0.7397 0.8464
C6 C 0.48497(14) 0.7901(2) 0.8092(2)
C7 C 0.45940(18) 0.80339(18) 0.7689(2)
H13 H 0.4808 0.8316 0.7623
C8 C 0.40254(19) 0.7754(2) 0.73826(18)
C9 C 0.5467(2) 0.8171(4) 0.8407(4)
H14 H 0.5560 0.8134 0.8753
H15 H 0.5623 0.7966 0.8184
C10 C 0.57304(19) 0.9145(4) 0.8989(3)
C11 C 0.6232(2) 0.9856(3) 0.8792(3)
C12 C 0.62256(18) 0.9452(3) 0.8344(3)
C13 C 0.59739(19) 0.8891(3) 0.8210(3)
H16 H 0.5970 0.8614 0.7903
C14 C 0.6495(3) 0.9625(4) 0.8000(4)
H17 H 0.6653 1.0032 0.8149
H18 H 0.6219 0.9453 0.7618
H19 H 0.6789 0.9500 0.8008
C15 C 0.2439(3) 0.5320(3) 0.8324(3)
C16 C 0.0709(3) 0.3583(4) 0.7654(4)
C17 C 0.1580(2) 0.4476(2) 0.80436(18)
H20 H 0.1409 0.4531 0.7737
C18 C 0.2115(2) 0.48527(17) 0.8431(2)
C19 C 0.23646(16) 0.47724(19) 0.88799(19)
H21 H 0.2730 0.5030 0.9145
C20 C 0.2079(2) 0.4316(2) 0.89407(18)
C21 C 0.1544(2) 0.39395(18) 0.8553(2)
H22 H 0.1349 0.3627 0.8594
C22 C 0.12946(16) 0.40199(18) 0.8104(2)
C23 C 0.2377(3) 0.4256(3) 0.9444(3)
H23 H 0.2713 0.4218 0.9427
H24 H 0.2495 0.4601 0.9781
C24 C 0.1692(4) 0.3843(4) 0.9726(3)
C25 C 0.1420(4) 0.2858(4) 0.9563(4)
C26 C 0.1795(4) 0.2827(4) 0.9301(4)
C27 C 0.2094(4) 0.3283(4) 0.9281(3)
H25 H 0.2350 0.3267 0.9123
C28 C 0.1829(5) 0.2299(5) 0.9066(4)
H26 H 0.2094 0.2341 0.8903
H27 H 0.1465 0.2010 0.8781
H28 H 0.1949 0.2190 0.9358
C29 C 0.2801(3) 0.6793(3) 0.8713(4)
C30 C 0.1737(3) 0.7944(4) 0.8732(4)
C31 C 0.2264(2) 0.7360(2) 0.87575(16)
H29 H 0.2054 0.7139 0.8370
C32 C 0.2681(2) 0.72513(19) 0.9038(2)
C33 C 0.2989(2) 0.7574(2) 0.9604(2)
H30 H 0.3274 0.7500 0.9796
C34 C 0.2879(2) 0.8006(2) 0.98909(17)
C35 C 0.2462(2) 0.81146(19) 0.9611(2)
H31 H 0.2387 0.8410 0.9807
C36 C 0.2154(2) 0.7792(2) 0.9044(2)
C37 C 0.3216(9) 0.8410(2) 1.0459(5)
H32 H 0.3023 0.8645 1.0558
H33 H 0.3561 0.8655 1.0471
N21 N 0.3378(6) 0.82583(16) 1.0901(4)
C38 C 0.2995(5) 0.8182(3) 1.1125(5)
N22 N 0.3088(5) 0.8035(3) 1.1554(5)
H34 H 0.2847 0.7986 1.1697
C39 C 0.3563(5) 0.7964(3) 1.1757(4)
C40 C 0.3945(4) 0.8040(4) 1.1533(5)
C41 C 0.3861(6) 0.8187(3) 1.1105(5)
H35 H 0.4123 0.8239 1.0952
C42 C 0.4456(5) 0.7962(6) 1.1759(7)
H36 H 0.4454 0.7860 1.2058
H37 H 0.4783 0.8310 1.1901
H38 H 0.4465 0.7663 1.1464
O69 O 0.2563(6) 0.8250(5) 1.0929(6)
O70 O 0.3634(6) 0.7819(4) 1.2178(6)
C43 C -0.1113(3) 0.2170(3) 0.6161(3)
C44 C -0.2746(4) 0.1572(3) 0.4422(3)
C45 C -0.1954(6) 0.1812(4) 0.5268(6)
H39 H -0.1770 0.2145 0.5251
C46 C -0.1701(4) 0.1711(5) 0.5700(5)
C47 C -0.1971(6) 0.1224(6) 0.5724(4)
H40 H -0.1798 0.1155 0.6019
C48 C -0.2494(6) 0.0836(4) 0.5316(6)
C49 C -0.2747(4) 0.0936(5) 0.4884(5)
H41 H -0.3105 0.0671 0.4605
C50 C -0.2477(6) 0.1424(6) 0.4860(4)
C51 C -0.2818(7) 0.0257(7) 0.5284(7)
H42 H -0.2695 0.0286 0.5661
H43 H -0.3216 0.0166 0.5144
C52 C -0.3079(4) -0.0594(5) 0.4377(4)
C53 C -0.2413(4) -0.0954(5) 0.4355(3)
C54 C -0.2061(3) -0.0576(4) 0.4910(3)
C55 C -0.2250(4) -0.0216(5) 0.5196(3)
H44 H -0.2044 0.0024 0.5581
C56 C -0.1655(5) -0.0728(6) 0.5233(4)
H45 H -0.1564 -0.0983 0.4981
H46 H -0.1819 -0.0912 0.5426
H47 H -0.1319 -0.0389 0.5504
C57 C -0.0708(3) 0.3334(3) 0.7371(3)
C58 C -0.1763(3) 0.4486(3) 0.7401(3)
C59 C -0.1204(2) 0.3945(2) 0.74440(19)
H48 H -0.1108 0.4024 0.7173
C60 C -0.10220(19) 0.3606(2) 0.7636(2)
C61 C -0.1162(2) 0.3491(2) 0.8032(2)
H49 H -0.1038 0.3259 0.8163
C62 C -0.1484(2) 0.3714(2) 0.82367(19)
C63 C -0.1666(2) 0.4053(2) 0.8045(2)
H50 H -0.1886 0.4206 0.8185
C64 C -0.1526(2) 0.41686(19) 0.7649(2)
C65 C -0.1600(4) 0.3583(4) 0.8671(4)
H51 H -0.1784 0.3172 0.8524
H52 H -0.1246 0.3724 0.8990
C66 C -0.1707(4) 0.4361(5) 0.9280(4)
C67 C -0.2588(5) 0.4264(5) 0.9285(5)
C68 C -0.2826(4) 0.3684(5) 0.8855(4)
C69 C -0.2503(5) 0.3528(5) 0.8677(4)
H53 H -0.2667 0.3164 0.8378
C70 C -0.3437(5) 0.3308(6) 0.8631(6)
H54 H -0.3526 0.2941 0.8346
H55 H -0.3656 0.3475 0.8470
H56 H -0.3521 0.3266 0.8932
C71 C -0.3037(4) 0.1249(4) 0.2984(3)
C72 C -0.1868(3) 0.1224(4) 0.1929(3)
C73 C -0.2429(4) 0.1179(4) 0.2474(4)
H57 H -0.2162 0.1536 0.2763
C74 C -0.2915(4) 0.0911(5) 0.2505(4)
C75 C -0.3306(4) 0.0389(5) 0.2082(4)
H58 H -0.3638 0.0206 0.2103
C76 C -0.3210(4) 0.0135(4) 0.1628(4)
C77 C -0.2724(4) 0.0403(5) 0.1597(4)
H59 H -0.2659 0.0229 0.1287
C78 C -0.2333(4) 0.0925(5) 0.2020(4)
C79 C -0.3668(2) -0.0476(4) 0.1134(6)
H60 H -0.3902 -0.0673 0.1276
H61 H -0.3908 -0.0432 0.0834
N23 N -0.3391(2) -0.0801(2) 0.0919(3)
C80 C -0.3118(3) -0.1004(3) 0.1220(3)
N24 N -0.2871(3) -0.1303(3) 0.0992(3)
H62 H -0.2692 -0.1437 0.1181
C81 C -0.2890(3) -0.1402(3) 0.0482(4)
C82 C -0.3171(3) -0.1195(3) 0.0166(3)
C83 C -0.3427(3) -0.0885(3) 0.0404(3)
H63 H -0.3623 -0.0735 0.0208
C84 C -0.3211(5) -0.1286(6) -0.0403(3)
H64 H -0.3013 -0.1508 -0.0510
H65 H -0.3046 -0.0924 -0.0399
H66 H -0.3600 -0.1485 -0.0668
O71 O -0.3098(3) -0.0917(3) 0.1681(4)
O72 O -0.2630(4) -0.1701(4) 0.0311(5)
C85 C -0.3461(3) 0.2361(3) 0.4442(3)
C86 C -0.2891(3) 0.4072(3) 0.6200(3)
C87 C -0.32029(17) 0.3230(2) 0.5313(2)
H67 H -0.2876 0.3412 0.5283
C88 C -0.3575(2) 0.2688(2) 0.49179(17)
C89 C -0.40539(19) 0.24208(16) 0.49610(18)
H68 H -0.4308 0.2050 0.4691
C90 C -0.41601(17) 0.2696(2) 0.5399(2)
C91 C -0.3788(2) 0.3238(2) 0.57936(17)
H69 H -0.3860 0.3426 0.6093
C92 C -0.33092(19) 0.35048(16) 0.57505(18)
C93 C -0.4688(3) 0.2377(3) 0.5415(3)
H70 H -0.5003 0.2279 0.5075
H71 H -0.4692 0.2024 0.5416
C94 C -0.4943(3) 0.3088(4) 0.5882(4)
C95 C -0.4941(4) 0.3243(5) 0.6796(4)
C96 C -0.4761(5) 0.2816(5) 0.6777(4)
C97 C -0.4679(4) 0.2562(4) 0.6324(4)
H72 H -0.4554 0.2279 0.6309
C98 C -0.4647(7) 0.2693(6) 0.7252(5)
H73 H -0.4529 0.2391 0.7179
H74 H -0.4983 0.2578 0.7312
H75 H -0.4355 0.3028 0.7582
C99 C -0.1412(3) 0.5946(3) 0.7686(3)
C100 C 0.0305(3) 0.7675(4) 0.8337(4)
C101 C -0.0543(4) 0.6805(4) 0.8048(3)
H76 H -0.0480 0.6627 0.7738
C102 C -0.0997(3) 0.6519(3) 0.8115(3)
C103 C -0.1089(3) 0.6780(4) 0.8569(4)
H77 H -0.1400 0.6585 0.8614
C104 C -0.0727(4) 0.7328(4) 0.8956(3)
C105 C -0.0273(3) 0.7615(3) 0.8889(3)
H78 H -0.0026 0.7989 0.9154
C106 C -0.0181(3) 0.7353(4) 0.8435(4)
C107 C -0.0878(4) 0.7590(4) 0.9426(4)
H79 H -0.1149 0.7732 0.9302
H80 H -0.1047 0.7305 0.9534
C108 C -0.0272(3) 0.8592(3) 1.0072(4)
C109 C 0.0545(3) 0.8802(2) 1.0812(3)
C110 C 0.0442(3) 0.8238(3) 1.0619(3)
C111 C -0.0029(3) 0.7855(2) 1.0124(3)
H81 H -0.0097 0.7474 0.9953
C112 C 0.0911(3) 0.8086(4) 1.0791(4)
H82 H 0.1209 0.8396 1.1138
H83 H 0.1047 0.8012 1.0504
H84 H 0.0783 0.7751 1.0844
C113 C -0.2547(3) 0.5549(3) 0.6539(3)
C114 C -0.2386(3) 0.6763(3) 0.5572(3)
C115 C -0.25215(19) 0.6126(2) 0.6026(2)
H85 H -0.2262 0.6014 0.5924
C116 C -0.2756(2) 0.59105(18) 0.63254(19)
C117 C -0.3135(2) 0.6074(2) 0.64751(19)
H86 H -0.3296 0.5927 0.6680
C118 C -0.3280(2) 0.6453(2) 0.6326(2)
C119 C -0.3045(2) 0.6668(2) 0.6027(2)
H87 H -0.3144 0.6927 0.5924
C120 C -0.2666(2) 0.6505(2) 0.58768(19)
C121 C -0.3677(4) 0.6640(4) 0.6521(4)
H88 H -0.4011 0.6304 0.6409
H89 H -0.3501 0.6840 0.6929
C122 C -0.4247(4) 0.6770(5) 0.5795(4)
C123 C -0.4084(4) 0.7731(4) 0.5937(4)
C124 C -0.3644(5) 0.7951(4) 0.6475(5)
C125 C -0.3532(4) 0.7576(5) 0.6640(4)
H90 H -0.3233 0.7715 0.6986
C126 C -0.3320(5) 0.8586(5) 0.6858(5)
H91 H -0.3042 0.8652 0.7204
H92 H -0.3575 0.8740 0.6938
H93 H -0.3137 0.8767 0.6675
C127 C 0.0442(3) 0.8501(3) 0.7679(3)
C128 C -0.1198(3) 0.7937(4) 0.5975(3)
C129 C -0.0363(2) 0.82602(18) 0.6821(2)
H94 H -0.0355 0.7910 0.6658
C130 C 0.00205(19) 0.8651(2) 0.7356(2)
C131 C 0.0008(2) 0.9164(2) 0.75950(18)
H95 H 0.0271 0.9431 0.7960
C132 C -0.0387(3) 0.92856(19) 0.7300(2)
C133 C -0.0771(2) 0.8895(2) 0.6766(2)
H96 H -0.1042 0.8978 0.6564
C134 C -0.0759(2) 0.8382(2) 0.65263(17)
C135 C -0.0366(4) 0.9856(4) 0.7593(4)
H97 H -0.0474 0.9867 0.7899
H98 H 0.0019 1.0141 0.7757
C136 C -0.1229(8) 0.9862(6) 0.7174(7)
C137 C -0.1438(5) 1.0281(6) 0.6611(6)
C138 C -0.0890(6) 1.0453(5) 0.6648(5)
C139 C -0.0545(5) 1.0282(6) 0.6934(6)
H99 H -0.0193 1.0346 0.6930
C140 C -0.0686(5) 1.0792(4) 0.6351(5)
H100 H -0.0300 1.0868 0.6429
H101 H -0.0716 1.1146 0.6486
H102 H -0.0912 1.0576 0.5952
C141 C -0.1494(3) 0.7578(4) 0.4556(3)
C142 C -0.0296(3) 0.7604(4) 0.3532(3)
C143 C -0.1200(2) 0.7856(2) 0.4269(2)
C144 C -0.0877(2) 0.76349(18) 0.4063(2)
H103 H -0.0830 0.7332 0.4117
C145 C -0.0622(2) 0.7857(2) 0.3780(2)
C146 C -0.0690(2) 0.8300(2) 0.3702(2)
H104 H -0.0515 0.8451 0.3509
C147 C -0.1013(2) 0.8521(2) 0.3908(2)
C148 C -0.1268(2) 0.8299(2) 0.4191(2)
H105 H -0.1488 0.8450 0.4331
C149 C -0.1082(5) 0.9023(4) 0.3843(4)
H106 H -0.1278 0.9156 0.4059
H107 H -0.0714 0.9333 0.3986
C150 C -0.1121(6) 0.9008(5) 0.2958(4)
C151 C -0.2016(6) 0.8587(5) 0.2182(6)
C152 C -0.2284(6) 0.8439(6) 0.2504(6)
C153 C -0.1950(6) 0.8592(5) 0.3012(6)
H108 H -0.2122 0.8501 0.3236
C154 C -0.2880(6) 0.8148(7) 0.2237(7)
H109 H -0.3017 0.8067 0.2497
H110 H -0.2993 0.7797 0.1914
H111 H -0.3032 0.8382 0.2119
C155 C -0.2676(3) 0.6399(3) 0.4119(3)
C156 C -0.3243(3) 0.4685(3) 0.2384(4)
C157 C -0.2993(3) 0.5523(4) 0.3261(4)
H112 H -0.2684 0.5472 0.3442
C158 C -0.3083(3) 0.5973(4) 0.3543(3)
C159 C -0.3535(4) 0.6047(3) 0.3278(4)
H113 H -0.3597 0.6355 0.3470
C160 C -0.3897(3) 0.5673(4) 0.2732(4)
C161 C -0.3806(3) 0.5223(4) 0.2450(3)
H114 H -0.4054 0.4967 0.2077
C162 C -0.3354(4) 0.5148(3) 0.2715(4)
C163 C -0.4315(2) 0.5849(3) 0.2480(4)
H115 H -0.4378 0.6100 0.2772
H116 H -0.4182 0.6054 0.2284
C164 C -0.5019(3) 0.5104(3) 0.1537(3)
C165 C -0.5801(2) 0.4432(2) 0.1496(3)
C166 C -0.5604(2) 0.4688(2) 0.2070(3)
C167 C -0.5099(2) 0.5165(2) 0.2375(2)
H117 H -0.4951 0.5351 0.2767
C168 C -0.5920(4) 0.4462(4) 0.2351(4)
H118 H -0.6257 0.4127 0.2074
H119 H -0.6017 0.4744 0.2559
H120 H -0.5693 0.4366 0.2603
O73 O 0.1930(3) 0.5728(4) 0.6967(3)
O74 O 0.4115(3) 0.6364(4) 0.9344(3)
O75 O -0.0174(4) 0.3677(5) 0.6198(4)
O76 O -0.0318(3) 0.2070(3) 0.7610(3)
O77 O -0.2023(3) 0.2942(3) 0.4098(3)
O78 O -0.4464(2) 0.0667(2) 0.3272(3)
O79 O -0.1344(4) 0.4933(4) 0.6217(4)
O80 O -0.2873(3) 0.5122(3) 0.7759(3)
O81 O -0.1171(4) 0.6393(4) 0.5060(4)
O82 O -0.2763(3) 0.7872(3) 0.4995(3)
O83 O 0.0722(4) 0.7088(3) 0.6980(3)
O84 O 0.1485(2) 0.9360(2) 0.9443(2)
N25 N 0.4043(4) 0.5812(5) 0.9745(4)
N26 N -0.0237(4) 0.1549(4) 0.8027(4)
N27 N -0.3275(4) 0.4918(5) 0.8319(5)
N28 N -0.3250(4) 0.8372(4) 0.5116(4)
C169 C 0.3743(5) 0.6455(6) 1.0082(5)
H121 H 0.3501 0.6165 1.0135
H122 H 0.3531 0.6626 0.9917
H123 H 0.4044 0.6742 1.0439
C170 C 0.3996(6) 0.6178(7) 0.9674(6)
C171 C 0.3944(5) 0.5543(6) 1.0136(5)
H124 H 0.3809 0.5753 1.0375
H125 H 0.4292 0.5562 1.0364
H126 H 0.3670 0.5153 0.9917
C172 C 0.4244(5) 0.5491(6) 0.9358(5)
H127 H 0.4299 0.5664 0.9117
H128 H 0.3976 0.5099 0.9133
H129 H 0.4595 0.5513 0.9582
C173 C 0.0537(5) 0.2034(4) 0.7911(5)
H130 H 0.0636 0.2284 0.7746
H131 H 0.0581 0.1696 0.7734
H132 H 0.0778 0.2225 0.8307
C174 C -0.0025(5) 0.1887(5) 0.7832(5)
C175 C 0.0052(5) 0.1350(4) 0.8373(4)
H133 H 0.0437 0.1482 0.8426
H134 H -0.0125 0.0941 0.8196
H135 H 0.0037 0.1494 0.8733
C176 C -0.0826(5) 0.1348(4) 0.7927(5)
H136 H -0.1011 0.1487 0.7691
H137 H -0.0854 0.1487 0.8280
H138 H -0.1004 0.0939 0.7743
C177 C -0.3673(5) 0.4272(5) 0.7394(5)
H139 H -0.3630 0.4198 0.7048
H140 H -0.4028 0.4289 0.7345
H141 H -0.3662 0.3973 0.7494
C178 C -0.3215(6) 0.4818(6) 0.7843(6)
C179 C -0.3714(5) 0.4575(5) 0.8414(5)
H142 H -0.3983 0.4247 0.8064
H143 H -0.3898 0.4795 0.8559
H144 H -0.3552 0.4453 0.8681
C180 C -0.2842(5) 0.5429(5) 0.8797(5)
H145 H -0.2572 0.5619 0.8686
H146 H -0.2658 0.5336 0.9081
H147 H -0.3004 0.5674 0.8946
C181 C -0.2392(4) 0.8661(4) 0.5870(4)
H148 H -0.2082 0.8561 0.5956
H149 H -0.2569 0.8630 0.6119
H150 H -0.2256 0.9046 0.5919
C182 C -0.2815(5) 0.8261(5) 0.5265(5)
C183 C -0.3674(4) 0.8020(4) 0.4602(4)
H151 H -0.3588 0.7720 0.4408
H152 H -0.3722 0.8231 0.4390
H153 H -0.4016 0.7860 0.4639
C184 C -0.3335(4) 0.8851(4) 0.5453(4)
H154 H -0.3020 0.9076 0.5816
H155 H -0.3673 0.8707 0.5501
H156 H -0.3367 0.9082 0.5264
Cu1A Cu -0.25986(3) 0.40856(4) 0.22786(4)
Cu2A Cu -0.34599(4) 0.38025(4) 0.13815(4)
Cu3A Cu 0.01851(4) 0.68328(4) 0.33572(4)
Cu4A Cu 0.02326(4) 0.74324(4) 0.28089(4)
Cu5A Cu 0.27877(3) 0.77517(4) 0.61157(4)
Cu6A Cu 0.37116(3) 0.86374(4) 0.64612(4)
Cu7A Cu 0.18499(4) 0.49954(4) 0.33250(4)
Cu8A Cu 0.24672(4) 0.49819(4) 0.27659(4)
Cu9A Cu 0.16669(4) 0.31364(4) 0.49494(4)
Cu10A Cu 0.22334(4) 0.25298(4) 0.49454(4)
Cu11A Cu -0.09451(4) 0.22222(4) 0.22504(4)
Cu12A Cu -0.12272(4) 0.13292(4) 0.13372(3)
O1A O -0.3125(2) 0.3504(2) 0.2347(2)
O2A O -0.3878(2) 0.3270(2) 0.1592(2)
O3A O -0.3237(2) 0.2390(2) 0.3333(2)
O4A O -0.40284(19) 0.1661(2) 0.30574(19)
O5A O -0.5503(3) 0.1025(4) 0.0748(4)
O6A O -0.6474(3) -0.0391(4) 0.1084(4)
O7A O -0.2199(2) 0.4642(2) 0.2089(2)
O8A O -0.2922(2) 0.4368(2) 0.1314(2)
O9A O -0.0511(2) 0.6299(2) 0.2720(2)
O10A O -0.0501(2) 0.6825(2) 0.2270(2)
O11A O -0.1643(2) 0.5721(2) 0.0105(2)
O12A O -0.1111(3) 0.7541(3) 0.0406(3)
O13A O -0.3223(2) 0.3245(2) 0.1013(2)
O14A O -0.2472(2) 0.3518(2) 0.1778(2)
O15A O -0.1701(2) 0.1633(2) 0.0999(2)
O16A O -0.1462(2) 0.2385(2) 0.1774(2)
O17A O 0.0883(2) 0.7439(2) 0.3920(2)
O18A O 0.0950(2) 0.7944(2) 0.3441(2)
O19A O 0.2469(2) 0.8009(2) 0.5595(2)
O20A O 0.3238(2) 0.8772(2) 0.5918(2)
O21A O 0.3496(4) 1.0451(4) 0.5725(4)
O22A O 0.2430(4) 1.1391(5) 0.6045(5)
O23A O 0.0578(2) 0.6995(2) 0.2463(2)
O24A O 0.0579(2) 0.6519(2) 0.2959(2)
O25A O 0.1592(2) 0.5399(2) 0.2934(2)
O26A O 0.2092(2) 0.5365(2) 0.2441(2)
O27A O 0.1206(3) 0.5347(3) 0.0536(3)
O28A O 0.2857(3) 0.5524(3) 0.0517(3)
O29A O 0.2683(2) 0.8276(2) 0.6691(2)
O30A O 0.3489(2) 0.9019(2) 0.7010(2)
O31A O 0.1563(2) 0.8293(2) 0.7706(2)
O32A O 0.1810(2) 0.9034(2) 0.8489(2)
O33A O 0.3038(2) 0.7363(2) 0.5588(2)
O34A O 0.3803(2) 0.8133(2) 0.5862(2)
O35A O 0.2475(2) 0.5704(2) 0.38837(19)
O36A O 0.2981(2) 0.5710(2) 0.33993(19)
O37A O 0.5021(2) 0.6797(2) 0.4495(2)
O38A O 0.5031(3) 0.6490(3) 0.2831(3)
O39A O 0.1294(2) 0.4284(2) 0.2697(2)
O40A O 0.1834(2) 0.4270(2) 0.2235(2)
O41A O -0.03788(19) 0.2599(2) 0.2061(2)
O42A O -0.0600(2) 0.1821(2) 0.1298(2)
O43A O -0.0940(3) 0.0814(3) -0.1187(3)
O44A O 0.0548(2) 0.1258(3) 0.0122(3)
O45A O 0.2204(2) 0.4581(2) 0.3609(2)
O46A O 0.2758(2) 0.4599(2) 0.3160(2)
O47A O 0.2082(2) 0.3437(2) 0.4578(2)
O48A O 0.2537(2) 0.2901(2) 0.4546(2)
O49A O 0.4496(3) 0.3719(3) 0.4497(3)
O50A O 0.4221(3) 0.1971(3) 0.4260(3)
O51A O -0.0726(2) 0.1156(2) 0.1824(2)
O52A O -0.0458(2) 0.1943(2) 0.25924(19)
O53A O 0.1133(2) 0.2496(2) 0.4228(2)
O54A O 0.1602(2) 0.1966(2) 0.42461(19)
O55A O 0.1423(5) 0.0425(4) 0.2585(4)
O56A O 0.1779(4) -0.0409(4) 0.3661(4)
O57A O 0.1344(2) 0.2745(2) 0.5317(2)
O58A O 0.1836(2) 0.2235(2) 0.5337(2)
O59A O 0.0197(2) 0.2757(2) 0.6334(2)
O60A O 0.0141(2) 0.2235(2) 0.6779(2)
O61A O 0.0620(3) 0.0768(3) 0.6865(3)
O62A O 0.2267(4) 0.1512(4) 0.8317(4)
O63A O 0.2758(2) 0.3189(2) 0.5656(2)
O64A O 0.2273(2) 0.3700(2) 0.5668(2)
O65A O 0.2845(2) 0.53805(19) 0.73414(19)
O66A O 0.3566(2) 0.5605(2) 0.8118(2)
O67A O 0.6261(4) 0.6043(4) 0.8851(4)
O68A O 0.4816(4) 0.4697(4) 0.8775(4)
N1A N -0.57238(11) 0.1260(3) 0.1460(4)
N2A N -0.5985(2) 0.0295(3) 0.0885(3)
H1A H -0.5991 0.0036 0.0601
N3A N -0.2044(3) 0.6216(3) 0.0514(3)
N4A N -0.1401(3) 0.6635(3) 0.0245(3)
H2A H -0.1177 0.6608 0.0083
N5A N 0.2737(4) 1.0217(4) 0.5088(4)
N6A N 0.2896(4) 1.0940(4) 0.5897(3)
H3A H 0.3098 1.1165 0.6252
N7A N 0.1949(4) 0.6178(4) 0.1134(3)
N8A N 0.2048(3) 0.5446(3) 0.0563(3)
H4A H 0.1901 0.5088 0.0334
N9A N 0.4765(2) 0.7312(3) 0.4104(3)
N10A N 0.5030(3) 0.6649(3) 0.3662(3)
H5A H 0.5152 0.6394 0.3662
N11A N 0.0387(3) 0.1957(3) 0.0107(3)
N12A N -0.0199(3) 0.1035(3) -0.0530(3)
H6A H -0.0284 0.0677 -0.0648
N13A N 0.3841(3) 0.3010(3) 0.3680(3)
N14A N 0.4352(3) 0.2840(3) 0.4367(3)
H7A H 0.4617 0.2972 0.4697
N15A N 0.0728(6) -0.0011(4) 0.2767(5)
N16A N 0.1603(4) 0.0021(4) 0.3148(5)
H8A H 0.1948 0.0147 0.3192
N17A N 0.1394(4) 0.1140(3) 0.6739(3)
N18A N 0.1452(4) 0.1133(3) 0.7569(4)
H9A H 0.1289 0.1036 0.7768
N19A N 0.48223(11) 0.46418(19) 0.7902(3)
N20A N 0.5508(3) 0.5357(3) 0.8757(3)
H10A H 0.5639 0.5524 0.9119
C1A C -0.3632(3) 0.3224(3) 0.1997(3)
C2A C -0.3732(3) 0.2083(3) 0.3031(3)
C3A C -0.37125(14) 0.26584(18) 0.25209(18)
H11A H -0.3324 0.2849 0.2730
C4A C -0.39681(19) 0.27918(18) 0.2118(2)
C5A C -0.4537(2) 0.2512(2) 0.18117(19)
H12A H -0.4711 0.2603 0.1536
C6A C -0.48497(14) 0.2099(2) 0.1908(2)
C7A C -0.45940(18) 0.19661(18) 0.2311(2)
H13A H -0.4808 0.1684 0.2377
C8A C -0.40254(19) 0.2246(2) 0.26174(18)
C9A C -0.5467(2) 0.1829(4) 0.1593(4)
H14A H -0.5560 0.1866 0.1247
H15A H -0.5623 0.2034 0.1816
C10A C -0.57304(19) 0.0855(4) 0.1011(3)
C11A C -0.6232(2) 0.0144(3) 0.1208(3)
C12A C -0.62256(18) 0.0548(3) 0.1656(3)
C13A C -0.59739(19) 0.1109(3) 0.1790(3)
H16A H -0.5970 0.1386 0.2097
C14A C -0.6495(3) 0.0375(4) 0.2000(4)
H17A H -0.6653 -0.0032 0.1851
H18A H -0.6219 0.0547 0.2382
H19A H -0.6789 0.0500 0.1992
C15A C -0.2439(3) 0.4680(3) 0.1676(3)
C16A C -0.0709(3) 0.6417(4) 0.2346(4)
C17A C -0.1580(2) 0.5524(2) 0.19564(18)
H20A H -0.1409 0.5469 0.2263
C18A C -0.2115(2) 0.51473(17) 0.1569(2)
C19A C -0.23646(16) 0.52276(19) 0.11201(19)
H21A H -0.2730 0.4970 0.0855
C20A C -0.2079(2) 0.5684(2) 0.10593(18)
C21A C -0.1544(2) 0.60605(18) 0.1447(2)
H22A H -0.1349 0.6373 0.1406
C22A C -0.12946(16) 0.59801(18) 0.1896(2)
C23A C -0.2377(3) 0.5744(3) 0.0556(3)
H23A H -0.2713 0.5782 0.0573
H24A H -0.2495 0.5399 0.0219
C24A C -0.1692(4) 0.6157(4) 0.0274(3)
C25A C -0.1420(4) 0.7142(4) 0.0437(4)
C26A C -0.1795(4) 0.7173(4) 0.0699(4)
C27A C -0.2094(4) 0.6717(4) 0.0719(3)
H25A H -0.2350 0.6733 0.0877
C28A C -0.1829(5) 0.7701(5) 0.0934(4)
H26A H -0.2094 0.7659 0.1097
H27A H -0.1465 0.7990 0.1219
H28A H -0.1949 0.7810 0.0642
C29A C -0.2801(3) 0.3207(3) 0.1287(4)
C30A C -0.1737(3) 0.2056(4) 0.1268(4)
C31A C -0.2264(2) 0.2640(2) 0.12425(16)
H29A H -0.2054 0.2861 0.1630
C32A C -0.2681(2) 0.27487(19) 0.0962(2)
C33A C -0.2989(2) 0.2426(2) 0.0396(2)
H30A H -0.3274 0.2500 0.0204
C34A C -0.2879(2) 0.1994(2) 0.01091(17)
C35A C -0.2462(2) 0.18854(19) 0.0389(2)
H31A H -0.2387 0.1590 0.0193
C36A C -0.2154(2) 0.2208(2) 0.0956(2)
C37A C -0.3216(9) 0.1590(2) -0.0459(5)
H32A H -0.3023 0.1355 -0.0558
H33A H -0.3561 0.1345 -0.0471
N21A N -0.3378(6) 0.17417(16) -0.0901(4)
C38A C -0.2995(5) 0.1818(3) -0.1125(5)
N22A N -0.3088(5) 0.1965(3) -0.1554(5)
H34A H -0.2847 0.2014 -0.1697
C39A C -0.3563(5) 0.2036(3) -0.1757(4)
C40A C -0.3945(4) 0.1960(4) -0.1533(5)
C41A C -0.3861(6) 0.1813(3) -0.1105(5)
H35A H -0.4123 0.1761 -0.0952
C42A C -0.4456(5) 0.2038(6) -0.1759(7)
H36A H -0.4454 0.2140 -0.2058
H37A H -0.4783 0.1690 -0.1901
H38A H -0.4465 0.2337 -0.1464
O69A O -0.2563(6) 0.1750(5) -0.0929(6)
O70A O -0.3634(6) 0.2181(4) -0.2178(6)
C43A C 0.1113(3) 0.7830(3) 0.3839(3)
C44A C 0.2746(4) 0.8428(3) 0.5578(3)
C45A C 0.1954(6) 0.8188(4) 0.4732(6)
H39A H 0.1770 0.7855 0.4749
C46A C 0.1701(4) 0.8289(5) 0.4300(5)
C47A C 0.1971(6) 0.8776(6) 0.4276(4)
H40A H 0.1798 0.8845 0.3981
C48A C 0.2494(6) 0.9164(4) 0.4684(6)
C49A C 0.2747(4) 0.9064(5) 0.5116(5)
H41A H 0.3105 0.9329 0.5395
C50A C 0.2477(6) 0.8576(6) 0.5140(4)
C51A C 0.2818(7) 0.9743(7) 0.4716(7)
H42A H 0.2695 0.9714 0.4339
H43A H 0.3216 0.9834 0.4856
C52A C 0.3079(4) 1.0594(5) 0.5623(4)
C53A C 0.2413(4) 1.0954(5) 0.5645(3)
C54A C 0.2061(3) 1.0576(4) 0.5090(3)
C55A C 0.2250(4) 1.0216(5) 0.4804(3)
H44A H 0.2044 0.9976 0.4419
C56A C 0.1655(5) 1.0728(6) 0.4767(4)
H45A H 0.1564 1.0983 0.5019
H46A H 0.1819 1.0912 0.4574
H47A H 0.1319 1.0389 0.4496
C57A C 0.0708(3) 0.6666(3) 0.2629(3)
C58A C 0.1763(3) 0.5514(3) 0.2599(3)
C59A C 0.1204(2) 0.6055(2) 0.25560(19)
H48A H 0.1108 0.5976 0.2827
C60A C 0.10220(19) 0.6394(2) 0.2364(2)
C61A C 0.1162(2) 0.6509(2) 0.1968(2)
H49A H 0.1038 0.6741 0.1837
C62A C 0.1484(2) 0.6286(2) 0.17633(19)
C63A C 0.1666(2) 0.5947(2) 0.1955(2)
H50A H 0.1886 0.5794 0.1815
C64A C 0.1526(2) 0.58314(19) 0.2351(2)
C65A C 0.1600(4) 0.6417(4) 0.1329(4)
H51A H 0.1784 0.6828 0.1476
H52A H 0.1246 0.6276 0.1010
C66A C 0.1707(4) 0.5639(5) 0.0720(4)
C67A C 0.2588(5) 0.5736(5) 0.0715(5)
C68A C 0.2826(4) 0.6316(5) 0.1145(4)
C69A C 0.2503(5) 0.6472(5) 0.1323(4)
H53A H 0.2667 0.6836 0.1622
C70A C 0.3437(5) 0.6692(6) 0.1369(6)
H54A H 0.3526 0.7059 0.1654
H55A H 0.3656 0.6525 0.1530
H56A H 0.3521 0.6734 0.1068
C71A C 0.3037(4) 0.8751(4) 0.7016(3)
C72A C 0.1868(3) 0.8776(4) 0.8071(3)
C73A C 0.2429(4) 0.8821(4) 0.7526(4)
H57A H 0.2162 0.8464 0.7237
C74A C 0.2915(4) 0.9089(5) 0.7495(4)
C75A C 0.3306(4) 0.9611(5) 0.7918(4)
H58A H 0.3638 0.9794 0.7897
C76A C 0.3210(4) 0.9865(4) 0.8372(4)
C77A C 0.2724(4) 0.9597(5) 0.8403(4)
H59A H 0.2659 0.9771 0.8713
C78A C 0.2333(4) 0.9075(5) 0.7980(4)
C79A C 0.3668(2) 1.0476(4) 0.8866(6)
H60A H 0.3902 1.0673 0.8724
H61A H 0.3908 1.0432 0.9166
N23A N 0.3391(2) 1.0801(2) 0.9081(3)
C80A C 0.3118(3) 1.1004(3) 0.8780(3)
N24A N 0.2871(3) 1.1303(3) 0.9008(3)
H62A H 0.2692 1.1437 0.8819
C81A C 0.2890(3) 1.1402(3) 0.9518(4)
C82A C 0.3171(3) 1.1195(3) 0.9834(3)
C83A C 0.3427(3) 1.0885(3) 0.9596(3)
H63A H 0.3623 1.0735 0.9792
C84A C 0.3211(5) 1.1286(6) 1.0403(3)
H64A H 0.3013 1.1508 1.0510
H65A H 0.3046 1.0924 1.0399
H66A H 0.3600 1.1485 1.0668
O71A O 0.3098(3) 1.0917(3) 0.8319(4)
O72A O 0.2630(4) 1.1701(4) 0.9689(5)
C85A C 0.3461(3) 0.7639(3) 0.5558(3)
C86A C 0.2891(3) 0.5928(3) 0.3800(3)
C87A C 0.32029(17) 0.6770(2) 0.4687(2)
H67A H 0.2876 0.6588 0.4717
C88A C 0.3575(2) 0.7312(2) 0.50821(17)
C89A C 0.40539(19) 0.75792(16) 0.50390(18)
H68A H 0.4308 0.7950 0.5309
C90A C 0.41601(17) 0.7304(2) 0.4601(2)
C91A C 0.3788(2) 0.6762(2) 0.42064(17)
H69A H 0.3860 0.6574 0.3907
C92A C 0.33092(19) 0.64952(16) 0.42495(18)
C93A C 0.4688(3) 0.7623(3) 0.4585(3)
H70A H 0.5003 0.7721 0.4925
H71A H 0.4692 0.7976 0.4584
C94A C 0.4943(3) 0.6912(4) 0.4118(4)
C95A C 0.4941(4) 0.6757(5) 0.3204(4)
C96A C 0.4761(5) 0.7184(5) 0.3223(4)
C97A C 0.4679(4) 0.7438(4) 0.3676(4)
H72A H 0.4554 0.7721 0.3691
C98A C 0.4647(7) 0.7307(6) 0.2748(5)
H73A H 0.4529 0.7609 0.2821
H74A H 0.4983 0.7422 0.2688
H75A H 0.4355 0.6972 0.2418
C99A C 0.1412(3) 0.4054(3) 0.2314(3)
C100A C -0.0305(3) 0.2325(4) 0.1663(4)
C101A C 0.0543(4) 0.3195(4) 0.1952(3)
H76A H 0.0480 0.3373 0.2262
C102A C 0.0997(3) 0.3481(3) 0.1885(3)
C103A C 0.1089(3) 0.3220(4) 0.1431(4)
H77A H 0.1400 0.3415 0.1386
C104A C 0.0727(4) 0.2672(4) 0.1044(3)
C105A C 0.0273(3) 0.2385(3) 0.1111(3)
H78A H 0.0026 0.2011 0.0846
C106A C 0.0181(3) 0.2647(4) 0.1565(4)
C107A C 0.0878(4) 0.2410(4) 0.0574(4)
H79A H 0.1149 0.2268 0.0698
H80A H 0.1047 0.2695 0.0466
C108A C 0.0272(3) 0.1408(3) -0.0072(4)
C109A C -0.0545(3) 0.1198(2) -0.0812(3)
C110A C -0.0442(3) 0.1762(3) -0.0619(3)
C111A C 0.0029(3) 0.2145(2) -0.0124(3)
H81A H 0.0097 0.2526 0.0047
C112A C -0.0911(3) 0.1914(4) -0.0791(4)
H82A H -0.1209 0.1604 -0.1138
H83A H -0.1047 0.1988 -0.0504
H84A H -0.0783 0.2249 -0.0844
C113A C 0.2547(3) 0.4451(3) 0.3461(3)
C114A C 0.2386(3) 0.3237(3) 0.4428(3)
C115A C 0.25215(19) 0.3874(2) 0.3974(2)
H85A H 0.2262 0.3986 0.4076
C116A C 0.2756(2) 0.40895(18) 0.36746(19)
C117A C 0.3135(2) 0.3926(2) 0.35249(19)
H86A H 0.3296 0.4073 0.3320
C118A C 0.3280(2) 0.3547(2) 0.3674(2)
C119A C 0.3045(2) 0.3332(2) 0.3973(2)
H87A H 0.3144 0.3073 0.4076
C120A C 0.2666(2) 0.3495(2) 0.41232(19)
C121A C 0.3677(4) 0.3360(4) 0.3479(4)
H88A H 0.4011 0.3696 0.3591
H89A H 0.3501 0.3160 0.3071
C122A C 0.4247(4) 0.3230(5) 0.4205(4)
C123A C 0.4084(4) 0.2269(4) 0.4063(4)
C124A C 0.3644(5) 0.2049(4) 0.3525(5)
C125A C 0.3532(4) 0.2424(5) 0.3360(4)
H90A H 0.3233 0.2285 0.3014
C126A C 0.3320(5) 0.1414(5) 0.3142(5)
H91A H 0.3042 0.1348 0.2796
H92A H 0.3575 0.1260 0.3062
H93A H 0.3137 0.1233 0.3325
C127A C -0.0442(3) 0.1499(3) 0.2321(3)
C128A C 0.1198(3) 0.2063(4) 0.4025(3)
C129A C 0.0363(2) 0.17398(18) 0.3179(2)
H94A H 0.0355 0.2090 0.3342
C130A C -0.00205(19) 0.1349(2) 0.2644(2)
C131A C -0.0008(2) 0.0836(2) 0.24050(18)
H95A H -0.0271 0.0569 0.2040
C132A C 0.0387(3) 0.07144(19) 0.2700(2)
C133A C 0.0771(2) 0.1105(2) 0.3234(2)
H96A H 0.1042 0.1022 0.3436
C134A C 0.0759(2) 0.1618(2) 0.34737(17)
C135A C 0.0366(4) 0.0144(4) 0.2407(4)
H97A H 0.0474 0.0133 0.2101
H98A H -0.0019 -0.0141 0.2243
C136A C 0.1229(8) 0.0138(6) 0.2826(7)
C137A C 0.1438(5) -0.0281(6) 0.3389(6)
C138A C 0.0890(6) -0.0453(5) 0.3352(5)
C139A C 0.0545(5) -0.0282(6) 0.3066(6)
H99A H 0.0193 -0.0346 0.3070
C140A C 0.0686(5) -0.0792(4) 0.3649(5)
H100A H 0.0300 -0.0868 0.3571
H101A H 0.0716 -0.1146 0.3514
H102A H 0.0912 -0.0576 0.4048
C141A C 0.1494(3) 0.2422(4) 0.5444(3)
C142A C 0.0296(3) 0.2396(4) 0.6468(3)
C143A C 0.1200(2) 0.2144(2) 0.5731(2)
C144A C 0.0877(2) 0.23651(18) 0.5937(2)
H103A H 0.0830 0.2668 0.5883
C145A C 0.0622(2) 0.2143(2) 0.6220(2)
C146A C 0.0690(2) 0.1700(2) 0.6298(2)
H104A H 0.0515 0.1549 0.6491
C147A C 0.1013(2) 0.1479(2) 0.6092(2)
C148A C 0.1268(2) 0.1701(2) 0.5809(2)
H105A H 0.1488 0.1550 0.5669
C149A C 0.1082(5) 0.0977(4) 0.6157(4)
H106A H 0.1278 0.0844 0.5941
H107A H 0.0714 0.0667 0.6014
C150A C 0.1121(6) 0.0992(5) 0.7042(4)
C151A C 0.2016(6) 0.1413(5) 0.7818(6)
C152A C 0.2284(6) 0.1561(6) 0.7496(6)
C153A C 0.1950(6) 0.1408(5) 0.6988(6)
H108A H 0.2122 0.1499 0.6764
C154A C 0.2880(6) 0.1852(7) 0.7763(7)
H109A H 0.3017 0.1933 0.7503
H110A H 0.2993 0.2203 0.8086
H111A H 0.3032 0.1618 0.7881
C155A C 0.2676(3) 0.3601(3) 0.5881(3)
C156A C 0.3243(3) 0.5315(3) 0.7616(4)
C157A C 0.2993(3) 0.4477(4) 0.6739(4)
H112A H 0.2684 0.4528 0.6558
C158A C 0.3083(3) 0.4027(4) 0.6457(3)
C159A C 0.3535(4) 0.3953(3) 0.6722(4)
H113A H 0.3597 0.3645 0.6530
C160A C 0.3897(3) 0.4327(4) 0.7268(4)
C161A C 0.3806(3) 0.4777(4) 0.7550(3)
H114A H 0.4054 0.5033 0.7923
C162A C 0.3354(4) 0.4852(3) 0.7285(4)
C163A C 0.4315(2) 0.4151(3) 0.7520(4)
H115A H 0.4378 0.3900 0.7228
H116A H 0.4182 0.3946 0.7716
C164A C 0.5019(3) 0.4896(3) 0.8463(3)
C165A C 0.5801(2) 0.5568(2) 0.8504(3)
C166A C 0.5604(2) 0.5312(2) 0.7930(3)
C167A C 0.5099(2) 0.4835(2) 0.7625(2)
H117A H 0.4951 0.4649 0.7233
C168A C 0.5920(4) 0.5538(4) 0.7649(4)
H118A H 0.6257 0.5873 0.7926
H119A H 0.6017 0.5256 0.7441
H120A H 0.5693 0.5634 0.7397
O73A O -0.1930(3) 0.4272(4) 0.3033(3)
O74A O -0.4115(3) 0.3636(4) 0.0656(3)
O75A O 0.0174(4) 0.6323(5) 0.3802(4)
O76A O 0.0318(3) 0.7930(3) 0.2390(3)
O77A O 0.2023(3) 0.7058(3) 0.5902(3)
O78A O 0.4464(2) 0.9333(2) 0.6728(3)
O79A O 0.1344(4) 0.5067(4) 0.3783(4)
O80A O 0.2873(3) 0.4878(3) 0.2241(3)
O81A O 0.1171(4) 0.3607(4) 0.4940(4)
O82A O 0.2763(3) 0.2128(3) 0.5005(3)
O83A O -0.0722(4) 0.2912(3) 0.3020(3)
O84A O -0.1485(2) 0.0640(2) 0.0557(2)
N25A N -0.4043(4) 0.4188(5) 0.0255(4)
N26A N 0.0237(4) 0.8451(4) 0.1973(4)
N27A N 0.3275(4) 0.5082(5) 0.1681(5)
N28A N 0.3250(4) 0.1628(4) 0.4884(4)
C169A C -0.3743(5) 0.3545(6) -0.0082(5)
H121A H -0.3501 0.3835 -0.0135
H122A H -0.3531 0.3374 0.0083
H123A H -0.4044 0.3258 -0.0439
C170A C -0.3996(6) 0.3822(7) 0.0326(6)
C171A C -0.3944(5) 0.4457(6) -0.0136(5)
H124A H -0.3809 0.4247 -0.0375
H125A H -0.4292 0.4438 -0.0364
H126A H -0.3670 0.4847 0.0083
C172A C -0.4244(5) 0.4509(6) 0.0642(5)
H127A H -0.4299 0.4336 0.0883
H128A H -0.3976 0.4901 0.0867
H129A H -0.4595 0.4487 0.0418
C173A C -0.0537(5) 0.7966(4) 0.2089(5)
H130A H -0.0636 0.7716 0.2254
H131A H -0.0581 0.8304 0.2266
H132A H -0.0778 0.7775 0.1693
C174A C 0.0025(5) 0.8113(5) 0.2168(5)
C175A C -0.0052(5) 0.8650(4) 0.1627(4)
H133A H -0.0437 0.8518 0.1574
H134A H 0.0125 0.9059 0.1804
H135A H -0.0037 0.8506 0.1267
C176A C 0.0826(5) 0.8652(4) 0.2073(5)
H136A H 0.1011 0.8513 0.2309
H137A H 0.0854 0.8513 0.1720
H138A H 0.1004 0.9061 0.2257
C177A C 0.3673(5) 0.5728(5) 0.2606(5)
H139A H 0.3630 0.5802 0.2952
H140A H 0.4028 0.5711 0.2655
H141A H 0.3662 0.6027 0.2506
C178A C 0.3215(6) 0.5182(6) 0.2157(6)
C179A C 0.3714(5) 0.5425(5) 0.1586(5)
H142A H 0.3983 0.5753 0.1936
H143A H 0.3898 0.5205 0.1441
H144A H 0.3552 0.5547 0.1319
C180A C 0.2842(5) 0.4571(5) 0.1203(5)
H145A H 0.2572 0.4381 0.1314
H146A H 0.2658 0.4664 0.0919
H147A H 0.3004 0.4326 0.1054
C181A C 0.2392(4) 0.1339(4) 0.4130(4)
H148A H 0.2082 0.1439 0.4044
H149A H 0.2569 0.1370 0.3881
H150A H 0.2256 0.0954 0.4081
C182A C 0.2815(5) 0.1739(5) 0.4735(5)
C183A C 0.3674(4) 0.1980(4) 0.5398(4)
H151A H 0.3588 0.2280 0.5592
H152A H 0.3722 0.1769 0.5610
H153A H 0.4016 0.2140 0.5361
C184A C 0.3335(4) 0.1149(4) 0.4547(4)
H154A H 0.3020 0.0924 0.4184
H155A H 0.3673 0.1293 0.4499
H156A H 0.3367 0.0918 0.4736
loop_
_geom_bond_atom_site_label_1
_geom_bond_atom_site_label_2
_geom_bond_site_symmetry_1
_geom_bond_site_symmetry_2
Cu1 Cu2 1_555 1_555
Cu2 O2 1_555 1_555
Cu3 Cu4 1_555 1_555
Cu4 O10 1_555 1_555
Cu5 Cu6 1_555 1_555
Cu6 O20 1_555 1_555
Cu7 Cu8 1_555 1_555
Cu8 O26 1_555 1_555
Cu9 Cu10 1_555 1_555
Cu10 O48 1_555 1_555
Cu11 Cu12 1_555 1_555
Cu12 O15 1_555 1_555
O1 Cu1 1_555 1_555
O2 C1 1_555 1_555
O3 C2 1_555 1_555
O4 C2 1_555 1_555
O5 C10 1_555 1_555
O6 C11 1_555 1_555
O7 Cu1 1_555 1_555
O8 Cu2 1_555 1_555
O9 Cu3 1_555 1_555
O10 C16 1_555 1_555
O11 C24 1_555 1_555
O12 C25 1_555 1_555
O13 Cu2 1_555 1_555
O14 Cu1 1_555 1_555
O15 C30 1_555 1_555
O16 Cu11 1_555 1_555
O17 Cu3 1_555 1_555
O18 Cu4 1_555 1_555
O19 Cu5 1_555 1_555
O20 C44 1_555 1_555
O21 C52 1_555 1_555
O22 C53 1_555 1_555
O23 Cu4 1_555 1_555
O24 Cu3 1_555 1_555
O25 Cu7 1_555 1_555
O26 C58 1_555 1_555
O27 C66 1_555 1_555
O28 C67 1_555 1_555
O29 Cu5 1_555 1_555
O30 Cu6 1_555 1_555
O31 C72 1_555 1_555
O32 C72 1_555 1_555
O33 Cu5 1_555 1_555
O34 Cu6 1_555 1_555
O35 Cu7 1_555 1_555
O36 Cu8 1_555 1_555
O37 C94 1_555 1_555
O38 C95 1_555 1_555
O39 Cu7 1_555 1_555
O40 Cu8 1_555 1_555
O41 Cu11 1_555 1_555
O42 Cu12 1_555 1_555
O43 C109 1_555 1_555
O44 C108 1_555 1_555
O45 Cu7 1_555 1_555
O46 Cu8 1_555 1_555
O47 Cu9 1_555 1_555
O48 C114 1_555 1_555
O49 C122 1_555 1_555
O50 C123 1_555 1_555
O51 Cu12 1_555 1_555
O52 Cu11 1_555 1_555
O53 Cu9 1_555 1_555
O54 Cu10 1_555 1_555
O55 C136 1_555 1_555
O56 C137 1_555 1_555
O57 Cu9 1_555 1_555
O58 Cu10 1_555 1_555
O59 C142 1_555 1_555
O60 C142 1_555 1_555
O61 C150 1_555 1_555
O62 C151 1_555 1_555
O63 Cu10 1_555 1_555
O64 Cu9 1_555 1_555
O65 C156 1_555 1_555
O66 C156 1_555 1_555
O67 C165 1_555 1_555
O68 C164 1_555 1_555
N1 C9 1_555 1_555
N2 H1 1_555 1_555
N3 C23 1_555 1_555
N4 H2 1_555 1_555
N5 C51 1_555 1_555
N6 H3 1_555 1_555
N7 C65 1_555 1_555
N8 H4 1_555 1_555
N9 C93 1_555 1_555
N10 H5 1_555 1_555
N11 C107 1_555 1_555
N12 H6 1_555 1_555
N13 C121 1_555 1_555
N14 H7 1_555 1_555
N15 C135 1_555 1_555
N16 H8 1_555 1_555
N17 C149 1_555 1_555
N18 H9 1_555 1_555
N19 C163 1_555 1_555
N20 H10 1_555 1_555
C1 O1 1_555 1_555
C2 C8 1_555 1_555
C3 H11 1_555 1_555
C4 C1 1_555 1_555
C5 C4 1_555 1_555
H12 C5 1_555 1_555
C6 C5 1_555 1_555
C7 C6 1_555 1_555
H13 C7 1_555 1_555
C8 C3 1_555 1_555
C9 C6 1_555 1_555
H14 C9 1_555 1_555
H15 C9 1_555 1_555
C10 N1 1_555 1_555
C11 N2 1_555 1_555
C12 C11 1_555 1_555
C13 N1 1_555 1_555
H16 C13 1_555 1_555
C14 C12 1_555 1_555
H17 C14 1_555 1_555
H18 C14 1_555 1_555
H19 C14 1_555 1_555
C15 O7 1_555 1_555
C16 O9 1_555 1_555
C17 H20 1_555 1_555
C18 C15 1_555 1_555
C19 C18 1_555 1_555
H21 C19 1_555 1_555
C20 C19 1_555 1_555
C21 C20 1_555 1_555
H22 C21 1_555 1_555
C22 C16 1_555 1_555
C23 C20 1_555 1_555
H23 C23 1_555 1_555
H24 C23 1_555 1_555
C24 N3 1_555 1_555
C25 N4 1_555 1_555
C26 C25 1_555 1_555
C27 N3 1_555 1_555
H25 C27 1_555 1_555
C28 C26 1_555 1_555
H26 C28 1_555 1_555
H27 C28 1_555 1_555
H28 C28 1_555 1_555
C29 O13 1_555 1_555
C30 O16 1_555 1_555
C31 H29 1_555 1_555
C32 C29 1_555 1_555
C33 C32 1_555 1_555
H30 C33 1_555 1_555
C34 C33 1_555 1_555
C35 C34 1_555 1_555
H31 C35 1_555 1_555
C36 C30 1_555 1_555
C37 C34 1_555 1_555
H32 C37 1_555 1_555
H33 C37 1_555 1_555
N21 C37 1_555 1_555
C38 N21 1_555 1_555
N22 C38 1_555 1_555
H34 N22 1_555 1_555
C39 N22 1_555 1_555
C40 C39 1_555 1_555
C41 N21 1_555 1_555
H35 C41 1_555 1_555
C42 C40 1_555 1_555
H36 C42 1_555 1_555
H37 C42 1_555 1_555
H38 C42 1_555 1_555
O69 C38 1_555 1_555
O70 C39 1_555 1_555
C43 O17 1_555 1_555
C44 O19 1_555 1_555
C45 H39 1_555 1_555
C46 C43 1_555 1_555
C47 C46 1_555 1_555
H40 C47 1_555 1_555
C48 C47 1_555 1_555
C49 C48 1_555 1_555
H41 C49 1_555 1_555
C50 C44 1_555 1_555
C51 C48 1_555 1_555
H42 C51 1_555 1_555
H43 C51 1_555 1_555
C52 N5 1_555 1_555
C53 N6 1_555 1_555
C54 C53 1_555 1_555
C55 N5 1_555 1_555
H44 C55 1_555 1_555
C56 C54 1_555 1_555
H45 C56 1_555 1_555
H46 C56 1_555 1_555
H47 C56 1_555 1_555
C57 O23 1_555 1_555
C58 O25 1_555 1_555
C59 H48 1_555 1_555
C60 C57 1_555 1_555
C61 C60 1_555 1_555
H49 C61 1_555 1_555
C62 C61 1_555 1_555
C63 C62 1_555 1_555
H50 C63 1_555 1_555
C64 C58 1_555 1_555
C65 C62 1_555 1_555
H51 C65 1_555 1_555
H52 C65 1_555 1_555
C66 N7 1_555 1_555
C67 N8 1_555 1_555
C68 C67 1_555 1_555
C69 N7 1_555 1_555
H53 C69 1_555 1_555
C70 C68 1_555 1_555
H54 C70 1_555 1_555
H55 C70 1_555 1_555
H56 C70 1_555 1_555
C71 O29 1_555 1_555
C72 C78 1_555 1_555
C73 H57 1_555 1_555
C74 C71 1_555 1_555
C75 C74 1_555 1_555
H58 C75 1_555 1_555
C76 C75 1_555 1_555
C77 C76 1_555 1_555
H59 C77 1_555 1_555
C78 C73 1_555 1_555
C79 C76 1_555 1_555
H60 C79 1_555 1_555
H61 C79 1_555 1_555
N23 C79 1_555 1_555
C80 N23 1_555 1_555
N24 C80 1_555 1_555
H62 N24 1_555 1_555
C81 N24 1_555 1_555
C82 C81 1_555 1_555
C83 N23 1_555 1_555
H63 C83 1_555 1_555
C84 C82 1_555 1_555
H64 C84 1_555 1_555
H65 C84 1_555 1_555
H66 C84 1_555 1_555
O71 C80 1_555 1_555
O72 C81 1_555 1_555
C85 O33 1_555 1_555
C86 O35 1_555 1_555
C87 H67 1_555 1_555
C88 C85 1_555 1_555
C89 C88 1_555 1_555
H68 C89 1_555 1_555
C90 C89 1_555 1_555
C91 C90 1_555 1_555
H69 C91 1_555 1_555
C92 C86 1_555 1_555
C93 C90 1_555 1_555
H70 C93 1_555 1_555
H71 C93 1_555 1_555
C94 N9 1_555 1_555
C95 N10 1_555 1_555
C96 C95 1_555 1_555
C97 N9 1_555 1_555
H72 C97 1_555 1_555
C98 C96 1_555 1_555
H73 C98 1_555 1_555
H74 C98 1_555 1_555
H75 C98 1_555 1_555
C99 O39 1_555 1_555
C100 O41 1_555 1_555
C101 H76 1_555 1_555
C102 C99 1_555 1_555
C103 C102 1_555 1_555
H77 C103 1_555 1_555
C104 C103 1_555 1_555
C105 C104 1_555 1_555
H78 C105 1_555 1_555
C106 C100 1_555 1_555
C107 C104 1_555 1_555
H79 C107 1_555 1_555
H80 C107 1_555 1_555
C108 N11 1_555 1_555
C109 N12 1_555 1_555
C110 C109 1_555 1_555
C111 N11 1_555 1_555
H81 C111 1_555 1_555
C112 C110 1_555 1_555
H82 C112 1_555 1_555
H83 C112 1_555 1_555
H84 C112 1_555 1_555
C113 O45 1_555 1_555
C114 O47 1_555 1_555
C115 H85 1_555 1_555
C116 C113 1_555 1_555
C117 C116 1_555 1_555
H86 C117 1_555 1_555
C118 C117 1_555 1_555
C119 C118 1_555 1_555
H87 C119 1_555 1_555
C120 C114 1_555 1_555
C121 C118 1_555 1_555
H88 C121 1_555 1_555
H89 C121 1_555 1_555
C122 N13 1_555 1_555
C123 N14 1_555 1_555
C124 C123 1_555 1_555
C125 N13 1_555 1_555
H90 C125 1_555 1_555
C126 C124 1_555 1_555
H91 C126 1_555 1_555
H92 C126 1_555 1_555
H93 C126 1_555 1_555
C127 O51 1_555 1_555
C128 O53 1_555 1_555
C129 H94 1_555 1_555
C130 C127 1_555 1_555
C131 C130 1_555 1_555
H95 C131 1_555 1_555
C132 C131 1_555 1_555
C133 C132 1_555 1_555
H96 C133 1_555 1_555
C134 C128 1_555 1_555
C135 C132 1_555 1_555
H97 C135 1_555 1_555
H98 C135 1_555 1_555
C136 N15 1_555 1_555
C137 N16 1_555 1_555
C138 C137 1_555 1_555
C139 N15 1_555 1_555
H99 C139 1_555 1_555
C140 C138 1_555 1_555
H100 C140 1_555 1_555
H101 C140 1_555 1_555
H102 C140 1_555 1_555
C141 O57 1_555 1_555
C142 C145 1_555 1_555
C143 C141 1_555 1_555
C144 C143 1_555 1_555
H103 C144 1_555 1_555
C145 C144 1_555 1_555
C146 C145 1_555 1_555
H104 C146 1_555 1_555
C147 C146 1_555 1_555
C148 C143 1_555 1_555
H105 C148 1_555 1_555
C149 C147 1_555 1_555
H106 C149 1_555 1_555
H107 C149 1_555 1_555
C150 N17 1_555 1_555
C151 N18 1_555 1_555
C152 C151 1_555 1_555
C153 N17 1_555 1_555
H108 C153 1_555 1_555
C154 C152 1_555 1_555
H109 C154 1_555 1_555
H110 C154 1_555 1_555
H111 C154 1_555 1_555
C155 O63 1_555 1_555
C156 C162 1_555 1_555
C157 H112 1_555 1_555
C158 C155 1_555 1_555
C159 C158 1_555 1_555
H113 C159 1_555 1_555
C160 C159 1_555 1_555
C161 C160 1_555 1_555
H114 C161 1_555 1_555
C162 C157 1_555 1_555
C163 C160 1_555 1_555
H115 C163 1_555 1_555
H116 C163 1_555 1_555
C164 N19 1_555 1_555
C165 N20 1_555 1_555
C166 C165 1_555 1_555
C167 N19 1_555 1_555
H117 C167 1_555 1_555
C168 C166 1_555 1_555
H118 C168 1_555 1_555
H119 C168 1_555 1_555
H120 C168 1_555 1_555
O73 Cu1 1_555 1_555
O74 Cu2 1_555 1_555
O75 Cu3 1_555 1_555
O76 Cu4 1_555 1_555
O77 Cu5 1_555 1_555
O78 Cu6 1_555 1_555
O79 Cu7 1_555 1_555
O80 Cu8 1_555 1_555
O81 Cu9 1_555 1_555
O82 Cu10 1_555 1_555
O83 Cu11 1_555 1_555
O84 Cu12 1_555 1_555
N25 C170 1_555 1_555
N26 C174 1_555 1_555
N27 C178 1_555 1_555
N28 C182 1_555 1_555
C169 H121 1_555 1_555
H122 C169 1_555 1_555
H123 C169 1_555 1_555
C170 O74 1_555 1_555
C171 N25 1_555 1_555
H124 C171 1_555 1_555
H125 C171 1_555 1_555
H126 C171 1_555 1_555
C172 N25 1_555 1_555
H127 C172 1_555 1_555
H128 C172 1_555 1_555
H129 C172 1_555 1_555
C173 H130 1_555 1_555
H131 C173 1_555 1_555
H132 C173 1_555 1_555
C174 O76 1_555 1_555
C175 N26 1_555 1_555
H133 C175 1_555 1_555
H134 C175 1_555 1_555
H135 C175 1_555 1_555
C176 N26 1_555 1_555
H136 C176 1_555 1_555
H137 C176 1_555 1_555
H138 C176 1_555 1_555
C177 H139 1_555 1_555
H140 C177 1_555 1_555
H141 C177 1_555 1_555
C178 O80 1_555 1_555
C179 N27 1_555 1_555
H142 C179 1_555 1_555
H143 C179 1_555 1_555
H144 C179 1_555 1_555
C180 N27 1_555 1_555
H145 C180 1_555 1_555
H146 C180 1_555 1_555
H147 C180 1_555 1_555
C181 H148 1_555 1_555
H149 C181 1_555 1_555
H150 C181 1_555 1_555
C182 O82 1_555 1_555
C183 N28 1_555 1_555
H151 C183 1_555 1_555
H152 C183 1_555 1_555
H153 C183 1_555 1_555
C184 N28 1_555 1_555
H154 C184 1_555 1_555
H155 C184 1_555 1_555
H156 C184 1_555 1_555
Cu1A O65 1_555 1_555
Cu2A O66 1_555 1_555
Cu3A O59 1_555 1_555
Cu4A O60 1_555 1_555
Cu5A O3 1_555 1_555
Cu6A O4 1_555 1_555
Cu7A Cu8A 1_555 1_555
Cu8A O26A 1_555 1_555
Cu9A Cu10A 1_555 1_555
Cu10A O48A 1_555 1_555
Cu11A O31 1_555 1_555
Cu12A O32 1_555 1_555
O1A Cu1A 1_555 1_555
O2A Cu2A 1_555 1_555
O3A Cu5 1_555 1_555
O4A Cu6 1_555 1_555
O5A C10A 1_555 1_555
O6A C11A 1_555 1_555
O7A Cu1A 1_555 1_555
O8A Cu2A 1_555 1_555
O9A Cu3A 1_555 1_555
O10A Cu4A 1_555 1_555
O11A C24A 1_555 1_555
O12A C25A 1_555 1_555
O13A Cu2A 1_555 1_555
O14A Cu1A 1_555 1_555
O15A Cu12A 1_555 1_555
O16A Cu11A 1_555 1_555
O17A Cu3A 1_555 1_555
O18A Cu4A 1_555 1_555
O19A Cu5A 1_555 1_555
O20A Cu6A 1_555 1_555
O21A C52A 1_555 1_555
O22A C53A 1_555 1_555
O23A Cu4A 1_555 1_555
O24A Cu3A 1_555 1_555
O25A Cu7A 1_555 1_555
O26A C58A 1_555 1_555
O27A C66A 1_555 1_555
O28A C67A 1_555 1_555
O29A Cu5A 1_555 1_555
O30A Cu6A 1_555 1_555
O31A Cu11 1_555 1_555
O32A Cu12 1_555 1_555
O33A Cu5A 1_555 1_555
O34A Cu6A 1_555 1_555
O35A Cu7A 1_555 1_555
O36A Cu8A 1_555 1_555
O37A C94A 1_555 1_555
O38A C95A 1_555 1_555
O39A Cu7A 1_555 1_555
O40A Cu8A 1_555 1_555
O41A Cu11A 1_555 1_555
O42A Cu12A 1_555 1_555
O43A C109A 1_555 1_555
O44A C108A 1_555 1_555
O45A Cu7A 1_555 1_555
O46A Cu8A 1_555 1_555
O47A Cu9A 1_555 1_555
O48A C114A 1_555 1_555
O49A C122A 1_555 1_555
O50A C123A 1_555 1_555
O51A Cu12A 1_555 1_555
O52A Cu11A 1_555 1_555
O53A Cu9A 1_555 1_555
O54A Cu10A 1_555 1_555
O55A C136A 1_555 1_555
O56A C137A 1_555 1_555
O57A Cu9A 1_555 1_555
O58A Cu10A 1_555 1_555
O59A Cu3 1_555 1_555
O60A Cu4 1_555 1_555
O61A C150A 1_555 1_555
O62A C151A 1_555 1_555
O63A Cu10A 1_555 1_555
O64A Cu9A 1_555 1_555
O65A Cu1 1_555 1_555
O66A Cu2 1_555 1_555
O67A C165A 1_555 1_555
O68A C164A 1_555 1_555
N1A C9A 1_555 1_555
N2A H1A 1_555 1_555
N3A C23A 1_555 1_555
N4A H2A 1_555 1_555
N5A C51A 1_555 1_555
N6A H3A 1_555 1_555
N7A C65A 1_555 1_555
N8A H4A 1_555 1_555
N9A C93A 1_555 1_555
N10A H5A 1_555 1_555
N11A C107A 1_555 1_555
N12A H6A 1_555 1_555
N13A C121A 1_555 1_555
N14A H7A 1_555 1_555
N15A C135A 1_555 1_555
N16A H8A 1_555 1_555
N17A C149A 1_555 1_555
N18A H9A 1_555 1_555
N19A C163A 1_555 1_555
N20A H10A 1_555 1_555
C1A O1A 1_555 1_555
C2A O3A 1_555 1_555
C3A H11A 1_555 1_555
C4A C1A 1_555 1_555
C5A C4A 1_555 1_555
H12A C5A 1_555 1_555
C6A C5A 1_555 1_555
C7A C6A 1_555 1_555
H13A C7A 1_555 1_555
C8A C2A 1_555 1_555
C9A C6A 1_555 1_555
H14A C9A 1_555 1_555
H15A C9A 1_555 1_555
C10A N1A 1_555 1_555
C11A N2A 1_555 1_555
C12A C11A 1_555 1_555
C13A N1A 1_555 1_555
H16A C13A 1_555 1_555
C14A C12A 1_555 1_555
H17A C14A 1_555 1_555
H18A C14A 1_555 1_555
H19A C14A 1_555 1_555
C15A O7A 1_555 1_555
C16A O9A 1_555 1_555
C17A H20A 1_555 1_555
C18A C15A 1_555 1_555
C19A C18A 1_555 1_555
H21A C19A 1_555 1_555
C20A C19A 1_555 1_555
C21A C20A 1_555 1_555
H22A C21A 1_555 1_555
C22A C16A 1_555 1_555
C23A C20A 1_555 1_555
H23A C23A 1_555 1_555
H24A C23A 1_555 1_555
C24A N3A 1_555 1_555
C25A N4A 1_555 1_555
C26A C25A 1_555 1_555
C27A N3A 1_555 1_555
H25A C27A 1_555 1_555
C28A C26A 1_555 1_555
H26A C28A 1_555 1_555
H27A C28A 1_555 1_555
H28A C28A 1_555 1_555
C29A O13A 1_555 1_555
C30A O15A 1_555 1_555
C31A H29A 1_555 1_555
C32A C29A 1_555 1_555
C33A C32A 1_555 1_555
H30A C33A 1_555 1_555
C34A C33A 1_555 1_555
C35A C34A 1_555 1_555
H31A C35A 1_555 1_555
C36A C30A 1_555 1_555
C37A C34A 1_555 1_555
H32A C37A 1_555 1_555
H33A C37A 1_555 1_555
N21A C37A 1_555 1_555
C38A N21A 1_555 1_555
N22A C38A 1_555 1_555
H34A N22A 1_555 1_555
C39A N22A 1_555 1_555
C40A C39A 1_555 1_555
C41A N21A 1_555 1_555
H35A C41A 1_555 1_555
C42A C40A 1_555 1_555
H36A C42A 1_555 1_555
H37A C42A 1_555 1_555
H38A C42A 1_555 1_555
O69A C38A 1_555 1_555
O70A C39A 1_555 1_555
C43A O17A 1_555 1_555
C44A O19A 1_555 1_555
C45A H39A 1_555 1_555
C46A C43A 1_555 1_555
C47A C46A 1_555 1_555
H40A C47A 1_555 1_555
C48A C47A 1_555 1_555
C49A C48A 1_555 1_555
H41A C49A 1_555 1_555
C50A C44A 1_555 1_555
C51A C48A 1_555 1_555
H42A C51A 1_555 1_555
H43A C51A 1_555 1_555
C52A N5A 1_555 1_555
C53A N6A 1_555 1_555
C54A C53A 1_555 1_555
C55A N5A 1_555 1_555
H44A C55A 1_555 1_555
C56A C54A 1_555 1_555
H45A C56A 1_555 1_555
H46A C56A 1_555 1_555
H47A C56A 1_555 1_555
C57A O23A 1_555 1_555
C58A O25A 1_555 1_555
C59A H48A 1_555 1_555
C60A C57A 1_555 1_555
C61A C60A 1_555 1_555
H49A C61A 1_555 1_555
C62A C61A 1_555 1_555
C63A C62A 1_555 1_555
H50A C63A 1_555 1_555
C64A C58A 1_555 1_555
C65A C62A 1_555 1_555
H51A C65A 1_555 1_555
H52A C65A 1_555 1_555
C66A N7A 1_555 1_555
C67A N8A 1_555 1_555
C68A C67A 1_555 1_555
C69A N7A 1_555 1_555
H53A C69A 1_555 1_555
C70A C68A 1_555 1_555
H54A C70A 1_555 1_555
H55A C70A 1_555 1_555
H56A C70A 1_555 1_555
C71A O29A 1_555 1_555
C72A O31A 1_555 1_555
C73A H57A 1_555 1_555
C74A C71A 1_555 1_555
C75A C74A 1_555 1_555
H58A C75A 1_555 1_555
C76A C75A 1_555 1_555
C77A C76A 1_555 1_555
H59A C77A 1_555 1_555
C78A C72A 1_555 1_555
C79A C76A 1_555 1_555
H60A C79A 1_555 1_555
H61A C79A 1_555 1_555
N23A C79A 1_555 1_555
C80A N23A 1_555 1_555
N24A C80A 1_555 1_555
H62A N24A 1_555 1_555
C81A N24A 1_555 1_555
C82A C81A 1_555 1_555
C83A N23A 1_555 1_555
H63A C83A 1_555 1_555
C84A C82A 1_555 1_555
H64A C84A 1_555 1_555
H65A C84A 1_555 1_555
H66A C84A 1_555 1_555
O71A C80A 1_555 1_555
O72A C81A 1_555 1_555
C85A O33A 1_555 1_555
C86A O35A 1_555 1_555
C87A H67A 1_555 1_555
C88A C85A 1_555 1_555
C89A C88A 1_555 1_555
H68A C89A 1_555 1_555
C90A C89A 1_555 1_555
C91A C90A 1_555 1_555
H69A C91A 1_555 1_555
C92A C86A 1_555 1_555
C93A C90A 1_555 1_555
H70A C93A 1_555 1_555
H71A C93A 1_555 1_555
C94A N9A 1_555 1_555
C95A N10A 1_555 1_555
C96A C95A 1_555 1_555
C97A N9A 1_555 1_555
H72A C97A 1_555 1_555
C98A C96A 1_555 1_555
H73A C98A 1_555 1_555
H74A C98A 1_555 1_555
H75A C98A 1_555 1_555
C99A O39A 1_555 1_555
C100A O41A 1_555 1_555
C101A H76A 1_555 1_555
C102A C99A 1_555 1_555
C103A C102A 1_555 1_555
H77A C103A 1_555 1_555
C104A C103A 1_555 1_555
C105A C104A 1_555 1_555
H78A C105A 1_555 1_555
C106A C100A 1_555 1_555
C107A C104A 1_555 1_555
H79A C107A 1_555 1_555
H80A C107A 1_555 1_555
C108A N11A 1_555 1_555
C109A N12A 1_555 1_555
C110A C109A 1_555 1_555
C111A N11A 1_555 1_555
H81A C111A 1_555 1_555
C112A C110A 1_555 1_555
H82A C112A 1_555 1_555
H83A C112A 1_555 1_555
H84A C112A 1_555 1_555
C113A O45A 1_555 1_555
C114A O47A 1_555 1_555
C115A H85A 1_555 1_555
C116A C113A 1_555 1_555
C117A C116A 1_555 1_555
H86A C117A 1_555 1_555
C118A C117A 1_555 1_555
C119A C118A 1_555 1_555
H87A C119A 1_555 1_555
C120A C114A 1_555 1_555
C121A C118A 1_555 1_555
H88A C121A 1_555 1_555
H89A C121A 1_555 1_555
C122A N13A 1_555 1_555
C123A N14A 1_555 1_555
C124A C123A 1_555 1_555
C125A N13A 1_555 1_555
H90A C125A 1_555 1_555
C126A C124A 1_555 1_555
H91A C126A 1_555 1_555
H92A C126A 1_555 1_555
H93A C126A 1_555 1_555
C127A O51A 1_555 1_555
C128A O53A 1_555 1_555
C129A H94A 1_555 1_555
C130A C127A 1_555 1_555
C131A C130A 1_555 1_555
H95A C131A 1_555 1_555
C132A C131A 1_555 1_555
C133A C132A 1_555 1_555
H96A C133A 1_555 1_555
C134A C128A 1_555 1_555
C135A C132A 1_555 1_555
H97A C135A 1_555 1_555
H98A C135A 1_555 1_555
C136A N15A 1_555 1_555
C137A N16A 1_555 1_555
C138A C137A 1_555 1_555
C139A N15A 1_555 1_555
H99A C139A 1_555 1_555
C140A C138A 1_555 1_555
H100A C140A 1_555 1_555
H101A C140A 1_555 1_555
H102A C140A 1_555 1_555
C141A O57A 1_555 1_555
C142A O59A 1_555 1_555
C143A C141A 1_555 1_555
C144A C143A 1_555 1_555
H103A C144A 1_555 1_555
C145A C142A 1_555 1_555
C146A C145A 1_555 1_555
H104A C146A 1_555 1_555
C147A C146A 1_555 1_555
C148A C143A 1_555 1_555
H105A C148A 1_555 1_555
C149A C147A 1_555 1_555
H106A C149A 1_555 1_555
H107A C149A 1_555 1_555
C150A N17A 1_555 1_555
C151A N18A 1_555 1_555
C152A C151A 1_555 1_555
C153A N17A 1_555 1_555
H108A C153A 1_555 1_555
C154A C152A 1_555 1_555
H109A C154A 1_555 1_555
H110A C154A 1_555 1_555
H111A C154A 1_555 1_555
C155A O63A 1_555 1_555
C156A O65A 1_555 1_555
C157A H112A 1_555 1_555
C158A C155A 1_555 1_555
C159A C158A 1_555 1_555
H113A C159A 1_555 1_555
C160A C159A 1_555 1_555
C161A C160A 1_555 1_555
H114A C161A 1_555 1_555
C162A C156A 1_555 1_555
C163A C160A 1_555 1_555
H115A C163A 1_555 1_555
H116A C163A 1_555 1_555
C164A N19A 1_555 1_555
C165A N20A 1_555 1_555
C166A C165A 1_555 1_555
C167A N19A 1_555 1_555
H117A C167A 1_555 1_555
C168A C166A 1_555 1_555
H118A C168A 1_555 1_555
H119A C168A 1_555 1_555
H120A C168A 1_555 1_555
O73A Cu1A 1_555 1_555
O74A Cu2A 1_555 1_555
O75A Cu3A 1_555 1_555
O76A Cu4A 1_555 1_555
O77A Cu5A 1_555 1_555
O78A Cu6A 1_555 1_555
O79A Cu7A 1_555 1_555
O80A Cu8A 1_555 1_555
O81A Cu9A 1_555 1_555
O82A Cu10A 1_555 1_555
O83A Cu11A 1_555 1_555
O84A Cu12A 1_555 1_555
N25A C170A 1_555 1_555
N26A C174A 1_555 1_555
N27A C178A 1_555 1_555
N28A C182A 1_555 1_555
C169A H121A 1_555 1_555
H122A C169A 1_555 1_555
H123A C169A 1_555 1_555
C170A O74A 1_555 1_555
C171A N25A 1_555 1_555
H124A C171A 1_555 1_555
H125A C171A 1_555 1_555
H126A C171A 1_555 1_555
C172A N25A 1_555 1_555
H127A C172A 1_555 1_555
H128A C172A 1_555 1_555
H129A C172A 1_555 1_555
C173A H130A 1_555 1_555
H131A C173A 1_555 1_555
H132A C173A 1_555 1_555
C174A O76A 1_555 1_555
C175A N26A 1_555 1_555
H133A C175A 1_555 1_555
H134A C175A 1_555 1_555
H135A C175A 1_555 1_555
C176A N26A 1_555 1_555
H136A C176A 1_555 1_555
H137A C176A 1_555 1_555
H138A C176A 1_555 1_555
C177A H139A 1_555 1_555
H140A C177A 1_555 1_555
H141A C177A 1_555 1_555
C178A O80A 1_555 1_555
C179A N27A 1_555 1_555
H142A C179A 1_555 1_555
H143A C179A 1_555 1_555
H144A C179A 1_555 1_555
C180A N27A 1_555 1_555
H145A C180A 1_555 1_555
H146A C180A 1_555 1_555
H147A C180A 1_555 1_555
C181A H148A 1_555 1_555
H149A C181A 1_555 1_555
H150A C181A 1_555 1_555
C182A O82A 1_555 1_555
C183A N28A 1_555 1_555
H151A C183A 1_555 1_555
H152A C183A 1_555 1_555
H153A C183A 1_555 1_555
C184A N28A 1_555 1_555
H154A C184A 1_555 1_555
H155A C184A 1_555 1_555
H156A C184A 1_555 1_555
O8 C15 1_555 1_555
O14 C29 1_555 1_555
O18 C43 1_555 1_555
O24 C57 1_555 1_555
O30 C71 1_555 1_555
O34 C85 1_555 1_555
O36 C86 1_555 1_555
O40 C99 1_555 1_555
O42 C100 1_555 1_555
O46 C113 1_555 1_555
O52 C127 1_555 1_555
O54 C128 1_555 1_555
O58 C141 1_555 1_555
O64 C155 1_555 1_555
N2 C10 1_555 1_555
N4 C24 1_555 1_555
N6 C52 1_555 1_555
N8 C66 1_555 1_555
N10 C94 1_555 1_555
N12 C108 1_555 1_555
N14 C122 1_555 1_555
N16 C136 1_555 1_555
N18 C150 1_555 1_555
N20 C164 1_555 1_555
C3 C4 1_555 1_555
C7 C8 1_555 1_555
C12 C13 1_555 1_555
C17 C18 1_555 1_555
C17 C22 1_555 1_555
C21 C22 1_555 1_555
C26 C27 1_555 1_555
C31 C32 1_555 1_555
C31 C36 1_555 1_555
C35 C36 1_555 1_555
C40 C41 1_555 1_555
C45 C46 1_555 1_555
C45 C50 1_555 1_555
C49 C50 1_555 1_555
C54 C55 1_555 1_555
C59 C60 1_555 1_555
C59 C64 1_555 1_555
C63 C64 1_555 1_555
C68 C69 1_555 1_555
C73 C74 1_555 1_555
C77 C78 1_555 1_555
C82 C83 1_555 1_555
C87 C88 1_555 1_555
C87 C92 1_555 1_555
C91 C92 1_555 1_555
C96 C97 1_555 1_555
C101 C102 1_555 1_555
C101 C106 1_555 1_555
C105 C106 1_555 1_555
C110 C111 1_555 1_555
C115 C116 1_555 1_555
C115 C120 1_555 1_555
C119 C120 1_555 1_555
C124 C125 1_555 1_555
C129 C130 1_555 1_555
C129 C134 1_555 1_555
C133 C134 1_555 1_555
C138 C139 1_555 1_555
C147 C148 1_555 1_555
C152 C153 1_555 1_555
C157 C158 1_555 1_555
C161 C162 1_555 1_555
C166 C167 1_555 1_555
C169 C170 1_555 1_555
C173 C174 1_555 1_555
C177 C178 1_555 1_555
C181 C182 1_555 1_555
Cu1A Cu2A 1_555 1_555
Cu3A Cu4A 1_555 1_555
Cu5A Cu6A 1_555 1_555
Cu11A Cu12A 1_555 1_555
O2A C1A 1_555 1_555
O4A C2A 1_555 1_555
O8A C15A 1_555 1_555
O10A C16A 1_555 1_555
O14A C29A 1_555 1_555
O16A C30A 1_555 1_555
O18A C43A 1_555 1_555
O20A C44A 1_555 1_555
O24A C57A 1_555 1_555
O30A C71A 1_555 1_555
O32A C72A 1_555 1_555
O34A C85A 1_555 1_555
O36A C86A 1_555 1_555
O40A C99A 1_555 1_555
O42A C100A 1_555 1_555
O46A C113A 1_555 1_555
O52A C127A 1_555 1_555
O54A C128A 1_555 1_555
O58A C141A 1_555 1_555
O60A C142A 1_555 1_555
O64A C155A 1_555 1_555
O66A C156A 1_555 1_555
N2A C10A 1_555 1_555
N4A C24A 1_555 1_555
N6A C52A 1_555 1_555
N8A C66A 1_555 1_555
N10A C94A 1_555 1_555
N12A C108A 1_555 1_555
N14A C122A 1_555 1_555
N16A C136A 1_555 1_555
N18A C150A 1_555 1_555
N20A C164A 1_555 1_555
C3A C4A 1_555 1_555
C3A C8A 1_555 1_555
C7A C8A 1_555 1_555
C12A C13A 1_555 1_555
C17A C18A 1_555 1_555
C17A C22A 1_555 1_555
C21A C22A 1_555 1_555
C26A C27A 1_555 1_555
C31A C32A 1_555 1_555
C31A C36A 1_555 1_555
C35A C36A 1_555 1_555
C40A C41A 1_555 1_555
C45A C46A 1_555 1_555
C45A C50A 1_555 1_555
C49A C50A 1_555 1_555
C54A C55A 1_555 1_555
C59A C60A 1_555 1_555
C59A C64A 1_555 1_555
C63A C64A 1_555 1_555
C68A C69A 1_555 1_555
C73A C74A 1_555 1_555
C73A C78A 1_555 1_555
C77A C78A 1_555 1_555
C82A C83A 1_555 1_555
C87A C88A 1_555 1_555
C87A C92A 1_555 1_555
C91A C92A 1_555 1_555
C96A C97A 1_555 1_555
C101A C102A 1_555 1_555
C101A C106A 1_555 1_555
C105A C106A 1_555 1_555
C110A C111A 1_555 1_555
C115A C116A 1_555 1_555
C115A C120A 1_555 1_555
C119A C120A 1_555 1_555
C124A C125A 1_555 1_555
C129A C130A 1_555 1_555
C129A C134A 1_555 1_555
C133A C134A 1_555 1_555
C138A C139A 1_555 1_555
C144A C145A 1_555 1_555
C147A C148A 1_555 1_555
C152A C153A 1_555 1_555
C157A C158A 1_555 1_555
C157A C162A 1_555 1_555
C161A C162A 1_555 1_555
C166A C167A 1_555 1_555
C169A C170A 1_555 1_555
C173A C174A 1_555 1_555
C177A C178A 1_555 1_555
C181A C182A 1_555 1_555

#END
