# generated using pymatgen
data_B2H48PdC61(N3F4)2
_symmetry_space_group_name_H-M   'P 1'
_cell_length_a   15.42500000
_cell_length_b   28.07100000
_cell_length_c   37.18400000
_cell_angle_alpha   90.00000000
_cell_angle_beta   97.84000000
_cell_angle_gamma   90.00000000
_symmetry_Int_Tables_number   1
_chemical_formula_structural   B2H48PdC61(N3F4)2
_chemical_formula_sum   'B16 H384 Pd8 C488 N48 F64'
_cell_volume   15949.99889523
_cell_formula_units_Z   8
loop_
 _symmetry_equiv_pos_site_id
 _symmetry_equiv_pos_as_xyz
  1  'x, y, z'
loop_
 _atom_site_type_symbol
 _atom_site_label
 _atom_site_symmetry_multiplicity
 _atom_site_fract_x
 _atom_site_fract_y
 _atom_site_fract_z
 _atom_site_occupancy
  B  B1  1  0.987900  0.429300  0.026800  1
  B  B2  1  0.512100  0.929300  0.473200  1
  B  B3  1  0.012100  0.570700  0.973200  1
  B  B4  1  0.487900  0.070700  0.526800  1
  B  B5  1  0.959400  0.330900  0.807800  1
  B  B6  1  0.540600  0.830900  0.692200  1
  B  B7  1  0.040600  0.669100  0.192200  1
  B  B8  1  0.459400  0.169100  0.307800  1
  B  B9  1  0.034100  0.207500  0.672100  1
  B  B10  1  0.465900  0.707500  0.827900  1
  B  B11  1  0.965900  0.792500  0.327900  1
  B  B12  1  0.534100  0.292500  0.172100  1
  B  B13  1  0.017200  0.895400  0.540000  1
  B  B14  1  0.482800  0.395400  0.960000  1
  B  B15  1  0.982800  0.104600  0.460000  1
  B  B16  1  0.517200  0.604600  0.040000  1
  H  H17  1  0.718400  0.349400  0.752100  1
  H  H18  1  0.781600  0.849400  0.747900  1
  H  H19  1  0.281600  0.650600  0.247900  1
  H  H20  1  0.218400  0.150600  0.252100  1
  H  H21  1  0.710100  0.362600  0.792400  1
  H  H22  1  0.789900  0.862600  0.707600  1
  H  H23  1  0.289900  0.637400  0.207600  1
  H  H24  1  0.210100  0.137400  0.292400  1
  H  H25  1  0.692800  0.549400  0.638600  1
  H  H26  1  0.807200  0.049400  0.861400  1
  H  H27  1  0.307200  0.450600  0.361400  1
  H  H28  1  0.192800  0.950600  0.138600  1
  H  H29  1  0.709100  0.562600  0.680000  1
  H  H30  1  0.790900  0.062600  0.820000  1
  H  H31  1  0.290900  0.437400  0.320000  1
  H  H32  1  0.209100  0.937400  0.180000  1
  H  H33  1  0.613300  0.558000  0.659900  1
  H  H34  1  0.886700  0.058000  0.840100  1
  H  H35  1  0.386700  0.442000  0.340100  1
  H  H36  1  0.113300  0.942000  0.159900  1
  H  H37  1  0.722000  0.479000  0.663100  1
  H  H38  1  0.778000  0.979000  0.836900  1
  H  H39  1  0.278000  0.521000  0.336900  1
  H  H40  1  0.222000  0.021000  0.163100  1
  H  H41  1  0.619600  0.479400  0.658100  1
  H  H42  1  0.880400  0.979400  0.841900  1
  H  H43  1  0.380400  0.520600  0.341900  1
  H  H44  1  0.119600  0.020600  0.158100  1
  H  H45  1  0.724600  0.499300  0.724200  1
  H  H46  1  0.775400  0.999300  0.775800  1
  H  H47  1  0.275400  0.500700  0.275800  1
  H  H48  1  0.224600  0.000700  0.224200  1
  H  H49  1  0.622000  0.498500  0.719100  1
  H  H50  1  0.878000  0.998500  0.780900  1
  H  H51  1  0.378000  0.501500  0.280900  1
  H  H52  1  0.122000  0.001500  0.219100  1
  H  H53  1  0.618100  0.418800  0.710500  1
  H  H54  1  0.881900  0.918800  0.789500  1
  H  H55  1  0.381900  0.581200  0.289500  1
  H  H56  1  0.118100  0.081200  0.210500  1
  H  H57  1  0.717700  0.417000  0.706400  1
  H  H58  1  0.782300  0.917000  0.793600  1
  H  H59  1  0.282300  0.583000  0.293600  1
  H  H60  1  0.217700  0.083000  0.206400  1
  H  H61  1  0.658800  0.438600  0.772400  1
  H  H62  1  0.841200  0.938600  0.727600  1
  H  H63  1  0.341200  0.561400  0.227600  1
  H  H64  1  0.158800  0.061400  0.272400  1
  H  H65  1  0.756200  0.429100  0.767000  1
  H  H66  1  0.743800  0.929100  0.733000  1
  H  H67  1  0.243800  0.570900  0.233000  1
  H  H68  1  0.256200  0.070900  0.267000  1
  H  H69  1  0.350200  0.291000  0.715500  1
  H  H70  1  0.149800  0.791000  0.784500  1
  H  H71  1  0.649800  0.709000  0.284500  1
  H  H72  1  0.850200  0.209000  0.215500  1
  H  H73  1  0.543200  0.278800  0.654200  1
  H  H74  1  0.956800  0.778800  0.845800  1
  H  H75  1  0.456800  0.721200  0.345800  1
  H  H76  1  0.043200  0.221200  0.154200  1
  H  H77  1  0.638800  0.320200  0.696500  1
  H  H78  1  0.861200  0.820200  0.803500  1
  H  H79  1  0.361200  0.679800  0.303500  1
  H  H80  1  0.138800  0.179800  0.196500  1
  H  H81  1  0.607100  0.395700  0.829000  1
  H  H82  1  0.892900  0.895700  0.671000  1
  H  H83  1  0.392900  0.604300  0.171000  1
  H  H84  1  0.107100  0.104300  0.329000  1
  H  H85  1  0.493700  0.399100  0.863900  1
  H  H86  1  0.006300  0.899100  0.636100  1
  H  H87  1  0.506300  0.600900  0.136100  1
  H  H88  1  0.993700  0.100900  0.363900  1
  H  H89  1  0.331500  0.332900  0.786200  1
  H  H90  1  0.168500  0.832900  0.713800  1
  H  H91  1  0.668500  0.667100  0.213800  1
  H  H92  1  0.831500  0.167100  0.286200  1
  H  H93  1  0.174000  0.216500  0.613200  1
  H  H94  1  0.326000  0.716500  0.886800  1
  H  H95  1  0.826000  0.783500  0.386800  1
  H  H96  1  0.674000  0.283500  0.113200  1
  H  H97  1  0.400300  0.180100  0.580100  1
  H  H98  1  0.099700  0.680100  0.919900  1
  H  H99  1  0.599700  0.819900  0.419900  1
  H  H100  1  0.900300  0.319900  0.080100  1
  H  H101  1  0.323400  0.133200  0.535700  1
  H  H102  1  0.176600  0.633200  0.964300  1
  H  H103  1  0.676600  0.866800  0.464300  1
  H  H104  1  0.823400  0.366800  0.035700  1
  H  H105  1  0.173400  0.128000  0.531900  1
  H  H106  1  0.326600  0.628000  0.968100  1
  H  H107  1  0.826600  0.872000  0.468100  1
  H  H108  1  0.673400  0.372000  0.031900  1
  H  H109  1  0.118200  0.362400  0.874400  1
  H  H110  1  0.381800  0.862400  0.625600  1
  H  H111  1  0.881800  0.637600  0.125600  1
  H  H112  1  0.618200  0.137600  0.374400  1
  H  H113  1  0.312200  0.441600  0.924600  1
  H  H114  1  0.187800  0.941600  0.575400  1
  H  H115  1  0.687800  0.558400  0.075400  1
  H  H116  1  0.812200  0.058400  0.424600  1
  H  H117  1  0.220500  0.467200  0.965500  1
  H  H118  1  0.279500  0.967200  0.534500  1
  H  H119  1  0.779500  0.532800  0.034500  1
  H  H120  1  0.720500  0.032800  0.465500  1
  H  H121  1  0.077400  0.439700  0.959300  1
  H  H122  1  0.422600  0.939700  0.540700  1
  H  H123  1  0.922600  0.560300  0.040700  1
  H  H124  1  0.577400  0.060300  0.459300  1
  H  H125  1  0.905800  0.470800  0.936600  1
  H  H126  1  0.594200  0.970800  0.563400  1
  H  H127  1  0.094200  0.529200  0.063400  1
  H  H128  1  0.405800  0.029200  0.436600  1
  H  H129  1  0.034800  0.673300  0.615700  1
  H  H130  1  0.465200  0.173300  0.884300  1
  H  H131  1  0.965200  0.326700  0.384300  1
  H  H132  1  0.534800  0.826700  0.115700  1
  H  H133  1  0.061300  0.621500  0.605600  1
  H  H134  1  0.438700  0.121500  0.894400  1
  H  H135  1  0.938700  0.378500  0.394400  1
  H  H136  1  0.561300  0.878500  0.105600  1
  H  H137  1  0.057500  0.635100  0.646300  1
  H  H138  1  0.442500  0.135100  0.853700  1
  H  H139  1  0.942500  0.364900  0.353700  1
  H  H140  1  0.557500  0.864900  0.146300  1
  H  H141  1  0.903800  0.646400  0.631400  1
  H  H142  1  0.596200  0.146400  0.868600  1
  H  H143  1  0.096200  0.353600  0.368600  1
  H  H144  1  0.403800  0.853600  0.131400  1
  H  H145  1  0.911100  0.626600  0.592300  1
  H  H146  1  0.588900  0.126600  0.907700  1
  H  H147  1  0.088900  0.373400  0.407700  1
  H  H148  1  0.411100  0.873400  0.092300  1
  H  H149  1  0.940500  0.423800  0.638600  1
  H  H150  1  0.559500  0.923800  0.861400  1
  H  H151  1  0.059500  0.576200  0.361400  1
  H  H152  1  0.440500  0.076200  0.138600  1
  H  H153  1  0.957400  0.476000  0.539500  1
  H  H154  1  0.542600  0.976000  0.960500  1
  H  H155  1  0.042600  0.524000  0.460500  1
  H  H156  1  0.457400  0.024000  0.039500  1
  H  H157  1  0.949700  0.553800  0.561500  1
  H  H158  1  0.550300  0.053800  0.938500  1
  H  H159  1  0.050300  0.446200  0.438500  1
  H  H160  1  0.449700  0.946200  0.061500  1
  H  H161  1  0.920600  0.629400  0.693000  1
  H  H162  1  0.579400  0.129400  0.807000  1
  H  H163  1  0.079400  0.370600  0.307000  1
  H  H164  1  0.420600  0.870600  0.193000  1
  H  H165  1  0.906300  0.595500  0.748800  1
  H  H166  1  0.593700  0.095500  0.751200  1
  H  H167  1  0.093700  0.404500  0.251200  1
  H  H168  1  0.406300  0.904500  0.248800  1
  H  H169  1  0.923700  0.463600  0.709100  1
  H  H170  1  0.576300  0.963600  0.790900  1
  H  H171  1  0.076300  0.536400  0.290900  1
  H  H172  1  0.423700  0.036400  0.209100  1
  H  H173  1  0.987800  0.270700  0.582200  1
  H  H174  1  0.512200  0.770700  0.917800  1
  H  H175  1  0.012200  0.729300  0.417800  1
  H  H176  1  0.487800  0.229300  0.082200  1
  H  H177  1  0.000900  0.347500  0.492900  1
  H  H178  1  0.499100  0.847500  0.007100  1
  H  H179  1  0.999100  0.652500  0.507100  1
  H  H180  1  0.500900  0.152500  0.992900  1
  H  H181  1  0.035500  0.279200  0.463600  1
  H  H182  1  0.464500  0.779200  0.036400  1
  H  H183  1  0.964500  0.720800  0.536400  1
  H  H184  1  0.535500  0.220800  0.963600  1
  H  H185  1  0.049500  0.207900  0.495800  1
  H  H186  1  0.450500  0.707900  0.004200  1
  H  H187  1  0.950500  0.792100  0.504200  1
  H  H188  1  0.549500  0.292100  0.995800  1
  H  H189  1  0.936100  0.420300  0.840100  1
  H  H190  1  0.563900  0.920300  0.659900  1
  H  H191  1  0.063900  0.579700  0.159900  1
  H  H192  1  0.436100  0.079700  0.340100  1
  H  H193  1  0.865100  0.556600  0.850300  1
  H  H194  1  0.634900  0.056600  0.649700  1
  H  H195  1  0.134900  0.443400  0.149700  1
  H  H196  1  0.365100  0.943400  0.350300  1
  H  H197  1  0.865400  0.543700  0.912200  1
  H  H198  1  0.634600  0.043700  0.587800  1
  H  H199  1  0.134600  0.456300  0.087800  1
  H  H200  1  0.365400  0.956300  0.412200  1
  H  H201  1  0.290300  0.148500  0.695600  1
  H  H202  1  0.209700  0.648500  0.804400  1
  H  H203  1  0.709700  0.851500  0.304400  1
  H  H204  1  0.790300  0.351500  0.195600  1
  H  H205  1  0.280200  0.169000  0.734000  1
  H  H206  1  0.219800  0.669000  0.766000  1
  H  H207  1  0.719800  0.831000  0.266000  1
  H  H208  1  0.780200  0.331000  0.234000  1
  H  H209  1  0.250100  0.084800  0.727900  1
  H  H210  1  0.249900  0.584800  0.772100  1
  H  H211  1  0.749900  0.915200  0.272100  1
  H  H212  1  0.750100  0.415200  0.227900  1
  H  H213  1  0.348600  0.076700  0.724300  1
  H  H214  1  0.151400  0.576700  0.775700  1
  H  H215  1  0.651400  0.923300  0.275700  1
  H  H216  1  0.848600  0.423300  0.224300  1
  H  H217  1  0.284900  0.961800  0.828700  1
  H  H218  1  0.215100  0.461800  0.671300  1
  H  H219  1  0.715100  0.038200  0.171300  1
  H  H220  1  0.784900  0.538200  0.328700  1
  H  H221  1  0.348300  0.975900  0.863700  1
  H  H222  1  0.151700  0.475900  0.636300  1
  H  H223  1  0.651700  0.024100  0.136300  1
  H  H224  1  0.848300  0.524100  0.363700  1
  H  H225  1  0.385800  0.965600  0.827300  1
  H  H226  1  0.114200  0.465600  0.672700  1
  H  H227  1  0.614200  0.034400  0.172700  1
  H  H228  1  0.885800  0.534400  0.327300  1
  H  H229  1  0.272600  0.044000  0.834300  1
  H  H230  1  0.227400  0.544000  0.665700  1
  H  H231  1  0.727400  0.956000  0.165700  1
  H  H232  1  0.772600  0.456000  0.334300  1
  H  H233  1  0.374800  0.050000  0.840000  1
  H  H234  1  0.125200  0.550000  0.660000  1
  H  H235  1  0.625200  0.950000  0.160000  1
  H  H236  1  0.874800  0.450000  0.340000  1
  H  H237  1  0.375000  0.021200  0.778900  1
  H  H238  1  0.125000  0.521200  0.721100  1
  H  H239  1  0.625000  0.978800  0.221100  1
  H  H240  1  0.875000  0.478800  0.278900  1
  H  H241  1  0.272500  0.023000  0.773900  1
  H  H242  1  0.227500  0.523000  0.726100  1
  H  H243  1  0.727500  0.977000  0.226100  1
  H  H244  1  0.772500  0.477000  0.273900  1
  H  H245  1  0.664400  0.187300  0.699100  1
  H  H246  1  0.835600  0.687300  0.800900  1
  H  H247  1  0.335600  0.812700  0.300900  1
  H  H248  1  0.164400  0.312700  0.199100  1
  H  H249  1  0.500000  0.121300  0.621800  1
  H  H250  1  0.000000  0.621300  0.878200  1
  H  H251  1  0.500000  0.878700  0.378200  1
  H  H252  1  0.000000  0.378700  0.121800  1
  H  H253  1  0.391300  0.122100  0.658900  1
  H  H254  1  0.108700  0.622100  0.841100  1
  H  H255  1  0.608700  0.877900  0.341100  1
  H  H256  1  0.891300  0.377900  0.158900  1
  H  H257  1  0.363900  0.196700  0.789600  1
  H  H258  1  0.136100  0.696700  0.710400  1
  H  H259  1  0.636100  0.803300  0.210400  1
  H  H260  1  0.863900  0.303300  0.289600  1
  H  H261  1  0.457000  0.238500  0.832400  1
  H  H262  1  0.043000  0.738500  0.667600  1
  H  H263  1  0.543000  0.761500  0.167600  1
  H  H264  1  0.957000  0.261500  0.332400  1
  H  H265  1  0.649300  0.229100  0.770500  1
  H  H266  1  0.850700  0.729100  0.729500  1
  H  H267  1  0.350700  0.770900  0.229500  1
  H  H268  1  0.149300  0.270900  0.270500  1
  H  H269  1  0.874800  0.164600  0.609500  1
  H  H270  1  0.625200  0.664600  0.890500  1
  H  H271  1  0.125200  0.835400  0.390500  1
  H  H272  1  0.374800  0.335400  0.109500  1
  H  H273  1  0.656500  0.144500  0.541400  1
  H  H274  1  0.843500  0.644500  0.958600  1
  H  H275  1  0.343500  0.855500  0.458600  1
  H  H276  1  0.156500  0.355500  0.041400  1
  H  H277  1  0.739500  0.148300  0.493100  1
  H  H278  1  0.760500  0.648300  0.006900  1
  H  H279  1  0.260500  0.851700  0.506900  1
  H  H280  1  0.239500  0.351700  0.993100  1
  H  H281  1  0.884600  0.158200  0.506000  1
  H  H282  1  0.615400  0.658200  0.994000  1
  H  H283  1  0.115400  0.841800  0.494000  1
  H  H284  1  0.384600  0.341800  0.006000  1
  H  H285  1  0.824100  0.315800  0.868700  1
  H  H286  1  0.675900  0.815800  0.631300  1
  H  H287  1  0.175900  0.684200  0.131300  1
  H  H288  1  0.324100  0.184200  0.368700  1
  H  H289  1  0.602200  0.324300  0.913100  1
  H  H290  1  0.897800  0.824300  0.586900  1
  H  H291  1  0.397800  0.675700  0.086900  1
  H  H292  1  0.102200  0.175700  0.413100  1
  H  H293  1  0.676500  0.367900  0.957400  1
  H  H294  1  0.823500  0.867900  0.542600  1
  H  H295  1  0.323500  0.632100  0.042600  1
  H  H296  1  0.176500  0.132100  0.457400  1
  H  H297  1  0.817800  0.389300  0.957200  1
  H  H298  1  0.682200  0.889300  0.542800  1
  H  H299  1  0.182200  0.610700  0.042800  1
  H  H300  1  0.317800  0.110700  0.457200  1
  H  H301  1  0.285500  0.106700  0.786300  1
  H  H302  1  0.214500  0.606700  0.713700  1
  H  H303  1  0.714500  0.893300  0.213700  1
  H  H304  1  0.785500  0.393300  0.286300  1
  H  H305  1  0.385100  0.101600  0.782900  1
  H  H306  1  0.114900  0.601600  0.717100  1
  H  H307  1  0.614900  0.898400  0.217100  1
  H  H308  1  0.885100  0.398400  0.282900  1
  H  H309  1  0.273800  0.879900  0.946900  1
  H  H310  1  0.226200  0.379900  0.553100  1
  H  H311  1  0.726200  0.120100  0.053100  1
  H  H312  1  0.773800  0.620100  0.446900  1
  H  H313  1  0.322000  0.892600  0.913600  1
  H  H314  1  0.178000  0.392600  0.586400  1
  H  H315  1  0.678000  0.107400  0.086400  1
  H  H316  1  0.822000  0.607400  0.413600  1
  H  H317  1  0.257000  0.849500  0.911300  1
  H  H318  1  0.243000  0.349500  0.588700  1
  H  H319  1  0.743000  0.150500  0.088700  1
  H  H320  1  0.757000  0.650500  0.411300  1
  H  H321  1  0.159900  0.920600  0.925700  1
  H  H322  1  0.340100  0.420600  0.574300  1
  H  H323  1  0.840100  0.079400  0.074300  1
  H  H324  1  0.659900  0.579400  0.425700  1
  H  H325  1  0.218100  0.943200  0.898700  1
  H  H326  1  0.281900  0.443200  0.601300  1
  H  H327  1  0.781900  0.056800  0.101300  1
  H  H328  1  0.718100  0.556800  0.398700  1
  H  H329  1  0.168200  0.890500  0.854300  1
  H  H330  1  0.331800  0.390500  0.645700  1
  H  H331  1  0.831800  0.109500  0.145700  1
  H  H332  1  0.668200  0.609500  0.354300  1
  H  H333  1  0.123000  0.859200  0.881300  1
  H  H334  1  0.377000  0.359200  0.618700  1
  H  H335  1  0.877000  0.140800  0.118700  1
  H  H336  1  0.623000  0.640800  0.381300  1
  H  H337  1  0.004000  0.341700  0.987900  1
  H  H338  1  0.496000  0.841700  0.512100  1
  H  H339  1  0.996000  0.658300  0.012100  1
  H  H340  1  0.504000  0.158300  0.487900  1
  H  H341  1  0.069600  0.980500  0.622600  1
  H  H342  1  0.430400  0.480500  0.877400  1
  H  H343  1  0.930400  0.019500  0.377400  1
  H  H344  1  0.569600  0.519500  0.122600  1
  H  H345  1  0.050500  0.995400  0.560700  1
  H  H346  1  0.449500  0.495400  0.939300  1
  H  H347  1  0.949500  0.004600  0.439300  1
  H  H348  1  0.550500  0.504600  0.060700  1
  H  H349  1  0.025900  0.071500  0.540700  1
  H  H350  1  0.474100  0.571500  0.959300  1
  H  H351  1  0.974100  0.928500  0.459300  1
  H  H352  1  0.525900  0.428500  0.040700  1
  H  H353  1  0.005600  0.273700  0.895800  1
  H  H354  1  0.494400  0.773700  0.604200  1
  H  H355  1  0.994400  0.726300  0.104200  1
  H  H356  1  0.505600  0.226300  0.395800  1
  H  H357  1  0.060600  0.991900  0.920200  1
  H  H358  1  0.439400  0.491900  0.579800  1
  H  H359  1  0.939400  0.008100  0.079800  1
  H  H360  1  0.560600  0.508100  0.420200  1
  H  H361  1  0.056500  0.070200  0.940300  1
  H  H362  1  0.443500  0.570200  0.559700  1
  H  H363  1  0.943500  0.929800  0.059700  1
  H  H364  1  0.556500  0.429800  0.440300  1
  H  H365  1  0.064100  0.119200  0.838900  1
  H  H366  1  0.435900  0.619200  0.661100  1
  H  H367  1  0.935900  0.880800  0.161100  1
  H  H368  1  0.564100  0.380800  0.338900  1
  H  H369  1  0.050100  0.120900  0.638900  1
  H  H370  1  0.449900  0.620900  0.861100  1
  H  H371  1  0.949900  0.879100  0.361100  1
  H  H372  1  0.550100  0.379100  0.138900  1
  H  H373  1  0.023700  0.922600  0.886100  1
  H  H374  1  0.476300  0.422600  0.613900  1
  H  H375  1  0.976300  0.077400  0.113900  1
  H  H376  1  0.523700  0.577400  0.386100  1
  H  H377  1  0.014400  0.899800  0.847200  1
  H  H378  1  0.485600  0.399800  0.652800  1
  H  H379  1  0.985600  0.100200  0.152800  1
  H  H380  1  0.514400  0.600200  0.347200  1
  H  H381  1  0.074800  0.077300  0.769900  1
  H  H382  1  0.425200  0.577300  0.730100  1
  H  H383  1  0.925200  0.922700  0.230100  1
  H  H384  1  0.574800  0.422700  0.269900  1
  H  H385  1  0.082100  0.944400  0.731100  1
  H  H386  1  0.417900  0.444400  0.768900  1
  H  H387  1  0.917900  0.055600  0.268900  1
  H  H388  1  0.582100  0.555600  0.231100  1
  H  H389  1  0.077800  0.912400  0.787800  1
  H  H390  1  0.422200  0.412400  0.712200  1
  H  H391  1  0.922200  0.087600  0.212200  1
  H  H392  1  0.577800  0.587600  0.287800  1
  H  H393  1  0.067600  0.203200  0.989300  1
  H  H394  1  0.432400  0.703200  0.510700  1
  H  H395  1  0.932400  0.796800  0.010700  1
  H  H396  1  0.567600  0.296800  0.489300  1
  H  H397  1  0.047400  0.273400  0.020400  1
  H  H398  1  0.452600  0.773400  0.479600  1
  H  H399  1  0.952600  0.726600  0.979600  1
  H  H400  1  0.547400  0.226600  0.520400  1
  Pd  Pd401  1  0.027320  0.168810  0.566100  1
  Pd  Pd402  1  0.472680  0.668810  0.933900  1
  Pd  Pd403  1  0.972680  0.831190  0.433900  1
  Pd  Pd404  1  0.527320  0.331190  0.066100  1
  Pd  Pd405  1  0.960310  0.374900  0.913140  1
  Pd  Pd406  1  0.539690  0.874900  0.586860  1
  Pd  Pd407  1  0.039690  0.625100  0.086860  1
  Pd  Pd408  1  0.460310  0.125100  0.413140  1
  C  C409  1  0.685300  0.368300  0.767400  1
  C  C410  1  0.814700  0.868300  0.732600  1
  C  C411  1  0.314700  0.631700  0.232600  1
  C  C412  1  0.185300  0.131700  0.267400  1
  C  C413  1  0.671700  0.545600  0.661600  1
  C  C414  1  0.828300  0.045600  0.838400  1
  C  C415  1  0.328300  0.454400  0.338400  1
  C  C416  1  0.171700  0.954400  0.161600  1
  C  C417  1  0.671500  0.494100  0.671200  1
  C  C418  1  0.828500  0.994100  0.828800  1
  C  C419  1  0.328500  0.505900  0.328800  1
  C  C420  1  0.171500  0.005900  0.171200  1
  C  C421  1  0.673300  0.484300  0.711000  1
  C  C422  1  0.826700  0.984300  0.789000  1
  C  C423  1  0.326700  0.515700  0.289000  1
  C  C424  1  0.173300  0.015700  0.211000  1
  C  C425  1  0.674900  0.432100  0.719500  1
  C  C426  1  0.825100  0.932100  0.780500  1
  C  C427  1  0.325100  0.567900  0.280500  1
  C  C428  1  0.174900  0.067900  0.219500  1
  C  C429  1  0.696200  0.419900  0.758800  1
  C  C430  1  0.803800  0.919900  0.741200  1
  C  C431  1  0.303800  0.580100  0.241200  1
  C  C432  1  0.196200  0.080100  0.258800  1
  C  C433  1  0.407600  0.297200  0.711900  1
  C  C434  1  0.092400  0.797200  0.788100  1
  C  C435  1  0.592400  0.702800  0.288100  1
  C  C436  1  0.907600  0.202800  0.211900  1
  C  C437  1  0.437900  0.282500  0.680500  1
  C  C438  1  0.062100  0.782500  0.819500  1
  C  C439  1  0.562100  0.717500  0.319500  1
  C  C440  1  0.937900  0.217500  0.180500  1
  C  C441  1  0.523900  0.290100  0.675300  1
  C  C442  1  0.976100  0.790100  0.824700  1
  C  C443  1  0.476100  0.709900  0.324700  1
  C  C444  1  0.023900  0.209900  0.175300  1
  C  C445  1  0.581600  0.314100  0.700400  1
  C  C446  1  0.918400  0.814100  0.799600  1
  C  C447  1  0.418400  0.685900  0.299600  1
  C  C448  1  0.081600  0.185900  0.200400  1
  C  C449  1  0.550200  0.328900  0.732200  1
  C  C450  1  0.949800  0.828900  0.767800  1
  C  C451  1  0.449800  0.671100  0.267800  1
  C  C452  1  0.050200  0.171100  0.232200  1
  C  C453  1  0.463600  0.321200  0.737800  1
  C  C454  1  0.036400  0.821200  0.762200  1
  C  C455  1  0.536400  0.678800  0.262200  1
  C  C456  1  0.963600  0.178800  0.237800  1
  C  C457  1  0.454600  0.340700  0.773200  1
  C  C458  1  0.045400  0.840700  0.726800  1
  C  C459  1  0.545400  0.659300  0.226800  1
  C  C460  1  0.954600  0.159300  0.273200  1
  C  C461  1  0.535800  0.359900  0.787100  1
  C  C462  1  0.964200  0.859900  0.712900  1
  C  C463  1  0.464200  0.640100  0.212900  1
  C  C464  1  0.035800  0.140100  0.287100  1
  C  C465  1  0.552500  0.382800  0.820800  1
  C  C466  1  0.947500  0.882800  0.679200  1
  C  C467  1  0.447500  0.617200  0.179200  1
  C  C468  1  0.052500  0.117200  0.320800  1
  C  C469  1  0.484800  0.385400  0.840900  1
  C  C470  1  0.015200  0.885400  0.659100  1
  C  C471  1  0.515200  0.614600  0.159100  1
  C  C472  1  0.984800  0.114600  0.340900  1
  C  C473  1  0.402600  0.367600  0.827300  1
  C  C474  1  0.097400  0.867600  0.672700  1
  C  C475  1  0.597400  0.632400  0.172700  1
  C  C476  1  0.902600  0.132400  0.327300  1
  C  C477  1  0.386700  0.345090  0.794400  1
  C  C478  1  0.113300  0.845090  0.705600  1
  C  C479  1  0.613300  0.654910  0.205600  1
  C  C480  1  0.886700  0.154910  0.294400  1
  C  C481  1  0.379100  0.256300  0.652300  1
  C  C482  1  0.120900  0.756300  0.847700  1
  C  C483  1  0.620900  0.743700  0.347700  1
  C  C484  1  0.879100  0.243700  0.152300  1
  C  C485  1  0.338500  0.234100  0.628500  1
  C  C486  1  0.161500  0.734100  0.871500  1
  C  C487  1  0.661500  0.765900  0.371500  1
  C  C488  1  0.838500  0.265900  0.128500  1
  C  C489  1  0.204500  0.200400  0.597100  1
  C  C490  1  0.295500  0.700400  0.902900  1
  C  C491  1  0.795500  0.799600  0.402900  1
  C  C492  1  0.704500  0.299600  0.097100  1
  C  C493  1  0.294300  0.205200  0.600600  1
  C  C494  1  0.205700  0.705200  0.899400  1
  C  C495  1  0.705700  0.794800  0.399400  1
  C  C496  1  0.794300  0.294800  0.100600  1
  C  C497  1  0.339600  0.178700  0.577800  1
  C  C498  1  0.160400  0.678700  0.922200  1
  C  C499  1  0.660400  0.821300  0.422200  1
  C  C500  1  0.839600  0.321300  0.077800  1
  C  C501  1  0.293900  0.150500  0.551600  1
  C  C502  1  0.206100  0.650500  0.948400  1
  C  C503  1  0.706100  0.849500  0.448400  1
  C  C504  1  0.793900  0.349500  0.051600  1
  C  C505  1  0.204200  0.147800  0.549200  1
  C  C506  1  0.295800  0.647800  0.950800  1
  C  C507  1  0.795800  0.852200  0.450800  1
  C  C508  1  0.704200  0.352200  0.049200  1
  C  C509  1  0.333333  0.372900  0.850900  1
  C  C510  1  0.166667  0.872900  0.649100  1
  C  C511  1  0.666667  0.627100  0.149100  1
  C  C512  1  0.833333  0.127100  0.350900  1
  C  C513  1  0.279500  0.381600  0.869200  1
  C  C514  1  0.220500  0.881600  0.630800  1
  C  C515  1  0.720500  0.618400  0.130800  1
  C  C516  1  0.779500  0.118400  0.369200  1
  C  C517  1  0.139200  0.383200  0.893100  1
  C  C518  1  0.360800  0.883200  0.606900  1
  C  C519  1  0.860800  0.616800  0.106900  1
  C  C520  1  0.639200  0.116800  0.393100  1
  C  C521  1  0.224000  0.397900  0.896100  1
  C  C522  1  0.276000  0.897900  0.603900  1
  C  C523  1  0.776000  0.602100  0.103900  1
  C  C524  1  0.724000  0.102100  0.396100  1
  C  C525  1  0.255100  0.430400  0.922900  1
  C  C526  1  0.244900  0.930400  0.577100  1
  C  C527  1  0.744900  0.569600  0.077100  1
  C  C528  1  0.755100  0.069600  0.422900  1
  C  C529  1  0.200300  0.445900  0.947100  1
  C  C530  1  0.299700  0.945900  0.552900  1
  C  C531  1  0.799700  0.554100  0.052900  1
  C  C532  1  0.700300  0.054100  0.447100  1
  C  C533  1  0.114800  0.429300  0.943300  1
  C  C534  1  0.385200  0.929300  0.556700  1
  C  C535  1  0.885200  0.570700  0.056700  1
  C  C536  1  0.614800  0.070700  0.443300  1
  C  C537  1  0.902900  0.475100  0.911700  1
  C  C538  1  0.597100  0.975100  0.588300  1
  C  C539  1  0.097100  0.524900  0.088300  1
  C  C540  1  0.402900  0.024900  0.411700  1
  C  C541  1  0.031100  0.640100  0.621700  1
  C  C542  1  0.468900  0.140100  0.878300  1
  C  C543  1  0.968900  0.359900  0.378300  1
  C  C544  1  0.531100  0.859900  0.121700  1
  C  C545  1  0.936600  0.625300  0.617700  1
  C  C546  1  0.563400  0.125300  0.882300  1
  C  C547  1  0.063400  0.374700  0.382300  1
  C  C548  1  0.436600  0.874700  0.117700  1
  C  C549  1  0.943300  0.449900  0.623400  1
  C  C550  1  0.556700  0.949900  0.876600  1
  C  C551  1  0.056700  0.550100  0.376600  1
  C  C552  1  0.443300  0.050100  0.123400  1
  C  C553  1  0.953100  0.443200  0.587900  1
  C  C554  1  0.546900  0.943200  0.912100  1
  C  C555  1  0.046900  0.556800  0.412100  1
  C  C556  1  0.453100  0.056800  0.087900  1
  C  C557  1  0.953500  0.481400  0.563900  1
  C  C558  1  0.546500  0.981400  0.936100  1
  C  C559  1  0.046500  0.518600  0.436100  1
  C  C560  1  0.453500  0.018600  0.063900  1
  C  C561  1  0.948200  0.527800  0.576900  1
  C  C562  1  0.551800  0.027800  0.923100  1
  C  C563  1  0.051800  0.472200  0.423100  1
  C  C564  1  0.448200  0.972200  0.076900  1
  C  C565  1  0.940700  0.534200  0.612800  1
  C  C566  1  0.559300  0.034200  0.887200  1
  C  C567  1  0.059300  0.465800  0.387200  1
  C  C568  1  0.440700  0.965800  0.112800  1
  C  C569  1  0.937300  0.496000  0.637000  1
  C  C570  1  0.562700  0.996000  0.863000  1
  C  C571  1  0.062700  0.504000  0.363000  1
  C  C572  1  0.437300  0.004000  0.137000  1
  C  C573  1  0.927300  0.515900  0.671800  1
  C  C574  1  0.572700  0.015900  0.828200  1
  C  C575  1  0.072700  0.484100  0.328200  1
  C  C576  1  0.427300  0.984100  0.171800  1
  C  C577  1  0.925400  0.565700  0.667100  1
  C  C578  1  0.574600  0.065700  0.832900  1
  C  C579  1  0.074600  0.434300  0.332900  1
  C  C580  1  0.425400  0.934300  0.167100  1
  C  C581  1  0.919600  0.596600  0.695900  1
  C  C582  1  0.580400  0.096600  0.804100  1
  C  C583  1  0.080400  0.403400  0.304100  1
  C  C584  1  0.419600  0.903400  0.195900  1
  C  C585  1  0.912300  0.575800  0.729200  1
  C  C586  1  0.587700  0.075800  0.770800  1
  C  C587  1  0.087700  0.424200  0.270800  1
  C  C588  1  0.412300  0.924200  0.229200  1
  C  C589  1  0.913500  0.526900  0.734500  1
  C  C590  1  0.586500  0.026900  0.765500  1
  C  C591  1  0.086500  0.473100  0.265500  1
  C  C592  1  0.413500  0.973100  0.234500  1
  C  C593  1  0.921900  0.496400  0.705700  1
  C  C594  1  0.578100  0.996400  0.794300  1
  C  C595  1  0.078100  0.503600  0.294300  1
  C  C596  1  0.421900  0.003600  0.205700  1
  C  C597  1  0.958300  0.395500  0.573300  1
  C  C598  1  0.541700  0.895500  0.926700  1
  C  C599  1  0.041700  0.604500  0.426700  1
  C  C600  1  0.458300  0.104500  0.073300  1
  C  C601  1  0.972600  0.359000  0.560100  1
  C  C602  1  0.527400  0.859000  0.939900  1
  C  C603  1  0.027400  0.641000  0.439900  1
  C  C604  1  0.472600  0.141000  0.060100  1
  C  C605  1  0.998800  0.272600  0.558300  1
  C  C606  1  0.501200  0.772600  0.941700  1
  C  C607  1  0.001200  0.727400  0.441700  1
  C  C608  1  0.498800  0.227400  0.058300  1
  C  C609  1  0.993100  0.316800  0.540800  1
  C  C610  1  0.506900  0.816800  0.959200  1
  C  C611  1  0.006900  0.683200  0.459200  1
  C  C612  1  0.493100  0.183200  0.040800  1
  C  C613  1  0.006100  0.318600  0.505300  1
  C  C614  1  0.493900  0.818600  0.994700  1
  C  C615  1  0.993900  0.681400  0.494700  1
  C  C616  1  0.506100  0.181400  0.005300  1
  C  C617  1  0.026600  0.278300  0.487900  1
  C  C618  1  0.473400  0.778300  0.012100  1
  C  C619  1  0.973400  0.721700  0.512100  1
  C  C620  1  0.526600  0.221700  0.987900  1
  C  C621  1  0.034000  0.235500  0.507200  1
  C  C622  1  0.466000  0.735500  0.992800  1
  C  C623  1  0.966000  0.764500  0.492800  1
  C  C624  1  0.534000  0.264500  0.007200  1
  C  C625  1  0.906600  0.510000  0.769300  1
  C  C626  1  0.593400  0.010000  0.730700  1
  C  C627  1  0.093400  0.490000  0.230700  1
  C  C628  1  0.406600  0.990000  0.269300  1
  C  C629  1  0.903700  0.498400  0.800400  1
  C  C630  1  0.596300  0.998400  0.699600  1
  C  C631  1  0.096300  0.501600  0.199600  1
  C  C632  1  0.403700  0.001600  0.300400  1
  C  C633  1  0.920800  0.445200  0.854500  1
  C  C634  1  0.579200  0.945200  0.645500  1
  C  C635  1  0.079200  0.554800  0.145500  1
  C  C636  1  0.420800  0.054800  0.354500  1
  C  C637  1  0.897600  0.489000  0.838410  1
  C  C638  1  0.602400  0.989000  0.661590  1
  C  C639  1  0.102400  0.511000  0.161590  1
  C  C640  1  0.397600  0.011000  0.338410  1
  C  C641  1  0.878600  0.526700  0.860300  1
  C  C642  1  0.621400  0.026700  0.639700  1
  C  C643  1  0.121400  0.473300  0.139700  1
  C  C644  1  0.378600  0.973300  0.360300  1
  C  C645  1  0.879900  0.519200  0.897300  1
  C  C646  1  0.620100  0.019200  0.602700  1
  C  C647  1  0.120100  0.480800  0.102700  1
  C  C648  1  0.379900  0.980800  0.397300  1
  C  C649  1  0.314800  0.147900  0.721000  1
  C  C650  1  0.185200  0.647900  0.779000  1
  C  C651  1  0.685200  0.852100  0.279000  1
  C  C652  1  0.814800  0.352100  0.221000  1
  C  C653  1  0.308800  0.096500  0.735800  1
  C  C654  1  0.191200  0.596500  0.764200  1
  C  C655  1  0.691200  0.903500  0.264200  1
  C  C656  1  0.808800  0.403500  0.235800  1
  C  C657  1  0.337400  0.978700  0.837700  1
  C  C658  1  0.162600  0.478700  0.662300  1
  C  C659  1  0.662600  0.021300  0.162300  1
  C  C660  1  0.837400  0.521300  0.337700  1
  C  C661  1  0.326700  0.031900  0.827200  1
  C  C662  1  0.173300  0.531900  0.672800  1
  C  C663  1  0.673300  0.968100  0.172800  1
  C  C664  1  0.826700  0.468100  0.327200  1
  C  C665  1  0.325100  0.037800  0.786200  1
  C  C666  1  0.174900  0.537800  0.713800  1
  C  C667  1  0.674900  0.962200  0.213800  1
  C  C668  1  0.825100  0.462200  0.286200  1
  C  C669  1  0.608900  0.175800  0.690700  1
  C  C670  1  0.891100  0.675800  0.809300  1
  C  C671  1  0.391100  0.824200  0.309300  1
  C  C672  1  0.108900  0.324200  0.190700  1
  C  C673  1  0.592600  0.156600  0.656200  1
  C  C674  1  0.907400  0.656600  0.843800  1
  C  C675  1  0.407400  0.843400  0.343800  1
  C  C676  1  0.092600  0.343400  0.156200  1
  C  C677  1  0.510400  0.135600  0.644500  1
  C  C678  1  0.989600  0.635600  0.855500  1
  C  C679  1  0.489600  0.864400  0.355500  1
  C  C680  1  0.010400  0.364400  0.144500  1
  C  C681  1  0.445300  0.136100  0.666667  1
  C  C682  1  0.054700  0.636100  0.833333  1
  C  C683  1  0.554700  0.863900  0.333333  1
  C  C684  1  0.945300  0.363900  0.166667  1
  C  C685  1  0.461000  0.157500  0.699800  1
  C  C686  1  0.039000  0.657500  0.800200  1
  C  C687  1  0.539000  0.842500  0.300200  1
  C  C688  1  0.961000  0.342500  0.199800  1
  C  C689  1  0.542700  0.178100  0.713200  1
  C  C690  1  0.957300  0.678100  0.786800  1
  C  C691  1  0.457300  0.821900  0.286800  1
  C  C692  1  0.042700  0.321900  0.213200  1
  C  C693  1  0.536200  0.197700  0.747300  1
  C  C694  1  0.963800  0.697700  0.752700  1
  C  C695  1  0.463800  0.802300  0.252700  1
  C  C696  1  0.036200  0.302300  0.247300  1
  C  C697  1  0.449400  0.188300  0.754900  1
  C  C698  1  0.050600  0.688300  0.745100  1
  C  C699  1  0.550600  0.811700  0.245100  1
  C  C700  1  0.949400  0.311700  0.254900  1
  C  C701  1  0.421000  0.203100  0.785600  1
  C  C702  1  0.079000  0.703100  0.714400  1
  C  C703  1  0.579000  0.796900  0.214400  1
  C  C704  1  0.921000  0.296900  0.285600  1
  C  C705  1  0.476900  0.227800  0.811300  1
  C  C706  1  0.023100  0.727800  0.688700  1
  C  C707  1  0.523100  0.772200  0.188700  1
  C  C708  1  0.976900  0.272200  0.311300  1
  C  C709  1  0.564100  0.236800  0.805700  1
  C  C710  1  0.935900  0.736800  0.694300  1
  C  C711  1  0.435900  0.763200  0.194300  1
  C  C712  1  0.064100  0.263200  0.305700  1
  C  C713  1  0.592200  0.222500  0.774300  1
  C  C714  1  0.907800  0.722500  0.725700  1
  C  C715  1  0.407800  0.777500  0.225700  1
  C  C716  1  0.092200  0.277500  0.274300  1
  C  C717  1  0.657600  0.155600  0.632300  1
  C  C718  1  0.842400  0.655600  0.867700  1
  C  C719  1  0.342400  0.844400  0.367700  1
  C  C720  1  0.157600  0.344400  0.132300  1
  C  C721  1  0.706000  0.155600  0.609900  1
  C  C722  1  0.794000  0.655600  0.890100  1
  C  C723  1  0.294000  0.844400  0.390100  1
  C  C724  1  0.206000  0.344400  0.109900  1
  C  C725  1  0.846600  0.161200  0.585900  1
  C  C726  1  0.653400  0.661200  0.914100  1
  C  C727  1  0.153400  0.838800  0.414100  1
  C  C728  1  0.346600  0.338800  0.085900  1
  C  C729  1  0.759700  0.155000  0.580800  1
  C  C730  1  0.740300  0.655000  0.919200  1
  C  C731  1  0.240300  0.845000  0.419200  1
  C  C732  1  0.259700  0.345000  0.080800  1
  C  C733  1  0.716700  0.149400  0.545600  1
  C  C734  1  0.783300  0.649400  0.954400  1
  C  C735  1  0.283300  0.850600  0.454400  1
  C  C736  1  0.216700  0.350600  0.045600  1
  C  C737  1  0.765600  0.151300  0.517100  1
  C  C738  1  0.734400  0.651300  0.982900  1
  C  C739  1  0.234400  0.848700  0.482900  1
  C  C740  1  0.265600  0.348700  0.017100  1
  C  C741  1  0.852100  0.157600  0.525300  1
  C  C742  1  0.647900  0.657600  0.974700  1
  C  C743  1  0.147900  0.842400  0.474700  1
  C  C744  1  0.352100  0.342400  0.025300  1
  C  C745  1  0.619300  0.262400  0.832300  1
  C  C746  1  0.880700  0.762400  0.667700  1
  C  C747  1  0.380700  0.737600  0.167700  1
  C  C748  1  0.119300  0.237600  0.332300  1
  C  C749  1  0.661700  0.285100  0.856500  1
  C  C750  1  0.838300  0.785100  0.643500  1
  C  C751  1  0.338300  0.714900  0.143500  1
  C  C752  1  0.161700  0.214900  0.356500  1
  C  C753  1  0.792700  0.327100  0.886600  1
  C  C754  1  0.707300  0.827100  0.613400  1
  C  C755  1  0.207300  0.672900  0.113400  1
  C  C756  1  0.292700  0.172900  0.386600  1
  C  C757  1  0.705300  0.314100  0.884500  1
  C  C758  1  0.794700  0.814100  0.615500  1
  C  C759  1  0.294700  0.685900  0.115500  1
  C  C760  1  0.205300  0.185900  0.384500  1
  C  C761  1  0.661000  0.331200  0.912700  1
  C  C762  1  0.839000  0.831200  0.587300  1
  C  C763  1  0.339000  0.668800  0.087300  1
  C  C764  1  0.161000  0.168800  0.412700  1
  C  C765  1  0.705300  0.357500  0.938500  1
  C  C766  1  0.794700  0.857500  0.561500  1
  C  C767  1  0.294700  0.642500  0.061500  1
  C  C768  1  0.205300  0.142500  0.438500  1
  C  C769  1  0.790000  0.370000  0.938800  1
  C  C770  1  0.710000  0.870000  0.561200  1
  C  C771  1  0.210000  0.630000  0.061200  1
  C  C772  1  0.290000  0.130000  0.438800  1
  C  C773  1  0.327500  0.088800  0.774500  1
  C  C774  1  0.172500  0.588800  0.725500  1
  C  C775  1  0.672500  0.911200  0.225500  1
  C  C776  1  0.827500  0.411200  0.274500  1
  C  C777  1  0.268500  0.880900  0.920900  1
  C  C778  1  0.231500  0.380900  0.579100  1
  C  C779  1  0.731500  0.119100  0.079100  1
  C  C780  1  0.768500  0.619100  0.420900  1
  C  C781  1  0.194500  0.913500  0.906500  1
  C  C782  1  0.305500  0.413500  0.593500  1
  C  C783  1  0.805500  0.086500  0.093500  1
  C  C784  1  0.694500  0.586500  0.406500  1
  C  C785  1  0.136600  0.891700  0.875100  1
  C  C786  1  0.363400  0.391700  0.624900  1
  C  C787  1  0.863400  0.108300  0.124900  1
  C  C788  1  0.636600  0.608300  0.375100  1
  C  C789  1  0.012600  0.313700  0.975500  1
  C  C790  1  0.487400  0.813700  0.524500  1
  C  C791  1  0.987400  0.686300  0.024500  1
  C  C792  1  0.512600  0.186300  0.475500  1
  C  C793  1  0.064400  0.049100  0.637750  1
  C  C794  1  0.435600  0.549100  0.862250  1
  C  C795  1  0.935600  0.950900  0.362250  1
  C  C796  1  0.564400  0.450900  0.137750  1
  C  C797  1  0.062500  0.011600  0.613900  1
  C  C798  1  0.437500  0.511600  0.886100  1
  C  C799  1  0.937500  0.988400  0.386100  1
  C  C800  1  0.562500  0.488400  0.113900  1
  C  C801  1  0.050000  0.020200  0.577200  1
  C  C802  1  0.450000  0.520200  0.922800  1
  C  C803  1  0.950000  0.979800  0.422800  1
  C  C804  1  0.550000  0.479800  0.077200  1
  C  C805  1  0.036700  0.065900  0.565540  1
  C  C806  1  0.463300  0.565900  0.934460  1
  C  C807  1  0.963300  0.934100  0.434460  1
  C  C808  1  0.536700  0.434100  0.065540  1
  C  C809  1  0.060600  0.150000  0.906100  1
  C  C810  1  0.439400  0.650000  0.593900  1
  C  C811  1  0.939400  0.850000  0.093900  1
  C  C812  1  0.560600  0.350000  0.406100  1
  C  C813  1  0.051300  0.186500  0.921100  1
  C  C814  1  0.448700  0.686500  0.578900  1
  C  C815  1  0.948700  0.813500  0.078900  1
  C  C816  1  0.551300  0.313500  0.421100  1
  C  C817  1  0.013300  0.273500  0.921000  1
  C  C818  1  0.486700  0.773500  0.579000  1
  C  C819  1  0.986700  0.726500  0.079000  1
  C  C820  1  0.513300  0.226500  0.421000  1
  C  C821  1  0.076400  0.026500  0.807500  1
  C  C822  1  0.423600  0.526500  0.692500  1
  C  C823  1  0.923600  0.973500  0.192500  1
  C  C824  1  0.576400  0.473500  0.307500  1
  C  C825  1  0.073200  0.047500  0.843200  1
  C  C826  1  0.426800  0.547500  0.656800  1
  C  C827  1  0.926800  0.952500  0.156800  1
  C  C828  1  0.573200  0.452500  0.343200  1
  C  C829  1  0.069200  0.010100  0.867900  1
  C  C830  1  0.430800  0.510100  0.632100  1
  C  C831  1  0.930800  0.989900  0.132100  1
  C  C832  1  0.569200  0.489900  0.367900  1
  C  C833  1  0.062900  0.017300  0.904400  1
  C  C834  1  0.437100  0.517300  0.595600  1
  C  C835  1  0.937100  0.982700  0.095600  1
  C  C836  1  0.562900  0.482700  0.404400  1
  C  C837  1  0.060300  0.063900  0.916000  1
  C  C838  1  0.439700  0.563900  0.584000  1
  C  C839  1  0.939700  0.936100  0.084000  1
  C  C840  1  0.560300  0.436100  0.416000  1
  C  C841  1  0.063300  0.102000  0.891600  1
  C  C842  1  0.436700  0.602000  0.608400  1
  C  C843  1  0.936700  0.898000  0.108400  1
  C  C844  1  0.563300  0.398000  0.391600  1
  C  C845  1  0.066500  0.093900  0.855100  1
  C  C846  1  0.433500  0.593900  0.644900  1
  C  C847  1  0.933500  0.906100  0.144900  1
  C  C848  1  0.566500  0.406100  0.355100  1
  C  C849  1  0.079700  0.029800  0.708000  1
  C  C850  1  0.420300  0.529800  0.792000  1
  C  C851  1  0.920300  0.970200  0.292000  1
  C  C852  1  0.579700  0.470200  0.208000  1
  C  C853  1  0.071600  0.040900  0.675700  1
  C  C854  1  0.428400  0.540900  0.824300  1
  C  C855  1  0.928400  0.959100  0.324300  1
  C  C856  1  0.571600  0.459100  0.175700  1
  C  C857  1  0.050600  0.095200  0.623100  1
  C  C858  1  0.449400  0.595200  0.876900  1
  C  C859  1  0.949400  0.904800  0.376900  1
  C  C860  1  0.550600  0.404800  0.123100  1
  C  C861  1  0.052800  0.918300  0.864800  1
  C  C862  1  0.447200  0.418300  0.635200  1
  C  C863  1  0.947200  0.081700  0.135200  1
  C  C864  1  0.552800  0.581700  0.364800  1
  C  C865  1  0.076300  0.044500  0.773600  1
  C  C866  1  0.423700  0.544500  0.726400  1
  C  C867  1  0.923700  0.955500  0.226400  1
  C  C868  1  0.576300  0.455500  0.273600  1
  C  C869  1  0.078400  0.013700  0.744300  1
  C  C870  1  0.421600  0.513700  0.755700  1
  C  C871  1  0.921600  0.986300  0.255700  1
  C  C872  1  0.578400  0.486300  0.244300  1
  C  C873  1  0.079500  0.964700  0.750600  1
  C  C874  1  0.420500  0.464700  0.749400  1
  C  C875  1  0.920500  0.035300  0.249400  1
  C  C876  1  0.579500  0.535300  0.250600  1
  C  C877  1  0.077100  0.945200  0.784100  1
  C  C878  1  0.422900  0.445200  0.715900  1
  C  C879  1  0.922900  0.054800  0.215900  1
  C  C880  1  0.577100  0.554800  0.284100  1
  C  C881  1  0.073400  0.977400  0.812200  1
  C  C882  1  0.426600  0.477400  0.687800  1
  C  C883  1  0.926600  0.022600  0.187800  1
  C  C884  1  0.573400  0.522600  0.312200  1
  C  C885  1  0.038800  0.231200  0.939100  1
  C  C886  1  0.461200  0.731200  0.560900  1
  C  C887  1  0.961200  0.768800  0.060900  1
  C  C888  1  0.538800  0.268800  0.439100  1
  C  C889  1  0.051100  0.231000  0.976600  1
  C  C890  1  0.448900  0.731000  0.523400  1
  C  C891  1  0.948900  0.769000  0.023400  1
  C  C892  1  0.551100  0.269000  0.476600  1
  C  C893  1  0.038600  0.272700  0.995100  1
  C  C894  1  0.461400  0.772700  0.504900  1
  C  C895  1  0.961400  0.727300  0.004900  1
  C  C896  1  0.538600  0.227300  0.495100  1
  N  N897  1  0.595100  0.352100  0.762100  1
  N  N898  1  0.904900  0.852100  0.737900  1
  N  N899  1  0.404900  0.647900  0.237900  1
  N  N900  1  0.095100  0.147900  0.262100  1
  N  N901  1  0.160100  0.173500  0.571430  1
  N  N902  1  0.339900  0.673500  0.928570  1
  N  N903  1  0.839900  0.826500  0.428570  1
  N  N904  1  0.660100  0.326500  0.071430  1
  N  N905  1  0.084600  0.397900  0.916330  1
  N  N906  1  0.415400  0.897900  0.583670  1
  N  N907  1  0.915400  0.602100  0.083670  1
  N  N908  1  0.584600  0.102100  0.416330  1
  N  N909  1  0.921600  0.437600  0.890780  1
  N  N910  1  0.578400  0.937600  0.609220  1
  N  N911  1  0.078400  0.562400  0.109220  1
  N  N912  1  0.421600  0.062400  0.390780  1
  N  N913  1  0.019400  0.233100  0.541610  1
  N  N914  1  0.480600  0.733100  0.958390  1
  N  N915  1  0.980600  0.766900  0.458390  1
  N  N916  1  0.519400  0.266900  0.041610  1
  N  N917  1  0.934100  0.576200  0.631500  1
  N  N918  1  0.565900  0.076200  0.868500  1
  N  N919  1  0.065900  0.423800  0.368500  1
  N  N920  1  0.434100  0.923800  0.131500  1
  N  N921  1  0.833600  0.354100  0.912010  1
  N  N922  1  0.666400  0.854100  0.587990  1
  N  N923  1  0.166400  0.645900  0.087990  1
  N  N924  1  0.333600  0.145900  0.412010  1
  N  N925  1  0.404200  0.164900  0.724900  1
  N  N926  1  0.095800  0.664900  0.775100  1
  N  N927  1  0.595800  0.835100  0.275100  1
  N  N928  1  0.904200  0.335100  0.224900  1
  N  N929  1  0.895500  0.162900  0.558200  1
  N  N930  1  0.604500  0.662900  0.941800  1
  N  N931  1  0.104500  0.837100  0.441800  1
  N  N932  1  0.395500  0.337100  0.058200  1
  N  N933  1  0.038400  0.103100  0.587940  1
  N  N934  1  0.461600  0.603100  0.912060  1
  N  N935  1  0.961600  0.896900  0.412060  1
  N  N936  1  0.538400  0.396900  0.087940  1
  N  N937  1  0.999500  0.313800  0.938570  1
  N  N938  1  0.500500  0.813800  0.561430  1
  N  N939  1  0.000500  0.686200  0.061430  1
  N  N940  1  0.499500  0.186200  0.438570  1
  N  N941  1  0.069500  0.966900  0.848500  1
  N  N942  1  0.430500  0.466900  0.651500  1
  N  N943  1  0.930500  0.033100  0.151500  1
  N  N944  1  0.569500  0.533100  0.348500  1
  F  F945  1  0.070400  0.444200  0.024000  1
  F  F946  1  0.429600  0.944200  0.476000  1
  F  F947  1  0.929600  0.555800  0.976000  1
  F  F948  1  0.570400  0.055800  0.524000  1
  F  F949  1  0.994800  0.386400  0.045100  1
  F  F950  1  0.505200  0.886400  0.454900  1
  F  F951  1  0.005200  0.613600  0.954900  1
  F  F952  1  0.494800  0.113600  0.545100  1
  F  F953  1  0.944300  0.461300  0.045070  1
  F  F954  1  0.555700  0.961300  0.454930  1
  F  F955  1  0.055700  0.538700  0.954930  1
  F  F956  1  0.444300  0.038700  0.545070  1
  F  F957  1  0.942600  0.421180  0.992630  1
  F  F958  1  0.557400  0.921180  0.507370  1
  F  F959  1  0.057400  0.578820  0.007370  1
  F  F960  1  0.442600  0.078820  0.492630  1
  F  F961  1  0.971000  0.316800  0.842900  1
  F  F962  1  0.529000  0.816800  0.657100  1
  F  F963  1  0.029000  0.683200  0.157100  1
  F  F964  1  0.471000  0.183200  0.342900  1
  F  F965  1  0.022800  0.364600  0.805200  1
  F  F966  1  0.477200  0.864600  0.694800  1
  F  F967  1  0.977200  0.635400  0.194800  1
  F  F968  1  0.522800  0.135400  0.305200  1
  F  F969  1  0.878800  0.351500  0.800800  1
  F  F970  1  0.621200  0.851500  0.699200  1
  F  F971  1  0.121200  0.648500  0.199200  1
  F  F972  1  0.378800  0.148500  0.300800  1
  F  F973  1  0.967100  0.294600  0.785000  1
  F  F974  1  0.532900  0.794600  0.715000  1
  F  F975  1  0.032900  0.705400  0.215000  1
  F  F976  1  0.467100  0.205400  0.285000  1
  F  F977  1  0.029400  0.245200  0.694800  1
  F  F978  1  0.470600  0.745200  0.805200  1
  F  F979  1  0.970600  0.754800  0.305200  1
  F  F980  1  0.529400  0.254800  0.194800  1
  F  F981  1  0.969900  0.175200  0.676400  1
  F  F982  1  0.530100  0.675200  0.823600  1
  F  F983  1  0.030100  0.824800  0.323600  1
  F  F984  1  0.469900  0.324800  0.176400  1
  F  F985  1  0.021200  0.220700  0.636800  1
  F  F986  1  0.478800  0.720700  0.863200  1
  F  F987  1  0.978800  0.779300  0.363200  1
  F  F988  1  0.521200  0.279300  0.136800  1
  F  F989  1  0.114400  0.186800  0.680400  1
  F  F990  1  0.385600  0.686800  0.819600  1
  F  F991  1  0.885600  0.813200  0.319600  1
  F  F992  1  0.614400  0.313200  0.180400  1
  F  F993  1  0.989800  0.914260  0.569460  1
  F  F994  1  0.510200  0.414260  0.930540  1
  F  F995  1  0.010200  0.085740  0.430540  1
  F  F996  1  0.489800  0.585740  0.069460  1
  F  F997  1  0.066800  0.854200  0.552200  1
  F  F998  1  0.433200  0.354200  0.947800  1
  F  F999  1  0.933200  0.145800  0.447800  1
  F  F1000  1  0.566800  0.645800  0.052200  1
  F  F1001  1  0.953700  0.877300  0.515160  1
  F  F1002  1  0.546300  0.377300  0.984840  1
  F  F1003  1  0.046300  0.122700  0.484840  1
  F  F1004  1  0.453700  0.622700  0.015160  1
  F  F1005  1  0.068600  0.924700  0.523170  1
  F  F1006  1  0.431400  0.424700  0.976830  1
  F  F1007  1  0.931400  0.075300  0.476830  1
  F  F1008  1  0.568600  0.575300  0.023170  1
