
#######################################################################
#
#                 Cambridge Crystallographic Data Centre
#                                CCDC 
#
#######################################################################
#
# If this CIF has been generated from an entry in the Cambridge 
# Structural Database, then it will include bibliographic, chemical, 
# crystal, experimental, refinement or atomic coordinate data resulting 
# from the CCDC's data processing and validation procedures.
#
#######################################################################

data_ZOXLUV
_chemical_formula_moiety         
'C288 H168 N24 O48 Pd6 12+,10(C2 H6 O1 S1),12(N1 O3 1-),11(H2 O1)'
_chemical_name_systematic        
'octakis(\m~3~-tris(Quinolin-6-yl) benzene-1,3,5-tricarboxylato)-hexa-palladium dodecanitrate dimethylsulfoxide solvate undecahydrate'
_symmetry_cell_setting           rhombohedral
_symmetry_space_group_name_H-M   'R -3'
_symmetry_Int_Tables_number      148
_space_group_name_Hall           '-R 3'
loop_
_symmetry_equiv_pos_site_id
_symmetry_equiv_pos_as_xyz
1 x,y,z
2 -y,x-y,z
3 -x+y,-x,z
4 2/3+x,1/3+y,1/3+z
5 2/3-y,1/3+x-y,1/3+z
6 2/3-x+y,1/3-x,1/3+z
7 1/3+x,2/3+y,2/3+z
8 1/3-y,2/3+x-y,2/3+z
9 1/3-x+y,2/3-x,2/3+z
10 -x,-y,-z
11 y,-x+y,-z
12 x-y,x,-z
13 1/3-x,2/3-y,2/3-z
14 1/3+y,2/3-x+y,2/3-z
15 1/3+x-y,2/3+x,2/3-z
16 2/3-x,1/3-y,1/3-z
17 2/3+y,1/3-x+y,1/3-z
18 2/3+x-y,1/3+x,1/3-z
_cell_length_a                   28.3724(11)
_cell_length_b                   28.3724(11)
_cell_length_c                   59.4801(18)
_cell_angle_alpha                90
_cell_angle_beta                 90
_cell_angle_gamma                120
_cell_volume                     41466.2
_exptl_crystal_colour            yellow
_exptl_crystal_description       block
_cell_formula_units_Z            3
loop_
_atom_site_label
_atom_site_type_symbol
_atom_site_fract_x
_atom_site_fract_y
_atom_site_fract_z
S1 S 1.15657(7) 0.83160(7) 0.00186(3)
O9 O 1.12274(14) 0.78675(14) -0.01382(6)
C49 C 1.1846(3) 0.8083(3) 0.02024(12)
H29 H 1.1562 0.7810 0.0300
H30 H 1.2114 0.8385 0.0295
H31 H 1.2027 0.7917 0.0121
C50 C 1.2109(4) 0.8793(3) -0.01122(19)
H32 H 1.1996 0.8968 -0.0226
H33 H 1.2302 0.8629 -0.0185
H34 H 1.2350 0.9066 -0.0003
Pd1 Pd 0.685259(14) 0.661760(14) 0.044931(6)
O1 O 0.44744(13) 0.64477(14) 0.00384(6)
O2 O 0.48385(15) 0.73478(16) 0.00078(8)
O3 O 0.56680(15) 1.01613(21) 0.07939(6)
O4 O 0.5664(2) 1.04739(26) 0.11380(8)
O5 O 0.67404(23) 1.02109(17) 0.17146(6)
O6 O 0.70416(26) 0.9643(2) 0.16728(7)
O7 O 0.68764(18) 0.88642(16) 0.09175(7)
O8 O 0.6406(2) 0.89772(19) 0.06467(7)
N1 N 0.64782(16) 0.65696(17) 0.01492(6)
N2 N 0.42101(17) 1.07271(25) 0.04444(6)
N3 N 0.73197(23) 1.06529(16) 0.26166(6)
N4 N 0.72800(15) 0.74481(14) 0.04267(7)
C1 C 0.6745(2) 0.6550(3) -0.00299(9)
H1 H 0.7080 0.6558 -0.0009
C2 C 0.6540(3) 0.6518(3) -0.02581(10)
H2 H 0.6739 0.6507 -0.0384
C3 C 0.6070(3) 0.6506(4) -0.02850(10)
H3 H 0.5935 0.6491 -0.0432
C4 C 0.5772(2) 0.6513(2) -0.00998(9)
C5 C 0.5265(2) 0.6485(2) -0.01289(9)
H4 H 0.5110 0.6447 -0.0274
C6 C 0.50025(19) 0.6515(2) 0.00600(9)
C7 C 0.52118(19) 0.6573(2) 0.02763(9)
H5 H 0.5022 0.6605 0.0402
C8 C 0.57066(17) 0.65850(18) 0.03057(8)
H6 H 0.5852 0.6613 0.0452
C9 C 0.59817(18) 0.6555(2) 0.01186(8)
C10 C 0.4450(2) 0.6899(2) 0.00137(10)
C11 C 0.38562(17) 0.6761(2) 0.00049(9)
C12 C 0.34168(18) 0.62224(18) -0.00003(8)
H7 H 0.3478 0.5923 -0.0007
C13 C 0.4397(3) 1.1186(4) 0.03479(12)
H8 H 0.4141 1.1280 0.0292
C14 C 0.4938(2) 1.1557(4) 0.03185(14)
H9 H 0.5046 1.1879 0.0233
C15 C 0.5314(2) 1.1462(4) 0.04112(14)
H10 H 0.5690 1.1724 0.0401
C16 C 0.5138(2) 1.0967(3) 0.05239(9)
C17 C 0.5508(2) 1.0827(3) 0.06237(10)
H11 H 0.5888 1.1077 0.0624
C18 C 0.5307(2) 1.0331(3) 0.07182(9)
C19 C 0.4758(2) 0.9967(3) 0.07396(9)
H12 H 0.4633 0.9632 0.0817
C20 C 0.4393(2) 1.00987(28) 0.06467(8)
H13 H 0.4014 0.9848 0.0656
C21 C 0.4579(2) 1.06047(28) 0.05377(8)
C22 C 0.5793(3) 1.0242(4) 0.10110(11)
C23 C 0.7739(4) 1.1097(2) 0.26713(9)
H14 H 0.7822 1.1168 0.2826
C24 C 0.8076(5) 1.1478(3) 0.25210(12)
H15 H 0.8385 1.1800 0.2574
C25 C 0.7979(6) 1.1407(3) 0.22973(13)
H16 H 0.8220 1.1667 0.2191
C26 C 0.7494(4) 1.0919(3) 0.22260(9)
C27 C 0.7361(4) 1.0785(3) 0.19958(9)
H17 H 0.7584 1.1026 0.1881
C28 C 0.6910(3) 1.0308(2) 0.19424(8)
C29 C 0.6624(3) 0.9940(2) 0.20991(8)
H18 H 0.6322 0.9601 0.2055
C30 C 0.67564(26) 1.00401(18) 0.23266(7)
H19 H 0.6550 0.9771 0.2436
C31 C 0.7190(3) 1.0532(2) 0.23910(8)
C32 C 0.6809(3) 0.9862(2) 0.16026(10)
C33 C 0.7662(3) 0.7628(2) 0.02758(11)
H20 H 0.7713 0.7375 0.0189
C34 C 0.8006(3) 0.8193(3) 0.02376(13)
H21 H 0.8295 0.8321 0.0132
C35 C 0.7913(3) 0.8542(3) 0.03537(14)
H22 H 0.8129 0.8921 0.0325
C36 C 0.7511(3) 0.8364(3) 0.05136(11)
C37 C 0.7392(3) 0.8724(2) 0.06399(10)
H23 H 0.7608 0.9107 0.0622
C38 C 0.6970(3) 0.8510(3) 0.07829(10)
C39 C 0.6619(2) 0.7956(2) 0.08059(9)
H24 H 0.6318 0.7818 0.0906
C40 C 0.67206(19) 0.7615(2) 0.06784(8)
H25 H 0.6471 0.7235 0.0685
C41 C 0.7167(2) 0.7798(2) 0.05412(8)
C42 C 0.6585(3) 0.9057(2) 0.08364(9)
C43 C 0.6507(2) 0.9416(2) 0.10022(9)
C44 C 0.6692(2) 0.9483(2) 0.12205(10)
H26 H 0.6893 0.9317 0.1269
C45 C 0.6586(2) 0.9790(2) 0.13668(8)
C46 C 0.6309(2) 1.0040(2) 0.12978(9)
H27 H 0.6247 1.0262 0.1399
C47 C 0.6115(2) 0.9968(2) 0.10774(9)
C48 C 0.6222(2) 0.9661(2) 0.09320(8)
H28 H 0.6097 0.9617 0.0781
O1A O 0.35523(14) 0.80267(19) 0.00384(6)
O2A O 0.26522(16) 0.74907(22) 0.00078(8)
N1A N 0.34304(17) 0.99086(23) 0.01492(6)
C1A C 0.3450(3) 1.0195(4) -0.00299(9)
H1A H 0.3442 1.0522 -0.0009
C2A C 0.3482(3) 1.0022(4) -0.02581(10)
H2A H 0.3493 1.0232 -0.0384
C3A C 0.3494(4) 0.9564(5) -0.02850(10)
H3A H 0.3509 0.9444 -0.0432
C4A C 0.3487(2) 0.9259(3) -0.00998(9)
C5A C 0.3515(2) 0.8780(3) -0.01289(9)
H4A H 0.3553 0.8663 -0.0274
C6A C 0.3485(2) 0.84875(28) 0.00600(9)
C7A C 0.3427(2) 0.86388(28) 0.02763(9)
H5A H 0.3395 0.8417 0.0402
C8A C 0.34150(18) 0.91216(25) 0.03057(8)
H6A H 0.3387 0.9239 0.0452
C9A C 0.3445(2) 0.94267(27) 0.01186(8)
C10A C 0.3101(2) 0.7551(3) 0.00137(10)
C11A C 0.3239(2) 0.70952(26) 0.00049(9)
C12A C 0.37776(18) 0.71944(25) -0.00003(8)
H7A H 0.4077 0.7555 -0.0007
O1B O 0.19733(19) 0.55256(13) 0.00384(6)
O2B O 0.25093(22) 0.51615(15) 0.00078(8)
N1B N 0.00914(23) 0.35218(16) 0.01492(6)
C1B C -0.0195(4) 0.3255(2) -0.00299(9)
H1B H -0.0522 0.2920 -0.0009
C2B C -0.0022(4) 0.3460(3) -0.02581(10)
H2B H -0.0232 0.3261 -0.0384
C3B C 0.0436(5) 0.3930(3) -0.02850(10)
H3B H 0.0556 0.4065 -0.0432
C4B C 0.0741(3) 0.4228(2) -0.00998(9)
C5B C 0.1220(3) 0.4735(2) -0.01289(9)
H4B H 0.1337 0.4890 -0.0274
C6B C 0.15125(28) 0.49975(19) 0.00600(9)
C7B C 0.13612(28) 0.47882(19) 0.02763(9)
H5B H 0.1583 0.4978 0.0402
C8B C 0.08784(25) 0.42934(17) 0.03057(8)
H6B H 0.0761 0.4148 0.0452
C9B C 0.05733(27) 0.40183(18) 0.01186(8)
C10B C 0.2449(3) 0.5550(2) 0.00137(10)
C11B C 0.29048(26) 0.61438(17) 0.00049(9)
C12B C 0.28056(25) 0.65832(18) -0.00003(8)
H7B H 0.2445 0.6522 -0.0007
Pd1A Pd 0.338240(14) 1.023499(20) 0.044931(6)
O3A O -0.01613(21) 0.55067(26) 0.07939(6)
O4A O -0.04739(26) 0.51901(33) 0.11380(8)
O5A O -0.02109(17) 0.65295(29) 0.17146(6)
O6A O 0.0357(2) 0.73986(33) 0.16728(7)
O7A O 0.11358(16) 0.80122(24) 0.09175(7)
O8A O 0.10228(19) 0.74288(28) 0.06467(7)
N2A N -0.07271(25) 0.34830(30) 0.04444(6)
N3A N -0.06529(16) 0.66668(28) 0.26166(6)
N4A N 0.25519(14) 0.98319(21) 0.04267(7)
C13A C -0.1186(4) 0.3211(5) 0.03479(12)
H8A H -0.1280 0.2861 0.0292
C14A C -0.1557(4) 0.3381(4) 0.03185(14)
H9A H -0.1879 0.3167 0.0233
C15A C -0.1462(4) 0.3852(4) 0.04112(14)
H10A H -0.1724 0.3966 0.0401
C16A C -0.0967(3) 0.4171(4) 0.05239(9)
C17A C -0.0827(3) 0.4681(4) 0.06237(10)
H11A H -0.1077 0.4811 0.0624
C18A C -0.0331(3) 0.4976(4) 0.07182(9)
C19A C 0.0033(3) 0.4791(4) 0.07396(9)
H12A H 0.0368 0.5001 0.0817
C20A C -0.00987(28) 0.42943(34) 0.06467(8)
H13A H 0.0152 0.4166 0.0656
C21A C -0.06047(28) 0.39743(34) 0.05377(8)
C22A C -0.0242(4) 0.5551(5) 0.10110(11)
C23A C -0.1097(2) 0.6642(4) 0.26713(9)
H14A H -0.1168 0.6654 0.2826
C24A C -0.1478(3) 0.6598(6) 0.25210(12)
H15A H -0.1800 0.6585 0.2574
C25A C -0.1407(3) 0.6572(7) 0.22973(13)
H16A H -0.1667 0.6553 0.2191
C26A C -0.0919(3) 0.6575(5) 0.22260(9)
C27A C -0.0785(3) 0.6576(5) 0.19958(9)
H17A H -0.1026 0.6558 0.1881
C28A C -0.0308(2) 0.6602(4) 0.19424(8)
C29A C 0.0060(2) 0.6684(4) 0.20991(8)
H18A H 0.0399 0.6721 0.2055
C30A C -0.00401(18) 0.67163(32) 0.23266(7)
H19A H 0.0229 0.6779 0.2436
C31A C -0.0532(2) 0.6658(4) 0.23910(8)
C32A C 0.0138(2) 0.6947(4) 0.16026(10)
C33A C 0.2372(2) 1.0034(4) 0.02758(11)
H20A H 0.2625 1.0338 0.0189
C34A C 0.1807(3) 0.9813(4) 0.02376(13)
H21A H 0.1679 0.9974 0.0132
C35A C 0.1458(3) 0.9371(4) 0.03537(14)
H22A H 0.1079 0.9208 0.0325
C36A C 0.1636(3) 0.9147(4) 0.05136(11)
C37A C 0.1276(2) 0.8668(4) 0.06399(10)
H23A H 0.0893 0.8501 0.0622
C38A C 0.1490(3) 0.8460(4) 0.07829(10)
C39A C 0.2044(2) 0.8663(3) 0.08059(9)
H24A H 0.2182 0.8500 0.0906
C40A C 0.2385(2) 0.91056(28) 0.06784(8)
H25A H 0.2765 0.9236 0.0685
C41A C 0.2202(2) 0.9369(3) 0.05412(8)
C42A C 0.0943(2) 0.7528(4) 0.08364(9)
C43A C 0.0584(2) 0.7091(3) 0.10022(9)
C44A C 0.0517(2) 0.7209(3) 0.12205(10)
H26A H 0.0683 0.7576 0.1269
C45A C 0.0210(2) 0.6796(3) 0.13668(8)
C46A C -0.0040(2) 0.6269(3) 0.12978(9)
H27A H -0.0262 0.5985 0.1399
C47A C 0.0032(2) 0.6147(3) 0.10774(9)
C48A C 0.0339(2) 0.6561(3) 0.09320(8)
H28A H 0.0383 0.6480 0.0781
Pd1B Pd -0.023499(20) 0.314741(14) 0.044931(6)
O3B O 0.44933(26) 0.43320(15) 0.07939(6)
O4B O 0.48099(33) 0.4336(2) 0.11380(8)
O5B O 0.34705(29) 0.32596(23) 0.17146(6)
O6B O 0.26014(33) 0.29584(26) 0.16728(7)
O7B O 0.19878(24) 0.31236(18) 0.09175(7)
O8B O 0.25712(28) 0.3594(2) 0.06467(7)
N2B N 0.65170(30) 0.57899(17) 0.04444(6)
N3B N 0.33332(28) 0.26803(23) 0.26166(6)
N4B N 0.01681(21) 0.27200(15) 0.04267(7)
C13B C 0.6789(5) 0.5603(3) 0.03479(12)
H8B H 0.7139 0.5859 0.0292
C14B C 0.6619(4) 0.5062(2) 0.03185(14)
H9B H 0.6833 0.4954 0.0233
C15B C 0.6148(4) 0.4686(2) 0.04112(14)
H10B H 0.6034 0.4310 0.0401
C16B C 0.5829(4) 0.4862(2) 0.05239(9)
C17B C 0.5319(4) 0.4492(2) 0.06237(10)
H11B H 0.5189 0.4112 0.0624
C18B C 0.5024(4) 0.4693(2) 0.07182(9)
C19B C 0.5209(4) 0.5242(2) 0.07396(9)
H12B H 0.4999 0.5367 0.0817
C20B C 0.57057(34) 0.5607(2) 0.06467(8)
H13B H 0.5834 0.5986 0.0656
C21B C 0.60257(34) 0.5421(2) 0.05377(8)
C22B C 0.4449(5) 0.4207(3) 0.10110(11)
C23B C 0.3358(4) 0.2261(4) 0.26713(9)
H14B H 0.3346 0.2178 0.2826
C24B C 0.3402(6) 0.1924(5) 0.25210(12)
H15B H 0.3415 0.1615 0.2574
C25B C 0.3428(7) 0.2021(6) 0.22973(13)
H16B H 0.3447 0.1780 0.2191
C26B C 0.3425(5) 0.2506(4) 0.22260(9)
C27B C 0.3424(5) 0.2639(4) 0.19958(9)
H17B H 0.3442 0.2416 0.1881
C28B C 0.3398(4) 0.3090(3) 0.19424(8)
C29B C 0.3316(4) 0.3376(3) 0.20991(8)
H18B H 0.3279 0.3678 0.2055
C30B C 0.32837(32) 0.32436(26) 0.23266(7)
H19B H 0.3221 0.3450 0.2436
C31B C 0.3342(4) 0.2810(3) 0.23910(8)
C32B C 0.3053(4) 0.3191(3) 0.16026(10)
C33B C -0.0034(4) 0.2338(3) 0.02758(11)
H20B H -0.0338 0.2287 0.0189
C34B C 0.0187(4) 0.1994(3) 0.02376(13)
H21B H 0.0026 0.1705 0.0132
C35B C 0.0629(4) 0.2087(3) 0.03537(14)
H22B H 0.0792 0.1871 0.0325
C36B C 0.0853(4) 0.2489(3) 0.05136(11)
C37B C 0.1332(4) 0.2608(3) 0.06399(10)
H23B H 0.1499 0.2392 0.0622
C38B C 0.1540(4) 0.3030(3) 0.07829(10)
C39B C 0.1337(3) 0.3381(2) 0.08059(9)
H24B H 0.1500 0.3682 0.0906
C40B C 0.08944(28) 0.32794(19) 0.06784(8)
H25B H 0.0764 0.3529 0.0685
C41B C 0.0631(3) 0.2833(2) 0.05412(8)
C42B C 0.2472(4) 0.3415(3) 0.08364(9)
C43B C 0.2909(3) 0.3493(2) 0.10022(9)
C44B C 0.2791(3) 0.3308(2) 0.12205(10)
H26B H 0.2424 0.3107 0.1269
C45B C 0.3204(3) 0.3414(2) 0.13668(8)
C46B C 0.3731(3) 0.3691(2) 0.12978(9)
H27B H 0.4015 0.3753 0.1399
C47B C 0.3853(3) 0.3885(2) 0.10774(9)
C48B C 0.3439(3) 0.3778(2) 0.09320(8)
H28B H 0.3520 0.3903 0.0781
Pd1O Pd -0.018592(14) 0.671573(14) 0.288402(6)
O1O O 0.21923(13) 0.68856(14) 0.32949(6)
O2O O 0.18282(15) 0.59855(16) 0.33255(8)
O3O O 0.09987(15) 0.31720(21) 0.25394(6)
O4O O 0.1003(2) 0.28594(26) 0.21953(8)
O5O O -0.00737(23) 0.31224(17) 0.16187(6)
O6O O -0.03749(26) 0.3690(2) 0.16605(7)
O7O O -0.02097(18) 0.44691(16) 0.24158(7)
O8O O 0.0261(2) 0.43561(19) 0.26866(7)
N1O N 0.01885(16) 0.67637(17) 0.31841(6)
N2O N 0.24566(17) 0.26062(25) 0.28889(6)
N3O N -0.06530(23) 0.26804(16) 0.07167(6)
N4O N -0.06133(15) 0.58852(14) 0.29066(7)
C1O C -0.0078(2) 0.6783(3) 0.33632(9)
H1O H -0.0413 0.6775 0.3342
C2O C 0.0127(3) 0.6815(3) 0.35914(10)
H2O H -0.0072 0.6826 0.3717
C3O C 0.0597(3) 0.6827(4) 0.36183(10)
H3O H 0.0732 0.6842 0.3765
C4O C 0.0895(2) 0.6820(2) 0.34331(9)
C5O C 0.1402(2) 0.6848(2) 0.34622(9)
H4O H 0.1557 0.6886 0.3607
C6O C 0.16642(19) 0.6818(2) 0.32733(9)
C7O C 0.14549(19) 0.6760(2) 0.30570(9)
H5O H 0.1645 0.6728 0.2931
C8O C 0.09601(17) 0.67483(18) 0.30276(8)
H6O H 0.0815 0.6720 0.2881
C9O C 0.06850(18) 0.6778(2) 0.32147(8)
C10O C 0.2217(2) 0.6434(2) 0.33196(10)
C11O C 0.28105(17) 0.6572(2) 0.33284(9)
C12O C 0.32499(18) 0.71109(18) 0.33336(8)
H7O H 0.3189 0.7410 0.3340
C13O C 0.2270(3) 0.2147(4) 0.29854(12)
H8O H 0.2526 0.2053 0.3041
C14O C 0.1729(2) 0.1776(4) 0.30148(14)
H9O H 0.1621 0.1454 0.3100
C15O C 0.1353(2) 0.1871(4) 0.29221(14)
H10O H 0.0977 0.1609 0.2932
C16O C 0.1529(2) 0.2366(3) 0.28094(9)
C17O C 0.1159(2) 0.2506(3) 0.27096(10)
H11O H 0.0779 0.2256 0.2709
C18O C 0.1360(2) 0.3002(3) 0.26151(9)
C19O C 0.1909(2) 0.3366(3) 0.25937(9)
H12O H 0.2034 0.3701 0.2516
C20O C 0.2274(2) 0.32346(28) 0.26866(8)
H13O H 0.2653 0.3485 0.2677
C21O C 0.2088(2) 0.27286(28) 0.27956(8)
C22O C 0.0874(3) 0.3091(4) 0.23223(11)
C23O C -0.1072(4) 0.2236(2) 0.06620(9)
H14O H -0.1155 0.2165 0.0507
C24O C -0.1409(5) 0.1855(3) 0.08123(12)
H15O H -0.1718 0.1533 0.0759
C25O C -0.1312(6) 0.1926(3) 0.10360(13)
H16O H -0.1553 0.1666 0.1142
C26O C -0.0827(4) 0.2414(3) 0.11073(9)
C27O C -0.0694(4) 0.2548(3) 0.13375(9)
H17O H -0.0917 0.2307 0.1452
C28O C -0.0243(3) 0.3025(2) 0.13909(8)
C29O C 0.0043(3) 0.3393(2) 0.12342(8)
H18O H 0.0345 0.3732 0.1278
C30O C -0.00897(26) 0.32932(18) 0.10067(7)
H19O H 0.0117 0.3562 0.0897
C31O C -0.0523(3) 0.2801(2) 0.09423(8)
C32O C -0.0142(3) 0.3471(2) 0.17307(10)
C33O C -0.0995(3) 0.5705(2) 0.30575(11)
H20O H -0.1046 0.5958 0.3144
C34O C -0.1339(3) 0.5140(3) 0.30957(13)
H21O H -0.1628 0.5012 0.3201
C35O C -0.1246(3) 0.4791(3) 0.29796(14)
H22O H -0.1462 0.4412 0.3008
C36O C -0.0844(3) 0.4969(3) 0.28197(11)
C37O C -0.0725(3) 0.4609(2) 0.26934(10)
H23O H -0.0941 0.4226 0.2711
C38O C -0.0303(3) 0.4823(3) 0.25504(10)
C39O C 0.0048(2) 0.5377(2) 0.25274(9)
H24O H 0.0349 0.5515 0.2427
C40O C -0.00539(19) 0.5718(2) 0.26549(8)
H25O H 0.0196 0.6098 0.2648
C41O C -0.0500(2) 0.5535(2) 0.27921(8)
C42O C 0.0082(3) 0.4276(2) 0.24969(9)
C43O C 0.0160(2) 0.3917(2) 0.23311(9)
C44O C -0.0025(2) 0.3850(2) 0.21128(10)
H26O H -0.0226 0.4016 0.2064
C45O C 0.0081(2) 0.3543(2) 0.19665(8)
C46O C 0.0358(2) 0.3293(2) 0.20355(9)
H27O H 0.0420 0.3071 0.1934
C47O C 0.0552(2) 0.3365(2) 0.22559(9)
C48O C 0.0445(2) 0.3672(2) 0.24013(8)
H28O H 0.0570 0.3716 0.2552
O1P O 0.31144(14) 0.53066(19) 0.32949(6)
O2P O 0.40145(16) 0.58426(22) 0.33255(8)
N1P N 0.32363(17) 0.34247(23) 0.31841(6)
C1P C 0.3217(3) 0.3138(4) 0.33632(9)
H1P H 0.3225 0.2811 0.3342
C2P C 0.3185(3) 0.3311(4) 0.35914(10)
H2P H 0.3174 0.3101 0.3717
C3P C 0.3173(4) 0.3769(5) 0.36183(10)
H3P H 0.3158 0.3889 0.3765
C4P C 0.3180(2) 0.4074(3) 0.34331(9)
C5P C 0.3152(2) 0.4553(3) 0.34622(9)
H4P H 0.3114 0.4670 0.3607
C6P C 0.3182(2) 0.48458(28) 0.32733(9)
C7P C 0.3240(2) 0.46945(28) 0.30570(9)
H5P H 0.3272 0.4916 0.2931
C8P C 0.32517(18) 0.42117(25) 0.30276(8)
H6P H 0.3280 0.4094 0.2881
C9P C 0.3222(2) 0.39066(27) 0.32147(8)
C10P C 0.3566(2) 0.5782(3) 0.33196(10)
C11P C 0.3428(2) 0.62381(26) 0.33284(9)
C12P C 0.28891(18) 0.61389(25) 0.33336(8)
H7P H 0.2590 0.5778 0.3340
O1Q O 0.46934(19) 0.78077(13) 0.32949(6)
O2Q O 0.41574(22) 0.81718(15) 0.33255(8)
N1Q N 0.65753(23) 0.98115(16) 0.31841(6)
C1Q C 0.6862(4) 1.0078(2) 0.33632(9)
H1Q H 0.7189 1.0413 0.3342
C2Q C 0.6689(4) 0.9873(3) 0.35914(10)
H2Q H 0.6899 1.0072 0.3717
C3Q C 0.6231(5) 0.9403(3) 0.36183(10)
H3Q H 0.6111 0.9268 0.3765
C4Q C 0.5926(3) 0.9105(2) 0.34331(9)
C5Q C 0.5447(3) 0.8598(2) 0.34622(9)
H4Q H 0.5330 0.8443 0.3607
C6Q C 0.51542(28) 0.83358(19) 0.32733(9)
C7Q C 0.53055(28) 0.85451(19) 0.30570(9)
H5Q H 0.5084 0.8355 0.2931
C8Q C 0.57883(25) 0.90399(17) 0.30276(8)
H6Q H 0.5906 0.9185 0.2881
C9Q C 0.60934(27) 0.93150(18) 0.32147(8)
C10Q C 0.4218(3) 0.7783(2) 0.33196(10)
C11Q C 0.37619(26) 0.71895(17) 0.33284(9)
C12Q C 0.38611(25) 0.67501(18) 0.33336(8)
H7Q H 0.4222 0.6811 0.3340
Pd1P Pd 0.328427(14) 0.309834(20) 0.288402(6)
O3P O 0.68280(21) 0.78266(26) 0.25394(6)
O4P O 0.71406(26) 0.81432(33) 0.21953(8)
O5P O 0.68776(17) 0.68038(29) 0.16187(6)
O6P O 0.6310(2) 0.59347(33) 0.16605(7)
O7P O 0.55309(16) 0.53211(24) 0.24158(7)
O8P O 0.56439(19) 0.59045(28) 0.26866(7)
N2P N 0.73938(25) 0.98503(30) 0.28889(6)
N3P N 0.73196(16) 0.66665(28) 0.07167(6)
N4P N 0.41148(14) 0.35014(21) 0.29066(7)
C13P C 0.7853(4) 1.0122(5) 0.29854(12)
H8P H 0.7947 1.0472 0.3041
C14P C 0.8224(4) 0.9952(4) 0.30148(14)
H9P H 0.8546 1.0166 0.3100
C15P C 0.8129(4) 0.9481(4) 0.29221(14)
H10P H 0.8391 0.9367 0.2932
C16P C 0.7634(3) 0.9162(4) 0.28094(9)
C17P C 0.7494(3) 0.8652(4) 0.27096(10)
H11P H 0.7744 0.8522 0.2709
C18P C 0.6998(3) 0.8357(4) 0.26151(9)
C19P C 0.6634(3) 0.8542(4) 0.25937(9)
H12P H 0.6299 0.8332 0.2516
C20P C 0.67654(28) 0.90390(34) 0.26866(8)
H13P H 0.6515 0.9167 0.2677
C21P C 0.72714(28) 0.93590(34) 0.27956(8)
C22P C 0.6909(4) 0.7782(5) 0.23223(11)
C23P C 0.7764(2) 0.6691(4) 0.06620(9)
H14P H 0.7835 0.6679 0.0507
C24P C 0.8145(3) 0.6735(6) 0.08123(12)
H15P H 0.8467 0.6748 0.0759
C25P C 0.8074(3) 0.6761(7) 0.10360(13)
H16P H 0.8334 0.6780 0.1142
C26P C 0.7586(3) 0.6758(5) 0.11073(9)
C27P C 0.7452(3) 0.6757(5) 0.13375(9)
H17P H 0.7693 0.6775 0.1452
C28P C 0.6975(2) 0.6731(4) 0.13909(8)
C29P C 0.6607(2) 0.6649(4) 0.12342(8)
H18P H 0.6268 0.6612 0.1278
C30P C 0.67068(18) 0.66170(32) 0.10067(7)
H19P H 0.6438 0.6554 0.0897
C31P C 0.7199(2) 0.6675(4) 0.09423(8)
C32P C 0.6529(2) 0.6386(4) 0.17307(10)
C33P C 0.4295(2) 0.3299(4) 0.30575(11)
H20P H 0.4042 0.2995 0.3144
C34P C 0.4860(3) 0.3520(4) 0.30957(13)
H21P H 0.4988 0.3359 0.3201
C35P C 0.5209(3) 0.3962(4) 0.29796(14)
H22P H 0.5588 0.4125 0.3008
C36P C 0.5031(3) 0.4186(4) 0.28197(11)
C37P C 0.5391(2) 0.4665(4) 0.26934(10)
H23P H 0.5774 0.4832 0.2711
C38P C 0.5177(3) 0.4873(4) 0.25504(10)
C39P C 0.4623(2) 0.4670(3) 0.25274(9)
H24P H 0.4485 0.4833 0.2427
C40P C 0.4282(2) 0.42277(28) 0.26549(8)
H25P H 0.3902 0.4097 0.2648
C41P C 0.4465(2) 0.3964(3) 0.27921(8)
C42P C 0.5724(2) 0.5805(4) 0.24969(9)
C43P C 0.6083(2) 0.6242(3) 0.23311(9)
C44P C 0.6150(2) 0.6124(3) 0.21128(10)
H26P H 0.5984 0.5757 0.2064
C45P C 0.6457(2) 0.6537(3) 0.19665(8)
C46P C 0.6707(2) 0.7064(3) 0.20355(9)
H27P H 0.6929 0.7348 0.1934
C47P C 0.6635(2) 0.7186(3) 0.22559(9)
C48P C 0.6328(2) 0.6772(3) 0.24013(8)
H28P H 0.6284 0.6853 0.2552
Pd1Q Pd 0.690166(20) 1.018592(14) 0.288402(6)
O3Q O 0.21734(26) 0.90013(15) 0.25394(6)
O4Q O 0.18568(33) 0.8997(2) 0.21953(8)
O5Q O 0.31962(29) 1.00737(23) 0.16187(6)
O6Q O 0.40653(33) 1.03749(26) 0.16605(7)
O7Q O 0.46789(24) 1.02097(18) 0.24158(7)
O8Q O 0.40955(28) 0.9739(2) 0.26866(7)
N2Q N 0.01497(30) 0.75434(17) 0.28889(6)
N3Q N 0.33335(28) 1.06530(23) 0.07167(6)
N4Q N 0.64986(21) 1.06133(15) 0.29066(7)
C13Q C -0.0122(5) 0.7730(3) 0.29854(12)
H8Q H -0.0472 0.7474 0.3041
C14Q C 0.0048(4) 0.8271(2) 0.30148(14)
H9Q H -0.0166 0.8379 0.3100
C15Q C 0.0519(4) 0.8647(2) 0.29221(14)
H10Q H 0.0633 0.9023 0.2932
C16Q C 0.0838(4) 0.8471(2) 0.28094(9)
C17Q C 0.1348(4) 0.8841(2) 0.27096(10)
H11Q H 0.1478 0.9221 0.2709
C18Q C 0.1643(4) 0.8640(2) 0.26151(9)
C19Q C 0.1458(4) 0.8091(2) 0.25937(9)
H12Q H 0.1668 0.7966 0.2516
C20Q C 0.09610(34) 0.7726(2) 0.26866(8)
H13Q H 0.0833 0.7347 0.2677
C21Q C 0.06410(34) 0.7912(2) 0.27956(8)
C22Q C 0.2218(5) 0.9126(3) 0.23223(11)
C23Q C 0.3309(4) 1.1072(4) 0.06620(9)
H14Q H 0.3321 1.1155 0.0507
C24Q C 0.3265(6) 1.1409(5) 0.08123(12)
H15Q H 0.3252 1.1718 0.0759
C25Q C 0.3239(7) 1.1312(6) 0.10360(13)
H16Q H 0.3220 1.1553 0.1142
C26Q C 0.3242(5) 1.0827(4) 0.11073(9)
C27Q C 0.3243(5) 1.0694(4) 0.13375(9)
H17Q H 0.3225 1.0917 0.1452
C28Q C 0.3269(4) 1.0243(3) 0.13909(8)
C29Q C 0.3351(4) 0.9957(3) 0.12342(8)
H18Q H 0.3388 0.9655 0.1278
C30Q C 0.33830(32) 1.00897(26) 0.10067(7)
H19Q H 0.3446 0.9883 0.0897
C31Q C 0.3325(4) 1.0523(3) 0.09423(8)
C32Q C 0.3614(4) 1.0142(3) 0.17307(10)
C33Q C 0.6701(4) 1.0995(3) 0.30575(11)
H20Q H 0.7005 1.1046 0.3144
C34Q C 0.6480(4) 1.1339(3) 0.30957(13)
H21Q H 0.6641 1.1628 0.3201
C35Q C 0.6038(4) 1.1246(3) 0.29796(14)
H22Q H 0.5875 1.1462 0.3008
C36Q C 0.5814(4) 1.0844(3) 0.28197(11)
C37Q C 0.5335(4) 1.0725(3) 0.26934(10)
H23Q H 0.5168 1.0941 0.2711
C38Q C 0.5127(4) 1.0303(3) 0.25504(10)
C39Q C 0.5330(3) 0.9952(2) 0.25274(9)
H24Q H 0.5167 0.9651 0.2427
C40Q C 0.57723(28) 1.00539(19) 0.26549(8)
H25Q H 0.5903 0.9804 0.2648
C41Q C 0.6036(3) 1.0500(2) 0.27921(8)
C42Q C 0.4195(4) 0.9918(3) 0.24969(9)
C43Q C 0.3758(3) 0.9840(2) 0.23311(9)
C44Q C 0.3876(3) 1.0025(2) 0.21128(10)
H26Q H 0.4243 1.0226 0.2064
C45Q C 0.3463(3) 0.9919(2) 0.19665(8)
C46Q C 0.2936(3) 0.9642(2) 0.20355(9)
H27Q H 0.2652 0.9580 0.1934
C47Q C 0.2814(3) 0.9448(2) 0.22559(9)
C48Q C 0.3228(3) 0.9555(2) 0.24013(8)
H28Q H 0.3147 0.9430 0.2552
loop_
_geom_bond_atom_site_label_1
_geom_bond_atom_site_label_2
_geom_bond_site_symmetry_1
_geom_bond_site_symmetry_2
Pd1 N1 1_555 1_555
O1 C6 1_555 1_555
O2 C10 1_555 1_555
O3 C18 1_555 1_555
O4 C22 1_555 1_555
O5 C28 1_555 1_555
O6 C32 1_555 1_555
O7 C38 1_555 1_555
O8 C42 1_555 1_555
N1 C1 1_555 1_555
N2 C13 1_555 1_555
N3 C23 1_555 1_555
N4 Pd1 1_555 1_555
C1 H1 1_555 1_555
C2 C1 1_555 1_555
H2 C2 1_555 1_555
C3 C2 1_555 1_555
H3 C3 1_555 1_555
C4 C3 1_555 1_555
C5 C4 1_555 1_555
H4 C5 1_555 1_555
C6 C5 1_555 1_555
C7 C6 1_555 1_555
H5 C7 1_555 1_555
C8 C7 1_555 1_555
H6 C8 1_555 1_555
C9 N1 1_555 1_555
C10 O1 1_555 1_555
C11 C10 1_555 1_555
C12 C11 1_555 1_555
H7 C12 1_555 1_555
C13 H8 1_555 1_555
C14 C13 1_555 1_555
H9 C14 1_555 1_555
C15 C14 1_555 1_555
H10 C15 1_555 1_555
C16 C15 1_555 1_555
C17 C16 1_555 1_555
H11 C17 1_555 1_555
C18 C17 1_555 1_555
C19 C18 1_555 1_555
H12 C19 1_555 1_555
C20 C19 1_555 1_555
H13 C20 1_555 1_555
C21 N2 1_555 1_555
C22 O3 1_555 1_555
C23 H14 1_555 1_555
C24 C23 1_555 1_555
H15 C24 1_555 1_555
C25 C24 1_555 1_555
H16 C25 1_555 1_555
C26 C25 1_555 1_555
C27 C26 1_555 1_555
H17 C27 1_555 1_555
C28 C27 1_555 1_555
C29 C28 1_555 1_555
H18 C29 1_555 1_555
C30 C29 1_555 1_555
H19 C30 1_555 1_555
C31 N3 1_555 1_555
C32 O5 1_555 1_555
C33 N4 1_555 1_555
H20 C33 1_555 1_555
C34 C33 1_555 1_555
H21 C34 1_555 1_555
C35 C34 1_555 1_555
H22 C35 1_555 1_555
C36 C35 1_555 1_555
C37 C36 1_555 1_555
H23 C37 1_555 1_555
C38 C37 1_555 1_555
C39 C38 1_555 1_555
H24 C39 1_555 1_555
C40 C39 1_555 1_555
H25 C40 1_555 1_555
C41 N4 1_555 1_555
C42 O7 1_555 1_555
C43 C42 1_555 1_555
C44 C43 1_555 1_555
H26 C44 1_555 1_555
C45 C32 1_555 1_555
C46 C45 1_555 1_555
H27 C46 1_555 1_555
C47 C22 1_555 1_555
C48 C43 1_555 1_555
H28 C48 1_555 1_555
S1 O9 1_555 1_555
C49 S1 1_555 1_555
H29 C49 1_555 1_555
H30 C49 1_555 1_555
H31 C49 1_555 1_555
C50 S1 1_555 1_555
H32 C50 1_555 1_555
H33 C50 1_555 1_555
H34 C50 1_555 1_555
O1A C6A 1_555 1_555
O2A C10A 1_555 1_555
N1A C1A 1_555 1_555
C1A H1A 1_555 1_555
C2A C1A 1_555 1_555
H2A C2A 1_555 1_555
C3A C2A 1_555 1_555
H3A C3A 1_555 1_555
C4A C3A 1_555 1_555
C5A C4A 1_555 1_555
H4A C5A 1_555 1_555
C6A C5A 1_555 1_555
C7A C6A 1_555 1_555
H5A C7A 1_555 1_555
C8A C7A 1_555 1_555
H6A C8A 1_555 1_555
C9A N1A 1_555 1_555
C10A O1A 1_555 1_555
C11A C10A 1_555 1_555
C12A C11 1_555 1_555
H7A C12A 1_555 1_555
O1B C6B 1_555 1_555
O2B C10B 1_555 1_555
N1B C1B 1_555 1_555
C1B H1B 1_555 1_555
C2B C1B 1_555 1_555
H2B C2B 1_555 1_555
C3B C2B 1_555 1_555
H3B C3B 1_555 1_555
C4B C3B 1_555 1_555
C5B C4B 1_555 1_555
H4B C5B 1_555 1_555
C6B C5B 1_555 1_555
C7B C6B 1_555 1_555
H5B C7B 1_555 1_555
C8B C7B 1_555 1_555
H6B C8B 1_555 1_555
C9B N1B 1_555 1_555
C10B O1B 1_555 1_555
C11B C12 1_555 1_555
C12B C11A 1_555 1_555
H7B C12B 1_555 1_555
Pd1A N2 1_555 1_555
O3A C18A 1_555 1_555
O4A C22A 1_555 1_555
O5A C28A 1_555 1_555
O6A C32A 1_555 1_555
O7A C38A 1_555 1_555
O8A C42A 1_555 1_555
N2A C13A 1_555 1_555
N3A C23A 1_555 1_555
N4A Pd1A 1_555 1_555
C13A H8A 1_555 1_555
C14A C13A 1_555 1_555
H9A C14A 1_555 1_555
C15A C14A 1_555 1_555
H10A C15A 1_555 1_555
C16A C15A 1_555 1_555
C17A C16A 1_555 1_555
H11A C17A 1_555 1_555
C18A C17A 1_555 1_555
C19A C18A 1_555 1_555
H12A C19A 1_555 1_555
C20A C19A 1_555 1_555
H13A C20A 1_555 1_555
C21A N2A 1_555 1_555
C22A O3A 1_555 1_555
C23A H14A 1_555 1_555
C24A C23A 1_555 1_555
H15A C24A 1_555 1_555
C25A C24A 1_555 1_555
H16A C25A 1_555 1_555
C26A C25A 1_555 1_555
C27A C26A 1_555 1_555
H17A C27A 1_555 1_555
C28A C27A 1_555 1_555
C29A C28A 1_555 1_555
H18A C29A 1_555 1_555
C30A C29A 1_555 1_555
H19A C30A 1_555 1_555
C31A N3A 1_555 1_555
C32A O5A 1_555 1_555
C33A N4A 1_555 1_555
H20A C33A 1_555 1_555
C34A C33A 1_555 1_555
H21A C34A 1_555 1_555
C35A C34A 1_555 1_555
H22A C35A 1_555 1_555
C36A C35A 1_555 1_555
C37A C36A 1_555 1_555
H23A C37A 1_555 1_555
C38A C37A 1_555 1_555
C39A C38A 1_555 1_555
H24A C39A 1_555 1_555
C40A C39A 1_555 1_555
H25A C40A 1_555 1_555
C41A N4A 1_555 1_555
C42A O7A 1_555 1_555
C43A C42A 1_555 1_555
C44A C43A 1_555 1_555
H26A C44A 1_555 1_555
C45A C32A 1_555 1_555
C46A C45A 1_555 1_555
H27A C46A 1_555 1_555
C47A C22A 1_555 1_555
C48A C43A 1_555 1_555
H28A C48A 1_555 1_555
Pd1B N1B 1_555 1_555
O3B C18B 1_555 1_555
O4B C22B 1_555 1_555
O5B C28B 1_555 1_555
O6B C32B 1_555 1_555
O7B C38B 1_555 1_555
O8B C42B 1_555 1_555
N2B Pd1 1_555 1_555
N3B C23B 1_555 1_555
N4B Pd1B 1_555 1_555
C13B N2B 1_555 1_555
H8B C13B 1_555 1_555
C14B C13B 1_555 1_555
H9B C14B 1_555 1_555
C15B C14B 1_555 1_555
H10B C15B 1_555 1_555
C16B C15B 1_555 1_555
C17B C16B 1_555 1_555
H11B C17B 1_555 1_555
C18B C17B 1_555 1_555
C19B C18B 1_555 1_555
H12B C19B 1_555 1_555
C20B C19B 1_555 1_555
H13B C20B 1_555 1_555
C21B N2B 1_555 1_555
C22B O3B 1_555 1_555
C23B H14B 1_555 1_555
C24B C23B 1_555 1_555
H15B C24B 1_555 1_555
C25B C24B 1_555 1_555
H16B C25B 1_555 1_555
C26B C25B 1_555 1_555
C27B C26B 1_555 1_555
H17B C27B 1_555 1_555
C28B C27B 1_555 1_555
C29B C28B 1_555 1_555
H18B C29B 1_555 1_555
C30B C29B 1_555 1_555
H19B C30B 1_555 1_555
C31B N3B 1_555 1_555
C32B O5B 1_555 1_555
C33B N4B 1_555 1_555
H20B C33B 1_555 1_555
C34B C33B 1_555 1_555
H21B C34B 1_555 1_555
C35B C34B 1_555 1_555
H22B C35B 1_555 1_555
C36B C35B 1_555 1_555
C37B C36B 1_555 1_555
H23B C37B 1_555 1_555
C38B C37B 1_555 1_555
C39B C38B 1_555 1_555
H24B C39B 1_555 1_555
C40B C39B 1_555 1_555
H25B C40B 1_555 1_555
C41B N4B 1_555 1_555
C42B O7B 1_555 1_555
C43B C42B 1_555 1_555
C44B C43B 1_555 1_555
H26B C44B 1_555 1_555
C45B C32B 1_555 1_555
C46B C45B 1_555 1_555
H27B C46B 1_555 1_555
C47B C22B 1_555 1_555
C48B C43B 1_555 1_555
H28B C48B 1_555 1_555
Pd1O N3A 1_555 1_555
O1O C6O 1_555 1_555
O2O C10O 1_555 1_555
O3O C18O 1_555 1_555
O4O C22O 1_555 1_555
O5O C28O 1_555 1_555
O6O C32O 1_555 1_555
O7O C38O 1_555 1_555
O8O C42O 1_555 1_555
N1O Pd1O 1_555 1_555
N2O C13O 1_555 1_555
N3O Pd1B 1_555 1_555
N4O Pd1O 1_555 1_555
C1O N1O 1_555 1_555
H1O C1O 1_555 1_555
C2O C1O 1_555 1_555
H2O C2O 1_555 1_555
C3O C2O 1_555 1_555
H3O C3O 1_555 1_555
C4O C3O 1_555 1_555
C5O C4O 1_555 1_555
H4O C5O 1_555 1_555
C6O C5O 1_555 1_555
C7O C6O 1_555 1_555
H5O C7O 1_555 1_555
C8O C7O 1_555 1_555
H6O C8O 1_555 1_555
C9O N1O 1_555 1_555
C10O O1O 1_555 1_555
C11O C10O 1_555 1_555
C12O C11O 1_555 1_555
H7O C12O 1_555 1_555
C13O H8O 1_555 1_555
C14O C13O 1_555 1_555
H9O C14O 1_555 1_555
C15O C14O 1_555 1_555
H10O C15O 1_555 1_555
C16O C15O 1_555 1_555
C17O C16O 1_555 1_555
H11O C17O 1_555 1_555
C18O C17O 1_555 1_555
C19O C18O 1_555 1_555
H12O C19O 1_555 1_555
C20O C19O 1_555 1_555
H13O C20O 1_555 1_555
C21O N2O 1_555 1_555
C22O O3O 1_555 1_555
C23O N3O 1_555 1_555
H14O C23O 1_555 1_555
C24O C23O 1_555 1_555
H15O C24O 1_555 1_555
C25O C24O 1_555 1_555
H16O C25O 1_555 1_555
C26O C25O 1_555 1_555
C27O C26O 1_555 1_555
H17O C27O 1_555 1_555
C28O C27O 1_555 1_555
C29O C28O 1_555 1_555
H18O C29O 1_555 1_555
C30O C29O 1_555 1_555
H19O C30O 1_555 1_555
C31O N3O 1_555 1_555
C32O O5O 1_555 1_555
C33O N4O 1_555 1_555
H20O C33O 1_555 1_555
C34O C33O 1_555 1_555
H21O C34O 1_555 1_555
C35O C34O 1_555 1_555
H22O C35O 1_555 1_555
C36O C35O 1_555 1_555
C37O C36O 1_555 1_555
H23O C37O 1_555 1_555
C38O C37O 1_555 1_555
C39O C38O 1_555 1_555
H24O C39O 1_555 1_555
C40O C39O 1_555 1_555
H25O C40O 1_555 1_555
C41O N4O 1_555 1_555
C42O O7O 1_555 1_555
C43O C42O 1_555 1_555
C44O C43O 1_555 1_555
H26O C44O 1_555 1_555
C45O C32O 1_555 1_555
C46O C45O 1_555 1_555
H27O C46O 1_555 1_555
C47O C22O 1_555 1_555
C48O C43O 1_555 1_555
H28O C48O 1_555 1_555
O1P C6P 1_555 1_555
O2P C10P 1_555 1_555
N1P C1P 1_555 1_555
C1P H1P 1_555 1_555
C2P C1P 1_555 1_555
H2P C2P 1_555 1_555
C3P C2P 1_555 1_555
H3P C3P 1_555 1_555
C4P C3P 1_555 1_555
C5P C4P 1_555 1_555
H4P C5P 1_555 1_555
C6P C5P 1_555 1_555
C7P C6P 1_555 1_555
H5P C7P 1_555 1_555
C8P C7P 1_555 1_555
H6P C8P 1_555 1_555
C9P N1P 1_555 1_555
C10P O1P 1_555 1_555
C11P C10P 1_555 1_555
C12P C11O 1_555 1_555
H7P C12P 1_555 1_555
O1Q C6Q 1_555 1_555
O2Q C10Q 1_555 1_555
N1Q C1Q 1_555 1_555
C1Q H1Q 1_555 1_555
C2Q C1Q 1_555 1_555
H2Q C2Q 1_555 1_555
C3Q C2Q 1_555 1_555
H3Q C3Q 1_555 1_555
C4Q C3Q 1_555 1_555
C5Q C4Q 1_555 1_555
H4Q C5Q 1_555 1_555
C6Q C5Q 1_555 1_555
C7Q C6Q 1_555 1_555
H5Q C7Q 1_555 1_555
C8Q C7Q 1_555 1_555
H6Q C8Q 1_555 1_555
C9Q N1Q 1_555 1_555
C10Q O1Q 1_555 1_555
C11Q C12O 1_555 1_555
C12Q C11P 1_555 1_555
H7Q C12Q 1_555 1_555
Pd1P N3B 1_555 1_555
O3P C18P 1_555 1_555
O4P C22P 1_555 1_555
O5P C28P 1_555 1_555
O6P C32P 1_555 1_555
O7P C38P 1_555 1_555
O8P C42P 1_555 1_555
N2P C13P 1_555 1_555
N3P Pd1 1_555 1_555
N4P Pd1P 1_555 1_555
C13P H8P 1_555 1_555
C14P C13P 1_555 1_555
H9P C14P 1_555 1_555
C15P C14P 1_555 1_555
H10P C15P 1_555 1_555
C16P C15P 1_555 1_555
C17P C16P 1_555 1_555
H11P C17P 1_555 1_555
C18P C17P 1_555 1_555
C19P C18P 1_555 1_555
H12P C19P 1_555 1_555
C20P C19P 1_555 1_555
H13P C20P 1_555 1_555
C21P N2P 1_555 1_555
C22P O3P 1_555 1_555
C23P N3P 1_555 1_555
H14P C23P 1_555 1_555
C24P C23P 1_555 1_555
H15P C24P 1_555 1_555
C25P C24P 1_555 1_555
H16P C25P 1_555 1_555
C26P C25P 1_555 1_555
C27P C26P 1_555 1_555
H17P C27P 1_555 1_555
C28P C27P 1_555 1_555
C29P C28P 1_555 1_555
H18P C29P 1_555 1_555
C30P C29P 1_555 1_555
H19P C30P 1_555 1_555
C31P N3P 1_555 1_555
C32P O5P 1_555 1_555
C33P N4P 1_555 1_555
H20P C33P 1_555 1_555
C34P C33P 1_555 1_555
H21P C34P 1_555 1_555
C35P C34P 1_555 1_555
H22P C35P 1_555 1_555
C36P C35P 1_555 1_555
C37P C36P 1_555 1_555
H23P C37P 1_555 1_555
C38P C37P 1_555 1_555
C39P C38P 1_555 1_555
H24P C39P 1_555 1_555
C40P C39P 1_555 1_555
H25P C40P 1_555 1_555
C41P N4P 1_555 1_555
C42P O7P 1_555 1_555
C43P C42P 1_555 1_555
C44P C43P 1_555 1_555
H26P C44P 1_555 1_555
C45P C32P 1_555 1_555
C46P C45P 1_555 1_555
H27P C46P 1_555 1_555
C47P C22P 1_555 1_555
C48P C43P 1_555 1_555
H28P C48P 1_555 1_555
Pd1Q N3 1_555 1_555
O3Q C18Q 1_555 1_555
O4Q C22Q 1_555 1_555
O5Q C28Q 1_555 1_555
O6Q C32Q 1_555 1_555
O7Q C38Q 1_555 1_555
O8Q C42Q 1_555 1_555
N2Q Pd1O 1_555 1_555
N3Q Pd1A 1_555 1_555
N4Q Pd1Q 1_555 1_555
C13Q N2Q 1_555 1_555
H8Q C13Q 1_555 1_555
C14Q C13Q 1_555 1_555
H9Q C14Q 1_555 1_555
C15Q C14Q 1_555 1_555
H10Q C15Q 1_555 1_555
C16Q C15Q 1_555 1_555
C17Q C16Q 1_555 1_555
H11Q C17Q 1_555 1_555
C18Q C17Q 1_555 1_555
C19Q C18Q 1_555 1_555
H12Q C19Q 1_555 1_555
C20Q C19Q 1_555 1_555
H13Q C20Q 1_555 1_555
C21Q N2Q 1_555 1_555
C22Q O3Q 1_555 1_555
C23Q N3Q 1_555 1_555
H14Q C23Q 1_555 1_555
C24Q C23Q 1_555 1_555
H15Q C24Q 1_555 1_555
C25Q C24Q 1_555 1_555
H16Q C25Q 1_555 1_555
C26Q C25Q 1_555 1_555
C27Q C26Q 1_555 1_555
H17Q C27Q 1_555 1_555
C28Q C27Q 1_555 1_555
C29Q C28Q 1_555 1_555
H18Q C29Q 1_555 1_555
C30Q C29Q 1_555 1_555
H19Q C30Q 1_555 1_555
C31Q N3Q 1_555 1_555
C32Q O5Q 1_555 1_555
C33Q N4Q 1_555 1_555
H20Q C33Q 1_555 1_555
C34Q C33Q 1_555 1_555
H21Q C34Q 1_555 1_555
C35Q C34Q 1_555 1_555
H22Q C35Q 1_555 1_555
C36Q C35Q 1_555 1_555
C37Q C36Q 1_555 1_555
H23Q C37Q 1_555 1_555
C38Q C37Q 1_555 1_555
C39Q C38Q 1_555 1_555
H24Q C39Q 1_555 1_555
C40Q C39Q 1_555 1_555
H25Q C40Q 1_555 1_555
C41Q N4Q 1_555 1_555
C42Q O7Q 1_555 1_555
C43Q C42Q 1_555 1_555
C44Q C43Q 1_555 1_555
H26Q C44Q 1_555 1_555
C45Q C32Q 1_555 1_555
C46Q C45Q 1_555 1_555
H27Q C46Q 1_555 1_555
C47Q C22Q 1_555 1_555
C48Q C43Q 1_555 1_555
H28Q C48Q 1_555 1_555
C4 C9 1_555 1_555
C8 C9 1_555 1_555
C16 C21 1_555 1_555
C20 C21 1_555 1_555
C26 C31 1_555 1_555
C30 C31 1_555 1_555
C36 C41 1_555 1_555
C40 C41 1_555 1_555
C44 C45 1_555 1_555
C46 C47 1_555 1_555
C47 C48 1_555 1_555
N1A Pd1A 1_555 1_555
C4A C9A 1_555 1_555
C8A C9A 1_555 1_555
C11A C12A 1_555 1_555
C4B C9B 1_555 1_555
C8B C9B 1_555 1_555
C10B C11B 1_555 1_555
C11B C12B 1_555 1_555
N2A Pd1B 1_555 1_555
C16A C21A 1_555 1_555
C20A C21A 1_555 1_555
C26A C31A 1_555 1_555
C30A C31A 1_555 1_555
C36A C41A 1_555 1_555
C40A C41A 1_555 1_555
C44A C45A 1_555 1_555
C46A C47A 1_555 1_555
C47A C48A 1_555 1_555
C16B C21B 1_555 1_555
C20B C21B 1_555 1_555
C26B C31B 1_555 1_555
C30B C31B 1_555 1_555
C36B C41B 1_555 1_555
C40B C41B 1_555 1_555
C44B C45B 1_555 1_555
C46B C47B 1_555 1_555
C47B C48B 1_555 1_555
N2O Pd1P 1_555 1_555
C4O C9O 1_555 1_555
C8O C9O 1_555 1_555
C16O C21O 1_555 1_555
C20O C21O 1_555 1_555
C26O C31O 1_555 1_555
C30O C31O 1_555 1_555
C36O C41O 1_555 1_555
C40O C41O 1_555 1_555
C44O C45O 1_555 1_555
C46O C47O 1_555 1_555
C47O C48O 1_555 1_555
N1P Pd1P 1_555 1_555
C4P C9P 1_555 1_555
C8P C9P 1_555 1_555
C11P C12P 1_555 1_555
N1Q Pd1Q 1_555 1_555
C4Q C9Q 1_555 1_555
C8Q C9Q 1_555 1_555
C10Q C11Q 1_555 1_555
C11Q C12Q 1_555 1_555
N2P Pd1Q 1_555 1_555
C16P C21P 1_555 1_555
C20P C21P 1_555 1_555
C26P C31P 1_555 1_555
C30P C31P 1_555 1_555
C36P C41P 1_555 1_555
C40P C41P 1_555 1_555
C44P C45P 1_555 1_555
C46P C47P 1_555 1_555
C47P C48P 1_555 1_555
C16Q C21Q 1_555 1_555
C20Q C21Q 1_555 1_555
C26Q C31Q 1_555 1_555
C30Q C31Q 1_555 1_555
C36Q C41Q 1_555 1_555
C40Q C41Q 1_555 1_555
C44Q C45Q 1_555 1_555
C46Q C47Q 1_555 1_555
C47Q C48Q 1_555 1_555

#END
