
#######################################################################
#
#                 Cambridge Crystallographic Data Centre
#                                CCDC 
#
#######################################################################
#
# If this CIF has been generated from an entry in the Cambridge 
# Structural Database, then it will include bibliographic, chemical, 
# crystal, experimental, refinement or atomic coordinate data resulting 
# from the CCDC's data processing and validation procedures.
#
#######################################################################

data_ZOXMAC
_chemical_formula_moiety         
'C288 H192 N48 O24 Pd6 12+,12(N1 O3 1-),13(C2 H6 O1 S1),10(H2 O1)'
_chemical_name_systematic        
"octakis(\m~3~-N,N',N''-tris(Quinolin-6-yl)benzene-1,2,4-tricarboxamide)-hexa-palladium dodecanitrate dimethylsulfoxide solvate decahydrate"
_symmetry_cell_setting           rhombohedral
_symmetry_space_group_name_H-M   'R -3'
_symmetry_Int_Tables_number      148
_space_group_name_Hall           '-R 3'
loop_
_symmetry_equiv_pos_site_id
_symmetry_equiv_pos_as_xyz
1 x,y,z
2 -y,x-y,z
3 -x+y,-x,z
4 2/3+x,1/3+y,1/3+z
5 2/3-y,1/3+x-y,1/3+z
6 2/3-x+y,1/3-x,1/3+z
7 1/3+x,2/3+y,2/3+z
8 1/3-y,2/3+x-y,2/3+z
9 1/3-x+y,2/3-x,2/3+z
10 -x,-y,-z
11 y,-x+y,-z
12 x-y,x,-z
13 1/3-x,2/3-y,2/3-z
14 1/3+y,2/3-x+y,2/3-z
15 1/3+x-y,2/3+x,2/3-z
16 2/3-x,1/3-y,1/3-z
17 2/3+y,1/3-x+y,1/3-z
18 2/3+x-y,1/3+x,1/3-z
_cell_length_a                   45.1264(7)
_cell_length_b                   45.1264(7)
_cell_length_c                   27.6353(4)
_cell_angle_alpha                90
_cell_angle_beta                 90
_cell_angle_gamma                120
_cell_volume                     48736.7
_exptl_crystal_colour            yellow
_exptl_crystal_description       block
_cell_formula_units_Z            3
loop_
_atom_site_label
_atom_site_type_symbol
_atom_site_fract_x
_atom_site_fract_y
_atom_site_fract_z
Pd1 Pd 0.258330(6) 0.129156(6) 0.741684(9)
O1 O 0.28590(13) 0.09937(13) 1.02716(16)
O2 O 0.21036(12) 0.26152(13) 0.87656(18)
O3 O 0.07709(11) 0.08230(12) 0.61029(19)
O4 O 0.15228(12) -0.08031(11) 0.76039(17)
N1 N 0.26001(7) 0.12990(8) 0.99071(10)
H1 H 0.2502 0.1417 0.9967
N2 N 0.17642(7) 0.21352(7) 0.82339(11)
H2 H 0.1568 0.2020 0.8095
N3 N 0.09287(7) 0.04632(8) 0.65654(10)
H3 H 0.0856 0.0260 0.6673
N4 N 0.17634(7) -0.03713(7) 0.82341(11)
H4 H 0.1788 -0.0339 0.8542
N5 N 0.28512(13) 0.12044(12) 0.7935(2)
N6 N 0.27369(13) 0.17636(13) 0.77045(16)
N7 N 0.23261(13) 0.13841(14) 0.68821(19)
N8 N 0.24429(12) 0.08225(14) 0.7114(2)
C1 C 0.30983(10) 0.11368(9) 0.77270(13)
H5 H 0.3120 0.1108 0.7398
C2 C 0.24696(9) 0.12336(10) 0.90721(14)
H6 H 0.2260 0.1203 0.9174
C3 C 0.25284(8) 0.12644(8) 0.85996(12)
H7 H 0.2395 0.1309 0.8388
C4 C 0.33251(18) 0.1117(2) 0.8125(3)
H8 H 0.3501 0.1079 0.8031
C5 C 0.32856(18) 0.11527(18) 0.8614(3)
H9 H 0.3440 0.1150 0.8835
C6 C 0.30141(17) 0.11924(16) 0.8777(2)
C7 C 0.29517(18) 0.12086(15) 0.9267(2)
H10 H 0.3097 0.1197 0.9496
C8 C 0.2682(3) 0.1242(3) 0.9418(4)
C9 C 0.27961(17) 0.12279(15) 0.8438(2)
C10 C 0.26985(17) 0.11383(18) 1.0287(3)
C11 C 0.30987(10) 0.19624(11) 0.77273(13)
H11 H 0.3249 0.1883 0.7656
C12 C 0.19561(9) 0.17496(10) 0.80431(14)
H12 H 0.1733 0.1581 0.8114
C13 C 0.21550(8) 0.16410(8) 0.78452(11)
H13 H 0.2063 0.1422 0.7716
C14 C 0.3205(2) 0.2327(2) 0.7887(3)
H14 H 0.3438 0.2483 0.7913
C15 C 0.29831(19) 0.24420(18) 0.7994(3)
H15 H 0.3066 0.2672 0.8061
C16 C 0.26270(16) 0.22076(17) 0.8003(2)
C17 C 0.23938(19) 0.23056(17) 0.8138(2)
H16 H 0.2472 0.2532 0.8222
C18 C 0.2039(2) 0.2070(3) 0.8151(4)
C19 C 0.25029(16) 0.18690(17) 0.7841(2)
C20 C 0.18420(19) 0.24110(18) 0.8572(3)
C21 C 0.25471(9) 0.16871(10) 0.66253(14)
H17 H 0.2773 0.1839 0.6708
C22 C 0.14426(9) 0.07210(10) 0.70147(13)
H18 H 0.1306 0.0576 0.7260
C23 C 0.17777(9) 0.08887(8) 0.70943(12)
H19 H 0.1875 0.0828 0.7344
C24 C 0.2363(2) 0.1729(2) 0.6197(3)
H20 H 0.2486 0.1919 0.6000
C25 C 0.2023(2) 0.15062(19) 0.6075(3)
H21 H 0.1930 0.1538 0.5793
C26 C 0.18199(16) 0.12251(17) 0.6393(2)
C27 C 0.14745(18) 0.10065(18) 0.6306(2)
H22 H 0.1372 0.1040 0.6035
C28 C 0.1281(2) 0.0738(2) 0.6621(4)
C29 C 0.19755(17) 0.11597(17) 0.6786(2)
C30 C 0.07081(18) 0.0566(2) 0.6307(3)
C31 C 0.25484(9) 0.08618(10) 0.66267(14)
H23 H 0.2645 0.1066 0.6453
C32 C 0.19557(9) 0.02048(10) 0.80428(14)
H24 H 0.1834 0.0198 0.8319
C33 C 0.21532(8) 0.05139(8) 0.78451(11)
H25 H 0.2206 0.0714 0.8010
C34 C 0.24796(19) 0.0521(2) 0.6431(3)
H26 H 0.2542 0.0516 0.6112
C35 C 0.2330(2) 0.0214(2) 0.6687(3)
H27 H 0.2314 0.0018 0.6550
C36 C 0.22038(15) 0.02048(18) 0.7161(2)
C37 C 0.20350(17) -0.00921(18) 0.7426(3)
H28 H 0.2002 -0.0296 0.7293
C38 C 0.1913(3) -0.0094(3) 0.7888(3)
C39 C 0.22739(16) 0.05192(18) 0.7384(2)
C40 C 0.15655(19) -0.07117(19) 0.8014(3)
C41 C 0.25453(10) 0.11258(18) 1.08240(19)
C42 C 0.25477(10) 0.14192(15) 1.08264(19)
H29 H 0.2618 0.1557 1.0552
C43 C 0.24503(12) 0.09290(11) 1.1221(3)
C44 C 0.23505(11) 0.10202(15) 1.16167(19)
H30 H 0.2282 0.0881 1.1890
C45 C 0.02967(15) 0.02957(15) 0.63256(14)
C46 C 0.02984(15) 0.0004(2) 0.63316(14)
H31 H 0.0505 0.0005 0.6340
C47 C 0.23496(10) 0.13248(17) 1.16155(19)
C48 C 0.24489(12) 0.15202(11) 1.1225(3)
H32 H 0.2451 0.1727 1.1225
O1A O -0.09937(13) 0.18653(18) 1.02716(16)
O2A O -0.26152(13) -0.05116(18) 0.87656(18)
O3A O -0.08230(12) -0.00521(16) 0.61029(19)
O4A O 0.08031(11) 0.23259(16) 0.76039(17)
N1A N -0.12990(8) 0.13011(11) 0.99071(10)
H1A H -0.1417 0.1085 0.9967
N2A N -0.21352(7) -0.03710(10) 0.82339(11)
H2A H -0.2020 -0.0452 0.8095
N3A N -0.04632(8) 0.04655(11) 0.65654(10)
H3A H -0.0260 0.0596 0.6673
N4A N 0.03713(7) 0.21347(10) 0.82341(11)
H4A H 0.0339 0.2127 0.8542
N5A N -0.12044(12) 0.16468(18) 0.7935(2)
N6A N -0.17636(13) 0.09733(18) 0.77045(16)
N7A N -0.13841(14) 0.09420(19) 0.68821(19)
N8A N -0.08225(14) 0.16204(18) 0.7114(2)
C1A C -0.11368(9) 0.19615(13) 0.77270(13)
H5A H -0.1108 0.2012 0.7398
C2A C -0.12336(10) 0.12360(13) 0.90721(14)
H6A H -0.1203 0.1057 0.9174
C3A C -0.12644(8) 0.12640(11) 0.85996(12)
H7A H -0.1309 0.1086 0.8388
C4A C -0.1117(2) 0.22081(27) 0.8125(3)
H8A H -0.1079 0.2422 0.8031
C5A C -0.11527(18) 0.21329(25) 0.8614(3)
H9A H -0.1150 0.2290 0.8835
C6A C -0.11924(16) 0.18217(23) 0.8777(2)
C7A C -0.12086(15) 0.17431(23) 0.9267(2)
H10A H -0.1197 0.1900 0.9496
C8A C -0.1242(3) 0.1440(4) 0.9418(4)
C9A C -0.12279(15) 0.15682(23) 0.8438(2)
C10A C -0.11383(18) 0.15602(25) 1.0287(3)
C11A C -0.19624(11) 0.11363(15) 0.77273(13)
H11A H -0.1883 0.1366 0.7656
C12A C -0.17496(10) 0.02065(13) 0.80431(14)
H12A H -0.1581 0.0152 0.8114
C13A C -0.16410(8) 0.05140(11) 0.78452(11)
H13A H -0.1422 0.0641 0.7716
C14A C -0.2327(2) 0.0878(3) 0.7887(3)
H14A H -0.2483 0.0955 0.7913
C15A C -0.24420(18) 0.05411(26) 0.7994(3)
H15A H -0.2672 0.0394 0.8061
C16A C -0.22076(17) 0.04194(23) 0.8003(2)
C17A C -0.23056(17) 0.00882(25) 0.8138(2)
H16A H -0.2532 -0.0060 0.8222
C18A C -0.2070(3) -0.0031(4) 0.8151(4)
C19A C -0.18690(17) 0.06339(23) 0.7841(2)
C20A C -0.24110(18) -0.05690(26) 0.8572(3)
C21A C -0.16871(10) 0.08600(13) 0.66253(14)
H17A H -0.1839 0.0934 0.6708
C22A C -0.07210(10) 0.07216(13) 0.70147(13)
H18A H -0.0576 0.0730 0.7260
C23A C -0.08887(8) 0.08890(12) 0.70943(12)
H19A H -0.0828 0.1047 0.7344
C24A C -0.1729(2) 0.0634(3) 0.6197(3)
H20A H -0.1919 0.0567 0.6000
C25A C -0.15062(19) 0.05168(28) 0.6075(3)
H21A H -0.1538 0.0392 0.5793
C26A C -0.12251(17) 0.05948(23) 0.6393(2)
C27A C -0.10065(18) 0.04680(25) 0.6306(2)
H22A H -0.1040 0.0332 0.6035
C28A C -0.0738(2) 0.0543(3) 0.6621(4)
C29A C -0.11597(17) 0.08158(24) 0.6786(2)
C30A C -0.0566(2) 0.01421(27) 0.6307(3)
C31A C -0.08618(10) 0.16866(13) 0.66267(14)
H23A H -0.1066 0.1579 0.6453
C32A C -0.02048(10) 0.17509(13) 0.80428(14)
H24A H -0.0198 0.1636 0.8319
C33A C -0.05139(8) 0.16393(11) 0.78451(11)
H25A H -0.0714 0.1492 0.8010
C34A C -0.0521(2) 0.19586(28) 0.6431(3)
H26A H -0.0516 0.2026 0.6112
C35A C -0.0214(2) 0.2116(3) 0.6687(3)
H27A H -0.0018 0.2296 0.6550
C36A C -0.02048(18) 0.19990(23) 0.7161(2)
C37A C 0.00921(18) 0.21271(25) 0.7426(3)
H28A H 0.0296 0.2298 0.7293
C38A C 0.0094(3) 0.2007(4) 0.7888(3)
C39A C -0.05192(18) 0.17547(24) 0.7384(2)
C40A C 0.07117(19) 0.22772(27) 0.8014(3)
C41A C -0.11258(18) 0.14195(21) 1.08240(19)
C42A C -0.14192(15) 0.11285(18) 1.08264(19)
H29A H -0.1557 0.1061 1.0552
C43A C -0.09290(11) 0.15213(16) 1.1221(3)
C44A C -0.10202(15) 0.13303(19) 1.16167(19)
H30A H -0.0881 0.1401 1.1890
C45A C -0.02957(15) 0.00010(21) 0.63256(14)
C46A C -0.0004(2) 0.02944(25) 0.63316(14)
H31A H -0.0005 0.0500 0.6340
C47A C -0.13248(17) 0.10248(20) 1.16155(19)
C48A C -0.15202(11) 0.09287(16) 1.1225(3)
H32A H -0.1727 0.0724 1.1225
O1B O -0.18653(18) -0.28590(13) 1.02716(16)
O2B O 0.05116(18) -0.21036(12) 0.87656(18)
O3B O 0.00521(16) -0.07709(11) 0.61029(19)
O4B O -0.23259(16) -0.15228(12) 0.76039(17)
N1B N -0.13011(11) -0.26001(7) 0.99071(10)
H1B H -0.1085 -0.2502 0.9967
N2B N 0.03710(10) -0.17642(7) 0.82339(11)
H2B H 0.0452 -0.1568 0.8095
N3B N -0.04655(11) -0.09287(7) 0.65654(10)
H3B H -0.0596 -0.0856 0.6673
N4B N -0.21347(10) -0.17634(7) 0.82341(11)
H4B H -0.2127 -0.1788 0.8542
N5B N -0.16468(18) -0.28512(13) 0.7935(2)
N6B N -0.09733(18) -0.27369(13) 0.77045(16)
N7B N -0.09420(19) -0.23261(13) 0.68821(19)
N8B N -0.16204(18) -0.24429(12) 0.7114(2)
C1B C -0.19615(13) -0.30983(10) 0.77270(13)
H5B H -0.2012 -0.3120 0.7398
C2B C -0.12360(13) -0.24696(9) 0.90721(14)
H6B H -0.1057 -0.2260 0.9174
C3B C -0.12640(11) -0.25284(8) 0.85996(12)
H7B H -0.1086 -0.2395 0.8388
C4B C -0.22081(27) -0.33251(18) 0.8125(3)
H8B H -0.2422 -0.3501 0.8031
C5B C -0.21329(25) -0.32856(18) 0.8614(3)
H9B H -0.2290 -0.3440 0.8835
C6B C -0.18217(23) -0.30141(17) 0.8777(2)
C7B C -0.17431(23) -0.29517(18) 0.9267(2)
H10B H -0.1900 -0.3097 0.9496
C8B C -0.1440(4) -0.2682(3) 0.9418(4)
C9B C -0.15682(23) -0.27961(17) 0.8438(2)
C10B C -0.15602(25) -0.26985(17) 1.0287(3)
C11B C -0.11363(15) -0.30987(10) 0.77273(13)
H11B H -0.1366 -0.3249 0.7656
C12B C -0.02065(13) -0.19561(9) 0.80431(14)
H12B H -0.0152 -0.1733 0.8114
C13B C -0.05140(11) -0.21550(8) 0.78452(11)
H13B H -0.0641 -0.2063 0.7716
C14B C -0.0878(3) -0.3205(2) 0.7887(3)
H14B H -0.0955 -0.3438 0.7913
C15B C -0.05411(26) -0.29831(19) 0.7994(3)
H15B H -0.0394 -0.3066 0.8061
C16B C -0.04194(23) -0.26270(16) 0.8003(2)
C17B C -0.00882(25) -0.23938(19) 0.8138(2)
H16B H 0.0060 -0.2472 0.8222
C18B C 0.0031(4) -0.2039(2) 0.8151(4)
C19B C -0.06339(23) -0.25029(16) 0.7841(2)
C20B C 0.05690(26) -0.18420(19) 0.8572(3)
C21B C -0.08600(13) -0.25471(9) 0.66253(14)
H17B H -0.0934 -0.2773 0.6708
C22B C -0.07216(13) -0.14426(9) 0.70147(13)
H18B H -0.0730 -0.1306 0.7260
C23B C -0.08890(12) -0.17777(9) 0.70943(12)
H19B H -0.1047 -0.1875 0.7344
C24B C -0.0634(3) -0.2363(2) 0.6197(3)
H20B H -0.0567 -0.2486 0.6000
C25B C -0.05168(28) -0.2023(2) 0.6075(3)
H21B H -0.0392 -0.1930 0.5793
C26B C -0.05948(23) -0.18199(16) 0.6393(2)
C27B C -0.04680(25) -0.14745(18) 0.6306(2)
H22B H -0.0332 -0.1372 0.6035
C28B C -0.0543(3) -0.1281(2) 0.6621(4)
C29B C -0.08158(24) -0.19755(17) 0.6786(2)
C30B C -0.01421(27) -0.07081(18) 0.6307(3)
C31B C -0.16866(13) -0.25484(9) 0.66267(14)
H23B H -0.1579 -0.2645 0.6453
C32B C -0.17509(13) -0.19557(9) 0.80428(14)
H24B H -0.1636 -0.1834 0.8319
C33B C -0.16393(11) -0.21532(8) 0.78451(11)
H25B H -0.1492 -0.2206 0.8010
C34B C -0.19586(28) -0.24796(19) 0.6431(3)
H26B H -0.2026 -0.2542 0.6112
C35B C -0.2116(3) -0.2330(2) 0.6687(3)
H27B H -0.2296 -0.2314 0.6550
C36B C -0.19990(23) -0.22038(15) 0.7161(2)
C37B C -0.21271(25) -0.20350(17) 0.7426(3)
H28B H -0.2298 -0.2002 0.7293
C38B C -0.2007(4) -0.1913(3) 0.7888(3)
C39B C -0.17547(24) -0.22739(16) 0.7384(2)
C40B C -0.22772(27) -0.15655(19) 0.8014(3)
C41B C -0.14195(21) -0.25453(10) 1.08240(19)
C42B C -0.11285(18) -0.25477(10) 1.08264(19)
H29B H -0.1061 -0.2618 1.0552
C43B C -0.15213(16) -0.24503(12) 1.1221(3)
C44B C -0.13303(19) -0.23505(11) 1.16167(19)
H30B H -0.1401 -0.2282 1.1890
C45B C -0.00010(21) -0.02967(15) 0.63256(14)
C46B C -0.02944(25) -0.02984(15) 0.63316(14)
H31B H -0.0500 -0.0505 0.6340
C47B C -0.10248(20) -0.23496(10) 1.16155(19)
C48B C -0.09287(16) -0.24489(12) 1.1225(3)
H32B H -0.0724 -0.2451 1.1225
O1J O 0.09937(13) -0.18653(18) 0.97284(16)
O2J O 0.26152(13) 0.05116(18) 1.12344(18)
O3J O 0.08230(12) 0.00521(16) 1.38971(19)
O4J O -0.08031(11) -0.23259(16) 1.23961(17)
N1J N 0.12990(8) -0.13011(11) 1.00929(10)
H1J H 0.1417 -0.1085 1.0033
N2J N 0.21352(7) 0.03710(10) 1.17661(11)
H2J H 0.2020 0.0452 1.1905
N3J N 0.04632(8) -0.04655(11) 1.34346(10)
H3J H 0.0260 -0.0596 1.3327
N4J N -0.03713(7) -0.21347(10) 1.17659(11)
H4J H -0.0339 -0.2127 1.1458
N5J N 0.12044(12) -0.16468(18) 1.2065(2)
N6J N 0.17636(13) -0.09733(18) 1.22955(16)
N7J N 0.13841(14) -0.09420(19) 1.31179(19)
N8J N 0.08225(14) -0.16204(18) 1.2886(2)
C1J C 0.11368(9) -0.19615(13) 1.22730(13)
H5J H 0.1108 -0.2012 1.2602
C2J C 0.12336(10) -0.12360(13) 1.09279(14)
H6J H 0.1203 -0.1057 1.0826
C3J C 0.12644(8) -0.12640(11) 1.14004(12)
H7J H 0.1309 -0.1086 1.1612
C4J C 0.1117(2) -0.22081(27) 1.1875(3)
H8J H 0.1079 -0.2422 1.1969
C5J C 0.11527(18) -0.21329(25) 1.1386(3)
H9J H 0.1150 -0.2290 1.1165
C6J C 0.11924(16) -0.18217(23) 1.1223(2)
C7J C 0.12086(15) -0.17431(23) 1.0733(2)
H10J H 0.1197 -0.1900 1.0504
C8J C 0.1242(3) -0.1440(4) 1.0582(4)
C9J C 0.12279(15) -0.15682(23) 1.1562(2)
C10J C 0.11383(18) -0.15602(25) 0.9713(3)
C11J C 0.19624(11) -0.11363(15) 1.22727(13)
H11J H 0.1883 -0.1366 1.2344
C12J C 0.17496(10) -0.02065(13) 1.19569(14)
H12J H 0.1581 -0.0152 1.1886
C13J C 0.16410(8) -0.05140(11) 1.21548(11)
H13J H 0.1422 -0.0641 1.2284
C14J C 0.2327(2) -0.0878(3) 1.2113(3)
H14J H 0.2483 -0.0955 1.2087
C15J C 0.24420(18) -0.05411(26) 1.2006(3)
H15J H 0.2672 -0.0394 1.1939
C16J C 0.22076(17) -0.04194(23) 1.1997(2)
C17J C 0.23056(17) -0.00882(25) 1.1862(2)
H16J H 0.2532 0.0060 1.1778
C18J C 0.2070(3) 0.0031(4) 1.1849(4)
C19J C 0.18690(17) -0.06339(23) 1.2159(2)
C20J C 0.24110(18) 0.05690(26) 1.1428(3)
C21J C 0.16871(10) -0.08600(13) 1.33747(14)
H17J H 0.1839 -0.0934 1.3292
C22J C 0.07210(10) -0.07216(13) 1.29853(13)
H18J H 0.0576 -0.0730 1.2740
C23J C 0.08887(8) -0.08890(12) 1.29057(12)
H19J H 0.0828 -0.1047 1.2656
C24J C 0.1729(2) -0.0634(3) 1.3803(3)
H20J H 0.1919 -0.0567 1.4000
C25J C 0.15062(19) -0.05168(28) 1.3925(3)
H21J H 0.1538 -0.0392 1.4207
C26J C 0.12251(17) -0.05948(23) 1.3607(2)
C27J C 0.10065(18) -0.04680(25) 1.3694(2)
H22J H 0.1040 -0.0332 1.3965
C28J C 0.0738(2) -0.0543(3) 1.3379(4)
C29J C 0.11597(17) -0.08158(24) 1.3214(2)
C30J C 0.0566(2) -0.01421(27) 1.3693(3)
C31J C 0.08618(10) -0.16866(13) 1.33733(14)
H23J H 0.1066 -0.1579 1.3547
C32J C 0.02048(10) -0.17509(13) 1.19572(14)
H24J H 0.0198 -0.1636 1.1681
C33J C 0.05139(8) -0.16393(11) 1.21549(11)
H25J H 0.0714 -0.1492 1.1990
C34J C 0.0521(2) -0.19586(28) 1.3569(3)
H26J H 0.0516 -0.2026 1.3888
C35J C 0.0214(2) -0.2116(3) 1.3313(3)
H27J H 0.0018 -0.2296 1.3450
C36J C 0.02048(18) -0.19990(23) 1.2839(2)
C37J C -0.00921(18) -0.21271(25) 1.2574(3)
H28J H -0.0296 -0.2298 1.2707
C38J C -0.0094(3) -0.2007(4) 1.2112(3)
C39J C 0.05192(18) -0.17547(24) 1.2616(2)
C40J C -0.07117(19) -0.22772(27) 1.1986(3)
C41J C 0.11258(18) -0.14195(21) 0.91760(19)
C42J C 0.14192(15) -0.11285(18) 0.91736(19)
H29J H 0.1557 -0.1061 0.9448
C43J C 0.09290(11) -0.15213(16) 0.8779(3)
C44J C 0.10202(15) -0.13303(19) 0.83833(19)
H30J H 0.0881 -0.1401 0.8110
C45J C 0.02957(15) -0.00010(21) 1.36744(14)
C46J C 0.0004(2) -0.02944(25) 1.36684(14)
H31J H 0.0005 -0.0500 1.3660
C47J C 0.13248(17) -0.10248(20) 0.83845(19)
C48J C 0.15202(11) -0.09287(16) 0.8775(3)
H32J H 0.1727 -0.0724 0.8775
O1K O 0.18653(18) 0.28590(13) 0.97284(16)
O2K O -0.05116(18) 0.21036(12) 1.12344(18)
O3K O -0.00521(16) 0.07709(11) 1.38971(19)
O4K O 0.23259(16) 0.15228(12) 1.23961(17)
N1K N 0.13011(11) 0.26001(7) 1.00929(10)
H1K H 0.1085 0.2502 1.0033
N2K N -0.03710(10) 0.17642(7) 1.17661(11)
H2K H -0.0452 0.1568 1.1905
N3K N 0.04655(11) 0.09287(7) 1.34346(10)
H3K H 0.0596 0.0856 1.3327
N4K N 0.21347(10) 0.17634(7) 1.17659(11)
H4K H 0.2127 0.1788 1.1458
N5K N 0.16468(18) 0.28512(13) 1.2065(2)
N6K N 0.09733(18) 0.27369(13) 1.22955(16)
N7K N 0.09420(19) 0.23261(13) 1.31179(19)
N8K N 0.16204(18) 0.24429(12) 1.2886(2)
C1K C 0.19615(13) 0.30983(10) 1.22730(13)
H5K H 0.2012 0.3120 1.2602
C2K C 0.12360(13) 0.24696(9) 1.09279(14)
H6K H 0.1057 0.2260 1.0826
C3K C 0.12640(11) 0.25284(8) 1.14004(12)
H7K H 0.1086 0.2395 1.1612
C4K C 0.22081(27) 0.33251(18) 1.1875(3)
H8K H 0.2422 0.3501 1.1969
C5K C 0.21329(25) 0.32856(18) 1.1386(3)
H9K H 0.2290 0.3440 1.1165
C6K C 0.18217(23) 0.30141(17) 1.1223(2)
C7K C 0.17431(23) 0.29517(18) 1.0733(2)
H10K H 0.1900 0.3097 1.0504
C8K C 0.1440(4) 0.2682(3) 1.0582(4)
C9K C 0.15682(23) 0.27961(17) 1.1562(2)
C10K C 0.15602(25) 0.26985(17) 0.9713(3)
C11K C 0.11363(15) 0.30987(10) 1.22727(13)
H11K H 0.1366 0.3249 1.2344
C12K C 0.02065(13) 0.19561(9) 1.19569(14)
H12K H 0.0152 0.1733 1.1886
C13K C 0.05140(11) 0.21550(8) 1.21548(11)
H13K H 0.0641 0.2063 1.2284
C14K C 0.0878(3) 0.3205(2) 1.2113(3)
H14K H 0.0955 0.3438 1.2087
C15K C 0.05411(26) 0.29831(19) 1.2006(3)
H15K H 0.0394 0.3066 1.1939
C16K C 0.04194(23) 0.26270(16) 1.1997(2)
C17K C 0.00882(25) 0.23938(19) 1.1862(2)
H16K H -0.0060 0.2472 1.1778
C18K C -0.0031(4) 0.2039(2) 1.1849(4)
C19K C 0.06339(23) 0.25029(16) 1.2159(2)
C20K C -0.05690(26) 0.18420(19) 1.1428(3)
C21K C 0.08600(13) 0.25471(9) 1.33747(14)
H17K H 0.0934 0.2773 1.3292
C22K C 0.07216(13) 0.14426(9) 1.29853(13)
H18K H 0.0730 0.1306 1.2740
C23K C 0.08890(12) 0.17777(9) 1.29057(12)
H19K H 0.1047 0.1875 1.2656
C24K C 0.0634(3) 0.2363(2) 1.3803(3)
H20K H 0.0567 0.2486 1.4000
C25K C 0.05168(28) 0.2023(2) 1.3925(3)
H21K H 0.0392 0.1930 1.4207
C26K C 0.05948(23) 0.18199(16) 1.3607(2)
C27K C 0.04680(25) 0.14745(18) 1.3694(2)
H22K H 0.0332 0.1372 1.3965
C28K C 0.0543(3) 0.1281(2) 1.3379(4)
C29K C 0.08158(24) 0.19755(17) 1.3214(2)
C30K C 0.01421(27) 0.07081(18) 1.3693(3)
C31K C 0.16866(13) 0.25484(9) 1.33733(14)
H23K H 0.1579 0.2645 1.3547
C32K C 0.17509(13) 0.19557(9) 1.19572(14)
H24K H 0.1636 0.1834 1.1681
C33K C 0.16393(11) 0.21532(8) 1.21549(11)
H25K H 0.1492 0.2206 1.1990
C34K C 0.19586(28) 0.24796(19) 1.3569(3)
H26K H 0.2026 0.2542 1.3888
C35K C 0.2116(3) 0.2330(2) 1.3313(3)
H27K H 0.2296 0.2314 1.3450
C36K C 0.19990(23) 0.22038(15) 1.2839(2)
C37K C 0.21271(25) 0.20350(17) 1.2574(3)
H28K H 0.2298 0.2002 1.2707
C38K C 0.2007(4) 0.1913(3) 1.2112(3)
C39K C 0.17547(24) 0.22739(16) 1.2616(2)
C40K C 0.22772(27) 0.15655(19) 1.1986(3)
C41K C 0.14195(21) 0.25453(10) 0.91760(19)
C42K C 0.11285(18) 0.25477(10) 0.91736(19)
H29K H 0.1061 0.2618 0.9448
C43K C 0.15213(16) 0.24503(12) 0.8779(3)
C44K C 0.13303(19) 0.23505(11) 0.83833(19)
H30K H 0.1401 0.2282 0.8110
C45K C 0.00010(21) 0.02967(15) 1.36744(14)
C46K C 0.02944(25) 0.02984(15) 1.36684(14)
H31K H 0.0500 0.0505 1.3660
C47K C 0.10248(20) 0.23496(10) 0.83845(19)
C48K C 0.09287(16) 0.24489(12) 0.8775(3)
H32K H 0.0724 0.2451 0.8775
O1I O -0.28590(13) -0.09937(13) 0.97284(16)
O2I O -0.21036(12) -0.26152(13) 1.12344(18)
O3I O -0.07709(11) -0.08230(12) 1.38971(19)
O4I O -0.15228(12) 0.08031(11) 1.23961(17)
N1I N -0.26001(7) -0.12990(8) 1.00929(10)
H1I H -0.2502 -0.1417 1.0033
N2I N -0.17642(7) -0.21352(7) 1.17661(11)
H2I H -0.1568 -0.2020 1.1905
N3I N -0.09287(7) -0.04632(8) 1.34346(10)
H3I H -0.0856 -0.0260 1.3327
N4I N -0.17634(7) 0.03713(7) 1.17659(11)
H4I H -0.1788 0.0339 1.1458
N5I N -0.28512(13) -0.12044(12) 1.2065(2)
N6I N -0.27369(13) -0.17636(13) 1.22955(16)
N7I N -0.23261(13) -0.13841(14) 1.31179(19)
N8I N -0.24429(12) -0.08225(14) 1.2886(2)
C1I C -0.30983(10) -0.11368(9) 1.22730(13)
H5I H -0.3120 -0.1108 1.2602
C2I C -0.24696(9) -0.12336(10) 1.09279(14)
H6I H -0.2260 -0.1203 1.0826
C3I C -0.25284(8) -0.12644(8) 1.14004(12)
H7I H -0.2395 -0.1309 1.1612
C4I C -0.33251(18) -0.1117(2) 1.1875(3)
H8I H -0.3501 -0.1079 1.1969
C5I C -0.32856(18) -0.11527(18) 1.1386(3)
H9I H -0.3440 -0.1150 1.1165
C6I C -0.30141(17) -0.11924(16) 1.1223(2)
C7I C -0.29517(18) -0.12086(15) 1.0733(2)
H10I H -0.3097 -0.1197 1.0504
C8I C -0.2682(3) -0.1242(3) 1.0582(4)
C9I C -0.27961(17) -0.12279(15) 1.1562(2)
C10I C -0.26985(17) -0.11383(18) 0.9713(3)
C11I C -0.30987(10) -0.19624(11) 1.22727(13)
H11I H -0.3249 -0.1883 1.2344
C12I C -0.19561(9) -0.17496(10) 1.19569(14)
H12I H -0.1733 -0.1581 1.1886
C13I C -0.21550(8) -0.16410(8) 1.21548(11)
H13I H -0.2063 -0.1422 1.2284
C14I C -0.3205(2) -0.2327(2) 1.2113(3)
H14I H -0.3438 -0.2483 1.2087
C15I C -0.29831(19) -0.24420(18) 1.2006(3)
H15I H -0.3066 -0.2672 1.1939
C16I C -0.26270(16) -0.22076(17) 1.1997(2)
C17I C -0.23938(19) -0.23056(17) 1.1862(2)
H16I H -0.2472 -0.2532 1.1778
C18I C -0.2039(2) -0.2070(3) 1.1849(4)
C19I C -0.25029(16) -0.18690(17) 1.2159(2)
C20I C -0.18420(19) -0.24110(18) 1.1428(3)
C21I C -0.25471(9) -0.16871(10) 1.33747(14)
H17I H -0.2773 -0.1839 1.3292
C22I C -0.14426(9) -0.07210(10) 1.29853(13)
H18I H -0.1306 -0.0576 1.2740
C23I C -0.17777(9) -0.08887(8) 1.29057(12)
H19I H -0.1875 -0.0828 1.2656
C24I C -0.2363(2) -0.1729(2) 1.3803(3)
H20I H -0.2486 -0.1919 1.4000
C25I C -0.2023(2) -0.15062(19) 1.3925(3)
H21I H -0.1930 -0.1538 1.4207
C26I C -0.18199(16) -0.12251(17) 1.3607(2)
C27I C -0.14745(18) -0.10065(18) 1.3694(2)
H22I H -0.1372 -0.1040 1.3965
C28I C -0.1281(2) -0.0738(2) 1.3379(4)
C29I C -0.19755(17) -0.11597(17) 1.3214(2)
C30I C -0.07081(18) -0.0566(2) 1.3693(3)
C31I C -0.25484(9) -0.08618(10) 1.33733(14)
H23I H -0.2645 -0.1066 1.3547
C32I C -0.19557(9) -0.02048(10) 1.19572(14)
H24I H -0.1834 -0.0198 1.1681
C33I C -0.21532(8) -0.05139(8) 1.21549(11)
H25I H -0.2206 -0.0714 1.1990
C34I C -0.24796(19) -0.0521(2) 1.3569(3)
H26I H -0.2542 -0.0516 1.3888
C35I C -0.2330(2) -0.0214(2) 1.3313(3)
H27I H -0.2314 -0.0018 1.3450
C36I C -0.22038(15) -0.02048(18) 1.2839(2)
C37I C -0.20350(17) 0.00921(18) 1.2574(3)
H28I H -0.2002 0.0296 1.2707
C38I C -0.1913(3) 0.0094(3) 1.2112(3)
C39I C -0.22739(16) -0.05192(18) 1.2616(2)
C40I C -0.15655(19) 0.07117(19) 1.1986(3)
C41I C -0.25453(10) -0.11258(18) 0.91760(19)
C42I C -0.25477(10) -0.14192(15) 0.91736(19)
H29I H -0.2618 -0.1557 0.9448
C43I C -0.24503(12) -0.09290(11) 0.8779(3)
C44I C -0.23505(11) -0.10202(15) 0.83833(19)
H30I H -0.2282 -0.0881 0.8110
C45I C -0.02967(15) -0.02957(15) 1.36744(14)
C46I C -0.02984(15) -0.0004(2) 1.36684(14)
H31I H -0.0505 -0.0005 1.3660
C47I C -0.23496(10) -0.13248(17) 0.83845(19)
C48I C -0.24489(12) -0.15202(11) 0.8775(3)
H32I H -0.2451 -0.1727 0.8775
Pd1A Pd -0.129156(6) 0.129174(8) 0.741684(9)
Pd1B Pd -0.129174(8) -0.258330(6) 0.741684(9)
Pd1I Pd -0.258330(6) -0.129156(6) 1.258316(9)
Pd1J Pd 0.129156(6) -0.129174(8) 1.258316(9)
Pd1K Pd 0.129174(8) 0.258330(6) 1.258316(9)
loop_
_geom_bond_atom_site_label_1
_geom_bond_atom_site_label_2
_geom_bond_site_symmetry_1
_geom_bond_site_symmetry_2
Pd1 N5 1_555 1_555
O1 C10 1_555 1_555
O2 C20 1_555 1_555
O3 C30 1_555 1_555
O4 C40 1_555 1_555
N1 H1 1_555 1_555
N2 H2 1_555 1_555
N3 H3 1_555 1_555
N4 H4 1_555 1_555
N5 C1 1_555 1_555
N6 Pd1 1_555 1_555
N7 Pd1 1_555 1_555
N8 Pd1 1_555 1_555
C1 H5 1_555 1_555
C2 H6 1_555 1_555
C3 C2 1_555 1_555
H7 C3 1_555 1_555
C4 C1 1_555 1_555
H8 C4 1_555 1_555
C5 C4 1_555 1_555
H9 C5 1_555 1_555
C6 C5 1_555 1_555
C7 C6 1_555 1_555
H10 C7 1_555 1_555
C8 N1 1_555 1_555
C9 N5 1_555 1_555
C10 N1 1_555 1_555
C11 N6 1_555 1_555
H11 C11 1_555 1_555
C12 H12 1_555 1_555
C13 C12 1_555 1_555
H13 C13 1_555 1_555
C14 C11 1_555 1_555
H14 C14 1_555 1_555
C15 C14 1_555 1_555
H15 C15 1_555 1_555
C16 C15 1_555 1_555
C17 C16 1_555 1_555
H16 C17 1_555 1_555
C18 N2 1_555 1_555
C19 N6 1_555 1_555
C20 N2 1_555 1_555
C21 N7 1_555 1_555
H17 C21 1_555 1_555
C22 H18 1_555 1_555
C23 C22 1_555 1_555
H19 C23 1_555 1_555
C24 C21 1_555 1_555
H20 C24 1_555 1_555
C25 C24 1_555 1_555
H21 C25 1_555 1_555
C26 C25 1_555 1_555
C27 C26 1_555 1_555
H22 C27 1_555 1_555
C28 N3 1_555 1_555
C29 N7 1_555 1_555
C30 N3 1_555 1_555
C31 N8 1_555 1_555
H23 C31 1_555 1_555
C32 H24 1_555 1_555
C33 C32 1_555 1_555
H25 C33 1_555 1_555
C34 C31 1_555 1_555
H26 C34 1_555 1_555
C35 C34 1_555 1_555
H27 C35 1_555 1_555
C36 C35 1_555 1_555
C37 C36 1_555 1_555
H28 C37 1_555 1_555
C38 N4 1_555 1_555
C39 N8 1_555 1_555
C40 N4 1_555 1_555
C41 C10 1_555 1_555
C42 C41 1_555 1_555
H29 C42 1_555 1_555
C43 C41 1_555 1_555
C44 C43 1_555 1_555
H30 C44 1_555 1_555
C45 C30 1_555 1_555
C46 C45 1_555 1_555
H31 C46 1_555 1_555
C47 C44 1_555 1_555
C48 C42 1_555 1_555
H32 C48 1_555 1_555
O1A C10A 1_555 1_555
O2A C20A 1_555 1_555
O3A C30A 1_555 1_555
O4A C40A 1_555 1_555
N1A H1A 1_555 1_555
N2A H2A 1_555 1_555
N3A H3A 1_555 1_555
N4A H4A 1_555 1_555
N5A C1A 1_555 1_555
N6A C11A 1_555 1_555
N7A C21A 1_555 1_555
N8A C31A 1_555 1_555
C1A H5A 1_555 1_555
C2A H6A 1_555 1_555
C3A C2A 1_555 1_555
H7A C3A 1_555 1_555
C4A C1A 1_555 1_555
H8A C4A 1_555 1_555
C5A C4A 1_555 1_555
H9A C5A 1_555 1_555
C6A C5A 1_555 1_555
C7A C6A 1_555 1_555
H10A C7A 1_555 1_555
C8A N1A 1_555 1_555
C9A N5A 1_555 1_555
C10A N1A 1_555 1_555
C11A H11A 1_555 1_555
C12A H12A 1_555 1_555
C13A C12A 1_555 1_555
H13A C13A 1_555 1_555
C14A C11A 1_555 1_555
H14A C14A 1_555 1_555
C15A C14A 1_555 1_555
H15A C15A 1_555 1_555
C16A C15A 1_555 1_555
C17A C16A 1_555 1_555
H16A C17A 1_555 1_555
C18A N2A 1_555 1_555
C19A N6A 1_555 1_555
C20A N2A 1_555 1_555
C21A H17A 1_555 1_555
C22A H18A 1_555 1_555
C23A C22A 1_555 1_555
H19A C23A 1_555 1_555
C24A C21A 1_555 1_555
H20A C24A 1_555 1_555
C25A C24A 1_555 1_555
H21A C25A 1_555 1_555
C26A C25A 1_555 1_555
C27A C26A 1_555 1_555
H22A C27A 1_555 1_555
C28A N3A 1_555 1_555
C29A N7A 1_555 1_555
C30A N3A 1_555 1_555
C31A H23A 1_555 1_555
C32A H24A 1_555 1_555
C33A C32A 1_555 1_555
H25A C33A 1_555 1_555
C34A C31A 1_555 1_555
H26A C34A 1_555 1_555
C35A C34A 1_555 1_555
H27A C35A 1_555 1_555
C36A C35A 1_555 1_555
C37A C36A 1_555 1_555
H28A C37A 1_555 1_555
C38A N4A 1_555 1_555
C39A N8A 1_555 1_555
C40A N4A 1_555 1_555
C41A C10A 1_555 1_555
C42A C41A 1_555 1_555
H29A C42A 1_555 1_555
C43A C41A 1_555 1_555
C44A C43A 1_555 1_555
H30A C44A 1_555 1_555
C45A C30A 1_555 1_555
C46A C45 1_555 1_555
H31A C46A 1_555 1_555
C47A C44A 1_555 1_555
C48A C42A 1_555 1_555
H32A C48A 1_555 1_555
O1B C10B 1_555 1_555
O2B C20B 1_555 1_555
O3B C30B 1_555 1_555
O4B C40B 1_555 1_555
N1B H1B 1_555 1_555
N2B H2B 1_555 1_555
N3B H3B 1_555 1_555
N4B H4B 1_555 1_555
N5B C1B 1_555 1_555
N6B C11B 1_555 1_555
N7B C21B 1_555 1_555
N8B C31B 1_555 1_555
C1B H5B 1_555 1_555
C2B H6B 1_555 1_555
C3B C2B 1_555 1_555
H7B C3B 1_555 1_555
C4B C1B 1_555 1_555
H8B C4B 1_555 1_555
C5B C4B 1_555 1_555
H9B C5B 1_555 1_555
C6B C5B 1_555 1_555
C7B C6B 1_555 1_555
H10B C7B 1_555 1_555
C8B N1B 1_555 1_555
C9B N5B 1_555 1_555
C10B N1B 1_555 1_555
C11B H11B 1_555 1_555
C12B H12B 1_555 1_555
C13B C12B 1_555 1_555
H13B C13B 1_555 1_555
C14B C11B 1_555 1_555
H14B C14B 1_555 1_555
C15B C14B 1_555 1_555
H15B C15B 1_555 1_555
C16B C15B 1_555 1_555
C17B C16B 1_555 1_555
H16B C17B 1_555 1_555
C18B N2B 1_555 1_555
C19B N6B 1_555 1_555
C20B N2B 1_555 1_555
C21B H17B 1_555 1_555
C22B H18B 1_555 1_555
C23B C22B 1_555 1_555
H19B C23B 1_555 1_555
C24B C21B 1_555 1_555
H20B C24B 1_555 1_555
C25B C24B 1_555 1_555
H21B C25B 1_555 1_555
C26B C25B 1_555 1_555
C27B C26B 1_555 1_555
H22B C27B 1_555 1_555
C28B N3B 1_555 1_555
C29B N7B 1_555 1_555
C30B N3B 1_555 1_555
C31B H23B 1_555 1_555
C32B H24B 1_555 1_555
C33B C32B 1_555 1_555
H25B C33B 1_555 1_555
C34B C31B 1_555 1_555
H26B C34B 1_555 1_555
C35B C34B 1_555 1_555
H27B C35B 1_555 1_555
C36B C35B 1_555 1_555
C37B C36B 1_555 1_555
H28B C37B 1_555 1_555
C38B N4B 1_555 1_555
C39B N8B 1_555 1_555
C40B N4B 1_555 1_555
C41B C10B 1_555 1_555
C42B C41B 1_555 1_555
H29B C42B 1_555 1_555
C43B C41B 1_555 1_555
C44B C43B 1_555 1_555
H30B C44B 1_555 1_555
C45B C46 1_555 1_555
C46B C45A 1_555 1_555
H31B C46B 1_555 1_555
C47B C44B 1_555 1_555
C48B C42B 1_555 1_555
H32B C48B 1_555 1_555
O1J C10J 1_555 1_555
O2J C20J 1_555 1_555
O3J C30J 1_555 1_555
O4J C40J 1_555 1_555
N1J H1J 1_555 1_555
N2J H2J 1_555 1_555
N3J H3J 1_555 1_555
N4J H4J 1_555 1_555
N5J C1J 1_555 1_555
N6J C11J 1_555 1_555
N7J C21J 1_555 1_555
N8J C31J 1_555 1_555
C1J H5J 1_555 1_555
C2J H6J 1_555 1_555
C3J C2J 1_555 1_555
H7J C3J 1_555 1_555
C4J C1J 1_555 1_555
H8J C4J 1_555 1_555
C5J C4J 1_555 1_555
H9J C5J 1_555 1_555
C6J C5J 1_555 1_555
C7J C6J 1_555 1_555
H10J C7J 1_555 1_555
C8J N1J 1_555 1_555
C9J N5J 1_555 1_555
C10J N1J 1_555 1_555
C11J H11J 1_555 1_555
C12J H12J 1_555 1_555
C13J C12J 1_555 1_555
H13J C13J 1_555 1_555
C14J C11J 1_555 1_555
H14J C14J 1_555 1_555
C15J C14J 1_555 1_555
H15J C15J 1_555 1_555
C16J C15J 1_555 1_555
C17J C16J 1_555 1_555
H16J C17J 1_555 1_555
C18J N2J 1_555 1_555
C19J N6J 1_555 1_555
C20J C43 1_555 1_555
C21J H17J 1_555 1_555
C22J H18J 1_555 1_555
C23J C22J 1_555 1_555
H19J C23J 1_555 1_555
C24J C21J 1_555 1_555
H20J C24J 1_555 1_555
C25J C24J 1_555 1_555
H21J C25J 1_555 1_555
C26J C25J 1_555 1_555
C27J C26J 1_555 1_555
H22J C27J 1_555 1_555
C28J N3J 1_555 1_555
C29J N7J 1_555 1_555
C30J N3J 1_555 1_555
C31J H23J 1_555 1_555
C32J H24J 1_555 1_555
C33J C32J 1_555 1_555
H25J C33J 1_555 1_555
C34J C31J 1_555 1_555
H26J C34J 1_555 1_555
C35J C34J 1_555 1_555
H27J C35J 1_555 1_555
C36J C35J 1_555 1_555
C37J C36J 1_555 1_555
H28J C37J 1_555 1_555
C38J N4J 1_555 1_555
C39J N8J 1_555 1_555
C40J C47B 1_555 1_555
C41J C10J 1_555 1_555
C42J C41J 1_555 1_555
H29J C42J 1_555 1_555
C43J C20B 1_555 1_555
C44J C43J 1_555 1_555
H30J C44J 1_555 1_555
C45J C30J 1_555 1_555
C46J C45J 1_555 1_555
H31J C46J 1_555 1_555
C47J C40 1_555 1_555
C48J C42J 1_555 1_555
H32J C48J 1_555 1_555
O1K C10K 1_555 1_555
O2K C20K 1_555 1_555
O3K C30K 1_555 1_555
O4K C40K 1_555 1_555
N1K H1K 1_555 1_555
N2K H2K 1_555 1_555
N3K H3K 1_555 1_555
N4K H4K 1_555 1_555
N5K C1K 1_555 1_555
N6K C11K 1_555 1_555
N7K C21K 1_555 1_555
N8K C31K 1_555 1_555
C1K H5K 1_555 1_555
C2K H6K 1_555 1_555
C3K C2K 1_555 1_555
H7K C3K 1_555 1_555
C4K C1K 1_555 1_555
H8K C4K 1_555 1_555
C5K C4K 1_555 1_555
H9K C5K 1_555 1_555
C6K C5K 1_555 1_555
C7K C6K 1_555 1_555
H10K C7K 1_555 1_555
C8K N1K 1_555 1_555
C9K N5K 1_555 1_555
C10K N1K 1_555 1_555
C11K H11K 1_555 1_555
C12K H12K 1_555 1_555
C13K C12K 1_555 1_555
H13K C13K 1_555 1_555
C14K C11K 1_555 1_555
H14K C14K 1_555 1_555
C15K C14K 1_555 1_555
H15K C15K 1_555 1_555
C16K C15K 1_555 1_555
C17K C16K 1_555 1_555
H16K C17K 1_555 1_555
C18K N2K 1_555 1_555
C19K N6K 1_555 1_555
C20K C43A 1_555 1_555
C21K H17K 1_555 1_555
C22K H18K 1_555 1_555
C23K C22K 1_555 1_555
H19K C23K 1_555 1_555
C24K C21K 1_555 1_555
H20K C24K 1_555 1_555
C25K C24K 1_555 1_555
H21K C25K 1_555 1_555
C26K C25K 1_555 1_555
C27K C26K 1_555 1_555
H22K C27K 1_555 1_555
C28K N3K 1_555 1_555
C29K N7K 1_555 1_555
C30K N3K 1_555 1_555
C31K H23K 1_555 1_555
C32K H24K 1_555 1_555
C33K C32K 1_555 1_555
H25K C33K 1_555 1_555
C34K C31K 1_555 1_555
H26K C34K 1_555 1_555
C35K C34K 1_555 1_555
H27K C35K 1_555 1_555
C36K C35K 1_555 1_555
C37K C36K 1_555 1_555
H28K C37K 1_555 1_555
C38K N4K 1_555 1_555
C39K N8K 1_555 1_555
C40K C47 1_555 1_555
C41K C10K 1_555 1_555
C42K C41K 1_555 1_555
H29K C42K 1_555 1_555
C43K C20 1_555 1_555
C44K C43K 1_555 1_555
H30K C44K 1_555 1_555
C45K C30K 1_555 1_555
C46K C45J 1_555 1_555
H31K C46K 1_555 1_555
C47K C40A 1_555 1_555
C48K C42K 1_555 1_555
H32K C48K 1_555 1_555
O1I C10I 1_555 1_555
O2I C20I 1_555 1_555
O3I C30I 1_555 1_555
O4I C40I 1_555 1_555
N1I H1I 1_555 1_555
N2I H2I 1_555 1_555
N3I H3I 1_555 1_555
N4I H4I 1_555 1_555
N5I C1I 1_555 1_555
N6I C11I 1_555 1_555
N7I C21I 1_555 1_555
N8I C31I 1_555 1_555
C1I H5I 1_555 1_555
C2I H6I 1_555 1_555
C3I C2I 1_555 1_555
H7I C3I 1_555 1_555
C4I C1I 1_555 1_555
H8I C4I 1_555 1_555
C5I C4I 1_555 1_555
H9I C5I 1_555 1_555
C6I C5I 1_555 1_555
C7I C6I 1_555 1_555
H10I C7I 1_555 1_555
C8I N1I 1_555 1_555
C9I N5I 1_555 1_555
C10I N1I 1_555 1_555
C11I H11I 1_555 1_555
C12I H12I 1_555 1_555
C13I C12I 1_555 1_555
H13I C13I 1_555 1_555
C14I C11I 1_555 1_555
H14I C14I 1_555 1_555
C15I C14I 1_555 1_555
H15I C15I 1_555 1_555
C16I C15I 1_555 1_555
C17I C16I 1_555 1_555
H16I C17I 1_555 1_555
C18I N2I 1_555 1_555
C19I N6I 1_555 1_555
C20I C43B 1_555 1_555
C21I H17I 1_555 1_555
C22I H18I 1_555 1_555
C23I C22I 1_555 1_555
H19I C23I 1_555 1_555
C24I C21I 1_555 1_555
H20I C24I 1_555 1_555
C25I C24I 1_555 1_555
H21I C25I 1_555 1_555
C26I C25I 1_555 1_555
C27I C26I 1_555 1_555
H22I C27I 1_555 1_555
C28I N3I 1_555 1_555
C29I N7I 1_555 1_555
C30I N3I 1_555 1_555
C31I H23I 1_555 1_555
C32I H24I 1_555 1_555
C33I C32I 1_555 1_555
H25I C33I 1_555 1_555
C34I C31I 1_555 1_555
H26I C34I 1_555 1_555
C35I C34I 1_555 1_555
H27I C35I 1_555 1_555
C36I C35I 1_555 1_555
C37I C36I 1_555 1_555
H28I C37I 1_555 1_555
C38I N4I 1_555 1_555
C39I N8I 1_555 1_555
C40I C47A 1_555 1_555
C41I C10I 1_555 1_555
C42I C41I 1_555 1_555
H29I C42I 1_555 1_555
C43I C20A 1_555 1_555
C44I C43I 1_555 1_555
H30I C44I 1_555 1_555
C45I C46J 1_555 1_555
C46I C45K 1_555 1_555
H31I C46I 1_555 1_555
C47I C40B 1_555 1_555
C48I C42I 1_555 1_555
H32I C48I 1_555 1_555
Pd1A N5A 1_555 1_555
Pd1B N5B 1_555 1_555
Pd1I N5I 1_555 1_555
Pd1J N5J 1_555 1_555
Pd1K N5K 1_555 1_555
C2 C8 1_555 1_555
C3 C9 1_555 1_555
C6 C9 1_555 1_555
C7 C8 1_555 1_555
C12 C18 1_555 1_555
C13 C19 1_555 1_555
C16 C19 1_555 1_555
C17 C18 1_555 1_555
C22 C28 1_555 1_555
C23 C29 1_555 1_555
C26 C29 1_555 1_555
C27 C28 1_555 1_555
C32 C38 1_555 1_555
C33 C39 1_555 1_555
C36 C39 1_555 1_555
C37 C38 1_555 1_555
C47 C48 1_555 1_555
N6A Pd1A 1_555 1_555
N7A Pd1A 1_555 1_555
N8A Pd1A 1_555 1_555
C2A C8A 1_555 1_555
C3A C9A 1_555 1_555
C6A C9A 1_555 1_555
C7A C8A 1_555 1_555
C12A C18A 1_555 1_555
C13A C19A 1_555 1_555
C16A C19A 1_555 1_555
C17A C18A 1_555 1_555
C22A C28A 1_555 1_555
C23A C29A 1_555 1_555
C26A C29A 1_555 1_555
C27A C28A 1_555 1_555
C32A C38A 1_555 1_555
C33A C39A 1_555 1_555
C36A C39A 1_555 1_555
C37A C38A 1_555 1_555
C45A C46A 1_555 1_555
C47A C48A 1_555 1_555
N6B Pd1B 1_555 1_555
N7B Pd1B 1_555 1_555
N8B Pd1B 1_555 1_555
C2B C8B 1_555 1_555
C3B C9B 1_555 1_555
C6B C9B 1_555 1_555
C7B C8B 1_555 1_555
C12B C18B 1_555 1_555
C13B C19B 1_555 1_555
C16B C19B 1_555 1_555
C17B C18B 1_555 1_555
C22B C28B 1_555 1_555
C23B C29B 1_555 1_555
C26B C29B 1_555 1_555
C27B C28B 1_555 1_555
C30B C45B 1_555 1_555
C32B C38B 1_555 1_555
C33B C39B 1_555 1_555
C36B C39B 1_555 1_555
C37B C38B 1_555 1_555
C45B C46B 1_555 1_555
C47B C48B 1_555 1_555
N2J C20J 1_555 1_555
N4J C40J 1_555 1_555
N6J Pd1J 1_555 1_555
N7J Pd1J 1_555 1_555
N8J Pd1J 1_555 1_555
C2J C8J 1_555 1_555
C3J C9J 1_555 1_555
C6J C9J 1_555 1_555
C7J C8J 1_555 1_555
C12J C18J 1_555 1_555
C13J C19J 1_555 1_555
C16J C19J 1_555 1_555
C17J C18J 1_555 1_555
C22J C28J 1_555 1_555
C23J C29J 1_555 1_555
C26J C29J 1_555 1_555
C27J C28J 1_555 1_555
C32J C38J 1_555 1_555
C33J C39J 1_555 1_555
C36J C39J 1_555 1_555
C37J C38J 1_555 1_555
C41J C43J 1_555 1_555
C44J C47J 1_555 1_555
C47J C48J 1_555 1_555
N2K C20K 1_555 1_555
N4K C40K 1_555 1_555
N6K Pd1K 1_555 1_555
N7K Pd1K 1_555 1_555
N8K Pd1K 1_555 1_555
C2K C8K 1_555 1_555
C3K C9K 1_555 1_555
C6K C9K 1_555 1_555
C7K C8K 1_555 1_555
C12K C18K 1_555 1_555
C13K C19K 1_555 1_555
C16K C19K 1_555 1_555
C17K C18K 1_555 1_555
C22K C28K 1_555 1_555
C23K C29K 1_555 1_555
C26K C29K 1_555 1_555
C27K C28K 1_555 1_555
C32K C38K 1_555 1_555
C33K C39K 1_555 1_555
C36K C39K 1_555 1_555
C37K C38K 1_555 1_555
C41K C43K 1_555 1_555
C44K C47K 1_555 1_555
C45K C46K 1_555 1_555
C47K C48K 1_555 1_555
N2I C20I 1_555 1_555
N4I C40I 1_555 1_555
N6I Pd1I 1_555 1_555
N7I Pd1I 1_555 1_555
N8I Pd1I 1_555 1_555
C2I C8I 1_555 1_555
C3I C9I 1_555 1_555
C6I C9I 1_555 1_555
C7I C8I 1_555 1_555
C12I C18I 1_555 1_555
C13I C19I 1_555 1_555
C16I C19I 1_555 1_555
C17I C18I 1_555 1_555
C22I C28I 1_555 1_555
C23I C29I 1_555 1_555
C26I C29I 1_555 1_555
C27I C28I 1_555 1_555
C30I C45I 1_555 1_555
C32I C38I 1_555 1_555
C33I C39I 1_555 1_555
C36I C39I 1_555 1_555
C37I C38I 1_555 1_555
C41I C43I 1_555 1_555
C44I C47I 1_555 1_555
C45I C46I 1_555 1_555
C47I C48I 1_555 1_555

#END
