# generated using pymatgen
data_H64PdC76(N3O2)4
_symmetry_space_group_name_H-M   'P 1'
_cell_length_a   27.63428976
_cell_length_b   27.63428976
_cell_length_c   27.63530000
_cell_angle_alpha   109.47196118
_cell_angle_beta   109.47196118
_cell_angle_gamma   109.47048008
_symmetry_Int_Tables_number   1
_chemical_formula_structural   H64PdC76(N3O2)4
_chemical_formula_sum   'H384 Pd6 C456 N72 O48'
_cell_volume   16245.56940101
_cell_formula_units_Z   6
loop_
 _symmetry_equiv_pos_site_id
 _symmetry_equiv_pos_as_xyz
  1  'x, y, z'
loop_
 _atom_site_type_symbol
 _atom_site_label
 _atom_site_symmetry_multiplicity
 _atom_site_fract_x
 _atom_site_fract_y
 _atom_site_fract_z
 _atom_site_occupancy
  C  C1  1  0.448000  0.556600  0.857000  1
  C  C2  1  0.108600  0.552000  0.409000  1
  C  C3  1  0.443400  0.891400  0.300400  1
  C  C4  1  0.552000  0.443400  0.143000  1
  C  C5  1  0.891400  0.448000  0.591000  1
  C  C6  1  0.556600  0.108600  0.699600  1
  C  C7  1  0.457290  0.555740  0.809910  1
  C  C8  1  0.098450  0.542710  0.352620  1
  C  C9  1  0.444260  0.901550  0.254170  1
  C  C10  1  0.542710  0.444260  0.190090  1
  C  C11  1  0.901550  0.457290  0.647380  1
  C  C12  1  0.555740  0.098450  0.745830  1
  C  C13  1  0.517150  0.579700  0.821250  1
  C  C14  1  0.062550  0.482850  0.304100  1
  C  C15  1  0.420300  0.937450  0.241550  1
  C  C16  1  0.482850  0.420300  0.178750  1
  C  C17  1  0.937450  0.517150  0.695900  1
  C  C18  1  0.579700  0.062550  0.758450  1
  C  C19  1  0.529900  0.583240  0.778480  1
  C  C20  1  0.053340  0.470100  0.248580  1
  C  C21  1  0.416760  0.946660  0.195240  1
  C  C22  1  0.470100  0.416760  0.221520  1
  C  C23  1  0.946660  0.529900  0.751420  1
  C  C24  1  0.583240  0.053340  0.804760  1
  C  C25  1  0.589500  0.608300  0.791400  1
  C  C26  1  0.018800  0.410500  0.201900  1
  C  C27  1  0.391700  0.981200  0.183100  1
  C  C28  1  0.410500  0.391700  0.208600  1
  C  C29  1  0.981200  0.589500  0.798100  1
  C  C30  1  0.608300  0.018800  0.816900  1
  C  C31  1  0.562780  0.597220  0.876000  1
  C  C32  1  0.034440  0.437220  0.313220  1
  C  C33  1  0.402780  0.965560  0.278780  1
  C  C34  1  0.437220  0.402780  0.124000  1
  C  C35  1  0.965560  0.562780  0.686780  1
  C  C36  1  0.597220  0.034440  0.721220  1
  C  C37  1  0.574640  0.616680  0.701440  1
  C  C38  1  0.042040  0.425360  0.126800  1
  C  C39  1  0.383320  0.957960  0.084760  1
  C  C40  1  0.425360  0.383320  0.298560  1
  C  C41  1  0.957960  0.574640  0.873200  1
  C  C42  1  0.616680  0.042040  0.915240  1
  C  C43  1  0.556400  0.700500  0.108900  1
  C  C44  1  0.144100  0.443600  0.552500  1
  C  C45  1  0.299500  0.855900  0.408400  1
  C  C46  1  0.443600  0.299500  0.891100  1
  C  C47  1  0.855900  0.556400  0.447500  1
  C  C48  1  0.700500  0.144100  0.591600  1
  C  C49  1  0.555610  0.745390  0.097700  1
  C  C50  1  0.189780  0.444390  0.542090  1
  C  C51  1  0.254610  0.810220  0.352310  1
  C  C52  1  0.444390  0.254610  0.902300  1
  C  C53  1  0.810220  0.555610  0.457910  1
  C  C54  1  0.745390  0.189780  0.647690  1
  C  C55  1  0.579920  0.758550  0.063290  1
  C  C56  1  0.178630  0.420080  0.483370  1
  C  C57  1  0.241450  0.821370  0.304740  1
  C  C58  1  0.420080  0.241450  0.936710  1
  C  C59  1  0.821370  0.579920  0.516630  1
  C  C60  1  0.758550  0.178630  0.695260  1
  C  C61  1  0.583800  0.805310  0.053270  1
  C  C62  1  0.221510  0.416200  0.469470  1
  C  C63  1  0.194690  0.778490  0.247960  1
  C  C64  1  0.416200  0.194690  0.946730  1
  C  C65  1  0.778490  0.583800  0.530530  1
  C  C66  1  0.805310  0.221510  0.752040  1
  C  C67  1  0.607300  0.817600  0.019500  1
  C  C68  1  0.210300  0.392700  0.412200  1
  C  C69  1  0.182400  0.789700  0.201900  1
  C  C70  1  0.392700  0.182400  0.980500  1
  C  C71  1  0.789700  0.607300  0.587800  1
  C  C72  1  0.817600  0.210300  0.798100  1
  C  C73  1  0.598100  0.721320  0.034640  1
  C  C74  1  0.123220  0.401900  0.436540  1
  C  C75  1  0.278680  0.876780  0.313320  1
  C  C76  1  0.401900  0.278680  0.965360  1
  C  C77  1  0.876780  0.598100  0.563460  1
  C  C78  1  0.721320  0.123220  0.686680  1
  C  C79  1  0.617360  0.915270  0.042110  1
  C  C80  1  0.297910  0.382640  0.424750  1
  C  C81  1  0.084730  0.702090  0.126840  1
  C  C82  1  0.382640  0.084730  0.957890  1
  C  C83  1  0.702090  0.617360  0.575250  1
  C  C84  1  0.915270  0.297910  0.873160  1
  C  C85  1  0.700300  0.591700  0.144800  1
  C  C86  1  0.891400  0.299700  0.444500  1
  C  C87  1  0.408300  0.108600  0.553100  1
  C  C88  1  0.299700  0.408300  0.855200  1
  C  C89  1  0.108600  0.700300  0.555500  1
  C  C90  1  0.591700  0.891400  0.446900  1
  C  C91  1  0.745390  0.647710  0.190200  1
  C  C92  1  0.902320  0.254610  0.444810  1
  C  C93  1  0.352290  0.097680  0.542490  1
  C  C94  1  0.254610  0.352290  0.809800  1
  C  C95  1  0.097680  0.745390  0.555190  1
  C  C96  1  0.647710  0.902320  0.457510  1
  C  C97  1  0.758600  0.695400  0.179200  1
  C  C98  1  0.936800  0.241400  0.420600  1
  C  C99  1  0.304600  0.063200  0.483800  1
  C  C100  1  0.241400  0.304600  0.820800  1
  C  C101  1  0.063200  0.758600  0.579400  1
  C  C102  1  0.695400  0.936800  0.516200  1
  C  C103  1  0.805150  0.751780  0.221510  1
  C  C104  1  0.946630  0.194850  0.416360  1
  C  C105  1  0.248220  0.053370  0.469730  1
  C  C106  1  0.194850  0.248220  0.778490  1
  C  C107  1  0.053370  0.805150  0.583640  1
  C  C108  1  0.751780  0.946630  0.530270  1
  C  C109  1  0.817900  0.798400  0.209600  1
  C  C110  1  0.980500  0.182100  0.391700  1
  C  C111  1  0.201600  0.019500  0.411200  1
  C  C112  1  0.182100  0.201600  0.790400  1
  C  C113  1  0.019500  0.817900  0.608300  1
  C  C114  1  0.798400  0.980500  0.588800  1
  C  C115  1  0.720590  0.686220  0.123270  1
  C  C116  1  0.965630  0.279410  0.402680  1
  C  C117  1  0.313780  0.034370  0.437050  1
  C  C118  1  0.279410  0.313780  0.876730  1
  C  C119  1  0.034370  0.720590  0.597320  1
  C  C120  1  0.686220  0.965630  0.562950  1
  C  C121  1  0.914570  0.873540  0.298470  1
  C  C122  1  0.958970  0.085430  0.383900  1
  C  C123  1  0.126460  0.041030  0.424930  1
  C  C124  1  0.085430  0.126460  0.701530  1
  C  C125  1  0.041030  0.914570  0.616100  1
  C  C126  1  0.873540  0.958970  0.575070  1
  C  C127  1  0.591300  0.446600  0.890600  1
  C  C128  1  0.855300  0.408700  0.299300  1
  C  C129  1  0.553400  0.144700  0.444000  1
  C  C130  1  0.408700  0.553400  0.109400  1
  C  C131  1  0.144700  0.591300  0.700700  1
  C  C132  1  0.446600  0.855300  0.556000  1
  C  C133  1  0.647900  0.457500  0.902000  1
  C  C134  1  0.809600  0.352100  0.254100  1
  C  C135  1  0.542500  0.190400  0.444500  1
  C  C136  1  0.352100  0.542500  0.098000  1
  C  C137  1  0.190400  0.647900  0.745900  1
  C  C138  1  0.457500  0.809600  0.555500  1
  C  C139  1  0.695350  0.516250  0.936800  1
  C  C140  1  0.820900  0.304650  0.241450  1
  C  C141  1  0.483750  0.179100  0.420550  1
  C  C142  1  0.304650  0.483750  0.063200  1
  C  C143  1  0.179100  0.695350  0.758550  1
  C  C144  1  0.516250  0.820900  0.579450  1
  C  C145  1  0.751560  0.530240  0.946500  1
  C  C146  1  0.778680  0.248440  0.194940  1
  C  C147  1  0.469760  0.221320  0.416260  1
  C  C148  1  0.248440  0.469760  0.053500  1
  C  C149  1  0.221320  0.751560  0.805060  1
  C  C150  1  0.530240  0.778680  0.583740  1
  C  C151  1  0.798100  0.588400  0.980700  1
  C  C152  1  0.790300  0.201900  0.182600  1
  C  C153  1  0.411600  0.209700  0.392300  1
  C  C154  1  0.201900  0.411600  0.019300  1
  C  C155  1  0.209700  0.798100  0.817400  1
  C  C156  1  0.588400  0.790300  0.607700  1
  C  C157  1  0.686860  0.562960  0.965440  1
  C  C158  1  0.876100  0.313140  0.278580  1
  C  C159  1  0.437040  0.123900  0.402480  1
  C  C160  1  0.313140  0.437040  0.034560  1
  C  C161  1  0.123900  0.686860  0.721420  1
  C  C162  1  0.562960  0.876100  0.597520  1
  C  C163  1  0.872300  0.574500  0.958000  1
  C  C164  1  0.702200  0.127700  0.085700  1
  C  C165  1  0.425500  0.297800  0.383500  1
  C  C166  1  0.127700  0.425500  0.042000  1
  C  C167  1  0.297800  0.872300  0.914300  1
  C  C168  1  0.574500  0.702200  0.616500  1
  C  C169  1  0.576490  0.494020  0.917470  1.0
  C  C170  1  0.917530  0.423510  0.340980  1.0
  C  C171  1  0.505980  0.082470  0.423450  1.0
  C  C172  1  0.423510  0.505980  0.082530  1.0
  C  C173  1  0.082470  0.576490  0.659020  1.0
  C  C174  1  0.494020  0.917530  0.576550  1.0
  C  C175  1  0.629680  0.629440  0.845830  1.0
  C  C176  1  0.999760  0.370320  0.216150  1.0
  C  C177  1  0.370560  0.000240  0.216390  1.0
  C  C178  1  0.370320  0.370560  0.154170  1.0
  C  C179  1  0.000240  0.629680  0.783850  1.0
  C  C180  1  0.629440  0.999760  0.783610  1.0
  C  C181  1  0.620720  0.620760  0.887200  1.0
  C  C182  1  0.000040  0.379280  0.266480  1.0
  C  C183  1  0.379240  0.999960  0.266440  1.0
  C  C184  1  0.379280  0.379240  0.112800  1.0
  C  C185  1  0.999960  0.620720  0.733520  1.0
  C  C186  1  0.620760  0.000040  0.733560  1.0
  C  C187  1  0.555790  0.446680  0.854990  1.0
  C  C188  1  0.890890  0.444210  0.299200  1.0
  C  C189  1  0.553320  0.109110  0.408310  1.0
  C  C190  1  0.444210  0.553320  0.145010  1.0
  C  C191  1  0.109110  0.555790  0.700800  1.0
  C  C192  1  0.446680  0.890890  0.591690  1.0
  C  C193  1  0.556170  0.458150  0.810040  1.0
  C  C194  1  0.901980  0.443830  0.253870  1.0
  C  C195  1  0.541850  0.098020  0.351890  1.0
  C  C196  1  0.443830  0.541850  0.189960  1.0
  C  C197  1  0.098020  0.556170  0.746130  1.0
  C  C198  1  0.458150  0.901980  0.648110  1.0
  C  C199  1  0.579350  0.516420  0.820890  1.0
  C  C200  1  0.937070  0.420650  0.241540  1.0
  C  C201  1  0.483580  0.062930  0.304470  1.0
  C  C202  1  0.420650  0.483580  0.179110  1.0
  C  C203  1  0.062930  0.579350  0.758460  1.0
  C  C204  1  0.516420  0.937070  0.695530  1.0
  C  C205  1  0.583970  0.530520  0.778130  1.0
  C  C206  1  0.946550  0.416030  0.194160  1.0
  C  C207  1  0.469480  0.053450  0.247610  1.0
  C  C208  1  0.416030  0.469480  0.221870  1.0
  C  C209  1  0.053450  0.583970  0.805840  1.0
  C  C210  1  0.530520  0.946550  0.752390  1.0
  C  C211  1  0.607600  0.587800  0.790000  1.0
  C  C212  1  0.980200  0.392400  0.182400  1.0
  C  C213  1  0.412200  0.019800  0.202200  1.0
  C  C214  1  0.392400  0.412200  0.210000  1.0
  C  C215  1  0.019800  0.607600  0.817600  1.0
  C  C216  1  0.587800  0.980200  0.797800  1.0
  C  C217  1  0.597600  0.563570  0.876590  1.0
  C  C218  1  0.965970  0.402400  0.278990  1.0
  C  C219  1  0.436430  0.034030  0.313020  1.0
  C  C220  1  0.402400  0.436430  0.123410  1.0
  C  C221  1  0.034030  0.597600  0.721010  1.0
  C  C222  1  0.563570  0.965970  0.686980  1.0
  C  C223  1  0.616320  0.574130  0.701450  1.0
  C  C224  1  0.957810  0.383680  0.085130  1.0
  C  C225  1  0.425870  0.042190  0.127320  1.0
  C  C226  1  0.383680  0.425870  0.298550  1.0
  C  C227  1  0.042190  0.616320  0.914870  1.0
  C  C228  1  0.574130  0.957810  0.872680  1.0
  C  C229  1  0.493890  0.576500  0.917400  1.0
  C  C230  1  0.082610  0.506110  0.423510  1.0
  C  C231  1  0.423500  0.917390  0.340900  1.0
  C  C232  1  0.506110  0.423500  0.082600  1.0
  C  C233  1  0.917390  0.493890  0.576490  1.0
  C  C234  1  0.576500  0.082610  0.659100  1.0
  C  C235  1  0.629430  0.783740  0.000080  1.0
  C  C236  1  0.154310  0.370570  0.370650  1.0
  C  C237  1  0.216260  0.845690  0.216340  1.0
  C  C238  1  0.370570  0.216260  0.999920  1.0
  C  C239  1  0.845690  0.629430  0.629350  1.0
  C  C240  1  0.783740  0.154310  0.783660  1.0
  C  C241  1  0.620400  0.733100  0.999980  1.0
  C  C242  1  0.112700  0.379600  0.379580  1.0
  C  C243  1  0.266900  0.887300  0.266880  1.0
  C  C244  1  0.379600  0.266900  0.000020  1.0
  C  C245  1  0.887300  0.620400  0.620420  1.0
  C  C246  1  0.733100  0.112700  0.733120  1.0
  C  C247  1  0.446800  0.591700  0.890800  1.0
  C  C248  1  0.144900  0.553200  0.444000  1.0
  C  C249  1  0.408300  0.855100  0.299100  1.0
  C  C250  1  0.553200  0.408300  0.109200  1.0
  C  C251  1  0.855100  0.446800  0.556000  1.0
  C  C252  1  0.591700  0.144900  0.700900  1.0
  C  C253  1  0.457490  0.647580  0.902290  1.0
  C  C254  1  0.190090  0.542510  0.444800  1.0
  C  C255  1  0.352420  0.809910  0.254710  1.0
  C  C256  1  0.542510  0.352420  0.097710  1.0
  C  C257  1  0.809910  0.457490  0.555200  1.0
  C  C258  1  0.647580  0.190090  0.745290  1.0
  C  C259  1  0.516540  0.695360  0.937000  1.0
  C  C260  1  0.178820  0.483460  0.420460  1.0
  C  C261  1  0.304640  0.821180  0.241640  1.0
  C  C262  1  0.483460  0.304640  0.063000  1.0
  C  C263  1  0.821180  0.516540  0.579540  1.0
  C  C264  1  0.695360  0.178820  0.758360  1.0
  C  C265  1  0.530060  0.751800  0.946820  1.0
  C  C266  1  0.221740  0.469940  0.416760  1.0
  C  C267  1  0.248200  0.778260  0.195020  1.0
  C  C268  1  0.469940  0.248200  0.053180  1.0
  C  C269  1  0.778260  0.530060  0.583240  1.0
  C  C270  1  0.751800  0.221740  0.804980  1.0
  C  C271  1  0.589100  0.799200  0.981000  1.0
  C  C272  1  0.210100  0.410900  0.391900  1.0
  C  C273  1  0.200800  0.789900  0.181800  1.0
  C  C274  1  0.410900  0.200800  0.019000  1.0
  C  C275  1  0.789900  0.589100  0.608100  1.0
  C  C276  1  0.799200  0.210100  0.818200  1.0
  C  C277  1  0.562810  0.686320  0.965610  1.0
  C  C278  1  0.123510  0.437190  0.402800  1.0
  C  C279  1  0.313680  0.876490  0.279290  1.0
  C  C280  1  0.437190  0.313680  0.034390  1.0
  C  C281  1  0.876490  0.562810  0.597200  1.0
  C  C282  1  0.686320  0.123510  0.720710  1.0
  C  C283  1  0.574700  0.872700  0.958600  1.0
  C  C284  1  0.298000  0.425300  0.383900  1.0
  C  C285  1  0.127300  0.702000  0.085900  1.0
  C  C286  1  0.425300  0.127300  0.041400  1.0
  C  C287  1  0.702000  0.574700  0.616100  1.0
  C  C288  1  0.872700  0.298000  0.914100  1.0
  C  C289  1  0.576580  0.659290  0.082760  1.0
  C  C290  1  0.082710  0.423420  0.506180  1.0
  C  C291  1  0.340710  0.917290  0.423470  1.0
  C  C292  1  0.423420  0.340710  0.917240  1.0
  C  C293  1  0.917290  0.576580  0.493820  1.0
  C  C294  1  0.659290  0.082710  0.576530  1.0
  C  C295  1  0.783640  0.783580  0.154270  1.0
  C  C296  1  0.999940  0.216360  0.370630  1.0
  C  C297  1  0.216420  0.000060  0.370690  1.0
  C  C298  1  0.216360  0.216420  0.845730  1.0
  C  C299  1  0.000060  0.783640  0.629370  1.0
  C  C300  1  0.783580  0.999940  0.629310  1.0
  C  C301  1  0.733360  0.733330  0.112800  1.0
  C  C302  1  0.999970  0.266640  0.379440  1.0
  C  C303  1  0.266670  0.000030  0.379470  1.0
  C  C304  1  0.266640  0.266670  0.887200  1.0
  C  C305  1  0.000030  0.733360  0.620560  1.0
  C  C306  1  0.733330  0.999970  0.620530  1.0
  C  C307  1  0.590800  0.700300  0.144000  1.0
  C  C308  1  0.109500  0.409200  0.553200  1.0
  C  C309  1  0.299700  0.890500  0.443700  1.0
  C  C310  1  0.409200  0.299700  0.856000  1.0
  C  C311  1  0.890500  0.590800  0.446800  1.0
  C  C312  1  0.700300  0.109500  0.556300  1.0
  C  C313  1  0.647080  0.746020  0.190200  1.0
  C  C314  1  0.098940  0.352920  0.543120  1.0
  C  C315  1  0.253980  0.901060  0.444180  1.0
  C  C316  1  0.352920  0.253980  0.809800  1.0
  C  C317  1  0.901060  0.647080  0.456880  1.0
  C  C318  1  0.746020  0.098940  0.555820  1.0
  C  C319  1  0.695500  0.758530  0.178710  1.0
  C  C320  1  0.063030  0.304500  0.483210  1.0
  C  C321  1  0.241470  0.936970  0.420180  1.0
  C  C322  1  0.304500  0.241470  0.821290  1.0
  C  C323  1  0.936970  0.695500  0.516790  1.0
  C  C324  1  0.758530  0.063030  0.579820  1.0
  C  C325  1  0.751900  0.805750  0.221950  1.0
  C  C326  1  0.053850  0.248100  0.470050  1.0
  C  C327  1  0.194250  0.946150  0.416200  1.0
  C  C328  1  0.248100  0.194250  0.778050  1.0
  C  C329  1  0.946150  0.751900  0.529950  1.0
  C  C330  1  0.805750  0.053850  0.583800  1.0
  C  C331  1  0.798100  0.817600  0.209800  1.0
  C  C332  1  0.019500  0.201900  0.411700  1.0
  C  C333  1  0.182400  0.980500  0.392200  1.0
  C  C334  1  0.201900  0.182400  0.790200  1.0
  C  C335  1  0.980500  0.798100  0.588300  1.0
  C  C336  1  0.817600  0.019500  0.607800  1.0
  C  C337  1  0.686480  0.720870  0.123850  1.0
  C  C338  1  0.034390  0.313520  0.437370  1.0
  C  C339  1  0.279130  0.965610  0.402980  1.0
  C  C340  1  0.313520  0.279130  0.876150  1.0
  C  C341  1  0.965610  0.686480  0.562630  1.0
  C  C342  1  0.720870  0.034390  0.597020  1.0
  C  C343  1  0.872590  0.914980  0.298490  1.0
  C  C344  1  0.042390  0.127410  0.425900  1.0
  C  C345  1  0.085020  0.957610  0.383510  1.0
  C  C346  1  0.127410  0.085020  0.701510  1.0
  C  C347  1  0.957610  0.872590  0.574100  1.0
  C  C348  1  0.914980  0.042390  0.616490  1.0
  C  C349  1  0.658980  0.576500  0.082490  1.0
  C  C350  1  0.917520  0.341020  0.423510  1.0
  C  C351  1  0.423500  0.082480  0.505990  1.0
  C  C352  1  0.341020  0.423500  0.917510  1.0
  C  C353  1  0.082480  0.658980  0.576490  1.0
  C  C354  1  0.576500  0.917520  0.494010  1.0
  C  C355  1  0.783950  0.629340  0.000150  1.0
  C  C356  1  0.845390  0.216050  0.216200  1.0
  C  C357  1  0.370660  0.154610  0.370810  1.0
  C  C358  1  0.216050  0.370660  0.999850  1.0
  C  C359  1  0.154610  0.783950  0.783800  1.0
  C  C360  1  0.629340  0.845390  0.629190  1.0
  C  C361  1  0.733290  0.620750  0.000170  1.0
  C  C362  1  0.887460  0.266710  0.266880  1.0
  C  C363  1  0.379250  0.112540  0.379420  1.0
  C  C364  1  0.266710  0.379250  0.999830  1.0
  C  C365  1  0.112540  0.733290  0.733120  1.0
  C  C366  1  0.620750  0.887460  0.620580  1.0
  C  C367  1  0.699940  0.556180  0.108940  1.0
  C  C368  1  0.856240  0.300060  0.409000  1.0
  C  C369  1  0.443820  0.143760  0.552760  1.0
  C  C370  1  0.300060  0.443820  0.891060  1.0
  C  C371  1  0.143760  0.699940  0.591000  1.0
  C  C372  1  0.556180  0.856240  0.447240  1.0
  C  C373  1  0.745600  0.555400  0.098300  1.0
  C  C374  1  0.809800  0.254400  0.352700  1.0
  C  C375  1  0.444600  0.190200  0.542900  1.0
  C  C376  1  0.254400  0.444600  0.901700  1.0
  C  C377  1  0.190200  0.745600  0.647300  1.0
  C  C378  1  0.555400  0.809800  0.457100  1.0
  C  C379  1  0.759140  0.579720  0.063520  1.0
  C  C380  1  0.820580  0.240860  0.304380  1.0
  C  C381  1  0.420280  0.179420  0.483800  1.0
  C  C382  1  0.240860  0.420280  0.936480  1.0
  C  C383  1  0.179420  0.759140  0.695620  1.0
  C  C384  1  0.579720  0.820580  0.516200  1.0
  C  C385  1  0.805710  0.583790  0.053900  1.0
  C  C386  1  0.778080  0.194290  0.248190  1.0
  C  C387  1  0.416210  0.221920  0.470110  1.0
  C  C388  1  0.194290  0.416210  0.946100  1.0
  C  C389  1  0.221920  0.805710  0.751810  1.0
  C  C390  1  0.583790  0.778080  0.529890  1.0
  C  C391  1  0.818100  0.608000  0.019900  1.0
  C  C392  1  0.789900  0.181900  0.201800  1.0
  C  C393  1  0.392000  0.210100  0.411900  1.0
  C  C394  1  0.181900  0.392000  0.980100  1.0
  C  C395  1  0.210100  0.818100  0.798200  1.0
  C  C396  1  0.608000  0.789900  0.588100  1.0
  C  C397  1  0.720690  0.597140  0.034210  1.0
  C  C398  1  0.876450  0.279310  0.313520  1.0
  C  C399  1  0.402860  0.123550  0.437070  1.0
  C  C400  1  0.279310  0.402860  0.965790  1.0
  C  C401  1  0.123550  0.720690  0.686480  1.0
  C  C402  1  0.597140  0.876450  0.562930  1.0
  C  C403  1  0.914620  0.615730  0.042050  1.0
  C  C404  1  0.701110  0.085380  0.127430  1.0
  C  C405  1  0.384270  0.298890  0.426320  1.0
  C  C406  1  0.085380  0.384270  0.957950  1.0
  C  C407  1  0.298890  0.914620  0.872570  1.0
  C  C408  1  0.615730  0.701110  0.573680  1.0
  C  C409  1  0.632890  0.603520  0.663070  1.0
  C  C410  1  0.970630  0.367110  0.030180  1.0
  C  C411  1  0.396480  0.029370  0.059550  1.0
  C  C412  1  0.367110  0.396480  0.336930  1.0
  C  C413  1  0.029370  0.632890  0.969820  1.0
  C  C414  1  0.603520  0.970630  0.940450  1.0
  C  C415  1  0.603310  0.632380  0.662590  1.0
  C  C416  1  0.029070  0.396690  0.059280  1.0
  C  C417  1  0.367620  0.970930  0.030210  1.0
  C  C418  1  0.396690  0.367620  0.337410  1.0
  C  C419  1  0.970930  0.603310  0.940720  1.0
  C  C420  1  0.632380  0.029070  0.969790  1.0
  C  C421  1  0.662070  0.602840  0.632870  1.0
  C  C422  1  0.940770  0.337930  0.970800  1.0
  C  C423  1  0.397160  0.059230  0.030030  1.0
  C  C424  1  0.337930  0.397160  0.367130  1.0
  C  C425  1  0.059230  0.662070  0.029200  1.0
  C  C426  1  0.602840  0.940770  0.969970  1.0
  C  C427  1  0.662930  0.631920  0.603280  1.0
  C  C428  1  0.968990  0.337070  0.940350  1.0
  C  C429  1  0.368080  0.031010  0.971360  1.0
  C  C430  1  0.337070  0.368080  0.396720  1.0
  C  C431  1  0.031010  0.662930  0.059650  1.0
  C  C432  1  0.631920  0.968990  0.028640  1.0
  C  C433  1  0.940760  0.970230  0.337770  1.0
  C  C434  1  0.029470  0.059240  0.397010  1.0
  C  C435  1  0.029770  0.970530  0.367540  1.0
  C  C436  1  0.059240  0.029770  0.662230  1.0
  C  C437  1  0.970530  0.940760  0.602990  1.0
  C  C438  1  0.970230  0.029470  0.632460  1.0
  C  C439  1  0.969760  0.940720  0.337000  1.0
  C  C440  1  0.970960  0.030240  0.367240  1.0
  C  C441  1  0.059280  0.029040  0.396280  1.0
  C  C442  1  0.030240  0.059280  0.663000  1.0
  C  C443  1  0.029040  0.969760  0.632760  1.0
  C  C444  1  0.940720  0.970960  0.603720  1.0
  C  C445  1  0.632560  0.662560  0.603490  1.0
  C  C446  1  0.030000  0.367440  0.970930  1.0
  C  C447  1  0.337440  0.970000  0.940930  1.0
  C  C448  1  0.367440  0.337440  0.396510  1.0
  C  C449  1  0.970000  0.632560  0.029070  1.0
  C  C450  1  0.662560  0.030000  0.059070  1.0
  C  C451  1  0.603090  0.662240  0.632610  1.0
  C  C452  1  0.059150  0.396910  0.029520  1.0
  C  C453  1  0.337760  0.940850  0.970370  1.0
  C  C454  1  0.396910  0.337760  0.367390  1.0
  C  C455  1  0.940850  0.603090  0.970480  1.0
  C  C456  1  0.662240  0.059150  0.029630  1.0
  H  H457  1  0.640900  0.607000  0.752300  1
  H  H458  1  0.966100  0.359100  0.111400  1
  H  H459  1  0.393000  0.033900  0.145300  1
  H  H460  1  0.359100  0.393000  0.247700  1
  H  H461  1  0.033900  0.640900  0.888600  1
  H  H462  1  0.607000  0.966100  0.854700  1
  H  H463  1  0.607600  0.854500  0.966600  1
  H  H464  1  0.246900  0.392400  0.359000  1
  H  H465  1  0.145500  0.753100  0.112100  1
  H  H466  1  0.392400  0.145500  0.033400  1
  H  H467  1  0.753100  0.607600  0.641000  1
  H  H468  1  0.854500  0.246900  0.887900  1
  H  H469  1  0.854900  0.888000  0.246800  1
  H  H470  1  0.033100  0.145100  0.391900  1
  H  H471  1  0.112000  0.966900  0.358800  1
  H  H472  1  0.145100  0.112000  0.753200  1
  H  H473  1  0.966900  0.854900  0.608100  1
  H  H474  1  0.888000  0.033100  0.641200  1
  H  H475  1  0.888600  0.641300  0.033700  1
  H  H476  1  0.752700  0.111400  0.145100  1
  H  H477  1  0.358700  0.247300  0.392400  1
  H  H478  1  0.111400  0.358700  0.966300  1
  H  H479  1  0.247300  0.888600  0.854900  1
  H  H480  1  0.641300  0.752700  0.607600  1
  H  H481  1  0.538700  0.487200  0.909700  1
  H  H482  1  0.948500  0.461300  0.371000  1
  H  H483  1  0.512800  0.051500  0.422500  1
  H  H484  1  0.461300  0.512800  0.090300  1
  H  H485  1  0.051500  0.538700  0.629000  1
  H  H486  1  0.487200  0.948500  0.577500  1
  H  H487  1  0.668700  0.653000  0.856700  1
  H  H488  1  0.984300  0.331300  0.188000  1
  H  H489  1  0.347000  0.015700  0.203700  1
  H  H490  1  0.331300  0.347000  0.143300  1
  H  H491  1  0.015700  0.668700  0.812000  1
  H  H492  1  0.653000  0.984300  0.796300  1
  H  H493  1  0.651800  0.630000  0.922000  1
  H  H494  1  0.978200  0.348200  0.270200  1
  H  H495  1  0.370000  0.021800  0.292000  1
  H  H496  1  0.348200  0.370000  0.078000  1
  H  H497  1  0.021800  0.651800  0.729800  1
  H  H498  1  0.630000  0.978200  0.708000  1
  H  H499  1  0.409300  0.543400  0.849700  1
  H  H500  1  0.134100  0.590700  0.440400  1
  H  H501  1  0.456600  0.865900  0.306300  1
  H  H502  1  0.590700  0.456600  0.150300  1
  H  H503  1  0.865900  0.409300  0.559600  1
  H  H504  1  0.543400  0.134100  0.693700  1
  H  H505  1  0.425700  0.540200  0.772600  1
  H  H506  1  0.114500  0.574300  0.346900  1
  H  H507  1  0.459800  0.885500  0.232400  1
  H  H508  1  0.574300  0.459800  0.227400  1
  H  H509  1  0.885500  0.425700  0.653100  1
  H  H510  1  0.540200  0.114500  0.767600  1
  H  H511  1  0.499500  0.569300  0.740900  1
  H  H512  1  0.069800  0.500500  0.241400  1
  H  H513  1  0.430700  0.930200  0.171600  1
  H  H514  1  0.500500  0.430700  0.259100  1
  H  H515  1  0.930200  0.499500  0.758600  1
  H  H516  1  0.569300  0.069800  0.828400  1
  H  H517  1  0.486800  0.577200  0.948200  1
  H  H518  1  0.090400  0.513200  0.461400  1
  H  H519  1  0.422800  0.909600  0.371000  1
  H  H520  1  0.513200  0.422800  0.051800  1
  H  H521  1  0.909600  0.486800  0.538600  1
  H  H522  1  0.577200  0.090400  0.629000  1
  H  H523  1  0.653500  0.796900  0.985200  1
  H  H524  1  0.143400  0.346500  0.331700  1
  H  H525  1  0.203100  0.856600  0.188300  1
  H  H526  1  0.346500  0.203100  0.014800  1
  H  H527  1  0.856600  0.653500  0.668300  1
  H  H528  1  0.796900  0.143400  0.811700  1
  H  H529  1  0.628900  0.707200  0.977500  1
  H  H530  1  0.078300  0.371100  0.348600  1
  H  H531  1  0.292800  0.921700  0.270300  1
  H  H532  1  0.371100  0.292800  0.022500  1
  H  H533  1  0.921700  0.628900  0.651400  1
  H  H534  1  0.707200  0.078300  0.729700  1
  H  H535  1  0.543500  0.695100  0.134700  1
  H  H536  1  0.151600  0.456500  0.591200  1
  H  H537  1  0.304900  0.848400  0.439600  1
  H  H538  1  0.456500  0.304900  0.865300  1
  H  H539  1  0.848400  0.543500  0.408800  1
  H  H540  1  0.695100  0.151600  0.560400  1
  H  H541  1  0.539200  0.766600  0.112700  1
  H  H542  1  0.227400  0.460800  0.573500  1
  H  H543  1  0.233400  0.772600  0.346100  1
  H  H544  1  0.460800  0.233400  0.887300  1
  H  H545  1  0.772600  0.539200  0.426500  1
  H  H546  1  0.766600  0.227400  0.653900  1
  H  H547  1  0.570100  0.829000  0.069900  1
  H  H548  1  0.258900  0.429900  0.499800  1
  H  H549  1  0.171000  0.741100  0.240900  1
  H  H550  1  0.429900  0.171000  0.930100  1
  H  H551  1  0.741100  0.570100  0.500200  1
  H  H552  1  0.829000  0.258900  0.759100  1
  H  H553  1  0.577300  0.629200  0.090500  1
  H  H554  1  0.051900  0.422700  0.513200  1
  H  H555  1  0.370800  0.948100  0.461300  1
  H  H556  1  0.422700  0.370800  0.909500  1
  H  H557  1  0.948100  0.577300  0.486800  1
  H  H558  1  0.629200  0.051900  0.538700  1
  H  H559  1  0.796300  0.811600  0.143200  1
  H  H560  1  0.015300  0.203700  0.346900  1
  H  H561  1  0.188400  0.984700  0.331600  1
  H  H562  1  0.203700  0.188400  0.856800  1
  H  H563  1  0.984700  0.796300  0.653100  1
  H  H564  1  0.811600  0.015300  0.668400  1
  H  H565  1  0.707900  0.729900  0.078200  1
  H  H566  1  0.022000  0.292100  0.370300  1
  H  H567  1  0.270100  0.978000  0.348300  1
  H  H568  1  0.292100  0.270100  0.921800  1
  H  H569  1  0.978000  0.707900  0.629700  1
  H  H570  1  0.729900  0.022000  0.651700  1
  H  H571  1  0.694700  0.560700  0.152700  1
  H  H572  1  0.866000  0.305300  0.458000  1
  H  H573  1  0.439300  0.134000  0.592000  1
  H  H574  1  0.305300  0.439300  0.847300  1
  H  H575  1  0.134000  0.694700  0.542000  1
  H  H576  1  0.560700  0.866000  0.408000  1
  H  H577  1  0.766900  0.653800  0.227700  1
  H  H578  1  0.886900  0.233100  0.460800  1
  H  H579  1  0.346200  0.113100  0.573900  1
  H  H580  1  0.233100  0.346200  0.772300  1
  H  H581  1  0.113100  0.766900  0.539200  1
  H  H582  1  0.653800  0.886900  0.426100  1
  H  H583  1  0.828800  0.759000  0.259000  1
  H  H584  1  0.930200  0.171200  0.430200  1
  H  H585  1  0.241000  0.069800  0.500000  1
  H  H586  1  0.171200  0.241000  0.741000  1
  H  H587  1  0.069800  0.828800  0.569800  1
  H  H588  1  0.759000  0.930200  0.500000  1
  H  H589  1  0.629000  0.538500  0.051700  1
  H  H590  1  0.909500  0.371000  0.422700  1
  H  H591  1  0.461500  0.090500  0.513200  1
  H  H592  1  0.371000  0.461500  0.948300  1
  H  H593  1  0.090500  0.629000  0.577300  1
  H  H594  1  0.538500  0.909500  0.486800  1
  H  H595  1  0.812300  0.668400  0.015500  1
  H  H596  1  0.856100  0.187700  0.203200  1
  H  H597  1  0.331600  0.143900  0.347100  1
  H  H598  1  0.187700  0.331600  0.984500  1
  H  H599  1  0.143900  0.812300  0.796800  1
  H  H600  1  0.668400  0.856100  0.652900  1
  H  H601  1  0.729600  0.651800  0.022200  1
  H  H602  1  0.922200  0.270400  0.292600  1
  H  H603  1  0.348200  0.077800  0.370400  1
  H  H604  1  0.270400  0.348200  0.977800  1
  H  H605  1  0.077800  0.729600  0.707400  1
  H  H606  1  0.651800  0.922200  0.629600  1
  H  H607  1  0.560200  0.407800  0.864900  1
  H  H608  1  0.847600  0.439800  0.304700  1
  H  H609  1  0.592200  0.152400  0.457100  1
  H  H610  1  0.439800  0.592200  0.135100  1
  H  H611  1  0.152400  0.560200  0.695300  1
  H  H612  1  0.407800  0.847600  0.542900  1
  H  H613  1  0.654300  0.426200  0.886700  1
  H  H614  1  0.771900  0.345700  0.232400  1
  H  H615  1  0.573800  0.228100  0.460500  1
  H  H616  1  0.345700  0.573800  0.113300  1
  H  H617  1  0.228100  0.654300  0.767600  1
  H  H618  1  0.426200  0.771900  0.539500  1
  H  H619  1  0.758600  0.499800  0.929600  1
  H  H620  1  0.741200  0.241400  0.171000  1
  H  H621  1  0.500200  0.258800  0.429800  1
  H  H622  1  0.241400  0.500200  0.070400  1
  H  H623  1  0.258800  0.758600  0.829000  1
  H  H624  1  0.499800  0.741200  0.570200  1
  H  H625  1  0.633500  0.583500  0.684300  1
  H  H626  1  0.950000  0.366500  0.050800  1
  H  H627  1  0.416500  0.050000  0.100800  1
  H  H628  1  0.366500  0.416500  0.315700  1
  H  H629  1  0.050000  0.633500  0.949200  1
  H  H630  1  0.583500  0.950000  0.899200  1
  H  H631  1  0.682100  0.581700  0.632800  1
  H  H632  1  0.899600  0.317900  0.950700  1
  H  H633  1  0.418300  0.100400  0.051100  1
  H  H634  1  0.317900  0.418300  0.367200  1
  H  H635  1  0.100400  0.682100  0.049300  1
  H  H636  1  0.581700  0.899600  0.948900  1
  H  H637  1  0.899600  0.949800  0.318100  1
  H  H638  1  0.050200  0.100400  0.418500  1
  H  H639  1  0.050200  0.949800  0.368300  1
  H  H640  1  0.100400  0.050200  0.681900  1
  H  H641  1  0.949800  0.899600  0.581500  1
  H  H642  1  0.949800  0.050200  0.631700  1
  H  H643  1  0.632800  0.683500  0.583200  1
  H  H644  1  0.050700  0.367200  0.950400  1
  H  H645  1  0.316500  0.949300  0.899700  1
  H  H646  1  0.367200  0.316500  0.416800  1
  H  H647  1  0.949300  0.632800  0.049600  1
  H  H648  1  0.683500  0.050700  0.100300  1
  H  H649  1  0.608100  0.641300  0.753100  1.0
  H  H650  1  0.033200  0.391900  0.145000  1.0
  H  H651  1  0.358700  0.966800  0.111800  1.0
  H  H652  1  0.391900  0.358700  0.246900  1.0
  H  H653  1  0.966800  0.608100  0.855000  1.0
  H  H654  1  0.641300  0.033200  0.888200  1.0
  H  H655  1  0.641200  0.888400  0.033700  1.0
  H  H656  1  0.247200  0.358800  0.392500  1.0
  H  H657  1  0.111600  0.752800  0.145300  1.0
  H  H658  1  0.358800  0.111600  0.966300  1.0
  H  H659  1  0.752800  0.641200  0.607500  1.0
  H  H660  1  0.888400  0.247200  0.854700  1.0
  H  H661  1  0.888400  0.854800  0.247100  1.0
  H  H662  1  0.966400  0.111600  0.358700  1.0
  H  H663  1  0.145200  0.033600  0.392300  1.0
  H  H664  1  0.111600  0.145200  0.752900  1.0
  H  H665  1  0.033600  0.888400  0.641300  1.0
  H  H666  1  0.854800  0.966400  0.607700  1.0
  H  H667  1  0.855100  0.608500  0.967000  1.0
  H  H668  1  0.753400  0.144900  0.111900  1.0
  H  H669  1  0.391500  0.246600  0.358500  1.0
  H  H670  1  0.144900  0.391500  0.033000  1.0
  H  H671  1  0.246600  0.855100  0.888100  1.0
  H  H672  1  0.608500  0.753400  0.641500  1.0
  H  H673  1  0.577200  0.486800  0.948200  1.0
  H  H674  1  0.909600  0.422800  0.371000  1.0
  H  H675  1  0.513200  0.090400  0.461400  1.0
  H  H676  1  0.422800  0.513200  0.051800  1.0
  H  H677  1  0.090400  0.577200  0.629000  1.0
  H  H678  1  0.486800  0.909600  0.538600  1.0
  H  H679  1  0.653700  0.668300  0.856600  1.0
  H  H680  1  0.014600  0.346300  0.202900  1.0
  H  H681  1  0.331700  0.985400  0.188300  1.0
  H  H682  1  0.346300  0.331700  0.143400  1.0
  H  H683  1  0.985400  0.653700  0.797100  1.0
  H  H684  1  0.668300  0.014600  0.811700  1.0
  H  H685  1  0.629600  0.651900  0.921700  1.0
  H  H686  1  0.022300  0.370400  0.292100  1.0
  H  H687  1  0.348100  0.977700  0.269800  1.0
  H  H688  1  0.370400  0.348100  0.078300  1.0
  H  H689  1  0.977700  0.629600  0.707900  1.0
  H  H690  1  0.651900  0.022300  0.730200  1.0
  H  H691  1  0.542000  0.407700  0.846800  1.0
  H  H692  1  0.865700  0.458000  0.304800  1.0
  H  H693  1  0.592300  0.134300  0.439100  1.0
  H  H694  1  0.458000  0.592300  0.153200  1.0
  H  H695  1  0.134300  0.542000  0.695200  1.0
  H  H696  1  0.407700  0.865700  0.560900  1.0
  H  H697  1  0.541000  0.427000  0.772500  1.0
  H  H698  1  0.886000  0.459000  0.231500  1.0
  H  H699  1  0.573000  0.114000  0.345500  1.0
  H  H700  1  0.459000  0.573000  0.227500  1.0
  H  H701  1  0.114000  0.541000  0.768500  1.0
  H  H702  1  0.427000  0.886000  0.654500  1.0
  H  H703  1  0.570600  0.500300  0.740700  1.0
  H  H704  1  0.929700  0.429400  0.170100  1.0
  H  H705  1  0.499700  0.070300  0.240400  1.0
  H  H706  1  0.429400  0.499700  0.259300  1.0
  H  H707  1  0.070300  0.570600  0.829900  1.0
  H  H708  1  0.500300  0.929700  0.759600  1.0
  H  H709  1  0.486800  0.538500  0.909500  1.0
  H  H710  1  0.051700  0.513200  0.422700  1.0
  H  H711  1  0.461500  0.948300  0.371000  1.0
  H  H712  1  0.513200  0.461500  0.090500  1.0
  H  H713  1  0.948300  0.486800  0.577300  1.0
  H  H714  1  0.538500  0.051700  0.629000  1.0
  H  H715  1  0.668600  0.811500  0.015300  1.0
  H  H716  1  0.142900  0.331400  0.346700  1.0
  H  H717  1  0.188500  0.857100  0.203800  1.0
  H  H718  1  0.331400  0.188500  0.984700  1.0
  H  H719  1  0.857100  0.668600  0.653300  1.0
  H  H720  1  0.811500  0.142900  0.796200  1.0
  H  H721  1  0.651500  0.729600  0.022100  1.0
  H  H722  1  0.078100  0.348500  0.370600  1.0
  H  H723  1  0.270400  0.921900  0.292500  1.0
  H  H724  1  0.348500  0.270400  0.977900  1.0
  H  H725  1  0.921900  0.651500  0.629400  1.0
  H  H726  1  0.729600  0.078100  0.707500  1.0
  H  H727  1  0.407900  0.560700  0.864900  1.0
  H  H728  1  0.152800  0.592100  0.457000  1.0
  H  H729  1  0.439300  0.847200  0.304200  1.0
  H  H730  1  0.592100  0.439300  0.135100  1.0
  H  H731  1  0.847200  0.407900  0.543000  1.0
  H  H732  1  0.560700  0.152800  0.695800  1.0
  H  H733  1  0.426200  0.654000  0.887300  1.0
  H  H734  1  0.227800  0.573800  0.461100  1.0
  H  H735  1  0.346000  0.772200  0.233300  1.0
  H  H736  1  0.573800  0.346000  0.112700  1.0
  H  H737  1  0.772200  0.426200  0.538900  1.0
  H  H738  1  0.654000  0.227800  0.766700  1.0
  H  H739  1  0.499600  0.758800  0.930600  1.0
  H  H740  1  0.259200  0.500400  0.431000  1.0
  H  H741  1  0.241200  0.740800  0.171800  1.0
  H  H742  1  0.500400  0.241200  0.069400  1.0
  H  H743  1  0.740800  0.499600  0.569000  1.0
  H  H744  1  0.758800  0.259200  0.828200  1.0
  H  H745  1  0.538800  0.629300  0.051900  1.0
  H  H746  1  0.090500  0.461200  0.513100  1.0
  H  H747  1  0.370700  0.909500  0.422600  1.0
  H  H748  1  0.461200  0.370700  0.948100  1.0
  H  H749  1  0.909500  0.538800  0.486900  1.0
  H  H750  1  0.629300  0.090500  0.577400  1.0
  H  H751  1  0.811800  0.796400  0.143400  1.0
  H  H752  1  0.984600  0.188200  0.331600  1.0
  H  H753  1  0.203600  0.015400  0.347000  1.0
  H  H754  1  0.188200  0.203600  0.856600  1.0
  H  H755  1  0.015400  0.811800  0.668400  1.0
  H  H756  1  0.796400  0.984600  0.653000  1.0
  H  H757  1  0.729700  0.707800  0.078100  1.0
  H  H758  1  0.978100  0.270300  0.348400  1.0
  H  H759  1  0.292200  0.021900  0.370300  1.0
  H  H760  1  0.270300  0.292200  0.921900  1.0
  H  H761  1  0.021900  0.729700  0.651600  1.0
  H  H762  1  0.707800  0.978100  0.629700  1.0
  H  H763  1  0.559500  0.694700  0.151400  1.0
  H  H764  1  0.135200  0.440500  0.591900  1.0
  H  H765  1  0.305300  0.864800  0.456700  1.0
  H  H766  1  0.440500  0.305300  0.848600  1.0
  H  H767  1  0.864800  0.559500  0.408100  1.0
  H  H768  1  0.694700  0.135200  0.543300  1.0
  H  H769  1  0.653200  0.767800  0.227700  1.0
  H  H770  1  0.114600  0.346800  0.574500  1.0
  H  H771  1  0.232200  0.885400  0.459900  1.0
  H  H772  1  0.346800  0.232200  0.772300  1.0
  H  H773  1  0.885400  0.653200  0.425500  1.0
  H  H774  1  0.767800  0.114600  0.540100  1.0
  H  H775  1  0.758800  0.829600  0.259300  1.0
  H  H776  1  0.070800  0.241200  0.500500  1.0
  H  H777  1  0.170400  0.929200  0.429700  1.0
  H  H778  1  0.241200  0.170400  0.740700  1.0
  H  H779  1  0.929200  0.758800  0.499500  1.0
  H  H780  1  0.829600  0.070800  0.570300  1.0
  H  H781  1  0.628900  0.577600  0.090200  1.0
  H  H782  1  0.948700  0.371100  0.461300  1.0
  H  H783  1  0.422400  0.051300  0.512600  1.0
  H  H784  1  0.371100  0.422400  0.909800  1.0
  H  H785  1  0.051300  0.628900  0.538700  1.0
  H  H786  1  0.577600  0.948700  0.487400  1.0
  H  H787  1  0.796800  0.653000  0.984700  1.0
  H  H788  1  0.856200  0.203200  0.187900  1.0
  H  H789  1  0.347000  0.143800  0.331700  1.0
  H  H790  1  0.203200  0.347000  0.015300  1.0
  H  H791  1  0.143800  0.796800  0.812100  1.0
  H  H792  1  0.653000  0.856200  0.668300  1.0
  H  H793  1  0.708000  0.630200  0.978400  1.0
  H  H794  1  0.922200  0.292000  0.270400  1.0
  H  H795  1  0.369800  0.077800  0.348200  1.0
  H  H796  1  0.292000  0.369800  0.021600  1.0
  H  H797  1  0.077800  0.708000  0.729600  1.0
  H  H798  1  0.630200  0.922200  0.651800  1.0
  H  H799  1  0.694200  0.543200  0.134600  1.0
  H  H800  1  0.849000  0.305800  0.440400  1.0
  H  H801  1  0.456800  0.151000  0.591400  1.0
  H  H802  1  0.305800  0.456800  0.865400  1.0
  H  H803  1  0.151000  0.694200  0.559600  1.0
  H  H804  1  0.543200  0.849000  0.408600  1.0
  H  H805  1  0.766800  0.539000  0.113600  1.0
  H  H806  1  0.772200  0.233200  0.346800  1.0
  H  H807  1  0.461000  0.227800  0.574600  1.0
  H  H808  1  0.233200  0.461000  0.886400  1.0
  H  H809  1  0.227800  0.766800  0.653200  1.0
  H  H810  1  0.539000  0.772200  0.425400  1.0
  H  H811  1  0.829400  0.570000  0.070500  1.0
  H  H812  1  0.740600  0.170600  0.241100  1.0
  H  H813  1  0.430000  0.259400  0.500500  1.0
  H  H814  1  0.170600  0.430000  0.929500  1.0
  H  H815  1  0.259400  0.829400  0.758900  1.0
  H  H816  1  0.570000  0.740600  0.499500  1.0
  H  H817  1  0.582500  0.632100  0.683000  1.0
  H  H818  1  0.049600  0.417500  0.100500  1.0
  H  H819  1  0.367900  0.950400  0.050900  1.0
  H  H820  1  0.417500  0.367900  0.317000  1.0
  H  H821  1  0.950400  0.582500  0.899500  1.0
  H  H822  1  0.632100  0.049600  0.949100  1.0
  H  H823  1  0.683700  0.631700  0.582800  1.0
  H  H824  1  0.948000  0.316300  0.899100  1.0
  H  H825  1  0.368300  0.052000  0.951100  1.0
  H  H826  1  0.316300  0.368300  0.417200  1.0
  H  H827  1  0.052000  0.683700  0.100900  1.0
  H  H828  1  0.631700  0.948000  0.048900  1.0
  H  H829  1  0.949000  0.899500  0.315500  1.0
  H  H830  1  0.950500  0.051000  0.366500  1.0
  H  H831  1  0.100500  0.049500  0.416000  1.0
  H  H832  1  0.051000  0.100500  0.684500  1.0
  H  H833  1  0.049500  0.949000  0.633500  1.0
  H  H834  1  0.899500  0.950500  0.584000  1.0
  H  H835  1  0.582200  0.682500  0.632400  1.0
  H  H836  1  0.100300  0.417800  0.050200  1.0
  H  H837  1  0.317500  0.899700  0.949900  1.0
  H  H838  1  0.417800  0.317500  0.367600  1.0
  H  H839  1  0.899700  0.582200  0.949800  1.0
  H  H840  1  0.682500  0.100300  0.050100  1.0
  N  N841  1  0.550520  0.594330  0.921050  1
  N  N842  1  0.043810  0.449480  0.370530  1
  N  N843  1  0.405670  0.956190  0.326720  1
  N  N844  1  0.449480  0.405670  0.078950  1
  N  N845  1  0.956190  0.550520  0.629470  1
  N  N846  1  0.594330  0.043810  0.673280  1
  N  N847  1  0.594550  0.673600  0.044330  1
  N  N848  1  0.079050  0.405450  0.449780  1
  N  N849  1  0.326400  0.920950  0.370730  1
  N  N850  1  0.405450  0.326400  0.955670  1
  N  N851  1  0.920950  0.594550  0.550220  1
  N  N852  1  0.673600  0.079050  0.629270  1
  N  N853  1  0.673140  0.628790  0.078580  1
  N  N854  1  0.955650  0.326860  0.405440  1
  N  N855  1  0.371210  0.044350  0.449790  1
  N  N856  1  0.326860  0.371210  0.921420  1
  N  N857  1  0.044350  0.673140  0.594560  1
  N  N858  1  0.628790  0.955650  0.550210  1
  N  N859  1  0.629370  0.549890  0.956060  1
  N  N860  1  0.920520  0.370630  0.326690  1
  N  N861  1  0.450110  0.079480  0.406170  1
  N  N862  1  0.370630  0.450110  0.043940  1
  N  N863  1  0.079480  0.629370  0.673310  1
  N  N864  1  0.549890  0.920520  0.593830  1
  N  N865  1  0.610090  0.609880  0.749280  1.0
  N  N866  1  0.999790  0.389910  0.139190  1.0
  N  N867  1  0.390120  0.000210  0.139400  1.0
  N  N868  1  0.389910  0.390120  0.250720  1.0
  N  N869  1  0.000210  0.610090  0.860810  1.0
  N  N870  1  0.609880  0.999790  0.860600  1.0
  N  N871  1  0.610060  0.860680  0.000190  1.0
  N  N872  1  0.250620  0.389940  0.390130  1.0
  N  N873  1  0.139320  0.749380  0.139510  1.0
  N  N874  1  0.389940  0.139320  0.999810  1.0
  N  N875  1  0.749380  0.610060  0.609870  1.0
  N  N876  1  0.860680  0.250620  0.860490  1.0
  N  N877  1  0.860810  0.860580  0.250590  1.0
  N  N878  1  0.999770  0.139190  0.389780  1.0
  N  N879  1  0.139420  0.000230  0.390010  1.0
  N  N880  1  0.139190  0.139420  0.749410  1.0
  N  N881  1  0.000230  0.860810  0.610220  1.0
  N  N882  1  0.860580  0.999770  0.609990  1.0
  N  N883  1  0.860790  0.610190  0.000250  1.0
  N  N884  1  0.749400  0.139210  0.139460  1.0
  N  N885  1  0.389810  0.250600  0.390060  1.0
  N  N886  1  0.139210  0.389810  0.999750  1.0
  N  N887  1  0.250600  0.860790  0.860540  1.0
  N  N888  1  0.610190  0.749400  0.609940  1.0
  N  N889  1  0.594440  0.550200  0.921380  1.0
  N  N890  1  0.955760  0.405560  0.326940  1.0
  N  N891  1  0.449800  0.044240  0.371180  1.0
  N  N892  1  0.405560  0.449800  0.078620  1.0
  N  N893  1  0.044240  0.594440  0.673060  1.0
  N  N894  1  0.550200  0.955760  0.628820  1.0
  N  N895  1  0.549950  0.628980  0.955860  1.0
  N  N896  1  0.079030  0.450050  0.405910  1.0
  N  N897  1  0.371020  0.920970  0.326880  1.0
  N  N898  1  0.450050  0.371020  0.044140  1.0
  N  N899  1  0.920970  0.549950  0.594090  1.0
  N  N900  1  0.628980  0.079030  0.673120  1.0
  N  N901  1  0.628980  0.673190  0.079180  1.0
  N  N902  1  0.044210  0.371020  0.450200  1.0
  N  N903  1  0.326810  0.955790  0.405990  1.0
  N  N904  1  0.371020  0.326810  0.920820  1.0
  N  N905  1  0.955790  0.628980  0.549800  1.0
  N  N906  1  0.673190  0.044210  0.594010  1.0
  N  N907  1  0.673460  0.593670  0.044310  1.0
  N  N908  1  0.920210  0.326540  0.370850  1.0
  N  N909  1  0.406330  0.079790  0.450640  1.0
  N  N910  1  0.326540  0.406330  0.955690  1.0
  N  N911  1  0.079790  0.673460  0.629150  1.0
  N  N912  1  0.593670  0.920210  0.549360  1.0
  O  O913  1  0.527760  0.614870  0.686950  1
  O  O914  1  0.087110  0.472240  0.159190  1
  O  O915  1  0.385130  0.912890  0.072080  1
  O  O916  1  0.472240  0.385130  0.313050  1
  O  O917  1  0.912890  0.527760  0.840810  1
  O  O918  1  0.614870  0.087110  0.927920  1
  O  O919  1  0.615260  0.927750  0.087110  1
  O  O920  1  0.312490  0.384740  0.471850  1
  O  O921  1  0.072250  0.687510  0.159360  1
  O  O922  1  0.384740  0.072250  0.912890  1
  O  O923  1  0.687510  0.615260  0.528150  1
  O  O924  1  0.927750  0.312490  0.840640  1
  O  O925  1  0.927820  0.840850  0.312620  1
  O  O926  1  0.913030  0.072180  0.384800  1
  O  O927  1  0.159150  0.086970  0.471770  1
  O  O928  1  0.072180  0.159150  0.687380  1
  O  O929  1  0.086970  0.927820  0.615200  1
  O  O930  1  0.840850  0.913030  0.528230  1
  O  O931  1  0.840420  0.527120  0.912740  1
  O  O932  1  0.686700  0.159580  0.072320  1
  O  O933  1  0.472880  0.313300  0.385620  1
  O  O934  1  0.159580  0.472880  0.087260  1
  O  O935  1  0.313300  0.840420  0.927680  1
  O  O936  1  0.527120  0.686700  0.614380  1
  O  O937  1  0.614730  0.527570  0.686940  1.0
  O  O938  1  0.912840  0.385270  0.072210  1.0
  O  O939  1  0.472430  0.087160  0.159370  1.0
  O  O940  1  0.385270  0.472430  0.313060  1.0
  O  O941  1  0.087160  0.614730  0.927790  1.0
  O  O942  1  0.527570  0.912840  0.840630  1.0
  O  O943  1  0.528120  0.840800  0.913080  1.0
  O  O944  1  0.312680  0.471880  0.384960  1.0
  O  O945  1  0.159200  0.687320  0.072280  1.0
  O  O946  1  0.471880  0.159200  0.086920  1.0
  O  O947  1  0.687320  0.528120  0.615040  1.0
  O  O948  1  0.840800  0.312680  0.927720  1.0
  O  O949  1  0.840610  0.928120  0.312620  1.0
  O  O950  1  0.087510  0.159390  0.472010  1.0
  O  O951  1  0.071880  0.912490  0.384500  1.0
  O  O952  1  0.159390  0.071880  0.687380  1.0
  O  O953  1  0.912490  0.840610  0.527990  1.0
  O  O954  1  0.928120  0.087510  0.615500  1.0
  O  O955  1  0.928030  0.615130  0.087330  1.0
  O  O956  1  0.687100  0.071970  0.159300  1.0
  O  O957  1  0.384870  0.312900  0.472200  1.0
  O  O958  1  0.071970  0.384870  0.912670  1.0
  O  O959  1  0.312900  0.928030  0.840700  1.0
  O  O960  1  0.615130  0.687100  0.527800  1.0
  Pd  Pd961  1  0.612514  0.612496  0.999986  1.0
  Pd  Pd962  1  0.999982  0.387486  0.387472  1.0
  Pd  Pd963  1  0.387504  0.000018  0.387490  1.0
  Pd  Pd964  1  0.387486  0.387504  0.000014  1.0
  Pd  Pd965  1  0.000018  0.612514  0.612528  1.0
  Pd  Pd966  1  0.612496  0.999982  0.612510  1.0
