# generated using pymatgen
data_H360Pd6C456N64.28571429O55.71428571
_symmetry_space_group_name_H-M   'P 1'
_cell_length_a   27.68166094
_cell_length_b   27.68166094
_cell_length_c   27.68050000
_cell_angle_alpha   109.47037107
_cell_angle_beta   109.47037107
_cell_angle_gamma   109.47207018
_symmetry_Int_Tables_number   1
_chemical_formula_structural   H360Pd6C456N64.28571429O55.71428571
_chemical_formula_sum   'H360 Pd6 C456 N64.28571429 O55.71428571'
_cell_volume   16328.29669123
_cell_formula_units_Z   1
loop_
 _symmetry_equiv_pos_site_id
 _symmetry_equiv_pos_as_xyz
  1  'x, y, z'
loop_
 _atom_site_type_symbol
 _atom_site_label
 _atom_site_symmetry_multiplicity
 _atom_site_fract_x
 _atom_site_fract_y
 _atom_site_fract_z
 _atom_site_occupancy
  C  C1  1  0.550800  0.145300  0.446600  1
  C  C2  1  0.594500  0.449200  0.895800  1
  C  C3  1  0.854700  0.405500  0.301300  1
  C  C4  1  0.449200  0.854700  0.553400  1
  C  C5  1  0.405500  0.550800  0.104200  1
  C  C6  1  0.145300  0.594500  0.698700  1
  C  C7  1  0.541500  0.191500  0.445400  1
  C  C8  1  0.650000  0.458500  0.903900  1
  C  C9  1  0.808500  0.350000  0.253900  1
  C  C10  1  0.458500  0.808500  0.554600  1
  C  C11  1  0.350000  0.541500  0.096100  1
  C  C12  1  0.191500  0.650000  0.746100  1
  C  C13  1  0.479900  0.178400  0.419500  1
  C  C14  1  0.698500  0.520100  0.939600  1
  C  C15  1  0.821600  0.301500  0.241100  1
  C  C16  1  0.520100  0.821600  0.580500  1
  C  C17  1  0.301500  0.479900  0.060400  1
  C  C18  1  0.178400  0.698500  0.758900  1
  C  C19  1  0.472700  0.224000  0.417100  1
  C  C20  1  0.751300  0.527300  0.944400  1
  C  C21  1  0.776000  0.248700  0.193100  1
  C  C22  1  0.527300  0.776000  0.582900  1
  C  C23  1  0.248700  0.472700  0.055600  1
  C  C24  1  0.224000  0.751300  0.806900  1
  C  C25  1  0.414500  0.215900  0.392900  1
  C  C26  1  0.801400  0.585500  0.978400  1
  C  C27  1  0.784100  0.198600  0.177000  1
  C  C28  1  0.585500  0.784100  0.607100  1
  C  C29  1  0.198600  0.414500  0.021600  1
  C  C30  1  0.215900  0.801400  0.823000  1
  C  C31  1  0.435700  0.123000  0.400000  1
  C  C32  1  0.687300  0.564300  0.964300  1
  C  C33  1  0.877000  0.312700  0.277000  1
  C  C34  1  0.564300  0.877000  0.600000  1
  C  C35  1  0.312700  0.435700  0.035700  1
  C  C36  1  0.123000  0.687300  0.723000  1
  C  C37  1  0.410600  0.292100  0.380700  1
  C  C38  1  0.881500  0.589400  0.970100  1
  C  C39  1  0.707900  0.118500  0.088600  1
  C  C40  1  0.589400  0.707900  0.619300  1
  C  C41  1  0.118500  0.410600  0.029900  1
  C  C42  1  0.292100  0.881500  0.911400  1
  C  C43  1  0.446500  0.896500  0.302300  1
  C  C44  1  0.450000  0.553500  0.855800  1
  C  C45  1  0.103500  0.550000  0.405800  1
  C  C46  1  0.553500  0.103500  0.697700  1
  C  C47  1  0.550000  0.446500  0.144200  1
  C  C48  1  0.896500  0.450000  0.594200  1
  C  C49  1  0.447300  0.905300  0.255400  1
  C  C50  1  0.458000  0.552700  0.808100  1
  C  C51  1  0.094700  0.542000  0.350100  1
  C  C52  1  0.552700  0.094700  0.744600  1
  C  C53  1  0.542000  0.447300  0.191900  1
  C  C54  1  0.905300  0.458000  0.649900  1
  C  C55  1  0.419000  0.936600  0.239600  1
  C  C56  1  0.517600  0.581000  0.820600  1
  C  C57  1  0.063400  0.482400  0.303000  1
  C  C58  1  0.581000  0.063400  0.760400  1
  C  C59  1  0.482400  0.419000  0.179400  1
  C  C60  1  0.936600  0.517600  0.697000  1
  C  C61  1  0.417100  0.945400  0.192900  1
  C  C62  1  0.528300  0.582900  0.775800  1
  C  C63  1  0.054600  0.471700  0.247500  1
  C  C64  1  0.582900  0.054600  0.807100  1
  C  C65  1  0.471700  0.417100  0.224200  1
  C  C66  1  0.945400  0.528300  0.752500  1
  C  C67  1  0.391000  0.976300  0.178700  1
  C  C68  1  0.585300  0.609000  0.787700  1
  C  C69  1  0.023700  0.414700  0.202400  1
  C  C70  1  0.609000  0.023700  0.821300  1
  C  C71  1  0.414700  0.391000  0.212300  1
  C  C72  1  0.976300  0.585300  0.797600  1
  C  C73  1  0.398900  0.963600  0.276400  1
  C  C74  1  0.564700  0.601100  0.877500  1
  C  C75  1  0.036400  0.435300  0.312800  1
  C  C76  1  0.601100  0.036400  0.723600  1
  C  C77  1  0.435300  0.398900  0.122500  1
  C  C78  1  0.963600  0.564700  0.687200  1
  C  C79  1  0.379600  0.971200  0.093200  1
  C  C80  1  0.591600  0.620400  0.713600  1
  C  C81  1  0.028800  0.408400  0.122000  1
  C  C82  1  0.620400  0.028800  0.906800  1
  C  C83  1  0.408400  0.379600  0.286400  1
  C  C84  1  0.971200  0.591600  0.878000  1
  C  C85  1  0.302500  0.855400  0.405900  1
  C  C86  1  0.552900  0.697500  0.103400  1
  C  C87  1  0.144600  0.447100  0.550500  1
  C  C88  1  0.697500  0.144600  0.594100  1
  C  C89  1  0.447100  0.302500  0.896600  1
  C  C90  1  0.855400  0.552900  0.449500  1
  C  C91  1  0.256000  0.810400  0.352000  1
  C  C92  1  0.554400  0.744000  0.096000  1
  C  C93  1  0.189600  0.445600  0.541600  1
  C  C94  1  0.744000  0.189600  0.648000  1
  C  C95  1  0.445600  0.256000  0.904000  1
  C  C96  1  0.810400  0.554400  0.458400  1
  C  C97  1  0.239800  0.820600  0.302300  1
  C  C98  1  0.580800  0.760200  0.062500  1
  C  C99  1  0.179400  0.419200  0.481700  1
  C  C100  1  0.760200  0.179400  0.697700  1
  C  C101  1  0.419200  0.239800  0.937500  1
  C  C102  1  0.820600  0.580800  0.518300  1
  C  C103  1  0.191900  0.775500  0.247200  1
  C  C104  1  0.583600  0.808100  0.055300  1
  C  C105  1  0.224500  0.416400  0.471700  1
  C  C106  1  0.808100  0.224500  0.752800  1
  C  C107  1  0.416400  0.191900  0.944700  1
  C  C108  1  0.775500  0.583600  0.528300  1
  C  C109  1  0.177300  0.786800  0.202200  1
  C  C110  1  0.609500  0.822700  0.024900  1
  C  C111  1  0.213200  0.390500  0.415400  1
  C  C112  1  0.822700  0.213200  0.797800  1
  C  C113  1  0.390500  0.177300  0.975100  1
  C  C114  1  0.786800  0.609500  0.584600  1
  C  C115  1  0.276500  0.877200  0.310900  1
  C  C116  1  0.600700  0.723500  0.034400  1
  C  C117  1  0.122800  0.399300  0.433700  1
  C  C118  1  0.723500  0.122800  0.689100  1
  C  C119  1  0.399300  0.276500  0.965600  1
  C  C120  1  0.877200  0.600700  0.566300  1
  C  C121  1  0.082400  0.703500  0.116200  1
  C  C122  1  0.621100  0.917600  0.033800  1
  C  C123  1  0.296500  0.378900  0.412700  1
  C  C124  1  0.917600  0.296500  0.883800  1
  C  C125  1  0.378900  0.082400  0.966200  1
  C  C126  1  0.703500  0.621100  0.587300  1
  C  C127  1  0.407400  0.104800  0.549100  1
  C  C128  1  0.697400  0.592600  0.141700  1
  C  C129  1  0.895200  0.302600  0.444300  1
  C  C130  1  0.592600  0.895200  0.450900  1
  C  C131  1  0.302600  0.407400  0.858300  1
  C  C132  1  0.104800  0.697400  0.555700  1
  C  C133  1  0.351300  0.097000  0.540700  1
  C  C134  1  0.745700  0.648700  0.189400  1
  C  C135  1  0.903000  0.254300  0.443700  1
  C  C136  1  0.648700  0.903000  0.459300  1
  C  C137  1  0.254300  0.351300  0.810600  1
  C  C138  1  0.097000  0.745700  0.556300  1
  C  C139  1  0.302000  0.061400  0.481400  1
  C  C140  1  0.759400  0.698000  0.179400  1
  C  C141  1  0.938600  0.240600  0.420000  1
  C  C142  1  0.698000  0.938600  0.518600  1
  C  C143  1  0.240600  0.302000  0.820600  1
  C  C144  1  0.061400  0.759400  0.580000  1
  C  C145  1  0.247200  0.055300  0.472700  1
  C  C146  1  0.808100  0.752800  0.225500  1
  C  C147  1  0.944700  0.191900  0.417400  1
  C  C148  1  0.752800  0.944700  0.527300  1
  C  C149  1  0.191900  0.247200  0.774500  1
  C  C150  1  0.055300  0.808100  0.582600  1
  C  C151  1  0.198300  0.021400  0.414400  1
  C  C152  1  0.823100  0.801700  0.216100  1
  C  C153  1  0.978600  0.176900  0.393000  1
  C  C154  1  0.801700  0.978600  0.585600  1
  C  C155  1  0.176900  0.198300  0.783900  1
  C  C156  1  0.021400  0.823100  0.607000  1
  C  C157  1  0.312400  0.034500  0.434500  1
  C  C158  1  0.722100  0.687600  0.122100  1
  C  C159  1  0.965500  0.277900  0.400000  1
  C  C160  1  0.687600  0.965500  0.565500  1
  C  C161  1  0.277900  0.312400  0.877900  1
  C  C162  1  0.034500  0.722100  0.600000  1
  C  C163  1  0.114100  0.031800  0.410300  1
  C  C164  1  0.917700  0.885900  0.296200  1
  C  C165  1  0.968200  0.082300  0.378500  1
  C  C166  1  0.885900  0.968200  0.589700  1
  C  C167  1  0.082300  0.114100  0.703800  1
  C  C168  1  0.031800  0.917700  0.621500  1
  C  C169  1  0.419200  0.082500  0.500800  1.0
  C  C170  1  0.663300  0.580800  0.081600  1.0
  C  C171  1  0.917500  0.336700  0.418300  1.0
  C  C172  1  0.580800  0.917500  0.499200  1.0
  C  C173  1  0.336700  0.419200  0.918400  1.0
  C  C174  1  0.082500  0.663300  0.581700  1.0
  C  C175  1  0.369300  0.158500  0.369100  1.0
  C  C176  1  0.789200  0.630700  0.999800  1.0
  C  C177  1  0.841500  0.210800  0.210600  1.0
  C  C178  1  0.630700  0.841500  0.630900  1.0
  C  C179  1  0.210800  0.369300  0.000200  1.0
  C  C180  1  0.158500  0.789200  0.789400  1.0
  C  C181  1  0.377000  0.113300  0.377200  1.0
  C  C182  1  0.736300  0.623000  0.000200  1.0
  C  C183  1  0.886700  0.263700  0.263900  1.0
  C  C184  1  0.623000  0.886700  0.622800  1.0
  C  C185  1  0.263700  0.377000  0.999800  1.0
  C  C186  1  0.113300  0.736300  0.736100  1.0
  C  C187  1  0.446200  0.144000  0.549500  1.0
  C  C188  1  0.697800  0.553800  0.103300  1.0
  C  C189  1  0.856000  0.302200  0.405500  1.0
  C  C190  1  0.553800  0.856000  0.450500  1.0
  C  C191  1  0.302200  0.446200  0.896700  1.0
  C  C192  1  0.144000  0.697800  0.594500  1.0
  C  C193  1  0.446200  0.189900  0.542600  1.0
  C  C194  1  0.743700  0.553800  0.096400  1.0
  C  C195  1  0.810100  0.256300  0.352700  1.0
  C  C196  1  0.553800  0.810100  0.457400  1.0
  C  C197  1  0.256300  0.446200  0.903600  1.0
  C  C198  1  0.189900  0.743700  0.647300  1.0
  C  C199  1  0.420400  0.180300  0.482300  1.0
  C  C200  1  0.759900  0.579600  0.061900  1.0
  C  C201  1  0.819700  0.240100  0.302000  1.0
  C  C202  1  0.579600  0.819700  0.517700  1.0
  C  C203  1  0.240100  0.420400  0.938100  1.0
  C  C204  1  0.180300  0.759900  0.698000  1.0
  C  C205  1  0.417500  0.224600  0.472400  1.0
  C  C206  1  0.807100  0.582500  0.054900  1.0
  C  C207  1  0.775400  0.192900  0.247800  1.0
  C  C208  1  0.582500  0.775400  0.527600  1.0
  C  C209  1  0.192900  0.417500  0.945100  1.0
  C  C210  1  0.224600  0.807100  0.752200  1.0
  C  C211  1  0.392500  0.215700  0.413600  1.0
  C  C212  1  0.823200  0.607500  0.021100  1.0
  C  C213  1  0.784300  0.176800  0.197900  1.0
  C  C214  1  0.607500  0.784300  0.586400  1.0
  C  C215  1  0.176800  0.392500  0.978900  1.0
  C  C216  1  0.215700  0.823200  0.802100  1.0
  C  C217  1  0.399600  0.123400  0.433000  1.0
  C  C218  1  0.723800  0.600400  0.033400  1.0
  C  C219  1  0.876600  0.276200  0.309600  1.0
  C  C220  1  0.600400  0.876600  0.567000  1.0
  C  C221  1  0.276200  0.399600  0.966600  1.0
  C  C222  1  0.123400  0.723800  0.690400  1.0
  C  C223  1  0.378600  0.291700  0.412100  1.0
  C  C224  1  0.913100  0.621400  0.033500  1.0
  C  C225  1  0.708300  0.086900  0.120400  1.0
  C  C226  1  0.621400  0.708300  0.587900  1.0
  C  C227  1  0.086900  0.378600  0.966500  1.0
  C  C228  1  0.291700  0.913100  0.879600  1.0
  C  C229  1  0.418500  0.500800  0.081500  1.0
  C  C230  1  0.082300  0.581500  0.663000  1.0
  C  C231  1  0.499200  0.917700  0.580700  1.0
  C  C232  1  0.581500  0.499200  0.918500  1.0
  C  C233  1  0.917700  0.418500  0.337000  1.0
  C  C234  1  0.500800  0.082300  0.419300  1.0
  C  C235  1  0.368900  0.368600  0.157700  1.0
  C  C236  1  0.999700  0.631100  0.788800  1.0
  C  C237  1  0.631400  0.000300  0.789100  1.0
  C  C238  1  0.631100  0.631400  0.842300  1.0
  C  C239  1  0.000300  0.368900  0.211200  1.0
  C  C240  1  0.368600  0.999700  0.210900  1.0
  C  C241  1  0.377000  0.377000  0.113500  1.0
  C  C242  1  0.000000  0.623000  0.736500  1.0
  C  C243  1  0.623000  0.000000  0.736500  1.0
  C  C244  1  0.623000  0.623000  0.886500  1.0
  C  C245  1  0.000000  0.377000  0.263500  1.0
  C  C246  1  0.377000  0.000000  0.263500  1.0
  C  C247  1  0.445400  0.550400  0.142000  1.0
  C  C248  1  0.105000  0.554600  0.696600  1.0
  C  C249  1  0.449600  0.895000  0.591600  1.0
  C  C250  1  0.554600  0.449600  0.858000  1.0
  C  C251  1  0.895000  0.445400  0.303400  1.0
  C  C252  1  0.550400  0.105000  0.408400  1.0
  C  C253  1  0.445800  0.541600  0.190200  1.0
  C  C254  1  0.095800  0.554200  0.744400  1.0
  C  C255  1  0.458400  0.904200  0.648600  1.0
  C  C256  1  0.554200  0.458400  0.809800  1.0
  C  C257  1  0.904200  0.445800  0.255600  1.0
  C  C258  1  0.541600  0.095800  0.351400  1.0
  C  C259  1  0.419800  0.481500  0.179500  1.0
  C  C260  1  0.061700  0.580200  0.759700  1.0
  C  C261  1  0.518500  0.938300  0.698000  1.0
  C  C262  1  0.580200  0.518500  0.820500  1.0
  C  C263  1  0.938300  0.419800  0.240300  1.0
  C  C264  1  0.481500  0.061700  0.302000  1.0
  C  C265  1  0.416300  0.471800  0.224100  1.0
  C  C266  1  0.055500  0.583700  0.807800  1.0
  C  C267  1  0.528200  0.944500  0.752300  1.0
  C  C268  1  0.583700  0.528200  0.775900  1.0
  C  C269  1  0.944500  0.416300  0.192200  1.0
  C  C270  1  0.471800  0.055500  0.247700  1.0
  C  C271  1  0.391900  0.413100  0.213900  1.0
  C  C272  1  0.021200  0.608100  0.822000  1.0
  C  C273  1  0.586900  0.978800  0.800800  1.0
  C  C274  1  0.608100  0.586900  0.786100  1.0
  C  C275  1  0.978800  0.391900  0.178000  1.0
  C  C276  1  0.413100  0.021200  0.199200  1.0
  C  C277  1  0.400600  0.435000  0.122600  1.0
  C  C278  1  0.034400  0.599400  0.722000  1.0
  C  C279  1  0.565000  0.965600  0.687600  1.0
  C  C280  1  0.599400  0.565000  0.877400  1.0
  C  C281  1  0.965600  0.400600  0.278000  1.0
  C  C282  1  0.435000  0.034400  0.312400  1.0
  C  C283  1  0.382900  0.407700  0.290800  1.0
  C  C284  1  0.024800  0.617100  0.907900  1.0
  C  C285  1  0.592300  0.975200  0.883100  1.0
  C  C286  1  0.617100  0.592300  0.709200  1.0
  C  C287  1  0.975200  0.382900  0.092100  1.0
  C  C288  1  0.407700  0.024800  0.116900  1.0
  C  C289  1  0.081700  0.501000  0.419000  1.0
  C  C290  1  0.419300  0.918300  0.337300  1.0
  C  C291  1  0.499000  0.580700  0.918000  1.0
  C  C292  1  0.918300  0.499000  0.581000  1.0
  C  C293  1  0.580700  0.081700  0.662700  1.0
  C  C294  1  0.501000  0.419300  0.082000  1.0
  C  C295  1  0.157300  0.369000  0.368000  1.0
  C  C296  1  0.211700  0.842700  0.210700  1.0
  C  C297  1  0.631000  0.788300  0.999000  1.0
  C  C298  1  0.842700  0.631000  0.632000  1.0
  C  C299  1  0.788300  0.157300  0.789300  1.0
  C  C300  1  0.369000  0.211700  0.001000  1.0
  C  C301  1  0.114000  0.377200  0.377200  1.0
  C  C302  1  0.263200  0.886000  0.263200  1.0
  C  C303  1  0.622800  0.736800  0.000000  1.0
  C  C304  1  0.886000  0.622800  0.622800  1.0
  C  C305  1  0.736800  0.114000  0.736800  1.0
  C  C306  1  0.377200  0.263200  0.000000  1.0
  C  C307  1  0.142200  0.550000  0.445600  1.0
  C  C308  1  0.407800  0.857800  0.303400  1.0
  C  C309  1  0.450000  0.592200  0.895600  1.0
  C  C310  1  0.857800  0.450000  0.554400  1.0
  C  C311  1  0.592200  0.142200  0.696600  1.0
  C  C312  1  0.550000  0.407800  0.104400  1.0
  C  C313  1  0.189100  0.541200  0.446300  1.0
  C  C314  1  0.352100  0.810900  0.257200  1.0
  C  C315  1  0.458800  0.647900  0.905100  1.0
  C  C316  1  0.810900  0.458800  0.553700  1.0
  C  C317  1  0.647900  0.189100  0.742800  1.0
  C  C318  1  0.541200  0.352100  0.094900  1.0
  C  C319  1  0.176800  0.480600  0.419700  1.0
  C  C320  1  0.303800  0.823200  0.242900  1.0
  C  C321  1  0.519400  0.696200  0.939100  1.0
  C  C322  1  0.823200  0.519400  0.580300  1.0
  C  C323  1  0.696200  0.176800  0.757100  1.0
  C  C324  1  0.480600  0.303800  0.060900  1.0
  C  C325  1  0.225000  0.472900  0.417300  1.0
  C  C326  1  0.247900  0.775000  0.192300  1.0
  C  C327  1  0.527100  0.752100  0.944400  1.0
  C  C328  1  0.775000  0.527100  0.582700  1.0
  C  C329  1  0.752100  0.225000  0.807700  1.0
  C  C330  1  0.472900  0.247900  0.055600  1.0
  C  C331  1  0.212400  0.411100  0.392600  1.0
  C  C332  1  0.198700  0.787600  0.180200  1.0
  C  C333  1  0.588900  0.801300  0.981500  1.0
  C  C334  1  0.787600  0.588900  0.607400  1.0
  C  C335  1  0.801300  0.212400  0.819800  1.0
  C  C336  1  0.411100  0.198700  0.018500  1.0
  C  C337  1  0.122000  0.434600  0.399600  1.0
  C  C338  1  0.312600  0.878000  0.277600  1.0
  C  C339  1  0.565400  0.687400  0.965000  1.0
  C  C340  1  0.878000  0.565400  0.600400  1.0
  C  C341  1  0.687400  0.122000  0.722400  1.0
  C  C342  1  0.434600  0.312600  0.035000  1.0
  C  C343  1  0.294800  0.414800  0.379000  1.0
  C  C344  1  0.120000  0.705200  0.084200  1.0
  C  C345  1  0.585200  0.880000  0.964200  1.0
  C  C346  1  0.705200  0.585200  0.621000  1.0
  C  C347  1  0.880000  0.294800  0.915800  1.0
  C  C348  1  0.414800  0.120000  0.035800  1.0
  C  C349  1  0.337500  0.918200  0.419000  1.0
  C  C350  1  0.580700  0.662500  0.081500  1.0
  C  C351  1  0.081800  0.419300  0.500800  1.0
  C  C352  1  0.662500  0.081800  0.581000  1.0
  C  C353  1  0.419300  0.337500  0.918500  1.0
  C  C354  1  0.918200  0.580700  0.499200  1.0
  C  C355  1  0.210600  0.000100  0.369200  1.0
  C  C356  1  0.789500  0.789400  0.158600  1.0
  C  C357  1  0.999900  0.210500  0.369100  1.0
  C  C358  1  0.789400  0.999900  0.630800  1.0
  C  C359  1  0.210500  0.210600  0.841400  1.0
  C  C360  1  0.000100  0.789500  0.630900  1.0
  C  C361  1  0.263300  0.999900  0.376800  1.0
  C  C362  1  0.736600  0.736700  0.113500  1.0
  C  C363  1  0.000100  0.263400  0.376900  1.0
  C  C364  1  0.736700  0.000100  0.623200  1.0
  C  C365  1  0.263400  0.263300  0.886500  1.0
  C  C366  1  0.999900  0.736600  0.623100  1.0
  C  C367  1  0.303200  0.895500  0.445400  1.0
  C  C368  1  0.592300  0.696800  0.142200  1.0
  C  C369  1  0.104500  0.407700  0.549900  1.0
  C  C370  1  0.696800  0.104500  0.554600  1.0
  C  C371  1  0.407700  0.303200  0.857800  1.0
  C  C372  1  0.895500  0.592300  0.450100  1.0
  C  C373  1  0.254700  0.903500  0.444200  1.0
  C  C374  1  0.648800  0.745300  0.189500  1.0
  C  C375  1  0.096500  0.351200  0.540700  1.0
  C  C376  1  0.745300  0.096500  0.555800  1.0
  C  C377  1  0.351200  0.254700  0.810500  1.0
  C  C378  1  0.903500  0.648800  0.459300  1.0
  C  C379  1  0.239400  0.937700  0.418700  1.0
  C  C380  1  0.698300  0.760600  0.179300  1.0
  C  C381  1  0.062300  0.301700  0.481000  1.0
  C  C382  1  0.760600  0.062300  0.581300  1.0
  C  C383  1  0.301700  0.239400  0.820700  1.0
  C  C384  1  0.937700  0.698300  0.519000  1.0
  C  C385  1  0.191900  0.944400  0.417000  1.0
  C  C386  1  0.752500  0.808100  0.225100  1.0
  C  C387  1  0.055600  0.247500  0.472600  1.0
  C  C388  1  0.808100  0.055600  0.583000  1.0
  C  C389  1  0.247500  0.191900  0.774900  1.0
  C  C390  1  0.944400  0.752500  0.527400  1.0
  C  C391  1  0.176700  0.978200  0.392300  1.0
  C  C392  1  0.801500  0.823300  0.215600  1.0
  C  C393  1  0.021800  0.198500  0.414100  1.0
  C  C394  1  0.823300  0.021800  0.607700  1.0
  C  C395  1  0.198500  0.176700  0.784400  1.0
  C  C396  1  0.978200  0.801500  0.585900  1.0
  C  C397  1  0.276200  0.964500  0.399100  1.0
  C  C398  1  0.688300  0.723800  0.122900  1.0
  C  C399  1  0.035500  0.311700  0.434600  1.0
  C  C400  1  0.723800  0.035500  0.600900  1.0
  C  C401  1  0.311700  0.276200  0.877100  1.0
  C  C402  1  0.964500  0.688300  0.565400  1.0
  C  C403  1  0.087600  0.965600  0.378500  1.0
  C  C404  1  0.878000  0.912400  0.290900  1.0
  C  C405  1  0.034400  0.122000  0.412900  1.0
  C  C406  1  0.912400  0.034400  0.621500  1.0
  C  C407  1  0.122000  0.087600  0.709100  1.0
  C  C408  1  0.965600  0.878000  0.587100  1.0
  C  C409  1  0.378600  0.328600  0.380500  1.0
  C  C410  1  0.950000  0.621400  0.001900  1.0
  C  C411  1  0.671400  0.050000  0.051900  1.0
  C  C412  1  0.621400  0.671400  0.619500  1.0
  C  C413  1  0.050000  0.378600  0.998100  1.0
  C  C414  1  0.328600  0.950000  0.948100  1.0
  C  C415  1  0.396000  0.345100  0.348800  1.0
  C  C416  1  0.949100  0.604000  0.952800  1.0
  C  C417  1  0.654900  0.050900  0.003700  1.0
  C  C418  1  0.604000  0.654900  0.651200  1.0
  C  C419  1  0.050900  0.396000  0.047200  1.0
  C  C420  1  0.345100  0.949100  0.996300  1.0
  C  C421  1  0.382700  0.376400  0.328100  1.0
  C  C422  1  0.993700  0.617300  0.945400  1.0
  C  C423  1  0.623600  0.006300  0.951700  1.0
  C  C424  1  0.617300  0.623600  0.671900  1.0
  C  C425  1  0.006300  0.382700  0.054600  1.0
  C  C426  1  0.376400  0.993700  0.048300  1.0
  C  C427  1  0.347600  0.397400  0.346400  1.0
  C  C428  1  0.049800  0.652400  0.998800  1.0
  C  C429  1  0.602600  0.950200  0.949000  1.0
  C  C430  1  0.652400  0.602600  0.653600  1.0
  C  C431  1  0.950200  0.347600  0.001200  1.0
  C  C432  1  0.397400  0.049800  0.051000  1.0
  C  C433  1  0.330000  0.381400  0.377700  1.0
  C  C434  1  0.051400  0.670000  0.047700  1.0
  C  C435  1  0.618600  0.948600  0.996300  1.0
  C  C436  1  0.670000  0.618600  0.622300  1.0
  C  C437  1  0.948600  0.330000  0.952300  1.0
  C  C438  1  0.381400  0.051400  0.003700  1.0
  C  C439  1  0.345600  0.349600  0.397700  1.0
  C  C440  1  0.004000  0.654400  0.052100  1.0
  C  C441  1  0.650400  0.996000  0.048100  1.0
  C  C442  1  0.654400  0.650400  0.602300  1.0
  C  C443  1  0.996000  0.345600  0.947900  1.0
  C  C444  1  0.349600  0.004000  0.951900  1.0
  C  C445  1  0.046200  0.992000  0.375800  1.0
  C  C446  1  0.945800  0.953800  0.329600  1.0
  C  C447  1  0.008000  0.054200  0.383800  1.0
  C  C448  1  0.953800  0.008000  0.624200  1.0
  C  C449  1  0.054200  0.046200  0.670400  1.0
  C  C450  1  0.992000  0.945800  0.616200  1.0
  C  C451  1  0.052400  0.049100  0.397800  1.0
  C  C452  1  0.996700  0.947600  0.345400  1.0
  C  C453  1  0.950900  0.003300  0.348700  1.0
  C  C454  1  0.947600  0.950900  0.602200  1.0
  C  C455  1  0.003300  0.052400  0.654600  1.0
  C  C456  1  0.049100  0.996700  0.651300  1.0
  H  H457  1  0.457800  0.095500  0.506000  1
  H  H458  1  0.637700  0.542200  0.048200  1
  H  H459  1  0.904500  0.362300  0.410500  1
  H  H460  1  0.542200  0.904500  0.494000  1
  H  H461  1  0.362300  0.457800  0.951800  1
  H  H462  1  0.095500  0.637700  0.589500  1
  H  H463  1  0.329900  0.149000  0.345300  1
  H  H464  1  0.819100  0.670100  0.015400  1
  H  H465  1  0.851000  0.180900  0.196300  1
  H  H466  1  0.670100  0.851000  0.654700  1
  H  H467  1  0.180900  0.329900  0.984600  1
  H  H468  1  0.149000  0.819100  0.803700  1
  H  H469  1  0.344800  0.078600  0.368000  1
  H  H470  1  0.733800  0.655200  0.023200  1
  H  H471  1  0.921400  0.266200  0.289400  1
  H  H472  1  0.655200  0.921400  0.632000  1
  H  H473  1  0.266200  0.344800  0.976800  1
  H  H474  1  0.078600  0.733800  0.710600  1
  H  H475  1  0.364700  0.251300  0.401100  1
  H  H476  1  0.886600  0.635300  0.036400  1
  H  H477  1  0.748700  0.113400  0.149800  1
  H  H478  1  0.635300  0.748700  0.598900  1
  H  H479  1  0.113400  0.364700  0.963600  1
  H  H480  1  0.251300  0.886600  0.850200  1
  H  H481  1  0.590500  0.153600  0.465600  1
  H  H482  1  0.563100  0.409500  0.875100  1
  H  H483  1  0.846400  0.436900  0.312000  1
  H  H484  1  0.409500  0.846400  0.534400  1
  H  H485  1  0.436900  0.590500  0.124900  1
  H  H486  1  0.153600  0.563100  0.688000  1
  H  H487  1  0.573500  0.229400  0.460500  1
  H  H488  1  0.655900  0.426500  0.887000  1
  H  H489  1  0.770600  0.344100  0.231100  1
  H  H490  1  0.426500  0.770600  0.539500  1
  H  H491  1  0.344100  0.573500  0.113000  1
  H  H492  1  0.229400  0.655900  0.768900  1
  H  H493  1  0.505900  0.260700  0.431300  1
  H  H494  1  0.754800  0.494100  0.925400  1
  H  H495  1  0.739300  0.245200  0.170600  1
  H  H496  1  0.494100  0.739300  0.568700  1
  H  H497  1  0.245200  0.505900  0.074600  1
  H  H498  1  0.260700  0.754800  0.829400  1
  H  H499  1  0.506600  0.049100  0.412200  1
  H  H500  1  0.542500  0.493400  0.905600  1
  H  H501  1  0.950900  0.457500  0.363100  1
  H  H502  1  0.493400  0.950900  0.587800  1
  H  H503  1  0.457500  0.506600  0.094400  1
  H  H504  1  0.049100  0.542500  0.636900  1
  H  H505  1  0.346500  0.016900  0.197200  1
  H  H506  1  0.670400  0.653500  0.850700  1
  H  H507  1  0.983100  0.329600  0.180300  1
  H  H508  1  0.653500  0.983100  0.802800  1
  H  H509  1  0.329600  0.346500  0.149300  1
  H  H510  1  0.016900  0.670400  0.819700  1
  H  H511  1  0.368600  0.023600  0.289700  1
  H  H512  1  0.655000  0.631400  0.921100  1
  H  H513  1  0.976400  0.345000  0.266100  1
  H  H514  1  0.631400  0.976400  0.710300  1
  H  H515  1  0.345000  0.368600  0.078900  1
  H  H516  1  0.023600  0.655000  0.733900  1
  H  H517  1  0.403200  0.038800  0.148700  1
  H  H518  1  0.635600  0.596800  0.745500  1
  H  H519  1  0.961200  0.364400  0.109900  1
  H  H520  1  0.596800  0.961200  0.851300  1
  H  H521  1  0.364400  0.403200  0.254500  1
  H  H522  1  0.038800  0.635600  0.890100  1
  H  H523  1  0.464500  0.874900  0.312700  1
  H  H524  1  0.410400  0.535500  0.848200  1
  H  H525  1  0.125100  0.589600  0.437800  1
  H  H526  1  0.535500  0.125100  0.687300  1
  H  H527  1  0.589600  0.464500  0.151800  1
  H  H528  1  0.874900  0.410400  0.562200  1
  H  H529  1  0.465800  0.891300  0.235200  1
  H  H530  1  0.425500  0.534200  0.769400  1
  H  H531  1  0.108700  0.574500  0.343900  1
  H  H532  1  0.534200  0.108700  0.764800  1
  H  H533  1  0.574500  0.465800  0.230600  1
  H  H534  1  0.891300  0.425500  0.656100  1
  H  H535  1  0.433800  0.930200  0.171100  1
  H  H536  1  0.496400  0.566200  0.737300  1
  H  H537  1  0.069800  0.503600  0.240900  1
  H  H538  1  0.566200  0.069800  0.828900  1
  H  H539  1  0.503600  0.433800  0.262700  1
  H  H540  1  0.930200  0.496400  0.759100  1
  H  H541  1  0.412600  0.905800  0.363700  1
  H  H542  1  0.493200  0.587400  0.951100  1
  H  H543  1  0.094200  0.506800  0.457900  1
  H  H544  1  0.587400  0.094200  0.636300  1
  H  H545  1  0.506800  0.412600  0.048900  1
  H  H546  1  0.905800  0.493200  0.542100  1
  H  H547  1  0.199200  0.850700  0.179400  1
  H  H548  1  0.651500  0.800800  0.980200  1
  H  H549  1  0.149300  0.348500  0.328700  1
  H  H550  1  0.800800  0.149300  0.820600  1
  H  H551  1  0.348500  0.199200  0.019800  1
  H  H552  1  0.850700  0.651500  0.671300  1
  H  H553  1  0.289000  0.921100  0.266300  1
  H  H554  1  0.632100  0.711000  0.977300  1
  H  H555  1  0.078900  0.367900  0.345200  1
  H  H556  1  0.711000  0.078900  0.733700  1
  H  H557  1  0.367900  0.289000  0.022700  1
  H  H558  1  0.921100  0.632100  0.654800  1
  H  H559  1  0.149600  0.748500  0.113100  1
  H  H560  1  0.598900  0.850400  0.963500  1
  H  H561  1  0.251500  0.401100  0.364600  1
  H  H562  1  0.850400  0.251500  0.886900  1
  H  H563  1  0.401100  0.149600  0.036500  1
  H  H564  1  0.748500  0.598900  0.635400  1
  H  H565  1  0.313900  0.847000  0.437200  1
  H  H566  1  0.533100  0.686100  0.123300  1
  H  H567  1  0.153000  0.466900  0.590200  1
  H  H568  1  0.686100  0.153000  0.562800  1
  H  H569  1  0.466900  0.313900  0.876700  1
  H  H570  1  0.847000  0.533100  0.409800  1
  H  H571  1  0.234200  0.772500  0.346800  1
  H  H572  1  0.538300  0.765800  0.112600  1
  H  H573  1  0.227500  0.461700  0.574300  1
  H  H574  1  0.765800  0.227500  0.653200  1
  H  H575  1  0.461700  0.234200  0.887400  1
  H  H576  1  0.772500  0.538300  0.425700  1
  H  H577  1  0.169900  0.737200  0.241200  1
  H  H578  1  0.567300  0.830100  0.071300  1
  H  H579  1  0.262800  0.432700  0.504000  1
  H  H580  1  0.830100  0.262800  0.758800  1
  H  H581  1  0.432700  0.169900  0.928700  1
  H  H582  1  0.737200  0.567300  0.496000  1
  H  H583  1  0.363900  0.951200  0.457800  1
  H  H584  1  0.587300  0.636100  0.093900  1
  H  H585  1  0.048800  0.412700  0.506600  1
  H  H586  1  0.636100  0.048800  0.542200  1
  H  H587  1  0.412700  0.363900  0.906100  1
  H  H588  1  0.951200  0.587300  0.493400  1
  H  H589  1  0.180800  0.984300  0.329900  1
  H  H590  1  0.803500  0.819200  0.149100  1
  H  H591  1  0.015700  0.196500  0.345600  1
  H  H592  1  0.819200  0.015700  0.670100  1
  H  H593  1  0.196500  0.180800  0.850900  1
  H  H594  1  0.984300  0.803500  0.654400  1
  H  H595  1  0.265800  0.977300  0.344300  1
  H  H596  1  0.711500  0.734200  0.078500  1
  H  H597  1  0.022700  0.288500  0.367000  1
  H  H598  1  0.734200  0.022700  0.655700  1
  H  H599  1  0.288500  0.265800  0.921500  1
  H  H600  1  0.977300  0.711500  0.633000  1
  H  H601  1  0.439500  0.125800  0.588600  1
  H  H602  1  0.686300  0.560500  0.149100  1
  H  H603  1  0.874200  0.313700  0.462800  1
  H  H604  1  0.560500  0.874200  0.411400  1
  H  H605  1  0.313700  0.439500  0.850900  1
  H  H606  1  0.125800  0.686300  0.537200  1
  H  H607  1  0.346500  0.114700  0.573400  1
  H  H608  1  0.768200  0.653500  0.226900  1
  H  H609  1  0.885300  0.231800  0.458700  1
  H  H610  1  0.653500  0.885300  0.426600  1
  H  H611  1  0.231800  0.346500  0.773100  1
  H  H612  1  0.114700  0.768200  0.541300  1
  H  H613  1  0.242700  0.073600  0.505400  1
  H  H614  1  0.830900  0.757300  0.262700  1
  H  H615  1  0.926400  0.169100  0.431800  1
  H  H616  1  0.757300  0.926400  0.494600  1
  H  H617  1  0.169100  0.242700  0.737300  1
  H  H618  1  0.073600  0.830900  0.568200  1
  H  H619  1  0.113500  0.962500  0.363700  1
  H  H620  1  0.849000  0.886500  0.250200  1
  H  H621  1  0.037500  0.151000  0.401200  1
  H  H622  1  0.886500  0.037500  0.636300  1
  H  H623  1  0.151000  0.113500  0.749800  1
  H  H624  1  0.962500  0.849000  0.598800  1
  H  H625  1  0.148700  0.036500  0.400800  1
  H  H626  1  0.887800  0.851300  0.252100  1
  H  H627  1  0.963500  0.112200  0.364300  1
  H  H628  1  0.851300  0.963500  0.599200  1
  H  H629  1  0.112200  0.148700  0.747900  1
  H  H630  1  0.036500  0.887800  0.635700  1
  H  H631  1  0.398300  0.362900  0.250600  1
  H  H632  1  0.964600  0.601700  0.852300  1
  H  H633  1  0.637100  0.035400  0.887700  1
  H  H634  1  0.601700  0.637100  0.749400  1
  H  H635  1  0.035400  0.398300  0.147700  1
  H  H636  1  0.362900  0.964600  0.112300  1
  H  H637  1  0.412700  0.049400  0.506700  1.0
  H  H638  1  0.636700  0.587300  0.094000  1.0
  H  H639  1  0.950600  0.363300  0.457300  1.0
  H  H640  1  0.587300  0.950600  0.493300  1.0
  H  H641  1  0.363300  0.412700  0.906000  1.0
  H  H642  1  0.049400  0.636700  0.542700  1.0
  H  H643  1  0.346000  0.148800  0.329500  1.0
  H  H644  1  0.802800  0.654000  0.983500  1.0
  H  H645  1  0.851200  0.197200  0.180700  1.0
  H  H646  1  0.654000  0.851200  0.670500  1.0
  H  H647  1  0.197200  0.346000  0.016500  1.0
  H  H648  1  0.148800  0.802800  0.819300  1.0
  H  H649  1  0.366800  0.077900  0.345000  1.0
  H  H650  1  0.711100  0.633200  0.978200  1.0
  H  H651  1  0.922100  0.288900  0.267100  1.0
  H  H652  1  0.633200  0.922100  0.655000  1.0
  H  H653  1  0.288900  0.366800  0.021800  1.0
  H  H654  1  0.077900  0.711100  0.732900  1.0
  H  H655  1  0.403400  0.253400  0.365300  1.0
  H  H656  1  0.850000  0.596600  0.961900  1.0
  H  H657  1  0.746600  0.150000  0.111900  1.0
  H  H658  1  0.596600  0.746600  0.634700  1.0
  H  H659  1  0.150000  0.403400  0.038100  1.0
  H  H660  1  0.253400  0.850000  0.888100  1.0
  H  H661  1  0.465200  0.151400  0.588900  1.0
  H  H662  1  0.686200  0.534800  0.123700  1.0
  H  H663  1  0.848600  0.313800  0.437500  1.0
  H  H664  1  0.534800  0.848600  0.411100  1.0
  H  H665  1  0.313800  0.465200  0.876300  1.0
  H  H666  1  0.151400  0.686200  0.562500  1.0
  H  H667  1  0.462400  0.227400  0.575800  1.0
  H  H668  1  0.765000  0.537600  0.113400  1.0
  H  H669  1  0.772600  0.235000  0.348400  1.0
  H  H670  1  0.537600  0.772600  0.424200  1.0
  H  H671  1  0.235000  0.462400  0.886600  1.0
  H  H672  1  0.227400  0.765000  0.651600  1.0
  H  H673  1  0.432400  0.262200  0.505100  1.0
  H  H674  1  0.829800  0.567600  0.072700  1.0
  H  H675  1  0.737800  0.170200  0.242900  1.0
  H  H676  1  0.567600  0.737800  0.494900  1.0
  H  H677  1  0.170200  0.432400  0.927300  1.0
  H  H678  1  0.262200  0.829800  0.757100  1.0
  H  H679  1  0.411600  0.505900  0.048000  1.0
  H  H680  1  0.094300  0.588400  0.636400  1.0
  H  H681  1  0.494100  0.905700  0.542100  1.0
  H  H682  1  0.588400  0.494100  0.952000  1.0
  H  H683  1  0.905700  0.411600  0.363600  1.0
  H  H684  1  0.505900  0.094300  0.457900  1.0
  H  H685  1  0.345600  0.329200  0.148200  1.0
  H  H686  1  0.983600  0.654400  0.802600  1.0
  H  H687  1  0.670800  0.016400  0.819000  1.0
  H  H688  1  0.654400  0.670800  0.851800  1.0
  H  H689  1  0.016400  0.345600  0.197400  1.0
  H  H690  1  0.329200  0.983600  0.181000  1.0
  H  H691  1  0.366800  0.344600  0.078200  1.0
  H  H692  1  0.977800  0.633200  0.711400  1.0
  H  H693  1  0.655400  0.022200  0.733600  1.0
  H  H694  1  0.633200  0.655400  0.921800  1.0
  H  H695  1  0.022200  0.366800  0.288600  1.0
  H  H696  1  0.344600  0.977800  0.266400  1.0
  H  H697  1  0.463300  0.589800  0.149200  1.0
  H  H698  1  0.126500  0.536700  0.685900  1.0
  H  H699  1  0.410200  0.873500  0.559400  1.0
  H  H700  1  0.536700  0.410200  0.850800  1.0
  H  H701  1  0.873500  0.463300  0.314100  1.0
  H  H702  1  0.589800  0.126500  0.440600  1.0
  H  H703  1  0.462600  0.574300  0.228300  1.0
  H  H704  1  0.111700  0.537400  0.765700  1.0
  H  H705  1  0.425700  0.888300  0.654000  1.0
  H  H706  1  0.537400  0.425700  0.771700  1.0
  H  H707  1  0.888300  0.462600  0.234300  1.0
  H  H708  1  0.574300  0.111700  0.346000  1.0
  H  H709  1  0.430000  0.504000  0.261300  1.0
  H  H710  1  0.074000  0.570000  0.831300  1.0
  H  H711  1  0.496000  0.926000  0.757300  1.0
  H  H712  1  0.570000  0.496000  0.738700  1.0
  H  H713  1  0.926000  0.430000  0.168700  1.0
  H  H714  1  0.504000  0.074000  0.242700  1.0
  H  H715  1  0.048400  0.506400  0.412300  1.0
  H  H716  1  0.458000  0.951600  0.363900  1.0
  H  H717  1  0.493600  0.542000  0.905900  1.0
  H  H718  1  0.951600  0.493600  0.587700  1.0
  H  H719  1  0.542000  0.048400  0.636100  1.0
  H  H720  1  0.506400  0.458000  0.094100  1.0
  H  H721  1  0.146500  0.330000  0.341800  1.0
  H  H722  1  0.183500  0.853500  0.195300  1.0
  H  H723  1  0.670000  0.816500  0.011800  1.0
  H  H724  1  0.853500  0.670000  0.658200  1.0
  H  H725  1  0.816500  0.146500  0.804700  1.0
  H  H726  1  0.330000  0.183500  0.988200  1.0
  H  H727  1  0.079700  0.344900  0.368700  1.0
  H  H728  1  0.265200  0.920300  0.289000  1.0
  H  H729  1  0.655100  0.734800  0.023800  1.0
  H  H730  1  0.920300  0.655100  0.631300  1.0
  H  H731  1  0.734800  0.079700  0.711000  1.0
  H  H732  1  0.344900  0.265200  0.976200  1.0
  H  H733  1  0.253900  0.363900  0.401500  1.0
  H  H734  1  0.110000  0.746100  0.147600  1.0
  H  H735  1  0.636100  0.890000  0.037600  1.0
  H  H736  1  0.746100  0.636100  0.598500  1.0
  H  H737  1  0.890000  0.253900  0.852400  1.0
  H  H738  1  0.363900  0.110000  0.962400  1.0
  H  H739  1  0.149500  0.589500  0.463200  1.0
  H  H740  1  0.440000  0.850500  0.313700  1.0
  H  H741  1  0.410500  0.560000  0.873700  1.0
  H  H742  1  0.850500  0.410500  0.536800  1.0
  H  H743  1  0.560000  0.149500  0.686300  1.0
  H  H744  1  0.589500  0.440000  0.126300  1.0
  H  H745  1  0.227500  0.573600  0.463400  1.0
  H  H746  1  0.346100  0.772500  0.235900  1.0
  H  H747  1  0.426400  0.653900  0.889800  1.0
  H  H748  1  0.772500  0.426400  0.536600  1.0
  H  H749  1  0.653900  0.227500  0.764100  1.0
  H  H750  1  0.573600  0.346100  0.110200  1.0
  H  H751  1  0.262100  0.505100  0.430700  1.0
  H  H752  1  0.243000  0.737900  0.168600  1.0
  H  H753  1  0.494900  0.757000  0.925600  1.0
  H  H754  1  0.737900  0.494900  0.569300  1.0
  H  H755  1  0.757000  0.262100  0.831400  1.0
  H  H756  1  0.505100  0.243000  0.074400  1.0
  H  H757  1  0.364100  0.906300  0.412000  1.0
  H  H758  1  0.542200  0.635900  0.047900  1.0
  H  H759  1  0.093700  0.457800  0.505700  1.0
  H  H760  1  0.635900  0.093700  0.588000  1.0
  H  H761  1  0.457800  0.364100  0.952100  1.0
  H  H762  1  0.906300  0.542200  0.494300  1.0
  H  H763  1  0.196900  0.016500  0.346200  1.0
  H  H764  1  0.819600  0.803100  0.149300  1.0
  H  H765  1  0.983500  0.180400  0.329700  1.0
  H  H766  1  0.803100  0.983500  0.653800  1.0
  H  H767  1  0.180400  0.196900  0.850700  1.0
  H  H768  1  0.016500  0.819600  0.670300  1.0
  H  H769  1  0.288900  0.022600  0.367400  1.0
  H  H770  1  0.733700  0.711100  0.078500  1.0
  H  H771  1  0.977400  0.266300  0.344800  1.0
  H  H772  1  0.711100  0.977400  0.632600  1.0
  H  H773  1  0.266300  0.288900  0.921500  1.0
  H  H774  1  0.022600  0.733700  0.655200  1.0
  H  H775  1  0.314200  0.874600  0.464100  1.0
  H  H776  1  0.560400  0.685800  0.149900  1.0
  H  H777  1  0.125400  0.439600  0.589500  1.0
  H  H778  1  0.685800  0.125400  0.535900  1.0
  H  H779  1  0.439600  0.314200  0.850100  1.0
  H  H780  1  0.874600  0.560400  0.410500  1.0
  H  H781  1  0.232700  0.886500  0.459900  1.0
  H  H782  1  0.653800  0.767300  0.227200  1.0
  H  H783  1  0.113500  0.346200  0.573400  1.0
  H  H784  1  0.767300  0.113500  0.540100  1.0
  H  H785  1  0.346200  0.232700  0.772800  1.0
  H  H786  1  0.886500  0.653800  0.426600  1.0
  H  H787  1  0.169500  0.926600  0.432000  1.0
  H  H788  1  0.757100  0.830500  0.262500  1.0
  H  H789  1  0.073400  0.242900  0.505400  1.0
  H  H790  1  0.830500  0.073400  0.568000  1.0
  H  H791  1  0.242900  0.169500  0.737500  1.0
  H  H792  1  0.926600  0.757100  0.494600  1.0
  H  H793  1  0.421400  0.332600  0.339500  1.0
  H  H794  1  0.911200  0.578600  0.918100  1.0
  H  H795  1  0.667400  0.088800  0.006900  1.0
  H  H796  1  0.578600  0.667400  0.660500  1.0
  H  H797  1  0.088800  0.421400  0.081900  1.0
  H  H798  1  0.332600  0.911200  0.993100  1.0
  H  H799  1  0.337900  0.423300  0.335200  1.0
  H  H800  1  0.085400  0.662100  0.997300  1.0
  H  H801  1  0.576700  0.914600  0.911900  1.0
  H  H802  1  0.662100  0.576700  0.664800  1.0
  H  H803  1  0.914600  0.337900  0.002700  1.0
  H  H804  1  0.423300  0.085400  0.088100  1.0
  H  H805  1  0.334100  0.341000  0.423900  1.0
  H  H806  1  0.006900  0.665900  0.089800  1.0
  H  H807  1  0.659000  0.993100  0.082900  1.0
  H  H808  1  0.665900  0.659000  0.576100  1.0
  H  H809  1  0.993100  0.334100  0.910200  1.0
  H  H810  1  0.341000  0.006900  0.917100  1.0
  H  H811  1  0.090700  0.083100  0.423100  1.0
  H  H812  1  0.992400  0.909300  0.332400  1.0
  H  H813  1  0.916900  0.007600  0.340000  1.0
  H  H814  1  0.909300  0.916900  0.576900  1.0
  H  H815  1  0.007600  0.090700  0.667600  1.0
  H  H816  1  0.083100  0.992400  0.660000  1.0
  N  N817  1  0.445200  0.078400  0.406000  1
  N  N818  1  0.633200  0.554800  0.960800  1
  N  N819  1  0.921600  0.366800  0.327600  1
  N  N820  1  0.554800  0.921600  0.594000  1
  N  N821  1  0.366800  0.445200  0.039200  1
  N  N822  1  0.078400  0.633200  0.672400  1
  N  N823  1  0.404700  0.959300  0.326100  1
  N  N824  1  0.554600  0.595300  0.921400  1
  N  N825  1  0.040700  0.445400  0.366800  1
  N  N826  1  0.595300  0.040700  0.673900  1
  N  N827  1  0.445400  0.404700  0.078600  1
  N  N828  1  0.959300  0.554600  0.633200  1
  N  N829  1  0.326500  0.922000  0.367300  1
  N  N830  1  0.595500  0.673500  0.040800  1
  N  N831  1  0.078000  0.404500  0.445300  1
  N  N832  1  0.673500  0.078000  0.632700  1
  N  N833  1  0.404500  0.326500  0.959200  1
  N  N834  1  0.922000  0.595500  0.554700  1
  N  N835  1  0.367500  0.040000  0.446200  1
  N  N836  1  0.672500  0.632500  0.078700  1
  N  N837  1  0.960000  0.327500  0.406200  1
  N  N838  1  0.632500  0.960000  0.553800  1
  N  N839  1  0.327500  0.367500  0.921300  1
  N  N840  1  0.040000  0.672500  0.593800  1
  N  N841  1  0.404200  0.078300  0.445400  1.0
  N  N842  1  0.674100  0.595800  0.041200  1.0
  N  N843  1  0.921700  0.325900  0.367100  1.0
  N  N844  1  0.595800  0.921700  0.554600  1.0
  N  N845  1  0.325900  0.404200  0.958800  1.0
  N  N846  1  0.078300  0.674100  0.632900  1.0
  N  N847  1  0.404300  0.445400  0.078100  1.0
  N  N848  1  0.041100  0.595700  0.673800  1.0
  N  N849  1  0.554600  0.958900  0.632700  1.0
  N  N850  1  0.595700  0.554600  0.921900  1.0
  N  N851  1  0.958900  0.404300  0.326200  1.0
  N  N852  1  0.445400  0.041100  0.367300  1.0
  N  N853  1  0.078200  0.445400  0.404500  1.0
  N  N854  1  0.367200  0.921800  0.326300  1.0
  N  N855  1  0.554600  0.632800  0.959100  1.0
  N  N856  1  0.921800  0.554600  0.595500  1.0
  N  N857  1  0.632800  0.078200  0.673700  1.0
  N  N858  1  0.445400  0.367200  0.040900  1.0
  N  N859  1  0.326100  0.959600  0.405400  1.0
  N  N860  1  0.633500  0.673900  0.079300  1.0
  N  N861  1  0.040400  0.366500  0.445800  1.0
  N  N862  1  0.673900  0.040400  0.594600  1.0
  N  N863  1  0.366500  0.326100  0.920700  1.0
  N  N864  1  0.959600  0.633500  0.554200  1.0
  N  N865  1  0.137700  0.999500  0.391800  0.14285714285714285
  O  O866  1  0.137700  0.999500  0.391800  0.8571428571428571
  N  N867  1  0.861800  0.862300  0.254100  0.14285714285714285
  O  O868  1  0.861800  0.862300  0.254100  0.8571428571428571
  N  N869  1  0.000500  0.138200  0.392300  0.14285714285714285
  O  O870  1  0.000500  0.138200  0.392300  0.8571428571428571
  N  N871  1  0.862300  0.000500  0.608200  0.14285714285714285
  O  O872  1  0.862300  0.000500  0.608200  0.8571428571428571
  N  N873  1  0.138200  0.137700  0.745900  0.14285714285714285
  O  O874  1  0.138200  0.137700  0.745900  0.8571428571428571
  N  N875  1  0.999500  0.861800  0.607700  0.14285714285714285
  O  O876  1  0.999500  0.861800  0.607700  0.8571428571428571
  N  N877  1  0.393000  0.254800  0.392300  0.8571428571428571
  O  O878  1  0.393000  0.254800  0.392300  0.14285714285714285
  N  N879  1  0.861800  0.607000  0.999300  0.8571428571428571
  O  O880  1  0.861800  0.607000  0.999300  0.14285714285714285
  N  N881  1  0.745200  0.138200  0.137500  0.8571428571428571
  O  O882  1  0.745200  0.138200  0.137500  0.14285714285714285
  N  N883  1  0.607000  0.745200  0.607700  0.8571428571428571
  O  O884  1  0.607000  0.745200  0.607700  0.14285714285714285
  N  N885  1  0.138200  0.393000  0.000700  0.8571428571428571
  O  O886  1  0.138200  0.393000  0.000700  0.14285714285714285
  N  N887  1  0.254800  0.861800  0.862500  0.8571428571428571
  O  O888  1  0.254800  0.861800  0.862500  0.14285714285714285
  N  N889  1  0.254700  0.391600  0.392400  0.8571428571428571
  O  O890  1  0.254700  0.391600  0.392400  0.14285714285714285
  N  N891  1  0.136900  0.745300  0.137700  0.8571428571428571
  O  O892  1  0.136900  0.745300  0.137700  0.14285714285714285
  N  N893  1  0.608400  0.863100  0.000800  0.8571428571428571
  O  O894  1  0.608400  0.863100  0.000800  0.14285714285714285
  N  N895  1  0.745300  0.608400  0.607600  0.8571428571428571
  O  O896  1  0.745300  0.608400  0.607600  0.14285714285714285
  N  N897  1  0.863100  0.254700  0.862300  0.8571428571428571
  O  O898  1  0.863100  0.254700  0.862300  0.14285714285714285
  N  N899  1  0.391600  0.136900  0.999200  0.8571428571428571
  O  O900  1  0.391600  0.136900  0.999200  0.14285714285714285
  N  N901  1  0.391100  0.392300  0.255400  0.8571428571428571
  O  O902  1  0.391100  0.392300  0.255400  0.14285714285714285
  N  N903  1  0.001200  0.608900  0.864300  0.8571428571428571
  O  O904  1  0.001200  0.608900  0.864300  0.14285714285714285
  N  N905  1  0.607700  0.998800  0.863100  0.8571428571428571
  O  O906  1  0.607700  0.998800  0.863100  0.14285714285714285
  N  N907  1  0.608900  0.607700  0.744600  0.8571428571428571
  O  O908  1  0.608900  0.607700  0.744600  0.14285714285714285
  N  N909  1  0.998800  0.391100  0.135700  0.8571428571428571
  O  O910  1  0.998800  0.391100  0.135700  0.14285714285714285
  N  N911  1  0.392300  0.001200  0.136900  0.8571428571428571
  O  O912  1  0.392300  0.001200  0.136900  0.14285714285714285
  O  O913  1  0.465300  0.308800  0.384800  1
  O  O914  1  0.843500  0.534700  0.919500  1
  O  O915  1  0.691200  0.156500  0.076000  1
  O  O916  1  0.534700  0.691200  0.615200  1
  O  O917  1  0.156500  0.465300  0.080500  1
  O  O918  1  0.308800  0.843500  0.924000  1
  O  O919  1  0.383900  0.924000  0.079700  1
  O  O920  1  0.540100  0.616100  0.695800  1
  O  O921  1  0.076000  0.459900  0.155700  1
  O  O922  1  0.616100  0.076000  0.920300  1
  O  O923  1  0.459900  0.383900  0.304200  1
  O  O924  1  0.924000  0.540100  0.844300  1
  O  O925  1  0.078800  0.695700  0.158700  1
  O  O926  1  0.616900  0.921200  0.079900  1
  O  O927  1  0.304300  0.383100  0.463000  1
  O  O928  1  0.921200  0.304300  0.841300  1
  O  O929  1  0.383100  0.078800  0.920100  1
  O  O930  1  0.695700  0.616900  0.537000  1
  O  O931  1  0.157100  0.078800  0.459700  1
  O  O932  1  0.921700  0.842900  0.302600  1
  O  O933  1  0.921200  0.078300  0.380900  1
  O  O934  1  0.842900  0.921200  0.540300  1
  O  O935  1  0.078300  0.157100  0.697400  1
  O  O936  1  0.078800  0.921700  0.619100  1
  O  O937  1  0.384200  0.306800  0.465100  1.0
  O  O938  1  0.922600  0.615800  0.080900  1.0
  O  O939  1  0.693200  0.077400  0.158300  1.0
  O  O940  1  0.615800  0.693200  0.534900  1.0
  O  O941  1  0.077400  0.384200  0.919100  1.0
  O  O942  1  0.306800  0.922600  0.841700  1.0
  O  O943  1  0.383600  0.457400  0.302900  1.0
  O  O944  1  0.073800  0.616400  0.919300  1.0
  O  O945  1  0.542600  0.926200  0.845500  1.0
  O  O946  1  0.616400  0.542600  0.697100  1.0
  O  O947  1  0.926200  0.383600  0.080700  1.0
  O  O948  1  0.457400  0.073800  0.154500  1.0
  O  O949  1  0.304500  0.465400  0.382800  1.0
  O  O950  1  0.160900  0.695500  0.078300  1.0
  O  O951  1  0.534600  0.839100  0.917400  1.0
  O  O952  1  0.695500  0.534600  0.617200  1.0
  O  O953  1  0.839100  0.304500  0.921700  1.0
  O  O954  1  0.465400  0.160900  0.082600  1.0
  O  O955  1  0.075500  0.918000  0.382300  1.0
  O  O956  1  0.842500  0.924500  0.306800  1.0
  O  O957  1  0.082000  0.157500  0.464300  1.0
  O  O958  1  0.924500  0.082000  0.617700  1.0
  O  O959  1  0.157500  0.075500  0.693200  1.0
  O  O960  1  0.918000  0.842500  0.535700  1.0
  Pd  Pd961  1  0.383025  0.999986  0.382997  1.0
  Pd  Pd962  1  0.616961  0.616975  0.999972  1.0
  Pd  Pd963  1  0.000014  0.383039  0.383011  1.0
  Pd  Pd964  1  0.616975  0.000014  0.617003  1.0
  Pd  Pd965  1  0.383039  0.383025  0.000028  1.0
  Pd  Pd966  1  0.999986  0.616961  0.616989  1.0
