
#######################################################################
#
#                 Cambridge Crystallographic Data Centre
#                                CCDC 
#
#######################################################################
#
# If this CIF has been generated from an entry in the Cambridge 
# Structural Database, then it will include bibliographic, chemical, 
# crystal, experimental, refinement or atomic coordinate data resulting 
# from the CCDC's data processing and validation procedures.
#
#######################################################################

data_ZOXVAL
_chemical_formula_moiety         
'C288 H186 N42 O30 Pd6 12+,12(N1 O3 1-),14(C2 H6 O1 S1),13(H2 O1)'
_chemical_name_systematic        
"hexakis(\m~3~-N,N',N''-tris(Quinolin-6-yl)benzene-1,3,5-tricarboxamide)-bis(\m~3~-tris(quinolin-6-yl) benzene-1,3,5-tricarboxylate)-hexa-palladium dodecanitrate dimethylsulfoxide solvate tridecahydrate"
_symmetry_cell_setting           rhombohedral
_symmetry_space_group_name_H-M   'R -3'
_symmetry_Int_Tables_number      148
_space_group_name_Hall           '-R 3'
loop_
_symmetry_equiv_pos_site_id
_symmetry_equiv_pos_as_xyz
1 x,y,z
2 -y,x-y,z
3 -x+y,-x,z
4 2/3+x,1/3+y,1/3+z
5 2/3-y,1/3+x-y,1/3+z
6 2/3-x+y,1/3-x,1/3+z
7 1/3+x,2/3+y,2/3+z
8 1/3-y,2/3+x-y,2/3+z
9 1/3-x+y,2/3-x,2/3+z
10 -x,-y,-z
11 y,-x+y,-z
12 x-y,x,-z
13 1/3-x,2/3-y,2/3-z
14 1/3+y,2/3-x+y,2/3-z
15 1/3+x-y,2/3+x,2/3-z
16 2/3-x,1/3-y,1/3-z
17 2/3+y,1/3-x+y,1/3-z
18 2/3+x-y,1/3+x,1/3-z
_cell_length_a                   45.2042(7)
_cell_length_b                   45.2042(7)
_cell_length_c                   27.6805(4)
_cell_angle_alpha                90
_cell_angle_beta                 90
_cell_angle_gamma                120
_cell_volume                     48984.9
_exptl_crystal_colour            yellow
_exptl_crystal_description       block
_cell_formula_units_Z            3
loop_
_atom_site_label
_atom_site_type_symbol
_atom_site_fract_x
_atom_site_fract_y
_atom_site_fract_z
Pd1 Pd 0.205663(19) 0.411312(19) 0.41134(3)
O1 O 0.1030(6) 0.5128(6) 0.4319(11)
O2 O 0.0530(7) 0.5634(9) 0.6441(9)
O3 O 0.0767(8) 0.6188(6) 0.5405(8)
O4 O 0.3355(7) 0.5890(6) 0.2822(10)
N1 N 0.1725(5) 0.4233(4) 0.3821(6)
N2 N 0.0501(4) 0.5456(6) 0.8718(6)
N3 N 0.1588(6) 0.7630(5) 0.4367(6)
N4 N 0.2381(4) 0.4358(4) 0.3565(6)
C1 C 0.1661(3) 0.4147(3) 0.3331(5)
H1 H 0.1793 0.4080 0.3140
C2 C 0.1574(3) 0.4733(3) 0.4735(4)
H2 H 0.1684 0.4856 0.5021
C3 C 0.1699(3) 0.4531(3) 0.4529(4)
H3 H 0.1851 0.4481 0.4699
N5 N 0.1174(3) 0.4896(3) 0.4903(5)
H4 H 0.1144 0.4822 0.5203
C4 C 0.1366(6) 0.4172(6) 0.3139(10)
H5 H 0.1278 0.4070 0.2833
C5 C 0.1213(6) 0.4325(6) 0.3361(9)
H6 H 0.1034 0.4342 0.3208
C6 C 0.1331(5) 0.4465(5) 0.3846(7)
C7 C 0.1193(5) 0.4632(5) 0.4083(8)
H7 H 0.1018 0.4658 0.3931
C8 C 0.1306(5) 0.4769(7) 0.4558(6)
C9 C 0.1590(5) 0.4414(5) 0.4080(9)
C10 C 0.1099(8) 0.5115(8) 0.4780(9)
C11 C 0.0269(3) 0.5546(4) 0.8916(4)
H8 H 0.0275 0.5609 0.9245
C12 C 0.0875(3) 0.5436(4) 0.7548(5)
H9 H 0.1084 0.5460 0.7434
C13 C 0.0820(3) 0.5410(4) 0.8045(4)
H10 H 0.0962 0.5370 0.8256
C14 C 0.0014(6) 0.5532(9) 0.8566(9)
H11 H -0.0177 0.5544 0.8685
C15 C 0.0042(7) 0.5500(9) 0.8056(9)
H12 H -0.0123 0.5497 0.7840
C16 C 0.0329(5) 0.5473(7) 0.7876(8)
C17 C 0.0373(6) 0.5464(8) 0.7386(9)
H13 H 0.0220 0.5480 0.7167
C18 C 0.0650(7) 0.5431(11) 0.7211(10)
C19 C 0.0548(5) 0.5446(7) 0.8226(8)
C20 C 0.0698(12) 0.5473(13) 0.6394(6)
C21 C 0.1391(4) 0.7792(3) 0.4419(4)
H14 H 0.1484 0.8032 0.4393
C22 C 0.1579(4) 0.6848(3) 0.4741(4)
H15 H 0.1745 0.6790 0.4837
C23 C 0.1696(4) 0.7164(3) 0.4532(4)
H16 H 0.1918 0.7285 0.4395
N6 N 0.1179(4) 0.6274(3) 0.4897(5)
H17 H 0.1274 0.6187 0.4711
C24 C 0.1026(9) 0.7552(7) 0.4518(8)
H18 H 0.0870 0.7635 0.4498
C25 C 0.0899(8) 0.7210(6) 0.4638(9)
H19 H 0.0663 0.7062 0.4703
C26 C 0.1142(7) 0.7090(5) 0.4661(7)
C27 C 0.1007(8) 0.6743(5) 0.4820(6)
H20 H 0.0776 0.6603 0.4917
C28 C 0.1255(10) 0.6621(7) 0.4819(10)
C29 C 0.1478(8) 0.7302(6) 0.4526(8)
C30 C 0.0968(7) 0.6084(5) 0.5242(9)
C31 C 0.2481(3) 0.4144(3) 0.3329(5)
H21 H 0.2432 0.3927 0.3448
C32 C 0.2631(3) 0.5263(3) 0.3677(4)
H22 H 0.2622 0.5409 0.3916
C33 C 0.2456(3) 0.4911(3) 0.3776(3)
H23 H 0.2295 0.4816 0.4031
C34 C 0.2671(6) 0.4297(6) 0.2875(9)
H24 H 0.2704 0.4154 0.2655
C35 C 0.2806(7) 0.4647(6) 0.2752(9)
H25 H 0.2936 0.4737 0.2465
C36 C 0.2743(6) 0.4863(6) 0.3070(8)
C37 C 0.2879(5) 0.5202(5) 0.2951(7)
H26 H 0.3013 0.5292 0.2667
C38 C 0.2817(6) 0.5416(4) 0.3260(7)
C39 C 0.2531(6) 0.4707(5) 0.3478(8)
C40 C 0.3156(9) 0.5968(5) 0.3059(11)
O5 O 0.2876(3) 0.5747(3) 0.3206(4)
C41 C 0.0976(4) 0.5238(5) 0.5219(10)
C42 C 0.0863(4) 0.5177(4) 0.5649(9)
H27 H 0.0820 0.4966 0.5785
C43 C 0.0803(4) 0.5370(7) 0.5916(5)
C44 C 0.0850(4) 0.5674(6) 0.5686(8)
H28 H 0.0796 0.5825 0.5852
C45 C 0.0962(6) 0.5738(4) 0.5261(8)
C46 C 0.1016(4) 0.5528(6) 0.5007(5)
H29 H 0.1083 0.5576 0.4678
C47 C 0.3206(8) 0.6332(3) 0.3036(5)
C48 C 0.2995(3) 0.6481(7) 0.3027(5)
H30 H 0.2754 0.6339 0.3015
N7 N 0.0722(3) 0.5367(5) 0.6724(5)
O4A O 0.4110(6) 0.7465(9) 0.2822(10)
N4A N 0.5642(4) 0.8023(6) 0.3565(6)
C31A C 0.5856(3) 0.8337(4) 0.3329(5)
H21A H 0.6073 0.8505 0.3448
C32A C 0.4737(3) 0.7368(4) 0.3677(4)
H22A H 0.4591 0.7213 0.3916
C33A C 0.5089(3) 0.7545(4) 0.3776(3)
H23A H 0.5184 0.7479 0.4031
C34A C 0.5703(6) 0.8374(8) 0.2875(9)
H24A H 0.5846 0.8550 0.2655
C35A C 0.5353(6) 0.8159(9) 0.2752(9)
H25A H 0.5263 0.8199 0.2465
C36A C 0.5137(6) 0.7880(8) 0.3070(8)
C37A C 0.4798(5) 0.7677(7) 0.2951(7)
H26A H 0.4708 0.7721 0.2667
C38A C 0.4584(4) 0.7401(7) 0.3260(7)
C39A C 0.5293(5) 0.7824(8) 0.3478(8)
C40A C 0.4032(5) 0.7188(10) 0.3059(11)
O5A O 0.4253(3) 0.7129(4) 0.3206(4)
C47A C 0.3668(3) 0.6874(9) 0.3036(5)
C48A C 0.3519(7) 0.6514(8) 0.3027(5)
H30A H 0.3661 0.6415 0.3015
O4B O 0.2535(9) 0.6645(7) 0.2822(10)
N4B N 0.1977(6) 0.7619(4) 0.3565(6)
C31B C 0.1663(4) 0.7519(3) 0.3329(5)
H21B H 0.1495 0.7568 0.3448
C32B C 0.2632(4) 0.7369(3) 0.3677(4)
H22B H 0.2787 0.7378 0.3916
C33B C 0.2455(4) 0.7544(3) 0.3776(3)
H23B H 0.2521 0.7705 0.4031
C34B C 0.1626(8) 0.7329(6) 0.2875(9)
H24B H 0.1450 0.7296 0.2655
C35B C 0.1841(9) 0.7194(7) 0.2752(9)
H25B H 0.1801 0.7064 0.2465
C36B C 0.2120(8) 0.7257(6) 0.3070(8)
C37B C 0.2323(7) 0.7121(5) 0.2951(7)
H26B H 0.2279 0.6987 0.2667
C38B C 0.2599(7) 0.7183(6) 0.3260(7)
C39B C 0.2176(8) 0.7469(6) 0.3478(8)
C40B C 0.2812(10) 0.6844(9) 0.3059(11)
O5B O 0.2871(4) 0.7124(3) 0.3206(4)
C47B C 0.3126(9) 0.6794(8) 0.3036(5)
C48B C 0.3486(8) 0.7005(3) 0.3027(5)
H30B H 0.3585 0.7246 0.3015
Pd1A Pd 0.588688(19) 0.794351(27) 0.41134(3)
O1A O 0.4872(6) 0.5902(8) 0.4319(11)
O2A O 0.4366(9) 0.4896(11) 0.6441(9)
O3A O 0.3812(6) 0.4579(10) 0.5405(8)
N1A N 0.5767(4) 0.7492(6) 0.3821(6)
N2A N 0.4544(6) 0.5045(7) 0.8718(6)
N3A N 0.2370(5) 0.3958(8) 0.4367(6)
C1A C 0.5853(3) 0.7514(4) 0.3331(5)
H1A H 0.5920 0.7713 0.3140
C2A C 0.5267(3) 0.6841(4) 0.4735(4)
H2A H 0.5144 0.6828 0.5021
C3A C 0.5469(3) 0.7168(4) 0.4529(4)
H3A H 0.5519 0.7370 0.4699
N5A N 0.5104(3) 0.6278(4) 0.4903(5)
H4A H 0.5178 0.6322 0.5203
C4A C 0.5828(6) 0.7194(8) 0.3139(10)
H5A H 0.5930 0.7208 0.2833
C5A C 0.5675(6) 0.6888(8) 0.3361(9)
H6A H 0.5658 0.6692 0.3208
C6A C 0.5535(5) 0.6866(7) 0.3846(7)
C7A C 0.5368(5) 0.6561(7) 0.4083(8)
H7A H 0.5342 0.6360 0.3931
C8A C 0.5231(7) 0.6537(9) 0.4558(6)
C9A C 0.5586(5) 0.7176(7) 0.4080(9)
C10A C 0.4885(8) 0.5984(11) 0.4780(9)
C11A C 0.4454(4) 0.4723(5) 0.8916(4)
H8A H 0.4391 0.4666 0.9245
C12A C 0.4564(4) 0.5439(5) 0.7548(5)
H9A H 0.4540 0.5624 0.7434
C13A C 0.4590(4) 0.5410(5) 0.8045(4)
H10A H 0.4630 0.5592 0.8256
C14A C 0.4468(9) 0.4482(11) 0.8566(9)
H11A H 0.4456 0.4279 0.8685
C15A C 0.4500(9) 0.4542(11) 0.8056(9)
H12A H 0.4503 0.4380 0.7840
C16A C 0.4527(7) 0.4856(9) 0.7876(8)
C17A C 0.4536(8) 0.4909(10) 0.7386(9)
H13A H 0.4520 0.4740 0.7167
C18A C 0.4569(11) 0.5219(13) 0.7211(10)
C19A C 0.4554(7) 0.5102(9) 0.8226(8)
C20A C 0.4527(13) 0.5225(18) 0.6394(6)
C21A C 0.2208(3) 0.3599(5) 0.4419(4)
H14A H 0.1968 0.3452 0.4393
C22A C 0.3152(3) 0.4731(5) 0.4741(4)
H15A H 0.3210 0.4955 0.4837
C23A C 0.2836(3) 0.4532(5) 0.4532(4)
H16A H 0.2715 0.4633 0.4395
N6A N 0.3726(3) 0.4905(5) 0.4897(5)
H17A H 0.3813 0.5087 0.4711
C24A C 0.2448(7) 0.3474(11) 0.4518(8)
H18A H 0.2365 0.3235 0.4498
C25A C 0.2790(6) 0.3689(10) 0.4638(9)
H19A H 0.2938 0.3601 0.4703
C26A C 0.2910(5) 0.4052(9) 0.4661(7)
C27A C 0.3257(5) 0.4264(9) 0.4820(6)
H20A H 0.3397 0.4173 0.4917
C28A C 0.3379(7) 0.4634(12) 0.4819(10)
C29A C 0.2698(6) 0.4176(10) 0.4526(8)
C30A C 0.3916(5) 0.4884(9) 0.5242(9)
C41A C 0.4762(5) 0.5738(6) 0.5219(10)
C42A C 0.4823(4) 0.5686(6) 0.5649(9)
H27A H 0.5034 0.5854 0.5785
C43A C 0.4630(7) 0.5433(8) 0.5916(5)
C44A C 0.4326(6) 0.5176(7) 0.5686(8)
H28A H 0.4175 0.4971 0.5852
C45A C 0.4262(4) 0.5224(7) 0.5261(8)
C46A C 0.4472(6) 0.5488(7) 0.5007(5)
H29A H 0.4424 0.5507 0.4678
N7A N 0.4633(5) 0.5355(6) 0.6724(5)
Pd1B Pd 0.205649(27) 0.794337(19) 0.41134(3)
O1B O 0.4098(8) 0.8970(6) 0.4319(11)
O2B O 0.5104(11) 0.9470(7) 0.6441(9)
O3B O 0.5421(10) 0.9233(8) 0.5405(8)
N1B N 0.2508(6) 0.8275(5) 0.3821(6)
N2B N 0.4955(7) 0.9499(4) 0.8718(6)
N3B N 0.6042(8) 0.8412(6) 0.4367(6)
C1B C 0.2486(4) 0.8339(3) 0.3331(5)
H1B H 0.2287 0.8207 0.3140
C2B C 0.3159(4) 0.8426(3) 0.4735(4)
H2B H 0.3172 0.8316 0.5021
C3B C 0.2832(4) 0.8301(3) 0.4529(4)
H3B H 0.2630 0.8149 0.4699
N5B N 0.3722(4) 0.8826(3) 0.4903(5)
H4B H 0.3678 0.8856 0.5203
C4B C 0.2806(8) 0.8634(6) 0.3139(10)
H5B H 0.2792 0.8722 0.2833
C5B C 0.3112(8) 0.8787(6) 0.3361(9)
H6B H 0.3308 0.8966 0.3208
C6B C 0.3134(7) 0.8669(5) 0.3846(7)
C7B C 0.3439(7) 0.8807(5) 0.4083(8)
H7B H 0.3640 0.8982 0.3931
C8B C 0.3463(9) 0.8694(5) 0.4558(6)
C9B C 0.2824(7) 0.8410(5) 0.4080(9)
C10B C 0.4016(11) 0.8901(8) 0.4780(9)
C11B C 0.5277(5) 0.9731(3) 0.8916(4)
H8B H 0.5334 0.9725 0.9245
C12B C 0.4561(5) 0.9125(3) 0.7548(5)
H9B H 0.4376 0.8916 0.7434
C13B C 0.4590(5) 0.9180(3) 0.8045(4)
H10B H 0.4408 0.9038 0.8256
C14B C 0.5518(11) 0.9986(6) 0.8566(9)
H11B H 0.5721 1.0177 0.8685
C15B C 0.5458(11) 0.9958(7) 0.8056(9)
H12B H 0.5620 1.0123 0.7840
C16B C 0.5144(9) 0.9671(5) 0.7876(8)
C17B C 0.5091(10) 0.9627(6) 0.7386(9)
H13B H 0.5260 0.9780 0.7167
C18B C 0.4781(13) 0.9350(7) 0.7211(10)
C19B C 0.4898(9) 0.9452(5) 0.8226(8)
C20B C 0.4775(18) 0.9302(12) 0.6394(6)
C21B C 0.6401(5) 0.8609(4) 0.4419(4)
H14B H 0.6548 0.8516 0.4393
C22B C 0.5269(5) 0.8421(4) 0.4741(4)
H15B H 0.5045 0.8255 0.4837
C23B C 0.5468(5) 0.8304(4) 0.4532(4)
H16B H 0.5367 0.8082 0.4395
N6B N 0.5095(5) 0.8821(4) 0.4897(5)
H17B H 0.4913 0.8726 0.4711
C24B C 0.6526(11) 0.8974(9) 0.4518(8)
H18B H 0.6765 0.9130 0.4498
C25B C 0.6311(10) 0.9101(8) 0.4638(9)
H19B H 0.6399 0.9337 0.4703
C26B C 0.5948(9) 0.8858(7) 0.4661(7)
C27B C 0.5736(9) 0.8993(8) 0.4820(6)
H20B H 0.5827 0.9224 0.4917
C28B C 0.5366(12) 0.8745(10) 0.4819(10)
C29B C 0.5824(10) 0.8522(8) 0.4526(8)
C30B C 0.5116(9) 0.9032(7) 0.5242(9)
C41B C 0.4262(6) 0.9024(4) 0.5219(10)
C42B C 0.4314(6) 0.9137(4) 0.5649(9)
H27B H 0.4146 0.9180 0.5785
C43B C 0.4567(8) 0.9197(4) 0.5916(5)
C44B C 0.4824(7) 0.9150(4) 0.5686(8)
H28B H 0.5029 0.9204 0.5852
C45B C 0.4776(7) 0.9038(6) 0.5261(8)
C46B C 0.4512(7) 0.8984(4) 0.5007(5)
H29B H 0.4493 0.8917 0.4678
N7B N 0.4645(6) 0.9278(3) 0.6724(5)
Pd1O Pd 0.461004(19) 0.922021(19) 0.92199(3)
O1O O 0.5637(6) 0.8205(6) 0.9014(11)
O2O O 0.6137(7) 0.7699(9) 0.6892(9)
O3O O 0.5900(8) 0.7145(6) 0.7928(8)
O4O O 0.3312(7) 0.7443(6) 1.0511(10)
N1O N 0.4942(5) 0.9100(4) 0.9512(6)
N2O N 0.6166(4) 0.7877(6) 0.4615(6)
N3O N 0.5079(6) 0.5703(5) 0.8966(6)
N4O N 0.4286(4) 0.8975(4) 0.9768(6)
C1O C 0.5006(3) 0.9186(3) 1.0002(5)
H1O H 0.4874 0.9253 1.0193
C2O C 0.5093(3) 0.8600(3) 0.8598(4)
H2O H 0.4983 0.8477 0.8312
C3O C 0.4968(3) 0.8802(3) 0.8804(4)
H3O H 0.4816 0.8852 0.8634
N5O N 0.5493(3) 0.8437(3) 0.8430(5)
H4O H 0.5523 0.8511 0.8130
C4O C 0.5301(6) 0.9161(6) 1.0194(10)
H5O H 0.5389 0.9263 1.0500
C5O C 0.5454(6) 0.9008(6) 0.9972(9)
H6O H 0.5633 0.8991 1.0125
C6O C 0.5336(5) 0.8868(5) 0.9487(7)
C7O C 0.5474(5) 0.8701(5) 0.9250(8)
H7O H 0.5649 0.8675 0.9402
C8O C 0.5361(5) 0.8564(7) 0.8775(6)
C9O C 0.5077(5) 0.8919(5) 0.9253(9)
C10O C 0.5568(8) 0.8218(8) 0.8553(9)
C11O C 0.6398(3) 0.7787(4) 0.4417(4)
H8O H 0.6392 0.7724 0.4088
C12O C 0.5792(3) 0.7897(4) 0.5785(5)
H9O H 0.5583 0.7873 0.5899
C13O C 0.5847(3) 0.7923(4) 0.5288(4)
H10O H 0.5705 0.7963 0.5077
C14O C 0.6653(6) 0.7801(9) 0.4767(9)
H11O H 0.6844 0.7789 0.4648
C15O C 0.6625(7) 0.7833(9) 0.5277(9)
H12O H 0.6790 0.7836 0.5493
C16O C 0.6338(5) 0.7860(7) 0.5457(8)
C17O C 0.6294(6) 0.7869(8) 0.5947(9)
H13O H 0.6447 0.7853 0.6166
C18O C 0.6017(7) 0.7902(11) 0.6122(10)
C19O C 0.6119(5) 0.7887(7) 0.5107(8)
C20O C 0.5969(12) 0.7860(13) 0.6939(6)
C21O C 0.5276(4) 0.5541(3) 0.8914(4)
H14O H 0.5183 0.5301 0.8940
C22O C 0.5088(4) 0.6485(3) 0.8592(4)
H15O H 0.4922 0.6543 0.8496
C23O C 0.4971(4) 0.6169(3) 0.8801(4)
H16O H 0.4749 0.6048 0.8938
N6O N 0.5488(4) 0.7059(3) 0.8436(5)
H17O H 0.5393 0.7146 0.8622
C24O C 0.5641(9) 0.5781(7) 0.8815(8)
H18O H 0.5797 0.5698 0.8835
C25O C 0.5768(8) 0.6123(6) 0.8695(9)
H19O H 0.6004 0.6271 0.8630
C26O C 0.5525(7) 0.6243(5) 0.8672(7)
C27O C 0.5660(8) 0.6590(5) 0.8513(6)
H20O H 0.5891 0.6730 0.8416
C28O C 0.5412(10) 0.6712(7) 0.8514(10)
C29O C 0.5189(8) 0.6031(6) 0.8807(8)
C30O C 0.5699(7) 0.7249(5) 0.8091(9)
C31O C 0.4186(3) 0.9189(3) 1.0004(5)
H21O H 0.4235 0.9406 0.9885
C32O C 0.4036(3) 0.8070(3) 0.9656(4)
H22O H 0.4045 0.7924 0.9417
C33O C 0.4211(3) 0.8422(3) 0.9557(3)
H23O H 0.4372 0.8517 0.9302
C34O C 0.3996(6) 0.9036(6) 1.0458(9)
H24O H 0.3963 0.9179 1.0678
C35O C 0.3861(7) 0.8686(6) 1.0581(9)
H25O H 0.3731 0.8596 1.0868
C36O C 0.3924(6) 0.8470(6) 1.0263(8)
C37O C 0.3788(5) 0.8131(5) 1.0382(7)
H26O H 0.3654 0.8041 1.0666
C38O C 0.3850(6) 0.7917(4) 1.0073(7)
C39O C 0.4136(6) 0.8626(5) 0.9855(8)
C40O C 0.3511(9) 0.7365(5) 1.0274(11)
O5O O 0.3791(3) 0.7586(3) 1.0127(4)
C41O C 0.5691(4) 0.8095(5) 0.8114(10)
C42O C 0.5804(4) 0.8156(4) 0.7684(9)
H27O H 0.5847 0.8367 0.7548
C43O C 0.5864(4) 0.7963(7) 0.7417(5)
C44O C 0.5817(4) 0.7659(6) 0.7647(8)
H28O H 0.5871 0.7508 0.7481
C45O C 0.5705(6) 0.7595(4) 0.8072(8)
C46O C 0.5651(4) 0.7805(6) 0.8326(5)
H29O H 0.5584 0.7757 0.8655
C47O C 0.3461(8) 0.7001(3) 1.0297(5)
C48O C 0.3672(3) 0.6852(7) 1.0306(5)
H30O H 0.3913 0.6994 1.0318
N7O N 0.5945(3) 0.7966(5) 0.6609(5)
O4P O 0.2557(6) 0.5868(9) 1.0511(10)
N4P N 0.1025(4) 0.5310(6) 0.9768(6)
C31P C 0.0811(3) 0.4996(4) 1.0004(5)
H21P H 0.0594 0.4828 0.9885
C32P C 0.1930(3) 0.5965(4) 0.9656(4)
H22P H 0.2076 0.6120 0.9417
C33P C 0.1578(3) 0.5788(4) 0.9557(3)
H23P H 0.1483 0.5854 0.9302
C34P C 0.0964(6) 0.4959(8) 1.0458(9)
H24P H 0.0821 0.4783 1.0678
C35P C 0.1314(6) 0.5174(9) 1.0581(9)
H25P H 0.1404 0.5134 1.0868
C36P C 0.1530(6) 0.5453(8) 1.0263(8)
C37P C 0.1869(5) 0.5656(7) 1.0382(7)
H26P H 0.1959 0.5612 1.0666
C38P C 0.2083(4) 0.5932(7) 1.0073(7)
C39P C 0.1374(5) 0.5509(8) 0.9855(8)
C40P C 0.2635(5) 0.6145(10) 1.0274(11)
O5P O 0.2414(3) 0.6204(4) 1.0127(4)
C47P C 0.2999(3) 0.6459(9) 1.0297(5)
C48P C 0.3148(7) 0.6819(8) 1.0306(5)
H30P H 0.3006 0.6918 1.0318
O4Q O 0.4132(9) 0.6688(7) 1.0511(10)
N4Q N 0.4690(6) 0.5714(4) 0.9768(6)
C31Q C 0.5004(4) 0.5814(3) 1.0004(5)
H21Q H 0.5172 0.5765 0.9885
C32Q C 0.4035(4) 0.5964(3) 0.9656(4)
H22Q H 0.3880 0.5955 0.9417
C33Q C 0.4212(4) 0.5789(3) 0.9557(3)
H23Q H 0.4146 0.5628 0.9302
C34Q C 0.5041(8) 0.6004(6) 1.0458(9)
H24Q H 0.5217 0.6037 1.0678
C35Q C 0.4826(9) 0.6139(7) 1.0581(9)
H25Q H 0.4866 0.6269 1.0868
C36Q C 0.4547(8) 0.6076(6) 1.0263(8)
C37Q C 0.4344(7) 0.6212(5) 1.0382(7)
H26Q H 0.4388 0.6346 1.0666
C38Q C 0.4068(7) 0.6150(6) 1.0073(7)
C39Q C 0.4491(8) 0.5864(6) 0.9855(8)
C40Q C 0.3855(10) 0.6489(9) 1.0274(11)
O5Q O 0.3796(4) 0.6209(3) 1.0127(4)
C47Q C 0.3541(9) 0.6539(8) 1.0297(5)
C48Q C 0.3181(8) 0.6328(3) 1.0306(5)
H30Q H 0.3082 0.6087 1.0318
Pd1P Pd 0.077979(19) 0.538982(27) 0.92199(3)
O1P O 0.1795(6) 0.7431(8) 0.9014(11)
O2P O 0.2301(9) 0.8437(11) 0.6892(9)
O3P O 0.2855(6) 0.8754(10) 0.7928(8)
N1P N 0.0900(4) 0.5841(6) 0.9512(6)
N2P N 0.2123(6) 0.8288(7) 0.4615(6)
N3P N 0.4297(5) 0.9375(8) 0.8966(6)
C1P C 0.0814(3) 0.5819(4) 1.0002(5)
H1P H 0.0747 0.5620 1.0193
C2P C 0.1400(3) 0.6492(4) 0.8598(4)
H2P H 0.1523 0.6505 0.8312
C3P C 0.1198(3) 0.6165(4) 0.8804(4)
H3P H 0.1148 0.5963 0.8634
N5P N 0.1563(3) 0.7055(4) 0.8430(5)
H4P H 0.1489 0.7011 0.8130
C4P C 0.0839(6) 0.6139(8) 1.0194(10)
H5P H 0.0737 0.6125 1.0500
C5P C 0.0992(6) 0.6445(8) 0.9972(9)
H6P H 0.1009 0.6641 1.0125
C6P C 0.1132(5) 0.6467(7) 0.9487(7)
C7P C 0.1299(5) 0.6772(7) 0.9250(8)
H7P H 0.1325 0.6973 0.9402
C8P C 0.1436(7) 0.6796(9) 0.8775(6)
C9P C 0.1081(5) 0.6157(7) 0.9253(9)
C10P C 0.1782(8) 0.7349(11) 0.8553(9)
C11P C 0.2213(4) 0.8610(5) 0.4417(4)
H8P H 0.2276 0.8667 0.4088
C12P C 0.2103(4) 0.7894(5) 0.5785(5)
H9P H 0.2127 0.7709 0.5899
C13P C 0.2077(4) 0.7923(5) 0.5288(4)
H10P H 0.2037 0.7741 0.5077
C14P C 0.2199(9) 0.8851(11) 0.4767(9)
H11P H 0.2211 0.9054 0.4648
C15P C 0.2167(9) 0.8791(11) 0.5277(9)
H12P H 0.2164 0.8953 0.5493
C16P C 0.2140(7) 0.8477(9) 0.5457(8)
C17P C 0.2131(8) 0.8424(10) 0.5947(9)
H13P H 0.2147 0.8593 0.6166
C18P C 0.2098(11) 0.8114(13) 0.6122(10)
C19P C 0.2113(7) 0.8231(9) 0.5107(8)
C20P C 0.2140(13) 0.8108(18) 0.6939(6)
C21P C 0.4459(3) 0.9734(5) 0.8914(4)
H14P H 0.4699 0.9881 0.8940
C22P C 0.3515(3) 0.8602(5) 0.8592(4)
H15P H 0.3457 0.8378 0.8496
C23P C 0.3831(3) 0.8801(5) 0.8801(4)
H16P H 0.3952 0.8700 0.8938
N6P N 0.2941(3) 0.8428(5) 0.8436(5)
H17P H 0.2854 0.8246 0.8622
C24P C 0.4219(7) 0.9859(11) 0.8815(8)
H18P H 0.4302 1.0098 0.8835
C25P C 0.3877(6) 0.9644(10) 0.8695(9)
H19P H 0.3729 0.9732 0.8630
C26P C 0.3757(5) 0.9281(9) 0.8672(7)
C27P C 0.3410(5) 0.9069(9) 0.8513(6)
H20P H 0.3270 0.9160 0.8416
C28P C 0.3288(7) 0.8699(12) 0.8514(10)
C29P C 0.3969(6) 0.9157(10) 0.8807(8)
C30P C 0.2751(5) 0.8449(9) 0.8091(9)
C41P C 0.1905(5) 0.7595(6) 0.8114(10)
C42P C 0.1844(4) 0.7647(6) 0.7684(9)
H27P H 0.1633 0.7479 0.7548
C43P C 0.2037(7) 0.7900(8) 0.7417(5)
C44P C 0.2341(6) 0.8157(7) 0.7647(8)
H28P H 0.2492 0.8362 0.7481
C45P C 0.2405(4) 0.8109(7) 0.8072(8)
C46P C 0.2195(6) 0.7845(7) 0.8326(5)
H29P H 0.2243 0.7826 0.8655
N7P N 0.2034(5) 0.7978(6) 0.6609(5)
Pd1Q Pd 0.461018(27) 0.538996(19) 0.92199(3)
O1Q O 0.2569(8) 0.4363(6) 0.9014(11)
O2Q O 0.1563(11) 0.3863(7) 0.6892(9)
O3Q O 0.1246(10) 0.4100(8) 0.7928(8)
N1Q N 0.4159(6) 0.5058(5) 0.9512(6)
N2Q N 0.1712(7) 0.3834(4) 0.4615(6)
N3Q N 0.0625(8) 0.4921(6) 0.8966(6)
C1Q C 0.4181(4) 0.4994(3) 1.0002(5)
H1Q H 0.4380 0.5126 1.0193
C2Q C 0.3508(4) 0.4907(3) 0.8598(4)
H2Q H 0.3495 0.5017 0.8312
C3Q C 0.3835(4) 0.5032(3) 0.8804(4)
H3Q H 0.4037 0.5184 0.8634
N5Q N 0.2945(4) 0.4507(3) 0.8430(5)
H4Q H 0.2989 0.4477 0.8130
C4Q C 0.3861(8) 0.4699(6) 1.0194(10)
H5Q H 0.3875 0.4611 1.0500
C5Q C 0.3555(8) 0.4546(6) 0.9972(9)
H6Q H 0.3359 0.4367 1.0125
C6Q C 0.3533(7) 0.4664(5) 0.9487(7)
C7Q C 0.3228(7) 0.4526(5) 0.9250(8)
H7Q H 0.3027 0.4351 0.9402
C8Q C 0.3204(9) 0.4639(5) 0.8775(6)
C9Q C 0.3843(7) 0.4923(5) 0.9253(9)
C10Q C 0.2651(11) 0.4432(8) 0.8553(9)
C11Q C 0.1390(5) 0.3602(3) 0.4417(4)
H8Q H 0.1333 0.3608 0.4088
C12Q C 0.2106(5) 0.4208(3) 0.5785(5)
H9Q H 0.2291 0.4417 0.5899
C13Q C 0.2077(5) 0.4153(3) 0.5288(4)
H10Q H 0.2259 0.4295 0.5077
C14Q C 0.1149(11) 0.3347(6) 0.4767(9)
H11Q H 0.0946 0.3156 0.4648
C15Q C 0.1209(11) 0.3375(7) 0.5277(9)
H12Q H 0.1047 0.3210 0.5493
C16Q C 0.1523(9) 0.3662(5) 0.5457(8)
C17Q C 0.1576(10) 0.3706(6) 0.5947(9)
H13Q H 0.1407 0.3553 0.6166
C18Q C 0.1886(13) 0.3983(7) 0.6122(10)
C19Q C 0.1769(9) 0.3881(5) 0.5107(8)
C20Q C 0.1892(18) 0.4031(12) 0.6939(6)
C21Q C 0.0266(5) 0.4724(4) 0.8914(4)
H14Q H 0.0119 0.4817 0.8940
C22Q C 0.1398(5) 0.4912(4) 0.8592(4)
H15Q H 0.1622 0.5078 0.8496
C23Q C 0.1199(5) 0.5029(4) 0.8801(4)
H16Q H 0.1300 0.5251 0.8938
N6Q N 0.1572(5) 0.4512(4) 0.8436(5)
H17Q H 0.1754 0.4607 0.8622
C24Q C 0.0141(11) 0.4359(9) 0.8815(8)
H18Q H -0.0098 0.4203 0.8835
C25Q C 0.0356(10) 0.4232(8) 0.8695(9)
H19Q H 0.0268 0.3996 0.8630
C26Q C 0.0719(9) 0.4475(7) 0.8672(7)
C27Q C 0.0931(9) 0.4340(8) 0.8513(6)
H20Q H 0.0840 0.4109 0.8416
C28Q C 0.1301(12) 0.4588(10) 0.8514(10)
C29Q C 0.0843(10) 0.4811(8) 0.8807(8)
C30Q C 0.1551(9) 0.4301(7) 0.8091(9)
C41Q C 0.2405(6) 0.4309(4) 0.8114(10)
C42Q C 0.2353(6) 0.4196(4) 0.7684(9)
H27Q H 0.2521 0.4153 0.7548
C43Q C 0.2100(8) 0.4136(4) 0.7417(5)
C44Q C 0.1843(7) 0.4183(4) 0.7647(8)
H28Q H 0.1638 0.4129 0.7481
C45Q C 0.1891(7) 0.4295(6) 0.8072(8)
C46Q C 0.2155(7) 0.4349(4) 0.8326(5)
H29Q H 0.2174 0.4416 0.8655
N7Q N 0.2022(6) 0.4055(3) 0.6609(5)
loop_
_geom_bond_atom_site_label_1
_geom_bond_atom_site_label_2
_geom_bond_site_symmetry_1
_geom_bond_site_symmetry_2
Pd1 N1 1_555 1_555
O1 C10 1_555 1_555
O2 C20 1_555 1_555
O3 C30 1_555 1_555
O4 C40 1_555 1_555
N1 C1 1_555 1_555
N2 C11 1_555 1_555
N3 C21 1_555 1_555
N4 Pd1 1_555 1_555
C1 H1 1_555 1_555
C2 H2 1_555 1_555
C3 C2 1_555 1_555
H3 C3 1_555 1_555
N5 H4 1_555 1_555
C4 C1 1_555 1_555
H5 C4 1_555 1_555
C5 C4 1_555 1_555
H6 C5 1_555 1_555
C6 C5 1_555 1_555
C7 C6 1_555 1_555
H7 C7 1_555 1_555
C8 C2 1_555 1_555
C9 N1 1_555 1_555
C10 N5 1_555 1_555
C11 H8 1_555 1_555
C12 H9 1_555 1_555
C13 C12 1_555 1_555
H10 C13 1_555 1_555
C14 C11 1_555 1_555
H11 C14 1_555 1_555
C15 C14 1_555 1_555
H12 C15 1_555 1_555
C16 C15 1_555 1_555
C17 C16 1_555 1_555
H13 C17 1_555 1_555
C18 C12 1_555 1_555
C19 N2 1_555 1_555
C20 C43 1_555 1_555
C21 H14 1_555 1_555
C22 H15 1_555 1_555
C23 C22 1_555 1_555
H16 C23 1_555 1_555
N6 H17 1_555 1_555
C24 C21 1_555 1_555
H18 C24 1_555 1_555
C25 C24 1_555 1_555
H19 C25 1_555 1_555
C26 C25 1_555 1_555
C27 C26 1_555 1_555
H20 C27 1_555 1_555
C28 C22 1_555 1_555
C29 N3 1_555 1_555
C30 N6 1_555 1_555
C31 N4 1_555 1_555
H21 C31 1_555 1_555
C32 H22 1_555 1_555
C33 C32 1_555 1_555
H23 C33 1_555 1_555
C34 C31 1_555 1_555
H24 C34 1_555 1_555
C35 C34 1_555 1_555
H25 C35 1_555 1_555
C36 C35 1_555 1_555
C37 C36 1_555 1_555
H26 C37 1_555 1_555
C38 C32 1_555 1_555
C39 N4 1_555 1_555
C40 O5 1_555 1_555
O5 C38 1_555 1_555
C41 C10 1_555 1_555
C42 C41 1_555 1_555
H27 C42 1_555 1_555
C43 C42 1_555 1_555
C44 C43 1_555 1_555
H28 C44 1_555 1_555
C45 C30 1_555 1_555
C46 C41 1_555 1_555
H29 C46 1_555 1_555
C47 C40 1_555 1_555
C48 C47 1_555 1_555
H30 C48 1_555 1_555
N7 C18 1_555 1_555
O4A C40A 1_555 1_555
N4A C31A 1_555 1_555
C31A H21A 1_555 1_555
C32A H22A 1_555 1_555
C33A C32A 1_555 1_555
H23A C33A 1_555 1_555
C34A C31A 1_555 1_555
H24A C34A 1_555 1_555
C35A C34A 1_555 1_555
H25A C35A 1_555 1_555
C36A C35A 1_555 1_555
C37A C36A 1_555 1_555
H26A C37A 1_555 1_555
C38A C32A 1_555 1_555
C39A N4A 1_555 1_555
C40A O5A 1_555 1_555
O5A C38A 1_555 1_555
C47A C40A 1_555 1_555
C48A C47 1_555 1_555
H30A C48A 1_555 1_555
O4B C40B 1_555 1_555
N4B C31B 1_555 1_555
C31B H21B 1_555 1_555
C32B H22B 1_555 1_555
C33B C32B 1_555 1_555
H23B C33B 1_555 1_555
C34B C31B 1_555 1_555
H24B C34B 1_555 1_555
C35B C34B 1_555 1_555
H25B C35B 1_555 1_555
C36B C35B 1_555 1_555
C37B C36B 1_555 1_555
H26B C37B 1_555 1_555
C38B C32B 1_555 1_555
C39B N4B 1_555 1_555
C40B O5B 1_555 1_555
O5B C38B 1_555 1_555
C47B C48 1_555 1_555
C48B C47A 1_555 1_555
H30B C48B 1_555 1_555
Pd1A N4A 1_555 1_555
O1A C10A 1_555 1_555
O2A C20A 1_555 1_555
O3A C30A 1_555 1_555
N1A Pd1A 1_555 1_555
N2A C11A 1_555 1_555
N3A Pd1 1_555 1_555
C1A N1A 1_555 1_555
H1A C1A 1_555 1_555
C2A H2A 1_555 1_555
C3A C2A 1_555 1_555
H3A C3A 1_555 1_555
N5A H4A 1_555 1_555
C4A C1A 1_555 1_555
H5A C4A 1_555 1_555
C5A C4A 1_555 1_555
H6A C5A 1_555 1_555
C6A C5A 1_555 1_555
C7A C6A 1_555 1_555
H7A C7A 1_555 1_555
C8A C2A 1_555 1_555
C9A N1A 1_555 1_555
C10A N5A 1_555 1_555
C11A H8A 1_555 1_555
C12A H9A 1_555 1_555
C13A C12A 1_555 1_555
H10A C13A 1_555 1_555
C14A C11A 1_555 1_555
H11A C14A 1_555 1_555
C15A C14A 1_555 1_555
H12A C15A 1_555 1_555
C16A C15A 1_555 1_555
C17A C16A 1_555 1_555
H13A C17A 1_555 1_555
C18A C12A 1_555 1_555
C19A N2A 1_555 1_555
C20A C43A 1_555 1_555
C21A N3A 1_555 1_555
H14A C21A 1_555 1_555
C22A H15A 1_555 1_555
C23A C22A 1_555 1_555
H16A C23A 1_555 1_555
N6A H17A 1_555 1_555
C24A C21A 1_555 1_555
H18A C24A 1_555 1_555
C25A C24A 1_555 1_555
H19A C25A 1_555 1_555
C26A C25A 1_555 1_555
C27A C26A 1_555 1_555
H20A C27A 1_555 1_555
C28A C22A 1_555 1_555
C29A N3A 1_555 1_555
C30A N6A 1_555 1_555
C41A C10A 1_555 1_555
C42A C41A 1_555 1_555
H27A C42A 1_555 1_555
C43A C42A 1_555 1_555
C44A C43A 1_555 1_555
H28A C44A 1_555 1_555
C45A C30A 1_555 1_555
C46A C41A 1_555 1_555
H29A C46A 1_555 1_555
N7A C18A 1_555 1_555
Pd1B N3 1_555 1_555
O1B C10B 1_555 1_555
O2B C20B 1_555 1_555
O3B C30B 1_555 1_555
N1B Pd1B 1_555 1_555
N2B C11B 1_555 1_555
N3B Pd1A 1_555 1_555
C1B N1B 1_555 1_555
H1B C1B 1_555 1_555
C2B H2B 1_555 1_555
C3B C2B 1_555 1_555
H3B C3B 1_555 1_555
N5B H4B 1_555 1_555
C4B C1B 1_555 1_555
H5B C4B 1_555 1_555
C5B C4B 1_555 1_555
H6B C5B 1_555 1_555
C6B C5B 1_555 1_555
C7B C6B 1_555 1_555
H7B C7B 1_555 1_555
C8B C2B 1_555 1_555
C9B N1B 1_555 1_555
C10B N5B 1_555 1_555
C11B H8B 1_555 1_555
C12B H9B 1_555 1_555
C13B C12B 1_555 1_555
H10B C13B 1_555 1_555
C14B C11B 1_555 1_555
H11B C14B 1_555 1_555
C15B C14B 1_555 1_555
H12B C15B 1_555 1_555
C16B C15B 1_555 1_555
C17B C16B 1_555 1_555
H13B C17B 1_555 1_555
C18B C12B 1_555 1_555
C19B N2B 1_555 1_555
C20B C43B 1_555 1_555
C21B N3B 1_555 1_555
H14B C21B 1_555 1_555
C22B H15B 1_555 1_555
C23B C22B 1_555 1_555
H16B C23B 1_555 1_555
N6B H17B 1_555 1_555
C24B C21B 1_555 1_555
H18B C24B 1_555 1_555
C25B C24B 1_555 1_555
H19B C25B 1_555 1_555
C26B C25B 1_555 1_555
C27B C26B 1_555 1_555
H20B C27B 1_555 1_555
C28B C22B 1_555 1_555
C29B N3B 1_555 1_555
C30B N6B 1_555 1_555
C41B C10B 1_555 1_555
C42B C41B 1_555 1_555
H27B C42B 1_555 1_555
C43B C42B 1_555 1_555
C44B C43B 1_555 1_555
H28B C44B 1_555 1_555
C45B C30B 1_555 1_555
C46B C41B 1_555 1_555
H29B C46B 1_555 1_555
N7B C18B 1_555 1_555
Pd1O N2B 1_555 1_555
O1O C10O 1_555 1_555
O2O C20O 1_555 1_555
O3O C30O 1_555 1_555
O4O C40O 1_555 1_555
N1O Pd1O 1_555 1_555
N2O Pd1A 1_555 1_555
N3O C21O 1_555 1_555
N4O Pd1O 1_555 1_555
C1O N1O 1_555 1_555
H1O C1O 1_555 1_555
C2O H2O 1_555 1_555
C3O C2O 1_555 1_555
H3O C3O 1_555 1_555
N5O H4O 1_555 1_555
C4O C1O 1_555 1_555
H5O C4O 1_555 1_555
C5O C4O 1_555 1_555
H6O C5O 1_555 1_555
C6O C5O 1_555 1_555
C7O C6O 1_555 1_555
H7O C7O 1_555 1_555
C8O C2O 1_555 1_555
C9O N1O 1_555 1_555
C10O N5O 1_555 1_555
C11O N2O 1_555 1_555
H8O C11O 1_555 1_555
C12O H9O 1_555 1_555
C13O C12O 1_555 1_555
H10O C13O 1_555 1_555
C14O C11O 1_555 1_555
H11O C14O 1_555 1_555
C15O C14O 1_555 1_555
H12O C15O 1_555 1_555
C16O C15O 1_555 1_555
C17O C16O 1_555 1_555
H13O C17O 1_555 1_555
C18O C12O 1_555 1_555
C19O N2O 1_555 1_555
C20O C43O 1_555 1_555
C21O H14O 1_555 1_555
C22O H15O 1_555 1_555
C23O C22O 1_555 1_555
H16O C23O 1_555 1_555
N6O H17O 1_555 1_555
C24O C21O 1_555 1_555
H18O C24O 1_555 1_555
C25O C24O 1_555 1_555
H19O C25O 1_555 1_555
C26O C25O 1_555 1_555
C27O C26O 1_555 1_555
H20O C27O 1_555 1_555
C28O C22O 1_555 1_555
C29O N3O 1_555 1_555
C30O N6O 1_555 1_555
C31O N4O 1_555 1_555
H21O C31O 1_555 1_555
C32O H22O 1_555 1_555
C33O C32O 1_555 1_555
H23O C33O 1_555 1_555
C34O C31O 1_555 1_555
H24O C34O 1_555 1_555
C35O C34O 1_555 1_555
H25O C35O 1_555 1_555
C36O C35O 1_555 1_555
C37O C36O 1_555 1_555
H26O C37O 1_555 1_555
C38O C32O 1_555 1_555
C39O N4O 1_555 1_555
C40O O5O 1_555 1_555
O5O C38O 1_555 1_555
C41O C10O 1_555 1_555
C42O C41O 1_555 1_555
H27O C42O 1_555 1_555
C43O C42O 1_555 1_555
C44O C43O 1_555 1_555
H28O C44O 1_555 1_555
C45O C30O 1_555 1_555
C46O C41O 1_555 1_555
H29O C46O 1_555 1_555
C47O C40O 1_555 1_555
C48O C47O 1_555 1_555
H30O C48O 1_555 1_555
N7O C18O 1_555 1_555
O4P C40P 1_555 1_555
N4P C31P 1_555 1_555
C31P H21P 1_555 1_555
C32P H22P 1_555 1_555
C33P C32P 1_555 1_555
H23P C33P 1_555 1_555
C34P C31P 1_555 1_555
H24P C34P 1_555 1_555
C35P C34P 1_555 1_555
H25P C35P 1_555 1_555
C36P C35P 1_555 1_555
C37P C36P 1_555 1_555
H26P C37P 1_555 1_555
C38P C32P 1_555 1_555
C39P N4P 1_555 1_555
C40P O5P 1_555 1_555
O5P C38P 1_555 1_555
C47P C40P 1_555 1_555
C48P C47O 1_555 1_555
H30P C48P 1_555 1_555
O4Q C40Q 1_555 1_555
N4Q C31Q 1_555 1_555
C31Q H21Q 1_555 1_555
C32Q H22Q 1_555 1_555
C33Q C32Q 1_555 1_555
H23Q C33Q 1_555 1_555
C34Q C31Q 1_555 1_555
H24Q C34Q 1_555 1_555
C35Q C34Q 1_555 1_555
H25Q C35Q 1_555 1_555
C36Q C35Q 1_555 1_555
C37Q C36Q 1_555 1_555
H26Q C37Q 1_555 1_555
C38Q C32Q 1_555 1_555
C39Q N4Q 1_555 1_555
C40Q O5Q 1_555 1_555
O5Q C38Q 1_555 1_555
C47Q C48O 1_555 1_555
C48Q C47P 1_555 1_555
H30Q C48Q 1_555 1_555
Pd1P N2 1_555 1_555
O1P C10P 1_555 1_555
O2P C20P 1_555 1_555
O3P C30P 1_555 1_555
N1P Pd1P 1_555 1_555
N2P Pd1B 1_555 1_555
N3P Pd1O 1_555 1_555
C1P N1P 1_555 1_555
H1P C1P 1_555 1_555
C2P H2P 1_555 1_555
C3P C2P 1_555 1_555
H3P C3P 1_555 1_555
N5P H4P 1_555 1_555
C4P C1P 1_555 1_555
H5P C4P 1_555 1_555
C5P C4P 1_555 1_555
H6P C5P 1_555 1_555
C6P C5P 1_555 1_555
C7P C6P 1_555 1_555
H7P C7P 1_555 1_555
C8P C2P 1_555 1_555
C9P N1P 1_555 1_555
C10P N5P 1_555 1_555
C11P N2P 1_555 1_555
H8P C11P 1_555 1_555
C12P H9P 1_555 1_555
C13P C12P 1_555 1_555
H10P C13P 1_555 1_555
C14P C11P 1_555 1_555
H11P C14P 1_555 1_555
C15P C14P 1_555 1_555
H12P C15P 1_555 1_555
C16P C15P 1_555 1_555
C17P C16P 1_555 1_555
H13P C17P 1_555 1_555
C18P C12P 1_555 1_555
C19P N2P 1_555 1_555
C20P C43P 1_555 1_555
C21P N3P 1_555 1_555
H14P C21P 1_555 1_555
C22P H15P 1_555 1_555
C23P C22P 1_555 1_555
H16P C23P 1_555 1_555
N6P H17P 1_555 1_555
C24P C21P 1_555 1_555
H18P C24P 1_555 1_555
C25P C24P 1_555 1_555
H19P C25P 1_555 1_555
C26P C25P 1_555 1_555
C27P C26P 1_555 1_555
H20P C27P 1_555 1_555
C28P C22P 1_555 1_555
C29P N3P 1_555 1_555
C30P N6P 1_555 1_555
C41P C10P 1_555 1_555
C42P C41P 1_555 1_555
H27P C42P 1_555 1_555
C43P C42P 1_555 1_555
C44P C43P 1_555 1_555
H28P C44P 1_555 1_555
C45P C30P 1_555 1_555
C46P C41P 1_555 1_555
H29P C46P 1_555 1_555
N7P C18P 1_555 1_555
Pd1Q N2A 1_555 1_555
O1Q C10Q 1_555 1_555
O2Q C20Q 1_555 1_555
O3Q C30Q 1_555 1_555
N1Q Pd1Q 1_555 1_555
N2Q Pd1 1_555 1_555
N3Q Pd1P 1_555 1_555
C1Q N1Q 1_555 1_555
H1Q C1Q 1_555 1_555
C2Q H2Q 1_555 1_555
C3Q C2Q 1_555 1_555
H3Q C3Q 1_555 1_555
N5Q H4Q 1_555 1_555
C4Q C1Q 1_555 1_555
H5Q C4Q 1_555 1_555
C5Q C4Q 1_555 1_555
H6Q C5Q 1_555 1_555
C6Q C5Q 1_555 1_555
C7Q C6Q 1_555 1_555
H7Q C7Q 1_555 1_555
C8Q C2Q 1_555 1_555
C9Q N1Q 1_555 1_555
C10Q N5Q 1_555 1_555
C11Q N2Q 1_555 1_555
H8Q C11Q 1_555 1_555
C12Q H9Q 1_555 1_555
C13Q C12Q 1_555 1_555
H10Q C13Q 1_555 1_555
C14Q C11Q 1_555 1_555
H11Q C14Q 1_555 1_555
C15Q C14Q 1_555 1_555
H12Q C15Q 1_555 1_555
C16Q C15Q 1_555 1_555
C17Q C16Q 1_555 1_555
H13Q C17Q 1_555 1_555
C18Q C12Q 1_555 1_555
C19Q N2Q 1_555 1_555
C20Q C43Q 1_555 1_555
C21Q N3Q 1_555 1_555
H14Q C21Q 1_555 1_555
C22Q H15Q 1_555 1_555
C23Q C22Q 1_555 1_555
H16Q C23Q 1_555 1_555
N6Q H17Q 1_555 1_555
C24Q C21Q 1_555 1_555
H18Q C24Q 1_555 1_555
C25Q C24Q 1_555 1_555
H19Q C25Q 1_555 1_555
C26Q C25Q 1_555 1_555
C27Q C26Q 1_555 1_555
H20Q C27Q 1_555 1_555
C28Q C22Q 1_555 1_555
C29Q N3Q 1_555 1_555
C30Q N6Q 1_555 1_555
C41Q C10Q 1_555 1_555
C42Q C41Q 1_555 1_555
H27Q C42Q 1_555 1_555
C43Q C42Q 1_555 1_555
C44Q C43Q 1_555 1_555
H28Q C44Q 1_555 1_555
C45Q C30Q 1_555 1_555
C46Q C41Q 1_555 1_555
H29Q C46Q 1_555 1_555
N7Q C18Q 1_555 1_555
C3 C9 1_555 1_555
N5 C8 1_555 1_555
C6 C9 1_555 1_555
C7 C8 1_555 1_555
C13 C19 1_555 1_555
C16 C19 1_555 1_555
C17 C18 1_555 1_555
C20 N7 1_555 1_555
C23 C29 1_555 1_555
N6 C28 1_555 1_555
C26 C29 1_555 1_555
C27 C28 1_555 1_555
C33 C39 1_555 1_555
C36 C39 1_555 1_555
C37 C38 1_555 1_555
C44 C45 1_555 1_555
C45 C46 1_555 1_555
C33A C39A 1_555 1_555
C36A C39A 1_555 1_555
C37A C38A 1_555 1_555
C47A C48A 1_555 1_555
N4B Pd1B 1_555 1_555
C33B C39B 1_555 1_555
C36B C39B 1_555 1_555
C37B C38B 1_555 1_555
C40B C47B 1_555 1_555
C47B C48B 1_555 1_555
C3A C9A 1_555 1_555
N5A C8A 1_555 1_555
C6A C9A 1_555 1_555
C7A C8A 1_555 1_555
C13A C19A 1_555 1_555
C16A C19A 1_555 1_555
C17A C18A 1_555 1_555
C20A N7A 1_555 1_555
C23A C29A 1_555 1_555
N6A C28A 1_555 1_555
C26A C29A 1_555 1_555
C27A C28A 1_555 1_555
C44A C45A 1_555 1_555
C45A C46A 1_555 1_555
C3B C9B 1_555 1_555
N5B C8B 1_555 1_555
C6B C9B 1_555 1_555
C7B C8B 1_555 1_555
C13B C19B 1_555 1_555
C16B C19B 1_555 1_555
C17B C18B 1_555 1_555
C20B N7B 1_555 1_555
C23B C29B 1_555 1_555
N6B C28B 1_555 1_555
C26B C29B 1_555 1_555
C27B C28B 1_555 1_555
C44B C45B 1_555 1_555
C45B C46B 1_555 1_555
N3O Pd1Q 1_555 1_555
C3O C9O 1_555 1_555
N5O C8O 1_555 1_555
C6O C9O 1_555 1_555
C7O C8O 1_555 1_555
C13O C19O 1_555 1_555
C16O C19O 1_555 1_555
C17O C18O 1_555 1_555
C20O N7O 1_555 1_555
C23O C29O 1_555 1_555
N6O C28O 1_555 1_555
C26O C29O 1_555 1_555
C27O C28O 1_555 1_555
C33O C39O 1_555 1_555
C36O C39O 1_555 1_555
C37O C38O 1_555 1_555
C44O C45O 1_555 1_555
C45O C46O 1_555 1_555
N4P Pd1P 1_555 1_555
C33P C39P 1_555 1_555
C36P C39P 1_555 1_555
C37P C38P 1_555 1_555
C47P C48P 1_555 1_555
N4Q Pd1Q 1_555 1_555
C33Q C39Q 1_555 1_555
C36Q C39Q 1_555 1_555
C37Q C38Q 1_555 1_555
C40Q C47Q 1_555 1_555
C47Q C48Q 1_555 1_555
C3P C9P 1_555 1_555
N5P C8P 1_555 1_555
C6P C9P 1_555 1_555
C7P C8P 1_555 1_555
C13P C19P 1_555 1_555
C16P C19P 1_555 1_555
C17P C18P 1_555 1_555
C20P N7P 1_555 1_555
C23P C29P 1_555 1_555
N6P C28P 1_555 1_555
C26P C29P 1_555 1_555
C27P C28P 1_555 1_555
C44P C45P 1_555 1_555
C45P C46P 1_555 1_555
C3Q C9Q 1_555 1_555
N5Q C8Q 1_555 1_555
C6Q C9Q 1_555 1_555
C7Q C8Q 1_555 1_555
C13Q C19Q 1_555 1_555
C16Q C19Q 1_555 1_555
C17Q C18Q 1_555 1_555
C20Q N7Q 1_555 1_555
C23Q C29Q 1_555 1_555
N6Q C28Q 1_555 1_555
C26Q C29Q 1_555 1_555
C27Q C28Q 1_555 1_555
C44Q C45Q 1_555 1_555
C45Q C46Q 1_555 1_555

#END
