
#######################################################################
#
#                 Cambridge Crystallographic Data Centre
#                                CCDC 
#
#######################################################################
#
# If this CIF has been generated from an entry in the Cambridge 
# Structural Database, then it will include bibliographic, chemical, 
# crystal, experimental, refinement or atomic coordinate data resulting 
# from the CCDC's data processing and validation procedures.
#
#######################################################################

data_ZUFCAG
_chemical_formula_moiety         'C72 H60 N24 Pd3 6+,6(N1 O3 1-),4(C2 H6 O1 S1)'
_chemical_name_systematic        
"hexakis(\m~2~-1,1'-(1,3-Phenylene)bis(1H-imidazole))-tri-palladium hexanitrate dimethyl sulfoxide solvate"
_symmetry_cell_setting           monoclinic
_symmetry_space_group_name_H-M   'C 2/c'
_symmetry_Int_Tables_number      15
_space_group_name_Hall           '-C 2yn'
loop_
_symmetry_equiv_pos_site_id
_symmetry_equiv_pos_as_xyz
1 x,y,z
2 -x,y,1/2-z
3 1/2+x,1/2+y,z
4 1/2-x,1/2+y,1/2-z
5 -x,-y,-z
6 x,-y,1/2+z
7 1/2-x,1/2-y,-z
8 1/2+x,1/2-y,1/2+z
_cell_length_a                   37.1846(11)
_cell_length_b                   15.5125(5)
_cell_length_c                   20.9162(6)
_cell_angle_alpha                90
_cell_angle_beta                 124.2210(10)
_cell_angle_gamma                90
_cell_volume                     9976.25
_exptl_crystal_colour            colorless
_exptl_crystal_description       block
_cell_formula_units_Z            4
loop_
_atom_site_label
_atom_site_type_symbol
_atom_site_fract_x
_atom_site_fract_y
_atom_site_fract_z
C1 C 0.06900(16) 0.5721(3) 0.7300(3)
H1 H 0.0620 0.5148 0.7311
C2 C 0.10269(17) 0.6002(3) 0.7274(3)
H2 H 0.1230 0.5660 0.7267
C3 C 0.06691(14) 0.7113(3) 0.7274(3)
H3 H 0.0583 0.7678 0.7263
C4 C 0.13136(16) 0.7452(3) 0.7270(3)
C5 C 0.1523(2) 0.7208(4) 0.6924(4)
H4 H 0.1471 0.6672 0.6689
C6 C 0.1814(3) 0.7781(5) 0.6935(5)
H5 H 0.1954 0.7627 0.6697
C7 C 0.1899(3) 0.8576(4) 0.7292(5)
H6 H 0.2099 0.8950 0.7306
C8 C 0.16832(16) 0.8805(3) 0.7627(3)
C9 C 0.13923(15) 0.8247(3) 0.7619(3)
H7 H 0.1249 0.8407 0.7850
C10 C 0.21132(17) 1.0148(4) 0.8238(4)
H8 H 0.2344 1.0039 0.8193
C11 C 0.20651(18) 1.0845(4) 0.8568(4)
H9 H 0.2260 1.1300 0.8798
C12 C 0.15074(15) 1.0042(3) 0.8164(3)
H10 H 0.1245 0.9831 0.8057
C13 C 0.14345(16) 1.3097(3) 0.7996(3)
H11 H 0.1716 1.3278 0.8371
C14 C 0.11618(16) 1.3487(3) 0.7309(3)
H12 H 0.1219 1.3975 0.7122
C15 C 0.08400(15) 1.2356(3) 0.7410(3)
H13 H 0.0633 1.1936 0.7294
C16 C 0.03887(16) 1.3220(3) 0.6229(3)
C17 C 0.0392(2) 1.3654(4) 0.5651(4)
H14 H 0.0654 1.3793 0.5716
C18 C 0.0001(2) 1.3876(5) 0.4979(4)
H15 H 0.0002 1.4176 0.4594
C19 C -0.0394(2) 1.3661(4) 0.4866(3)
H16 H -0.0656 1.3810 0.4411
C20 C -0.03883(16) 1.3219(3) 0.5447(3)
C21 C -0.00003(15) 1.3001(3) 0.6126(3)
H17 H -0.0001 1.2706 0.6512
C22 C -0.08374(15) 1.2359(3) 0.5734(3)
H18 H -0.0629 1.1944 0.6036
N1 N -0.07816(12) 1.3019(2) 0.5373(2)
C23 C -0.11606(17) 1.3486(3) 0.4984(3)
H19 H -0.1218 1.3974 0.4683
C24 C -0.14378(16) 1.3093(3) 0.5125(3)
H20 H -0.1720 1.3271 0.4936
C25 C 0.20631(19) 1.0845(4) 1.0566(3)
H21 H 0.2258 1.1302 1.0731
C26 C 0.21117(18) 1.0151(4) 1.0985(3)
H22 H 0.2344 1.0042 1.1491
C27 C 0.15052(16) 1.0044(3) 0.9852(3)
H23 H 0.1241 0.9836 0.9435
C28 C 0.16820(16) 0.8807(3) 1.0740(2)
C29 C 0.1899(2) 0.8579(4) 1.1505(3)
H24 H 0.2097 0.8955 1.1891
C30 C 0.1817(3) 0.7779(5) 1.1694(3)
H25 H 0.1960 0.7621 1.2211
C31 C 0.1524(2) 0.7204(4) 1.1120(3)
H26 H 0.1471 0.6667 1.1249
C32 C 0.13154(16) 0.7451(3) 1.0361(3)
C33 C 0.13903(15) 0.8249(3) 1.0165(2)
H27 H 0.1245 0.8410 0.9649
C34 C 0.10248(17) 0.5998(3) 0.9778(3)
H28 H 0.1226 0.5655 1.0191
C35 C 0.06906(17) 0.5721(3) 0.9082(3)
H29 H 0.0621 0.5149 0.8930
C36 C 0.06703(14) 0.7110(3) 0.9060(2)
H30 H 0.0586 0.7675 0.8895
N2 N 0.04718(11) 0.6426(2) 0.7305(2)
N3 N 0.10119(12) 0.6882(2) 0.7261(2)
N4 N 0.17584(12) 0.9630(2) 0.7982(2)
N5 N 0.16800(11) 1.0769(2) 0.8506(2)
N6 N 0.12314(12) 1.2391(2) 0.8054(2)
N7 N 0.07811(12) 1.3018(2) 0.6938(2)
N8 N -0.12317(12) 1.2392(2) 0.5593(2)
N9 N 0.16800(11) 1.0772(2) 0.9855(2)
N10 N 0.17596(12) 0.9629(2) 1.0539(2)
N11 N 0.10128(12) 0.6883(2) 0.9763(2)
N12 N 0.04713(11) 0.6427(2) 0.8637(2)
Pd1 Pd 0.0000 0.64250(3) 0.7500
Pd2 Pd 0.14571(2) 1.15840(2) 0.89573(2)
C1A C -0.06900(16) 0.5721(3) 0.7700(3)
H1A H -0.0620 0.5148 0.7689
C2A C -0.10269(17) 0.6002(3) 0.7726(3)
H2A H -0.1230 0.5660 0.7733
C3A C -0.06691(14) 0.7113(3) 0.7726(3)
H3A H -0.0583 0.7678 0.7737
C4A C -0.13136(16) 0.7452(3) 0.7730(3)
C5A C -0.1523(2) 0.7208(4) 0.8076(4)
H4A H -0.1471 0.6672 0.8311
C6A C -0.1814(3) 0.7781(5) 0.8065(5)
H5A H -0.1954 0.7627 0.8303
C7A C -0.1899(3) 0.8576(4) 0.7708(5)
H6A H -0.2099 0.8950 0.7694
C8A C -0.16832(16) 0.8805(3) 0.7373(3)
C9A C -0.13923(15) 0.8247(3) 0.7381(3)
H7A H -0.1249 0.8407 0.7150
C10A C -0.21132(17) 1.0148(4) 0.6762(4)
H8A H -0.2344 1.0039 0.6807
C11A C -0.20651(18) 1.0845(4) 0.6432(4)
H9A H -0.2260 1.1300 0.6202
C12A C -0.15074(15) 1.0042(3) 0.6836(3)
H10A H -0.1245 0.9831 0.6943
C13A C -0.14345(16) 1.3097(3) 0.7004(3)
H11A H -0.1716 1.3278 0.6629
C14A C -0.11618(16) 1.3487(3) 0.7691(3)
H12A H -0.1219 1.3975 0.7878
C15A C -0.08400(15) 1.2356(3) 0.7590(3)
H13A H -0.0633 1.1936 0.7706
C16A C -0.03887(16) 1.3220(3) 0.8771(3)
C17A C -0.0392(2) 1.3654(4) 0.9349(4)
H14A H -0.0654 1.3793 0.9284
C18A C -0.0001(2) 1.3876(5) 1.0021(4)
H15A H -0.0002 1.4176 1.0406
C19A C 0.0394(2) 1.3661(4) 1.0134(3)
H16A H 0.0656 1.3810 1.0589
C20A C 0.03883(16) 1.3219(3) 0.9553(3)
C21A C 0.00003(15) 1.3001(3) 0.8874(3)
H17A H 0.0001 1.2706 0.8488
C22A C 0.08374(15) 1.2359(3) 0.9266(3)
H18A H 0.0629 1.1944 0.8964
N1A N 0.07816(12) 1.3019(2) 0.9627(2)
C23A C 0.11606(17) 1.3486(3) 1.0016(3)
H19A H 0.1218 1.3974 1.0317
C24A C 0.14378(16) 1.3093(3) 0.9875(3)
H20A H 0.1720 1.3271 1.0064
C25A C -0.20631(19) 1.0845(4) 0.4434(3)
H21A H -0.2258 1.1302 0.4269
C26A C -0.21117(18) 1.0151(4) 0.4015(3)
H22A H -0.2344 1.0042 0.3509
C27A C -0.15052(16) 1.0044(3) 0.5148(3)
H23A H -0.1241 0.9836 0.5565
C28A C -0.16820(16) 0.8807(3) 0.4260(2)
C29A C -0.1899(2) 0.8579(4) 0.3495(3)
H24A H -0.2097 0.8955 0.3109
C30A C -0.1817(3) 0.7779(5) 0.3306(3)
H25A H -0.1960 0.7621 0.2789
C31A C -0.1524(2) 0.7204(4) 0.3880(3)
H26A H -0.1471 0.6667 0.3751
C32A C -0.13154(16) 0.7451(3) 0.4639(3)
C33A C -0.13903(15) 0.8249(3) 0.4835(2)
H27A H -0.1245 0.8410 0.5351
C34A C -0.10248(17) 0.5998(3) 0.5222(3)
H28A H -0.1226 0.5655 0.4809
C35A C -0.06906(17) 0.5721(3) 0.5918(3)
H29A H -0.0621 0.5149 0.6070
C36A C -0.06703(14) 0.7110(3) 0.5940(2)
H30A H -0.0586 0.7675 0.6105
N2A N -0.04718(11) 0.6426(2) 0.7695(2)
N3A N -0.10119(12) 0.6882(2) 0.7739(2)
N4A N -0.17584(12) 0.9630(2) 0.7018(2)
N5A N -0.16800(11) 1.0769(2) 0.6494(2)
N6A N -0.12314(12) 1.2391(2) 0.6946(2)
N7A N -0.07811(12) 1.3018(2) 0.8062(2)
N8A N 0.12317(12) 1.2392(2) 0.9407(2)
N9A N -0.16800(11) 1.0772(2) 0.5145(2)
N10A N -0.17596(12) 0.9629(2) 0.4461(2)
N11A N -0.10128(12) 0.6883(2) 0.5237(2)
N12A N -0.04713(11) 0.6427(2) 0.6363(2)
Pd2A Pd -0.14571(2) 1.15840(2) 0.60427(2)
N13 N 0.0000 0.3917(4) 0.7500
O1 O 0.0000 0.4752(6) 0.7500
O2 O 0.0368(2) 0.3605(6) 0.7872(4)
O2A O -0.0368(2) 0.3605(6) 0.7128(4)
N14 N 0.18245(17) 0.4998(4) 0.6828(3)
O3 O 0.14355(11) 0.5001(2) 0.6438(2)
O4 O 0.1997(4) 0.5312(11) 0.6528(9)
O5 O 0.2009(4) 0.4683(11) 0.7458(6)
N15 N 0.0671(12) 0.010(2) 0.5456(19)
O6 O 0.0812(17) 0.063(3) 0.604(2)
O7 O 0.0902(15) -0.059(2) 0.560(2)
O8 O 0.0547(14) 0.048(3) 0.4805(19)
S1 S 0.3001(9) 0.8931(16) 1.0399(15)
C37 C 0.3377(16) 0.973(2) 1.040(3)
C38 C 0.2649(9) 0.844(2) 0.9407(12)
O9 O 0.3342(5) 0.8113(15) 1.0840(8)
loop_
_geom_bond_atom_site_label_1
_geom_bond_atom_site_label_2
_geom_bond_site_symmetry_1
_geom_bond_site_symmetry_2
C1 H1 1_555 1_555
C2 C1 1_555 1_555
H2 C2 1_555 1_555
C3 H3 1_555 1_555
C4 C5 1_555 1_555
C5 H4 1_555 1_555
C6 C5 1_555 1_555
H5 C6 1_555 1_555
C7 C6 1_555 1_555
H6 C7 1_555 1_555
C8 C7 1_555 1_555
C9 C4 1_555 1_555
H7 C9 1_555 1_555
C10 H8 1_555 1_555
C11 C10 1_555 1_555
H9 C11 1_555 1_555
C12 H10 1_555 1_555
C13 H11 1_555 1_555
C14 C13 1_555 1_555
H12 C14 1_555 1_555
C15 H13 1_555 1_555
C16 C17 1_555 1_555
C17 H14 1_555 1_555
C18 C17 1_555 1_555
H15 C18 1_555 1_555
C19 C18 1_555 1_555
H16 C19 1_555 1_555
C20 C19 1_555 1_555
C21 C16 1_555 1_555
H17 C21 1_555 1_555
C22 H18 1_555 1_555
N1 C20 1_555 1_555
C23 N1 1_555 1_555
H19 C23 1_555 1_555
C24 C23 1_555 1_555
H20 C24 1_555 1_555
C25 H21 1_555 1_555
C26 C25 1_555 1_555
H22 C26 1_555 1_555
C27 H23 1_555 1_555
C28 C29 1_555 1_555
C29 H24 1_555 1_555
C30 C29 1_555 1_555
H25 C30 1_555 1_555
C31 C30 1_555 1_555
H26 C31 1_555 1_555
C32 C31 1_555 1_555
C33 C28 1_555 1_555
H27 C33 1_555 1_555
C34 H28 1_555 1_555
C35 C34 1_555 1_555
H29 C35 1_555 1_555
C36 H30 1_555 1_555
N2 C1 1_555 1_555
N3 C2 1_555 1_555
N4 C8 1_555 1_555
N5 C11 1_555 1_555
N6 C13 1_555 1_555
N7 C14 1_555 1_555
N8 C22 1_555 1_555
N9 C25 1_555 1_555
N10 C26 1_555 1_555
N11 C32 1_555 1_555
N12 C35 1_555 1_555
Pd1 N2 1_555 1_555
Pd2 N5 1_555 1_555
N13 O1 1_555 1_555
O2 N13 1_555 1_555
N14 O3 1_555 1_555
O4 N14 1_555 1_555
O5 N14 1_555 1_555
N15 O6 1_555 1_555
O7 N15 1_555 1_555
O8 N15 1_555 1_555
S1 C37 1_555 1_555
C38 S1 1_555 1_555
O9 S1 1_555 1_555
C1A H1A 1_555 1_555
C2A C1A 1_555 1_555
H2A C2A 1_555 1_555
C3A H3A 1_555 1_555
C4A C5A 1_555 1_555
C5A H4A 1_555 1_555
C6A C5A 1_555 1_555
H5A C6A 1_555 1_555
C7A C6A 1_555 1_555
H6A C7A 1_555 1_555
C8A C7A 1_555 1_555
C9A C4A 1_555 1_555
H7A C9A 1_555 1_555
C10A H8A 1_555 1_555
C11A C10A 1_555 1_555
H9A C11A 1_555 1_555
C12A H10A 1_555 1_555
C13A H11A 1_555 1_555
C14A C13A 1_555 1_555
H12A C14A 1_555 1_555
C15A H13A 1_555 1_555
C16A C17A 1_555 1_555
C17A H14A 1_555 1_555
C18A C17A 1_555 1_555
H15A C18A 1_555 1_555
C19A C18A 1_555 1_555
H16A C19A 1_555 1_555
C20A C19A 1_555 1_555
C21A C16A 1_555 1_555
H17A C21A 1_555 1_555
C22A H18A 1_555 1_555
N1A C20A 1_555 1_555
C23A N1A 1_555 1_555
H19A C23A 1_555 1_555
C24A C23A 1_555 1_555
H20A C24A 1_555 1_555
C25A H21A 1_555 1_555
C26A C25A 1_555 1_555
H22A C26A 1_555 1_555
C27A H23A 1_555 1_555
C28A C29A 1_555 1_555
C29A H24A 1_555 1_555
C30A C29A 1_555 1_555
H25A C30A 1_555 1_555
C31A C30A 1_555 1_555
H26A C31A 1_555 1_555
C32A C31A 1_555 1_555
C33A C28A 1_555 1_555
H27A C33A 1_555 1_555
C34A H28A 1_555 1_555
C35A C34A 1_555 1_555
H29A C35A 1_555 1_555
C36A H30A 1_555 1_555
N2A Pd1 1_555 1_555
N3A C2A 1_555 1_555
N4A C8A 1_555 1_555
N5A C11A 1_555 1_555
N6A C13A 1_555 1_555
N7A C14A 1_555 1_555
N8A Pd2 1_555 1_555
N9A C25A 1_555 1_555
N10A C26A 1_555 1_555
N11A C32A 1_555 1_555
N12A Pd1 1_555 1_555
Pd2A N8 1_555 1_555
O2A N13 1_555 1_555
C3 N2 1_555 1_555
C3 N3 1_555 1_555
C4 N3 1_555 1_555
C8 C9 1_555 1_555
C10 N4 1_555 1_555
C12 N4 1_555 1_555
C12 N5 1_555 1_555
C15 N6 1_555 1_555
C15 N7 1_555 1_555
C16 N7 1_555 1_555
C20 C21 1_555 1_555
C22 N1 1_555 1_555
C24 N8 1_555 1_555
C27 N9 1_555 1_555
C27 N10 1_555 1_555
C28 N10 1_555 1_555
C32 C33 1_555 1_555
C34 N11 1_555 1_555
C36 N11 1_555 1_555
C36 N12 1_555 1_555
N6 Pd2 1_555 1_555
N9 Pd2 1_555 1_555
N12 Pd1 1_555 1_555
C1A N2A 1_555 1_555
C3A N2A 1_555 1_555
C3A N3A 1_555 1_555
C4A N3A 1_555 1_555
C8A C9A 1_555 1_555
C10A N4A 1_555 1_555
C12A N4A 1_555 1_555
C12A N5A 1_555 1_555
C15A N6A 1_555 1_555
C15A N7A 1_555 1_555
C16A N7A 1_555 1_555
C20A C21A 1_555 1_555
C22A N1A 1_555 1_555
C22A N8A 1_555 1_555
C24A N8A 1_555 1_555
C27A N9A 1_555 1_555
C27A N10A 1_555 1_555
C28A N10A 1_555 1_555
C32A C33A 1_555 1_555
C34A N11A 1_555 1_555
C35A N12A 1_555 1_555
C36A N11A 1_555 1_555
C36A N12A 1_555 1_555
N5A Pd2A 1_555 1_555
N6A Pd2A 1_555 1_555
N9A Pd2A 1_555 1_555

#END
