
#######################################################################
#
#                 Cambridge Crystallographic Data Centre
#                                CCDC 
#
#######################################################################
#
# If this CIF has been generated from an entry in the Cambridge 
# Structural Database, then it will include bibliographic, chemical, 
# crystal, experimental, refinement or atomic coordinate data resulting 
# from the CCDC's data processing and validation procedures.
#
#######################################################################

data_ZUFJAN
_chemical_formula_moiety         
'C216 H168 N8 O16 Pd2 4+,10.67(H2 O1),4(N1 O3 1-)'
_chemical_name_systematic        
"tetrakis(\m-3,3'-((3,6-bis(2-methoxyethoxy)naphthalene-2,7-diyl)dianthracene-10,9-diyl)dipyridine)-di-palladium(ii) tetrakis(nitrate) hydrate"
_symmetry_cell_setting           cubic
_symmetry_space_group_name_H-M   'I 4 3 2'
_symmetry_Int_Tables_number      211
_space_group_name_Hall           'I 4 2 3'
loop_
_symmetry_equiv_pos_site_id
_symmetry_equiv_pos_as_xyz
1 x,y,z
2 -y,x,z
3 -x,-y,z
4 y,-x,z
5 x,-y,-z
6 y,x,-z
7 -x,y,-z
8 -y,-x,-z
9 z,x,y
10 -x,z,y
11 -z,-x,y
12 x,-z,y
13 z,-x,-y
14 x,z,-y
15 -z,x,-y
16 -x,-z,-y
17 y,z,x
18 -z,-y,-x
19 -z,y,x
20 z,y,-x
21 z,-y,x
22 y,-z,-x
23 -y,-z,x
24 -y,z,-x
25 1/2+x,1/2+y,1/2+z
26 1/2-y,1/2+x,1/2+z
27 1/2-x,1/2-y,1/2+z
28 1/2+y,1/2-x,1/2+z
29 1/2+x,1/2-y,1/2-z
30 1/2+y,1/2+x,1/2-z
31 1/2-x,1/2+y,1/2-z
32 1/2-y,1/2-x,1/2-z
33 1/2+z,1/2+x,1/2+y
34 1/2-x,1/2+z,1/2+y
35 1/2-z,1/2-x,1/2+y
36 1/2+x,1/2-z,1/2+y
37 1/2+z,1/2-x,1/2-y
38 1/2+x,1/2+z,1/2-y
39 1/2-z,1/2+x,1/2-y
40 1/2-x,1/2-z,1/2-y
41 1/2+y,1/2+z,1/2+x
42 1/2-z,1/2-y,1/2-x
43 1/2-z,1/2+y,1/2+x
44 1/2+z,1/2+y,1/2-x
45 1/2+z,1/2-y,1/2+x
46 1/2+y,1/2-z,1/2-x
47 1/2-y,1/2-z,1/2+x
48 1/2-y,1/2+z,1/2-x
_cell_length_a                   32.9368(15)
_cell_length_b                   32.9368(15)
_cell_length_c                   32.9368(15)
_cell_angle_alpha                90
_cell_angle_beta                 90
_cell_angle_gamma                90
_cell_volume                     35730.9
_cell_formula_units_Z            6
loop_
_atom_site_label
_atom_site_type_symbol
_atom_site_fract_x
_atom_site_fract_y
_atom_site_fract_z
O3 O 1.0000 0.2130(10) 0.2130(10)
O4 O 0.0000 0.1517(15) 0.0000
O5 O 0.0000 0.3490(19) 0.0000
O6 O 0.146(2) 0.146(2) 0.146(2)
Pd1 Pd 0.0000 0.25633(9) 0.0000
N1 N 0.0551(5) 0.2550(6) 0.0260(6)
C1 C 0.0746(8) 0.2165(8) 0.0276(8)
H1 H 0.0636 0.1932 0.0146
C2 C 0.1105(9) 0.2148(10) 0.0489(9)
H2 H 0.1238 0.1896 0.0532
C3 C 0.1268(9) 0.2502(9) 0.0638(8)
H3 H 0.1542 0.2500 0.0728
C4 C 0.1068(8) 0.2836(8) 0.0662(8)
C5 C 0.0708(7) 0.2861(7) 0.0464(6)
H4 H 0.0563 0.3111 0.0470
C6 C 0.1715(12) 0.3385(12) 0.0273(12)
H5 H 0.1652 0.3140 0.0134
C7 C 0.1962(11) 0.3642(12) 0.0093(14)
H6 H 0.2003 0.3609 -0.0191
C8 C 0.2170(12) 0.3963(13) 0.0285(12)
H7 H 0.2385 0.4118 0.0170
C9 C 0.2006(12) 0.4014(11) 0.0673(12)
H8 H 0.2124 0.4233 0.0819
C10 C 0.1697(11) 0.3806(10) 0.0894(11)
C11 C 0.1536(9) 0.3861(9) 0.1285(9)
C12 C 0.1284(8) 0.3612(8) 0.1485(9)
C13 C 0.1154(9) 0.3701(9) 0.1888(9)
H9 H 0.1236 0.3947 0.2014
C14 C 0.0910(9) 0.3431(9) 0.2094(10)
H10 H 0.0850 0.3460 0.2375
C15 C 0.0737(10) 0.3067(10) 0.1827(10)
H11 H 0.0520 0.2905 0.1927
C16 C 0.0878(8) 0.3001(10) 0.1509(9)
H12 H 0.0824 0.2740 0.1398
C17 C 0.1116(8) 0.3259(7) 0.1270(8)
C18 C 0.1245(9) 0.3200(9) 0.0886(9)
C19 C 0.1540(10) 0.3447(10) 0.0656(11)
C20 C 0.1462(9) 0.4636(7) 0.1409(9)
H13 H 0.1241 0.4633 0.1223
C21 C 0.1663(8) 0.4265(8) 0.1506(8)
C22 C 0.1989(8) 0.4288(8) 0.1798(8)
C23 C 0.2117(8) 0.4628(7) 0.1950(8)
H14 H 0.2362 0.4636 0.2103
C24 C 0.1884(7) 0.5000 0.1884(7)
C25 C 0.1581(7) 0.5000 0.1581(7)
O1 O 0.2169(5) 0.3917(5) 0.1862(5)
C26 C 0.2523(9) 0.3897(9) 0.2118(9)
H15 H 0.2723 0.4100 0.2022
H16 H 0.2444 0.3973 0.2398
C27 C 0.2709(9) 0.3520(9) 0.2129(9)
H17 H 0.2515 0.3311 0.2224
H18 H 0.2804 0.3443 0.1854
O2 O 0.3016(6) 0.3547(7) 0.2379(6)
C28 C 0.3190(11) 0.3209(12) 0.2346(9)
H19 H 0.3081 0.3020 0.2549
H20 H 0.3483 0.3243 0.2390
H21 H 0.3144 0.3099 0.2074
N1T N 0.0260(6) 0.7450(6) 0.0551(5)
C1T C 0.0276(8) 0.7835(8) 0.0746(8)
H1T H 0.0146 0.8068 0.0636
C2T C 0.0489(9) 0.7852(10) 0.1105(9)
H2T H 0.0532 0.8104 0.1238
C3T C 0.0638(8) 0.7498(9) 0.1268(9)
H3T H 0.0728 0.7500 0.1542
C4T C 0.0662(8) 0.7164(8) 0.1068(8)
C5T C 0.0464(6) 0.7139(7) 0.0708(7)
H4T H 0.0470 0.6889 0.0563
C6T C 0.0273(12) 0.6615(12) 0.1715(12)
H5T H 0.0134 0.6860 0.1652
C7T C 0.0093(14) 0.6358(12) 0.1962(11)
H6T H -0.0191 0.6391 0.2003
C8T C 0.0285(12) 0.6037(13) 0.2170(12)
H7T H 0.0170 0.5882 0.2385
C9T C 0.0673(12) 0.5986(11) 0.2006(12)
H8T H 0.0819 0.5767 0.2124
C10T C 0.0894(11) 0.6194(10) 0.1697(11)
C11T C 0.1285(9) 0.6139(9) 0.1536(9)
C12T C 0.1485(9) 0.6388(8) 0.1284(8)
C13T C 0.1888(9) 0.6299(9) 0.1154(9)
H9T H 0.2014 0.6053 0.1236
C14T C 0.2094(10) 0.6569(9) 0.0910(9)
H10T H 0.2375 0.6540 0.0850
C15T C 0.1827(10) 0.6933(10) 0.0737(10)
H11T H 0.1927 0.7095 0.0520
C16T C 0.1509(9) 0.6999(10) 0.0878(8)
H12T H 0.1398 0.7260 0.0824
C17T C 0.1270(8) 0.6741(7) 0.1116(8)
C18T C 0.0886(9) 0.6800(9) 0.1245(9)
C19T C 0.0656(11) 0.6553(10) 0.1540(10)
C20T C 0.1409(9) 0.5364(7) 0.1462(9)
H13T H 0.1223 0.5367 0.1241
C21T C 0.1506(8) 0.5735(8) 0.1663(8)
C22T C 0.1798(8) 0.5712(8) 0.1989(8)
C23T C 0.1950(8) 0.5372(7) 0.2117(8)
H14T H 0.2103 0.5364 0.2362
O1T O 0.1862(5) 0.6083(5) 0.2169(5)
C26T C 0.2118(9) 0.6103(9) 0.2523(9)
H15T H 0.2022 0.5900 0.2723
H16T H 0.2398 0.6027 0.2444
C27T C 0.2129(9) 0.6480(9) 0.2709(9)
H17T H 0.2224 0.6689 0.2515
H18T H 0.1854 0.6557 0.2804
O2T O 0.2379(6) 0.6453(7) 0.3016(6)
C28T C 0.2346(9) 0.6791(12) 0.3190(11)
H19T H 0.2549 0.6980 0.3081
H20T H 0.2390 0.6757 0.3483
H21T H 0.2074 0.6901 0.3144
Pd1B Pd 0.0000 0.74367(9) 0.0000
N1B N -0.0551(5) 0.7450(6) 0.0260(6)
C1B C -0.0746(8) 0.7835(8) 0.0276(8)
H1B H -0.0636 0.8068 0.0146
C2B C -0.1105(9) 0.7852(10) 0.0489(9)
H2B H -0.1238 0.8104 0.0532
C3B C -0.1268(9) 0.7498(9) 0.0638(8)
H3B H -0.1542 0.7500 0.0728
C4B C -0.1068(8) 0.7164(8) 0.0662(8)
C5B C -0.0708(7) 0.7139(7) 0.0464(6)
H4B H -0.0563 0.6889 0.0470
C6B C -0.1715(12) 0.6615(12) 0.0273(12)
H5B H -0.1652 0.6860 0.0134
C7B C -0.1962(11) 0.6358(12) 0.0093(14)
H6B H -0.2003 0.6391 -0.0191
C8B C -0.2170(12) 0.6037(13) 0.0285(12)
H7B H -0.2385 0.5882 0.0170
C9B C -0.2006(12) 0.5986(11) 0.0673(12)
H8B H -0.2124 0.5767 0.0819
C10B C -0.1697(11) 0.6194(10) 0.0894(11)
C11B C -0.1536(9) 0.6139(9) 0.1285(9)
C12B C -0.1284(8) 0.6388(8) 0.1485(9)
C13B C -0.1154(9) 0.6299(9) 0.1888(9)
H9B H -0.1236 0.6053 0.2014
C14B C -0.0910(9) 0.6569(9) 0.2094(10)
H10B H -0.0850 0.6540 0.2375
C15B C -0.0737(10) 0.6933(10) 0.1827(10)
H11B H -0.0520 0.7095 0.1927
C16B C -0.0878(8) 0.6999(10) 0.1509(9)
H12B H -0.0824 0.7260 0.1398
C17B C -0.1116(8) 0.6741(7) 0.1270(8)
C18B C -0.1245(9) 0.6800(9) 0.0886(9)
C19B C -0.1540(10) 0.6553(10) 0.0656(11)
C20B C -0.1462(9) 0.5364(7) 0.1409(9)
H13B H -0.1241 0.5367 0.1223
C21B C -0.1663(8) 0.5735(8) 0.1506(8)
C22B C -0.1989(8) 0.5712(8) 0.1798(8)
C23B C -0.2117(8) 0.5372(7) 0.1950(8)
H14B H -0.2362 0.5364 0.2103
C24B C -0.1884(7) 0.5000 0.1884(7)
C25B C -0.1581(7) 0.5000 0.1581(7)
O1B O -0.2169(5) 0.6083(5) 0.1862(5)
C26B C -0.2523(9) 0.6103(9) 0.2118(9)
H15B H -0.2723 0.5900 0.2022
H16B H -0.2444 0.6027 0.2398
C27B C -0.2709(9) 0.6480(9) 0.2129(9)
H17B H -0.2515 0.6689 0.2224
H18B H -0.2804 0.6557 0.1854
O2B O -0.3016(6) 0.6453(7) 0.2379(6)
C28B C -0.3190(11) 0.6791(12) 0.2346(9)
H19B H -0.3081 0.6980 0.2549
H20B H -0.3483 0.6757 0.2390
H21B H -0.3144 0.6901 0.2074
N1R N -0.0260(6) 0.2550(6) 0.0551(5)
C1R C -0.0276(8) 0.2165(8) 0.0746(8)
H1R H -0.0146 0.1932 0.0636
C2R C -0.0489(9) 0.2148(10) 0.1105(9)
H2R H -0.0532 0.1896 0.1238
C3R C -0.0638(8) 0.2502(9) 0.1268(9)
H3R H -0.0728 0.2500 0.1542
C4R C -0.0662(8) 0.2836(8) 0.1068(8)
C5R C -0.0464(6) 0.2861(7) 0.0708(7)
H4R H -0.0470 0.3111 0.0563
C6R C -0.0273(12) 0.3385(12) 0.1715(12)
H5R H -0.0134 0.3140 0.1652
C7R C -0.0093(14) 0.3642(12) 0.1962(11)
H6R H 0.0191 0.3609 0.2003
C8R C -0.0285(12) 0.3963(13) 0.2170(12)
H7R H -0.0170 0.4118 0.2385
C9R C -0.0673(12) 0.4014(11) 0.2006(12)
H8R H -0.0819 0.4233 0.2124
C10R C -0.0894(11) 0.3806(10) 0.1697(11)
C11R C -0.1285(9) 0.3861(9) 0.1536(9)
C12R C -0.1485(9) 0.3612(8) 0.1284(8)
C13R C -0.1888(9) 0.3701(9) 0.1154(9)
H9R H -0.2014 0.3947 0.1236
C14R C -0.2094(10) 0.3431(9) 0.0910(9)
H10R H -0.2375 0.3460 0.0850
C15R C -0.1827(10) 0.3067(10) 0.0737(10)
H11R H -0.1927 0.2905 0.0520
C16R C -0.1509(9) 0.3001(10) 0.0878(8)
H12R H -0.1398 0.2740 0.0824
C17R C -0.1270(8) 0.3259(7) 0.1116(8)
C18R C -0.0886(9) 0.3200(9) 0.1245(9)
C19R C -0.0656(11) 0.3447(10) 0.1540(10)
C20R C -0.1409(9) 0.4636(7) 0.1462(9)
H13R H -0.1223 0.4633 0.1241
C21R C -0.1506(8) 0.4265(8) 0.1663(8)
C22R C -0.1798(8) 0.4288(8) 0.1989(8)
C23R C -0.1950(8) 0.4628(7) 0.2117(8)
H14R H -0.2103 0.4636 0.2362
O1R O -0.1862(5) 0.3917(5) 0.2169(5)
C26R C -0.2118(9) 0.3897(9) 0.2523(9)
H15R H -0.2022 0.4100 0.2723
H16R H -0.2398 0.3973 0.2444
C27R C -0.2129(9) 0.3520(9) 0.2709(9)
H17R H -0.2224 0.3311 0.2515
H18R H -0.1854 0.3443 0.2804
O2R O -0.2379(6) 0.3547(7) 0.3016(6)
C28R C -0.2346(9) 0.3209(12) 0.3190(11)
H19R H -0.2549 0.3020 0.3081
H20R H -0.2390 0.3243 0.3483
H21R H -0.2074 0.3099 0.3144
N1D N 0.0551(5) 0.7450(6) -0.0260(6)
C1D C 0.0746(8) 0.7835(8) -0.0276(8)
H1D H 0.0636 0.8068 -0.0146
C2D C 0.1105(9) 0.7852(10) -0.0489(9)
H2D H 0.1238 0.8104 -0.0532
C3D C 0.1268(9) 0.7498(9) -0.0638(8)
H3D H 0.1542 0.7500 -0.0728
C4D C 0.1068(8) 0.7164(8) -0.0662(8)
C5D C 0.0708(7) 0.7139(7) -0.0464(6)
H4D H 0.0563 0.6889 -0.0470
C6D C 0.1715(12) 0.6615(12) -0.0273(12)
H5D H 0.1652 0.6860 -0.0134
C7D C 0.1962(11) 0.6358(12) -0.0093(14)
H6D H 0.2003 0.6391 0.0191
C8D C 0.2170(12) 0.6037(13) -0.0285(12)
H7D H 0.2385 0.5882 -0.0170
C9D C 0.2006(12) 0.5986(11) -0.0673(12)
H8D H 0.2124 0.5767 -0.0819
C10D C 0.1697(11) 0.6194(10) -0.0894(11)
C11D C 0.1536(9) 0.6139(9) -0.1285(9)
C12D C 0.1284(8) 0.6388(8) -0.1485(9)
C13D C 0.1154(9) 0.6299(9) -0.1888(9)
H9D H 0.1236 0.6053 -0.2014
C14D C 0.0910(9) 0.6569(9) -0.2094(10)
H10D H 0.0850 0.6540 -0.2375
C15D C 0.0737(10) 0.6933(10) -0.1827(10)
H11D H 0.0520 0.7095 -0.1927
C16D C 0.0878(8) 0.6999(10) -0.1509(9)
H12D H 0.0824 0.7260 -0.1398
C17D C 0.1116(8) 0.6741(7) -0.1270(8)
C18D C 0.1245(9) 0.6800(9) -0.0886(9)
C19D C 0.1540(10) 0.6553(10) -0.0656(11)
C20D C 0.1462(9) 0.5364(7) -0.1409(9)
H13D H 0.1241 0.5367 -0.1223
C21D C 0.1663(8) 0.5735(8) -0.1506(8)
C22D C 0.1989(8) 0.5712(8) -0.1798(8)
C23D C 0.2117(8) 0.5372(7) -0.1950(8)
H14D H 0.2362 0.5364 -0.2103
C24D C 0.1884(7) 0.5000 -0.1884(7)
C25D C 0.1581(7) 0.5000 -0.1581(7)
O1D O 0.2169(5) 0.6083(5) -0.1862(5)
C26D C 0.2523(9) 0.6103(9) -0.2118(9)
H15D H 0.2723 0.5900 -0.2022
H16D H 0.2444 0.6027 -0.2398
C27D C 0.2709(9) 0.6480(9) -0.2129(9)
H17D H 0.2515 0.6689 -0.2224
H18D H 0.2804 0.6557 -0.1854
O2D O 0.3016(6) 0.6453(7) -0.2379(6)
C28D C 0.3190(11) 0.6791(12) -0.2346(9)
H19D H 0.3081 0.6980 -0.2549
H20D H 0.3483 0.6757 -0.2390
H21D H 0.3144 0.6901 -0.2074
N1S N 0.0260(6) 0.2550(6) -0.0551(5)
C1S C 0.0276(8) 0.2165(8) -0.0746(8)
H1S H 0.0146 0.1932 -0.0636
C2S C 0.0489(9) 0.2148(10) -0.1105(9)
H2S H 0.0532 0.1896 -0.1238
C3S C 0.0638(8) 0.2502(9) -0.1268(9)
H3S H 0.0728 0.2500 -0.1542
C4S C 0.0662(8) 0.2836(8) -0.1068(8)
C5S C 0.0464(6) 0.2861(7) -0.0708(7)
H4S H 0.0470 0.3111 -0.0563
C6S C 0.0273(12) 0.3385(12) -0.1715(12)
H5S H 0.0134 0.3140 -0.1652
C7S C 0.0093(14) 0.3642(12) -0.1962(11)
H6S H -0.0191 0.3609 -0.2003
C8S C 0.0285(12) 0.3963(13) -0.2170(12)
H7S H 0.0170 0.4118 -0.2385
C9S C 0.0673(12) 0.4014(11) -0.2006(12)
H8S H 0.0819 0.4233 -0.2124
C10S C 0.0894(11) 0.3806(10) -0.1697(11)
C11S C 0.1285(9) 0.3861(9) -0.1536(9)
C12S C 0.1485(9) 0.3612(8) -0.1284(8)
C13S C 0.1888(9) 0.3701(9) -0.1154(9)
H9S H 0.2014 0.3947 -0.1236
C14S C 0.2094(10) 0.3431(9) -0.0910(9)
H10S H 0.2375 0.3460 -0.0850
C15S C 0.1827(10) 0.3067(10) -0.0737(10)
H11S H 0.1927 0.2905 -0.0520
C16S C 0.1509(9) 0.3001(10) -0.0878(8)
H12S H 0.1398 0.2740 -0.0824
C17S C 0.1270(8) 0.3259(7) -0.1116(8)
C18S C 0.0886(9) 0.3200(9) -0.1245(9)
C19S C 0.0656(11) 0.3447(10) -0.1540(10)
C20S C 0.1409(9) 0.4636(7) -0.1462(9)
H13S H 0.1223 0.4633 -0.1241
C21S C 0.1506(8) 0.4265(8) -0.1663(8)
C22S C 0.1798(8) 0.4288(8) -0.1989(8)
C23S C 0.1950(8) 0.4628(7) -0.2117(8)
H14S H 0.2103 0.4636 -0.2362
O1S O 0.1862(5) 0.3917(5) -0.2169(5)
C26S C 0.2118(9) 0.3897(9) -0.2523(9)
H15S H 0.2022 0.4100 -0.2723
H16S H 0.2398 0.3973 -0.2444
C27S C 0.2129(9) 0.3520(9) -0.2709(9)
H17S H 0.2224 0.3311 -0.2515
H18S H 0.1854 0.3443 -0.2804
O2S O 0.2379(6) 0.3547(7) -0.3016(6)
C28S C 0.2346(9) 0.3209(12) -0.3190(11)
H19S H 0.2549 0.3020 -0.3081
H20S H 0.2390 0.3243 -0.3483
H21S H 0.2074 0.3099 -0.3144
N1F N -0.0551(5) 0.2550(6) -0.0260(6)
C1F C -0.0746(8) 0.2165(8) -0.0276(8)
H1F H -0.0636 0.1932 -0.0146
C2F C -0.1105(9) 0.2148(10) -0.0489(9)
H2F H -0.1238 0.1896 -0.0532
C3F C -0.1268(9) 0.2502(9) -0.0638(8)
H3F H -0.1542 0.2500 -0.0728
C4F C -0.1068(8) 0.2836(8) -0.0662(8)
C5F C -0.0708(7) 0.2861(7) -0.0464(6)
H4F H -0.0563 0.3111 -0.0470
C6F C -0.1715(12) 0.3385(12) -0.0273(12)
H5F H -0.1652 0.3140 -0.0134
C7F C -0.1962(11) 0.3642(12) -0.0093(14)
H6F H -0.2003 0.3609 0.0191
C8F C -0.2170(12) 0.3963(13) -0.0285(12)
H7F H -0.2385 0.4118 -0.0170
C9F C -0.2006(12) 0.4014(11) -0.0673(12)
H8F H -0.2124 0.4233 -0.0819
C10F C -0.1697(11) 0.3806(10) -0.0894(11)
C11F C -0.1536(9) 0.3861(9) -0.1285(9)
C12F C -0.1284(8) 0.3612(8) -0.1485(9)
C13F C -0.1154(9) 0.3701(9) -0.1888(9)
H9F H -0.1236 0.3947 -0.2014
C14F C -0.0910(9) 0.3431(9) -0.2094(10)
H10F H -0.0850 0.3460 -0.2375
C15F C -0.0737(10) 0.3067(10) -0.1827(10)
H11F H -0.0520 0.2905 -0.1927
C16F C -0.0878(8) 0.3001(10) -0.1509(9)
H12F H -0.0824 0.2740 -0.1398
C17F C -0.1116(8) 0.3259(7) -0.1270(8)
C18F C -0.1245(9) 0.3200(9) -0.0886(9)
C19F C -0.1540(10) 0.3447(10) -0.0656(11)
C20F C -0.1462(9) 0.4636(7) -0.1409(9)
H13F H -0.1241 0.4633 -0.1223
C21F C -0.1663(8) 0.4265(8) -0.1506(8)
C22F C -0.1989(8) 0.4288(8) -0.1798(8)
C23F C -0.2117(8) 0.4628(7) -0.1950(8)
H14F H -0.2362 0.4636 -0.2103
C24F C -0.1884(7) 0.5000 -0.1884(7)
C25F C -0.1581(7) 0.5000 -0.1581(7)
O1F O -0.2169(5) 0.3917(5) -0.1862(5)
C26F C -0.2523(9) 0.3897(9) -0.2118(9)
H15F H -0.2723 0.4100 -0.2022
H16F H -0.2444 0.3973 -0.2398
C27F C -0.2709(9) 0.3520(9) -0.2129(9)
H17F H -0.2515 0.3311 -0.2224
H18F H -0.2804 0.3443 -0.1854
O2F O -0.3016(6) 0.3547(7) -0.2379(6)
C28F C -0.3190(11) 0.3209(12) -0.2346(9)
H19F H -0.3081 0.3020 -0.2549
H20F H -0.3483 0.3243 -0.2390
H21F H -0.3144 0.3099 -0.2074
N1Q N -0.0260(6) 0.7450(6) -0.0551(5)
C1Q C -0.0276(8) 0.7835(8) -0.0746(8)
H1Q H -0.0146 0.8068 -0.0636
C2Q C -0.0489(9) 0.7852(10) -0.1105(9)
H2Q H -0.0532 0.8104 -0.1238
C3Q C -0.0638(8) 0.7498(9) -0.1268(9)
H3Q H -0.0728 0.7500 -0.1542
C4Q C -0.0662(8) 0.7164(8) -0.1068(8)
C5Q C -0.0464(6) 0.7139(7) -0.0708(7)
H4Q H -0.0470 0.6889 -0.0563
C6Q C -0.0273(12) 0.6615(12) -0.1715(12)
H5Q H -0.0134 0.6860 -0.1652
C7Q C -0.0093(14) 0.6358(12) -0.1962(11)
H6Q H 0.0191 0.6391 -0.2003
C8Q C -0.0285(12) 0.6037(13) -0.2170(12)
H7Q H -0.0170 0.5882 -0.2385
C9Q C -0.0673(12) 0.5986(11) -0.2006(12)
H8Q H -0.0819 0.5767 -0.2124
C10Q C -0.0894(11) 0.6194(10) -0.1697(11)
C11Q C -0.1285(9) 0.6139(9) -0.1536(9)
C12Q C -0.1485(9) 0.6388(8) -0.1284(8)
C13Q C -0.1888(9) 0.6299(9) -0.1154(9)
H9Q H -0.2014 0.6053 -0.1236
C14Q C -0.2094(10) 0.6569(9) -0.0910(9)
H10Q H -0.2375 0.6540 -0.0850
C15Q C -0.1827(10) 0.6933(10) -0.0737(10)
H11Q H -0.1927 0.7095 -0.0520
C16Q C -0.1509(9) 0.6999(10) -0.0878(8)
H12Q H -0.1398 0.7260 -0.0824
C17Q C -0.1270(8) 0.6741(7) -0.1116(8)
C18Q C -0.0886(9) 0.6800(9) -0.1245(9)
C19Q C -0.0656(11) 0.6553(10) -0.1540(10)
C20Q C -0.1409(9) 0.5364(7) -0.1462(9)
H13Q H -0.1223 0.5367 -0.1241
C21Q C -0.1506(8) 0.5735(8) -0.1663(8)
C22Q C -0.1798(8) 0.5712(8) -0.1989(8)
C23Q C -0.1950(8) 0.5372(7) -0.2117(8)
H14Q H -0.2103 0.5364 -0.2362
O1Q O -0.1862(5) 0.6083(5) -0.2169(5)
C26Q C -0.2118(9) 0.6103(9) -0.2523(9)
H15Q H -0.2022 0.5900 -0.2723
H16Q H -0.2398 0.6027 -0.2444
C27Q C -0.2129(9) 0.6480(9) -0.2709(9)
H17Q H -0.2224 0.6689 -0.2515
H18Q H -0.1854 0.6557 -0.2804
O2Q O -0.2379(6) 0.6453(7) -0.3016(6)
C28Q C -0.2346(9) 0.6791(12) -0.3190(11)
H19Q H -0.2549 0.6980 -0.3081
H20Q H -0.2390 0.6757 -0.3483
H21Q H -0.2074 0.6901 -0.3144
loop_
_geom_bond_atom_site_label_1
_geom_bond_atom_site_label_2
_geom_bond_site_symmetry_1
_geom_bond_site_symmetry_2
Pd1 N1 1_555 1_555
N1 C1 1_555 1_555
C1 H1 1_555 1_555
C2 C1 1_555 1_555
H2 C2 1_555 1_555
C3 C2 1_555 1_555
H3 C3 1_555 1_555
C4 C3 1_555 1_555
C5 N1 1_555 1_555
H4 C5 1_555 1_555
C6 H5 1_555 1_555
C7 C6 1_555 1_555
H6 C7 1_555 1_555
C8 C7 1_555 1_555
H7 C8 1_555 1_555
C9 C8 1_555 1_555
H8 C9 1_555 1_555
C10 C9 1_555 1_555
C11 C10 1_555 1_555
C12 C11 1_555 1_555
C13 C12 1_555 1_555
H9 C13 1_555 1_555
C14 C13 1_555 1_555
H10 C14 1_555 1_555
C15 C14 1_555 1_555
H11 C15 1_555 1_555
C16 C15 1_555 1_555
H12 C16 1_555 1_555
C17 C12 1_555 1_555
C18 C4 1_555 1_555
C19 C6 1_555 1_555
C20 H13 1_555 1_555
C21 C11 1_555 1_555
C22 C21 1_555 1_555
C23 C22 1_555 1_555
H14 C23 1_555 1_555
C24 C23 1_555 1_555
C25 C20 1_555 1_555
O1 C22 1_555 1_555
C26 O1 1_555 1_555
H15 C26 1_555 1_555
H16 C26 1_555 1_555
C27 C26 1_555 1_555
H17 C27 1_555 1_555
H18 C27 1_555 1_555
O2 C27 1_555 1_555
C28 O2 1_555 1_555
H19 C28 1_555 1_555
H20 C28 1_555 1_555
H21 C28 1_555 1_555
N1T C1T 1_555 1_555
C1T H1T 1_555 1_555
C2T C1T 1_555 1_555
H2T C2T 1_555 1_555
C3T C2T 1_555 1_555
H3T C3T 1_555 1_555
C4T C3T 1_555 1_555
C5T N1T 1_555 1_555
H4T C5T 1_555 1_555
C6T H5T 1_555 1_555
C7T C6T 1_555 1_555
H6T C7T 1_555 1_555
C8T C7T 1_555 1_555
H7T C8T 1_555 1_555
C9T C8T 1_555 1_555
H8T C9T 1_555 1_555
C10T C9T 1_555 1_555
C11T C10T 1_555 1_555
C12T C11T 1_555 1_555
C13T C12T 1_555 1_555
H9T C13T 1_555 1_555
C14T C13T 1_555 1_555
H10T C14T 1_555 1_555
C15T C14T 1_555 1_555
H11T C15T 1_555 1_555
C16T C15T 1_555 1_555
H12T C16T 1_555 1_555
C17T C12T 1_555 1_555
C18T C4T 1_555 1_555
C19T C6T 1_555 1_555
C20T C25 1_555 1_555
H13T C20T 1_555 1_555
C21T C11T 1_555 1_555
C22T C21T 1_555 1_555
C23T C24 1_555 1_555
H14T C23T 1_555 1_555
O1T C22T 1_555 1_555
C26T O1T 1_555 1_555
H15T C26T 1_555 1_555
H16T C26T 1_555 1_555
C27T C26T 1_555 1_555
H17T C27T 1_555 1_555
H18T C27T 1_555 1_555
O2T C27T 1_555 1_555
C28T O2T 1_555 1_555
H19T C28T 1_555 1_555
H20T C28T 1_555 1_555
H21T C28T 1_555 1_555
Pd1B N1T 1_555 1_555
N1B Pd1B 1_555 1_555
C1B N1B 1_555 1_555
H1B C1B 1_555 1_555
C2B C1B 1_555 1_555
H2B C2B 1_555 1_555
C3B C2B 1_555 1_555
H3B C3B 1_555 1_555
C4B C3B 1_555 1_555
C5B N1B 1_555 1_555
H4B C5B 1_555 1_555
C6B H5B 1_555 1_555
C7B C6B 1_555 1_555
H6B C7B 1_555 1_555
C8B C7B 1_555 1_555
H7B C8B 1_555 1_555
C9B C8B 1_555 1_555
H8B C9B 1_555 1_555
C10B C9B 1_555 1_555
C11B C10B 1_555 1_555
C12B C11B 1_555 1_555
C13B C12B 1_555 1_555
H9B C13B 1_555 1_555
C14B C13B 1_555 1_555
H10B C14B 1_555 1_555
C15B C14B 1_555 1_555
H11B C15B 1_555 1_555
C16B C15B 1_555 1_555
H12B C16B 1_555 1_555
C17B C12B 1_555 1_555
C18B C4B 1_555 1_555
C19B C6B 1_555 1_555
C20B H13B 1_555 1_555
C21B C11B 1_555 1_555
C22B C21B 1_555 1_555
C23B C22B 1_555 1_555
H14B C23B 1_555 1_555
C24B C23B 1_555 1_555
C25B C20B 1_555 1_555
O1B C22B 1_555 1_555
C26B O1B 1_555 1_555
H15B C26B 1_555 1_555
H16B C26B 1_555 1_555
C27B C26B 1_555 1_555
H17B C27B 1_555 1_555
H18B C27B 1_555 1_555
O2B C27B 1_555 1_555
C28B O2B 1_555 1_555
H19B C28B 1_555 1_555
H20B C28B 1_555 1_555
H21B C28B 1_555 1_555
N1R Pd1 1_555 1_555
C1R N1R 1_555 1_555
H1R C1R 1_555 1_555
C2R C1R 1_555 1_555
H2R C2R 1_555 1_555
C3R C2R 1_555 1_555
H3R C3R 1_555 1_555
C4R C3R 1_555 1_555
C5R N1R 1_555 1_555
H4R C5R 1_555 1_555
C6R H5R 1_555 1_555
C7R C6R 1_555 1_555
H6R C7R 1_555 1_555
C8R C7R 1_555 1_555
H7R C8R 1_555 1_555
C9R C8R 1_555 1_555
H8R C9R 1_555 1_555
C10R C9R 1_555 1_555
C11R C10R 1_555 1_555
C12R C11R 1_555 1_555
C13R C12R 1_555 1_555
H9R C13R 1_555 1_555
C14R C13R 1_555 1_555
H10R C14R 1_555 1_555
C15R C14R 1_555 1_555
H11R C15R 1_555 1_555
C16R C15R 1_555 1_555
H12R C16R 1_555 1_555
C17R C12R 1_555 1_555
C18R C4R 1_555 1_555
C19R C6R 1_555 1_555
C20R C25B 1_555 1_555
H13R C20R 1_555 1_555
C21R C11R 1_555 1_555
C22R C21R 1_555 1_555
C23R C24B 1_555 1_555
H14R C23R 1_555 1_555
O1R C22R 1_555 1_555
C26R O1R 1_555 1_555
H15R C26R 1_555 1_555
H16R C26R 1_555 1_555
C27R C26R 1_555 1_555
H17R C27R 1_555 1_555
H18R C27R 1_555 1_555
O2R C27R 1_555 1_555
C28R O2R 1_555 1_555
H19R C28R 1_555 1_555
H20R C28R 1_555 1_555
H21R C28R 1_555 1_555
N1D Pd1B 1_555 1_555
C1D N1D 1_555 1_555
H1D C1D 1_555 1_555
C2D C1D 1_555 1_555
H2D C2D 1_555 1_555
C3D C2D 1_555 1_555
H3D C3D 1_555 1_555
C4D C3D 1_555 1_555
C5D N1D 1_555 1_555
H4D C5D 1_555 1_555
C6D H5D 1_555 1_555
C7D C6D 1_555 1_555
H6D C7D 1_555 1_555
C8D C7D 1_555 1_555
H7D C8D 1_555 1_555
C9D C8D 1_555 1_555
H8D C9D 1_555 1_555
C10D C9D 1_555 1_555
C11D C10D 1_555 1_555
C12D C11D 1_555 1_555
C13D C12D 1_555 1_555
H9D C13D 1_555 1_555
C14D C13D 1_555 1_555
H10D C14D 1_555 1_555
C15D C14D 1_555 1_555
H11D C15D 1_555 1_555
C16D C15D 1_555 1_555
H12D C16D 1_555 1_555
C17D C12D 1_555 1_555
C18D C4D 1_555 1_555
C19D C6D 1_555 1_555
C20D H13D 1_555 1_555
C21D C11D 1_555 1_555
C22D C21D 1_555 1_555
C23D C22D 1_555 1_555
H14D C23D 1_555 1_555
C24D C23D 1_555 1_555
C25D C20D 1_555 1_555
O1D C22D 1_555 1_555
C26D O1D 1_555 1_555
H15D C26D 1_555 1_555
H16D C26D 1_555 1_555
C27D C26D 1_555 1_555
H17D C27D 1_555 1_555
H18D C27D 1_555 1_555
O2D C27D 1_555 1_555
C28D O2D 1_555 1_555
H19D C28D 1_555 1_555
H20D C28D 1_555 1_555
H21D C28D 1_555 1_555
N1S Pd1 1_555 1_555
C1S N1S 1_555 1_555
H1S C1S 1_555 1_555
C2S C1S 1_555 1_555
H2S C2S 1_555 1_555
C3S C2S 1_555 1_555
H3S C3S 1_555 1_555
C4S C3S 1_555 1_555
C5S N1S 1_555 1_555
H4S C5S 1_555 1_555
C6S H5S 1_555 1_555
C7S C6S 1_555 1_555
H6S C7S 1_555 1_555
C8S C7S 1_555 1_555
H7S C8S 1_555 1_555
C9S C8S 1_555 1_555
H8S C9S 1_555 1_555
C10S C9S 1_555 1_555
C11S C10S 1_555 1_555
C12S C11S 1_555 1_555
C13S C12S 1_555 1_555
H9S C13S 1_555 1_555
C14S C13S 1_555 1_555
H10S C14S 1_555 1_555
C15S C14S 1_555 1_555
H11S C15S 1_555 1_555
C16S C15S 1_555 1_555
H12S C16S 1_555 1_555
C17S C12S 1_555 1_555
C18S C4S 1_555 1_555
C19S C6S 1_555 1_555
C20S C25D 1_555 1_555
H13S C20S 1_555 1_555
C21S C11S 1_555 1_555
C22S C21S 1_555 1_555
C23S C24D 1_555 1_555
H14S C23S 1_555 1_555
O1S C22S 1_555 1_555
C26S O1S 1_555 1_555
H15S C26S 1_555 1_555
H16S C26S 1_555 1_555
C27S C26S 1_555 1_555
H17S C27S 1_555 1_555
H18S C27S 1_555 1_555
O2S C27S 1_555 1_555
C28S O2S 1_555 1_555
H19S C28S 1_555 1_555
H20S C28S 1_555 1_555
H21S C28S 1_555 1_555
N1F Pd1 1_555 1_555
C1F N1F 1_555 1_555
H1F C1F 1_555 1_555
C2F C1F 1_555 1_555
H2F C2F 1_555 1_555
C3F C2F 1_555 1_555
H3F C3F 1_555 1_555
C4F C3F 1_555 1_555
C5F N1F 1_555 1_555
H4F C5F 1_555 1_555
C6F H5F 1_555 1_555
C7F C6F 1_555 1_555
H6F C7F 1_555 1_555
C8F C7F 1_555 1_555
H7F C8F 1_555 1_555
C9F C8F 1_555 1_555
H8F C9F 1_555 1_555
C10F C9F 1_555 1_555
C11F C10F 1_555 1_555
C12F C11F 1_555 1_555
C13F C12F 1_555 1_555
H9F C13F 1_555 1_555
C14F C13F 1_555 1_555
H10F C14F 1_555 1_555
C15F C14F 1_555 1_555
H11F C15F 1_555 1_555
C16F C15F 1_555 1_555
H12F C16F 1_555 1_555
C17F C12F 1_555 1_555
C18F C4F 1_555 1_555
C19F C6F 1_555 1_555
C20F H13F 1_555 1_555
C21F C11F 1_555 1_555
C22F C21F 1_555 1_555
C23F C22F 1_555 1_555
H14F C23F 1_555 1_555
C24F C23F 1_555 1_555
C25F C20F 1_555 1_555
O1F C22F 1_555 1_555
C26F O1F 1_555 1_555
H15F C26F 1_555 1_555
H16F C26F 1_555 1_555
C27F C26F 1_555 1_555
H17F C27F 1_555 1_555
H18F C27F 1_555 1_555
O2F C27F 1_555 1_555
C28F O2F 1_555 1_555
H19F C28F 1_555 1_555
H20F C28F 1_555 1_555
H21F C28F 1_555 1_555
N1Q Pd1B 1_555 1_555
C1Q N1Q 1_555 1_555
H1Q C1Q 1_555 1_555
C2Q C1Q 1_555 1_555
H2Q C2Q 1_555 1_555
C3Q C2Q 1_555 1_555
H3Q C3Q 1_555 1_555
C4Q C3Q 1_555 1_555
C5Q N1Q 1_555 1_555
H4Q C5Q 1_555 1_555
C6Q H5Q 1_555 1_555
C7Q C6Q 1_555 1_555
H6Q C7Q 1_555 1_555
C8Q C7Q 1_555 1_555
H7Q C8Q 1_555 1_555
C9Q C8Q 1_555 1_555
H8Q C9Q 1_555 1_555
C10Q C9Q 1_555 1_555
C11Q C10Q 1_555 1_555
C12Q C11Q 1_555 1_555
C13Q C12Q 1_555 1_555
H9Q C13Q 1_555 1_555
C14Q C13Q 1_555 1_555
H10Q C14Q 1_555 1_555
C15Q C14Q 1_555 1_555
H11Q C15Q 1_555 1_555
C16Q C15Q 1_555 1_555
H12Q C16Q 1_555 1_555
C17Q C12Q 1_555 1_555
C18Q C4Q 1_555 1_555
C19Q C6Q 1_555 1_555
C20Q C25F 1_555 1_555
H13Q C20Q 1_555 1_555
C21Q C11Q 1_555 1_555
C22Q C21Q 1_555 1_555
C23Q C24F 1_555 1_555
H14Q C23Q 1_555 1_555
O1Q C22Q 1_555 1_555
C26Q O1Q 1_555 1_555
H15Q C26Q 1_555 1_555
H16Q C26Q 1_555 1_555
C27Q C26Q 1_555 1_555
H17Q C27Q 1_555 1_555
H18Q C27Q 1_555 1_555
O2Q C27Q 1_555 1_555
C28Q O2Q 1_555 1_555
H19Q C28Q 1_555 1_555
H20Q C28Q 1_555 1_555
H21Q C28Q 1_555 1_555
C4 C5 1_555 1_555
C10 C19 1_555 1_555
C16 C17 1_555 1_555
C17 C18 1_555 1_555
C18 C19 1_555 1_555
C20 C21 1_555 1_555
C24 C25 1_555 1_555
C4T C5T 1_555 1_555
C10T C19T 1_555 1_555
C16T C17T 1_555 1_555
C17T C18T 1_555 1_555
C18T C19T 1_555 1_555
C20T C21T 1_555 1_555
C22T C23T 1_555 1_555
C4B C5B 1_555 1_555
C10B C19B 1_555 1_555
C16B C17B 1_555 1_555
C17B C18B 1_555 1_555
C18B C19B 1_555 1_555
C20B C21B 1_555 1_555
C24B C25B 1_555 1_555
C4R C5R 1_555 1_555
C10R C19R 1_555 1_555
C16R C17R 1_555 1_555
C17R C18R 1_555 1_555
C18R C19R 1_555 1_555
C20R C21R 1_555 1_555
C22R C23R 1_555 1_555
C4D C5D 1_555 1_555
C10D C19D 1_555 1_555
C16D C17D 1_555 1_555
C17D C18D 1_555 1_555
C18D C19D 1_555 1_555
C20D C21D 1_555 1_555
C24D C25D 1_555 1_555
C4S C5S 1_555 1_555
C10S C19S 1_555 1_555
C16S C17S 1_555 1_555
C17S C18S 1_555 1_555
C18S C19S 1_555 1_555
C20S C21S 1_555 1_555
C22S C23S 1_555 1_555
C4F C5F 1_555 1_555
C10F C19F 1_555 1_555
C16F C17F 1_555 1_555
C17F C18F 1_555 1_555
C18F C19F 1_555 1_555
C20F C21F 1_555 1_555
C24F C25F 1_555 1_555
C4Q C5Q 1_555 1_555
C10Q C19Q 1_555 1_555
C16Q C17Q 1_555 1_555
C17Q C18Q 1_555 1_555
C18Q C19Q 1_555 1_555
C20Q C21Q 1_555 1_555
C22Q C23Q 1_555 1_555

#END
