# generated using pymatgen
data_H252Pd3C324(N3O10)4
_symmetry_space_group_name_H-M   'P 1'
_cell_length_a   28.52410552
_cell_length_b   28.52410552
_cell_length_c   28.52410552
_cell_angle_alpha   109.47122063
_cell_angle_beta   109.47122063
_cell_angle_gamma   109.47122063
_symmetry_Int_Tables_number   1
_chemical_formula_structural   H252Pd3C324(N3O10)4
_chemical_formula_sum   'H504 Pd6 C648 N24 O80'
_cell_volume   17865.46038866
_cell_formula_units_Z   2
loop_
 _symmetry_equiv_pos_site_id
 _symmetry_equiv_pos_as_xyz
  1  'x, y, z'
loop_
 _atom_site_type_symbol
 _atom_site_label
 _atom_site_symmetry_multiplicity
 _atom_site_fract_x
 _atom_site_fract_y
 _atom_site_fract_z
 _atom_site_occupancy
  C  C1  1  0.311600  0.623200  0.311600  1.0
  C  C2  1  0.311600  0.311600  0.623200  1.0
  C  C3  1  0.688400  0.000000  0.311600  1.0
  C  C4  1  0.688400  0.311600  0.000000  1.0
  C  C5  1  0.311600  1.000000  0.688400  1.0
  C  C6  1  0.311600  0.688400  0.000000  1.0
  C  C7  1  0.688400  0.376800  0.688400  1.0
  C  C8  1  0.688400  0.688400  0.376800  1.0
  C  C9  1  0.623200  0.311600  0.311600  1.0
  C  C10  1  0.000000  0.688400  0.311600  1.0
  C  C11  1  0.376800  0.688400  0.688400  1.0
  C  C12  1  0.000000  0.311600  0.688400  1.0
  C  C13  1  0.341900  0.683800  0.341900  1.0
  C  C14  1  0.341900  0.341900  0.683800  1.0
  C  C15  1  0.658100  0.000000  0.341900  1.0
  C  C16  1  0.658100  0.341900  0.000000  1.0
  C  C17  1  0.341900  0.000000  0.658100  1.0
  C  C18  1  0.341900  0.658100  0.000000  1.0
  C  C19  1  0.658100  0.316200  0.658100  1.0
  C  C20  1  0.658100  0.658100  0.316200  1.0
  C  C21  1  0.683800  0.341900  0.341900  1.0
  C  C22  1  0.000000  0.658100  0.341900  1.0
  C  C23  1  0.316200  0.658100  0.658100  1.0
  C  C24  1  1.000000  0.341900  0.658100  1.0
  C  C25  1  0.708900  0.897800  0.755900  1.0
  C  C26  1  0.141900  0.188900  0.897800  1.0
  C  C27  1  0.291100  0.047000  0.188900  1.0
  C  C28  1  0.858100  0.755900  0.047000  1.0
  C  C29  1  0.141900  0.953000  0.244100  1.0
  C  C30  1  0.708900  0.811100  0.953000  1.0
  C  C31  1  0.858100  0.102200  0.811100  1.0
  C  C32  1  0.291100  0.244100  0.102200  1.0
  C  C33  1  0.897800  0.755900  0.708900  1.0
  C  C34  1  0.047000  0.858100  0.755900  1.0
  C  C35  1  0.102200  0.811100  0.858100  1.0
  C  C36  1  0.953000  0.708900  0.811100  1.0
  C  C37  1  0.047000  0.188900  0.291100  1.0
  C  C38  1  0.897800  0.141900  0.188900  1.0
  C  C39  1  0.953000  0.244100  0.141900  1.0
  C  C40  1  0.102200  0.291100  0.244100  1.0
  C  C41  1  0.755900  0.708900  0.897800  1.0
  C  C42  1  0.244100  0.102200  0.291100  1.0
  C  C43  1  0.811100  0.953000  0.708900  1.0
  C  C44  1  0.755900  0.047000  0.858100  1.0
  C  C45  1  0.188900  0.897800  0.141900  1.0
  C  C46  1  0.811100  0.858100  0.102200  1.0
  C  C47  1  0.244100  0.141900  0.953000  1.0
  C  C48  1  0.188900  0.291100  0.047000  1.0
  C  C49  1  0.674700  0.840600  0.736300  1.0
  C  C50  1  0.104300  0.165900  0.840600  1.0
  C  C51  1  0.325300  0.061600  0.165900  1.0
  C  C52  1  0.895700  0.736300  0.061600  1.0
  C  C53  1  0.104300  0.938400  0.263700  1.0
  C  C54  1  0.674700  0.834100  0.938400  1.0
  C  C55  1  0.895700  0.159400  0.834100  1.0
  C  C56  1  0.325300  0.263700  0.159400  1.0
  C  C57  1  0.840600  0.736300  0.674700  1.0
  C  C58  1  0.061600  0.895700  0.736300  1.0
  C  C59  1  0.159400  0.834100  0.895700  1.0
  C  C60  1  0.938400  0.674700  0.834100  1.0
  C  C61  1  0.061600  0.165900  0.325300  1.0
  C  C62  1  0.840600  0.104300  0.165900  1.0
  C  C63  1  0.938400  0.263700  0.104300  1.0
  C  C64  1  0.159400  0.325300  0.263700  1.0
  C  C65  1  0.736300  0.674700  0.840600  1.0
  C  C66  1  0.263700  0.159400  0.325300  1.0
  C  C67  1  0.834100  0.938400  0.674700  1.0
  C  C68  1  0.736300  0.061600  0.895700  1.0
  C  C69  1  0.165900  0.840600  0.104300  1.0
  C  C70  1  0.834100  0.895700  0.159400  1.0
  C  C71  1  0.263700  0.104300  0.938400  1.0
  C  C72  1  0.165900  0.325300  0.061600  1.0
  C  C73  1  0.623000  0.809400  0.686000  1.0
  C  C74  1  0.123400  0.186400  0.809400  1.0
  C  C75  1  0.377000  0.063000  0.186400  1.0
  C  C76  1  0.876600  0.686000  0.063000  1.0
  C  C77  1  0.123400  0.937000  0.314000  1.0
  C  C78  1  0.623000  0.813600  0.937000  1.0
  C  C79  1  0.876600  0.190600  0.813600  1.0
  C  C80  1  0.377000  0.314000  0.190600  1.0
  C  C81  1  0.809400  0.686000  0.623000  1.0
  C  C82  1  0.063000  0.876600  0.686000  1.0
  C  C83  1  0.190600  0.813600  0.876600  1.0
  C  C84  1  0.937000  0.623000  0.813600  1.0
  C  C85  1  0.063000  0.186400  0.377000  1.0
  C  C86  1  0.809400  0.123400  0.186400  1.0
  C  C87  1  0.937000  0.314000  0.123400  1.0
  C  C88  1  0.190600  0.377000  0.314000  1.0
  C  C89  1  0.686000  0.623000  0.809400  1.0
  C  C90  1  0.314000  0.190600  0.377000  1.0
  C  C91  1  0.813600  0.937000  0.623000  1.0
  C  C92  1  0.686000  0.063000  0.876600  1.0
  C  C93  1  0.186400  0.809400  0.123400  1.0
  C  C94  1  0.813600  0.876600  0.190600  1.0
  C  C95  1  0.314000  0.123400  0.937000  1.0
  C  C96  1  0.186400  0.377000  0.063000  1.0
  C  C97  1  0.609600  0.827000  0.650200  1.0
  C  C98  1  0.176800  0.217400  0.827000  1.0
  C  C99  1  0.390400  0.040600  0.217400  1.0
  C  C100  1  0.823200  0.650200  0.040600  1.0
  C  C101  1  0.176800  0.959400  0.349800  1.0
  C  C102  1  0.609600  0.782600  0.959400  1.0
  C  C103  1  0.823200  0.173000  0.782600  1.0
  C  C104  1  0.390400  0.349800  0.173000  1.0
  C  C105  1  0.827000  0.650200  0.609600  1.0
  C  C106  1  0.040600  0.823200  0.650200  1.0
  C  C107  1  0.173000  0.782600  0.823200  1.0
  C  C108  1  0.959400  0.609600  0.782600  1.0
  C  C109  1  0.040600  0.217400  0.390400  1.0
  C  C110  1  0.827000  0.176800  0.217400  1.0
  C  C111  1  0.959400  0.349800  0.176800  1.0
  C  C112  1  0.173000  0.390400  0.349800  1.0
  C  C113  1  0.650200  0.609600  0.827000  1.0
  C  C114  1  0.349800  0.173000  0.390400  1.0
  C  C115  1  0.782600  0.959400  0.609600  1.0
  C  C116  1  0.650200  0.040600  0.823200  1.0
  C  C117  1  0.217400  0.827000  0.176800  1.0
  C  C118  1  0.782600  0.823200  0.173000  1.0
  C  C119  1  0.349800  0.176800  0.959400  1.0
  C  C120  1  0.217400  0.390400  0.040600  1.0
  C  C121  1  0.643100  0.882800  0.667500  1.0
  C  C122  1  0.215300  0.239700  0.882800  1.0
  C  C123  1  0.356900  0.024400  0.239700  1.0
  C  C124  1  0.784700  0.667500  0.024400  1.0
  C  C125  1  0.215300  0.975600  0.332500  1.0
  C  C126  1  0.643100  0.760300  0.975600  1.0
  C  C127  1  0.784700  0.117200  0.760300  1.0
  C  C128  1  0.356900  0.332500  0.117200  1.0
  C  C129  1  0.882800  0.667500  0.643100  1.0
  C  C130  1  0.024400  0.784700  0.667500  1.0
  C  C131  1  0.117200  0.760300  0.784700  1.0
  C  C132  1  0.975600  0.643100  0.760300  1.0
  C  C133  1  0.024400  0.239700  0.356900  1.0
  C  C134  1  0.882800  0.215300  0.239700  1.0
  C  C135  1  0.975600  0.332500  0.215300  1.0
  C  C136  1  0.117200  0.356900  0.332500  1.0
  C  C137  1  0.667500  0.643100  0.882800  1.0
  C  C138  1  0.332500  0.117200  0.356900  1.0
  C  C139  1  0.760300  0.975600  0.643100  1.0
  C  C140  1  0.667500  0.024400  0.784700  1.0
  C  C141  1  0.239700  0.882800  0.215300  1.0
  C  C142  1  0.760300  0.784700  0.117200  1.0
  C  C143  1  0.332500  0.215300  0.975600  1.0
  C  C144  1  0.239700  0.356900  0.024400  1.0
  C  C145  1  0.490000  0.801200  0.634200  1.0
  C  C146  1  0.167000  0.311200  0.801200  1.0
  C  C147  1  0.510000  0.144200  0.311200  1.0
  C  C148  1  0.833000  0.634200  0.144200  1.0
  C  C149  1  0.167000  0.855800  0.365800  1.0
  C  C150  1  0.490000  0.688800  0.855800  1.0
  C  C151  1  0.833000  0.198800  0.688800  1.0
  C  C152  1  0.510000  0.365800  0.198800  1.0
  C  C153  1  0.801200  0.634200  0.490000  1.0
  C  C154  1  0.144200  0.833000  0.634200  1.0
  C  C155  1  0.198800  0.688800  0.833000  1.0
  C  C156  1  0.855800  0.490000  0.688800  1.0
  C  C157  1  0.144200  0.311200  0.510000  1.0
  C  C158  1  0.801200  0.167000  0.311200  1.0
  C  C159  1  0.855800  0.365800  0.167000  1.0
  C  C160  1  0.198800  0.510000  0.365800  1.0
  C  C161  1  0.634200  0.490000  0.801200  1.0
  C  C162  1  0.365800  0.198800  0.510000  1.0
  C  C163  1  0.688800  0.855800  0.490000  1.0
  C  C164  1  0.634200  0.144200  0.833000  1.0
  C  C165  1  0.311200  0.801200  0.167000  1.0
  C  C166  1  0.688800  0.833000  0.198800  1.0
  C  C167  1  0.365800  0.167000  0.855800  1.0
  C  C168  1  0.311200  0.510000  0.144200  1.0
  C  C169  1  0.439600  0.794500  0.626500  1.0
  C  C170  1  0.168000  0.354900  0.794500  1.0
  C  C171  1  0.560400  0.186900  0.354900  1.0
  C  C172  1  0.832000  0.626500  0.186900  1.0
  C  C173  1  0.168000  0.813100  0.373500  1.0
  C  C174  1  0.439600  0.645100  0.813100  1.0
  C  C175  1  0.832000  0.205500  0.645100  1.0
  C  C176  1  0.560400  0.373500  0.205500  1.0
  C  C177  1  0.794500  0.626500  0.439600  1.0
  C  C178  1  0.186900  0.832000  0.626500  1.0
  C  C179  1  0.205500  0.645100  0.832000  1.0
  C  C180  1  0.813100  0.439600  0.645100  1.0
  C  C181  1  0.186900  0.354900  0.560400  1.0
  C  C182  1  0.794500  0.168000  0.354900  1.0
  C  C183  1  0.813100  0.373500  0.168000  1.0
  C  C184  1  0.205500  0.560400  0.373500  1.0
  C  C185  1  0.626500  0.439600  0.794500  1.0
  C  C186  1  0.373500  0.205500  0.560400  1.0
  C  C187  1  0.645100  0.813100  0.439600  1.0
  C  C188  1  0.626500  0.186900  0.832000  1.0
  C  C189  1  0.354900  0.794500  0.168000  1.0
  C  C190  1  0.645100  0.832000  0.205500  1.0
  C  C191  1  0.373500  0.168000  0.813100  1.0
  C  C192  1  0.354900  0.560400  0.186900  1.0
  C  C193  1  0.386700  0.754500  0.575200  1.0
  C  C194  1  0.179300  0.367800  0.754500  1.0
  C  C195  1  0.613300  0.188500  0.367800  1.0
  C  C196  1  0.820700  0.575200  0.188500  1.0
  C  C197  1  0.179300  0.811500  0.424800  1.0
  C  C198  1  0.386700  0.632200  0.811500  1.0
  C  C199  1  0.820700  0.245500  0.632200  1.0
  C  C200  1  0.613300  0.424800  0.245500  1.0
  C  C201  1  0.754500  0.575200  0.386700  1.0
  C  C202  1  0.188500  0.820700  0.575200  1.0
  C  C203  1  0.245500  0.632200  0.820700  1.0
  C  C204  1  0.811500  0.386700  0.632200  1.0
  C  C205  1  0.188500  0.367800  0.613300  1.0
  C  C206  1  0.754500  0.179300  0.367800  1.0
  C  C207  1  0.811500  0.424800  0.179300  1.0
  C  C208  1  0.245500  0.613300  0.424800  1.0
  C  C209  1  0.575200  0.386700  0.754500  1.0
  C  C210  1  0.424800  0.245500  0.613300  1.0
  C  C211  1  0.632200  0.811500  0.386700  1.0
  C  C212  1  0.575200  0.188500  0.820700  1.0
  C  C213  1  0.367800  0.754500  0.179300  1.0
  C  C214  1  0.632200  0.820700  0.245500  1.0
  C  C215  1  0.424800  0.179300  0.811500  1.0
  C  C216  1  0.367800  0.613300  0.188500  1.0
  C  C217  1  0.398000  0.732100  0.531300  1.0
  C  C218  1  0.200800  0.334100  0.732100  1.0
  C  C219  1  0.602000  0.133300  0.334100  1.0
  C  C220  1  0.799200  0.531300  0.133300  1.0
  C  C221  1  0.200800  0.866700  0.468700  1.0
  C  C222  1  0.398000  0.665900  0.866700  1.0
  C  C223  1  0.799200  0.267900  0.665900  1.0
  C  C224  1  0.602000  0.468700  0.267900  1.0
  C  C225  1  0.732100  0.531300  0.398000  1.0
  C  C226  1  0.133300  0.799200  0.531300  1.0
  C  C227  1  0.267900  0.665900  0.799200  1.0
  C  C228  1  0.866700  0.398000  0.665900  1.0
  C  C229  1  0.133300  0.334100  0.602000  1.0
  C  C230  1  0.732100  0.200800  0.334100  1.0
  C  C231  1  0.866700  0.468700  0.200800  1.0
  C  C232  1  0.267900  0.602000  0.468700  1.0
  C  C233  1  0.531300  0.398000  0.732100  1.0
  C  C234  1  0.468700  0.267900  0.602000  1.0
  C  C235  1  0.665900  0.866700  0.398000  1.0
  C  C236  1  0.531300  0.133300  0.799200  1.0
  C  C237  1  0.334100  0.732100  0.200800  1.0
  C  C238  1  0.665900  0.799200  0.267900  1.0
  C  C239  1  0.468700  0.200800  0.866700  1.0
  C  C240  1  0.334100  0.602000  0.133300  1.0
  C  C241  1  0.449700  0.740900  0.530000  1.0
  C  C242  1  0.210900  0.291200  0.740900  1.0
  C  C243  1  0.550300  0.080300  0.291200  1.0
  C  C244  1  0.789100  0.530000  0.080300  1.0
  C  C245  1  0.210900  0.919700  0.470000  1.0
  C  C246  1  0.449700  0.708800  0.919700  1.0
  C  C247  1  0.789100  0.259100  0.708800  1.0
  C  C248  1  0.550300  0.470000  0.259100  1.0
  C  C249  1  0.740900  0.530000  0.449700  1.0
  C  C250  1  0.080300  0.789100  0.530000  1.0
  C  C251  1  0.259100  0.708800  0.789100  1.0
  C  C252  1  0.919700  0.449700  0.708800  1.0
  C  C253  1  0.080300  0.291200  0.550300  1.0
  C  C254  1  0.740900  0.210900  0.291200  1.0
  C  C255  1  0.919700  0.470000  0.210900  1.0
  C  C256  1  0.259100  0.550300  0.470000  1.0
  C  C257  1  0.530000  0.449700  0.740900  1.0
  C  C258  1  0.470000  0.259100  0.550300  1.0
  C  C259  1  0.708800  0.919700  0.449700  1.0
  C  C260  1  0.530000  0.080300  0.789100  1.0
  C  C261  1  0.291200  0.740900  0.210900  1.0
  C  C262  1  0.708800  0.789100  0.259100  1.0
  C  C263  1  0.470000  0.210900  0.919700  1.0
  C  C264  1  0.291200  0.550300  0.080300  1.0
  C  C265  1  0.460300  0.717900  0.485400  1.0
  C  C266  1  0.232500  0.257600  0.717900  1.0
  C  C267  1  0.539700  0.025100  0.257600  1.0
  C  C268  1  0.767500  0.485400  0.025100  1.0
  C  C269  1  0.232500  0.974900  0.514600  1.0
  C  C270  1  0.460300  0.742400  0.974900  1.0
  C  C271  1  0.767500  0.282100  0.742400  1.0
  C  C272  1  0.539700  0.514600  0.282100  1.0
  C  C273  1  0.717900  0.485400  0.460300  1.0
  C  C274  1  0.025100  0.767500  0.485400  1.0
  C  C275  1  0.282100  0.742400  0.767500  1.0
  C  C276  1  0.974900  0.460300  0.742400  1.0
  C  C277  1  0.025100  0.257600  0.539700  1.0
  C  C278  1  0.717900  0.232500  0.257600  1.0
  C  C279  1  0.974900  0.514600  0.232500  1.0
  C  C280  1  0.282100  0.539700  0.514600  1.0
  C  C281  1  0.485400  0.460300  0.717900  1.0
  C  C282  1  0.514600  0.282100  0.539700  1.0
  C  C283  1  0.742400  0.974900  0.460300  1.0
  C  C284  1  0.485400  0.025100  0.767500  1.0
  C  C285  1  0.257600  0.717900  0.232500  1.0
  C  C286  1  0.742400  0.767500  0.282100  1.0
  C  C287  1  0.514600  0.232500  0.974900  1.0
  C  C288  1  0.257600  0.539700  0.025100  1.0
  C  C289  1  0.510400  0.723100  0.490300  1.0
  C  C290  1  0.232800  0.212700  0.723100  1.0
  C  C291  1  0.489600  0.979900  0.212700  1.0
  C  C292  1  0.767200  0.490300  0.979900  1.0
  C  C293  1  0.232800  0.020100  0.509700  1.0
  C  C294  1  0.510400  0.787300  0.020100  1.0
  C  C295  1  0.767200  0.276900  0.787300  1.0
  C  C296  1  0.489600  0.509700  0.276900  1.0
  C  C297  1  0.723100  0.490300  0.510400  1.0
  C  C298  1  0.979900  0.767200  0.490300  1.0
  C  C299  1  0.276900  0.787300  0.767200  1.0
  C  C300  1  0.020100  0.510400  0.787300  1.0
  C  C301  1  0.979900  0.212700  0.489600  1.0
  C  C302  1  0.723100  0.232800  0.212700  1.0
  C  C303  1  0.020100  0.509700  0.232800  1.0
  C  C304  1  0.276900  0.489600  0.509700  1.0
  C  C305  1  0.490300  0.510400  0.723100  1.0
  C  C306  1  0.509700  0.276900  0.489600  1.0
  C  C307  1  0.787300  0.020100  0.510400  1.0
  C  C308  1  0.490300  0.979900  0.767200  1.0
  C  C309  1  0.212700  0.723100  0.232800  1.0
  C  C310  1  0.787300  0.767200  0.276900  1.0
  C  C311  1  0.509700  0.232800  0.020100  1.0
  C  C312  1  0.212700  0.489600  0.979900  1.0
  C  C313  1  0.514500  0.695800  0.441100  1.0
  C  C314  1  0.254700  0.181300  0.695800  1.0
  C  C315  1  0.485500  0.926600  0.181300  1.0
  C  C316  1  0.745300  0.441100  0.926600  1.0
  C  C317  1  0.254700  0.073400  0.558900  1.0
  C  C318  1  0.514500  0.818700  0.073400  1.0
  C  C319  1  0.745300  0.304200  0.818700  1.0
  C  C320  1  0.485500  0.558900  0.304200  1.0
  C  C321  1  0.695800  0.441100  0.514500  1.0
  C  C322  1  0.926600  0.745300  0.441100  1.0
  C  C323  1  0.304200  0.818700  0.745300  1.0
  C  C324  1  0.073400  0.514500  0.818700  1.0
  C  C325  1  0.926600  0.181300  0.485500  1.0
  C  C326  1  0.695800  0.254700  0.181300  1.0
  C  C327  1  0.073400  0.558900  0.254700  1.0
  C  C328  1  0.304200  0.485500  0.558900  1.0
  C  C329  1  0.441100  0.514500  0.695800  1.0
  C  C330  1  0.558900  0.304200  0.485500  1.0
  C  C331  1  0.818700  0.073400  0.514500  1.0
  C  C332  1  0.441100  0.926600  0.745300  1.0
  C  C333  1  0.181300  0.695800  0.254700  1.0
  C  C334  1  0.818700  0.745300  0.304200  1.0
  C  C335  1  0.558900  0.254700  0.073400  1.0
  C  C336  1  0.181300  0.485500  0.926600  1.0
  C  C337  1  0.565900  0.699600  0.447500  1.0
  C  C338  1  0.252100  0.133700  0.699600  1.0
  C  C339  1  0.434100  0.881600  0.133700  1.0
  C  C340  1  0.747900  0.447500  0.881600  1.0
  C  C341  1  0.252100  0.118400  0.552500  1.0
  C  C342  1  0.565900  0.866300  0.118400  1.0
  C  C343  1  0.747900  0.300400  0.866300  1.0
  C  C344  1  0.434100  0.552500  0.300400  1.0
  C  C345  1  0.699600  0.447500  0.565900  1.0
  C  C346  1  0.881600  0.747900  0.447500  1.0
  C  C347  1  0.300400  0.866300  0.747900  1.0
  C  C348  1  0.118400  0.565900  0.866300  1.0
  C  C349  1  0.881600  0.133700  0.434100  1.0
  C  C350  1  0.699600  0.252100  0.133700  1.0
  C  C351  1  0.118400  0.552500  0.252100  1.0
  C  C352  1  0.300400  0.434100  0.552500  1.0
  C  C353  1  0.447500  0.565900  0.699600  1.0
  C  C354  1  0.552500  0.300400  0.434100  1.0
  C  C355  1  0.866300  0.118400  0.565900  1.0
  C  C356  1  0.447500  0.881600  0.747900  1.0
  C  C357  1  0.133700  0.699600  0.252100  1.0
  C  C358  1  0.866300  0.747900  0.300400  1.0
  C  C359  1  0.552500  0.252100  0.118400  1.0
  C  C360  1  0.133700  0.434100  0.881600  1.0
  C  C361  1  0.619600  0.743600  0.510600  1.0
  C  C362  1  0.233000  0.124000  0.743600  1.0
  C  C363  1  0.380400  0.891000  0.124000  1.0
  C  C364  1  0.767000  0.510600  0.891000  1.0
  C  C365  1  0.233000  0.109000  0.489400  1.0
  C  C366  1  0.619600  0.876000  0.109000  1.0
  C  C367  1  0.767000  0.256400  0.876000  1.0
  C  C368  1  0.380400  0.489400  0.256400  1.0
  C  C369  1  0.743600  0.510600  0.619600  1.0
  C  C370  1  0.891000  0.767000  0.510600  1.0
  C  C371  1  0.256400  0.876000  0.767000  1.0
  C  C372  1  0.109000  0.619600  0.876000  1.0
  C  C373  1  0.891000  0.124000  0.380400  1.0
  C  C374  1  0.743600  0.233000  0.124000  1.0
  C  C375  1  0.109000  0.489400  0.233000  1.0
  C  C376  1  0.256400  0.380400  0.489400  1.0
  C  C377  1  0.510600  0.619600  0.743600  1.0
  C  C378  1  0.489400  0.256400  0.380400  1.0
  C  C379  1  0.876000  0.109000  0.619600  1.0
  C  C380  1  0.510600  0.891000  0.767000  1.0
  C  C381  1  0.124000  0.743600  0.233000  1.0
  C  C382  1  0.876000  0.767000  0.256400  1.0
  C  C383  1  0.489400  0.233000  0.109000  1.0
  C  C384  1  0.124000  0.380400  0.891000  1.0
  C  C385  1  0.612100  0.761300  0.549000  1.0
  C  C386  1  0.212300  0.149200  0.761300  1.0
  C  C387  1  0.387900  0.936900  0.149200  1.0
  C  C388  1  0.787700  0.549000  0.936900  1.0
  C  C389  1  0.212300  0.063100  0.451000  1.0
  C  C390  1  0.612100  0.850800  0.063100  1.0
  C  C391  1  0.787700  0.238700  0.850800  1.0
  C  C392  1  0.387900  0.451000  0.238700  1.0
  C  C393  1  0.761300  0.549000  0.612100  1.0
  C  C394  1  0.936900  0.787700  0.549000  1.0
  C  C395  1  0.238700  0.850800  0.787700  1.0
  C  C396  1  0.063100  0.612100  0.850800  1.0
  C  C397  1  0.936900  0.149200  0.387900  1.0
  C  C398  1  0.761300  0.212300  0.149200  1.0
  C  C399  1  0.063100  0.451000  0.212300  1.0
  C  C400  1  0.238700  0.387900  0.451000  1.0
  C  C401  1  0.549000  0.612100  0.761300  1.0
  C  C402  1  0.451000  0.238700  0.387900  1.0
  C  C403  1  0.850800  0.063100  0.612100  1.0
  C  C404  1  0.549000  0.936900  0.787700  1.0
  C  C405  1  0.149200  0.761300  0.212300  1.0
  C  C406  1  0.850800  0.787700  0.238700  1.0
  C  C407  1  0.451000  0.212300  0.063100  1.0
  C  C408  1  0.149200  0.387900  0.936900  1.0
  C  C409  1  0.562500  0.761400  0.547100  1.0
  C  C410  1  0.214300  0.198900  0.761400  1.0
  C  C411  1  0.437500  0.984600  0.198900  1.0
  C  C412  1  0.785700  0.547100  0.984600  1.0
  C  C413  1  0.214300  0.015400  0.452900  1.0
  C  C414  1  0.562500  0.801100  0.015400  1.0
  C  C415  1  0.785700  0.238600  0.801100  1.0
  C  C416  1  0.437500  0.452900  0.238600  1.0
  C  C417  1  0.761400  0.547100  0.562500  1.0
  C  C418  1  0.984600  0.785700  0.547100  1.0
  C  C419  1  0.238600  0.801100  0.785700  1.0
  C  C420  1  0.015400  0.562500  0.801100  1.0
  C  C421  1  0.984600  0.198900  0.437500  1.0
  C  C422  1  0.761400  0.214300  0.198900  1.0
  C  C423  1  0.015400  0.452900  0.214300  1.0
  C  C424  1  0.238600  0.437500  0.452900  1.0
  C  C425  1  0.547100  0.562500  0.761400  1.0
  C  C426  1  0.452900  0.238600  0.437500  1.0
  C  C427  1  0.801100  0.015400  0.562500  1.0
  C  C428  1  0.547100  0.984600  0.785700  1.0
  C  C429  1  0.198900  0.761400  0.214300  1.0
  C  C430  1  0.801100  0.785700  0.238600  1.0
  C  C431  1  0.452900  0.214300  0.015400  1.0
  C  C432  1  0.198900  0.437500  0.984600  1.0
  C  C433  1  0.555500  0.786900  0.591400  1.0
  C  C434  1  0.195500  0.231400  0.786900  1.0
  C  C435  1  0.444500  0.035900  0.231400  1.0
  C  C436  1  0.804500  0.591400  0.035900  1.0
  C  C437  1  0.195500  0.964100  0.408600  1.0
  C  C438  1  0.555500  0.768600  0.964100  1.0
  C  C439  1  0.804500  0.213100  0.768600  1.0
  C  C440  1  0.444500  0.408600  0.213100  1.0
  C  C441  1  0.786900  0.591400  0.555500  1.0
  C  C442  1  0.035900  0.804500  0.591400  1.0
  C  C443  1  0.213100  0.768600  0.804500  1.0
  C  C444  1  0.964100  0.555500  0.768600  1.0
  C  C445  1  0.035900  0.231400  0.444500  1.0
  C  C446  1  0.786900  0.195500  0.231400  1.0
  C  C447  1  0.964100  0.408600  0.195500  1.0
  C  C448  1  0.213100  0.444500  0.408600  1.0
  C  C449  1  0.591400  0.555500  0.786900  1.0
  C  C450  1  0.408600  0.213100  0.444500  1.0
  C  C451  1  0.768600  0.964100  0.555500  1.0
  C  C452  1  0.591400  0.035900  0.804500  1.0
  C  C453  1  0.231400  0.786900  0.195500  1.0
  C  C454  1  0.768600  0.804500  0.213100  1.0
  C  C455  1  0.408600  0.195500  0.964100  1.0
  C  C456  1  0.231400  0.444500  0.035900  1.0
  C  C457  1  0.501300  0.780400  0.589700  1.0
  C  C458  1  0.190700  0.279100  0.780400  1.0
  C  C459  1  0.498700  0.088400  0.279100  1.0
  C  C460  1  0.809300  0.589700  0.088400  1.0
  C  C461  1  0.190700  0.911600  0.410300  1.0
  C  C462  1  0.501300  0.720900  0.911600  1.0
  C  C463  1  0.809300  0.219600  0.720900  1.0
  C  C464  1  0.498700  0.410300  0.219600  1.0
  C  C465  1  0.780400  0.589700  0.501300  1.0
  C  C466  1  0.088400  0.809300  0.589700  1.0
  C  C467  1  0.219600  0.720900  0.809300  1.0
  C  C468  1  0.911600  0.501300  0.720900  1.0
  C  C469  1  0.088400  0.279100  0.498700  1.0
  C  C470  1  0.780400  0.190700  0.279100  1.0
  C  C471  1  0.911600  0.410300  0.190700  1.0
  C  C472  1  0.219600  0.498700  0.410300  1.0
  C  C473  1  0.589700  0.501300  0.780400  1.0
  C  C474  1  0.410300  0.219600  0.498700  1.0
  C  C475  1  0.720900  0.911600  0.501300  1.0
  C  C476  1  0.589700  0.088400  0.809300  1.0
  C  C477  1  0.279100  0.780400  0.190700  1.0
  C  C478  1  0.720900  0.809300  0.219600  1.0
  C  C479  1  0.410300  0.190700  0.911600  1.0
  C  C480  1  0.279100  0.498700  0.088400  1.0
  C  C481  1  0.390200  0.712900  0.395500  1.0
  C  C482  1  0.317400  0.322700  0.712900  1.0
  C  C483  1  0.609800  0.005300  0.322700  1.0
  C  C484  1  0.682600  0.395500  0.005300  1.0
  C  C485  1  0.317400  0.994700  0.604500  1.0
  C  C486  1  0.390200  0.677300  0.994700  1.0
  C  C487  1  0.682600  0.287100  0.677300  1.0
  C  C488  1  0.609800  0.604500  0.287100  1.0
  C  C489  1  0.712900  0.395500  0.390200  1.0
  C  C490  1  0.005300  0.682600  0.395500  1.0
  C  C491  1  0.287100  0.677300  0.682600  1.0
  C  C492  1  0.994700  0.390200  0.677300  1.0
  C  C493  1  0.005300  0.322700  0.609800  1.0
  C  C494  1  0.712900  0.317400  0.322700  1.0
  C  C495  1  0.994700  0.604500  0.317400  1.0
  C  C496  1  0.287100  0.609800  0.604500  1.0
  C  C497  1  0.395500  0.390200  0.712900  1.0
  C  C498  1  0.604500  0.287100  0.609800  1.0
  C  C499  1  0.677300  0.994700  0.390200  1.0
  C  C500  1  0.395500  0.005300  0.682600  1.0
  C  C501  1  0.322700  0.712900  0.317400  1.0
  C  C502  1  0.677300  0.682600  0.287100  1.0
  C  C503  1  0.604500  0.317400  0.994700  1.0
  C  C504  1  0.322700  0.609800  0.005300  1.0
  C  C505  1  0.407200  0.683100  0.422900  1.0
  C  C506  1  0.260200  0.275900  0.683100  1.0
  C  C507  1  0.592800  0.015700  0.275900  1.0
  C  C508  1  0.739800  0.422900  0.015700  1.0
  C  C509  1  0.260200  0.984300  0.577100  1.0
  C  C510  1  0.407200  0.724100  0.984300  1.0
  C  C511  1  0.739800  0.316900  0.724100  1.0
  C  C512  1  0.592800  0.577100  0.316900  1.0
  C  C513  1  0.683100  0.422900  0.407200  1.0
  C  C514  1  0.015700  0.739800  0.422900  1.0
  C  C515  1  0.316900  0.724100  0.739800  1.0
  C  C516  1  0.984300  0.407200  0.724100  1.0
  C  C517  1  0.015700  0.275900  0.592800  1.0
  C  C518  1  0.683100  0.260200  0.275900  1.0
  C  C519  1  0.984300  0.577100  0.260200  1.0
  C  C520  1  0.316900  0.592800  0.577100  1.0
  C  C521  1  0.422900  0.407200  0.683100  1.0
  C  C522  1  0.577100  0.316900  0.592800  1.0
  C  C523  1  0.724100  0.984300  0.407200  1.0
  C  C524  1  0.422900  0.015700  0.739800  1.0
  C  C525  1  0.275900  0.683100  0.260200  1.0
  C  C526  1  0.724100  0.739800  0.316900  1.0
  C  C527  1  0.577100  0.260200  0.984300  1.0
  C  C528  1  0.275900  0.592800  0.015700  1.0
  C  C529  1  0.372300  0.621300  0.391400  1.0
  C  C530  1  0.229900  0.249000  0.621300  1.0
  C  C531  1  0.627700  0.019100  0.249000  1.0
  C  C532  1  0.770100  0.391400  0.019100  1.0
  C  C533  1  0.229900  0.980900  0.608600  1.0
  C  C534  1  0.372300  0.751000  0.980900  1.0
  C  C535  1  0.770100  0.378700  0.751000  1.0
  C  C536  1  0.627700  0.608600  0.378700  1.0
  C  C537  1  0.621300  0.391400  0.372300  1.0
  C  C538  1  0.019100  0.770100  0.391400  1.0
  C  C539  1  0.378700  0.751000  0.770100  1.0
  C  C540  1  0.980900  0.372300  0.751000  1.0
  C  C541  1  0.019100  0.249000  0.627700  1.0
  C  C542  1  0.621300  0.229900  0.249000  1.0
  C  C543  1  0.980900  0.608600  0.229900  1.0
  C  C544  1  0.378700  0.627700  0.608600  1.0
  C  C545  1  0.391400  0.372300  0.621300  1.0
  C  C546  1  0.608600  0.378700  0.627700  1.0
  C  C547  1  0.751000  0.980900  0.372300  1.0
  C  C548  1  0.391400  0.019100  0.770100  1.0
  C  C549  1  0.249000  0.621300  0.229900  1.0
  C  C550  1  0.751000  0.770100  0.378700  1.0
  C  C551  1  0.608600  0.229900  0.980900  1.0
  C  C552  1  0.249000  0.627700  0.019100  1.0
  C  C553  1  0.325500  0.593300  0.342200  1.0
  C  C554  1  0.251100  0.267800  0.593300  1.0
  C  C555  1  0.674500  0.016700  0.267800  1.0
  C  C556  1  0.748900  0.342200  0.016700  1.0
  C  C557  1  0.251100  0.983300  0.657800  1.0
  C  C558  1  0.325500  0.732200  0.983300  1.0
  C  C559  1  0.748900  0.406700  0.732200  1.0
  C  C560  1  0.674500  0.657800  0.406700  1.0
  C  C561  1  0.593300  0.342200  0.325500  1.0
  C  C562  1  0.016700  0.748900  0.342200  1.0
  C  C563  1  0.406700  0.732200  0.748900  1.0
  C  C564  1  0.983300  0.325500  0.732200  1.0
  C  C565  1  0.016700  0.267800  0.674500  1.0
  C  C566  1  0.593300  0.251100  0.267800  1.0
  C  C567  1  0.983300  0.657800  0.251100  1.0
  C  C568  1  0.406700  0.674500  0.657800  1.0
  C  C569  1  0.342200  0.325500  0.593300  1.0
  C  C570  1  0.657800  0.406700  0.674500  1.0
  C  C571  1  0.732200  0.983300  0.325500  1.0
  C  C572  1  0.342200  0.016700  0.748900  1.0
  C  C573  1  0.267800  0.593300  0.251100  1.0
  C  C574  1  0.732200  0.748900  0.406700  1.0
  C  C575  1  0.657800  0.251100  0.983300  1.0
  C  C576  1  0.267800  0.674500  0.016700  1.0
  C  C577  1  0.358000  0.535900  0.398500  1.0
  C  C578  1  0.137400  0.177900  0.535900  1.0
  C  C579  1  0.642000  0.040500  0.177900  1.0
  C  C580  1  0.862600  0.398500  0.040500  1.0
  C  C581  1  0.137400  0.959500  0.601500  1.0
  C  C582  1  0.358000  0.822100  0.959500  1.0
  C  C583  1  0.862600  0.464100  0.822100  1.0
  C  C584  1  0.642000  0.601500  0.464100  1.0
  C  C585  1  0.535900  0.398500  0.358000  1.0
  C  C586  1  0.040500  0.862600  0.398500  1.0
  C  C587  1  0.464100  0.822100  0.862600  1.0
  C  C588  1  0.959500  0.358000  0.822100  1.0
  C  C589  1  0.040500  0.177900  0.642000  1.0
  C  C590  1  0.535900  0.137400  0.177900  1.0
  C  C591  1  0.959500  0.601500  0.137400  1.0
  C  C592  1  0.464100  0.642000  0.601500  1.0
  C  C593  1  0.398500  0.358000  0.535900  1.0
  C  C594  1  0.601500  0.464100  0.642000  1.0
  C  C595  1  0.822100  0.959500  0.358000  1.0
  C  C596  1  0.398500  0.040500  0.862600  1.0
  C  C597  1  0.177900  0.535900  0.137400  1.0
  C  C598  1  0.822100  0.862600  0.464100  1.0
  C  C599  1  0.601500  0.137400  0.959500  1.0
  C  C600  1  0.177900  0.642000  0.040500  1.0
  C  C601  1  0.377100  0.516200  0.435100  1.0
  C  C602  1  0.081100  0.139100  0.516200  1.0
  C  C603  1  0.622900  0.058000  0.139100  1.0
  C  C604  1  0.918900  0.435100  0.058000  1.0
  C  C605  1  0.081100  0.942000  0.564900  1.0
  C  C606  1  0.377100  0.860900  0.942000  1.0
  C  C607  1  0.918900  0.483800  0.860900  1.0
  C  C608  1  0.622900  0.564900  0.483800  1.0
  C  C609  1  0.516200  0.435100  0.377100  1.0
  C  C610  1  0.058000  0.918900  0.435100  1.0
  C  C611  1  0.483800  0.860900  0.918900  1.0
  C  C612  1  0.942000  0.377100  0.860900  1.0
  C  C613  1  0.058000  0.139100  0.622900  1.0
  C  C614  1  0.516200  0.081100  0.139100  1.0
  C  C615  1  0.942000  0.564900  0.081100  1.0
  C  C616  1  0.483800  0.622900  0.564900  1.0
  C  C617  1  0.435100  0.377100  0.516200  1.0
  C  C618  1  0.564900  0.483800  0.622900  1.0
  C  C619  1  0.860900  0.942000  0.377100  1.0
  C  C620  1  0.435100  0.058000  0.918900  1.0
  C  C621  1  0.139100  0.516200  0.081100  1.0
  C  C622  1  0.860900  0.918900  0.483800  1.0
  C  C623  1  0.564900  0.081100  0.942000  1.0
  C  C624  1  0.139100  0.622900  0.058000  1.0
  C  C625  1  0.360100  0.446400  0.444500  1.0
  C  C626  1  0.001900  0.086300  0.446400  1.0
  C  C627  1  0.639900  0.084400  0.086300  1.0
  C  C628  1  0.998100  0.444500  0.084400  1.0
  C  C629  1  0.001900  0.915600  0.555500  1.0
  C  C630  1  0.360100  0.913700  0.915600  1.0
  C  C631  1  0.998100  0.553600  0.913700  1.0
  C  C632  1  0.639900  0.555500  0.553600  1.0
  C  C633  1  0.446400  0.444500  0.360100  1.0
  C  C634  1  0.084400  0.998100  0.444500  1.0
  C  C635  1  0.553600  0.913700  0.998100  1.0
  C  C636  1  0.915600  0.360100  0.913700  1.0
  C  C637  1  0.084400  0.086300  0.639900  1.0
  C  C638  1  0.446400  0.001900  0.086300  1.0
  C  C639  1  0.915600  0.555500  0.001900  1.0
  C  C640  1  0.553600  0.639900  0.555500  1.0
  C  C641  1  0.444500  0.360100  0.446400  1.0
  C  C642  1  0.555500  0.553600  0.639900  1.0
  C  C643  1  0.913700  0.915600  0.360100  1.0
  C  C644  1  0.444500  0.084400  0.998100  1.0
  C  C645  1  0.086300  0.446400  0.001900  1.0
  C  C646  1  0.913700  0.998100  0.553600  1.0
  C  C647  1  0.555500  0.001900  0.915600  1.0
  C  C648  1  0.086300  0.639900  0.084400  1.0
  H  H649  1  0.743200  0.921800  0.792200  1.0
  H  H650  1  0.129600  0.178600  0.921800  1.0
  H  H651  1  0.256800  0.049000  0.178600  1.0
  H  H652  1  0.870400  0.792200  0.049000  1.0
  H  H653  1  0.129600  0.951000  0.207800  1.0
  H  H654  1  0.743200  0.821400  0.951000  1.0
  H  H655  1  0.870400  0.078200  0.821400  1.0
  H  H656  1  0.256800  0.207800  0.078200  1.0
  H  H657  1  0.921800  0.792200  0.743200  1.0
  H  H658  1  0.049000  0.870400  0.792200  1.0
  H  H659  1  0.078200  0.821400  0.870400  1.0
  H  H660  1  0.951000  0.743200  0.821400  1.0
  H  H661  1  0.049000  0.178600  0.256800  1.0
  H  H662  1  0.921800  0.129600  0.178600  1.0
  H  H663  1  0.951000  0.207800  0.129600  1.0
  H  H664  1  0.078200  0.256800  0.207800  1.0
  H  H665  1  0.792200  0.743200  0.921800  1.0
  H  H666  1  0.207800  0.078200  0.256800  1.0
  H  H667  1  0.821400  0.951000  0.743200  1.0
  H  H668  1  0.792200  0.049000  0.870400  1.0
  H  H669  1  0.178600  0.921800  0.129600  1.0
  H  H670  1  0.821400  0.870400  0.078200  1.0
  H  H671  1  0.207800  0.129600  0.951000  1.0
  H  H672  1  0.178600  0.256800  0.049000  1.0
  H  H673  1  0.686600  0.823000  0.757200  1.0
  H  H674  1  0.065800  0.136400  0.823000  1.0
  H  H675  1  0.313400  0.070600  0.136400  1.0
  H  H676  1  0.934200  0.757200  0.070600  1.0
  H  H677  1  0.065800  0.929400  0.242800  1.0
  H  H678  1  0.686600  0.863600  0.929400  1.0
  H  H679  1  0.934200  0.177000  0.863600  1.0
  H  H680  1  0.313400  0.242800  0.177000  1.0
  H  H681  1  0.823000  0.757200  0.686600  1.0
  H  H682  1  0.070600  0.934200  0.757200  1.0
  H  H683  1  0.177000  0.863600  0.934200  1.0
  H  H684  1  0.929400  0.686600  0.863600  1.0
  H  H685  1  0.070600  0.136400  0.313400  1.0
  H  H686  1  0.823000  0.065800  0.136400  1.0
  H  H687  1  0.929400  0.242800  0.065800  1.0
  H  H688  1  0.177000  0.313400  0.242800  1.0
  H  H689  1  0.757200  0.686600  0.823000  1.0
  H  H690  1  0.242800  0.177000  0.313400  1.0
  H  H691  1  0.863600  0.929400  0.686600  1.0
  H  H692  1  0.757200  0.070600  0.934200  1.0
  H  H693  1  0.136400  0.823000  0.065800  1.0
  H  H694  1  0.863600  0.934200  0.177000  1.0
  H  H695  1  0.242800  0.065800  0.929400  1.0
  H  H696  1  0.136400  0.313400  0.070600  1.0
  H  H697  1  0.595800  0.773000  0.677200  1.0
  H  H698  1  0.095800  0.177200  0.773000  1.0
  H  H699  1  0.404200  0.081400  0.177200  1.0
  H  H700  1  0.904200  0.677200  0.081400  1.0
  H  H701  1  0.095800  0.918600  0.322800  1.0
  H  H702  1  0.595800  0.822800  0.918600  1.0
  H  H703  1  0.904200  0.227000  0.822800  1.0
  H  H704  1  0.404200  0.322800  0.227000  1.0
  H  H705  1  0.773000  0.677200  0.595800  1.0
  H  H706  1  0.081400  0.904200  0.677200  1.0
  H  H707  1  0.227000  0.822800  0.904200  1.0
  H  H708  1  0.918600  0.595800  0.822800  1.0
  H  H709  1  0.081400  0.177200  0.404200  1.0
  H  H710  1  0.773000  0.095800  0.177200  1.0
  H  H711  1  0.918600  0.322800  0.095800  1.0
  H  H712  1  0.227000  0.404200  0.322800  1.0
  H  H713  1  0.677200  0.595800  0.773000  1.0
  H  H714  1  0.322800  0.227000  0.404200  1.0
  H  H715  1  0.822800  0.918600  0.595800  1.0
  H  H716  1  0.677200  0.081400  0.904200  1.0
  H  H717  1  0.177200  0.773000  0.095800  1.0
  H  H718  1  0.822800  0.904200  0.227000  1.0
  H  H719  1  0.322800  0.095800  0.918600  1.0
  H  H720  1  0.177200  0.404200  0.081400  1.0
  H  H721  1  0.632600  0.896700  0.641900  1.0
  H  H722  1  0.254800  0.264100  0.896700  1.0
  H  H723  1  0.367400  0.009300  0.264100  1.0
  H  H724  1  0.745200  0.641900  0.009300  1.0
  H  H725  1  0.254800  0.990700  0.358100  1.0
  H  H726  1  0.632600  0.735900  0.990700  1.0
  H  H727  1  0.745200  0.103300  0.735900  1.0
  H  H728  1  0.367400  0.358100  0.103300  1.0
  H  H729  1  0.896700  0.641900  0.632600  1.0
  H  H730  1  0.009300  0.745200  0.641900  1.0
  H  H731  1  0.103300  0.735900  0.745200  1.0
  H  H732  1  0.990700  0.632600  0.735900  1.0
  H  H733  1  0.009300  0.264100  0.367400  1.0
  H  H734  1  0.896700  0.254800  0.264100  1.0
  H  H735  1  0.990700  0.358100  0.254800  1.0
  H  H736  1  0.103300  0.367400  0.358100  1.0
  H  H737  1  0.641900  0.632600  0.896700  1.0
  H  H738  1  0.358100  0.103300  0.367400  1.0
  H  H739  1  0.735900  0.990700  0.632600  1.0
  H  H740  1  0.641900  0.009300  0.745200  1.0
  H  H741  1  0.264100  0.896700  0.254800  1.0
  H  H742  1  0.735900  0.745200  0.103300  1.0
  H  H743  1  0.358100  0.254800  0.990700  1.0
  H  H744  1  0.264100  0.367400  0.009300  1.0
  H  H745  1  0.520800  0.821400  0.672600  1.0
  H  H746  1  0.148800  0.300600  0.821400  1.0
  H  H747  1  0.479200  0.151800  0.300600  1.0
  H  H748  1  0.851200  0.672600  0.151800  1.0
  H  H749  1  0.148800  0.848200  0.327400  1.0
  H  H750  1  0.520800  0.699400  0.848200  1.0
  H  H751  1  0.851200  0.178600  0.699400  1.0
  H  H752  1  0.479200  0.327400  0.178600  1.0
  H  H753  1  0.821400  0.672600  0.520800  1.0
  H  H754  1  0.151800  0.851200  0.672600  1.0
  H  H755  1  0.178600  0.699400  0.851200  1.0
  H  H756  1  0.848200  0.520800  0.699400  1.0
  H  H757  1  0.151800  0.300600  0.479200  1.0
  H  H758  1  0.821400  0.148800  0.300600  1.0
  H  H759  1  0.848200  0.327400  0.148800  1.0
  H  H760  1  0.178600  0.479200  0.327400  1.0
  H  H761  1  0.672600  0.520800  0.821400  1.0
  H  H762  1  0.327400  0.178600  0.479200  1.0
  H  H763  1  0.699400  0.848200  0.520800  1.0
  H  H764  1  0.672600  0.151800  0.851200  1.0
  H  H765  1  0.300600  0.821400  0.148800  1.0
  H  H766  1  0.699400  0.851200  0.178600  1.0
  H  H767  1  0.327400  0.148800  0.848200  1.0
  H  H768  1  0.300600  0.479200  0.151800  1.0
  H  H769  1  0.438800  0.818800  0.658200  1.0
  H  H770  1  0.160600  0.380000  0.818800  1.0
  H  H771  1  0.561200  0.219400  0.380000  1.0
  H  H772  1  0.839400  0.658200  0.219400  1.0
  H  H773  1  0.160600  0.780600  0.341800  1.0
  H  H774  1  0.438800  0.620000  0.780600  1.0
  H  H775  1  0.839400  0.181200  0.620000  1.0
  H  H776  1  0.561200  0.341800  0.181200  1.0
  H  H777  1  0.818800  0.658200  0.438800  1.0
  H  H778  1  0.219400  0.839400  0.658200  1.0
  H  H779  1  0.181200  0.620000  0.839400  1.0
  H  H780  1  0.780600  0.438800  0.620000  1.0
  H  H781  1  0.219400  0.380000  0.561200  1.0
  H  H782  1  0.818800  0.160600  0.380000  1.0
  H  H783  1  0.780600  0.341800  0.160600  1.0
  H  H784  1  0.181200  0.561200  0.341800  1.0
  H  H785  1  0.658200  0.438800  0.818800  1.0
  H  H786  1  0.341800  0.181200  0.561200  1.0
  H  H787  1  0.620000  0.780600  0.438800  1.0
  H  H788  1  0.658200  0.219400  0.839400  1.0
  H  H789  1  0.380000  0.818800  0.160600  1.0
  H  H790  1  0.620000  0.839400  0.181200  1.0
  H  H791  1  0.341800  0.160600  0.780600  1.0
  H  H792  1  0.380000  0.561200  0.219400  1.0
  H  H793  1  0.349700  0.744500  0.571200  1.0
  H  H794  1  0.173300  0.394800  0.744500  1.0
  H  H795  1  0.650300  0.221500  0.394800  1.0
  H  H796  1  0.826700  0.571200  0.221500  1.0
  H  H797  1  0.173300  0.778500  0.428800  1.0
  H  H798  1  0.349700  0.605200  0.778500  1.0
  H  H799  1  0.826700  0.255500  0.605200  1.0
  H  H800  1  0.650300  0.428800  0.255500  1.0
  H  H801  1  0.744500  0.571200  0.349700  1.0
  H  H802  1  0.221500  0.826700  0.571200  1.0
  H  H803  1  0.255500  0.605200  0.826700  1.0
  H  H804  1  0.778500  0.349700  0.605200  1.0
  H  H805  1  0.221500  0.394800  0.650300  1.0
  H  H806  1  0.744500  0.173300  0.394800  1.0
  H  H807  1  0.778500  0.428800  0.173300  1.0
  H  H808  1  0.255500  0.650300  0.428800  1.0
  H  H809  1  0.571200  0.349700  0.744500  1.0
  H  H810  1  0.428800  0.255500  0.650300  1.0
  H  H811  1  0.605200  0.778500  0.349700  1.0
  H  H812  1  0.571200  0.221500  0.826700  1.0
  H  H813  1  0.394800  0.744500  0.173300  1.0
  H  H814  1  0.605200  0.826700  0.255500  1.0
  H  H815  1  0.428800  0.173300  0.778500  1.0
  H  H816  1  0.394800  0.650300  0.221500  1.0
  H  H817  1  0.364300  0.705700  0.494800  1.0
  H  H818  1  0.210900  0.341400  0.705700  1.0
  H  H819  1  0.635700  0.130500  0.341400  1.0
  H  H820  1  0.789100  0.494800  0.130500  1.0
  H  H821  1  0.210900  0.869500  0.505200  1.0
  H  H822  1  0.364300  0.658600  0.869500  1.0
  H  H823  1  0.789100  0.294300  0.658600  1.0
  H  H824  1  0.635700  0.505200  0.294300  1.0
  H  H825  1  0.705700  0.494800  0.364300  1.0
  H  H826  1  0.130500  0.789100  0.494800  1.0
  H  H827  1  0.294300  0.658600  0.789100  1.0
  H  H828  1  0.869500  0.364300  0.658600  1.0
  H  H829  1  0.130500  0.341400  0.635700  1.0
  H  H830  1  0.705700  0.210900  0.341400  1.0
  H  H831  1  0.869500  0.505200  0.210900  1.0
  H  H832  1  0.294300  0.635700  0.505200  1.0
  H  H833  1  0.494800  0.364300  0.705700  1.0
  H  H834  1  0.505200  0.294300  0.635700  1.0
  H  H835  1  0.658600  0.869500  0.364300  1.0
  H  H836  1  0.494800  0.130500  0.789100  1.0
  H  H837  1  0.341400  0.705700  0.210900  1.0
  H  H838  1  0.658600  0.789100  0.294300  1.0
  H  H839  1  0.505200  0.210900  0.869500  1.0
  H  H840  1  0.341400  0.635700  0.130500  1.0
  H  H841  1  0.481700  0.675000  0.403900  1.0
  H  H842  1  0.271100  0.193300  0.675000  1.0
  H  H843  1  0.518300  0.922200  0.193300  1.0
  H  H844  1  0.728900  0.403900  0.922200  1.0
  H  H845  1  0.271100  0.077800  0.596100  1.0
  H  H846  1  0.481700  0.806700  0.077800  1.0
  H  H847  1  0.728900  0.325000  0.806700  1.0
  H  H848  1  0.518300  0.596100  0.325000  1.0
  H  H849  1  0.675000  0.403900  0.481700  1.0
  H  H850  1  0.922200  0.728900  0.403900  1.0
  H  H851  1  0.325000  0.806700  0.728900  1.0
  H  H852  1  0.077800  0.481700  0.806700  1.0
  H  H853  1  0.922200  0.193300  0.518300  1.0
  H  H854  1  0.675000  0.271100  0.193300  1.0
  H  H855  1  0.077800  0.596100  0.271100  1.0
  H  H856  1  0.325000  0.518300  0.596100  1.0
  H  H857  1  0.403900  0.481700  0.675000  1.0
  H  H858  1  0.596100  0.325000  0.518300  1.0
  H  H859  1  0.806700  0.077800  0.481700  1.0
  H  H860  1  0.403900  0.922200  0.728900  1.0
  H  H861  1  0.193300  0.675000  0.271100  1.0
  H  H862  1  0.806700  0.728900  0.325000  1.0
  H  H863  1  0.596100  0.271100  0.077800  1.0
  H  H864  1  0.193300  0.518300  0.922200  1.0
  H  H865  1  0.569000  0.677500  0.416500  1.0
  H  H866  1  0.261000  0.108500  0.677500  1.0
  H  H867  1  0.431000  0.847500  0.108500  1.0
  H  H868  1  0.739000  0.416500  0.847500  1.0
  H  H869  1  0.261000  0.152500  0.583500  1.0
  H  H870  1  0.569000  0.891500  0.152500  1.0
  H  H871  1  0.739000  0.322500  0.891500  1.0
  H  H872  1  0.431000  0.583500  0.322500  1.0
  H  H873  1  0.677500  0.416500  0.569000  1.0
  H  H874  1  0.847500  0.739000  0.416500  1.0
  H  H875  1  0.322500  0.891500  0.739000  1.0
  H  H876  1  0.152500  0.569000  0.891500  1.0
  H  H877  1  0.847500  0.108500  0.431000  1.0
  H  H878  1  0.677500  0.261000  0.108500  1.0
  H  H879  1  0.152500  0.583500  0.261000  1.0
  H  H880  1  0.322500  0.431000  0.583500  1.0
  H  H881  1  0.416500  0.569000  0.677500  1.0
  H  H882  1  0.583500  0.322500  0.431000  1.0
  H  H883  1  0.891500  0.152500  0.569000  1.0
  H  H884  1  0.416500  0.847500  0.739000  1.0
  H  H885  1  0.108500  0.677500  0.261000  1.0
  H  H886  1  0.891500  0.739000  0.322500  1.0
  H  H887  1  0.583500  0.261000  0.152500  1.0
  H  H888  1  0.108500  0.431000  0.847500  1.0
  H  H889  1  0.657500  0.755300  0.516800  1.0
  H  H890  1  0.238500  0.097800  0.755300  1.0
  H  H891  1  0.342500  0.859300  0.097800  1.0
  H  H892  1  0.761500  0.516800  0.859300  1.0
  H  H893  1  0.238500  0.140700  0.483200  1.0
  H  H894  1  0.657500  0.902200  0.140700  1.0
  H  H895  1  0.761500  0.244700  0.902200  1.0
  H  H896  1  0.342500  0.483200  0.244700  1.0
  H  H897  1  0.755300  0.516800  0.657500  1.0
  H  H898  1  0.859300  0.761500  0.516800  1.0
  H  H899  1  0.244700  0.902200  0.761500  1.0
  H  H900  1  0.140700  0.657500  0.902200  1.0
  H  H901  1  0.859300  0.097800  0.342500  1.0
  H  H902  1  0.755300  0.238500  0.097800  1.0
  H  H903  1  0.140700  0.483200  0.238500  1.0
  H  H904  1  0.244700  0.342500  0.483200  1.0
  H  H905  1  0.516800  0.657500  0.755300  1.0
  H  H906  1  0.483200  0.244700  0.342500  1.0
  H  H907  1  0.902200  0.140700  0.657500  1.0
  H  H908  1  0.516800  0.859300  0.761500  1.0
  H  H909  1  0.097800  0.755300  0.238500  1.0
  H  H910  1  0.902200  0.761500  0.244700  1.0
  H  H911  1  0.483200  0.238500  0.140700  1.0
  H  H912  1  0.097800  0.342500  0.859300  1.0
  H  H913  1  0.643600  0.777800  0.586200  1.0
  H  H914  1  0.191600  0.134200  0.777800  1.0
  H  H915  1  0.356400  0.942600  0.134200  1.0
  H  H916  1  0.808400  0.586200  0.942600  1.0
  H  H917  1  0.191600  0.057400  0.413800  1.0
  H  H918  1  0.643600  0.865800  0.057400  1.0
  H  H919  1  0.808400  0.222200  0.865800  1.0
  H  H920  1  0.356400  0.413800  0.222200  1.0
  H  H921  1  0.777800  0.586200  0.643600  1.0
  H  H922  1  0.942600  0.808400  0.586200  1.0
  H  H923  1  0.222200  0.865800  0.808400  1.0
  H  H924  1  0.057400  0.643600  0.865800  1.0
  H  H925  1  0.942600  0.134200  0.356400  1.0
  H  H926  1  0.777800  0.191600  0.134200  1.0
  H  H927  1  0.057400  0.413800  0.191600  1.0
  H  H928  1  0.222200  0.356400  0.413800  1.0
  H  H929  1  0.586200  0.643600  0.777800  1.0
  H  H930  1  0.413800  0.222200  0.356400  1.0
  H  H931  1  0.865800  0.057400  0.643600  1.0
  H  H932  1  0.586200  0.942600  0.808400  1.0
  H  H933  1  0.134200  0.777800  0.191600  1.0
  H  H934  1  0.865800  0.808400  0.222200  1.0
  H  H935  1  0.413800  0.191600  0.057400  1.0
  H  H936  1  0.134200  0.356400  0.942600  1.0
  H  H937  1  0.412600  0.753600  0.414400  1.0
  H  H938  1  0.339200  0.341000  0.753600  1.0
  H  H939  1  0.587400  0.001800  0.341000  1.0
  H  H940  1  0.660800  0.414400  0.001800  1.0
  H  H941  1  0.339200  0.998200  0.585600  1.0
  H  H942  1  0.412600  0.659000  0.998200  1.0
  H  H943  1  0.660800  0.246400  0.659000  1.0
  H  H944  1  0.587400  0.585600  0.246400  1.0
  H  H945  1  0.753600  0.414400  0.412600  1.0
  H  H946  1  0.001800  0.660800  0.414400  1.0
  H  H947  1  0.246400  0.659000  0.660800  1.0
  H  H948  1  0.998200  0.412600  0.659000  1.0
  H  H949  1  0.001800  0.341000  0.587400  1.0
  H  H950  1  0.753600  0.339200  0.341000  1.0
  H  H951  1  0.998200  0.585600  0.339200  1.0
  H  H952  1  0.246400  0.587400  0.585600  1.0
  H  H953  1  0.414400  0.412600  0.753600  1.0
  H  H954  1  0.585600  0.246400  0.587400  1.0
  H  H955  1  0.659000  0.998200  0.412600  1.0
  H  H956  1  0.414400  0.001800  0.660800  1.0
  H  H957  1  0.341000  0.753600  0.339200  1.0
  H  H958  1  0.659000  0.660800  0.246400  1.0
  H  H959  1  0.585600  0.339200  0.998200  1.0
  H  H960  1  0.341000  0.587400  0.001800  1.0
  H  H961  1  0.300200  0.553500  0.326100  1.0
  H  H962  1  0.227400  0.253300  0.553500  1.0
  H  H963  1  0.699800  0.025900  0.253300  1.0
  H  H964  1  0.772600  0.326100  0.025900  1.0
  H  H965  1  0.227400  0.974100  0.673900  1.0
  H  H966  1  0.300200  0.746700  0.974100  1.0
  H  H967  1  0.772600  0.446500  0.746700  1.0
  H  H968  1  0.699800  0.673900  0.446500  1.0
  H  H969  1  0.553500  0.326100  0.300200  1.0
  H  H970  1  0.025900  0.772600  0.326100  1.0
  H  H971  1  0.446500  0.746700  0.772600  1.0
  H  H972  1  0.974100  0.300200  0.746700  1.0
  H  H973  1  0.025900  0.253300  0.699800  1.0
  H  H974  1  0.553500  0.227400  0.253300  1.0
  H  H975  1  0.974100  0.673900  0.227400  1.0
  H  H976  1  0.446500  0.699800  0.673900  1.0
  H  H977  1  0.326100  0.300200  0.553500  1.0
  H  H978  1  0.673900  0.446500  0.699800  1.0
  H  H979  1  0.746700  0.974100  0.300200  1.0
  H  H980  1  0.326100  0.025900  0.772600  1.0
  H  H981  1  0.253300  0.553500  0.227400  1.0
  H  H982  1  0.746700  0.772600  0.446500  1.0
  H  H983  1  0.673900  0.227400  0.974100  1.0
  H  H984  1  0.253300  0.699800  0.025900  1.0
  H  H985  1  0.317700  0.525500  0.387800  1.0
  H  H986  1  0.137700  0.207800  0.525500  1.0
  H  H987  1  0.682300  0.070100  0.207800  1.0
  H  H988  1  0.862300  0.387800  0.070100  1.0
  H  H989  1  0.137700  0.929900  0.612200  1.0
  H  H990  1  0.317700  0.792200  0.929900  1.0
  H  H991  1  0.862300  0.474500  0.792200  1.0
  H  H992  1  0.682300  0.612200  0.474500  1.0
  H  H993  1  0.525500  0.387800  0.317700  1.0
  H  H994  1  0.070100  0.862300  0.387800  1.0
  H  H995  1  0.474500  0.792200  0.862300  1.0
  H  H996  1  0.929900  0.317700  0.792200  1.0
  H  H997  1  0.070100  0.207800  0.682300  1.0
  H  H998  1  0.525500  0.137700  0.207800  1.0
  H  H999  1  0.929900  0.612200  0.137700  1.0
  H  H1000  1  0.474500  0.682300  0.612200  1.0
  H  H1001  1  0.387800  0.317700  0.525500  1.0
  H  H1002  1  0.612200  0.474500  0.682300  1.0
  H  H1003  1  0.792200  0.929900  0.317700  1.0
  H  H1004  1  0.387800  0.070100  0.862300  1.0
  H  H1005  1  0.207800  0.525500  0.137700  1.0
  H  H1006  1  0.792200  0.862300  0.474500  1.0
  H  H1007  1  0.612200  0.137700  0.929900  1.0
  H  H1008  1  0.207800  0.682300  0.070100  1.0
  H  H1009  1  0.358300  0.515800  0.362900  1.0
  H  H1010  1  0.152900  0.157500  0.515800  1.0
  H  H1011  1  0.641700  0.004600  0.157500  1.0
  H  H1012  1  0.847100  0.362900  0.004600  1.0
  H  H1013  1  0.152900  0.995400  0.637100  1.0
  H  H1014  1  0.358300  0.842500  0.995400  1.0
  H  H1015  1  0.847100  0.484200  0.842500  1.0
  H  H1016  1  0.641700  0.637100  0.484200  1.0
  H  H1017  1  0.515800  0.362900  0.358300  1.0
  H  H1018  1  0.004600  0.847100  0.362900  1.0
  H  H1019  1  0.484200  0.842500  0.847100  1.0
  H  H1020  1  0.995400  0.358300  0.842500  1.0
  H  H1021  1  0.004600  0.157500  0.641700  1.0
  H  H1022  1  0.515800  0.152900  0.157500  1.0
  H  H1023  1  0.995400  0.637100  0.152900  1.0
  H  H1024  1  0.484200  0.641700  0.637100  1.0
  H  H1025  1  0.362900  0.358300  0.515800  1.0
  H  H1026  1  0.637100  0.484200  0.641700  1.0
  H  H1027  1  0.842500  0.995400  0.358300  1.0
  H  H1028  1  0.362900  0.004600  0.847100  1.0
  H  H1029  1  0.157500  0.515800  0.152900  1.0
  H  H1030  1  0.842500  0.847100  0.484200  1.0
  H  H1031  1  0.637100  0.152900  0.995400  1.0
  H  H1032  1  0.157500  0.641700  0.004600  1.0
  H  H1033  1  0.417400  0.526100  0.446500  1.0
  H  H1034  1  0.079600  0.108700  0.526100  1.0
  H  H1035  1  0.582600  0.029100  0.108700  1.0
  H  H1036  1  0.920400  0.446500  0.029100  1.0
  H  H1037  1  0.079600  0.970900  0.553500  1.0
  H  H1038  1  0.417400  0.891300  0.970900  1.0
  H  H1039  1  0.920400  0.473900  0.891300  1.0
  H  H1040  1  0.582600  0.553500  0.473900  1.0
  H  H1041  1  0.526100  0.446500  0.417400  1.0
  H  H1042  1  0.029100  0.920400  0.446500  1.0
  H  H1043  1  0.473900  0.891300  0.920400  1.0
  H  H1044  1  0.970900  0.417400  0.891300  1.0
  H  H1045  1  0.029100  0.108700  0.582600  1.0
  H  H1046  1  0.526100  0.079600  0.108700  1.0
  H  H1047  1  0.970900  0.553500  0.079600  1.0
  H  H1048  1  0.473900  0.582600  0.553500  1.0
  H  H1049  1  0.446500  0.417400  0.526100  1.0
  H  H1050  1  0.553500  0.473900  0.582600  1.0
  H  H1051  1  0.891300  0.970900  0.417400  1.0
  H  H1052  1  0.446500  0.029100  0.920400  1.0
  H  H1053  1  0.108700  0.526100  0.079600  1.0
  H  H1054  1  0.891300  0.920400  0.473900  1.0
  H  H1055  1  0.553500  0.079600  0.970900  1.0
  H  H1056  1  0.108700  0.582600  0.029100  1.0
  H  H1057  1  0.375300  0.534200  0.470300  1.0
  H  H1058  1  0.063900  0.158900  0.534200  1.0
  H  H1059  1  0.624700  0.095000  0.158900  1.0
  H  H1060  1  0.936100  0.470300  0.095000  1.0
  H  H1061  1  0.063900  0.905000  0.529700  1.0
  H  H1062  1  0.375300  0.841100  0.905000  1.0
  H  H1063  1  0.936100  0.465800  0.841100  1.0
  H  H1064  1  0.624700  0.529700  0.465800  1.0
  H  H1065  1  0.534200  0.470300  0.375300  1.0
  H  H1066  1  0.095000  0.936100  0.470300  1.0
  H  H1067  1  0.465800  0.841100  0.936100  1.0
  H  H1068  1  0.905000  0.375300  0.841100  1.0
  H  H1069  1  0.095000  0.158900  0.624700  1.0
  H  H1070  1  0.534200  0.063900  0.158900  1.0
  H  H1071  1  0.905000  0.529700  0.063900  1.0
  H  H1072  1  0.465800  0.624700  0.529700  1.0
  H  H1073  1  0.470300  0.375300  0.534200  1.0
  H  H1074  1  0.529700  0.465800  0.624700  1.0
  H  H1075  1  0.841100  0.905000  0.375300  1.0
  H  H1076  1  0.470300  0.095000  0.936100  1.0
  H  H1077  1  0.158900  0.534200  0.063900  1.0
  H  H1078  1  0.841100  0.936100  0.465800  1.0
  H  H1079  1  0.529700  0.063900  0.905000  1.0
  H  H1080  1  0.158900  0.624700  0.095000  1.0
  H  H1081  1  0.389900  0.437000  0.443100  1.0
  H  H1082  1  0.993900  0.047100  0.437000  1.0
  H  H1083  1  0.610100  0.053200  0.047100  1.0
  H  H1084  1  0.006100  0.443100  0.053200  1.0
  H  H1085  1  0.993900  0.946800  0.556900  1.0
  H  H1086  1  0.389900  0.952900  0.946800  1.0
  H  H1087  1  0.006100  0.563000  0.952900  1.0
  H  H1088  1  0.610100  0.556900  0.563000  1.0
  H  H1089  1  0.437000  0.443100  0.389900  1.0
  H  H1090  1  0.053200  0.006100  0.443100  1.0
  H  H1091  1  0.563000  0.952900  0.006100  1.0
  H  H1092  1  0.946800  0.389900  0.952900  1.0
  H  H1093  1  0.053200  0.047100  0.610100  1.0
  H  H1094  1  0.437000  0.993900  0.047100  1.0
  H  H1095  1  0.946800  0.556900  0.993900  1.0
  H  H1096  1  0.563000  0.610100  0.556900  1.0
  H  H1097  1  0.443100  0.389900  0.437000  1.0
  H  H1098  1  0.556900  0.563000  0.610100  1.0
  H  H1099  1  0.952900  0.946800  0.389900  1.0
  H  H1100  1  0.443100  0.053200  0.006100  1.0
  H  H1101  1  0.047100  0.437000  0.993900  1.0
  H  H1102  1  0.952900  0.006100  0.563000  1.0
  H  H1103  1  0.556900  0.993900  0.946800  1.0
  H  H1104  1  0.047100  0.610100  0.053200  1.0
  H  H1105  1  0.327400  0.412700  0.436700  1.0
  H  H1106  1  0.976000  0.085300  0.412700  1.0
  H  H1107  1  0.672600  0.109300  0.085300  1.0
  H  H1108  1  0.024000  0.436700  0.109300  1.0
  H  H1109  1  0.976000  0.890700  0.563300  1.0
  H  H1110  1  0.327400  0.914700  0.890700  1.0
  H  H1111  1  0.024000  0.587300  0.914700  1.0
  H  H1112  1  0.672600  0.563300  0.587300  1.0
  H  H1113  1  0.412700  0.436700  0.327400  1.0
  H  H1114  1  0.109300  0.024000  0.436700  1.0
  H  H1115  1  0.587300  0.914700  0.024000  1.0
  H  H1116  1  0.890700  0.327400  0.914700  1.0
  H  H1117  1  0.109300  0.085300  0.672600  1.0
  H  H1118  1  0.412700  0.976000  0.085300  1.0
  H  H1119  1  0.890700  0.563300  0.976000  1.0
  H  H1120  1  0.587300  0.672600  0.563300  1.0
  H  H1121  1  0.436700  0.327400  0.412700  1.0
  H  H1122  1  0.563300  0.587300  0.672600  1.0
  H  H1123  1  0.914700  0.890700  0.327400  1.0
  H  H1124  1  0.436700  0.109300  0.024000  1.0
  H  H1125  1  0.085300  0.412700  0.976000  1.0
  H  H1126  1  0.914700  0.024000  0.587300  1.0
  H  H1127  1  0.563300  0.976000  0.890700  1.0
  H  H1128  1  0.085300  0.672600  0.109300  1.0
  H  H1129  1  0.375700  0.478200  0.482700  1.0
  H  H1130  1  0.995500  0.102500  0.478200  1.0
  H  H1131  1  0.624300  0.107000  0.102500  1.0
  H  H1132  1  0.004500  0.482700  0.107000  1.0
  H  H1133  1  0.995500  0.893000  0.517300  1.0
  H  H1134  1  0.375700  0.897500  0.893000  1.0
  H  H1135  1  0.004500  0.521800  0.897500  1.0
  H  H1136  1  0.624300  0.517300  0.521800  1.0
  H  H1137  1  0.478200  0.482700  0.375700  1.0
  H  H1138  1  0.107000  0.004500  0.482700  1.0
  H  H1139  1  0.521800  0.897500  0.004500  1.0
  H  H1140  1  0.893000  0.375700  0.897500  1.0
  H  H1141  1  0.107000  0.102500  0.624300  1.0
  H  H1142  1  0.478200  0.995500  0.102500  1.0
  H  H1143  1  0.893000  0.517300  0.995500  1.0
  H  H1144  1  0.521800  0.624300  0.517300  1.0
  H  H1145  1  0.482700  0.375700  0.478200  1.0
  H  H1146  1  0.517300  0.521800  0.624300  1.0
  H  H1147  1  0.897500  0.893000  0.375700  1.0
  H  H1148  1  0.482700  0.107000  0.004500  1.0
  H  H1149  1  0.102500  0.478200  0.995500  1.0
  H  H1150  1  0.897500  0.004500  0.521800  1.0
  H  H1151  1  0.517300  0.995500  0.893000  1.0
  H  H1152  1  0.102500  0.624300  0.107000  1.0
  N  N1153  1  0.689900  0.918900  0.719000  1.0
  N  N1154  1  0.199900  0.229000  0.918900  1.0
  N  N1155  1  0.310100  0.029100  0.229000  1.0
  N  N1156  1  0.800100  0.719000  0.029100  1.0
  N  N1157  1  0.199900  0.970900  0.281000  1.0
  N  N1158  1  0.689900  0.771000  0.970900  1.0
  N  N1159  1  0.800100  0.081100  0.771000  1.0
  N  N1160  1  0.310100  0.281000  0.081100  1.0
  N  N1161  1  0.918900  0.719000  0.689900  1.0
  N  N1162  1  0.029100  0.800100  0.719000  1.0
  N  N1163  1  0.081100  0.771000  0.800100  1.0
  N  N1164  1  0.970900  0.689900  0.771000  1.0
  N  N1165  1  0.029100  0.229000  0.310100  1.0
  N  N1166  1  0.918900  0.199900  0.229000  1.0
  N  N1167  1  0.970900  0.281000  0.199900  1.0
  N  N1168  1  0.081100  0.310100  0.281000  1.0
  N  N1169  1  0.719000  0.689900  0.918900  1.0
  N  N1170  1  0.281000  0.081100  0.310100  1.0
  N  N1171  1  0.771000  0.970900  0.689900  1.0
  N  N1172  1  0.719000  0.029100  0.800100  1.0
  N  N1173  1  0.229000  0.918900  0.199900  1.0
  N  N1174  1  0.771000  0.800100  0.081100  1.0
  N  N1175  1  0.281000  0.199900  0.970900  1.0
  N  N1176  1  0.229000  0.310100  0.029100  1.0
  O  O1177  1  0.787000  0.787000  0.574000  1
  O  O1178  1  0.213000  1.000000  0.787000  1
  O  O1179  1  0.213000  0.787000  1.000000  1
  O  O1180  1  0.787000  0.574000  0.787000  1
  O  O1181  1  0.213000  0.213000  0.426000  1
  O  O1182  1  0.787000  0.000000  0.213000  1
  O  O1183  1  0.787000  0.213000  1.000000  1
  O  O1184  1  0.213000  0.426000  0.213000  1
  O  O1185  1  0.574000  0.787000  0.787000  1
  O  O1186  1  0.426000  0.213000  0.213000  1
  O  O1187  1  0.000000  0.213000  0.787000  1
  O  O1188  1  1.000000  0.787000  0.213000  1
  O  O1189  1  0.848300  1.000000  0.848300  1
  O  O1190  1  0.151700  0.151700  0.000000  1
  O  O1191  1  0.151700  1.000000  0.151700  1
  O  O1192  1  0.848300  0.848300  0.000000  1
  O  O1193  1  0.000000  0.848300  0.848300  1
  O  O1194  1  0.000000  0.151700  0.151700  1
  O  O1195  1  0.651000  1.000000  0.651000  1
  O  O1196  1  0.349000  0.349000  1.000000  1
  O  O1197  1  0.349000  1.000000  0.349000  1
  O  O1198  1  0.651000  0.651000  1.000000  1
  O  O1199  1  0.000000  0.651000  0.651000  1
  O  O1200  1  0.000000  0.349000  0.349000  1
  O  O1201  1  0.708000  0.708000  0.708000  1
  O  O1202  1  0.000000  1.000000  0.708000  1
  O  O1203  1  0.292000  1.000000  0.000000  1
  O  O1204  1  1.000000  0.708000  1.000000  1
  O  O1205  1  1.000000  1.000000  0.292000  1
  O  O1206  1  0.708000  1.000000  0.000000  1
  O  O1207  1  0.000000  0.292000  0.000000  1
  O  O1208  1  0.292000  0.292000  0.292000  1
  O  O1209  1  0.391400  0.596900  0.422100  1.0
  O  O1210  1  0.174800  0.205500  0.596900  1.0
  O  O1211  1  0.608600  0.030700  0.205500  1.0
  O  O1212  1  0.825200  0.422100  0.030700  1.0
  O  O1213  1  0.174800  0.969300  0.577900  1.0
  O  O1214  1  0.391400  0.794500  0.969300  1.0
  O  O1215  1  0.825200  0.403100  0.794500  1.0
  O  O1216  1  0.608600  0.577900  0.403100  1.0
  O  O1217  1  0.596900  0.422100  0.391400  1.0
  O  O1218  1  0.030700  0.825200  0.422100  1.0
  O  O1219  1  0.403100  0.794500  0.825200  1.0
  O  O1220  1  0.969300  0.391400  0.794500  1.0
  O  O1221  1  0.030700  0.205500  0.608600  1.0
  O  O1222  1  0.596900  0.174800  0.205500  1.0
  O  O1223  1  0.969300  0.577900  0.174800  1.0
  O  O1224  1  0.403100  0.608600  0.577900  1.0
  O  O1225  1  0.422100  0.391400  0.596900  1.0
  O  O1226  1  0.577900  0.403100  0.608600  1.0
  O  O1227  1  0.794500  0.969300  0.391400  1.0
  O  O1228  1  0.422100  0.030700  0.825200  1.0
  O  O1229  1  0.205500  0.596900  0.174800  1.0
  O  O1230  1  0.794500  0.825200  0.403100  1.0
  O  O1231  1  0.577900  0.174800  0.969300  1.0
  O  O1232  1  0.205500  0.608600  0.030700  1.0
  O  O1233  1  0.343700  0.460500  0.407400  1.0
  O  O1234  1  0.053100  0.116800  0.460500  1.0
  O  O1235  1  0.656300  0.063700  0.116800  1.0
  O  O1236  1  0.946900  0.407400  0.063700  1.0
  O  O1237  1  0.053100  0.936300  0.592600  1.0
  O  O1238  1  0.343700  0.883200  0.936300  1.0
  O  O1239  1  0.946900  0.539500  0.883200  1.0
  O  O1240  1  0.656300  0.592600  0.539500  1.0
  O  O1241  1  0.460500  0.407400  0.343700  1.0
  O  O1242  1  0.063700  0.946900  0.407400  1.0
  O  O1243  1  0.539500  0.883200  0.946900  1.0
  O  O1244  1  0.936300  0.343700  0.883200  1.0
  O  O1245  1  0.063700  0.116800  0.656300  1.0
  O  O1246  1  0.460500  0.053100  0.116800  1.0
  O  O1247  1  0.936300  0.592600  0.053100  1.0
  O  O1248  1  0.539500  0.656300  0.592600  1.0
  O  O1249  1  0.407400  0.343700  0.460500  1.0
  O  O1250  1  0.592600  0.539500  0.656300  1.0
  O  O1251  1  0.883200  0.936300  0.343700  1.0
  O  O1252  1  0.407400  0.063700  0.946900  1.0
  O  O1253  1  0.116800  0.460500  0.053100  1.0
  O  O1254  1  0.883200  0.946900  0.539500  1.0
  O  O1255  1  0.592600  0.053100  0.936300  1.0
  O  O1256  1  0.116800  0.656300  0.063700  1.0
  Pd  Pd1257  1  0.743670  1.000000  0.743670  1.0
  Pd  Pd1258  1  0.256330  0.256330  1.000000  1.0
  Pd  Pd1259  1  0.256330  1.000000  0.256330  1.0
  Pd  Pd1260  1  0.743670  0.743670  0.000000  1.0
  Pd  Pd1261  1  0.000000  0.743670  0.743670  1.0
  Pd  Pd1262  1  0.000000  0.256330  0.256330  1.0
