
#######################################################################
#
#                 Cambridge Crystallographic Data Centre
#                                CCDC 
#
#######################################################################
#
# If this CIF has been generated from an entry in the Cambridge 
# Structural Database, then it will include bibliographic, chemical, 
# crystal, experimental, refinement or atomic coordinate data resulting 
# from the CCDC's data processing and validation procedures.
#
#######################################################################

data_ZULHUL
_chemical_formula_moiety         
'C216 H172 N24 O18 S1 Zn5 8+,7.1(C4 H8 O2),8.55(C2 H3 N1),8(B1 F4 1-),2.25(H2 O1)'
_chemical_name_systematic        
'(\m~3~-Sulfato)-hexakis(\m~2~-(naphthalene-2,7-diyldipyridine-5,2-diyl)bis(N-(4-methoxyphenyl)methanimine))-diaqua-penta-zinc octakis(tetrafluoroborate) acetonitrile ethyl acetate solvate hydrate'
_symmetry_cell_setting           monoclinic
_symmetry_space_group_name_H-M   'P 21/n'
_symmetry_Int_Tables_number      14
_space_group_name_Hall           '-P 2yn'
loop_
_symmetry_equiv_pos_site_id
_symmetry_equiv_pos_as_xyz
1 x,y,z
2 1/2-x,1/2+y,1/2-z
3 -x,-y,-z
4 1/2+x,1/2-y,1/2+z
_cell_length_a                   24.9670(5)
_cell_length_b                   29.8760(7)
_cell_length_c                   37.4321(8)
_cell_angle_alpha                90
_cell_angle_beta                 108.1420(10)
_cell_angle_gamma                90
_cell_volume                     26533.1
_exptl_crystal_colour            yellow
_exptl_crystal_description       block
_cell_formula_units_Z            4
loop_
_atom_site_label
_atom_site_type_symbol
_atom_site_fract_x
_atom_site_fract_y
_atom_site_fract_z
Zn1 Zn 0.47506(4) 0.70917(3) 0.56784(2)
Zn2 Zn 0.62257(3) 0.68009(3) 0.02758(2)
Zn3 Zn 0.54714(4) 0.79668(4) 0.29047(4)
Zn4 Zn 0.42841(4) 0.64261(3) 0.27002(3)
Zn5 Zn 0.64709(4) 0.63352(3) 0.31929(3)
O1 O 0.2596(3) 0.7368(3) 0.65413(19)
O2 O 0.7657(3) 0.4965(3) 0.20765(19)
N1 N 0.4075(2) 0.75473(18) 0.57139(15)
N2 N 0.4859(2) 0.76764(19) 0.53514(16)
N3 N 0.7006(2) 0.6820(2) 0.35334(17)
N4 N 0.7275(2) 0.6185(2) 0.31033(17)
C1 C 0.3678(3) 0.7495(2) 0.59144(19)
C2 C 0.3549(3) 0.7856(3) 0.6109(2)
H1 H 0.3712 0.8141 0.6099
C3 C 0.3189(3) 0.7799(3) 0.6314(2)
H2 H 0.3104 0.8045 0.6448
C4 C 0.2946(3) 0.7388(3) 0.6329(2)
C5 C 0.3066(3) 0.7031(2) 0.6128(2)
H3 H 0.2894 0.6749 0.6132
C6 C 0.3432(3) 0.7088(2) 0.59264(18)
H4 H 0.3517 0.6842 0.5793
C7 C 0.2421(4) 0.6949(4) 0.6625(3)
H5 H 0.2146 0.6824 0.6400
H6 H 0.2245 0.6980 0.6825
H7 H 0.2747 0.6749 0.6710
C8 C 0.4110(3) 0.7921(2) 0.5561(2)
H8 H 0.3850 0.8149 0.5570
C9 C 0.4522(3) 0.8017(2) 0.5374(2)
C10 C 0.4576(4) 0.8437(3) 0.5242(3)
H9 H 0.4328 0.8672 0.5260
C11 C 0.5002(4) 0.8511(3) 0.5082(3)
H10 H 0.5048 0.8801 0.4991
C12 C 0.5361(4) 0.8168(3) 0.5054(2)
C13 C 0.5262(3) 0.7757(2) 0.5193(2)
H11 H 0.5498 0.7515 0.5175
C14 C 0.6010(4) 0.7921(3) 0.4707(2)
H12 H 0.5834 0.7635 0.4676
C15 C 0.5835(4) 0.8243(3) 0.4902(3)
C16 C 0.6091(5) 0.8669(3) 0.4945(3)
H13 H 0.5970 0.8894 0.5082
C17 C 0.6510(5) 0.8761(3) 0.4794(3)
H14 H 0.6667 0.9053 0.4819
C18 C 0.6716(4) 0.8426(3) 0.4602(3)
C19 C 0.6450(4) 0.8002(3) 0.4550(3)
C20 C 0.6637(3) 0.7676(3) 0.4348(2)
H15 H 0.6462 0.7390 0.4311
C21 C 0.7070(3) 0.7758(3) 0.4201(2)
C22 C 0.7333(4) 0.8187(3) 0.4256(3)
H16 H 0.7634 0.8248 0.4159
C23 C 0.7156(5) 0.8505(3) 0.4446(3)
H17 H 0.7331 0.8791 0.4476
C24 C 0.6860(3) 0.7142(2) 0.3727(2)
H18 H 0.6471 0.7195 0.3687
C25 C 0.7253(3) 0.7407(3) 0.3986(2)
C26 C 0.7820(3) 0.7322(3) 0.4029(2)
H19 H 0.8103 0.7501 0.4196
C27 C 0.7975(3) 0.6983(3) 0.3831(2)
H20 H 0.8361 0.6919 0.3869
C28 C 0.7556(3) 0.6737(3) 0.3576(2)
C29 C 0.7671(3) 0.6387(3) 0.3340(2)
H21 H 0.8050 0.6310 0.3364
C30 C 0.7392(3) 0.5852(3) 0.2859(2)
C31 C 0.7857(3) 0.5575(3) 0.2967(2)
H22 H 0.8112 0.5592 0.3215
C32 C 0.7952(4) 0.5271(3) 0.2712(2)
H23 H 0.8272 0.5081 0.2788
C33 C 0.7584(4) 0.5242(3) 0.2349(2)
C34 C 0.7116(3) 0.5515(3) 0.2244(2)
H24 H 0.6859 0.5495 0.1997
C35 C 0.7019(3) 0.5818(3) 0.2497(2)
H25 H 0.6694 0.6004 0.2422
C36 C 0.8134(5) 0.4670(5) 0.2182(3)
H26 H 0.8480 0.4846 0.2278
H27 H 0.8147 0.4498 0.1962
H28 H 0.8100 0.4465 0.2378
O3 O 0.4948(4) 0.8752(3) 0.6999(3)
O4 O 0.3317(2) 0.6253(2) 0.07179(16)
N5 N 0.5379(2) 0.73890(19) 0.61506(15)
N6 N 0.5527(2) 0.68062(19) 0.56484(15)
N7 N 0.4608(2) 0.58250(18) 0.30002(16)
N8 N 0.4114(2) 0.5932(2) 0.22574(16)
C37 C 0.5280(3) 0.7727(2) 0.6384(2)
C38 C 0.4914(3) 0.7649(3) 0.6585(2)
H29 H 0.4738 0.7365 0.6572
C39 C 0.4804(4) 0.7983(3) 0.6804(3)
H30 H 0.4565 0.7929 0.6953
C40 C 0.5045(4) 0.8398(3) 0.6803(3)
C41 C 0.5406(5) 0.8472(4) 0.6597(3)
H31 H 0.5579 0.8757 0.6604
C42 C 0.5514(4) 0.8144(3) 0.6387(3)
H32 H 0.5754 0.8199 0.6239
C43 C 0.4555(7) 0.8678(6) 0.7171(5)
H33 H 0.4508 0.8948 0.7306
H34 H 0.4195 0.8602 0.6982
H35 H 0.4675 0.8429 0.7349
C44 C 0.5891(3) 0.7310(3) 0.6161(2)
H36 H 0.6196 0.7468 0.6330
C45 C 0.5995(3) 0.6972(2) 0.59072(19)
C46 C 0.6524(3) 0.6819(3) 0.5936(2)
H37 H 0.6842 0.6939 0.6122
C47 C 0.6598(3) 0.6491(3) 0.5695(2)
H38 H 0.6965 0.6391 0.5707
C48 C 0.6123(3) 0.6310(2) 0.54355(18)
C49 C 0.5598(3) 0.6481(2) 0.54262(19)
H39 H 0.5271 0.6357 0.5250
C50 C 0.5787(3) 0.5955(2) 0.48126(18)
H40 H 0.5496 0.6173 0.4745
C51 C 0.6162(3) 0.5956(2) 0.51687(19)
C52 C 0.6584(3) 0.5625(2) 0.5270(2)
H41 H 0.6840 0.5621 0.5519
C53 C 0.6630(3) 0.5313(2) 0.5020(2)
H42 H 0.6917 0.5092 0.5096
C54 C 0.6259(3) 0.5309(2) 0.4647(2)
C55 C 0.5824(3) 0.5635(2) 0.45442(18)
C56 C 0.5457(3) 0.5645(2) 0.41747(19)
H43 H 0.5173 0.5868 0.4105
C57 C 0.5497(3) 0.5339(2) 0.39110(19)
C58 C 0.5926(3) 0.5007(2) 0.4020(2)
H44 H 0.5951 0.4786 0.3844
C59 C 0.6294(3) 0.5002(2) 0.4366(2)
H45 H 0.6588 0.4787 0.4427
C60 C 0.4934(3) 0.5780(2) 0.3353(2)
H46 H 0.5050 0.6042 0.3501
C61 C 0.5116(3) 0.5365(2) 0.35185(18)
C62 C 0.4938(3) 0.4991(2) 0.3299(2)
H47 H 0.5050 0.4702 0.3401
C63 C 0.4599(3) 0.5033(2) 0.2932(2)
H48 H 0.4470 0.4775 0.2780
C64 C 0.4449(3) 0.5457(2) 0.27885(19)
C65 C 0.4163(3) 0.5535(2) 0.2388(2)
H49 H 0.4014 0.5290 0.2226
C66 C 0.3873(3) 0.6004(2) 0.18633(19)
C67 C 0.3413(3) 0.5768(3) 0.1641(2)
H50 H 0.3236 0.5551 0.1752
C68 C 0.3211(4) 0.5846(3) 0.1258(2)
H51 H 0.2888 0.5690 0.1108
C69 C 0.3477(3) 0.6151(3) 0.1095(2)
C70 C 0.3944(3) 0.6384(3) 0.1320(2)
H52 H 0.4128 0.6595 0.1209
C71 C 0.4139(3) 0.6312(2) 0.1698(2)
H53 H 0.4458 0.6473 0.1849
C72 C 0.2878(4) 0.5982(4) 0.0480(3)
H54 H 0.2990 0.5666 0.0513
H55 H 0.2811 0.6068 0.0217
H56 H 0.2532 0.6024 0.0547
O5 O 0.5400(2) 0.60006(17) 0.74601(13)
O6 O 0.6458(3) 0.8987(3) 0.15274(19)
N9 N 0.4582(2) 0.64816(18) 0.59475(14)
N10 N 0.4180(2) 0.67327(17) 0.52189(14)
N11 N 0.4599(3) 0.80537(19) 0.28275(17)
N12 N 0.5204(3) 0.8421(2) 0.24275(18)
C73 C 0.4792(3) 0.6360(2) 0.63367(17)
C74 C 0.4428(3) 0.6248(2) 0.65375(18)
H57 H 0.4032 0.6248 0.6417
C75 C 0.4647(3) 0.6138(2) 0.69139(19)
H58 H 0.4398 0.6064 0.7052
C76 C 0.5220(3) 0.6132(2) 0.70915(17)
C77 C 0.5581(3) 0.6243(2) 0.68906(18)
H59 H 0.5977 0.6239 0.7010
C78 C 0.5365(3) 0.6359(2) 0.65157(18)
H60 H 0.5615 0.6438 0.6380
C79 C 0.5987(3) 0.6019(3) 0.7655(2)
H61 H 0.6186 0.5806 0.7542
H62 H 0.6053 0.5941 0.7920
H63 H 0.6127 0.6322 0.7638
C80 C 0.4266(3) 0.6210(2) 0.57143(17)
H64 H 0.4188 0.5924 0.5797
C81 C 0.4021(3) 0.6336(2) 0.53203(17)
C82 C 0.3634(3) 0.6074(3) 0.5069(2)
H65 H 0.3534 0.5789 0.5143
C83 C 0.3387(3) 0.6229(2) 0.4704(2)
H66 H 0.3116 0.6051 0.4527
C84 C 0.3536(3) 0.6642(2) 0.45991(17)
C85 C 0.3949(3) 0.6874(2) 0.48726(17)
H67 H 0.4073 0.7152 0.4804
C86 C 0.3568(3) 0.7081(2) 0.40470(17)
H68 H 0.3954 0.7139 0.4175
C87 C 0.3262(3) 0.6832(2) 0.42231(17)
C88 C 0.2687(3) 0.6758(2) 0.4036(2)
H69 H 0.2471 0.6590 0.4157
C89 C 0.2435(3) 0.6922(3) 0.3687(2)
H70 H 0.2045 0.6866 0.3568
C90 C 0.2739(3) 0.7175(2) 0.34965(18)
C91 C 0.3323(3) 0.7253(2) 0.36796(17)
C92 C 0.3631(3) 0.7504(2) 0.34924(17)
H71 H 0.4021 0.7557 0.3615
C93 C 0.3389(3) 0.7673(2) 0.31405(18)
C94 C 0.2810(3) 0.7596(3) 0.2964(2)
H72 H 0.2631 0.7721 0.2723
C95 C 0.2503(3) 0.7347(3) 0.31327(19)
H73 H 0.2119 0.7287 0.3001
C96 C 0.4288(3) 0.7839(2) 0.3003(2)
H74 H 0.4458 0.7607 0.3174
C97 C 0.3719(3) 0.7940(2) 0.29461(19)
C98 C 0.3481(3) 0.8278(3) 0.2696(2)
H75 H 0.3096 0.8355 0.2648
C99 C 0.3804(3) 0.8501(3) 0.2517(2)
H76 H 0.3645 0.8737 0.2348
C100 C 0.4358(3) 0.8381(2) 0.2583(2)
C101 C 0.4719(3) 0.8578(3) 0.2381(2)
H77 H 0.4587 0.8822 0.2214
C102 C 0.5536(4) 0.8595(3) 0.2215(2)
C103 C 0.5832(4) 0.8285(3) 0.2067(2)
H78 H 0.5823 0.7976 0.2125
C104 C 0.6131(4) 0.8424(3) 0.1840(2)
H79 H 0.6327 0.8214 0.1737
C105 C 0.6147(3) 0.8873(3) 0.1763(2)
C106 C 0.5859(3) 0.9187(3) 0.1901(2)
H80 H 0.5873 0.9496 0.1844
C107 C 0.5542(4) 0.9039(3) 0.2130(2)
H81 H 0.5333 0.9247 0.2225
C108 C 0.6467(6) 0.9433(4) 0.1421(3)
H82 H 0.6109 0.9508 0.1230
H83 H 0.6778 0.9479 0.1316
H84 H 0.6521 0.9626 0.1641
O7 O 0.4508(6) 0.9105(5) 0.4148(4)
N13 N 0.5847(5) 0.8411(4) 0.3356(4)
C109 C 0.5516(7) 0.8611(5) 0.3557(5)
C110 C 0.5249(7) 0.8330(6) 0.3737(5)
H85 H 0.5280 0.8014 0.3718
C111 C 0.4931(7) 0.8514(6) 0.3945(5)
H86 H 0.4774 0.8327 0.4092
C112 C 0.4848(8) 0.8959(6) 0.3938(6)
C113 C 0.5092(7) 0.9258(6) 0.3756(5)
H87 H 0.5028 0.9571 0.3757
C114 C 0.5467(7) 0.9056(5) 0.3555(5)
H88 H 0.5664 0.9239 0.3429
C115 C 0.4371(10) 0.9572(7) 0.4128(7)
H89 H 0.4132 0.9634 0.4286
H90 H 0.4719 0.9748 0.4217
H91 H 0.4169 0.9653 0.3867
C116 C 0.6363(7) 0.8531(6) 0.3400(5)
H92 H 0.6545 0.8755 0.3576
O8 O 0.5691(3) 0.6229(2) -0.15732(16)
N14 N 0.6347(3) 0.7987(2) 0.29740(19)
N15 N 0.6696(2) 0.63754(18) 0.07268(15)
N16 N 0.6323(2) 0.62020(18) -0.00097(16)
C117 C 0.6621(3) 0.8329(3) 0.3190(2)
C118 C 0.7189(3) 0.8389(3) 0.3268(2)
H93 H 0.7370 0.8634 0.3421
C119 C 0.7500(3) 0.8097(3) 0.3128(2)
H94 H 0.7895 0.8137 0.3183
C120 C 0.7228(3) 0.7745(3) 0.2905(2)
C121 C 0.6649(3) 0.7712(3) 0.2838(2)
H95 H 0.6457 0.7474 0.2682
C122 C 0.7272(3) 0.7226(3) 0.23941(19)
H96 H 0.6915 0.7337 0.2245
C123 C 0.7522(3) 0.7406(3) 0.2746(2)
C124 C 0.8070(3) 0.7261(3) 0.2952(2)
H97 H 0.8266 0.7404 0.3183
C125 C 0.8316(3) 0.6923(3) 0.2828(2)
H98 H 0.8670 0.6816 0.2982
C126 C 0.8061(3) 0.6720(3) 0.2469(2)
C127 C 0.7533(3) 0.6883(2) 0.22510(19)
C128 C 0.7280(3) 0.6698(2) 0.18894(19)
H99 H 0.6926 0.6813 0.1741
C129 C 0.7520(3) 0.6363(2) 0.17436(19)
C130 C 0.8042(3) 0.6188(3) 0.1980(2)
H100 H 0.8212 0.5943 0.1894
C131 C 0.8298(4) 0.6365(3) 0.2323(2)
H101 H 0.8651 0.6247 0.2470
C132 C 0.6920(3) 0.6487(2) 0.10836(18)
H102 H 0.6848 0.6778 0.1160
C133 C 0.7261(3) 0.6197(2) 0.13577(18)
C134 C 0.7331(3) 0.5772(2) 0.1236(2)
H103 H 0.7543 0.5557 0.1410
C135 C 0.7098(3) 0.5655(3) 0.0863(2)
H104 H 0.7147 0.5361 0.0782
C136 C 0.6794(3) 0.5967(2) 0.06077(18)
C137 C 0.6572(3) 0.5895(2) 0.01992(19)
H105 H 0.6621 0.5613 0.0095
C138 C 0.6145(3) 0.6165(2) -0.04203(19)
C139 C 0.5598(3) 0.6263(3) -0.06196(19)
H106 H 0.5334 0.6320 -0.0489
C140 C 0.5424(3) 0.6282(3) -0.1007(2)
H107 H 0.5043 0.6346 -0.1144
C141 C 0.5816(3) 0.6204(3) -0.1189(2)
C142 C 0.6360(3) 0.6080(3) -0.0991(2)
H108 H 0.6618 0.6002 -0.1121
C143 C 0.6529(3) 0.6069(3) -0.0602(2)
H109 H 0.6907 0.5995 -0.0464
C144 C 0.5269(15) 0.6540(13) -0.1792(6)
H110 H 0.5236 0.6511 -0.2058
H111 H 0.4905 0.6473 -0.1756
H112 H 0.5381 0.6847 -0.1708
O9 O 0.7558(2) 0.6307(2) 0.51738(16)
O10 O 0.6243(2) 0.84495(19) -0.10761(18)
N17 N 0.6672(2) 0.58611(19) 0.36648(16)
N18 N 0.6098(2) 0.57381(18) 0.29403(16)
N19 N 0.5405(2) 0.65922(18) 0.02921(14)
N20 N 0.5635(2) 0.71675(17) -0.01922(14)
C145 C 0.6936(3) 0.5966(2) 0.40485(19)
C146 C 0.6689(3) 0.6296(2) 0.4206(2)
H113 H 0.6366 0.6450 0.4052
C147 C 0.6905(3) 0.6403(2) 0.4581(2)
H114 H 0.6728 0.6626 0.4685
C148 C 0.7379(3) 0.6185(3) 0.4805(2)
C149 C 0.7636(3) 0.5864(3) 0.4646(2)
H115 H 0.7967 0.5719 0.4798
C150 C 0.7415(3) 0.5752(3) 0.4272(2)
H116 H 0.7592 0.5529 0.4168
C151 C 0.8009(4) 0.6071(4) 0.5427(3)
H117 H 0.7920 0.5751 0.5415
H118 H 0.8067 0.6181 0.5683
H119 H 0.8354 0.6118 0.5359
C152 C 0.6639(3) 0.5462(2) 0.35430(19)
H120 H 0.6822 0.5226 0.3706
C153 C 0.6319(3) 0.5367(2) 0.31515(18)
C154 C 0.6202(3) 0.4946(2) 0.3008(2)
H121 H 0.6361 0.4693 0.3158
C155 C 0.5854(3) 0.4889(2) 0.2646(2)
H122 H 0.5775 0.4596 0.2544
C156 C 0.5620(3) 0.5254(2) 0.24284(18)
C157 C 0.5761(3) 0.5672(2) 0.25931(19)
H123 H 0.5606 0.5928 0.2447
C158 C 0.5302(3) 0.5527(2) 0.17715(18)
H124 H 0.5582 0.5754 0.1845
C159 C 0.5247(3) 0.5222(2) 0.20345(18)
C160 C 0.4825(3) 0.4886(2) 0.1918(2)
H125 H 0.4789 0.4669 0.2095
C161 C 0.4474(3) 0.4870(3) 0.1559(2)
H126 H 0.4190 0.4647 0.1491
C162 C 0.4522(3) 0.5183(2) 0.12836(19)
C163 C 0.4949(3) 0.5509(2) 0.13940(18)
C164 C 0.5018(3) 0.5821(2) 0.11257(18)
H127 H 0.5309 0.6039 0.1198
C165 C 0.4666(3) 0.5807(2) 0.07617(18)
C166 C 0.4240(3) 0.5476(3) 0.0655(2)
H128 H 0.4000 0.5462 0.0403
C167 C 0.4171(3) 0.5181(3) 0.0908(2)
H129 H 0.3878 0.4966 0.0831
C168 C 0.5295(3) 0.6278(2) 0.05138(18)
H130 H 0.5603 0.6137 0.0693
C169 C 0.4752(3) 0.6148(2) 0.04956(18)
C170 C 0.4309(3) 0.6354(3) 0.0227(2)
H131 H 0.3931 0.6275 0.0204
C171 C 0.4419(3) 0.6676(3) -0.00082(19)
H132 H 0.4118 0.6817 -0.0195
C172 C 0.4968(3) 0.6789(2) 0.00325(17)
C173 C 0.5119(3) 0.7119(2) -0.02105(18)
H133 H 0.4834 0.7295 -0.0380
C174 C 0.5775(3) 0.7506(2) -0.04192(18)
C175 C 0.6147(3) 0.7408(2) -0.06126(18)
H134 H 0.6309 0.7118 -0.0596
C176 C 0.6284(3) 0.7735(2) -0.0832(2)
H135 H 0.6532 0.7663 -0.0972
C177 C 0.6071(3) 0.8156(2) -0.0852(2)
C178 C 0.5702(3) 0.8260(3) -0.0655(2)
H136 H 0.5551 0.8554 -0.0667
C179 C 0.5554(3) 0.7929(2) -0.0438(2)
H137 H 0.5299 0.7998 -0.0304
C180 C 0.5986(5) 0.8881(3) -0.1124(3)
H138 H 0.5576 0.8848 -0.1224
H139 H 0.6121 0.9056 -0.1301
H140 H 0.6086 0.9035 -0.0881
O11 O 0.2944(3) 0.5560(2) 0.39546(17)
O12 O 0.8476(3) 0.64707(18) -0.04564(18)
N21 N 0.3488(2) 0.6428(2) 0.27998(17)
N22 N 0.3851(2) 0.6938(2) 0.23285(17)
N23 N 0.6209(2) 0.74173(17) 0.05795(14)
N24 N 0.6995(2) 0.71570(18) 0.02528(14)
C181 C 0.3326(3) 0.6179(3) 0.3075(2)
C182 C 0.3701(3) 0.6182(3) 0.3440(2)
H141 H 0.4052 0.6333 0.3493
C183 C 0.3563(3) 0.5967(3) 0.3720(2)
H142 H 0.3819 0.5970 0.3968
C184 C 0.3049(3) 0.5741(3) 0.3649(2)
C185 C 0.2679(3) 0.5736(3) 0.3287(2)
H143 H 0.2326 0.5588 0.3234
C186 C 0.2825(3) 0.5947(3) 0.3001(2)
H144 H 0.2577 0.5931 0.2750
C187 C 0.2431(4) 0.5320(4) 0.3895(3)
H145 H 0.2113 0.5529 0.3815
H146 H 0.2432 0.5173 0.4129
H147 H 0.2394 0.5094 0.3699
C188 C 0.3121(3) 0.6656(3) 0.2549(2)
H148 H 0.2734 0.6637 0.2532
C189 C 0.3294(3) 0.6944(3) 0.2293(2)
C190 C 0.2927(3) 0.7224(3) 0.2039(2)
H149 H 0.2534 0.7213 0.2007
C191 C 0.3132(3) 0.7519(3) 0.1830(2)
H150 H 0.2885 0.7725 0.1665
C192 C 0.3703(3) 0.7514(2) 0.1862(2)
C193 C 0.4047(3) 0.7220(2) 0.21208(19)
H151 H 0.4440 0.7219 0.2152
C194 C 0.4379(3) 0.7691(2) 0.15102(19)
H152 H 0.4532 0.7399 0.1568
C195 C 0.3944(3) 0.7820(2) 0.16376(19)
C196 C 0.3722(3) 0.8260(3) 0.1553(2)
H153 H 0.3414 0.8352 0.1634
C197 C 0.3943(3) 0.8545(3) 0.1361(2)
H154 H 0.3794 0.8840 0.1315
C198 C 0.4391(3) 0.8421(2) 0.1224(2)
C199 C 0.4606(3) 0.7979(2) 0.12964(19)
C200 C 0.5049(3) 0.7849(2) 0.11580(19)
H155 H 0.5199 0.7556 0.1209
C201 C 0.5268(3) 0.8134(2) 0.09523(19)
C202 C 0.5046(3) 0.8573(2) 0.0882(2)
H156 H 0.5199 0.8777 0.0746
C203 C 0.4616(3) 0.8703(3) 0.1008(2)
H157 H 0.4463 0.8995 0.0948
C204 C 0.5811(3) 0.7553(2) 0.07152(17)
H158 H 0.5554 0.7336 0.0751
C205 C 0.5740(3) 0.7999(2) 0.08106(19)
C206 C 0.6131(3) 0.8302(3) 0.0767(2)
H159 H 0.6111 0.8606 0.0835
C207 C 0.6554(3) 0.8165(2) 0.0624(2)
H160 H 0.6822 0.8373 0.0591
C208 C 0.6579(3) 0.7720(2) 0.05299(18)
C209 C 0.7003(3) 0.7555(2) 0.03658(18)
H161 H 0.7289 0.7752 0.0344
C210 C 0.7399(3) 0.7011(2) 0.00779(18)
C211 C 0.7558(3) 0.7268(2) -0.01783(19)
H162 H 0.7417 0.7565 -0.0229
C212 C 0.7919(3) 0.7104(2) -0.0363(2)
H163 H 0.8023 0.7285 -0.0539
C213 C 0.8125(3) 0.6675(2) -0.0288(2)
C214 C 0.7986(3) 0.6419(2) -0.0019(2)
H164 H 0.8144 0.6129 0.0042
C215 C 0.7621(3) 0.6585(2) 0.0159(2)
H165 H 0.7522 0.6406 0.0339
C216 C 0.8648(5) 0.6722(3) -0.0725(3)
H166 H 0.8319 0.6864 -0.0903
H167 H 0.8828 0.6522 -0.0862
H168 H 0.8918 0.6953 -0.0596
S1 S 0.53114(14) 0.68831(10) 0.30193(13)
O13 O 0.5161(8) 0.6702(5) 0.2632(4)
O14 O 0.4792(2) 0.6848(2) 0.3093(2)
O15 O 0.5516(3) 0.7338(2) 0.3138(3)
O16 O 0.5754(3) 0.6606(3) 0.3274(3)
O17 O 0.5392(6) 0.7488(5) 0.2376(4)
O18 O 0.6238(4) 0.6668(3) 0.2621(3)
O19 O 0.3515(8) 1.0479(7) 0.3024(5)
B1 B 0.5754(3) 0.6841(2) 0.1688(2)
F1 F 0.6048(3) 0.6498(2) 0.19212(19)
F2 F 0.5975(2) 0.72428(19) 0.18532(19)
F3 F 0.5864(2) 0.68013(19) 0.13538(16)
F4 F 0.5203(2) 0.6805(2) 0.1637(2)
B2 B 0.2908(4) 0.3415(4) 0.3062(3)
F9 F 0.3038(2) 0.2962(2) 0.31464(17)
F10 F 0.3314(2) 0.3679(2) 0.33164(15)
F11 F 0.2925(2) 0.3514(2) 0.27027(15)
F12 F 0.2396(2) 0.3518(2) 0.31020(16)
B3 B 0.5121(3) 0.6969(3) 0.4237(2)
F13 F 0.47835(19) 0.66226(15) 0.40665(16)
F14 F 0.5062(3) 0.7001(2) 0.45888(19)
F15 F 0.5681(2) 0.6882(2) 0.4303(2)
F16 F 0.4949(3) 0.7370(2) 0.4060(2)
B4 B 0.1112(5) 0.1734(5) 0.6075(3)
F20 F 0.0696(2) 0.1488(2) 0.58518(15)
F21 F 0.1625(2) 0.1595(3) 0.60814(19)
F22 F 0.1068(2) 0.1750(2) 0.64356(14)
F23 F 0.1047(3) 0.2175(3) 0.59225(19)
B5 B 0.0781(8) 0.4081(7) 0.6223(6)
F24 F 0.1277(4) 0.4118(4) 0.6068(3)
F25 F 0.0905(4) 0.3757(4) 0.6426(3)
F26 F 0.0305(3) 0.4090(3) 0.5940(3)
F27 F 0.0869(3) 0.4502(3) 0.6381(3)
B6 B 0.1163(8) 0.4752(6) 0.3200(7)
F28 F 0.1421(4) 0.4428(3) 0.3083(3)
F29 F 0.0632(4) 0.4651(4) 0.3073(4)
F30 F 0.1375(4) 0.4671(3) 0.3599(3)
F31 F 0.1296(4) 0.5162(3) 0.3133(3)
B7 B 0.7413(4) 0.0013(3) 0.4933(3)
F32 F 0.7981(3) -0.0043(2) 0.5053(3)
F33 F 0.7285(3) 0.0433(2) 0.4808(3)
F34 F 0.7251(6) -0.0243(5) 0.4603(4)
F35 F 0.7084(5) -0.0200(5) 0.5110(4)
B8 B 0.7229(4) 0.4215(3) 0.3989(4)
F38 F 0.6881(3) 0.4204(3) 0.3622(2)
F39 F 0.7679(2) 0.39550(16) 0.40268(16)
F40 F 0.7391(3) 0.46446(18) 0.4088(2)
F41 F 0.6906(2) 0.40476(18) 0.42056(17)
N26 N 0.7749(5) 0.3467(4) 0.5113(4)
C230 C 0.7946(7) 0.3799(6) 0.5058(4)
C231 C 0.8201(9) 0.4202(6) 0.4993(5)
H180 H 0.7939 0.4364 0.4783
H181 H 0.8546 0.4133 0.4932
H182 H 0.8294 0.4389 0.5219
N27 N 0.5694(4) 0.5262(3) 0.0337(3)
C232 C 0.5475(4) 0.4976(4) 0.0437(4)
C233 C 0.5207(5) 0.4602(4) 0.0548(4)
H183 H 0.4934 0.4469 0.0325
H184 H 0.5010 0.4702 0.0723
H185 H 0.5491 0.4378 0.0671
N28 N 0.5486(8) 0.9397(7) 0.0374(5)
C234 C 0.5691(10) 0.9724(9) 0.0406(6)
C235 C 0.6087(10) 1.0141(9) 0.0445(7)
H186 H 0.6247 1.0144 0.0237
H187 H 0.6393 1.0124 0.0684
H188 H 0.5870 1.0416 0.0439
N29 N 0.9349(10) 0.5212(8) 0.2479(7)
C236 C 0.9565(8) 0.5349(7) 0.2786(6)
C237 C 0.9797(13) 0.5663(11) 0.3071(9)
H189 H 0.9906 0.5933 0.2962
H190 H 1.0129 0.5534 0.3257
H191 H 0.9516 0.5742 0.3195
N32 N 0.6077(11) 0.1045(8) 0.4080(7)
C242 C 0.6175(13) 0.0742(9) 0.3945(8)
C243 C 0.6295(12) 0.0307(8) 0.3811(8)
H192 H 0.6538 0.0340 0.3659
H193 H 0.5950 0.0167 0.3667
H194 H 0.6478 0.0126 0.4026
N34 N 0.3081(7) 0.4964(6) 0.2395(5)
C246 C 0.2865(10) 0.4787(8) 0.2611(7)
C247 C 0.2441(9) 0.4614(8) 0.2731(7)
H198 H 0.2083 0.4756 0.2593
H199 H 0.2525 0.4671 0.3001
H200 H 0.2414 0.4290 0.2685
N35 N 0.1138(9) 0.4820(7) 0.4600(6)
C250 C 0.0834(13) 0.4949(11) 0.4277(9)
C251 C 0.0317(10) 0.4945(8) 0.3964(7)
O31 O 0.0515(4) 0.2842(3) 0.4981(3)
O32 O 0.1279(5) 0.3138(4) 0.4908(3)
C254 C 0.0781(6) 0.3602(5) 0.5182(4)
H204 H 0.1120 0.3782 0.5210
H205 H 0.0456 0.3747 0.5001
H206 H 0.0714 0.3578 0.5426
C255 C 0.0859(6) 0.3150(5) 0.5046(5)
C256 C 0.1310(7) 0.2733(5) 0.4666(5)
H207 H 0.0953 0.2561 0.4592
H208 H 0.1407 0.2820 0.4439
C257 C 0.1750(9) 0.2495(7) 0.4924(6)
H209 H 0.1823 0.2218 0.4807
H210 H 0.2092 0.2679 0.4997
H211 H 0.1643 0.2423 0.5148
O33 O 0.6222(4) 0.3913(3) 0.2515(3)
O34 O 0.6686(4) 0.3317(3) 0.2477(3)
C259 C 0.7217(5) 0.3975(5) 0.2658(5)
H217 H 0.7514 0.3756 0.2665
H218 H 0.7214 0.4208 0.2473
H219 H 0.7291 0.4111 0.2907
C260 C 0.6671(5) 0.3749(4) 0.2551(5)
C261 C 0.6143(5) 0.3071(5) 0.2402(5)
H220 H 0.5830 0.3290 0.2338
H221 H 0.6092 0.2876 0.2180
C262 C 0.6107(6) 0.2804(5) 0.2707(4)
H222 H 0.5741 0.2653 0.2638
H223 H 0.6409 0.2581 0.2768
H224 H 0.6147 0.2995 0.2927
O35 O 0.3665(12) 0.1931(9) 0.4164(9)
O36 O 0.3144(12) 0.1377(8) 0.4191(9)
C263 C 0.2724(16) 0.2056(13) 0.4225(14)
H225 H 0.2387 0.1867 0.4160
H226 H 0.2844 0.2121 0.4495
H227 H 0.2638 0.2337 0.4084
C264 C 0.3182(13) 0.1820(8) 0.4130(12)
C265 C 0.3621(15) 0.1114(10) 0.4132(14)
H228 H 0.3645 0.1177 0.3878
H229 H 0.3979 0.1210 0.4318
C266 C 0.3546(16) 0.0649(9) 0.4170(12)
H230 H 0.3864 0.0486 0.4130
H231 H 0.3529 0.0585 0.4423
H232 H 0.3195 0.0552 0.3984
O39 O 0.1984(12) 0.4196(10) 0.1660(9)
O40 O 0.2690(12) 0.3945(8) 0.1474(8)
C271 C 0.2566(17) 0.4694(10) 0.1422(12)
H241 H 0.2949 0.4674 0.1406
H242 H 0.2297 0.4729 0.1170
H243 H 0.2539 0.4953 0.1576
C272 C 0.2431(14) 0.4274(9) 0.1600(10)
C273 C 0.271(2) 0.3482(10) 0.1615(15)
H244 H 0.2852 0.3484 0.1894
H245 H 0.2331 0.3351 0.1535
C274 C 0.3078(16) 0.3212(10) 0.1478(12)
H246 H 0.3086 0.2907 0.1576
H247 H 0.2939 0.3205 0.1203
H248 H 0.3459 0.3338 0.1561
O43 O 0.2380(5) 0.0718(4) 0.6179(4)
O44 O 0.1479(5) 0.0586(4) 0.6115(3)
C279 C 0.1678(8) 0.0700(7) 0.5562(4)
H257 H 0.1270 0.0648 0.5481
H258 H 0.1756 0.0997 0.5480
H259 H 0.1860 0.0471 0.5452
C280 C 0.1900(6) 0.0673(7) 0.5976(4)
C281 C 0.1599(7) 0.0609(7) 0.6532(4)
H260 H 0.1948 0.0443 0.6662
H261 H 0.1645 0.0924 0.6618
C282 C 0.1126(8) 0.0410(8) 0.6607(6)
H262 H 0.1183 0.0416 0.6878
H263 H 0.0784 0.0577 0.6476
H264 H 0.1086 0.0099 0.6519
O49 O 0.3314(7) 0.1494(5) 0.2617(5)
O50 O 0.3825(12) 0.1977(6) 0.2393(7)
C295 C 0.3781(12) 0.1256(8) 0.2172(8)
H287 H 0.4017 0.1418 0.2049
H288 H 0.3998 0.1008 0.2320
H289 H 0.3449 0.1136 0.1980
C296 C 0.3600(14) 0.1566(7) 0.2423(9)
C297 C 0.3752(13) 0.2320(7) 0.2667(8)
H290 H 0.3350 0.2358 0.2646
H291 H 0.3966 0.2236 0.2928
C298 C 0.3987(11) 0.2734(7) 0.2550(8)
H292 H 0.3959 0.2983 0.2714
H293 H 0.4383 0.2686 0.2569
H294 H 0.3772 0.2807 0.2289
O53 O 0.2452(3) 0.4137(3) 0.3741(2)
loop_
_geom_bond_atom_site_label_1
_geom_bond_atom_site_label_2
_geom_bond_site_symmetry_1
_geom_bond_site_symmetry_2
Zn1 N1 1_555 1_555
Zn2 N15 1_555 1_555
Zn3 N11 1_555 1_555
Zn4 N7 1_555 1_555
Zn5 N3 1_555 1_555
O1 C4 1_555 1_555
O2 C33 1_555 1_555
N1 C1 1_555 1_555
N2 Zn1 1_555 1_555
N3 C24 1_555 1_555
N4 Zn5 1_555 1_555
C1 C2 1_555 1_555
C2 H1 1_555 1_555
C3 C2 1_555 1_555
H2 C3 1_555 1_555
C4 C3 1_555 1_555
C5 C4 1_555 1_555
H3 C5 1_555 1_555
C6 C1 1_555 1_555
H4 C6 1_555 1_555
C7 O1 1_555 1_555
H5 C7 1_555 1_555
H6 C7 1_555 1_555
H7 C7 1_555 1_555
C8 N1 1_555 1_555
H8 C8 1_555 1_555
C9 N2 1_555 1_555
C10 C9 1_555 1_555
H9 C10 1_555 1_555
C11 C10 1_555 1_555
H10 C11 1_555 1_555
C12 C11 1_555 1_555
C13 N2 1_555 1_555
H11 C13 1_555 1_555
C14 H12 1_555 1_555
C15 C12 1_555 1_555
C16 C15 1_555 1_555
H13 C16 1_555 1_555
C17 C16 1_555 1_555
H14 C17 1_555 1_555
C18 C17 1_555 1_555
C19 C14 1_555 1_555
C20 C19 1_555 1_555
H15 C20 1_555 1_555
C21 C20 1_555 1_555
C22 C21 1_555 1_555
H16 C22 1_555 1_555
C23 C18 1_555 1_555
H17 C23 1_555 1_555
C24 H18 1_555 1_555
C25 C21 1_555 1_555
C26 C25 1_555 1_555
H19 C26 1_555 1_555
C27 C26 1_555 1_555
H20 C27 1_555 1_555
C28 N3 1_555 1_555
C29 N4 1_555 1_555
H21 C29 1_555 1_555
C30 N4 1_555 1_555
C31 C30 1_555 1_555
H22 C31 1_555 1_555
C32 C31 1_555 1_555
H23 C32 1_555 1_555
C33 C32 1_555 1_555
C34 C33 1_555 1_555
H24 C34 1_555 1_555
C35 C30 1_555 1_555
H25 C35 1_555 1_555
C36 O2 1_555 1_555
H26 C36 1_555 1_555
H27 C36 1_555 1_555
H28 C36 1_555 1_555
O3 C40 1_555 1_555
O4 C69 1_555 1_555
N5 Zn1 1_555 1_555
N6 Zn1 1_555 1_555
N7 C60 1_555 1_555
N8 Zn4 1_555 1_555
C37 N5 1_555 1_555
C38 C37 1_555 1_555
H29 C38 1_555 1_555
C39 C38 1_555 1_555
H30 C39 1_555 1_555
C40 C39 1_555 1_555
C41 C40 1_555 1_555
H31 C41 1_555 1_555
C42 C37 1_555 1_555
H32 C42 1_555 1_555
C43 O3 1_555 1_555
H33 C43 1_555 1_555
H34 C43 1_555 1_555
H35 C43 1_555 1_555
C44 N5 1_555 1_555
H36 C44 1_555 1_555
C45 N6 1_555 1_555
C46 C45 1_555 1_555
H37 C46 1_555 1_555
C47 C46 1_555 1_555
H38 C47 1_555 1_555
C48 C47 1_555 1_555
C49 N6 1_555 1_555
H39 C49 1_555 1_555
C50 H40 1_555 1_555
C51 C48 1_555 1_555
C52 C51 1_555 1_555
H41 C52 1_555 1_555
C53 C52 1_555 1_555
H42 C53 1_555 1_555
C54 C53 1_555 1_555
C55 C50 1_555 1_555
C56 C55 1_555 1_555
H43 C56 1_555 1_555
C57 C56 1_555 1_555
C58 C57 1_555 1_555
H44 C58 1_555 1_555
C59 C54 1_555 1_555
H45 C59 1_555 1_555
C60 H46 1_555 1_555
C61 C57 1_555 1_555
C62 C61 1_555 1_555
H47 C62 1_555 1_555
C63 C62 1_555 1_555
H48 C63 1_555 1_555
C64 N7 1_555 1_555
C65 N8 1_555 1_555
H49 C65 1_555 1_555
C66 N8 1_555 1_555
C67 C66 1_555 1_555
H50 C67 1_555 1_555
C68 C67 1_555 1_555
H51 C68 1_555 1_555
C69 C68 1_555 1_555
C70 C69 1_555 1_555
H52 C70 1_555 1_555
C71 C66 1_555 1_555
H53 C71 1_555 1_555
C72 O4 1_555 1_555
H54 C72 1_555 1_555
H55 C72 1_555 1_555
H56 C72 1_555 1_555
O5 C76 1_555 1_555
O6 C105 1_555 1_555
N9 Zn1 1_555 1_555
N10 Zn1 1_555 1_555
N11 C96 1_555 1_555
N12 Zn3 1_555 1_555
C73 N9 1_555 1_555
C74 C73 1_555 1_555
H57 C74 1_555 1_555
C75 C74 1_555 1_555
H58 C75 1_555 1_555
C76 C75 1_555 1_555
C77 C76 1_555 1_555
H59 C77 1_555 1_555
C78 C73 1_555 1_555
H60 C78 1_555 1_555
C79 O5 1_555 1_555
H61 C79 1_555 1_555
H62 C79 1_555 1_555
H63 C79 1_555 1_555
C80 N9 1_555 1_555
H64 C80 1_555 1_555
C81 N10 1_555 1_555
C82 C81 1_555 1_555
H65 C82 1_555 1_555
C83 C82 1_555 1_555
H66 C83 1_555 1_555
C84 C83 1_555 1_555
C85 N10 1_555 1_555
H67 C85 1_555 1_555
C86 H68 1_555 1_555
C87 C84 1_555 1_555
C88 C87 1_555 1_555
H69 C88 1_555 1_555
C89 C88 1_555 1_555
H70 C89 1_555 1_555
C90 C89 1_555 1_555
C91 C86 1_555 1_555
C92 C91 1_555 1_555
H71 C92 1_555 1_555
C93 C92 1_555 1_555
C94 C93 1_555 1_555
H72 C94 1_555 1_555
C95 C90 1_555 1_555
H73 C95 1_555 1_555
C96 H74 1_555 1_555
C97 C93 1_555 1_555
C98 C97 1_555 1_555
H75 C98 1_555 1_555
C99 C98 1_555 1_555
H76 C99 1_555 1_555
C100 N11 1_555 1_555
C101 N12 1_555 1_555
H77 C101 1_555 1_555
C102 N12 1_555 1_555
C103 C102 1_555 1_555
H78 C103 1_555 1_555
C104 C103 1_555 1_555
H79 C104 1_555 1_555
C105 C104 1_555 1_555
C106 C105 1_555 1_555
H80 C106 1_555 1_555
C107 C102 1_555 1_555
H81 C107 1_555 1_555
C108 O6 1_555 1_555
H82 C108 1_555 1_555
H83 C108 1_555 1_555
H84 C108 1_555 1_555
O7 C112 1_555 1_555
N13 Zn3 1_555 1_555
C109 N13 1_555 1_555
C110 C109 1_555 1_555
H85 C110 1_555 1_555
C111 C110 1_555 1_555
H86 C111 1_555 1_555
C112 C111 1_555 1_555
C113 C112 1_555 1_555
H87 C113 1_555 1_555
C114 C109 1_555 1_555
H88 C114 1_555 1_555
C115 O7 1_555 1_555
H89 C115 1_555 1_555
H90 C115 1_555 1_555
H91 C115 1_555 1_555
C116 N13 1_555 1_555
H92 C116 1_555 1_555
O8 C141 1_555 1_555
N14 Zn3 1_555 1_555
N15 C132 1_555 1_555
N16 Zn2 1_555 1_555
C117 C116 1_555 1_555
C118 C117 1_555 1_555
H93 C118 1_555 1_555
C119 C118 1_555 1_555
H94 C119 1_555 1_555
C120 C119 1_555 1_555
C121 N14 1_555 1_555
H95 C121 1_555 1_555
C122 H96 1_555 1_555
C123 C120 1_555 1_555
C124 C123 1_555 1_555
H97 C124 1_555 1_555
C125 C124 1_555 1_555
H98 C125 1_555 1_555
C126 C125 1_555 1_555
C127 C122 1_555 1_555
C128 C127 1_555 1_555
H99 C128 1_555 1_555
C129 C128 1_555 1_555
C130 C129 1_555 1_555
H100 C130 1_555 1_555
C131 C126 1_555 1_555
H101 C131 1_555 1_555
C132 H102 1_555 1_555
C133 C129 1_555 1_555
C134 C133 1_555 1_555
H103 C134 1_555 1_555
C135 C134 1_555 1_555
H104 C135 1_555 1_555
C136 N15 1_555 1_555
C137 N16 1_555 1_555
H105 C137 1_555 1_555
C138 N16 1_555 1_555
C139 C138 1_555 1_555
H106 C139 1_555 1_555
C140 C139 1_555 1_555
H107 C140 1_555 1_555
C141 C140 1_555 1_555
C142 C141 1_555 1_555
H108 C142 1_555 1_555
C143 C138 1_555 1_555
H109 C143 1_555 1_555
C144 O8 1_555 1_555
H110 C144 1_555 1_555
H111 C144 1_555 1_555
H112 C144 1_555 1_555
O9 C148 1_555 1_555
O10 C177 1_555 1_555
N17 Zn5 1_555 1_555
N18 Zn5 1_555 1_555
N19 Zn2 1_555 1_555
N20 Zn2 1_555 1_555
C145 N17 1_555 1_555
C146 C145 1_555 1_555
H113 C146 1_555 1_555
C147 C146 1_555 1_555
H114 C147 1_555 1_555
C148 C147 1_555 1_555
C149 C148 1_555 1_555
H115 C149 1_555 1_555
C150 C145 1_555 1_555
H116 C150 1_555 1_555
C151 O9 1_555 1_555
H117 C151 1_555 1_555
H118 C151 1_555 1_555
H119 C151 1_555 1_555
C152 N17 1_555 1_555
H120 C152 1_555 1_555
C153 N18 1_555 1_555
C154 C153 1_555 1_555
H121 C154 1_555 1_555
C155 C154 1_555 1_555
H122 C155 1_555 1_555
C156 C155 1_555 1_555
C157 N18 1_555 1_555
H123 C157 1_555 1_555
C158 H124 1_555 1_555
C159 C156 1_555 1_555
C160 C159 1_555 1_555
H125 C160 1_555 1_555
C161 C160 1_555 1_555
H126 C161 1_555 1_555
C162 C161 1_555 1_555
C163 C158 1_555 1_555
C164 C163 1_555 1_555
H127 C164 1_555 1_555
C165 C164 1_555 1_555
C166 C165 1_555 1_555
H128 C166 1_555 1_555
C167 C162 1_555 1_555
H129 C167 1_555 1_555
C168 N19 1_555 1_555
H130 C168 1_555 1_555
C169 C165 1_555 1_555
C170 C169 1_555 1_555
H131 C170 1_555 1_555
C171 C170 1_555 1_555
H132 C171 1_555 1_555
C172 N19 1_555 1_555
C173 N20 1_555 1_555
H133 C173 1_555 1_555
C174 N20 1_555 1_555
C175 C174 1_555 1_555
H134 C175 1_555 1_555
C176 C175 1_555 1_555
H135 C176 1_555 1_555
C177 C176 1_555 1_555
C178 C177 1_555 1_555
H136 C178 1_555 1_555
C179 C174 1_555 1_555
H137 C179 1_555 1_555
C180 O10 1_555 1_555
H138 C180 1_555 1_555
H139 C180 1_555 1_555
H140 C180 1_555 1_555
O11 C184 1_555 1_555
O12 C213 1_555 1_555
N21 Zn4 1_555 1_555
N22 Zn4 1_555 1_555
N23 Zn2 1_555 1_555
N24 Zn2 1_555 1_555
C181 N21 1_555 1_555
C182 C181 1_555 1_555
H141 C182 1_555 1_555
C183 C182 1_555 1_555
H142 C183 1_555 1_555
C184 C183 1_555 1_555
C185 C184 1_555 1_555
H143 C185 1_555 1_555
C186 C181 1_555 1_555
H144 C186 1_555 1_555
C187 O11 1_555 1_555
H145 C187 1_555 1_555
H146 C187 1_555 1_555
H147 C187 1_555 1_555
C188 N21 1_555 1_555
H148 C188 1_555 1_555
C189 N22 1_555 1_555
C190 C189 1_555 1_555
H149 C190 1_555 1_555
C191 C190 1_555 1_555
H150 C191 1_555 1_555
C192 C191 1_555 1_555
C193 N22 1_555 1_555
H151 C193 1_555 1_555
C194 H152 1_555 1_555
C195 C192 1_555 1_555
C196 C195 1_555 1_555
H153 C196 1_555 1_555
C197 C196 1_555 1_555
H154 C197 1_555 1_555
C198 C197 1_555 1_555
C199 C194 1_555 1_555
C200 C199 1_555 1_555
H155 C200 1_555 1_555
C201 C200 1_555 1_555
C202 C201 1_555 1_555
H156 C202 1_555 1_555
C203 C198 1_555 1_555
H157 C203 1_555 1_555
C204 N23 1_555 1_555
H158 C204 1_555 1_555
C205 C201 1_555 1_555
C206 C205 1_555 1_555
H159 C206 1_555 1_555
C207 C206 1_555 1_555
H160 C207 1_555 1_555
C208 N23 1_555 1_555
C209 N24 1_555 1_555
H161 C209 1_555 1_555
C210 N24 1_555 1_555
C211 C210 1_555 1_555
H162 C211 1_555 1_555
C212 C211 1_555 1_555
H163 C212 1_555 1_555
C213 C212 1_555 1_555
C214 C213 1_555 1_555
H164 C214 1_555 1_555
C215 C210 1_555 1_555
H165 C215 1_555 1_555
C216 O12 1_555 1_555
H166 C216 1_555 1_555
H167 C216 1_555 1_555
H168 C216 1_555 1_555
S1 O13 1_555 1_555
O13 Zn4 1_555 1_555
O14 Zn4 1_555 1_555
O15 Zn3 1_555 1_555
O16 Zn5 1_555 1_555
O17 Zn3 1_555 1_555
O18 Zn5 1_555 1_555
B1 F1 1_555 1_555
F2 B1 1_555 1_555
F3 B1 1_555 1_555
F4 B1 1_555 1_555
B2 F9 1_555 1_555
F10 B2 1_555 1_555
F11 B2 1_555 1_555
F12 B2 1_555 1_555
B3 F13 1_555 1_555
F14 B3 1_555 1_555
F15 B3 1_555 1_555
F16 B3 1_555 1_555
B4 F20 1_555 1_555
F21 B4 1_555 1_555
F22 B4 1_555 1_555
F23 B4 1_555 1_555
B5 F24 1_555 1_555
F25 B5 1_555 1_555
F26 B5 1_555 1_555
F27 B5 1_555 1_555
B6 F28 1_555 1_555
F29 B6 1_555 1_555
F30 B6 1_555 1_555
F31 B6 1_555 1_555
B7 F32 1_555 1_555
F33 B7 1_555 1_555
F34 B7 1_555 1_555
F35 B7 1_555 1_555
B8 F38 1_555 1_555
F39 B8 1_555 1_555
F40 B8 1_555 1_555
F41 B8 1_555 1_555
N26 C230 1_555 1_555
C230 C231 1_555 1_555
C231 H180 1_555 1_555
H181 C231 1_555 1_555
H182 C231 1_555 1_555
N27 C232 1_555 1_555
C232 C233 1_555 1_555
C233 H183 1_555 1_555
H184 C233 1_555 1_555
H185 C233 1_555 1_555
N28 C234 1_555 1_555
C234 C235 1_555 1_555
C235 H186 1_555 1_555
H187 C235 1_555 1_555
H188 C235 1_555 1_555
N29 C236 1_555 1_555
C236 C237 1_555 1_555
C237 H189 1_555 1_555
H190 C237 1_555 1_555
H191 C237 1_555 1_555
N32 C242 1_555 1_555
C242 C243 1_555 1_555
C243 H192 1_555 1_555
H193 C243 1_555 1_555
H194 C243 1_555 1_555
N34 C246 1_555 1_555
C246 C247 1_555 1_555
C247 H198 1_555 1_555
H199 C247 1_555 1_555
H200 C247 1_555 1_555
N35 C250 1_555 1_555
C250 C251 1_555 1_555
O31 C255 1_555 1_555
O32 C255 1_555 1_555
C254 H204 1_555 1_555
H205 C254 1_555 1_555
H206 C254 1_555 1_555
C255 C254 1_555 1_555
C256 O32 1_555 1_555
H207 C256 1_555 1_555
H208 C256 1_555 1_555
C257 C256 1_555 1_555
H209 C257 1_555 1_555
H210 C257 1_555 1_555
H211 C257 1_555 1_555
O33 C260 1_555 1_555
O34 C260 1_555 1_555
C259 H217 1_555 1_555
H218 C259 1_555 1_555
H219 C259 1_555 1_555
C260 C259 1_555 1_555
C261 O34 1_555 1_555
H220 C261 1_555 1_555
H221 C261 1_555 1_555
C262 C261 1_555 1_555
H222 C262 1_555 1_555
H223 C262 1_555 1_555
H224 C262 1_555 1_555
O35 C264 1_555 1_555
O36 C264 1_555 1_555
C263 H225 1_555 1_555
H226 C263 1_555 1_555
H227 C263 1_555 1_555
C264 C263 1_555 1_555
C265 O36 1_555 1_555
H228 C265 1_555 1_555
H229 C265 1_555 1_555
C266 C265 1_555 1_555
H230 C266 1_555 1_555
H231 C266 1_555 1_555
H232 C266 1_555 1_555
O39 C272 1_555 1_555
O40 C272 1_555 1_555
C271 H241 1_555 1_555
H242 C271 1_555 1_555
H243 C271 1_555 1_555
C272 C271 1_555 1_555
C273 O40 1_555 1_555
H244 C273 1_555 1_555
H245 C273 1_555 1_555
C274 C273 1_555 1_555
H246 C274 1_555 1_555
H247 C274 1_555 1_555
H248 C274 1_555 1_555
O43 C280 1_555 1_555
O44 C280 1_555 1_555
C279 H257 1_555 1_555
H258 C279 1_555 1_555
H259 C279 1_555 1_555
C280 C279 1_555 1_555
C281 O44 1_555 1_555
H260 C281 1_555 1_555
H261 C281 1_555 1_555
C282 C281 1_555 1_555
H262 C282 1_555 1_555
H263 C282 1_555 1_555
H264 C282 1_555 1_555
O49 C296 1_555 1_555
O50 C296 1_555 1_555
C295 H287 1_555 1_555
H288 C295 1_555 1_555
H289 C295 1_555 1_555
C296 C295 1_555 1_555
C297 O50 1_555 1_555
H290 C297 1_555 1_555
H291 C297 1_555 1_555
C298 C297 1_555 1_555
H292 C298 1_555 1_555
H293 C298 1_555 1_555
H294 C298 1_555 1_555
C5 C6 1_555 1_555
C8 C9 1_555 1_555
C12 C13 1_555 1_555
C14 C15 1_555 1_555
C18 C19 1_555 1_555
C22 C23 1_555 1_555
C24 C25 1_555 1_555
C27 C28 1_555 1_555
C28 C29 1_555 1_555
C34 C35 1_555 1_555
C41 C42 1_555 1_555
C44 C45 1_555 1_555
C48 C49 1_555 1_555
C50 C51 1_555 1_555
C54 C55 1_555 1_555
C58 C59 1_555 1_555
C60 C61 1_555 1_555
C63 C64 1_555 1_555
C64 C65 1_555 1_555
C70 C71 1_555 1_555
C77 C78 1_555 1_555
C80 C81 1_555 1_555
C84 C85 1_555 1_555
C86 C87 1_555 1_555
C90 C91 1_555 1_555
C94 C95 1_555 1_555
C96 C97 1_555 1_555
C99 C100 1_555 1_555
C100 C101 1_555 1_555
C106 C107 1_555 1_555
C113 C114 1_555 1_555
N14 C117 1_555 1_555
C120 C121 1_555 1_555
C122 C123 1_555 1_555
C126 C127 1_555 1_555
C130 C131 1_555 1_555
C132 C133 1_555 1_555
C135 C136 1_555 1_555
C136 C137 1_555 1_555
C142 C143 1_555 1_555
C149 C150 1_555 1_555
C152 C153 1_555 1_555
C156 C157 1_555 1_555
C158 C159 1_555 1_555
C162 C163 1_555 1_555
C166 C167 1_555 1_555
C168 C169 1_555 1_555
C171 C172 1_555 1_555
C172 C173 1_555 1_555
C178 C179 1_555 1_555
C185 C186 1_555 1_555
C188 C189 1_555 1_555
C192 C193 1_555 1_555
C194 C195 1_555 1_555
C198 C199 1_555 1_555
C202 C203 1_555 1_555
C204 C205 1_555 1_555
C207 C208 1_555 1_555
C208 C209 1_555 1_555
C214 C215 1_555 1_555
S1 O14 1_555 1_555
S1 O15 1_555 1_555
S1 O16 1_555 1_555

#END
