# generated using pymatgen
data_Zn10B30H436C502N62O39F131
_symmetry_space_group_name_H-M   'P 1'
_cell_length_a   18.93790000
_cell_length_b   30.76870000
_cell_length_c   39.74570000
_cell_angle_alpha   90.00000000
_cell_angle_beta   96.53400000
_cell_angle_gamma   90.00000000
_symmetry_Int_Tables_number   1
_chemical_formula_structural   Zn10B30H436C502N62O39F131
_chemical_formula_sum   'Zn20 B60 H872 C1004 N124 O78 F262'
_cell_volume   23009.17022490
_cell_formula_units_Z   2
loop_
 _symmetry_equiv_pos_site_id
 _symmetry_equiv_pos_as_xyz
  1  'x, y, z'
loop_
 _atom_site_type_symbol
 _atom_site_label
 _atom_site_symmetry_multiplicity
 _atom_site_fract_x
 _atom_site_fract_y
 _atom_site_fract_z
 _atom_site_occupancy
  Zn  Zn1  1  0.502340  0.327420  0.057300  1
  Zn  Zn2  1  0.497660  0.827420  0.442700  1
  Zn  Zn3  1  0.497660  0.672580  0.942700  1
  Zn  Zn4  1  0.502340  0.172580  0.557300  1
  Zn  Zn5  1  0.776420  0.215190  0.307110  1
  Zn  Zn6  1  0.223580  0.715190  0.192890  1
  Zn  Zn7  1  0.223580  0.784810  0.692890  1
  Zn  Zn8  1  0.776420  0.284810  0.807110  1
  Zn  Zn9  1  0.905960  0.359610  0.286540  1
  Zn  Zn10  1  0.094040  0.859610  0.213460  1
  Zn  Zn11  1  0.094040  0.640390  0.713460  1
  Zn  Zn12  1  0.905960  0.140390  0.786540  1
  Zn  Zn13  1  0.671800  0.361570  0.337120  1
  Zn  Zn14  1  0.328200  0.861570  0.162880  1
  Zn  Zn15  1  0.328200  0.638430  0.662880  1
  Zn  Zn16  1  0.671800  0.138430  0.837120  1
  Zn  Zn17  1  0.075470  0.296180  0.568190  1
  Zn  Zn18  1  0.924530  0.796180  0.931810  1
  Zn  Zn19  1  0.924530  0.703820  0.431810  1
  Zn  Zn20  1  0.075470  0.203820  0.068190  1
  B  B21  1  0.827800  0.312100  0.340000  1
  B  B22  1  0.172200  0.812100  0.160000  1
  B  B23  1  0.172200  0.687900  0.660000  1
  B  B24  1  0.827800  0.187900  0.840000  1
  B  B25  1  0.658000  0.315400  0.192500  1
  B  B26  1  0.342000  0.815400  0.307500  1
  B  B27  1  0.342000  0.684600  0.807500  1
  B  B28  1  0.658000  0.184600  0.692500  1
  B  B29  1  0.916100  0.303200  0.438700  1
  B  B30  1  0.083900  0.803200  0.061300  1
  B  B31  1  0.083900  0.696800  0.561300  1
  B  B32  1  0.916100  0.196800  0.938700  1
  B  B33  1  0.367400  0.077200  0.102700  1
  B  B34  1  0.632600  0.577200  0.397300  1
  B  B35  1  0.632600  0.922800  0.897300  1
  B  B36  1  0.367400  0.422800  0.602700  1
  B  B37  1  0.394700  0.172100  0.375100  1
  B  B38  1  0.605300  0.672100  0.124900  1
  B  B39  1  0.605300  0.827900  0.624900  1
  B  B40  1  0.394700  0.327900  0.875100  1
  B  B41  1  0.251100  0.499200  0.170300  1
  B  B42  1  0.748900  0.999200  0.329700  1
  B  B43  1  0.748900  0.500800  0.829700  1
  B  B44  1  0.251100  0.000800  0.670300  1
  B  B45  1  0.298200  0.482700  0.430800  1
  B  B46  1  0.701800  0.982700  0.069200  1
  B  B47  1  0.701800  0.517300  0.569200  1
  B  B48  1  0.298200  0.017300  0.930800  1
  B  B49  1  0.189000  0.507000  0.982200  1
  B  B50  1  0.811000  0.007000  0.517800  1
  B  B51  1  0.811000  0.493000  0.017800  1
  B  B52  1  0.189000  0.993000  0.482200  1
  B  B53  1  0.657600  0.311000  0.189900  1
  B  B54  1  0.342400  0.811000  0.310100  1
  B  B55  1  0.342400  0.689000  0.810100  1
  B  B56  1  0.657600  0.189000  0.689900  1
  B  B57  1  0.917900  0.302600  0.430700  1
  B  B58  1  0.082100  0.802600  0.069300  1
  B  B59  1  0.082100  0.697400  0.569300  1
  B  B60  1  0.917900  0.197400  0.930700  1
  B  B61  1  0.402600  0.159000  0.377400  1
  B  B62  1  0.597400  0.659000  0.122600  1
  B  B63  1  0.597400  0.841000  0.622600  1
  B  B64  1  0.402600  0.341000  0.877400  1
  B  B65  1  0.188000  0.503400  0.978700  1
  B  B66  1  0.812000  0.003400  0.521300  1
  B  B67  1  0.812000  0.496600  0.021300  1
  B  B68  1  0.188000  0.996600  0.478700  1
  B  B69  1  0.817000  0.305300  0.339100  1
  B  B70  1  0.183000  0.805300  0.160900  1
  B  B71  1  0.183000  0.694700  0.660900  1
  B  B72  1  0.817000  0.194700  0.839100  1
  B  B73  1  0.750000  0.312700  0.283700  1
  B  B74  1  0.250000  0.812700  0.216300  1
  B  B75  1  0.250000  0.687300  0.716300  1
  B  B76  1  0.750000  0.187300  0.783700  1
  B  B77  1  0.770700  0.313300  0.277800  1
  B  B78  1  0.229300  0.813300  0.222200  1
  B  B79  1  0.229300  0.686700  0.722200  1
  B  B80  1  0.770700  0.186700  0.777800  1
  H  H81  1  0.432800  0.302100  0.974800  1
  H  H82  1  0.567200  0.802100  0.525200  1
  H  H83  1  0.567200  0.697900  0.025200  1
  H  H84  1  0.432800  0.197900  0.474800  1
  H  H85  1  0.381500  0.251900  0.936200  1
  H  H86  1  0.618500  0.751900  0.563800  1
  H  H87  1  0.618500  0.748100  0.063800  1
  H  H88  1  0.381500  0.248100  0.436200  1
  H  H89  1  0.541400  0.167900  0.964000  1
  H  H90  1  0.458600  0.667900  0.536000  1
  H  H91  1  0.458600  0.832100  0.036000  1
  H  H92  1  0.541400  0.332100  0.464000  1
  H  H93  1  0.596700  0.221000  0.000500  1
  H  H94  1  0.403300  0.721000  0.499500  1
  H  H95  1  0.403300  0.779000  0.999500  1
  H  H96  1  0.596700  0.279000  0.500500  1
  H  H97  1  0.493700  0.137200  0.909700  1
  H  H98  1  0.506300  0.637200  0.590300  1
  H  H99  1  0.506300  0.862800  0.090300  1
  H  H100  1  0.493700  0.362800  0.409700  1
  H  H101  1  0.415900  0.116100  0.906400  1
  H  H102  1  0.584100  0.616100  0.593600  1
  H  H103  1  0.584100  0.883900  0.093600  1
  H  H104  1  0.415900  0.383900  0.406400  1
  H  H105  1  0.461100  0.120500  0.942800  1
  H  H106  1  0.538900  0.620500  0.557200  1
  H  H107  1  0.538900  0.879500  0.057200  1
  H  H108  1  0.461100  0.379500  0.442800  1
  H  H109  1  0.644100  0.294100  0.000000  1
  H  H110  1  0.355900  0.794100  0.500000  1
  H  H111  1  0.355900  0.705900  0.000000  1
  H  H112  1  0.644100  0.205900  0.500000  1
  H  H113  1  0.750500  0.337700  0.026500  1
  H  H114  1  0.249500  0.837700  0.473500  1
  H  H115  1  0.249500  0.662300  0.973500  1
  H  H116  1  0.750500  0.162300  0.526500  1
  H  H117  1  0.795200  0.387700  0.066600  1
  H  H118  1  0.204800  0.887700  0.433400  1
  H  H119  1  0.204800  0.612300  0.933400  1
  H  H120  1  0.795200  0.112300  0.566600  1
  H  H121  1  0.609500  0.385400  0.105900  1
  H  H122  1  0.390500  0.885400  0.394100  1
  H  H123  1  0.390500  0.614600  0.894100  1
  H  H124  1  0.609500  0.114600  0.605900  1
  H  H125  1  0.795000  0.460100  0.089200  1
  H  H126  1  0.205000  0.960100  0.410800  1
  H  H127  1  0.205000  0.539900  0.910800  1
  H  H128  1  0.795000  0.039900  0.589200  1
  H  H129  1  0.835100  0.508500  0.131300  1
  H  H130  1  0.164900  0.008500  0.368700  1
  H  H131  1  0.164900  0.491500  0.868700  1
  H  H132  1  0.835100  0.991500  0.631300  1
  H  H133  1  0.681700  0.396300  0.154200  1
  H  H134  1  0.318300  0.896300  0.345800  1
  H  H135  1  0.318300  0.603700  0.845800  1
  H  H136  1  0.681700  0.103700  0.654200  1
  H  H137  1  0.834400  0.535800  0.190400  1
  H  H138  1  0.165600  0.035800  0.309600  1
  H  H139  1  0.165600  0.464200  0.809600  1
  H  H140  1  0.834400  0.964200  0.690400  1
  H  H141  1  0.794600  0.529900  0.242900  1
  H  H142  1  0.205400  0.029900  0.257100  1
  H  H143  1  0.205400  0.470100  0.757100  1
  H  H144  1  0.794600  0.970100  0.742900  1
  H  H145  1  0.687400  0.420600  0.212800  1
  H  H146  1  0.312600  0.920600  0.287200  1
  H  H147  1  0.312600  0.579400  0.787200  1
  H  H148  1  0.687400  0.079400  0.712800  1
  H  H149  1  0.721200  0.404100  0.269100  1
  H  H150  1  0.278800  0.904100  0.230900  1
  H  H151  1  0.278800  0.595900  0.730900  1
  H  H152  1  0.721200  0.095900  0.769100  1
  H  H153  1  0.698500  0.532400  0.277800  1
  H  H154  1  0.301500  0.032400  0.222200  1
  H  H155  1  0.301500  0.467600  0.722200  1
  H  H156  1  0.698500  0.967600  0.777800  1
  H  H157  1  0.667100  0.521700  0.331800  1
  H  H158  1  0.332900  0.021700  0.168200  1
  H  H159  1  0.332900  0.478300  0.668200  1
  H  H160  1  0.667100  0.978300  0.831800  1
  H  H161  1  0.653000  0.469500  0.380500  1
  H  H162  1  0.347000  0.969500  0.119500  1
  H  H163  1  0.347000  0.530500  0.619500  1
  H  H164  1  0.653000  0.030500  0.880500  1
  H  H165  1  0.589200  0.444800  0.420100  1
  H  H166  1  0.410800  0.944800  0.079900  1
  H  H167  1  0.410800  0.555200  0.579900  1
  H  H168  1  0.589200  0.055200  0.920100  1
  H  H169  1  0.586900  0.431000  0.477500  1
  H  H170  1  0.413100  0.931000  0.022500  1
  H  H171  1  0.413100  0.569000  0.522500  1
  H  H172  1  0.586900  0.069000  0.977500  1
  H  H173  1  0.733400  0.336600  0.472800  1
  H  H174  1  0.266600  0.836600  0.027200  1
  H  H175  1  0.266600  0.663400  0.527200  1
  H  H176  1  0.733400  0.163400  0.972800  1
  H  H177  1  0.737300  0.351100  0.416300  1
  H  H178  1  0.262700  0.851100  0.083700  1
  H  H179  1  0.262700  0.648900  0.583700  1
  H  H180  1  0.737300  0.148900  0.916300  1
  H  H181  1  0.635400  0.425300  0.533300  1
  H  H182  1  0.364600  0.925300  0.966700  1
  H  H183  1  0.364600  0.574700  0.466700  1
  H  H184  1  0.635400  0.074700  0.033300  1
  H  H185  1  0.626300  0.383400  0.556300  1
  H  H186  1  0.373700  0.883400  0.943700  1
  H  H187  1  0.373700  0.616600  0.443700  1
  H  H188  1  0.626300  0.116600  0.056300  1
  H  H189  1  0.571000  0.392300  0.523500  1
  H  H190  1  0.429000  0.892300  0.976500  1
  H  H191  1  0.429000  0.607700  0.476500  1
  H  H192  1  0.571000  0.107700  0.023500  1
  H  H193  1  0.312900  0.247800  0.004300  1
  H  H194  1  0.687100  0.747800  0.495700  1
  H  H195  1  0.687100  0.752200  0.995700  1
  H  H196  1  0.312900  0.252200  0.504300  1
  H  H197  1  0.213000  0.273500  0.970000  1
  H  H198  1  0.787000  0.773500  0.530000  1
  H  H199  1  0.787000  0.726500  0.030000  1
  H  H200  1  0.213000  0.226500  0.470000  1
  H  H201  1  0.246000  0.393200  0.009300  1
  H  H202  1  0.754000  0.893200  0.490700  1
  H  H203  1  0.754000  0.606800  0.990700  1
  H  H204  1  0.246000  0.106800  0.509300  1
  H  H205  1  0.344400  0.368100  0.043400  1
  H  H206  1  0.655600  0.868100  0.456600  1
  H  H207  1  0.655600  0.631900  0.956600  1
  H  H208  1  0.344400  0.131900  0.543400  1
  H  H209  1  0.097600  0.395900  0.948500  1
  H  H210  1  0.902400  0.895900  0.551500  1
  H  H211  1  0.902400  0.604100  0.051500  1
  H  H212  1  0.097600  0.104100  0.448500  1
  H  H213  1  0.130500  0.403200  0.987000  1
  H  H214  1  0.869500  0.903200  0.513000  1
  H  H215  1  0.869500  0.596800  0.013000  1
  H  H216  1  0.130500  0.096800  0.487000  1
  H  H217  1  0.178300  0.411500  0.956900  1
  H  H218  1  0.821700  0.911500  0.543100  1
  H  H219  1  0.821700  0.588500  0.043100  1
  H  H220  1  0.178300  0.088500  0.456900  1
  H  H221  1  0.367900  0.234500  0.054800  1
  H  H222  1  0.632100  0.734500  0.445200  1
  H  H223  1  0.632100  0.765500  0.945200  1
  H  H224  1  0.367900  0.265500  0.554800  1
  H  H225  1  0.439000  0.174400  0.082600  1
  H  H226  1  0.561000  0.674400  0.417400  1
  H  H227  1  0.561000  0.825600  0.917400  1
  H  H228  1  0.439000  0.325600  0.582600  1
  H  H229  1  0.544900  0.150400  0.110800  1
  H  H230  1  0.455100  0.650400  0.389200  1
  H  H231  1  0.455100  0.849600  0.889200  1
  H  H232  1  0.544900  0.349600  0.610800  1
  H  H233  1  0.627400  0.269400  0.102000  1
  H  H234  1  0.372600  0.769400  0.398000  1
  H  H235  1  0.372600  0.730600  0.898000  1
  H  H236  1  0.627400  0.230600  0.602000  1
  H  H237  1  0.707400  0.249000  0.143900  1
  H  H238  1  0.292600  0.749000  0.356100  1
  H  H239  1  0.292600  0.751000  0.856100  1
  H  H240  1  0.707400  0.251000  0.643900  1
  H  H241  1  0.654100  0.127000  0.113300  1
  H  H242  1  0.345900  0.627000  0.386700  1
  H  H243  1  0.345900  0.873000  0.886700  1
  H  H244  1  0.654100  0.373000  0.613300  1
  H  H245  1  0.756700  0.100400  0.142000  1
  H  H246  1  0.243300  0.600400  0.358000  1
  H  H247  1  0.243300  0.899600  0.858000  1
  H  H248  1  0.756700  0.399600  0.642000  1
  H  H249  1  0.817600  0.261100  0.182200  1
  H  H250  1  0.182400  0.761100  0.317800  1
  H  H251  1  0.182400  0.738900  0.817800  1
  H  H252  1  0.817600  0.238900  0.682200  1
  H  H253  1  0.944800  0.159300  0.210900  1
  H  H254  1  0.055200  0.659300  0.289100  1
  H  H255  1  0.055200  0.840700  0.789100  1
  H  H256  1  0.944800  0.340700  0.710900  1
  H  H257  1  0.869700  0.112200  0.180300  1
  H  H258  1  0.130300  0.612200  0.319700  1
  H  H259  1  0.130300  0.887800  0.819700  1
  H  H260  1  0.869700  0.387800  0.680300  1
  H  H261  1  0.857300  0.284200  0.233100  1
  H  H262  1  0.142700  0.784200  0.266900  1
  H  H263  1  0.142700  0.715800  0.766900  1
  H  H264  1  0.857300  0.215800  0.733100  1
  H  H265  1  0.031000  0.214900  0.220100  1
  H  H266  1  0.969000  0.714900  0.279900  1
  H  H267  1  0.969000  0.785100  0.779900  1
  H  H268  1  0.031000  0.285100  0.720100  1
  H  H269  1  0.096900  0.258800  0.259000  1
  H  H270  1  0.903100  0.758800  0.241000  1
  H  H271  1  0.903100  0.741200  0.741000  1
  H  H272  1  0.096900  0.241200  0.759000  1
  H  H273  1  0.099700  0.323200  0.300800  1
  H  H274  1  0.900300  0.823200  0.199200  1
  H  H275  1  0.900300  0.676800  0.699200  1
  H  H276  1  0.099700  0.176800  0.800800  1
  H  H277  1  0.070300  0.432300  0.301700  1
  H  H278  1  0.929700  0.932300  0.198300  1
  H  H279  1  0.929700  0.567700  0.698300  1
  H  H280  1  0.070300  0.067700  0.801700  1
  H  H281  1  0.100800  0.483600  0.346400  1
  H  H282  1  0.899200  0.983600  0.153600  1
  H  H283  1  0.899200  0.516400  0.653600  1
  H  H284  1  0.100800  0.016400  0.846400  1
  H  H285  1  0.062400  0.392400  0.414600  1
  H  H286  1  0.937600  0.892400  0.085400  1
  H  H287  1  0.937600  0.607600  0.585400  1
  H  H288  1  0.062400  0.107600  0.914600  1
  H  H289  1  0.025300  0.345600  0.370800  1
  H  H290  1  0.974700  0.845600  0.129200  1
  H  H291  1  0.974700  0.654400  0.629200  1
  H  H292  1  0.025300  0.154400  0.870800  1
  H  H293  1  0.103200  0.485300  0.459900  1
  H  H294  1  0.896800  0.985300  0.040100  1
  H  H295  1  0.896800  0.514700  0.540100  1
  H  H296  1  0.103200  0.014700  0.959900  1
  H  H297  1  0.039600  0.453200  0.446500  1
  H  H298  1  0.960400  0.953200  0.053500  1
  H  H299  1  0.960400  0.546800  0.553500  1
  H  H300  1  0.039600  0.046800  0.946500  1
  H  H301  1  0.119500  0.435400  0.452200  1
  H  H302  1  0.880500  0.935400  0.047800  1
  H  H303  1  0.880500  0.564600  0.547800  1
  H  H304  1  0.119500  0.064600  0.952200  1
  H  H305  1  0.447000  0.375500  0.975400  1
  H  H306  1  0.553000  0.875500  0.524600  1
  H  H307  1  0.553000  0.624500  0.024600  1
  H  H308  1  0.447000  0.124500  0.475400  1
  H  H309  1  0.485100  0.402900  0.925300  1
  H  H310  1  0.514900  0.902900  0.574700  1
  H  H311  1  0.514900  0.597100  0.074700  1
  H  H312  1  0.485100  0.097100  0.425300  1
  H  H313  1  0.626000  0.479500  0.982000  1
  H  H314  1  0.374000  0.979500  0.518000  1
  H  H315  1  0.374000  0.520500  0.018000  1
  H  H316  1  0.626000  0.020500  0.482000  1
  H  H317  1  0.583900  0.450800  0.031800  1
  H  H318  1  0.416100  0.950800  0.468200  1
  H  H319  1  0.416100  0.549200  0.968200  1
  H  H320  1  0.583900  0.049200  0.531800  1
  H  H321  1  0.626500  0.473200  0.877900  1
  H  H322  1  0.373500  0.973200  0.622100  1
  H  H323  1  0.373500  0.526800  0.122100  1
  H  H324  1  0.626500  0.026800  0.377900  1
  H  H325  1  0.629500  0.422900  0.888300  1
  H  H326  1  0.370500  0.922900  0.611700  1
  H  H327  1  0.370500  0.577100  0.111700  1
  H  H328  1  0.629500  0.077100  0.388300  1
  H  H329  1  0.555300  0.444800  0.874300  1
  H  H330  1  0.444700  0.944800  0.625700  1
  H  H331  1  0.444700  0.555200  0.125700  1
  H  H332  1  0.555300  0.055200  0.374300  1
  H  H333  1  0.465300  0.450800  0.054000  1
  H  H334  1  0.534700  0.950800  0.446000  1
  H  H335  1  0.534700  0.549200  0.946000  1
  H  H336  1  0.465300  0.049200  0.554000  1
  H  H337  1  0.408100  0.459400  0.108600  1
  H  H338  1  0.591900  0.959400  0.391400  1
  H  H339  1  0.591900  0.540600  0.891400  1
  H  H340  1  0.408100  0.040600  0.608600  1
  H  H341  1  0.380900  0.431400  0.160300  1
  H  H342  1  0.619100  0.931400  0.339700  1
  H  H343  1  0.619100  0.568600  0.839700  1
  H  H344  1  0.380900  0.068600  0.660300  1
  H  H345  1  0.464300  0.317500  0.133100  1
  H  H346  1  0.535700  0.817500  0.366900  1
  H  H347  1  0.535700  0.682500  0.866900  1
  H  H348  1  0.464300  0.182500  0.633100  1
  H  H349  1  0.500300  0.316200  0.190000  1
  H  H350  1  0.499700  0.816200  0.310000  1
  H  H351  1  0.499700  0.683800  0.810000  1
  H  H352  1  0.500300  0.183800  0.690000  1
  H  H353  1  0.314500  0.380800  0.190600  1
  H  H354  1  0.685500  0.880800  0.309400  1
  H  H355  1  0.685500  0.619200  0.809400  1
  H  H356  1  0.314500  0.119200  0.690600  1
  H  H357  1  0.292800  0.345900  0.239400  1
  H  H358  1  0.707200  0.845900  0.260600  1
  H  H359  1  0.707200  0.654100  0.760600  1
  H  H360  1  0.292800  0.154100  0.739400  1
  H  H361  1  0.539500  0.266300  0.237300  1
  H  H362  1  0.460500  0.766300  0.262700  1
  H  H363  1  0.460500  0.733700  0.762700  1
  H  H364  1  0.539500  0.233700  0.737300  1
  H  H365  1  0.411100  0.243800  0.310100  1
  H  H366  1  0.588900  0.743800  0.189900  1
  H  H367  1  0.588900  0.756200  0.689900  1
  H  H368  1  0.411100  0.256200  0.810100  1
  H  H369  1  0.328800  0.290400  0.284500  1
  H  H370  1  0.671200  0.790400  0.215500  1
  H  H371  1  0.671200  0.709600  0.715500  1
  H  H372  1  0.328800  0.209600  0.784500  1
  H  H373  1  0.624100  0.256500  0.281000  1
  H  H374  1  0.375900  0.756500  0.219000  1
  H  H375  1  0.375900  0.743500  0.719000  1
  H  H376  1  0.624100  0.243500  0.781000  1
  H  H377  1  0.477300  0.175300  0.310700  1
  H  H378  1  0.522700  0.675300  0.189300  1
  H  H379  1  0.522700  0.824700  0.689300  1
  H  H380  1  0.477300  0.324700  0.810700  1
  H  H381  1  0.568600  0.134400  0.339100  1
  H  H382  1  0.431400  0.634400  0.160900  1
  H  H383  1  0.431400  0.865600  0.660900  1
  H  H384  1  0.568600  0.365600  0.839100  1
  H  H385  1  0.699100  0.124600  0.357200  1
  H  H386  1  0.300900  0.624600  0.142800  1
  H  H387  1  0.300900  0.875400  0.642800  1
  H  H388  1  0.699100  0.375400  0.857200  1
  H  H389  1  0.867500  0.205800  0.381800  1
  H  H390  1  0.132500  0.705800  0.118200  1
  H  H391  1  0.132500  0.794200  0.618200  1
  H  H392  1  0.867500  0.294200  0.881800  1
  H  H393  1  0.957900  0.179000  0.420900  1
  H  H394  1  0.042100  0.679000  0.079100  1
  H  H395  1  0.042100  0.821000  0.579100  1
  H  H396  1  0.957900  0.321000  0.920900  1
  H  H397  1  0.887200  0.056100  0.400700  1
  H  H398  1  0.112800  0.556100  0.099300  1
  H  H399  1  0.112800  0.943900  0.599300  1
  H  H400  1  0.887200  0.443900  0.900700  1
  H  H401  1  0.796600  0.084200  0.361900  1
  H  H402  1  0.203400  0.584200  0.138100  1
  H  H403  1  0.203400  0.915800  0.638100  1
  H  H404  1  0.796600  0.415800  0.861900  1
  H  H405  1  0.015900  0.043100  0.464500  1
  H  H406  1  0.984100  0.543100  0.035500  1
  H  H407  1  0.984100  0.956900  0.535500  1
  H  H408  1  0.015900  0.456900  0.964500  1
  H  H409  1  0.932300  0.052100  0.462600  1
  H  H410  1  0.067700  0.552100  0.037400  1
  H  H411  1  0.067700  0.947900  0.537400  1
  H  H412  1  0.932300  0.447900  0.962600  1
  H  H413  1  0.964800  0.030900  0.430900  1
  H  H414  1  0.035200  0.530900  0.069100  1
  H  H415  1  0.035200  0.969100  0.569100  1
  H  H416  1  0.964800  0.469100  0.930900  1
  H  H417  1  0.466500  0.425600  0.318000  1
  H  H418  1  0.533500  0.925600  0.182000  1
  H  H419  1  0.533500  0.574400  0.682000  1
  H  H420  1  0.466500  0.074400  0.818000  1
  H  H421  1  0.420600  0.474000  0.276000  1
  H  H422  1  0.579400  0.974000  0.224000  1
  H  H423  1  0.579400  0.526000  0.724000  1
  H  H424  1  0.420600  0.026000  0.776000  1
  H  H425  1  0.546900  0.420400  0.211200  1
  H  H426  1  0.453100  0.920400  0.288800  1
  H  H427  1  0.453100  0.579600  0.788800  1
  H  H428  1  0.546900  0.079600  0.711200  1
  H  H429  1  0.592300  0.372600  0.254100  1
  H  H430  1  0.407700  0.872600  0.245900  1
  H  H431  1  0.407700  0.627400  0.745900  1
  H  H432  1  0.592300  0.127400  0.754100  1
  H  H433  1  0.405000  0.532000  0.197500  1
  H  H434  1  0.595000  0.032000  0.302500  1
  H  H435  1  0.595000  0.468000  0.802500  1
  H  H436  1  0.405000  0.968000  0.697500  1
  H  H437  1  0.377800  0.511600  0.230800  1
  H  H438  1  0.622200  0.011600  0.269200  1
  H  H439  1  0.622200  0.488400  0.769200  1
  H  H440  1  0.377800  0.988400  0.730800  1
  H  H441  1  0.452900  0.536000  0.233200  1
  H  H442  1  0.547100  0.036000  0.266800  1
  H  H443  1  0.547100  0.464000  0.766800  1
  H  H444  1  0.452900  0.964000  0.733200  1
  H  H445  1  0.472300  0.340900  0.330600  1
  H  H446  1  0.527700  0.840900  0.169400  1
  H  H447  1  0.527700  0.659100  0.669400  1
  H  H448  1  0.472300  0.159100  0.830600  1
  H  H449  1  0.470500  0.275100  0.369500  1
  H  H450  1  0.529500  0.775100  0.130500  1
  H  H451  1  0.529500  0.724900  0.630500  1
  H  H452  1  0.470500  0.224900  0.869500  1
  H  H453  1  0.532000  0.223700  0.404500  1
  H  H454  1  0.468000  0.723700  0.095500  1
  H  H455  1  0.468000  0.776300  0.595500  1
  H  H456  1  0.532000  0.276300  0.904500  1
  H  H457  1  0.713000  0.280700  0.385600  1
  H  H458  1  0.287000  0.780700  0.114400  1
  H  H459  1  0.287000  0.719300  0.614400  1
  H  H460  1  0.713000  0.219300  0.885600  1
  H  H461  1  0.754100  0.254600  0.437600  1
  H  H462  1  0.245900  0.754600  0.062400  1
  H  H463  1  0.245900  0.745400  0.562400  1
  H  H464  1  0.754100  0.245400  0.937600  1
  H  H465  1  0.603800  0.163300  0.411300  1
  H  H466  1  0.396200  0.663300  0.088700  1
  H  H467  1  0.396200  0.836700  0.588700  1
  H  H468  1  0.603800  0.336700  0.911300  1
  H  H469  1  0.672600  0.111200  0.439400  1
  H  H470  1  0.327400  0.611200  0.060600  1
  H  H471  1  0.327400  0.888800  0.560600  1
  H  H472  1  0.672600  0.388800  0.939400  1
  H  H473  1  0.863200  0.233700  0.475000  1
  H  H474  1  0.136800  0.733700  0.025000  1
  H  H475  1  0.136800  0.766300  0.525000  1
  H  H476  1  0.863200  0.266300  0.975000  1
  H  H477  1  0.892900  0.108900  0.503200  1
  H  H478  1  0.107100  0.608900  0.996800  1
  H  H479  1  0.107100  0.891100  0.496800  1
  H  H480  1  0.892900  0.391100  0.003200  1
  H  H481  1  0.786100  0.090700  0.474400  1
  H  H482  1  0.213900  0.590700  0.025600  1
  H  H483  1  0.213900  0.909300  0.525600  1
  H  H484  1  0.786100  0.409300  0.974400  1
  H  H485  1  0.942300  0.247600  0.520200  1
  H  H486  1  0.057700  0.747600  0.979800  1
  H  H487  1  0.057700  0.752400  0.479800  1
  H  H488  1  0.942300  0.252400  0.020200  1
  H  H489  1  0.005200  0.125900  0.505300  1
  H  H490  1  0.994800  0.625900  0.994700  1
  H  H491  1  0.994800  0.874100  0.494700  1
  H  H492  1  0.005200  0.374100  0.005300  1
  H  H493  1  0.113500  0.142000  0.535300  1
  H  H494  1  0.886500  0.642000  0.964700  1
  H  H495  1  0.886500  0.858000  0.464700  1
  H  H496  1  0.113500  0.358000  0.035300  1
  H  H497  1  0.194200  0.195100  0.567000  1
  H  H498  1  0.805800  0.695100  0.933000  1
  H  H499  1  0.805800  0.804900  0.433000  1
  H  H500  1  0.194200  0.304900  0.067000  1
  H  H501  1  0.248600  0.321300  0.584200  1
  H  H502  1  0.751400  0.821300  0.915800  1
  H  H503  1  0.751400  0.678700  0.415800  1
  H  H504  1  0.248600  0.178700  0.084200  1
  H  H505  1  0.345500  0.336000  0.624200  1
  H  H506  1  0.654500  0.836000  0.875800  1
  H  H507  1  0.654500  0.664000  0.375800  1
  H  H508  1  0.345500  0.164000  0.124200  1
  H  H509  1  0.334600  0.215900  0.660700  1
  H  H510  1  0.665400  0.715900  0.839300  1
  H  H511  1  0.665400  0.784100  0.339300  1
  H  H512  1  0.334600  0.284100  0.160700  1
  H  H513  1  0.238100  0.200000  0.622200  1
  H  H514  1  0.761900  0.700000  0.877800  1
  H  H515  1  0.761900  0.800000  0.377800  1
  H  H516  1  0.238100  0.300000  0.122200  1
  H  H517  1  0.444800  0.337200  0.658000  1
  H  H518  1  0.555200  0.837200  0.842000  1
  H  H519  1  0.555200  0.662800  0.342000  1
  H  H520  1  0.444800  0.162800  0.158000  1
  H  H521  1  0.465800  0.326000  0.697200  1
  H  H522  1  0.534200  0.826000  0.802800  1
  H  H523  1  0.534200  0.674000  0.302800  1
  H  H524  1  0.465800  0.174000  0.197200  1
  H  H525  1  0.388700  0.345100  0.684600  1
  H  H526  1  0.611300  0.845100  0.815400  1
  H  H527  1  0.611300  0.654900  0.315400  1
  H  H528  1  0.388700  0.154900  0.184600  1
  H  H529  1  0.840000  0.355500  0.206900  1
  H  H530  1  0.160000  0.855500  0.293100  1
  H  H531  1  0.160000  0.644500  0.793100  1
  H  H532  1  0.840000  0.144500  0.706900  1
  H  H533  1  0.843100  0.346700  0.149400  1
  H  H534  1  0.156900  0.846700  0.350600  1
  H  H535  1  0.156900  0.653300  0.850600  1
  H  H536  1  0.843100  0.153300  0.649400  1
  H  H537  1  0.994200  0.439500  0.149800  1
  H  H538  1  0.005800  0.939500  0.350200  1
  H  H539  1  0.005800  0.560500  0.850200  1
  H  H540  1  0.994200  0.060500  0.649800  1
  H  H541  1  0.992000  0.448500  0.208300  1
  H  H542  1  0.008000  0.948500  0.291700  1
  H  H543  1  0.008000  0.551500  0.791700  1
  H  H544  1  0.992000  0.051500  0.708300  1
  H  H545  1  0.947000  0.440100  0.094300  1
  H  H546  1  0.053000  0.940100  0.405700  1
  H  H547  1  0.053000  0.559900  0.905700  1
  H  H548  1  0.947000  0.059900  0.594300  1
  H  H549  1  0.951700  0.400700  0.068400  1
  H  H550  1  0.048300  0.900700  0.431600  1
  H  H551  1  0.048300  0.599300  0.931600  1
  H  H552  1  0.951700  0.099300  0.568400  1
  H  H553  1  0.009200  0.404900  0.101000  1
  H  H554  1  0.990800  0.904900  0.399000  1
  H  H555  1  0.990800  0.595100  0.899000  1
  H  H556  1  0.009200  0.095100  0.601000  1
  H  H557  1  0.921900  0.470800  0.246900  1
  H  H558  1  0.078100  0.970800  0.253100  1
  H  H559  1  0.078100  0.529200  0.753100  1
  H  H560  1  0.921900  0.029200  0.746900  1
  H  H561  1  0.907100  0.519300  0.297300  1
  H  H562  1  0.092900  0.019300  0.202700  1
  H  H563  1  0.092900  0.480700  0.702700  1
  H  H564  1  0.907100  0.980700  0.797300  1
  H  H565  1  0.880900  0.527000  0.352400  1
  H  H566  1  0.119100  0.027000  0.147600  1
  H  H567  1  0.119100  0.473000  0.647600  1
  H  H568  1  0.880900  0.973000  0.852400  1
  H  H569  1  0.871100  0.397000  0.358300  1
  H  H570  1  0.128900  0.897000  0.141700  1
  H  H571  1  0.128900  0.603000  0.641700  1
  H  H572  1  0.871100  0.103000  0.858300  1
  H  H573  1  0.906200  0.412800  0.415200  1
  H  H574  1  0.093800  0.912800  0.084800  1
  H  H575  1  0.093800  0.587200  0.584800  1
  H  H576  1  0.906200  0.087200  0.915200  1
  H  H577  1  0.788100  0.519300  0.389200  1
  H  H578  1  0.211900  0.019300  0.110800  1
  H  H579  1  0.211900  0.480700  0.610800  1
  H  H580  1  0.788100  0.980700  0.889200  1
  H  H581  1  0.748000  0.521000  0.441200  1
  H  H582  1  0.252000  0.021000  0.058800  1
  H  H583  1  0.252000  0.479000  0.558800  1
  H  H584  1  0.748000  0.979000  0.941200  1
  H  H585  1  0.910500  0.383100  0.473300  1
  H  H586  1  0.089500  0.883100  0.026700  1
  H  H587  1  0.089500  0.616900  0.526700  1
  H  H588  1  0.910500  0.116900  0.973300  1
  H  H589  1  0.790300  0.439600  0.539100  1
  H  H590  1  0.209700  0.939600  0.960900  1
  H  H591  1  0.209700  0.560400  0.460900  1
  H  H592  1  0.790300  0.060400  0.039100  1
  H  H593  1  0.750800  0.490100  0.499600  1
  H  H594  1  0.249200  0.990100  0.000400  1
  H  H595  1  0.249200  0.509900  0.500400  1
  H  H596  1  0.750800  0.009900  0.999600  1
  H  H597  1  0.976400  0.362300  0.521300  1
  H  H598  1  0.023600  0.862300  0.978700  1
  H  H599  1  0.023600  0.637700  0.478700  1
  H  H600  1  0.976400  0.137700  0.021300  1
  H  H601  1  0.787800  0.366800  0.557500  1
  H  H602  1  0.212200  0.866800  0.942500  1
  H  H603  1  0.212200  0.633200  0.442500  1
  H  H604  1  0.787800  0.133200  0.057500  1
  H  H605  1  0.827100  0.314100  0.596400  1
  H  H606  1  0.172900  0.814100  0.903600  1
  H  H607  1  0.172900  0.685900  0.403600  1
  H  H608  1  0.827100  0.185900  0.096400  1
  H  H609  1  0.929500  0.268200  0.623500  1
  H  H610  1  0.070500  0.768200  0.876500  1
  H  H611  1  0.070500  0.731800  0.376500  1
  H  H612  1  0.929500  0.231800  0.123500  1
  H  H613  1  0.139600  0.284000  0.652300  1
  H  H614  1  0.860400  0.784000  0.847700  1
  H  H615  1  0.860400  0.716000  0.347700  1
  H  H616  1  0.139600  0.216000  0.152300  1
  H  H617  1  0.192100  0.239300  0.695800  1
  H  H618  1  0.807900  0.739300  0.804200  1
  H  H619  1  0.807900  0.760700  0.304200  1
  H  H620  1  0.192100  0.260700  0.195800  1
  H  H621  1  0.032900  0.151800  0.675500  1
  H  H622  1  0.967100  0.651800  0.824500  1
  H  H623  1  0.967100  0.848200  0.324500  1
  H  H624  1  0.032900  0.348200  0.175500  1
  H  H625  1  0.980400  0.196500  0.632100  1
  H  H626  1  0.019600  0.696500  0.867900  1
  H  H627  1  0.019600  0.803500  0.367900  1
  H  H628  1  0.980400  0.303500  0.132100  1
  H  H629  1  0.078900  0.126200  0.726500  1
  H  H630  1  0.921100  0.626200  0.773500  1
  H  H631  1  0.921100  0.873800  0.273500  1
  H  H632  1  0.078900  0.373800  0.226500  1
  H  H633  1  0.158700  0.111600  0.739000  1
  H  H634  1  0.841300  0.611600  0.761000  1
  H  H635  1  0.841300  0.888400  0.261000  1
  H  H636  1  0.158700  0.388400  0.239000  1
  H  H637  1  0.129000  0.108300  0.699700  1
  H  H638  1  0.871000  0.608300  0.800300  1
  H  H639  1  0.871000  0.891700  0.300300  1
  H  H640  1  0.129000  0.391700  0.199700  1
  H  H641  1  0.685000  0.206400  0.226800  1
  H  H642  1  0.315000  0.706400  0.273200  1
  H  H643  1  0.315000  0.793600  0.773200  1
  H  H644  1  0.685000  0.293600  0.726800  1
  H  H645  1  0.588300  0.180200  0.190500  1
  H  H646  1  0.411700  0.680200  0.309500  1
  H  H647  1  0.411700  0.819800  0.809500  1
  H  H648  1  0.588300  0.319800  0.690500  1
  H  H649  1  0.628000  0.058400  0.226600  1
  H  H650  1  0.372000  0.558400  0.273400  1
  H  H651  1  0.372000  0.941600  0.773400  1
  H  H652  1  0.628000  0.441600  0.726600  1
  H  H653  1  0.724700  0.084600  0.262900  1
  H  H654  1  0.275300  0.584600  0.237100  1
  H  H655  1  0.275300  0.915400  0.737100  1
  H  H656  1  0.724700  0.415400  0.762900  1
  H  H657  1  0.471200  0.057400  0.174800  1
  H  H658  1  0.528800  0.557400  0.325200  1
  H  H659  1  0.528800  0.942600  0.825200  1
  H  H660  1  0.471200  0.442600  0.674800  1
  H  H661  1  0.545900  0.041500  0.193700  1
  H  H662  1  0.454100  0.541500  0.306300  1
  H  H663  1  0.454100  0.958500  0.806300  1
  H  H664  1  0.545900  0.458500  0.693700  1
  H  H665  1  0.492800  0.069100  0.213900  1
  H  H666  1  0.507200  0.569100  0.286100  1
  H  H667  1  0.507200  0.930900  0.786100  1
  H  H668  1  0.492800  0.430900  0.713900  1
  H  H669  1  0.835800  0.117900  0.258900  1
  H  H670  1  0.164200  0.617900  0.241100  1
  H  H671  1  0.164200  0.882100  0.741100  1
  H  H672  1  0.835800  0.382100  0.758900  1
  H  H673  1  0.965900  0.115700  0.280400  1
  H  H674  1  0.034100  0.615700  0.219600  1
  H  H675  1  0.034100  0.884300  0.719600  1
  H  H676  1  0.965900  0.384300  0.780400  1
  H  H677  1  0.065200  0.148500  0.310500  1
  H  H678  1  0.934800  0.648500  0.189500  1
  H  H679  1  0.934800  0.851500  0.689500  1
  H  H680  1  0.065200  0.351500  0.810500  1
  H  H681  1  0.936600  0.245700  0.334500  1
  H  H682  1  0.063400  0.745700  0.165500  1
  H  H683  1  0.063400  0.754300  0.665500  1
  H  H684  1  0.936600  0.254300  0.834500  1
  H  H685  1  0.018500  0.246600  0.381800  1
  H  H686  1  0.981500  0.746600  0.118200  1
  H  H687  1  0.981500  0.753400  0.618200  1
  H  H688  1  0.018500  0.253400  0.881800  1
  H  H689  1  0.146800  0.210300  0.311600  1
  H  H690  1  0.853200  0.710300  0.188400  1
  H  H691  1  0.853200  0.789700  0.688400  1
  H  H692  1  0.146800  0.289700  0.811600  1
  H  H693  1  0.240500  0.245300  0.340000  1
  H  H694  1  0.759500  0.745300  0.160000  1
  H  H695  1  0.759500  0.754700  0.660000  1
  H  H696  1  0.240500  0.254700  0.840000  1
  H  H697  1  0.069400  0.288200  0.431900  1
  H  H698  1  0.930600  0.788200  0.068100  1
  H  H699  1  0.930600  0.711800  0.568100  1
  H  H700  1  0.069400  0.211800  0.931900  1
  H  H701  1  0.275800  0.326500  0.439600  1
  H  H702  1  0.724200  0.826500  0.060400  1
  H  H703  1  0.724200  0.673500  0.560400  1
  H  H704  1  0.275800  0.173500  0.939600  1
  H  H705  1  0.290400  0.291700  0.390500  1
  H  H706  1  0.709600  0.791700  0.109500  1
  H  H707  1  0.709600  0.708300  0.609500  1
  H  H708  1  0.290400  0.208300  0.890500  1
  H  H709  1  0.101700  0.285000  0.490600  1
  H  H710  1  0.898300  0.785000  0.009400  1
  H  H711  1  0.898300  0.715000  0.509400  1
  H  H712  1  0.101700  0.215000  0.990600  1
  H  H713  1  0.216600  0.387400  0.466600  1
  H  H714  1  0.783400  0.887400  0.033400  1
  H  H715  1  0.783400  0.612600  0.533400  1
  H  H716  1  0.216600  0.112600  0.966600  1
  H  H717  1  0.200200  0.418700  0.518600  1
  H  H718  1  0.799800  0.918700  0.981400  1
  H  H719  1  0.799800  0.581300  0.481400  1
  H  H720  1  0.200200  0.081300  0.018600  1
  H  H721  1  0.160100  0.410800  0.576000  1
  H  H722  1  0.839900  0.910800  0.924000  1
  H  H723  1  0.839900  0.589200  0.424000  1
  H  H724  1  0.160100  0.089200  0.076000  1
  H  H725  1  0.025800  0.361200  0.635700  1
  H  H726  1  0.974200  0.861200  0.864300  1
  H  H727  1  0.974200  0.638800  0.364300  1
  H  H728  1  0.025800  0.138800  0.135700  1
  H  H729  1  0.043300  0.380700  0.692600  1
  H  H730  1  0.956700  0.880700  0.807400  1
  H  H731  1  0.956700  0.619300  0.307400  1
  H  H732  1  0.043300  0.119300  0.192600  1
  H  H733  1  0.250300  0.402800  0.684600  1
  H  H734  1  0.749700  0.902800  0.815400  1
  H  H735  1  0.749700  0.597200  0.315400  1
  H  H736  1  0.250300  0.097200  0.184600  1
  H  H737  1  0.232300  0.387100  0.626800  1
  H  H738  1  0.767700  0.887100  0.873200  1
  H  H739  1  0.767700  0.612900  0.373200  1
  H  H740  1  0.232300  0.112900  0.126800  1
  H  H741  1  0.149200  0.394400  0.774500  1
  H  H742  1  0.850800  0.894400  0.725500  1
  H  H743  1  0.850800  0.605600  0.225500  1
  H  H744  1  0.149200  0.105600  0.274500  1
  H  H745  1  0.079100  0.391500  0.748000  1
  H  H746  1  0.920900  0.891500  0.752000  1
  H  H747  1  0.920900  0.608500  0.252000  1
  H  H748  1  0.079100  0.108500  0.248000  1
  H  H749  1  0.134200  0.351900  0.751700  1
  H  H750  1  0.865800  0.851900  0.748300  1
  H  H751  1  0.865800  0.648100  0.248300  1
  H  H752  1  0.134200  0.148100  0.251700  1
  H  H753  1  0.078200  0.588800  0.375000  1
  H  H754  1  0.921800  0.088800  0.125000  1
  H  H755  1  0.921800  0.411200  0.625000  1
  H  H756  1  0.078200  0.911200  0.875000  1
  H  H757  1  0.068800  0.539400  0.366100  1
  H  H758  1  0.931200  0.039400  0.133900  1
  H  H759  1  0.931200  0.460600  0.633900  1
  H  H760  1  0.068800  0.960600  0.866100  1
  H  H761  1  0.122400  0.553800  0.397000  1
  H  H762  1  0.877600  0.053800  0.103000  1
  H  H763  1  0.877600  0.446200  0.603000  1
  H  H764  1  0.122400  0.946200  0.897000  1
  H  H765  1  0.436300  0.081500  0.003700  1
  H  H766  1  0.563700  0.581500  0.496300  1
  H  H767  1  0.563700  0.918500  0.996300  1
  H  H768  1  0.436300  0.418500  0.503700  1
  H  H769  1  0.387600  0.073800  0.033500  1
  H  H770  1  0.612400  0.573800  0.466500  1
  H  H771  1  0.612400  0.926200  0.966500  1
  H  H772  1  0.387600  0.426200  0.533500  1
  H  H773  1  0.353000  0.072500  0.994900  1
  H  H774  1  0.647000  0.572500  0.505100  1
  H  H775  1  0.647000  0.927500  0.005100  1
  H  H776  1  0.353000  0.427500  0.494900  1
  H  H777  1  0.452200  0.535100  0.424500  1
  H  H778  1  0.547800  0.035100  0.075500  1
  H  H779  1  0.547800  0.464900  0.575500  1
  H  H780  1  0.452200  0.964900  0.924500  1
  H  H781  1  0.524300  0.509700  0.429800  1
  H  H782  1  0.475700  0.009700  0.070200  1
  H  H783  1  0.475700  0.490300  0.570200  1
  H  H784  1  0.524300  0.990300  0.929800  1
  H  H785  1  0.459700  0.494300  0.448200  1
  H  H786  1  0.540300  0.994300  0.051800  1
  H  H787  1  0.540300  0.505700  0.551800  1
  H  H788  1  0.459700  0.005700  0.948200  1
  H  H789  1  0.293400  0.369300  0.752900  1
  H  H790  1  0.706600  0.869300  0.747100  1
  H  H791  1  0.706600  0.630700  0.247100  1
  H  H792  1  0.293400  0.130700  0.252900  1
  H  H793  1  0.352200  0.331900  0.758900  1
  H  H794  1  0.647800  0.831900  0.741100  1
  H  H795  1  0.647800  0.668100  0.241100  1
  H  H796  1  0.352200  0.168100  0.258900  1
  H  H797  1  0.308100  0.346200  0.789100  1
  H  H798  1  0.691900  0.846200  0.710900  1
  H  H799  1  0.691900  0.653800  0.210900  1
  H  H800  1  0.308100  0.153800  0.289100  1
  H  H801  1  0.229200  0.387700  0.375200  1
  H  H802  1  0.770800  0.887700  0.124800  1
  H  H803  1  0.770800  0.612300  0.624800  1
  H  H804  1  0.229200  0.112300  0.875200  1
  H  H805  1  0.250900  0.428100  0.354600  1
  H  H806  1  0.749100  0.928100  0.145400  1
  H  H807  1  0.749100  0.571900  0.645400  1
  H  H808  1  0.250900  0.071900  0.854600  1
  H  H809  1  0.309400  0.396200  0.371200  1
  H  H810  1  0.690600  0.896200  0.128800  1
  H  H811  1  0.690600  0.603800  0.628800  1
  H  H812  1  0.309400  0.103800  0.871200  1
  H  H813  1  0.091200  0.346400  0.926900  1
  H  H814  1  0.908800  0.846400  0.573100  1
  H  H815  1  0.908800  0.653600  0.073100  1
  H  H816  1  0.091200  0.153600  0.426900  1
  H  H817  1  0.167700  0.328200  0.920600  1
  H  H818  1  0.832300  0.828200  0.579400  1
  H  H819  1  0.832300  0.671800  0.079400  1
  H  H820  1  0.167700  0.171800  0.420600  1
  H  H821  1  0.117500  0.300300  0.942200  1
  H  H822  1  0.882500  0.800300  0.557800  1
  H  H823  1  0.882500  0.699700  0.057800  1
  H  H824  1  0.117500  0.199700  0.442200  1
  H  H825  1  0.112200  0.536400  0.417100  1
  H  H826  1  0.887800  0.036400  0.082900  1
  H  H827  1  0.887800  0.463600  0.582900  1
  H  H828  1  0.112200  0.963600  0.917100  1
  H  H829  1  0.136000  0.520100  0.381900  1
  H  H830  1  0.864000  0.020100  0.118100  1
  H  H831  1  0.864000  0.479900  0.618100  1
  H  H832  1  0.136000  0.979900  0.881900  1
  H  H833  1  0.053400  0.524700  0.386300  1
  H  H834  1  0.946600  0.024700  0.113700  1
  H  H835  1  0.946600  0.475300  0.613700  1
  H  H836  1  0.053400  0.975300  0.886300  1
  H  H837  1  0.022500  0.459300  0.480800  1
  H  H838  1  0.977500  0.959300  0.019200  1
  H  H839  1  0.977500  0.540700  0.519200  1
  H  H840  1  0.022500  0.040700  0.980800  1
  H  H841  1  0.092400  0.486900  0.482000  1
  H  H842  1  0.907600  0.986900  0.018000  1
  H  H843  1  0.907600  0.513100  0.518000  1
  H  H844  1  0.092400  0.013100  0.982000  1
  H  H845  1  0.063300  0.462600  0.448600  1
  H  H846  1  0.936700  0.962600  0.051400  1
  H  H847  1  0.936700  0.537400  0.551400  1
  H  H848  1  0.063300  0.037400  0.948600  1
  H  H849  1  0.580800  0.457900  0.871600  1
  H  H850  1  0.419200  0.957900  0.628400  1
  H  H851  1  0.419200  0.542100  0.128400  1
  H  H852  1  0.580800  0.042100  0.371600  1
  H  H853  1  0.562700  0.413100  0.889300  1
  H  H854  1  0.437300  0.913100  0.610700  1
  H  H855  1  0.437300  0.586900  0.110700  1
  H  H856  1  0.562700  0.086900  0.389300  1
  H  H857  1  0.506700  0.452300  0.886900  1
  H  H858  1  0.493300  0.952300  0.613100  1
  H  H859  1  0.493300  0.547700  0.113100  1
  H  H860  1  0.506700  0.047700  0.386900  1
  H  H861  1  0.810700  0.084500  0.339900  1
  H  H862  1  0.189300  0.584500  0.160100  1
  H  H863  1  0.189300  0.915500  0.660100  1
  H  H864  1  0.810700  0.415500  0.839900  1
  H  H865  1  0.911600  0.047700  0.363900  1
  H  H866  1  0.088400  0.547700  0.136100  1
  H  H867  1  0.088400  0.952300  0.636100  1
  H  H868  1  0.911600  0.452300  0.863900  1
  H  H869  1  0.974900  0.155700  0.417800  1
  H  H870  1  0.025100  0.655700  0.082200  1
  H  H871  1  0.025100  0.844300  0.582200  1
  H  H872  1  0.974900  0.344300  0.917800  1
  H  H873  1  0.873400  0.191800  0.393000  1
  H  H874  1  0.126600  0.691800  0.107000  1
  H  H875  1  0.126600  0.808200  0.607000  1
  H  H876  1  0.873400  0.308200  0.893000  1
  H  H877  1  0.070000  0.048700  0.436000  1
  H  H878  1  0.930000  0.548700  0.064000  1
  H  H879  1  0.930000  0.951300  0.564000  1
  H  H880  1  0.070000  0.451300  0.936000  1
  H  H881  1  0.000700  0.067200  0.450700  1
  H  H882  1  0.999300  0.567200  0.049300  1
  H  H883  1  0.999300  0.932800  0.549300  1
  H  H884  1  0.000700  0.432800  0.950700  1
  H  H885  1  0.993600  0.028300  0.423900  1
  H  H886  1  0.006400  0.528300  0.076100  1
  H  H887  1  0.006400  0.971700  0.576100  1
  H  H888  1  0.993600  0.471700  0.923900  1
  H  H889  1  0.440300  0.406700  0.329000  1
  H  H890  1  0.559700  0.906700  0.171000  1
  H  H891  1  0.559700  0.593300  0.671000  1
  H  H892  1  0.440300  0.093300  0.829000  1
  H  H893  1  0.383000  0.460100  0.294400  1
  H  H894  1  0.617000  0.960100  0.205600  1
  H  H895  1  0.617000  0.539900  0.705600  1
  H  H896  1  0.383000  0.039900  0.794400  1
  H  H897  1  0.520200  0.438900  0.224800  1
  H  H898  1  0.479800  0.938900  0.275200  1
  H  H899  1  0.479800  0.561100  0.775200  1
  H  H900  1  0.520200  0.061100  0.724800  1
  H  H901  1  0.577100  0.385800  0.260400  1
  H  H902  1  0.422900  0.885800  0.239600  1
  H  H903  1  0.422900  0.614200  0.739600  1
  H  H904  1  0.577100  0.114200  0.760400  1
  H  H905  1  0.433300  0.520600  0.193600  1
  H  H906  1  0.566700  0.020600  0.306400  1
  H  H907  1  0.566700  0.479400  0.806400  1
  H  H908  1  0.433300  0.979400  0.693600  1
  H  H909  1  0.501800  0.513800  0.220600  1
  H  H910  1  0.498200  0.013800  0.279400  1
  H  H911  1  0.498200  0.486200  0.779400  1
  H  H912  1  0.501800  0.986200  0.720600  1
  H  H913  1  0.474600  0.475200  0.195400  1
  H  H914  1  0.525400  0.975200  0.304600  1
  H  H915  1  0.525400  0.524800  0.804600  1
  H  H916  1  0.474600  0.024800  0.695400  1
  H  H917  1  0.490700  0.059700  0.155700  1
  H  H918  1  0.509300  0.559700  0.344300  1
  H  H919  1  0.509300  0.940300  0.844300  1
  H  H920  1  0.490700  0.440300  0.655700  1
  H  H921  1  0.574300  0.050500  0.162800  1
  H  H922  1  0.425700  0.550500  0.337200  1
  H  H923  1  0.425700  0.949500  0.837200  1
  H  H924  1  0.574300  0.449500  0.662800  1
  H  H925  1  0.524700  0.044500  0.192500  1
  H  H926  1  0.475300  0.544500  0.307500  1
  H  H927  1  0.475300  0.955500  0.807500  1
  H  H928  1  0.524700  0.455500  0.692500  1
  H  H929  1  0.119400  0.404600  0.771200  1
  H  H930  1  0.880600  0.904600  0.728800  1
  H  H931  1  0.880600  0.595400  0.228800  1
  H  H932  1  0.119400  0.095400  0.271200  1
  H  H933  1  0.065800  0.416500  0.738400  1
  H  H934  1  0.934200  0.916500  0.761600  1
  H  H935  1  0.934200  0.583500  0.261600  1
  H  H936  1  0.065800  0.083500  0.238400  1
  H  H937  1  0.087600  0.366900  0.746100  1
  H  H938  1  0.912400  0.866900  0.753900  1
  H  H939  1  0.912400  0.633100  0.253900  1
  H  H940  1  0.087600  0.133100  0.246100  1
  H  H941  1  0.412300  0.522300  0.414600  1
  H  H942  1  0.587700  0.022300  0.085400  1
  H  H943  1  0.587700  0.477700  0.585400  1
  H  H944  1  0.412300  0.977700  0.914600  1
  H  H945  1  0.395500  0.549900  0.381500  1
  H  H946  1  0.604500  0.049900  0.118500  1
  H  H947  1  0.604500  0.450100  0.618500  1
  H  H948  1  0.395500  0.950100  0.881500  1
  H  H949  1  0.470500  0.553000  0.402600  1
  H  H950  1  0.529500  0.053000  0.097400  1
  H  H951  1  0.529500  0.447000  0.597400  1
  H  H952  1  0.470500  0.947000  0.902600  1
  C  C953  1  0.520000  0.266400  0.990700  1
  C  C954  1  0.480000  0.766400  0.509300  1
  C  C955  1  0.480000  0.733600  0.009300  1
  C  C956  1  0.520000  0.233600  0.490700  1
  C  C957  1  0.455700  0.275100  0.972100  1
  C  C958  1  0.544300  0.775100  0.527900  1
  C  C959  1  0.544300  0.724900  0.027900  1
  C  C960  1  0.455700  0.224900  0.472100  1
  C  C961  1  0.424500  0.244900  0.949800  1
  C  C962  1  0.575500  0.744900  0.550200  1
  C  C963  1  0.575500  0.755100  0.050200  1
  C  C964  1  0.424500  0.255100  0.449800  1
  C  C965  1  0.454900  0.204300  0.946800  1
  C  C966  1  0.545100  0.704300  0.553200  1
  C  C967  1  0.545100  0.795700  0.053200  1
  C  C968  1  0.454900  0.295700  0.446800  1
  C  C969  1  0.519400  0.195400  0.965800  1
  C  C970  1  0.480600  0.695400  0.534200  1
  C  C971  1  0.480600  0.804600  0.034200  1
  C  C972  1  0.519400  0.304600  0.465800  1
  C  C973  1  0.552200  0.227000  0.987800  1
  C  C974  1  0.447800  0.727000  0.512200  1
  C  C975  1  0.447800  0.773000  0.012200  1
  C  C976  1  0.552200  0.273000  0.487800  1
  C  C977  1  0.450000  0.134200  0.920600  1
  C  C978  1  0.550000  0.634200  0.579400  1
  C  C979  1  0.550000  0.865800  0.079400  1
  C  C980  1  0.450000  0.365800  0.420600  1
  C  C981  1  0.616800  0.307100  0.015900  1
  C  C982  1  0.383200  0.807100  0.484100  1
  C  C983  1  0.383200  0.692900  0.984100  1
  C  C984  1  0.616800  0.192900  0.515900  1
  C  C985  1  0.650400  0.335500  0.041100  1
  C  C986  1  0.349600  0.835500  0.458900  1
  C  C987  1  0.349600  0.664500  0.958900  1
  C  C988  1  0.650400  0.164500  0.541100  1
  C  C989  1  0.721100  0.348700  0.042400  1
  C  C990  1  0.278900  0.848700  0.457600  1
  C  C991  1  0.278900  0.651300  0.957600  1
  C  C992  1  0.721100  0.151300  0.542400  1
  C  C993  1  0.747700  0.377600  0.066500  1
  C  C994  1  0.252300  0.877600  0.433500  1
  C  C995  1  0.252300  0.622400  0.933500  1
  C  C996  1  0.747700  0.122400  0.566500  1
  C  C997  1  0.707400  0.392300  0.090700  1
  C  C998  1  0.292600  0.892300  0.409300  1
  C  C999  1  0.292600  0.607700  0.909300  1
  C  C1000  1  0.707400  0.107700  0.590700  1
  C  C1001  1  0.638400  0.376200  0.089200  1
  C  C1002  1  0.361600  0.876200  0.410800  1
  C  C1003  1  0.361600  0.623800  0.910800  1
  C  C1004  1  0.638400  0.123800  0.589200  1
  C  C1005  1  0.733000  0.422900  0.117500  1
  C  C1006  1  0.267000  0.922900  0.382500  1
  C  C1007  1  0.267000  0.577100  0.882500  1
  C  C1008  1  0.733000  0.077100  0.617500  1
  C  C1009  1  0.779900  0.457100  0.111000  1
  C  C1010  1  0.220100  0.957100  0.389000  1
  C  C1011  1  0.220100  0.542900  0.889000  1
  C  C1012  1  0.779900  0.042900  0.611000  1
  C  C1013  1  0.803300  0.486000  0.136100  1
  C  C1014  1  0.196700  0.986000  0.363900  1
  C  C1015  1  0.196700  0.514000  0.863900  1
  C  C1016  1  0.803300  0.014000  0.636100  1
  C  C1017  1  0.781600  0.483200  0.168300  1
  C  C1018  1  0.218400  0.983200  0.331700  1
  C  C1019  1  0.218400  0.516800  0.831700  1
  C  C1020  1  0.781600  0.016800  0.668300  1
  C  C1021  1  0.735300  0.448500  0.175400  1
  C  C1022  1  0.264700  0.948500  0.324600  1
  C  C1023  1  0.264700  0.551500  0.824600  1
  C  C1024  1  0.735300  0.051500  0.675400  1
  C  C1025  1  0.712500  0.419400  0.149500  1
  C  C1026  1  0.287500  0.919400  0.350500  1
  C  C1027  1  0.287500  0.580600  0.850500  1
  C  C1028  1  0.712500  0.080600  0.649500  1
  C  C1029  1  0.803300  0.512700  0.194500  1
  C  C1030  1  0.196700  0.012700  0.305500  1
  C  C1031  1  0.196700  0.487300  0.805500  1
  C  C1032  1  0.803300  0.987300  0.694500  1
  C  C1033  1  0.780700  0.508800  0.225900  1
  C  C1034  1  0.219300  0.008800  0.274100  1
  C  C1035  1  0.219300  0.491200  0.774100  1
  C  C1036  1  0.780700  0.991200  0.725900  1
  C  C1037  1  0.736600  0.473600  0.233200  1
  C  C1038  1  0.263400  0.973600  0.266800  1
  C  C1039  1  0.263400  0.526400  0.766800  1
  C  C1040  1  0.736600  0.026400  0.733200  1
  C  C1041  1  0.716100  0.444600  0.207900  1
  C  C1042  1  0.283900  0.944600  0.292100  1
  C  C1043  1  0.283900  0.555400  0.792100  1
  C  C1044  1  0.716100  0.055400  0.707900  1
  C  C1045  1  0.710500  0.428600  0.282200  1
  C  C1046  1  0.289500  0.928600  0.217800  1
  C  C1047  1  0.289500  0.571400  0.717800  1
  C  C1048  1  0.710500  0.071400  0.782200  1
  C  C1049  1  0.714500  0.469200  0.267600  1
  C  C1050  1  0.285500  0.969200  0.232400  1
  C  C1051  1  0.285500  0.530800  0.732400  1
  C  C1052  1  0.714500  0.030800  0.767600  1
  C  C1053  1  0.697400  0.503800  0.286800  1
  C  C1054  1  0.302600  0.003800  0.213200  1
  C  C1055  1  0.302600  0.496200  0.713200  1
  C  C1056  1  0.697400  0.996200  0.786800  1
  C  C1057  1  0.678900  0.497600  0.318600  1
  C  C1058  1  0.321100  0.997600  0.181400  1
  C  C1059  1  0.321100  0.502400  0.681400  1
  C  C1060  1  0.678900  0.002400  0.818600  1
  C  C1061  1  0.677500  0.456200  0.331400  1
  C  C1062  1  0.322500  0.956200  0.168600  1
  C  C1063  1  0.322500  0.543800  0.668600  1
  C  C1064  1  0.677500  0.043800  0.831400  1
  C  C1065  1  0.665000  0.446600  0.366200  1
  C  C1066  1  0.335000  0.946600  0.133800  1
  C  C1067  1  0.335000  0.553400  0.633800  1
  C  C1068  1  0.665000  0.053400  0.866200  1
  C  C1069  1  0.664400  0.399400  0.411900  1
  C  C1070  1  0.335600  0.899400  0.088100  1
  C  C1071  1  0.335600  0.600600  0.588100  1
  C  C1072  1  0.664400  0.100600  0.911900  1
  C  C1073  1  0.619100  0.422900  0.430900  1
  C  C1074  1  0.380900  0.922900  0.069100  1
  C  C1075  1  0.380900  0.577100  0.569100  1
  C  C1076  1  0.619100  0.077100  0.930900  1
  C  C1077  1  0.617500  0.414700  0.464900  1
  C  C1078  1  0.382500  0.914700  0.035100  1
  C  C1079  1  0.382500  0.585300  0.535100  1
  C  C1080  1  0.617500  0.085300  0.964900  1
  C  C1081  1  0.660700  0.382900  0.480400  1
  C  C1082  1  0.339300  0.882900  0.019600  1
  C  C1083  1  0.339300  0.617100  0.519600  1
  C  C1084  1  0.660700  0.117100  0.980400  1
  C  C1085  1  0.704500  0.359000  0.462100  1
  C  C1086  1  0.295500  0.859000  0.037900  1
  C  C1087  1  0.295500  0.641000  0.537900  1
  C  C1088  1  0.704500  0.141000  0.962100  1
  C  C1089  1  0.706300  0.367500  0.428500  1
  C  C1090  1  0.293700  0.867500  0.071500  1
  C  C1091  1  0.293700  0.632500  0.571500  1
  C  C1092  1  0.706300  0.132500  0.928500  1
  C  C1093  1  0.620900  0.394700  0.533100  1
  C  C1094  1  0.379100  0.894700  0.966900  1
  C  C1095  1  0.379100  0.605300  0.466900  1
  C  C1096  1  0.620900  0.105300  0.033100  1
  C  C1097  1  0.339300  0.305500  0.026800  1
  C  C1098  1  0.660700  0.805500  0.473200  1
  C  C1099  1  0.660700  0.694500  0.973200  1
  C  C1100  1  0.339300  0.194500  0.526800  1
  C  C1101  1  0.299700  0.277500  0.005300  1
  C  C1102  1  0.700300  0.777500  0.494700  1
  C  C1103  1  0.700300  0.722500  0.994700  1
  C  C1104  1  0.299700  0.222500  0.505300  1
  C  C1105  1  0.240100  0.292900  0.985000  1
  C  C1106  1  0.759900  0.792900  0.515000  1
  C  C1107  1  0.759900  0.707100  0.015000  1
  C  C1108  1  0.240100  0.207100  0.485000  1
  C  C1109  1  0.219900  0.335900  0.986300  1
  C  C1110  1  0.780100  0.835900  0.513700  1
  C  C1111  1  0.780100  0.664100  0.013700  1
  C  C1112  1  0.219900  0.164100  0.486300  1
  C  C1113  1  0.259400  0.363500  0.008100  1
  C  C1114  1  0.740600  0.863500  0.491900  1
  C  C1115  1  0.740600  0.636500  0.991900  1
  C  C1116  1  0.259400  0.136500  0.508100  1
  C  C1117  1  0.318000  0.348700  0.028200  1
  C  C1118  1  0.682000  0.848700  0.471800  1
  C  C1119  1  0.682000  0.651300  0.971800  1
  C  C1120  1  0.318000  0.151300  0.528200  1
  C  C1121  1  0.140600  0.393400  0.964600  1
  C  C1122  1  0.859400  0.893400  0.535400  1
  C  C1123  1  0.859400  0.606600  0.035400  1
  C  C1124  1  0.140600  0.106600  0.464600  1
  C  C1125  1  0.408200  0.253100  0.058300  1
  C  C1126  1  0.591800  0.753100  0.441700  1
  C  C1127  1  0.591800  0.746900  0.941700  1
  C  C1128  1  0.408200  0.246900  0.558300  1
  C  C1129  1  0.472400  0.236300  0.076200  1
  C  C1130  1  0.527600  0.736300  0.423800  1
  C  C1131  1  0.527600  0.763700  0.923800  1
  C  C1132  1  0.472400  0.263700  0.576200  1
  C  C1133  1  0.478200  0.193700  0.086700  1
  C  C1134  1  0.521800  0.693700  0.413300  1
  C  C1135  1  0.521800  0.806300  0.913300  1
  C  C1136  1  0.478200  0.306300  0.586700  1
  C  C1137  1  0.541200  0.179700  0.103200  1
  C  C1138  1  0.458800  0.679700  0.396800  1
  C  C1139  1  0.458800  0.820300  0.896800  1
  C  C1140  1  0.541200  0.320300  0.603200  1
  C  C1141  1  0.599700  0.206200  0.109260  1
  C  C1142  1  0.400300  0.706200  0.390740  1
  C  C1143  1  0.400300  0.793800  0.890740  1
  C  C1144  1  0.599700  0.293800  0.609260  1
  C  C1145  1  0.588700  0.249700  0.098190  1
  C  C1146  1  0.411300  0.749700  0.401810  1
  C  C1147  1  0.411300  0.750300  0.901810  1
  C  C1148  1  0.588700  0.250300  0.598190  1
  C  C1149  1  0.717000  0.218700  0.143900  1
  C  C1150  1  0.283000  0.718700  0.356100  1
  C  C1151  1  0.283000  0.781300  0.856100  1
  C  C1152  1  0.717000  0.281300  0.643900  1
  C  C1153  1  0.668800  0.191100  0.126100  1
  C  C1154  1  0.331200  0.691100  0.373900  1
  C  C1155  1  0.331200  0.808900  0.873900  1
  C  C1156  1  0.668800  0.308900  0.626100  1
  C  C1157  1  0.685900  0.146500  0.125800  1
  C  C1158  1  0.314100  0.646500  0.374200  1
  C  C1159  1  0.314100  0.853500  0.874200  1
  C  C1160  1  0.685900  0.353500  0.625800  1
  C  C1161  1  0.746700  0.130600  0.143000  1
  C  C1162  1  0.253300  0.630600  0.357000  1
  C  C1163  1  0.253300  0.869400  0.857000  1
  C  C1164  1  0.746700  0.369400  0.643000  1
  C  C1165  1  0.794500  0.157700  0.161900  1
  C  C1166  1  0.205500  0.657700  0.338100  1
  C  C1167  1  0.205500  0.842300  0.838100  1
  C  C1168  1  0.794500  0.342300  0.661900  1
  C  C1169  1  0.780300  0.203100  0.162210  1
  C  C1170  1  0.219700  0.703100  0.337790  1
  C  C1171  1  0.219700  0.796900  0.837790  1
  C  C1172  1  0.780300  0.296900  0.662210  1
  C  C1173  1  0.827500  0.230900  0.181700  1
  C  C1174  1  0.172500  0.730900  0.318300  1
  C  C1175  1  0.172500  0.769100  0.818300  1
  C  C1176  1  0.827500  0.269100  0.681700  1
  C  C1177  1  0.888200  0.215100  0.200160  1
  C  C1178  1  0.111800  0.715100  0.299840  1
  C  C1179  1  0.111800  0.784900  0.799840  1
  C  C1180  1  0.888200  0.284900  0.700160  1
  C  C1181  1  0.902500  0.170300  0.198700  1
  C  C1182  1  0.097500  0.670300  0.301300  1
  C  C1183  1  0.097500  0.829700  0.801300  1
  C  C1184  1  0.902500  0.329700  0.698700  1
  C  C1185  1  0.858300  0.142200  0.180600  1
  C  C1186  1  0.141700  0.642200  0.319400  1
  C  C1187  1  0.141700  0.857800  0.819400  1
  C  C1188  1  0.858300  0.357800  0.680600  1
  C  C1189  1  0.906800  0.279100  0.238300  1
  C  C1190  1  0.093200  0.779100  0.261700  1
  C  C1191  1  0.093200  0.720900  0.761700  1
  C  C1192  1  0.906800  0.220900  0.738300  1
  C  C1193  1  0.936500  0.243900  0.222540  1
  C  C1194  1  0.063500  0.743900  0.277460  1
  C  C1195  1  0.063500  0.756100  0.777460  1
  C  C1196  1  0.936500  0.256100  0.722540  1
  C  C1197  1  0.008200  0.237900  0.230600  1
  C  C1198  1  0.991800  0.737900  0.269400  1
  C  C1199  1  0.991800  0.762100  0.769400  1
  C  C1200  1  0.008200  0.262100  0.730600  1
  C  C1201  1  0.047600  0.264000  0.253300  1
  C  C1202  1  0.952400  0.764000  0.246700  1
  C  C1203  1  0.952400  0.736000  0.746700  1
  C  C1204  1  0.047600  0.236000  0.753300  1
  C  C1205  1  0.014200  0.298000  0.267700  1
  C  C1206  1  0.985800  0.798000  0.232300  1
  C  C1207  1  0.985800  0.702000  0.732300  1
  C  C1208  1  0.014200  0.202000  0.767700  1
  C  C1209  1  0.050500  0.326900  0.293700  1
  C  C1210  1  0.949500  0.826900  0.206300  1
  C  C1211  1  0.949500  0.673100  0.706300  1
  C  C1212  1  0.050500  0.173100  0.793700  1
  C  C1213  1  0.047300  0.384300  0.332600  1
  C  C1214  1  0.952700  0.884300  0.167400  1
  C  C1215  1  0.952700  0.615700  0.667400  1
  C  C1216  1  0.047300  0.115700  0.832600  1
  C  C1217  1  0.068000  0.424400  0.324700  1
  C  C1218  1  0.932000  0.924400  0.175300  1
  C  C1219  1  0.932000  0.575600  0.675300  1
  C  C1220  1  0.068000  0.075600  0.824700  1
  C  C1221  1  0.086500  0.454800  0.351200  1
  C  C1222  1  0.913500  0.954800  0.148800  1
  C  C1223  1  0.913500  0.545200  0.648800  1
  C  C1224  1  0.086500  0.045200  0.851200  1
  C  C1225  1  0.082800  0.441100  0.384100  1
  C  C1226  1  0.917200  0.941100  0.115900  1
  C  C1227  1  0.917200  0.558900  0.615900  1
  C  C1228  1  0.082800  0.058900  0.884100  1
  C  C1229  1  0.062800  0.401200  0.391700  1
  C  C1230  1  0.937200  0.901200  0.108300  1
  C  C1231  1  0.937200  0.598800  0.608300  1
  C  C1232  1  0.062800  0.098800  0.891700  1
  C  C1233  1  0.042900  0.373500  0.365800  1
  C  C1234  1  0.957100  0.873500  0.134200  1
  C  C1235  1  0.957100  0.626500  0.634200  1
  C  C1236  1  0.042900  0.126500  0.865800  1
  C  C1237  1  0.089600  0.460500  0.445100  1
  C  C1238  1  0.910400  0.960500  0.054900  1
  C  C1239  1  0.910400  0.539500  0.554900  1
  C  C1240  1  0.089600  0.039500  0.945100  1
  C  C1241  1  0.509100  0.412400  0.006600  1
  C  C1242  1  0.490900  0.912400  0.493400  1
  C  C1243  1  0.490900  0.587600  0.993400  1
  C  C1244  1  0.509100  0.087600  0.506600  1
  C  C1245  1  0.482500  0.397500  0.976600  1
  C  C1246  1  0.517500  0.897500  0.523400  1
  C  C1247  1  0.517500  0.602500  0.023400  1
  C  C1248  1  0.482500  0.102500  0.476600  1
  C  C1249  1  0.505200  0.413000  0.946900  1
  C  C1250  1  0.494800  0.913000  0.553100  1
  C  C1251  1  0.494800  0.587000  0.053100  1
  C  C1252  1  0.505200  0.087000  0.446900  1
  C  C1253  1  0.557500  0.443300  0.950000  1
  C  C1254  1  0.442500  0.943300  0.550000  1
  C  C1255  1  0.442500  0.556700  0.050000  1
  C  C1256  1  0.557500  0.056700  0.450000  1
  C  C1257  1  0.588900  0.458600  0.980700  1
  C  C1258  1  0.411100  0.958600  0.519300  1
  C  C1259  1  0.411100  0.541400  0.019300  1
  C  C1260  1  0.588900  0.041400  0.480700  1
  C  C1261  1  0.563500  0.441800  0.010000  1
  C  C1262  1  0.436500  0.941800  0.490000  1
  C  C1263  1  0.436500  0.558200  0.990000  1
  C  C1264  1  0.563500  0.058200  0.510000  1
  C  C1265  1  0.601000  0.450000  0.887900  1
  C  C1266  1  0.399000  0.950000  0.612100  1
  C  C1267  1  0.399000  0.550000  0.112100  1
  C  C1268  1  0.601000  0.050000  0.387900  1
  C  C1269  1  0.466700  0.420500  0.058700  1
  C  C1270  1  0.533300  0.920500  0.441300  1
  C  C1271  1  0.533300  0.579500  0.941300  1
  C  C1272  1  0.466700  0.079500  0.558700  1
  C  C1273  1  0.450200  0.404800  0.091600  1
  C  C1274  1  0.549800  0.904800  0.408400  1
  C  C1275  1  0.549800  0.595200  0.908400  1
  C  C1276  1  0.450200  0.095200  0.591600  1
  C  C1277  1  0.419100  0.430000  0.114200  1
  C  C1278  1  0.580900  0.930000  0.385800  1
  C  C1279  1  0.580900  0.570000  0.885800  1
  C  C1280  1  0.419100  0.070000  0.614200  1
  C  C1281  1  0.403400  0.413800  0.145000  1
  C  C1282  1  0.596600  0.913800  0.355000  1
  C  C1283  1  0.596600  0.586200  0.855000  1
  C  C1284  1  0.403400  0.086200  0.645000  1
  C  C1285  1  0.421500  0.371200  0.152600  1
  C  C1286  1  0.578500  0.871200  0.347400  1
  C  C1287  1  0.578500  0.628800  0.847400  1
  C  C1288  1  0.421500  0.128800  0.652600  1
  C  C1289  1  0.452400  0.346900  0.128100  1
  C  C1290  1  0.547600  0.846900  0.371900  1
  C  C1291  1  0.547600  0.653100  0.871900  1
  C  C1292  1  0.452400  0.153100  0.628100  1
  C  C1293  1  0.458100  0.322100  0.200000  1
  C  C1294  1  0.541900  0.822100  0.300000  1
  C  C1295  1  0.541900  0.677900  0.800000  1
  C  C1296  1  0.458100  0.177900  0.700000  1
  C  C1297  1  0.410500  0.350500  0.185000  1
  C  C1298  1  0.589500  0.850500  0.315000  1
  C  C1299  1  0.589500  0.649500  0.815000  1
  C  C1300  1  0.410500  0.149500  0.685000  1
  C  C1301  1  0.347600  0.360100  0.200600  1
  C  C1302  1  0.652400  0.860100  0.299400  1
  C  C1303  1  0.652400  0.639900  0.799400  1
  C  C1304  1  0.347600  0.139900  0.700600  1
  C  C1305  1  0.335100  0.339500  0.229700  1
  C  C1306  1  0.664900  0.839500  0.270300  1
  C  C1307  1  0.664900  0.660500  0.770300  1
  C  C1308  1  0.335100  0.160500  0.729700  1
  C  C1309  1  0.382900  0.309400  0.245600  1
  C  C1310  1  0.617100  0.809400  0.254400  1
  C  C1311  1  0.617100  0.690600  0.754400  1
  C  C1312  1  0.382900  0.190600  0.745600  1
  C  C1313  1  0.446300  0.300800  0.230700  1
  C  C1314  1  0.553700  0.800800  0.269300  1
  C  C1315  1  0.553700  0.699200  0.769300  1
  C  C1316  1  0.446300  0.199200  0.730700  1
  C  C1317  1  0.496600  0.271500  0.246900  1
  C  C1318  1  0.503400  0.771500  0.253100  1
  C  C1319  1  0.503400  0.728500  0.753100  1
  C  C1320  1  0.496600  0.228500  0.746900  1
  C  C1321  1  0.485100  0.250700  0.276100  1
  C  C1322  1  0.514900  0.750700  0.223900  1
  C  C1323  1  0.514900  0.749300  0.723900  1
  C  C1324  1  0.485100  0.249300  0.776100  1
  C  C1325  1  0.420300  0.258500  0.290000  1
  C  C1326  1  0.579700  0.758500  0.210000  1
  C  C1327  1  0.579700  0.741500  0.710000  1
  C  C1328  1  0.420300  0.241500  0.790000  1
  C  C1329  1  0.372000  0.286300  0.274900  1
  C  C1330  1  0.628000  0.786300  0.225100  1
  C  C1331  1  0.628000  0.713700  0.725100  1
  C  C1332  1  0.372000  0.213700  0.774900  1
  C  C1333  1  0.612200  0.231700  0.293400  1
  C  C1334  1  0.387800  0.731700  0.206600  1
  C  C1335  1  0.387800  0.768300  0.706600  1
  C  C1336  1  0.612200  0.268300  0.793400  1
  C  C1337  1  0.540200  0.221200  0.293700  1
  C  C1338  1  0.459800  0.721200  0.206300  1
  C  C1339  1  0.459800  0.778800  0.706300  1
  C  C1340  1  0.540200  0.278800  0.793700  1
  C  C1341  1  0.525300  0.184300  0.310500  1
  C  C1342  1  0.474700  0.684300  0.189500  1
  C  C1343  1  0.474700  0.815700  0.689500  1
  C  C1344  1  0.525300  0.315700  0.810500  1
  C  C1345  1  0.579100  0.160000  0.327300  1
  C  C1346  1  0.420900  0.660000  0.172700  1
  C  C1347  1  0.420900  0.840000  0.672700  1
  C  C1348  1  0.579100  0.340000  0.827300  1
  C  C1349  1  0.648200  0.173200  0.326700  1
  C  C1350  1  0.351800  0.673200  0.173300  1
  C  C1351  1  0.351800  0.826800  0.673300  1
  C  C1352  1  0.648200  0.326800  0.826700  1
  C  C1353  1  0.707100  0.150800  0.345700  1
  C  C1354  1  0.292900  0.650800  0.154300  1
  C  C1355  1  0.292900  0.849200  0.654300  1
  C  C1356  1  0.707100  0.349200  0.845700  1
  C  C1357  1  0.824100  0.147700  0.368300  1
  C  C1358  1  0.175900  0.647700  0.131700  1
  C  C1359  1  0.175900  0.852300  0.631700  1
  C  C1360  1  0.824100  0.352300  0.868300  1
  C  C1361  1  0.871600  0.175400  0.385600  1
  C  C1362  1  0.128400  0.675400  0.114400  1
  C  C1363  1  0.128400  0.824600  0.614400  1
  C  C1364  1  0.871600  0.324600  0.885600  1
  C  C1365  1  0.925400  0.159500  0.408800  1
  C  C1366  1  0.074600  0.659500  0.091200  1
  C  C1367  1  0.074600  0.840500  0.591200  1
  C  C1368  1  0.925400  0.340500  0.908800  1
  C  C1369  1  0.931600  0.115100  0.414170  1
  C  C1370  1  0.068400  0.615100  0.085830  1
  C  C1371  1  0.068400  0.884900  0.585830  1
  C  C1372  1  0.931600  0.384900  0.914170  1
  C  C1373  1  0.883400  0.086600  0.396900  1
  C  C1374  1  0.116600  0.586600  0.103100  1
  C  C1375  1  0.116600  0.913400  0.603100  1
  C  C1376  1  0.883400  0.413400  0.896900  1
  C  C1377  1  0.829800  0.103400  0.373900  1
  C  C1378  1  0.170200  0.603400  0.126100  1
  C  C1379  1  0.170200  0.896600  0.626100  1
  C  C1380  1  0.829800  0.396600  0.873900  1
  C  C1381  1  0.973000  0.051800  0.449600  1
  C  C1382  1  0.027000  0.551800  0.050400  1
  C  C1383  1  0.027000  0.948200  0.550400  1
  C  C1384  1  0.973000  0.448200  0.949600  1
  C  C1385  1  0.533200  0.394800  0.290000  1
  C  C1386  1  0.466800  0.894800  0.210000  1
  C  C1387  1  0.466800  0.605200  0.710000  1
  C  C1388  1  0.533200  0.105200  0.790000  1
  C  C1389  1  0.482800  0.424500  0.296300  1
  C  C1390  1  0.517200  0.924500  0.203700  1
  C  C1391  1  0.517200  0.575500  0.703700  1
  C  C1392  1  0.482800  0.075500  0.796300  1
  C  C1393  1  0.455300  0.453200  0.271400  1
  C  C1394  1  0.544700  0.953200  0.228600  1
  C  C1395  1  0.544700  0.546800  0.728600  1
  C  C1396  1  0.455300  0.046800  0.771400  1
  C  C1397  1  0.478700  0.451400  0.239600  1
  C  C1398  1  0.521300  0.951400  0.260400  1
  C  C1399  1  0.521300  0.548600  0.760400  1
  C  C1400  1  0.478700  0.048600  0.739600  1
  C  C1401  1  0.530300  0.421400  0.232800  1
  C  C1402  1  0.469700  0.921400  0.267200  1
  C  C1403  1  0.469700  0.578600  0.767200  1
  C  C1404  1  0.530300  0.078600  0.732800  1
  C  C1405  1  0.557100  0.393200  0.258400  1
  C  C1406  1  0.442900  0.893200  0.241600  1
  C  C1407  1  0.442900  0.606800  0.741600  1
  C  C1408  1  0.557100  0.106800  0.758400  1
  C  C1409  1  0.419700  0.517400  0.219100  1
  C  C1410  1  0.580300  0.017400  0.280900  1
  C  C1411  1  0.580300  0.482600  0.780900  1
  C  C1412  1  0.419700  0.982600  0.719100  1
  C  C1413  1  0.522600  0.339000  0.333900  1
  C  C1414  1  0.477400  0.839000  0.166100  1
  C  C1415  1  0.477400  0.661000  0.666100  1
  C  C1416  1  0.522600  0.161000  0.833900  1
  C  C1417  1  0.557100  0.307100  0.357700  1
  C  C1418  1  0.442900  0.807100  0.142300  1
  C  C1419  1  0.442900  0.692900  0.642300  1
  C  C1420  1  0.557100  0.192900  0.857700  1
  C  C1421  1  0.521000  0.275900  0.373100  1
  C  C1422  1  0.479000  0.775900  0.126900  1
  C  C1423  1  0.479000  0.724100  0.626900  1
  C  C1424  1  0.521000  0.224100  0.873100  1
  C  C1425  1  0.557400  0.245500  0.393900  1
  C  C1426  1  0.442600  0.745500  0.106100  1
  C  C1427  1  0.442600  0.754500  0.606100  1
  C  C1428  1  0.557400  0.254500  0.893900  1
  C  C1429  1  0.630200  0.246800  0.399300  1
  C  C1430  1  0.369800  0.746800  0.100700  1
  C  C1431  1  0.369800  0.753200  0.600700  1
  C  C1432  1  0.630200  0.253200  0.899300  1
  C  C1433  1  0.662600  0.279500  0.382600  1
  C  C1434  1  0.337400  0.779500  0.117400  1
  C  C1435  1  0.337400  0.720500  0.617400  1
  C  C1436  1  0.662600  0.220500  0.882600  1
  C  C1437  1  0.737900  0.225400  0.437990  1
  C  C1438  1  0.262100  0.725400  0.062010  1
  C  C1439  1  0.262100  0.774600  0.562010  1
  C  C1440  1  0.737900  0.274600  0.937990  1
  C  C1441  1  0.673000  0.214900  0.420500  1
  C  C1442  1  0.327000  0.714900  0.079500  1
  C  C1443  1  0.327000  0.785100  0.579500  1
  C  C1444  1  0.673000  0.285100  0.920500  1
  C  C1445  1  0.649200  0.171000  0.422300  1
  C  C1446  1  0.350800  0.671000  0.077700  1
  C  C1447  1  0.350800  0.829000  0.577700  1
  C  C1448  1  0.649200  0.329000  0.922300  1
  C  C1449  1  0.689700  0.140200  0.439200  1
  C  C1450  1  0.310300  0.640200  0.060800  1
  C  C1451  1  0.310300  0.859800  0.560800  1
  C  C1452  1  0.689700  0.359800  0.939200  1
  C  C1453  1  0.756800  0.150200  0.456500  1
  C  C1454  1  0.243200  0.650200  0.043500  1
  C  C1455  1  0.243200  0.849800  0.543500  1
  C  C1456  1  0.756800  0.349800  0.956500  1
  C  C1457  1  0.780400  0.194300  0.456300  1
  C  C1458  1  0.219600  0.694300  0.043700  1
  C  C1459  1  0.219600  0.805700  0.543700  1
  C  C1460  1  0.780400  0.305700  0.956300  1
  C  C1461  1  0.847500  0.204400  0.474600  1
  C  C1462  1  0.152500  0.704400  0.025400  1
  C  C1463  1  0.152500  0.795600  0.525400  1
  C  C1464  1  0.847500  0.295600  0.974600  1
  C  C1465  1  0.890700  0.173900  0.491700  1
  C  C1466  1  0.109300  0.673900  0.008300  1
  C  C1467  1  0.109300  0.826100  0.508300  1
  C  C1468  1  0.890700  0.326100  0.991700  1
  C  C1469  1  0.865000  0.130900  0.491300  1
  C  C1470  1  0.135000  0.630900  0.008700  1
  C  C1471  1  0.135000  0.869100  0.508700  1
  C  C1472  1  0.865000  0.369100  0.991300  1
  C  C1473  1  0.801100  0.120100  0.474200  1
  C  C1474  1  0.198900  0.620100  0.025800  1
  C  C1475  1  0.198900  0.879900  0.525800  1
  C  C1476  1  0.801100  0.379900  0.974200  1
  C  C1477  1  0.977500  0.225600  0.523430  1
  C  C1478  1  0.022500  0.725600  0.976570  1
  C  C1479  1  0.022500  0.774400  0.476570  1
  C  C1480  1  0.977500  0.274400  0.023430  1
  C  C1481  1  0.960900  0.184400  0.509900  1
  C  C1482  1  0.039100  0.684400  0.990100  1
  C  C1483  1  0.039100  0.815600  0.490100  1
  C  C1484  1  0.960900  0.315600  0.009900  1
  C  C1485  1  0.013500  0.154200  0.514400  1
  C  C1486  1  0.986500  0.654200  0.985600  1
  C  C1487  1  0.986500  0.845800  0.485600  1
  C  C1488  1  0.013500  0.345800  0.014400  1
  C  C1489  1  0.077800  0.163700  0.531900  1
  C  C1490  1  0.922200  0.663700  0.968100  1
  C  C1491  1  0.922200  0.836300  0.468100  1
  C  C1492  1  0.077800  0.336300  0.031900  1
  C  C1493  1  0.090600  0.204700  0.544400  1
  C  C1494  1  0.909400  0.704700  0.955600  1
  C  C1495  1  0.909400  0.795300  0.455600  1
  C  C1496  1  0.090600  0.295300  0.044400  1
  C  C1497  1  0.157300  0.216100  0.564100  1
  C  C1498  1  0.842700  0.716100  0.935900  1
  C  C1499  1  0.842700  0.783900  0.435900  1
  C  C1500  1  0.157300  0.283900  0.064100  1
  C  C1501  1  0.231200  0.260200  0.599300  1
  C  C1502  1  0.768800  0.760200  0.900700  1
  C  C1503  1  0.768800  0.739800  0.400700  1
  C  C1504  1  0.231200  0.239800  0.099300  1
  C  C1505  1  0.265000  0.299500  0.600100  1
  C  C1506  1  0.735000  0.799500  0.899900  1
  C  C1507  1  0.735000  0.700500  0.399900  1
  C  C1508  1  0.265000  0.200500  0.100100  1
  C  C1509  1  0.322900  0.308400  0.624000  1
  C  C1510  1  0.677100  0.808400  0.876000  1
  C  C1511  1  0.677100  0.691600  0.376000  1
  C  C1512  1  0.322900  0.191600  0.124000  1
  C  C1513  1  0.347400  0.277300  0.647300  1
  C  C1514  1  0.652600  0.777300  0.852700  1
  C  C1515  1  0.652600  0.722700  0.352700  1
  C  C1516  1  0.347400  0.222700  0.147300  1
  C  C1517  1  0.316100  0.237900  0.645400  1
  C  C1518  1  0.683900  0.737900  0.854600  1
  C  C1519  1  0.683900  0.762100  0.354600  1
  C  C1520  1  0.316100  0.262100  0.145400  1
  C  C1521  1  0.258900  0.228100  0.622500  1
  C  C1522  1  0.741100  0.728100  0.877500  1
  C  C1523  1  0.741100  0.771900  0.377500  1
  C  C1524  1  0.258900  0.271900  0.122500  1
  C  C1525  1  0.427000  0.326200  0.678600  1
  C  C1526  1  0.573000  0.826200  0.821400  1
  C  C1527  1  0.573000  0.673800  0.321400  1
  C  C1528  1  0.427000  0.173800  0.178600  1
  C  C1529  1  0.915200  0.403100  0.213300  1
  C  C1530  1  0.084800  0.903100  0.286700  1
  C  C1531  1  0.084800  0.596900  0.786700  1
  C  C1532  1  0.915200  0.096900  0.713300  1
  C  C1533  1  0.871200  0.372700  0.195400  1
  C  C1534  1  0.128800  0.872700  0.304600  1
  C  C1535  1  0.128800  0.627300  0.804600  1
  C  C1536  1  0.871200  0.127300  0.695400  1
  C  C1537  1  0.872900  0.367700  0.161400  1
  C  C1538  1  0.127100  0.867700  0.338600  1
  C  C1539  1  0.127100  0.632300  0.838600  1
  C  C1540  1  0.872900  0.132300  0.661400  1
  C  C1541  1  0.917900  0.393100  0.144500  1
  C  C1542  1  0.082100  0.893100  0.355500  1
  C  C1543  1  0.082100  0.606900  0.855500  1
  C  C1544  1  0.917900  0.106900  0.644500  1
  C  C1545  1  0.962700  0.422800  0.161500  1
  C  C1546  1  0.037300  0.922800  0.338500  1
  C  C1547  1  0.037300  0.577200  0.838500  1
  C  C1548  1  0.962700  0.077200  0.661500  1
  C  C1549  1  0.961400  0.428000  0.196200  1
  C  C1550  1  0.038600  0.928000  0.303800  1
  C  C1551  1  0.038600  0.572000  0.803800  1
  C  C1552  1  0.961400  0.072000  0.696200  1
  C  C1553  1  0.959200  0.409300  0.092200  1
  C  C1554  1  0.040800  0.909300  0.407800  1
  C  C1555  1  0.040800  0.590700  0.907800  1
  C  C1556  1  0.959200  0.090700  0.592200  1
  C  C1557  1  0.912100  0.446800  0.260700  1
  C  C1558  1  0.087900  0.946800  0.239300  1
  C  C1559  1  0.087900  0.553200  0.739300  1
  C  C1560  1  0.912100  0.053200  0.760700  1
  C  C1561  1  0.900800  0.453600  0.296600  1
  C  C1562  1  0.099200  0.953600  0.203400  1
  C  C1563  1  0.099200  0.546400  0.703400  1
  C  C1564  1  0.900800  0.046400  0.796600  1
  C  C1565  1  0.898300  0.494400  0.310300  1
  C  C1566  1  0.101700  0.994400  0.189700  1
  C  C1567  1  0.101700  0.505600  0.689700  1
  C  C1568  1  0.898300  0.005600  0.810300  1
  C  C1569  1  0.883100  0.498800  0.342800  1
  C  C1570  1  0.116900  0.998800  0.157200  1
  C  C1571  1  0.116900  0.501200  0.657200  1
  C  C1572  1  0.883100  0.001200  0.842800  1
  C  C1573  1  0.870800  0.462500  0.361900  1
  C  C1574  1  0.129200  0.962500  0.138100  1
  C  C1575  1  0.129200  0.537500  0.638100  1
  C  C1576  1  0.870800  0.037500  0.861900  1
  C  C1577  1  0.877000  0.422600  0.345600  1
  C  C1578  1  0.123000  0.922600  0.154400  1
  C  C1579  1  0.123000  0.577400  0.654400  1
  C  C1580  1  0.877000  0.077400  0.845600  1
  C  C1581  1  0.874600  0.435000  0.420760  1
  C  C1582  1  0.125400  0.935000  0.079240  1
  C  C1583  1  0.125400  0.565000  0.579240  1
  C  C1584  1  0.874600  0.065000  0.920760  1
  C  C1585  1  0.851200  0.464900  0.396400  1
  C  C1586  1  0.148800  0.964900  0.103600  1
  C  C1587  1  0.148800  0.535100  0.603600  1
  C  C1588  1  0.851200  0.035100  0.896400  1
  C  C1589  1  0.803900  0.497700  0.405400  1
  C  C1590  1  0.196100  0.997700  0.094600  1
  C  C1591  1  0.196100  0.502300  0.594600  1
  C  C1592  1  0.803900  0.002300  0.905400  1
  C  C1593  1  0.780800  0.499100  0.436300  1
  C  C1594  1  0.219200  0.999100  0.063700  1
  C  C1595  1  0.219200  0.500900  0.563700  1
  C  C1596  1  0.780800  0.000900  0.936300  1
  C  C1597  1  0.805300  0.468200  0.461400  1
  C  C1598  1  0.194700  0.968200  0.038600  1
  C  C1599  1  0.194700  0.531800  0.538600  1
  C  C1600  1  0.805300  0.031800  0.961400  1
  C  C1601  1  0.853400  0.435900  0.453900  1
  C  C1602  1  0.146600  0.935900  0.046100  1
  C  C1603  1  0.146600  0.564100  0.546100  1
  C  C1604  1  0.853400  0.064100  0.953900  1
  C  C1605  1  0.877900  0.404900  0.478590  1
  C  C1606  1  0.122100  0.904900  0.021410  1
  C  C1607  1  0.122100  0.595100  0.521410  1
  C  C1608  1  0.877900  0.095100  0.978590  1
  C  C1609  1  0.855300  0.405600  0.510200  1
  C  C1610  1  0.144700  0.905600  0.989800  1
  C  C1611  1  0.144700  0.594400  0.489800  1
  C  C1612  1  0.855300  0.094400  0.010200  1
  C  C1613  1  0.806600  0.438600  0.517400  1
  C  C1614  1  0.193400  0.938600  0.982600  1
  C  C1615  1  0.193400  0.561400  0.482600  1
  C  C1616  1  0.806600  0.061400  0.017400  1
  C  C1617  1  0.783200  0.468400  0.494000  1
  C  C1618  1  0.216800  0.968400  0.006000  1
  C  C1619  1  0.216800  0.531600  0.506000  1
  C  C1620  1  0.783200  0.031600  0.994000  1
  C  C1621  1  0.945600  0.353300  0.537240  1
  C  C1622  1  0.054400  0.853300  0.962760  1
  C  C1623  1  0.054400  0.646700  0.462760  1
  C  C1624  1  0.945600  0.146700  0.037240  1
  C  C1625  1  0.878000  0.371900  0.535020  1
  C  C1626  1  0.122000  0.871900  0.964980  1
  C  C1627  1  0.122000  0.628100  0.464980  1
  C  C1628  1  0.878000  0.128100  0.035020  1
  C  C1629  1  0.834900  0.356000  0.558000  1
  C  C1630  1  0.165100  0.856000  0.942000  1
  C  C1631  1  0.165100  0.644000  0.442000  1
  C  C1632  1  0.834900  0.144000  0.058000  1
  C  C1633  1  0.858200  0.325300  0.581400  1
  C  C1634  1  0.141800  0.825300  0.918600  1
  C  C1635  1  0.141800  0.674700  0.418600  1
  C  C1636  1  0.858200  0.174700  0.081400  1
  C  C1637  1  0.927000  0.310600  0.582990  1
  C  C1638  1  0.073000  0.810600  0.917010  1
  C  C1639  1  0.073000  0.689400  0.417010  1
  C  C1640  1  0.927000  0.189400  0.082990  1
  C  C1641  1  0.958700  0.281500  0.608580  1
  C  C1642  1  0.041300  0.781500  0.891420  1
  C  C1643  1  0.041300  0.718500  0.391420  1
  C  C1644  1  0.958700  0.218500  0.108580  1
  C  C1645  1  0.055100  0.244480  0.638120  1
  C  C1646  1  0.944900  0.744480  0.861880  1
  C  C1647  1  0.944900  0.755520  0.361880  1
  C  C1648  1  0.055100  0.255520  0.138120  1
  C  C1649  1  0.117900  0.257170  0.657050  1
  C  C1650  1  0.882100  0.757170  0.842950  1
  C  C1651  1  0.882100  0.742830  0.342950  1
  C  C1652  1  0.117900  0.242830  0.157050  1
  C  C1653  1  0.149100  0.230590  0.682870  1
  C  C1654  1  0.850900  0.730590  0.817130  1
  C  C1655  1  0.850900  0.769410  0.317130  1
  C  C1656  1  0.149100  0.269410  0.182870  1
  C  C1657  1  0.117400  0.191330  0.689750  1
  C  C1658  1  0.882600  0.691330  0.810250  1
  C  C1659  1  0.882600  0.808670  0.310250  1
  C  C1660  1  0.117400  0.308670  0.189750  1
  C  C1661  1  0.054500  0.178640  0.670820  1
  C  C1662  1  0.945500  0.678640  0.829180  1
  C  C1663  1  0.945500  0.821360  0.329180  1
  C  C1664  1  0.054500  0.321360  0.170820  1
  C  C1665  1  0.023400  0.205220  0.645000  1
  C  C1666  1  0.976600  0.705220  0.855000  1
  C  C1667  1  0.976600  0.794780  0.355000  1
  C  C1668  1  0.023400  0.294780  0.145000  1
  C  C1669  1  0.127700  0.125300  0.720600  1
  C  C1670  1  0.872300  0.625300  0.779400  1
  C  C1671  1  0.872300  0.874700  0.279400  1
  C  C1672  1  0.127700  0.374700  0.220600  1
  C  C1673  1  0.713900  0.147990  0.248270  1
  C  C1674  1  0.286100  0.647990  0.251730  1
  C  C1675  1  0.286100  0.852010  0.751730  1
  C  C1676  1  0.713900  0.352010  0.748270  1
  C  C1677  1  0.673400  0.176390  0.226780  1
  C  C1678  1  0.326600  0.676390  0.273220  1
  C  C1679  1  0.326600  0.823610  0.773220  1
  C  C1680  1  0.673400  0.323610  0.726780  1
  C  C1681  1  0.616000  0.160800  0.205240  1
  C  C1682  1  0.384000  0.660800  0.294760  1
  C  C1683  1  0.384000  0.839200  0.794760  1
  C  C1684  1  0.616000  0.339200  0.705240  1
  C  C1685  1  0.599100  0.116900  0.205190  1
  C  C1686  1  0.400900  0.616900  0.294810  1
  C  C1687  1  0.400900  0.883100  0.794810  1
  C  C1688  1  0.599100  0.383100  0.705190  1
  C  C1689  1  0.639600  0.088460  0.226700  1
  C  C1690  1  0.360400  0.588460  0.273300  1
  C  C1691  1  0.360400  0.911540  0.773300  1
  C  C1692  1  0.639600  0.411540  0.726700  1
  C  C1693  1  0.697000  0.104030  0.248220  1
  C  C1694  1  0.303000  0.604030  0.251780  1
  C  C1695  1  0.303000  0.895970  0.751780  1
  C  C1696  1  0.697000  0.395970  0.748220  1
  C  C1697  1  0.510700  0.065000  0.191900  1
  C  C1698  1  0.489300  0.565000  0.308100  1
  C  C1699  1  0.489300  0.935000  0.808100  1
  C  C1700  1  0.510700  0.435000  0.691900  1
  C  C1701  1  0.833000  0.144700  0.270500  1
  C  C1702  1  0.167000  0.644700  0.229500  1
  C  C1703  1  0.167000  0.855300  0.729500  1
  C  C1704  1  0.833000  0.355300  0.770500  1
  C  C1705  1  0.896700  0.162400  0.289700  1
  C  C1706  1  0.103300  0.662400  0.210300  1
  C  C1707  1  0.103300  0.837600  0.710300  1
  C  C1708  1  0.896700  0.337600  0.789700  1
  C  C1709  1  0.961100  0.142700  0.291400  1
  C  C1710  1  0.038900  0.642700  0.208600  1
  C  C1711  1  0.038900  0.857300  0.708600  1
  C  C1712  1  0.961100  0.357300  0.791400  1
  C  C1713  1  0.020000  0.162100  0.309200  1
  C  C1714  1  0.980000  0.662100  0.190800  1
  C  C1715  1  0.980000  0.837900  0.690800  1
  C  C1716  1  0.020000  0.337900  0.809200  1
  C  C1717  1  0.011800  0.201800  0.325340  1
  C  C1718  1  0.988200  0.701800  0.174660  1
  C  C1719  1  0.988200  0.798200  0.674660  1
  C  C1720  1  0.011800  0.298200  0.825340  1
  C  C1721  1  0.943300  0.219100  0.323220  1
  C  C1722  1  0.056700  0.719100  0.176780  1
  C  C1723  1  0.056700  0.780900  0.676780  1
  C  C1724  1  0.943300  0.280900  0.823220  1
  C  C1725  1  0.063600  0.246500  0.373560  1
  C  C1726  1  0.936400  0.746500  0.126440  1
  C  C1727  1  0.936400  0.753500  0.626440  1
  C  C1728  1  0.063600  0.253500  0.873560  1
  C  C1729  1  0.072200  0.225000  0.343900  1
  C  C1730  1  0.927800  0.725000  0.156100  1
  C  C1731  1  0.927800  0.775000  0.656100  1
  C  C1732  1  0.072200  0.275000  0.843900  1
  C  C1733  1  0.140400  0.225300  0.332000  1
  C  C1734  1  0.859600  0.725300  0.168000  1
  C  C1735  1  0.859600  0.774700  0.668000  1
  C  C1736  1  0.140400  0.274700  0.832000  1
  C  C1737  1  0.195900  0.246000  0.348800  1
  C  C1738  1  0.804100  0.746000  0.151200  1
  C  C1739  1  0.804100  0.754000  0.651200  1
  C  C1740  1  0.195900  0.254000  0.848800  1
  C  C1741  1  0.189700  0.269000  0.379500  1
  C  C1742  1  0.810300  0.769000  0.120500  1
  C  C1743  1  0.810300  0.731000  0.620500  1
  C  C1744  1  0.189700  0.231000  0.879500  1
  C  C1745  1  0.121700  0.268300  0.391750  1
  C  C1746  1  0.878300  0.768300  0.108250  1
  C  C1747  1  0.878300  0.731700  0.608250  1
  C  C1748  1  0.121700  0.231700  0.891750  1
  C  C1749  1  0.113900  0.289400  0.423000  1
  C  C1750  1  0.886100  0.789400  0.077000  1
  C  C1751  1  0.886100  0.710600  0.577000  1
  C  C1752  1  0.113900  0.210600  0.923000  1
  C  C1753  1  0.169100  0.311200  0.440370  1
  C  C1754  1  0.830900  0.811200  0.059630  1
  C  C1755  1  0.830900  0.688800  0.559630  1
  C  C1756  1  0.169100  0.188800  0.940370  1
  C  C1757  1  0.236800  0.311700  0.427500  1
  C  C1758  1  0.763200  0.811700  0.072500  1
  C  C1759  1  0.763200  0.688300  0.572500  1
  C  C1760  1  0.236800  0.188300  0.927500  1
  C  C1761  1  0.245000  0.291200  0.398500  1
  C  C1762  1  0.755000  0.791200  0.101500  1
  C  C1763  1  0.755000  0.708800  0.601500  1
  C  C1764  1  0.245000  0.208800  0.898500  1
  C  C1765  1  0.123300  0.312200  0.496620  1
  C  C1766  1  0.876700  0.812200  0.003380  1
  C  C1767  1  0.876700  0.687800  0.503380  1
  C  C1768  1  0.123300  0.187800  0.996620  1
  C  C1769  1  0.160500  0.332900  0.472800  1
  C  C1770  1  0.839500  0.832900  0.027200  1
  C  C1771  1  0.839500  0.667100  0.527200  1
  C  C1772  1  0.160500  0.167100  0.972800  1
  C  C1773  1  0.190000  0.372400  0.481800  1
  C  C1774  1  0.810000  0.872400  0.018200  1
  C  C1775  1  0.810000  0.627600  0.518200  1
  C  C1776  1  0.190000  0.127600  0.981800  1
  C  C1777  1  0.181500  0.390600  0.512700  1
  C  C1778  1  0.818500  0.890600  0.987300  1
  C  C1779  1  0.818500  0.609400  0.487300  1
  C  C1780  1  0.181500  0.109400  0.012700  1
  C  C1781  1  0.145300  0.367300  0.535110  1
  C  C1782  1  0.854700  0.867300  0.964890  1
  C  C1783  1  0.854700  0.632700  0.464890  1
  C  C1784  1  0.145300  0.132700  0.035110  1
  C  C1785  1  0.142800  0.382700  0.569550  1
  C  C1786  1  0.857200  0.882700  0.930450  1
  C  C1787  1  0.857200  0.617300  0.430450  1
  C  C1788  1  0.142800  0.117300  0.069550  1
  C  C1789  1  0.127100  0.371700  0.626080  1
  C  C1790  1  0.872900  0.871700  0.873920  1
  C  C1791  1  0.872900  0.628300  0.373920  1
  C  C1792  1  0.127100  0.128300  0.126080  1
  C  C1793  1  0.071700  0.370000  0.645600  1
  C  C1794  1  0.928300  0.870000  0.854400  1
  C  C1795  1  0.928300  0.630000  0.354400  1
  C  C1796  1  0.071700  0.130000  0.145600  1
  C  C1797  1  0.082300  0.380900  0.679500  1
  C  C1798  1  0.917700  0.880900  0.820500  1
  C  C1799  1  0.917700  0.619100  0.320500  1
  C  C1800  1  0.082300  0.119100  0.179500  1
  C  C1801  1  0.148900  0.392200  0.694400  1
  C  C1802  1  0.851100  0.892200  0.805600  1
  C  C1803  1  0.851100  0.607800  0.305600  1
  C  C1804  1  0.148900  0.107800  0.194400  1
  C  C1805  1  0.204400  0.394500  0.674500  1
  C  C1806  1  0.795600  0.894500  0.825500  1
  C  C1807  1  0.795600  0.605500  0.325500  1
  C  C1808  1  0.204400  0.105500  0.174500  1
  C  C1809  1  0.194200  0.384800  0.640300  1
  C  C1810  1  0.805800  0.884800  0.859700  1
  C  C1811  1  0.805800  0.615200  0.359700  1
  C  C1812  1  0.194200  0.115200  0.140300  1
  C  C1813  1  0.129000  0.383600  0.752200  1
  C  C1814  1  0.871000  0.883600  0.747800  1
  C  C1815  1  0.871000  0.616400  0.247800  1
  C  C1816  1  0.129000  0.116400  0.252200  1
  C  C1817  1  0.022800  0.556100  0.408800  1
  C  C1818  1  0.977200  0.056100  0.091200  1
  C  C1819  1  0.977200  0.443900  0.591200  1
  C  C1820  1  0.022800  0.943900  0.908800  1
  C  C1821  1  0.077000  0.560000  0.384200  1
  C  C1822  1  0.923000  0.060000  0.115800  1
  C  C1823  1  0.923000  0.440000  0.615800  1
  C  C1824  1  0.077000  0.940000  0.884200  1
  C  C1825  1  0.375400  0.132500  0.012200  1
  C  C1826  1  0.624600  0.632500  0.487800  1
  C  C1827  1  0.624600  0.867500  0.987800  1
  C  C1828  1  0.375400  0.367500  0.512200  1
  C  C1829  1  0.389200  0.086300  0.011000  1
  C  C1830  1  0.610800  0.586300  0.489000  1
  C  C1831  1  0.610800  0.913700  0.989000  1
  C  C1832  1  0.389200  0.413700  0.511000  1
  C  C1833  1  0.460000  0.483000  0.393700  1
  C  C1834  1  0.540000  0.983000  0.106300  1
  C  C1835  1  0.540000  0.517000  0.606300  1
  C  C1836  1  0.460000  0.017000  0.893700  1
  C  C1837  1  0.474000  0.506900  0.427800  1
  C  C1838  1  0.526000  0.006900  0.072200  1
  C  C1839  1  0.526000  0.493100  0.572200  1
  C  C1840  1  0.474000  0.993100  0.927800  1
  C  C1841  1  0.248800  0.307300  0.753200  1
  C  C1842  1  0.751200  0.807300  0.746800  1
  C  C1843  1  0.751200  0.692700  0.246800  1
  C  C1844  1  0.248800  0.192700  0.253200  1
  C  C1845  1  0.305900  0.341900  0.764500  1
  C  C1846  1  0.694100  0.841900  0.735500  1
  C  C1847  1  0.694100  0.658100  0.235500  1
  C  C1848  1  0.305900  0.158100  0.264500  1
  C  C1849  1  0.253200  0.373300  0.327900  1
  C  C1850  1  0.746800  0.873300  0.172100  1
  C  C1851  1  0.746800  0.626700  0.672100  1
  C  C1852  1  0.253200  0.126700  0.827900  1
  C  C1853  1  0.261700  0.398300  0.360300  1
  C  C1854  1  0.738300  0.898300  0.139700  1
  C  C1855  1  0.738300  0.601700  0.639700  1
  C  C1856  1  0.261700  0.101700  0.860300  1
  C  C1857  1  0.132500  0.329800  0.936800  1
  C  C1858  1  0.867500  0.829800  0.563200  1
  C  C1859  1  0.867500  0.670200  0.063200  1
  C  C1860  1  0.132500  0.170200  0.436800  1
  C  C1861  1  0.100000  0.517000  0.397800  1
  C  C1862  1  0.900000  0.017000  0.102200  1
  C  C1863  1  0.900000  0.483000  0.602200  1
  C  C1864  1  0.100000  0.983000  0.897800  1
  C  C1865  1  0.990500  0.520300  0.476000  1
  C  C1866  1  0.009500  0.020300  0.024000  1
  C  C1867  1  0.009500  0.479700  0.524000  1
  C  C1868  1  0.990500  0.979700  0.976000  1
  C  C1869  1  0.031500  0.485100  0.488500  1
  C  C1870  1  0.968500  0.985100  0.011500  1
  C  C1871  1  0.968500  0.514900  0.511500  1
  C  C1872  1  0.031500  0.014900  0.988500  1
  C  C1873  1  0.050000  0.478000  0.468000  1
  C  C1874  1  0.950000  0.978000  0.032000  1
  C  C1875  1  0.950000  0.522000  0.532000  1
  C  C1876  1  0.050000  0.022000  0.968000  1
  C  C1877  1  0.008000  0.517400  0.453300  1
  C  C1878  1  0.992000  0.017400  0.046700  1
  C  C1879  1  0.992000  0.482600  0.546700  1
  C  C1880  1  0.008000  0.982600  0.953300  1
  C  C1881  1  0.557400  0.444800  0.889900  1
  C  C1882  1  0.442600  0.944800  0.610100  1
  C  C1883  1  0.442600  0.555200  0.110100  1
  C  C1884  1  0.557400  0.055200  0.389900  1
  C  C1885  1  0.832700  0.141300  0.364300  1
  C  C1886  1  0.167300  0.641300  0.135700  1
  C  C1887  1  0.167300  0.858700  0.635700  1
  C  C1888  1  0.832700  0.358700  0.864300  1
  C  C1889  1  0.844100  0.099000  0.355800  1
  C  C1890  1  0.155900  0.599000  0.144200  1
  C  C1891  1  0.155900  0.901000  0.644200  1
  C  C1892  1  0.844100  0.401000  0.855800  1
  C  C1893  1  0.903800  0.077000  0.370000  1
  C  C1894  1  0.096200  0.577000  0.130000  1
  C  C1895  1  0.096200  0.923000  0.630000  1
  C  C1896  1  0.903800  0.423000  0.870000  1
  C  C1897  1  0.952100  0.098000  0.393400  1
  C  C1898  1  0.047900  0.598000  0.106600  1
  C  C1899  1  0.047900  0.902000  0.606600  1
  C  C1900  1  0.952100  0.402000  0.893400  1
  C  C1901  1  0.941600  0.141100  0.402100  1
  C  C1902  1  0.058400  0.641100  0.097900  1
  C  C1903  1  0.058400  0.858900  0.597900  1
  C  C1904  1  0.941600  0.358900  0.902100  1
  C  C1905  1  0.881300  0.162400  0.387300  1
  C  C1906  1  0.118700  0.662400  0.112700  1
  C  C1907  1  0.118700  0.837600  0.612700  1
  C  C1908  1  0.881300  0.337600  0.887300  1
  C  C1909  1  0.019000  0.055100  0.430700  1
  C  C1910  1  0.981000  0.555100  0.069300  1
  C  C1911  1  0.981000  0.944900  0.569300  1
  C  C1912  1  0.019000  0.444900  0.930700  1
  C  C1913  1  0.513600  0.391400  0.297900  1
  C  C1914  1  0.486400  0.891400  0.202100  1
  C  C1915  1  0.486400  0.608600  0.702100  1
  C  C1916  1  0.513600  0.108600  0.797900  1
  C  C1917  1  0.456500  0.413300  0.307800  1
  C  C1918  1  0.543500  0.913300  0.192200  1
  C  C1919  1  0.543500  0.586700  0.692200  1
  C  C1920  1  0.456500  0.086700  0.807800  1
  C  C1921  1  0.422300  0.444800  0.287300  1
  C  C1922  1  0.577700  0.944800  0.212700  1
  C  C1923  1  0.577700  0.555200  0.712700  1
  C  C1924  1  0.422300  0.055200  0.787300  1
  C  C1925  1  0.445500  0.454100  0.256300  1
  C  C1926  1  0.554500  0.954100  0.243700  1
  C  C1927  1  0.554500  0.545900  0.743700  1
  C  C1928  1  0.445500  0.045900  0.756300  1
  C  C1929  1  0.503800  0.432300  0.245900  1
  C  C1930  1  0.496200  0.932300  0.254100  1
  C  C1931  1  0.496200  0.567700  0.754100  1
  C  C1932  1  0.503800  0.067700  0.745900  1
  C  C1933  1  0.537300  0.400900  0.267100  1
  C  C1934  1  0.462700  0.900900  0.232900  1
  C  C1935  1  0.462700  0.599100  0.732900  1
  C  C1936  1  0.537300  0.099100  0.767100  1
  C  C1937  1  0.460000  0.500000  0.208700  1
  C  C1938  1  0.540000  0.000000  0.291300  1
  C  C1939  1  0.540000  0.500000  0.791300  1
  C  C1940  1  0.460000  0.000000  0.708700  1
  C  C1941  1  0.533000  0.061700  0.172500  1
  C  C1942  1  0.467000  0.561700  0.327500  1
  C  C1943  1  0.467000  0.938300  0.827500  1
  C  C1944  1  0.533000  0.438300  0.672500  1
  C  C1945  1  0.104400  0.397100  0.747500  1
  C  C1946  1  0.895600  0.897100  0.752500  1
  C  C1947  1  0.895600  0.602900  0.252500  1
  C  C1948  1  0.104400  0.102900  0.247500  1
  C  C1949  1  0.431700  0.534000  0.395200  1
  C  C1950  1  0.568300  0.034000  0.104800  1
  C  C1951  1  0.568300  0.466000  0.604800  1
  C  C1952  1  0.431700  0.966000  0.895200  1
  C  C1953  1  0.456000  0.491100  0.381000  1
  C  C1954  1  0.544000  0.991100  0.119000  1
  C  C1955  1  0.544000  0.508900  0.619000  1
  C  C1956  1  0.456000  0.008900  0.881000  1
  N  N1957  1  0.550300  0.298800  0.014360  1
  N  N1958  1  0.449700  0.798800  0.485640  1
  N  N1959  1  0.449700  0.701200  0.985640  1
  N  N1960  1  0.550300  0.201200  0.514360  1
  N  N1961  1  0.610900  0.348400  0.065570  1
  N  N1962  1  0.389100  0.848400  0.434430  1
  N  N1963  1  0.389100  0.651600  0.934430  1
  N  N1964  1  0.610900  0.151600  0.565570  1
  N  N1965  1  0.693100  0.421300  0.312910  1
  N  N1966  1  0.306900  0.921300  0.187090  1
  N  N1967  1  0.306900  0.578700  0.687090  1
  N  N1968  1  0.693100  0.078700  0.812910  1
  N  N1969  1  0.669900  0.407400  0.377720  1
  N  N1970  1  0.330100  0.907400  0.122280  1
  N  N1971  1  0.330100  0.592600  0.622280  1
  N  N1972  1  0.669900  0.092600  0.877720  1
  N  N1973  1  0.402800  0.292100  0.046820  1
  N  N1974  1  0.597200  0.792100  0.453180  1
  N  N1975  1  0.597200  0.707900  0.953180  1
  N  N1976  1  0.402800  0.207900  0.546820  1
  N  N1977  1  0.527600  0.264500  0.082770  1
  N  N1978  1  0.472400  0.764500  0.417230  1
  N  N1979  1  0.472400  0.735500  0.917230  1
  N  N1980  1  0.527600  0.235500  0.582770  1
  N  N1981  1  0.943800  0.305700  0.259990  1
  N  N1982  1  0.056200  0.805700  0.240010  1
  N  N1983  1  0.056200  0.694300  0.740010  1
  N  N1984  1  0.943800  0.194300  0.759990  1
  N  N1985  1  0.016000  0.356400  0.306380  1
  N  N1986  1  0.984000  0.856400  0.193620  1
  N  N1987  1  0.984000  0.643600  0.693620  1
  N  N1988  1  0.016000  0.143600  0.806380  1
  N  N1989  1  0.482900  0.394100  0.036400  1
  N  N1990  1  0.517100  0.894100  0.463600  1
  N  N1991  1  0.517100  0.605900  0.963600  1
  N  N1992  1  0.482900  0.105900  0.536400  1
  N  N1993  1  0.466100  0.362400  0.098390  1
  N  N1994  1  0.533900  0.862400  0.401610  1
  N  N1995  1  0.533900  0.637600  0.901610  1
  N  N1996  1  0.466100  0.137600  0.598390  1
  N  N1997  1  0.664300  0.208700  0.309480  1
  N  N1998  1  0.335700  0.708700  0.190520  1
  N  N1999  1  0.335700  0.791300  0.690520  1
  N  N2000  1  0.664300  0.291300  0.809480  1
  N  N2001  1  0.770100  0.166500  0.346930  1
  N  N2002  1  0.229900  0.666500  0.153070  1
  N  N2003  1  0.229900  0.833500  0.653070  1
  N  N2004  1  0.770100  0.333500  0.846930  1
  N  N2005  1  0.908600  0.408800  0.248640  1
  N  N2006  1  0.091400  0.908800  0.251360  1
  N  N2007  1  0.091400  0.591200  0.751360  1
  N  N2008  1  0.908600  0.091200  0.748640  1
  N  N2009  1  0.890300  0.417700  0.314380  1
  N  N2010  1  0.109700  0.917700  0.185620  1
  N  N2011  1  0.109700  0.582300  0.685620  1
  N  N2012  1  0.890300  0.082300  0.814380  1
  N  N2013  1  0.970000  0.323900  0.559970  1
  N  N2014  1  0.030000  0.823900  0.940030  1
  N  N2015  1  0.030000  0.676100  0.440030  1
  N  N2016  1  0.970000  0.176100  0.059970  1
  N  N2017  1  0.025500  0.272900  0.611840  1
  N  N2018  1  0.974500  0.772900  0.888160  1
  N  N2019  1  0.974500  0.727100  0.388160  1
  N  N2020  1  0.025500  0.227100  0.111840  1
  N  N2021  1  0.773900  0.164500  0.268920  1
  N  N2022  1  0.226100  0.664500  0.231080  1
  N  N2023  1  0.226100  0.835500  0.731080  1
  N  N2024  1  0.773900  0.335500  0.768920  1
  N  N2025  1  0.886900  0.200200  0.306180  1
  N  N2026  1  0.113100  0.700200  0.193820  1
  N  N2027  1  0.113100  0.799800  0.693820  1
  N  N2028  1  0.886900  0.299800  0.806180  1
  N  N2029  1  0.116200  0.328000  0.527090  1
  N  N2030  1  0.883800  0.828000  0.972910  1
  N  N2031  1  0.883800  0.672000  0.472910  1
  N  N2032  1  0.116200  0.172000  0.027090  1
  N  N2033  1  0.117200  0.358100  0.590960  1
  N  N2034  1  0.882800  0.858100  0.909040  1
  N  N2035  1  0.882800  0.641900  0.409040  1
  N  N2036  1  0.117200  0.141900  0.090960  1
  N  N2037  1  0.559700  0.363900  0.317740  1
  N  N2038  1  0.440300  0.863900  0.182260  1
  N  N2039  1  0.440300  0.636100  0.682260  1
  N  N2040  1  0.559700  0.136100  0.817740  1
  N  N2041  1  0.628500  0.309000  0.362830  1
  N  N2042  1  0.371500  0.809000  0.137170  1
  N  N2043  1  0.371500  0.691000  0.637170  1
  N  N2044  1  0.628500  0.191000  0.862830  1
  N  N2045  1  0.040300  0.235800  0.540680  1
  N  N2046  1  0.959700  0.735800  0.959320  1
  N  N2047  1  0.959700  0.764200  0.459320  1
  N  N2048  1  0.040300  0.264200  0.040680  1
  N  N2049  1  0.168100  0.253400  0.577440  1
  N  N2050  1  0.831900  0.753400  0.922560  1
  N  N2051  1  0.831900  0.746600  0.422560  1
  N  N2052  1  0.168100  0.246600  0.077440  1
  N  N2053  1  0.983800  0.552900  0.427300  1
  N  N2054  1  0.016200  0.052900  0.072700  1
  N  N2055  1  0.016200  0.447100  0.572700  1
  N  N2056  1  0.983800  0.947100  0.927300  1
  N  N2057  1  0.348600  0.164600  0.015800  1
  N  N2058  1  0.651400  0.664600  0.484200  1
  N  N2059  1  0.651400  0.835400  0.984200  1
  N  N2060  1  0.348600  0.335400  0.515800  1
  N  N2061  1  0.477000  0.459000  0.374300  1
  N  N2062  1  0.523000  0.959000  0.125700  1
  N  N2063  1  0.523000  0.541000  0.625700  1
  N  N2064  1  0.477000  0.041000  0.874300  1
  N  N2065  1  0.199000  0.291300  0.753500  1
  N  N2066  1  0.801000  0.791300  0.746500  1
  N  N2067  1  0.801000  0.708700  0.246500  1
  N  N2068  1  0.199000  0.208700  0.253500  1
  N  N2069  1  0.232500  0.354400  0.305700  1
  N  N2070  1  0.767500  0.854400  0.194300  1
  N  N2071  1  0.767500  0.645600  0.694300  1
  N  N2072  1  0.232500  0.145600  0.805700  1
  N  N2073  1  0.960500  0.550000  0.467000  1
  N  N2074  1  0.039500  0.050000  0.033000  1
  N  N2075  1  0.039500  0.450000  0.533000  1
  N  N2076  1  0.960500  0.950000  0.967000  1
  N  N2077  1  0.972000  0.545400  0.446800  1
  N  N2078  1  0.028000  0.045400  0.053200  1
  N  N2079  1  0.028000  0.454600  0.553200  1
  N  N2080  1  0.972000  0.954600  0.946800  1
  O  O2081  1  0.984000  0.095900  0.435700  1
  O  O2082  1  0.016000  0.595900  0.064300  1
  O  O2083  1  0.016000  0.904100  0.564300  1
  O  O2084  1  0.984000  0.404100  0.935700  1
  O  O2085  1  0.453700  0.477300  0.212900  1
  O  O2086  1  0.546300  0.977300  0.287100  1
  O  O2087  1  0.546300  0.522700  0.787100  1
  O  O2088  1  0.453700  0.022700  0.712900  1
  O  O2089  1  0.419600  0.176600  0.924760  1
  O  O2090  1  0.580400  0.676600  0.575240  1
  O  O2091  1  0.580400  0.823400  0.075240  1
  O  O2092  1  0.419600  0.323400  0.424760  1
  O  O2093  1  0.662600  0.371200  0.513850  1
  O  O2094  1  0.337400  0.871200  0.986150  1
  O  O2095  1  0.337400  0.628800  0.486150  1
  O  O2096  1  0.662600  0.128800  0.013850  1
  O  O2097  1  0.162700  0.350300  0.966500  1
  O  O2098  1  0.837300  0.850300  0.533500  1
  O  O2099  1  0.837300  0.649700  0.033500  1
  O  O2100  1  0.162700  0.149700  0.466500  1
  O  O2101  1  0.099300  0.472000  0.409600  1
  O  O2102  1  0.900700  0.972000  0.090400  1
  O  O2103  1  0.900700  0.528000  0.590400  1
  O  O2104  1  0.099300  0.028000  0.909600  1
  O  O2105  1  0.589400  0.461200  0.922000  1
  O  O2106  1  0.410600  0.961200  0.578000  1
  O  O2107  1  0.410600  0.538800  0.078000  1
  O  O2108  1  0.589400  0.038800  0.422000  1
  O  O2109  1  0.400400  0.282700  0.672800  1
  O  O2110  1  0.599600  0.782700  0.827200  1
  O  O2111  1  0.599600  0.717300  0.327200  1
  O  O2112  1  0.400400  0.217300  0.172800  1
  O  O2113  1  0.917000  0.384700  0.110550  1
  O  O2114  1  0.083000  0.884700  0.389450  1
  O  O2115  1  0.083000  0.615300  0.889450  1
  O  O2116  1  0.917000  0.115300  0.610550  1
  O  O2117  1  0.151400  0.167800  0.715400  1
  O  O2118  1  0.848600  0.667800  0.784600  1
  O  O2119  1  0.848600  0.832200  0.284600  1
  O  O2120  1  0.151400  0.332200  0.215400  1
  O  O2121  1  0.544100  0.105400  0.182000  1
  O  O2122  1  0.455900  0.605400  0.318000  1
  O  O2123  1  0.455900  0.894600  0.818000  1
  O  O2124  1  0.544100  0.394600  0.682000  1
  O  O2125  1  0.166300  0.402000  0.727180  1
  O  O2126  1  0.833700  0.902000  0.772820  1
  O  O2127  1  0.833700  0.598000  0.272820  1
  O  O2128  1  0.166300  0.098000  0.227180  1
  O  O2129  1  0.754800  0.264300  0.263200  1
  O  O2130  1  0.245200  0.764300  0.236800  1
  O  O2131  1  0.245200  0.735700  0.736800  1
  O  O2132  1  0.754800  0.235700  0.763200  1
  O  O2133  1  0.689600  0.326200  0.294200  1
  O  O2134  1  0.310400  0.826200  0.205800  1
  O  O2135  1  0.310400  0.673800  0.705800  1
  O  O2136  1  0.689600  0.173800  0.794200  1
  O  O2137  1  0.011900  0.079000  0.409700  1
  O  O2138  1  0.988100  0.579000  0.090300  1
  O  O2139  1  0.988100  0.921000  0.590300  1
  O  O2140  1  0.011900  0.421000  0.909700  1
  O  O2141  1  0.414400  0.483800  0.233500  1
  O  O2142  1  0.585600  0.983800  0.266500  1
  O  O2143  1  0.585600  0.516200  0.766500  1
  O  O2144  1  0.414400  0.016200  0.733500  1
  O  O2145  1  0.805200  0.341500  0.275900  1
  O  O2146  1  0.194800  0.841500  0.224100  1
  O  O2147  1  0.194800  0.658500  0.724100  1
  O  O2148  1  0.805200  0.158500  0.775900  1
  O  O2149  1  0.894200  0.320700  0.336100  1
  O  O2150  1  0.105800  0.820700  0.163900  1
  O  O2151  1  0.105800  0.679300  0.663900  1
  O  O2152  1  0.894200  0.179300  0.836100  1
  O  O2153  1  0.798500  0.263500  0.342100  1.0
  O  O2154  1  0.201500  0.763500  0.157900  1.0
  O  O2155  1  0.201500  0.736500  0.657900  1.0
  O  O2156  1  0.798500  0.236500  0.842100  1.0
  O  O2157  1  0.785500  0.339000  0.358500  0.5
  F  F2158  1  0.785500  0.339000  0.358500  0.5
  O  O2159  1  0.214500  0.839000  0.141500  0.5
  F  F2160  1  0.214500  0.839000  0.141500  0.5
  O  O2161  1  0.214500  0.661000  0.641500  0.5
  F  F2162  1  0.214500  0.661000  0.641500  0.5
  O  O2163  1  0.785500  0.161000  0.858500  0.5
  F  F2164  1  0.785500  0.161000  0.858500  0.5
  F  F2165  1  0.819900  0.327000  0.306600  1
  F  F2166  1  0.180100  0.827000  0.193400  1
  F  F2167  1  0.180100  0.673000  0.693400  1
  F  F2168  1  0.819900  0.173000  0.806600  1
  F  F2169  1  0.806400  0.268300  0.340600  1
  F  F2170  1  0.193600  0.768300  0.159400  1
  F  F2171  1  0.193600  0.731700  0.659400  1
  F  F2172  1  0.806400  0.231700  0.840600  1
  F  F2173  1  0.900000  0.316000  0.353500  1
  F  F2174  1  0.100000  0.816000  0.146500  1
  F  F2175  1  0.100000  0.684000  0.646500  1
  F  F2176  1  0.900000  0.184000  0.853500  1
  F  F2177  1  0.619700  0.325700  0.162700  1
  F  F2178  1  0.380300  0.825700  0.337300  1
  F  F2179  1  0.380300  0.674300  0.837300  1
  F  F2180  1  0.619700  0.174300  0.662700  1
  F  F2181  1  0.630300  0.275600  0.197700  1
  F  F2182  1  0.369700  0.775600  0.302300  1
  F  F2183  1  0.369700  0.724400  0.802300  1
  F  F2184  1  0.630300  0.224400  0.697700  1
  F  F2185  1  0.729500  0.318800  0.194000  1
  F  F2186  1  0.270500  0.818800  0.306000  1
  F  F2187  1  0.270500  0.681200  0.806000  1
  F  F2188  1  0.729500  0.181200  0.694000  1
  F  F2189  1  0.641600  0.343500  0.218200  1
  F  F2190  1  0.358400  0.843500  0.281800  1
  F  F2191  1  0.358400  0.656500  0.781800  1
  F  F2192  1  0.641600  0.156500  0.718200  1
  F  F2193  1  0.846100  0.312800  0.423600  1
  F  F2194  1  0.153900  0.812800  0.076400  1
  F  F2195  1  0.153900  0.687200  0.576400  1
  F  F2196  1  0.846100  0.187200  0.923600  1
  F  F2197  1  0.943000  0.264300  0.428900  1
  F  F2198  1  0.057000  0.764300  0.071100  1
  F  F2199  1  0.057000  0.735700  0.571100  1
  F  F2200  1  0.943000  0.235700  0.928900  1
  F  F2201  1  0.905400  0.302200  0.472200  1
  F  F2202  1  0.094600  0.802200  0.027800  1
  F  F2203  1  0.094600  0.697800  0.527800  1
  F  F2204  1  0.905400  0.197800  0.972200  1
  F  F2205  1  0.958200  0.336200  0.430300  1
  F  F2206  1  0.041800  0.836200  0.069700  1
  F  F2207  1  0.041800  0.663800  0.569700  1
  F  F2208  1  0.958200  0.163800  0.930300  1
  F  F2209  1  0.353500  0.080200  0.136070  1
  F  F2210  1  0.646500  0.580200  0.363930  1
  F  F2211  1  0.646500  0.919800  0.863930  1
  F  F2212  1  0.353500  0.419800  0.636070  1
  F  F2213  1  0.379100  0.034800  0.094980  1
  F  F2214  1  0.620900  0.534800  0.405020  1
  F  F2215  1  0.620900  0.965200  0.905020  1
  F  F2216  1  0.379100  0.465200  0.594980  1
  F  F2217  1  0.310000  0.093210  0.082020  1
  F  F2218  1  0.690000  0.593210  0.417980  1
  F  F2219  1  0.690000  0.906790  0.917980  1
  F  F2220  1  0.310000  0.406790  0.582020  1
  F  F2221  1  0.427600  0.101140  0.098970  1
  F  F2222  1  0.572400  0.601140  0.401030  1
  F  F2223  1  0.572400  0.898860  0.901030  1
  F  F2224  1  0.427600  0.398860  0.598970  1
  F  F2225  1  0.364800  0.156400  0.344300  1
  F  F2226  1  0.635200  0.656400  0.155700  1
  F  F2227  1  0.635200  0.843600  0.655700  1
  F  F2228  1  0.364800  0.343600  0.844300  1
  F  F2229  1  0.348200  0.155900  0.396200  1
  F  F2230  1  0.651800  0.655900  0.103800  1
  F  F2231  1  0.651800  0.844100  0.603800  1
  F  F2232  1  0.348200  0.344100  0.896200  1
  F  F2233  1  0.463800  0.162900  0.386900  1
  F  F2234  1  0.536200  0.662900  0.113100  1
  F  F2235  1  0.536200  0.837100  0.613100  1
  F  F2236  1  0.463800  0.337100  0.886900  1
  F  F2237  1  0.385700  0.215600  0.373200  1
  F  F2238  1  0.614300  0.715600  0.126800  1
  F  F2239  1  0.614300  0.784400  0.626800  1
  F  F2240  1  0.385700  0.284400  0.873200  1
  F  F2241  1  0.302200  0.508500  0.150400  1
  F  F2242  1  0.697800  0.008500  0.349600  1
  F  F2243  1  0.697800  0.491500  0.849600  1
  F  F2244  1  0.302200  0.991500  0.650400  1
  F  F2245  1  0.187100  0.492500  0.151500  1
  F  F2246  1  0.812900  0.992500  0.348500  1
  F  F2247  1  0.812900  0.507500  0.848500  1
  F  F2248  1  0.187100  0.007500  0.651500  1
  F  F2249  1  0.266700  0.463400  0.189700  1
  F  F2250  1  0.733300  0.963400  0.310300  1
  F  F2251  1  0.733300  0.536600  0.810300  1
  F  F2252  1  0.266700  0.036600  0.689700  1
  F  F2253  1  0.245500  0.533300  0.191300  1
  F  F2254  1  0.754500  0.033300  0.308700  1
  F  F2255  1  0.754500  0.466700  0.808700  1
  F  F2256  1  0.245500  0.966700  0.691300  1
  F  F2257  1  0.270000  0.512200  0.407400  1
  F  F2258  1  0.730000  0.012200  0.092600  1
  F  F2259  1  0.730000  0.487800  0.592600  1
  F  F2260  1  0.270000  0.987800  0.907400  1
  F  F2261  1  0.333700  0.503100  0.457800  1
  F  F2262  1  0.666300  0.003100  0.042200  1
  F  F2263  1  0.666300  0.496900  0.542200  1
  F  F2264  1  0.333700  0.996900  0.957800  1
  F  F2265  1  0.345500  0.457000  0.416600  1
  F  F2266  1  0.654500  0.957000  0.083400  1
  F  F2267  1  0.654500  0.543000  0.583400  1
  F  F2268  1  0.345500  0.043000  0.916600  1
  F  F2269  1  0.247000  0.456600  0.441000  1
  F  F2270  1  0.753000  0.956600  0.059000  1
  F  F2271  1  0.753000  0.543400  0.559000  1
  F  F2272  1  0.247000  0.043400  0.941000  1
  F  F2273  1  0.150200  0.491700  0.953800  1
  F  F2274  1  0.849800  0.991700  0.546200  1
  F  F2275  1  0.849800  0.508300  0.046200  1
  F  F2276  1  0.150200  0.008300  0.453800  1
  F  F2277  1  0.222600  0.543800  0.974000  1
  F  F2278  1  0.777400  0.043800  0.526000  1
  F  F2279  1  0.777400  0.456200  0.026000  1
  F  F2280  1  0.222600  0.956200  0.474000  1
  F  F2281  1  0.237900  0.477300  0.995200  1
  F  F2282  1  0.762100  0.977300  0.504800  1
  F  F2283  1  0.762100  0.522700  0.004800  1
  F  F2284  1  0.237900  0.022700  0.495200  1
  F  F2285  1  0.145600  0.517600  0.005800  1
  F  F2286  1  0.854400  0.017600  0.494200  1
  F  F2287  1  0.854400  0.482400  0.994200  1
  F  F2288  1  0.145600  0.982400  0.505800  1
  F  F2289  1  0.606800  0.296000  0.164800  1
  F  F2290  1  0.393200  0.796000  0.335200  1
  F  F2291  1  0.393200  0.704000  0.835200  1
  F  F2292  1  0.606800  0.204000  0.664800  1
  F  F2293  1  0.662400  0.275900  0.213100  1
  F  F2294  1  0.337600  0.775900  0.286900  1
  F  F2295  1  0.337600  0.724100  0.786900  1
  F  F2296  1  0.662400  0.224100  0.713100  1
  F  F2297  1  0.720200  0.316100  0.176700  1
  F  F2298  1  0.279800  0.816100  0.323300  1
  F  F2299  1  0.279800  0.683900  0.823300  1
  F  F2300  1  0.720200  0.183900  0.676700  1
  F  F2301  1  0.631900  0.349100  0.200800  1
  F  F2302  1  0.368100  0.849100  0.299200  1
  F  F2303  1  0.368100  0.650900  0.799200  1
  F  F2304  1  0.631900  0.150900  0.700800  1
  F  F2305  1  0.853100  0.306600  0.443600  1
  F  F2306  1  0.146900  0.806600  0.056400  1
  F  F2307  1  0.146900  0.693400  0.556400  1
  F  F2308  1  0.853100  0.193400  0.943600  1
  F  F2309  1  0.917300  0.264800  0.412200  1
  F  F2310  1  0.082700  0.764800  0.087800  1
  F  F2311  1  0.082700  0.735200  0.587800  1
  F  F2312  1  0.917300  0.235200  0.912200  1
  F  F2313  1  0.948800  0.301200  0.464200  1
  F  F2314  1  0.051200  0.801200  0.035800  1
  F  F2315  1  0.051200  0.698800  0.535800  1
  F  F2316  1  0.948800  0.198800  0.964200  1
  F  F2317  1  0.935800  0.332800  0.408200  1
  F  F2318  1  0.064200  0.832800  0.091800  1
  F  F2319  1  0.064200  0.667200  0.591800  1
  F  F2320  1  0.935800  0.167200  0.908200  1
  F  F2321  1  0.972300  0.322800  0.458200  1
  F  F2322  1  0.027700  0.822800  0.041800  1
  F  F2323  1  0.027700  0.677200  0.541800  1
  F  F2324  1  0.972300  0.177200  0.958200  1
  F  F2325  1  0.968100  0.276800  0.456900  1
  F  F2326  1  0.031900  0.776800  0.043100  1
  F  F2327  1  0.031900  0.723200  0.543100  1
  F  F2328  1  0.968100  0.223200  0.956900  1
  F  F2329  1  0.390300  0.199100  0.365700  1
  F  F2330  1  0.609700  0.699100  0.134300  1
  F  F2331  1  0.609700  0.800900  0.634300  1
  F  F2332  1  0.390300  0.300900  0.865700  1
  F  F2333  1  0.363500  0.127000  0.361200  1
  F  F2334  1  0.636500  0.627000  0.138800  1
  F  F2335  1  0.636500  0.873000  0.638800  1
  F  F2336  1  0.363500  0.373000  0.861200  1
  F  F2337  1  0.383900  0.157000  0.410200  1
  F  F2338  1  0.616100  0.657000  0.089800  1
  F  F2339  1  0.616100  0.843000  0.589800  1
  F  F2340  1  0.383900  0.343000  0.910200  1
  F  F2341  1  0.468500  0.144500  0.375000  1
  F  F2342  1  0.531500  0.644500  0.125000  1
  F  F2343  1  0.531500  0.855500  0.625000  1
  F  F2344  1  0.468500  0.355500  0.875000  1
  F  F2345  1  0.280000  0.522300  0.417400  1
  F  F2346  1  0.720000  0.022300  0.082600  1
  F  F2347  1  0.720000  0.477700  0.582600  1
  F  F2348  1  0.280000  0.977700  0.917400  1
  F  F2349  1  0.358000  0.486000  0.453200  1
  F  F2350  1  0.642000  0.986000  0.046800  1
  F  F2351  1  0.642000  0.514000  0.546800  1
  F  F2352  1  0.358000  0.014000  0.953200  1
  F  F2353  1  0.308000  0.454500  0.405500  1
  F  F2354  1  0.692000  0.954500  0.094500  1
  F  F2355  1  0.692000  0.545500  0.594500  1
  F  F2356  1  0.308000  0.045500  0.905500  1
  F  F2357  1  0.245000  0.466400  0.447700  1
  F  F2358  1  0.755000  0.966400  0.052300  1
  F  F2359  1  0.755000  0.533600  0.552300  1
  F  F2360  1  0.245000  0.033600  0.947700  1
  F  F2361  1  0.138800  0.532900  0.970700  1
  F  F2362  1  0.861200  0.032900  0.529300  1
  F  F2363  1  0.861200  0.467100  0.029300  1
  F  F2364  1  0.138800  0.967100  0.470700  1
  F  F2365  1  0.154200  0.475900  0.997800  1
  F  F2366  1  0.845800  0.975900  0.502200  1
  F  F2367  1  0.845800  0.524100  0.002200  1
  F  F2368  1  0.154200  0.024100  0.497800  1
  F  F2369  1  0.247400  0.527900  0.976900  1
  F  F2370  1  0.752600  0.027900  0.523100  1
  F  F2371  1  0.752600  0.472100  0.023100  1
  F  F2372  1  0.247400  0.972100  0.476900  1
  F  F2373  1  0.176100  0.480900  0.948800  1
  F  F2374  1  0.823900  0.980900  0.551200  1
  F  F2375  1  0.823900  0.519100  0.051200  1
  F  F2376  1  0.176100  0.019100  0.448800  1
  F  F2377  1  0.881500  0.319300  0.329700  1
  F  F2378  1  0.118500  0.819300  0.170300  1
  F  F2379  1  0.118500  0.680700  0.670300  1
  F  F2380  1  0.881500  0.180700  0.829700  1
  F  F2381  1  0.823500  0.271300  0.363500  1
  F  F2382  1  0.176500  0.771300  0.136500  1
  F  F2383  1  0.176500  0.728700  0.636500  1
  F  F2384  1  0.823500  0.228700  0.863500  1
  F  F2385  1  0.772500  0.338900  0.346800  1
  F  F2386  1  0.227500  0.838900  0.153200  1
  F  F2387  1  0.227500  0.661100  0.653200  1
  F  F2388  1  0.772500  0.161100  0.846800  1
  F  F2389  1  0.782800  0.285800  0.309200  1
  F  F2390  1  0.217200  0.785800  0.190800  1
  F  F2391  1  0.217200  0.714200  0.690800  1
  F  F2392  1  0.782800  0.214200  0.809200  1
  F  F2393  1  0.762200  0.269200  0.277500  1
  F  F2394  1  0.237800  0.769200  0.222500  1
  F  F2395  1  0.237800  0.730800  0.722500  1
  F  F2396  1  0.762200  0.230800  0.777500  1
  F  F2397  1  0.794200  0.340300  0.267700  1
  F  F2398  1  0.205800  0.840300  0.232300  1
  F  F2399  1  0.205800  0.659700  0.732300  1
  F  F2400  1  0.794200  0.159700  0.767700  1
  F  F2401  1  0.749600  0.325400  0.319100  1
  F  F2402  1  0.250400  0.825400  0.180900  1
  F  F2403  1  0.250400  0.674600  0.680900  1
  F  F2404  1  0.749600  0.174600  0.819100  1
  F  F2405  1  0.676500  0.323200  0.273000  1
  F  F2406  1  0.323500  0.823200  0.227000  1
  F  F2407  1  0.323500  0.676800  0.727000  1
  F  F2408  1  0.676500  0.176800  0.773000  1
  F  F2409  1  0.710300  0.326900  0.292500  1
  F  F2410  1  0.289700  0.826900  0.207500  1
  F  F2411  1  0.289700  0.673100  0.707500  1
  F  F2412  1  0.710300  0.173100  0.792500  1
  F  F2413  1  0.774100  0.339600  0.248700  1
  F  F2414  1  0.225900  0.839600  0.251300  1
  F  F2415  1  0.225900  0.660400  0.751300  1
  F  F2416  1  0.774100  0.160400  0.748700  1
  F  F2417  1  0.766500  0.268900  0.269800  1
  F  F2418  1  0.233500  0.768900  0.230200  1
  F  F2419  1  0.233500  0.731100  0.730200  1
  F  F2420  1  0.766500  0.231100  0.769800  1
  F  F2421  1  0.834900  0.322700  0.298800  1
  F  F2422  1  0.165100  0.822700  0.201200  1
  F  F2423  1  0.165100  0.677300  0.701200  1
  F  F2424  1  0.834900  0.177300  0.798800  1
