
#######################################################################
#
#                 Cambridge Crystallographic Data Centre
#                                CCDC 
#
#######################################################################
#
# If this CIF has been generated from an entry in the Cambridge 
# Structural Database, then it will include bibliographic, chemical, 
# crystal, experimental, refinement or atomic coordinate data resulting 
# from the CCDC's data processing and validation procedures.
#
#######################################################################

data_ZULHOF
_chemical_formula_moiety         
'C216 H170 B1 F4 N24 O14 Zn5 7+,4.5(C2 H3 N1),7(B1 F4 1-)'
_chemical_name_systematic        
"(\m~3~-Tetrafluoroborato-F,F',F'')-hexakis(\m~2~-(naphthalene-2,7-diyldipyridine-5,2-diyl)bis(N-(4-methoxyphenyl)methanimine))-dihydroxy-penta-zinc heptakis(tetrafluoroborate) acetonitrile solvate"
_symmetry_cell_setting           monoclinic
_symmetry_space_group_name_H-M   'P 21/c'
_symmetry_Int_Tables_number      14
_space_group_name_Hall           '-P 2ybc'
loop_
_symmetry_equiv_pos_site_id
_symmetry_equiv_pos_as_xyz
1 x,y,z
2 -x,1/2+y,1/2-z
3 -x,-y,-z
4 x,1/2-y,1/2+z
_cell_length_a                   18.9379(8)
_cell_length_b                   30.7687(13)
_cell_length_c                   39.7457(14)
_cell_angle_alpha                90
_cell_angle_beta                 96.534(2)
_cell_angle_gamma                90
_cell_volume                     23009.2
_exptl_crystal_colour            'pale yellow'
_exptl_crystal_description       block
_cell_formula_units_Z            4
loop_
_atom_site_label
_atom_site_type_symbol
_atom_site_fract_x
_atom_site_fract_y
_atom_site_fract_z
Zn1 Zn 0.50234(5) 0.32742(4) 0.05730(3)
Zn2 Zn 0.77642(5) 0.21519(3) 0.30711(3)
Zn3 Zn 0.90596(6) 0.35961(4) 0.28654(3)
Zn4 Zn 0.67180(7) 0.36157(4) 0.33712(3)
Zn5 Zn 1.07547(5) 0.29618(3) 0.56819(2)
N1 N 0.5503(4) 0.2988(2) 0.01436(15)
N2 N 0.6109(3) 0.3484(2) 0.06557(16)
N3 N 0.6931(4) 0.4213(2) 0.31291(17)
N4 N 0.6699(3) 0.4074(2) 0.37772(17)
N5 N 0.4028(3) 0.2921(2) 0.04682(16)
N6 N 0.5276(3) 0.2645(2) 0.08277(15)
N7 N 0.9438(3) 0.3057(2) 0.25999(17)
N8 N 1.0160(4) 0.3564(2) 0.30638(17)
N9 N 0.4829(4) 0.3941(3) 0.03640(19)
N10 N 0.4661(3) 0.3624(2) 0.09839(17)
N11 N 0.6643(3) 0.2087(2) 0.30948(16)
N12 N 0.7701(4) 0.1665(2) 0.34693(16)
N13 N 0.9086(3) 0.4088(2) 0.24864(17)
N14 N 0.8903(3) 0.4177(2) 0.31438(18)
N15 N 0.9700(3) 0.3239(2) 0.55997(14)
N16 N 1.0255(4) 0.2729(2) 0.61184(15)
N17 N 0.7739(3) 0.1645(2) 0.26892(16)
N18 N 0.8869(3) 0.2002(2) 0.30618(15)
N19 N 1.1162(3) 0.3280(2) 0.52709(14)
N20 N 1.1172(3) 0.3581(2) 0.59096(16)
N21 N 0.5597(4) 0.3639(3) 0.31774(19)
N22 N 0.6285(4) 0.3090(2) 0.36283(18)
N23 N 1.0403(3) 0.2358(2) 0.54068(16)
N24 N 1.1681(3) 0.2534(2) 0.57744(17)
C1 C 0.5200(4) 0.2664(3) -0.0093(2)
C2 C 0.4557(4) 0.2751(3) -0.0279(2)
H1 H 0.4328 0.3021 -0.0252
C3 C 0.4245(5) 0.2449(3) -0.0502(2)
H2 H 0.3815 0.2519 -0.0638
C4 C 0.4549(5) 0.2043(3) -0.0532(2)
C5 C 0.5194(5) 0.1954(3) -0.0342(2)
H3 H 0.5414 0.1679 -0.0360
C6 C 0.5522(5) 0.2270(3) -0.0122(2)
H4 H 0.5967 0.2210 0.0005
C7 C 0.4500(6) 0.1342(3) -0.0794(3)
H5 H 0.4937 0.1372 -0.0903
H6 H 0.4159 0.1161 -0.0936
H7 H 0.4611 0.1205 -0.0572
C8 C 0.6168(5) 0.3071(3) 0.0159(2)
H8 H 0.6441 0.2941 0.0000
C9 C 0.6504(5) 0.3355(3) 0.0411(2)
C10 C 0.7211(6) 0.3487(4) 0.0424(3)
H9 H 0.7505 0.3377 0.0265
C11 C 0.7477(6) 0.3776(4) 0.0665(3)
H10 H 0.7952 0.3877 0.0666
C12 C 0.7074(5) 0.3923(3) 0.0907(2)
C13 C 0.6384(4) 0.3762(3) 0.0892(2)
H11 H 0.6095 0.3854 0.1059
C14 C 0.7330(4) 0.4229(3) 0.1175(2)
C15 C 0.7799(5) 0.4571(3) 0.1110(2)
H12 H 0.7950 0.4601 0.0892
C16 C 0.8033(5) 0.4860(3) 0.1361(2)
H13 H 0.8351 0.5085 0.1313
C17 C 0.7816(5) 0.4832(3) 0.1683(2)
C18 C 0.7353(5) 0.4485(3) 0.1754(2)
C19 C 0.7125(4) 0.4194(3) 0.1495(2)
H14 H 0.6817 0.3963 0.1542
C20 C 0.8033(6) 0.5127(3) 0.1945(2)
H15 H 0.8344 0.5358 0.1904
C21 C 0.7807(6) 0.5088(3) 0.2259(2)
H16 H 0.7946 0.5299 0.2429
C22 C 0.7366(5) 0.4736(3) 0.2332(2)
C23 C 0.7161(5) 0.4446(3) 0.2079(2)
H17 H 0.6874 0.4206 0.2128
C24 C 0.7105(5) 0.4286(3) 0.2822(2)
H18 H 0.7212 0.4041 0.2691
C25 C 0.7145(5) 0.4692(3) 0.2676(2)
C26 C 0.6974(5) 0.5038(3) 0.2868(2)
H19 H 0.6985 0.5324 0.2778
C27 C 0.6789(5) 0.4976(3) 0.3186(2)
H20 H 0.6671 0.5217 0.3318
C28 C 0.6775(4) 0.4562(3) 0.3314(2)
C29 C 0.6650(4) 0.4466(3) 0.3662(2)
H21 H 0.6530 0.4695 0.3805
C30 C 0.6644(4) 0.3994(3) 0.4119(2)
C31 C 0.6191(5) 0.4229(3) 0.4309(2)
H22 H 0.5892 0.4448 0.4201
C32 C 0.6175(5) 0.4147(4) 0.4649(3)
H23 H 0.5869 0.4310 0.4775
C33 C 0.6607(6) 0.3829(4) 0.4804(2)
C34 C 0.7045(5) 0.3590(3) 0.4621(3)
H24 H 0.7334 0.3366 0.4728
C35 C 0.7063(5) 0.3675(3) 0.4285(2)
H25 H 0.7373 0.3511 0.4163
C36 C 0.6209(8) 0.3947(7) 0.5331(3)
H26 H 0.6354 0.4253 0.5333
H27 H 0.6263 0.3834 0.5563
H28 H 0.5710 0.3923 0.5235
C37 C 0.3393(4) 0.3055(3) 0.0268(2)
C38 C 0.2997(4) 0.2775(3) 0.0053(2)
H29 H 0.3129 0.2478 0.0043
C39 C 0.2401(5) 0.2929(3) -0.0150(3)
H30 H 0.2130 0.2735 -0.0300
C40 C 0.2199(5) 0.3359(4) -0.0137(3)
C41 C 0.2594(5) 0.3635(3) 0.0081(3)
H31 H 0.2460 0.3932 0.0093
C42 C 0.3180(5) 0.3487(3) 0.0282(2)
H32 H 0.3444 0.3681 0.0434
C43 C 0.1406(15) 0.3934(6) -0.0354(7)
H33 H 0.0976 0.3959 -0.0515
H34 H 0.1305 0.4032 -0.0130
H35 H 0.1783 0.4115 -0.0431
C44 C 0.4082(4) 0.2531(3) 0.0583(2)
H36 H 0.3679 0.2345 0.0548
C45 C 0.4724(4) 0.2363(3) 0.0762(2)
C46 C 0.4782(5) 0.1937(3) 0.0867(2)
H37 H 0.4390 0.1744 0.0826
C47 C 0.5412(5) 0.1797(3) 0.1032(2)
H38 H 0.5449 0.1504 0.1108
C48 C 0.5997(5) 0.2062(3) 0.10926(19)
C49 C 0.5887(4) 0.2497(3) 0.09819(18)
H39 H 0.6274 0.2694 0.1020
C50 C 0.7170(4) 0.2187(3) 0.1439(2)
H40 H 0.7074 0.2490 0.1439
C51 C 0.6688(5) 0.1911(3) 0.1261(2)
C52 C 0.6859(5) 0.1465(3) 0.1258(2)
H41 H 0.6541 0.1270 0.1133
C53 C 0.7467(5) 0.1306(3) 0.1430(2)
H42 H 0.7567 0.1004 0.1420
C54 C 0.7945(5) 0.1577(3) 0.1619(2)
C55 C 0.7803(5) 0.2031(3) 0.16221(19)
C56 C 0.8275(4) 0.2309(3) 0.18170(19)
H43 H 0.8176 0.2611 0.1822
C57 C 0.8882(5) 0.2151(3) 0.20016(19)
C58 C 0.9025(5) 0.1703(3) 0.1987(2)
H44 H 0.9448 0.1593 0.2109
C59 C 0.8583(5) 0.1422(3) 0.1806(2)
H45 H 0.8697 0.1122 0.1803
C60 C 0.9068(4) 0.2791(3) 0.2383(2)
H46 H 0.8573 0.2842 0.2331
C61 C 0.9365(4) 0.2439(3) 0.22254(19)
C62 C 1.0082(5) 0.2379(4) 0.2306(2)
H47 H 1.0310 0.2149 0.2201
C63 C 1.0476(5) 0.2640(4) 0.2533(2)
H48 H 1.0969 0.2588 0.2590
C64 C 1.0142(5) 0.2980(3) 0.2677(2)
C65 C 1.0505(5) 0.3269(3) 0.2937(2)
H49 H 1.0997 0.3232 0.3008
C66 C 1.0473(5) 0.3843(3) 0.3326(2)
C67 C 1.0680(6) 0.4244(4) 0.3247(3)
H50 H 1.0703 0.4323 0.3017
C68 C 1.0865(7) 0.4548(4) 0.3512(4)
H51 H 1.1008 0.4836 0.3464
C69 C 1.0828(9) 0.4411(6) 0.3841(4)
C70 C 1.0628(7) 0.4012(5) 0.3917(3)
H52 H 1.0624 0.3924 0.4146
C71 C 1.0429(6) 0.3735(4) 0.3658(2)
H53 H 1.0253 0.3456 0.3708
C72 C 1.0896(16) 0.4605(10) 0.4451(6)
H54 H 1.1032 0.4853 0.4599
H55 H 1.0396 0.4532 0.4465
H56 H 1.1195 0.4354 0.4522
C73 C 0.5091(6) 0.4124(3) 0.0066(3)
C74 C 0.4825(7) 0.3975(4) -0.0234(3)
H57 H 0.4470 0.3755 -0.0246
C75 C 0.5052(8) 0.4130(4) -0.0531(3)
H58 H 0.4851 0.4029 -0.0747
C76 C 0.5575(8) 0.4433(4) -0.0500(3)
C77 C 0.5889(7) 0.4586(4) -0.0193(3)
H59 H 0.6260 0.4795 -0.0180
C78 C 0.5635(7) 0.4418(4) 0.0100(3)
H60 H 0.5839 0.4508 0.0318
C79 C 0.601(5) 0.450(2) -0.1121(7)
H61 H 0.6265 0.4732 -0.1221
H62 H 0.6295 0.4229 -0.1117
H63 H 0.5553 0.4448 -0.1257
C80 C 0.4667(5) 0.4205(3) 0.0587(2)
H64 H 0.4653 0.4508 0.0540
C81 C 0.4502(5) 0.4048(3) 0.0916(2)
C82 C 0.4191(5) 0.4300(3) 0.1142(3)
H65 H 0.4081 0.4594 0.1086
C83 C 0.4034(6) 0.4138(3) 0.1450(3)
H66 H 0.3809 0.4314 0.1603
C84 C 0.4215(4) 0.3712(3) 0.1526(2)
C85 C 0.4524(4) 0.3469(3) 0.1281(2)
H67 H 0.4643 0.3175 0.1331
C86 C 0.4581(4) 0.3221(3) 0.2000(2)
H68 H 0.5003 0.3162 0.1900
C87 C 0.4105(4) 0.3505(3) 0.1850(2)
C88 C 0.3476(5) 0.3601(3) 0.2006(2)
H69 H 0.3145 0.3808 0.1906
C89 C 0.3351(5) 0.3395(4) 0.2297(2)
H70 H 0.2928 0.3459 0.2394
C90 C 0.3829(4) 0.3094(3) 0.2456(2)
C91 C 0.4463(4) 0.3008(3) 0.2307(2)
C92 C 0.4966(4) 0.2715(3) 0.2469(2)
H71 H 0.5395 0.2663 0.2373
C93 C 0.4851(4) 0.2507(3) 0.2761(2)
C94 C 0.4203(5) 0.2585(4) 0.2900(2)
H72 H 0.4111 0.2438 0.3101
C95 C 0.3720(5) 0.2863(4) 0.2749(2)
H73 H 0.3288 0.2904 0.2845
C96 C 0.6122(4) 0.2317(3) 0.2934(2)
H74 H 0.6241 0.2565 0.2810
C97 C 0.5402(4) 0.2212(3) 0.2937(2)
C98 C 0.5253(5) 0.1843(4) 0.3105(2)
H75 H 0.4773 0.1753 0.3107
C99 C 0.5791(5) 0.1600(3) 0.3273(2)
H76 H 0.5686 0.1344 0.3391
C100 C 0.6482(5) 0.1732(3) 0.3267(2)
C101 C 0.7071(5) 0.1508(3) 0.3457(2)
H77 H 0.6991 0.1246 0.3572
C102 C 0.8241(5) 0.1477(3) 0.3683(2)
C103 C 0.8716(6) 0.1754(3) 0.3856(3)
H78 H 0.8675 0.2058 0.3818
C104 C 0.9254(5) 0.1595(2) 0.4088(2)
H79 H 0.9579 0.1790 0.4209
C105 C 0.9316(4) 0.1151(3) 0.41417(19)
C106 C 0.8834(5) 0.0866(2) 0.3969(3)
H80 H 0.8872 0.0561 0.4007
C107 C 0.8298(5) 0.1034(3) 0.3739(3)
H81 H 0.7966 0.0842 0.3619
O1 O 0.9840(5) 0.0959(4) 0.4357(3)
C108 C 0.973(2) 0.0518(8) 0.4496(9)
H82 H 1.0159 0.0431 0.4645
H83 H 0.9323 0.0521 0.4626
H84 H 0.9648 0.0309 0.4309
C109 C 0.5332(8) 0.3948(4) 0.2900(3)
C110 C 0.4828(8) 0.4245(5) 0.2963(3)
H85 H 0.4665 0.4256 0.3180
C111 C 0.4553(7) 0.4532(4) 0.2714(3)
H86 H 0.4206 0.4740 0.2760
C112 C 0.4787(6) 0.4514(3) 0.2396(3)
C113 C 0.5303(6) 0.4214(4) 0.2328(3)
H87 H 0.5469 0.4204 0.2112
C114 C 0.5571(7) 0.3932(4) 0.2584(3)
H88 H 0.5923 0.3726 0.2541
O2 O 0.4537(9) 0.4773(5) 0.2129(4)
C115 C 0.4197(18) 0.5174(9) 0.2191(9)
H89 H 0.4050 0.5320 0.1975
H90 H 0.3778 0.5116 0.2308
H91 H 0.4529 0.5360 0.2332
C116 C 0.5226(5) 0.3390(4) 0.3339(3)
H92 H 0.4723 0.3409 0.3306
C117 C 0.5571(5) 0.3071(3) 0.3577(2)
C118 C 0.5210(5) 0.2759(4) 0.3731(2)
H93 H 0.4705 0.2751 0.3695
C119 C 0.5574(5) 0.2455(4) 0.3939(2)
H94 H 0.5320 0.2237 0.4045
C120 C 0.6302(5) 0.2468(3) 0.3993(2)
C121 C 0.6626(5) 0.2795(3) 0.3826(2)
H95 H 0.7130 0.2807 0.3856
C122 C 0.7379(4) 0.2254(3) 0.43799(19)
H96 H 0.7541 0.2546 0.4376
C123 C 0.6730(5) 0.2149(3) 0.4205(2)
C124 C 0.6492(5) 0.1710(3) 0.4223(2)
H97 H 0.6038 0.1633 0.4113
C125 C 0.6897(5) 0.1402(3) 0.4392(2)
H98 H 0.6726 0.1112 0.4394
C126 C 0.7568(5) 0.1502(3) 0.4565(2)
C127 C 0.7804(5) 0.1943(3) 0.4563(2)
C128 C 0.8475(5) 0.2044(3) 0.4746(2)
H99 H 0.8632 0.2337 0.4750
C129 C 0.8907(5) 0.1739(3) 0.4917(2)
C130 C 0.8650(5) 0.1309(3) 0.4913(2)
H100 H 0.8929 0.1089 0.5032
C131 C 0.8011(6) 0.1201(3) 0.4742(2)
H101 H 0.7861 0.0907 0.4744
C132 C 0.9775(4) 0.2256(3) 0.52343(19)
H102 H 0.9423 0.2476 0.5202
C133 C 0.9609(5) 0.1844(3) 0.5099(2)
C134 C 1.0135(5) 0.1542(3) 0.5144(3)
H103 H 1.0052 0.1259 0.5053
C135 C 1.0778(5) 0.1637(3) 0.5319(3)
H104 H 1.1135 0.1420 0.5353
C136 C 1.0906(4) 0.2047(3) 0.5444(2)
C137 C 1.1573(4) 0.2161(3) 0.5641(2)
H105 H 1.1942 0.1951 0.5670
C138 C 1.2312(4) 0.2602(3) 0.5993(2)
C139 C 1.2650(4) 0.2995(3) 0.6001(2)
H106 H 1.2486 0.3213 0.5842
C140 C 1.3229(5) 0.3084(3) 0.6240(3)
H107 H 1.3455 0.3360 0.6242
C141 C 1.3474(5) 0.2773(4) 0.6473(3)
C142 C 1.3161(5) 0.2379(4) 0.6454(3)
H108 H 1.3346 0.2159 0.6607
C143 C 1.2589(5) 0.2281(3) 0.6225(3)
H109 H 1.2381 0.2000 0.6222
C144 C 1.4270(7) 0.3262(5) 0.6786(4)
H110 H 1.4448 0.3372 0.6580
H111 H 1.4658 0.3260 0.6972
H112 H 1.3887 0.3451 0.6846
C145 C 0.9152(5) 0.4031(3) 0.2133(2)
C146 C 0.8712(5) 0.3727(3) 0.1954(2)
H113 H 0.8400 0.3555 0.2069
C147 C 0.8729(5) 0.3677(3) 0.1614(3)
H114 H 0.8431 0.3467 0.1494
C148 C 0.9179(6) 0.3931(4) 0.1445(2)
C149 C 0.9627(6) 0.4228(3) 0.1615(2)
H115 H 0.9942 0.4395 0.1498
C150 C 0.9614(5) 0.4280(3) 0.1962(2)
H116 H 0.9920 0.4485 0.2083
C151 C 0.9592(8) 0.4093(6) 0.0922(3)
H117 H 0.9470 0.4401 0.0943
H118 H 0.9517 0.4007 0.0684
H119 H 1.0092 0.4049 0.1010
C152 C 0.9121(5) 0.4468(3) 0.2607(2)
H120 H 0.9219 0.4708 0.2469
C153 C 0.9008(4) 0.4536(3) 0.2966(2)
C154 C 0.8983(5) 0.4944(3) 0.3103(2)
H121 H 0.9071 0.5193 0.2973
C155 C 0.8831(5) 0.4988(3) 0.3428(2)
H122 H 0.8809 0.5270 0.3524
C156 C 0.8708(4) 0.4625(3) 0.3619(2)
C157 C 0.8770(4) 0.4226(3) 0.3456(2)
H123 H 0.8711 0.3970 0.3583
C158 C 0.8746(4) 0.4350(2) 0.42076(19)
H124 H 0.9062 0.4128 0.4152
C159 C 0.8512(4) 0.4649(2) 0.3964(2)
C160 C 0.8039(4) 0.4977(3) 0.4054(2)
H125 H 0.7881 0.5193 0.3892
C161 C 0.7808(4) 0.4991(3) 0.4363(2)
H126 H 0.7480 0.5210 0.4412
C162 C 0.8053(4) 0.4682(3) 0.4614(2)
C163 C 0.8534(4) 0.4359(3) 0.4539(2)
C164 C 0.8779(4) 0.4049(3) 0.47859(19)
H127 H 0.9105 0.3831 0.4733
C165 C 0.8553(4) 0.4056(3) 0.5102(2)
C166 C 0.8066(4) 0.4386(3) 0.5174(2)
H128 H 0.7903 0.4396 0.5391
C167 C 0.7832(4) 0.4684(3) 0.4940(2)
H129 H 0.7508 0.4901 0.4996
C168 C 0.9456(4) 0.3533(3) 0.53724(18)
H130 H 0.9764 0.3623 0.5213
C169 C 0.8780(4) 0.3719(3) 0.53502(19)
C170 C 0.8349(5) 0.3560(3) 0.5580(2)
H131 H 0.7878 0.3668 0.5575
C171 C 0.8582(5) 0.3253(4) 0.5814(2)
H132 H 0.8271 0.3141 0.5964
C172 C 0.9270(4) 0.3106(3) 0.58299(19)
C173 C 0.9587(4) 0.2815(3) 0.60858(19)
H133 H 0.9295 0.2682 0.6235
C174 C 1.0551(3) 0.24448(17) 0.63812(13)
C175 C 1.1179(3) 0.25717(16) 0.65705(14)
H134 H 1.1396 0.2840 0.6523
C176 C 1.1491(3) 0.23059(19) 0.68287(14)
H135 H 1.1921 0.2393 0.6958
C177 C 1.1174(3) 0.19133(19) 0.68975(14)
C178 C 1.0545(3) 0.17864(16) 0.67082(16)
H136 H 1.0329 0.1518 0.6755
C179 C 1.0234(3) 0.20522(19) 0.64500(15)
H137 H 0.9804 0.1965 0.6321
C180 C 1.1277(7) 0.1253(4) 0.7206(3)
H138 H 1.0789 0.1262 0.7265
H139 H 1.1587 0.1116 0.7390
H140 H 1.1290 0.1083 0.6997
C181 C 0.7139(3) 0.14799(19) 0.24827(14)
C182 C 0.6734(3) 0.17639(16) 0.22678(15)
H141 H 0.6850 0.2064 0.2268
C183 C 0.6160(3) 0.1608(2) 0.20524(14)
H142 H 0.5883 0.1802 0.1905
C184 C 0.5991(3) 0.1169(2) 0.20519(17)
C185 C 0.6396(4) 0.08846(17) 0.2267(2)
H143 H 0.6280 0.0584 0.2266
C186 C 0.6970(3) 0.10403(18) 0.24822(17)
H144 H 0.7247 0.0846 0.2629
C187 C 0.5107(15) 0.0650(8) 0.1919(9)
H145 H 0.4712 0.0574 0.1748
H146 H 0.5459 0.0415 0.1937
H147 H 0.4928 0.0691 0.2139
C188 C 0.8330(4) 0.1447(3) 0.2705(2)
H148 H 0.8358 0.1179 0.2589
C189 C 0.8967(4) 0.1624(3) 0.28970(19)
C190 C 0.9611(5) 0.1427(3) 0.2914(2)
H149 H 0.9659 0.1157 0.2804
C191 C 1.0200(5) 0.1621(3) 0.3092(2)
H150 H 1.0652 0.1485 0.3105
C192 C 1.0118(4) 0.2018(3) 0.32534(19)
C193 C 0.9433(4) 0.2191(3) 0.32322(19)
H151 H 0.9366 0.2457 0.3345
C194 C 1.0636(4) 0.2465(3) 0.37356(19)
H152 H 1.0185 0.2466 0.3818
C195 C 1.0722(4) 0.2250(3) 0.3439(2)
C196 C 1.1404(4) 0.2253(4) 0.3320(2)
H153 H 1.1468 0.2103 0.3116
C197 C 1.1959(5) 0.2460(4) 0.3488(2)
H154 H 1.2405 0.2453 0.3400
C198 C 1.1897(4) 0.2690(3) 0.3795(2)
C199 C 1.1217(4) 0.2683(3) 0.39175(19)
C200 C 1.1139(4) 0.2894(3) 0.42300(18)
H155 H 1.0694 0.2882 0.4319
C201 C 1.1691(4) 0.3112(3) 0.44037(19)
C202 C 1.2368(5) 0.3117(3) 0.4275(2)
H156 H 1.2758 0.3265 0.4396
C203 C 1.2450(5) 0.2912(4) 0.3985(2)
H157 H 1.2904 0.2917 0.3905
C204 C 1.1233(4) 0.3122(3) 0.49662(19)
H158 H 1.1017 0.2850 0.4906
C205 C 1.1605(4) 0.3329(3) 0.47280(19)
C206 C 1.1900(5) 0.3724(3) 0.4818(2)
H159 H 1.2166 0.3874 0.4666
C207 C 1.1815(5) 0.3906(3) 0.5127(2)
H160 H 1.2002 0.4187 0.5186
C208 C 1.1453(4) 0.3673(3) 0.53511(19)
C209 C 1.1428(4) 0.3827(3) 0.56955(19)
H161 H 1.1601 0.4108 0.5760
C210 C 1.1271(4) 0.3717(2) 0.62608(19)
C211 C 1.0717(5) 0.3700(3) 0.6456(2)
H162 H 1.0258 0.3612 0.6357
C212 C 1.0823(5) 0.3809(3) 0.6795(2)
H163 H 1.0433 0.3807 0.6926
C213 C 1.1489(5) 0.3922(3) 0.6944(2)
C214 C 1.2044(5) 0.3945(3) 0.6745(2)
H164 H 1.2503 0.4028 0.6846
C215 C 1.1942(4) 0.3848(3) 0.6403(2)
H165 H 1.2323 0.3871 0.6268
C216 C 1.129(2) 0.3836(11) 0.7522(5)
H166 H 1.1492 0.3944 0.7745
H167 H 1.0791 0.3915 0.7480
H168 H 1.1342 0.3519 0.7517
O3 O 0.4196(3) 0.1766(2) -0.07524(17)
O4 O 0.6626(4) 0.3712(3) 0.51385(19)
O5 O 0.1627(4) 0.3503(3) -0.0335(2)
O6 O 1.0993(7) 0.4720(4) 0.4096(3)
O7 O 0.5894(6) 0.4612(3) -0.0780(2)
O8 O 1.4004(4) 0.2827(3) 0.6728(2)
O9 O 0.9170(4) 0.3847(3) 0.11055(18)
O10 O 1.1514(4) 0.1678(3) 0.71540(19)
O11 O 0.5441(4) 0.1054(3) 0.1820(3)
O12 O 1.1663(4) 0.4020(2) 0.72718(14)
B1 B 0.8278(11) 0.3121(7) 0.3400(5)
F1 F 0.8199(9) 0.3270(6) 0.3066(3)
F2 F 0.7855(6) 0.3390(4) 0.3585(3)
F3 F 0.8064(16) 0.2683(6) 0.3406(8)
F4 F 0.9000(7) 0.3160(6) 0.3535(4)
O13 O 0.7548(16) 0.2643(8) 0.2632(7)
O14 O 0.6896(7) 0.3262(6) 0.2942(4)
N25 N 0.9838(12) 0.5529(7) 0.4273(7)
C217 C 1.0228(14) 0.5561(8) 0.4088(6)
C218 C 1.077(2) 0.5600(13) 0.3842(9)
H169 H 1.0782 0.5888 0.3750
H170 H 1.0688 0.5394 0.3661
H171 H 1.1224 0.5538 0.3970
B2 B 0.6580(14) 0.3154(8) 0.1925(7)
F5 F 0.6197(8) 0.3257(6) 0.1627(4)
F6 F 0.6303(9) 0.2756(5) 0.1977(5)
F7 F 0.7295(8) 0.3188(6) 0.1940(4)
F8 F 0.6416(9) 0.3435(5) 0.2182(4)
B3 B 0.9161(12) 0.3032(8) 0.4387(6)
F9 F 0.8461(6) 0.3128(4) 0.4236(3)
F10 F 0.9430(7) 0.2643(4) 0.4289(4)
F11 F 0.9054(13) 0.3022(7) 0.4722(5)
F12 F 0.9582(6) 0.3362(4) 0.4303(4)
B4 B 0.3674(6) 0.0772(4) 0.1027(3)
F13 F 0.3535(3) 0.0802(2) 0.13607(15)
F14 F 0.3791(3) 0.03480(18) 0.09498(19)
F15 F 0.3100(3) 0.09321(18) 0.08202(13)
F16 F 0.4276(3) 0.10114(17) 0.09897(15)
B5 B 0.3947(16) 0.1721(10) 0.3751(8)
F17 F 0.3648(11) 0.1564(9) 0.3443(6)
F18 F 0.3482(15) 0.1559(8) 0.3962(7)
F19 F 0.4638(10) 0.1629(7) 0.3869(5)
F20 F 0.3857(11) 0.2156(7) 0.3732(5)
B6 B 0.2511(9) 0.4992(6) 0.1703(4)
F21 F 0.3022(10) 0.5085(7) 0.1504(5)
F22 F 0.1871(10) 0.4925(7) 0.1515(5)
F23 F 0.2667(11) 0.4634(6) 0.1897(5)
F24 F 0.2455(10) 0.5333(6) 0.1913(4)
B7 B 0.2982(10) 0.4827(6) 0.4308(5)
F25 F 0.270(2) 0.5122(11) 0.4074(8)
F26 F 0.3337(17) 0.5031(11) 0.4578(7)
F27 F 0.3455(18) 0.4570(13) 0.4166(10)
F28 F 0.247(2) 0.4566(13) 0.4410(10)
B8 B 0.1890(11) 0.5070(7) 0.9822(5)
F29 F 0.1502(14) 0.4917(9) 0.9538(6)
F30 F 0.2226(15) 0.5438(8) 0.9740(7)
F31 F 0.2379(12) 0.4773(8) 0.9952(6)
F32 F 0.1456(13) 0.5176(9) 1.0058(6)
N26 N 0.3486(8) 0.1646(5) 0.0158(3)
C219 C 0.3754(11) 0.1325(8) 0.0122(5)
C220 C 0.3892(14) 0.0863(9) 0.0110(6)
H172 H 0.4363 0.0815 0.0037
H173 H 0.3876 0.0738 0.0335
H174 H 0.3530 0.0725 -0.0051
N27 N 0.4770(12) 0.4590(7) 0.3743(6)
C221 C 0.460(4) 0.483(2) 0.3937(16)
C222 C 0.474(3) 0.5069(18) 0.4278(12)
H175 H 0.4522 0.5351 0.4245
H176 H 0.5243 0.5097 0.4298
H177 H 0.4597 0.4943 0.4482
N28 N 0.1990(9) 0.2913(5) 0.7535(4)
C223 C 0.2488(11) 0.3073(7) 0.7532(5)
C224 C 0.3059(15) 0.3419(9) 0.7645(7)
H178 H 0.2934 0.3693 0.7529
H179 H 0.3522 0.3319 0.7589
H180 H 0.3081 0.3462 0.7891
N29 N 0.2325(11) 0.3544(7) 0.3057(5)
C225 C 0.2532(15) 0.3733(9) 0.3279(6)
C226 C 0.2617(15) 0.3983(9) 0.3603(6)
H181 H 0.2292 0.3877 0.3752
H182 H 0.2509 0.4281 0.3546
H183 H 0.3094 0.3962 0.3712
C227? C 0.1325(14) 0.3298(8) -0.0632(5)
H184? H 0.0912 0.3464 -0.0731
H185? H 0.1677 0.3282 -0.0794
H186? H 0.1175 0.3003 -0.0578
C228? C 1.100(2) 0.5170(8) 0.3978(9)
H187? H 1.1122 0.5364 0.4171
H188? H 1.1360 0.5201 0.3819
H189? H 1.0534 0.5247 0.3863
C229? C 0.9905(16) 0.5203(10) 0.4760(8)
N30? N 0.9605(15) 0.5500(10) 0.4670(8)
C230? C 1.0315(16) 0.4851(9) 0.4885(8)
C231? C 1.050(3) 0.4780(14) 0.4680(15)
H190? H 1.0225 0.4593 0.4808
H191? H 1.0924 0.4869 0.4820
H192? H 1.0633 0.4626 0.4486
C232? C 1.008(3) 0.5174(14) 0.4533(15)
N31? N 0.972(2) 0.5454(13) 0.4468(16)
C233? C 0.5574(15) 0.4448(7) -0.1101(4)
H193? H 0.5808 0.4579 -0.1284
H194? H 0.5627 0.4131 -0.1107
H195? H 0.5067 0.4523 -0.1131
C234? C 0.8327(9) 0.1413(6) 0.3643(5)
C235? C 0.8441(10) 0.0990(6) 0.3558(5)
H196? H 0.8107 0.0845 0.3399
C236? C 0.9038(10) 0.0770(5) 0.3700(5)
H197? H 0.9116 0.0477 0.3639
C237? C 0.9521(8) 0.0980(5) 0.3934(4)
C238? C 0.9416(9) 0.1411(5) 0.4021(4)
H198? H 0.9749 0.1557 0.4178
C239? C 0.8813(10) 0.1624(5) 0.3873(5)
H199? H 0.8734 0.1918 0.3930
O15? O 1.0119(10) 0.0790(7) 0.4097(6)
C240? C 1.019(3) 0.0551(11) 0.4307(14)
H200? H 1.0700 0.0487 0.4360
H201? H 1.0007 0.0672 0.4507
H202? H 0.9936 0.0283 0.4239
C241? C 0.5136(11) 0.3914(5) 0.2979(4)
C242? C 0.4565(12) 0.4133(7) 0.3078(4)
H203? H 0.4403 0.4067 0.3290
C243? C 0.4223(11) 0.4448(7) 0.2873(5)
H204? H 0.3830 0.4601 0.2944
C244? C 0.4455(9) 0.4541(5) 0.2563(4)
C245? C 0.5038(9) 0.4323(6) 0.2459(4)
H205? H 0.5202 0.4389 0.2248
C246? C 0.5373(9) 0.4009(6) 0.2671(5)
H206? H 0.5771 0.3858 0.2604
O16? O 0.4144(13) 0.4838(7) 0.2335(6)
C247? C 0.460(3) 0.500(2) 0.2087(11)
H207? H 0.4333 0.5206 0.1936
H208? H 0.5018 0.5138 0.2206
H209? H 0.4746 0.4752 0.1954
C248? C 0.533(2) 0.0617(7) 0.1725(11)
H210? H 0.4907 0.0597 0.1557
H211? H 0.5743 0.0505 0.1628
H212? H 0.5247 0.0445 0.1925
C249? C 1.1044(15) 0.3971(11) 0.7475(6)
H213? H 1.1194 0.4046 0.7712
H214? H 1.0658 0.4165 0.7384
H215? H 1.0876 0.3669 0.7461
B9? B 0.6576(13) 0.3110(7) 0.1899(6)
F33? F 0.6068(7) 0.2960(5) 0.1648(3)
F34? F 0.6624(7) 0.2759(4) 0.2131(3)
F35? F 0.7202(7) 0.3161(5) 0.1767(4)
F36? F 0.6319(8) 0.3491(4) 0.2008(4)
B10? B 0.9179(13) 0.3026(8) 0.4307(6)
F37? F 0.8531(7) 0.3066(4) 0.4436(3)
F38? F 0.9173(7) 0.2648(4) 0.4122(3)
F39? F 0.9488(14) 0.3012(9) 0.4642(6)
F40? F 0.9358(7) 0.3328(4) 0.4082(3)
F41? F 0.9723(13) 0.3228(9) 0.4582(7)
F42? F 0.9681(13) 0.2768(9) 0.4569(7)
B11? B 0.4026(16) 0.1590(10) 0.3774(8)
F43? F 0.3903(10) 0.1991(7) 0.3657(5)
F44? F 0.3635(11) 0.1270(8) 0.3612(6)
F45? F 0.3839(12) 0.1570(6) 0.4102(5)
F46? F 0.4685(9) 0.1445(7) 0.3750(5)
F47? F 0.280(3) 0.5223(10) 0.4174(13)
F48? F 0.358(2) 0.486(2) 0.4532(12)
F49? F 0.308(3) 0.4545(16) 0.4055(11)
F50? F 0.245(3) 0.4664(19) 0.4477(13)
B12? B 0.188(2) 0.5034(12) 0.9787(10)
F51? F 0.1388(16) 0.5329(10) 0.9707(8)
F52? F 0.1542(17) 0.4759(10) 0.9978(7)
F53? F 0.2474(16) 0.5279(11) 0.9769(9)
F54? F 0.1761(15) 0.4809(9) 0.9488(7)
C250? C 0.4317(16) 0.5340(9) 0.3952(8)
H216? H 0.4123 0.5223 0.4146
H217? H 0.3955 0.5499 0.3815
H218? H 0.4705 0.5530 0.4026
C251? C 0.456(3) 0.4911(12) 0.3810(13)
B13? B 0.8170(11) 0.3053(7) 0.3391(5)
F55? F 0.8815(10) 0.3193(8) 0.3297(5)
F56? F 0.8235(9) 0.2713(5) 0.3635(4)
F57? F 0.7725(11) 0.3389(6) 0.3468(5)
F58? F 0.7828(8) 0.2858(5) 0.3092(4)
O17? O 0.8052(14) 0.3415(10) 0.2759(6)
B14? B 0.7500(10) 0.3127(6) 0.2837(5)
F59? F 0.7622(11) 0.2692(5) 0.2775(5)
F60? F 0.7942(9) 0.3403(7) 0.2677(4)
F61? F 0.7496(7) 0.3254(4) 0.3191(3)
F62? F 0.6765(7) 0.3232(5) 0.2730(4)
O18? O 0.7985(10) 0.2635(5) 0.3421(5)
O19? O 0.8942(12) 0.3207(10) 0.3361(6)
B15? B 0.7707(13) 0.3133(8) 0.2778(6)
F63? F 0.7103(11) 0.3269(11) 0.2925(7)
F64? F 0.7741(10) 0.3396(6) 0.2487(4)
F65? F 0.7665(19) 0.2689(7) 0.2698(8)
F66? F 0.8349(10) 0.3227(8) 0.2988(5)
O20? O 0.7985(10) 0.2635(5) 0.3421(5)
O21? O 0.7855(6) 0.3390(4) 0.3585(3)
loop_
_geom_bond_atom_site_label_1
_geom_bond_atom_site_label_2
_geom_bond_site_symmetry_1
_geom_bond_site_symmetry_2
Zn1 N1 1_555 1_555
Zn2 N11 1_555 1_555
Zn3 N7 1_555 1_555
Zn4 N3 1_555 1_555
Zn5 N15 1_555 1_555
N1 C1 1_555 1_555
N2 Zn1 1_555 1_555
N3 C24 1_555 1_555
N4 Zn4 1_555 1_555
N5 Zn1 1_555 1_555
N6 Zn1 1_555 1_555
N7 C60 1_555 1_555
N8 Zn3 1_555 1_555
N9 Zn1 1_555 1_555
N10 Zn1 1_555 1_555
N11 C96 1_555 1_555
N12 Zn2 1_555 1_555
N13 Zn3 1_555 1_555
N14 Zn3 1_555 1_555
N15 C168 1_555 1_555
N16 Zn5 1_555 1_555
N17 Zn2 1_555 1_555
N18 Zn2 1_555 1_555
N19 Zn5 1_555 1_555
N20 Zn5 1_555 1_555
N21 Zn4 1_555 1_555
N22 Zn4 1_555 1_555
N23 Zn5 1_555 1_555
N24 Zn5 1_555 1_555
C1 C2 1_555 1_555
C2 H1 1_555 1_555
C3 C2 1_555 1_555
H2 C3 1_555 1_555
C4 C3 1_555 1_555
C5 C4 1_555 1_555
H3 C5 1_555 1_555
C6 C1 1_555 1_555
H4 C6 1_555 1_555
C7 H5 1_555 1_555
H6 C7 1_555 1_555
H7 C7 1_555 1_555
C8 N1 1_555 1_555
H8 C8 1_555 1_555
C9 N2 1_555 1_555
C10 C9 1_555 1_555
H9 C10 1_555 1_555
C11 C10 1_555 1_555
H10 C11 1_555 1_555
C12 C11 1_555 1_555
C13 N2 1_555 1_555
H11 C13 1_555 1_555
C14 C12 1_555 1_555
C15 C14 1_555 1_555
H12 C15 1_555 1_555
C16 C15 1_555 1_555
H13 C16 1_555 1_555
C17 C16 1_555 1_555
C18 C17 1_555 1_555
C19 C14 1_555 1_555
H14 C19 1_555 1_555
C20 C17 1_555 1_555
H15 C20 1_555 1_555
C21 C20 1_555 1_555
H16 C21 1_555 1_555
C22 C21 1_555 1_555
C23 C18 1_555 1_555
H17 C23 1_555 1_555
C24 H18 1_555 1_555
C25 C22 1_555 1_555
C26 C25 1_555 1_555
H19 C26 1_555 1_555
C27 C26 1_555 1_555
H20 C27 1_555 1_555
C28 N3 1_555 1_555
C29 N4 1_555 1_555
H21 C29 1_555 1_555
C30 N4 1_555 1_555
C31 C30 1_555 1_555
H22 C31 1_555 1_555
C32 C31 1_555 1_555
H23 C32 1_555 1_555
C33 C32 1_555 1_555
C34 C33 1_555 1_555
H24 C34 1_555 1_555
C35 C30 1_555 1_555
H25 C35 1_555 1_555
C36 H26 1_555 1_555
H27 C36 1_555 1_555
H28 C36 1_555 1_555
C37 N5 1_555 1_555
C38 C37 1_555 1_555
H29 C38 1_555 1_555
C39 C38 1_555 1_555
H30 C39 1_555 1_555
C40 C39 1_555 1_555
C41 C40 1_555 1_555
H31 C41 1_555 1_555
C42 C37 1_555 1_555
H32 C42 1_555 1_555
C43 H33 1_555 1_555
H34 C43 1_555 1_555
H35 C43 1_555 1_555
C44 N5 1_555 1_555
H36 C44 1_555 1_555
C45 N6 1_555 1_555
C46 C45 1_555 1_555
H37 C46 1_555 1_555
C47 C46 1_555 1_555
H38 C47 1_555 1_555
C48 C47 1_555 1_555
C49 N6 1_555 1_555
H39 C49 1_555 1_555
C50 H40 1_555 1_555
C51 C48 1_555 1_555
C52 C51 1_555 1_555
H41 C52 1_555 1_555
C53 C52 1_555 1_555
H42 C53 1_555 1_555
C54 C53 1_555 1_555
C55 C50 1_555 1_555
C56 C55 1_555 1_555
H43 C56 1_555 1_555
C57 C56 1_555 1_555
C58 C57 1_555 1_555
H44 C58 1_555 1_555
C59 C54 1_555 1_555
H45 C59 1_555 1_555
C60 H46 1_555 1_555
C61 C57 1_555 1_555
C62 C61 1_555 1_555
H47 C62 1_555 1_555
C63 C62 1_555 1_555
H48 C63 1_555 1_555
C64 N7 1_555 1_555
C65 N8 1_555 1_555
H49 C65 1_555 1_555
C66 N8 1_555 1_555
C67 C66 1_555 1_555
H50 C67 1_555 1_555
C68 C67 1_555 1_555
H51 C68 1_555 1_555
C69 C68 1_555 1_555
C70 C69 1_555 1_555
H52 C70 1_555 1_555
C71 C66 1_555 1_555
H53 C71 1_555 1_555
C72 H54 1_555 1_555
H55 C72 1_555 1_555
H56 C72 1_555 1_555
C73 N9 1_555 1_555
C74 C73 1_555 1_555
H57 C74 1_555 1_555
C75 C74 1_555 1_555
H58 C75 1_555 1_555
C76 C75 1_555 1_555
C77 C76 1_555 1_555
H59 C77 1_555 1_555
C78 C73 1_555 1_555
H60 C78 1_555 1_555
C79 H61 1_555 1_555
H62 C79 1_555 1_555
H63 C79 1_555 1_555
C80 N9 1_555 1_555
H64 C80 1_555 1_555
C81 N10 1_555 1_555
C82 C81 1_555 1_555
H65 C82 1_555 1_555
C83 C82 1_555 1_555
H66 C83 1_555 1_555
C84 C83 1_555 1_555
C85 N10 1_555 1_555
H67 C85 1_555 1_555
C86 H68 1_555 1_555
C87 C84 1_555 1_555
C88 C87 1_555 1_555
H69 C88 1_555 1_555
C89 C88 1_555 1_555
H70 C89 1_555 1_555
C90 C89 1_555 1_555
C91 C86 1_555 1_555
C92 C91 1_555 1_555
H71 C92 1_555 1_555
C93 C92 1_555 1_555
C94 C93 1_555 1_555
H72 C94 1_555 1_555
C95 C90 1_555 1_555
H73 C95 1_555 1_555
C96 H74 1_555 1_555
C97 C93 1_555 1_555
C98 C97 1_555 1_555
H75 C98 1_555 1_555
C99 C98 1_555 1_555
H76 C99 1_555 1_555
C100 N11 1_555 1_555
C101 N12 1_555 1_555
H77 C101 1_555 1_555
C102 N12 1_555 1_555
C103 C102 1_555 1_555
H78 C103 1_555 1_555
C104 C103 1_555 1_555
H79 C104 1_555 1_555
C105 C104 1_555 1_555
C106 C105 1_555 1_555
H80 C106 1_555 1_555
C107 C102 1_555 1_555
H81 C107 1_555 1_555
O1 C105 1_555 1_555
C108 O1 1_555 1_555
H82 C108 1_555 1_555
H83 C108 1_555 1_555
H84 C108 1_555 1_555
C109 N21 1_555 1_555
C110 C109 1_555 1_555
H85 C110 1_555 1_555
C111 C110 1_555 1_555
H86 C111 1_555 1_555
C112 C111 1_555 1_555
C113 C112 1_555 1_555
H87 C113 1_555 1_555
C114 C109 1_555 1_555
H88 C114 1_555 1_555
O2 C112 1_555 1_555
C115 O2 1_555 1_555
H89 C115 1_555 1_555
H90 C115 1_555 1_555
H91 C115 1_555 1_555
C116 N21 1_555 1_555
H92 C116 1_555 1_555
C117 N22 1_555 1_555
C118 C117 1_555 1_555
H93 C118 1_555 1_555
C119 C118 1_555 1_555
H94 C119 1_555 1_555
C120 C119 1_555 1_555
C121 N22 1_555 1_555
H95 C121 1_555 1_555
C122 H96 1_555 1_555
C123 C120 1_555 1_555
C124 C123 1_555 1_555
H97 C124 1_555 1_555
C125 C124 1_555 1_555
H98 C125 1_555 1_555
C126 C125 1_555 1_555
C127 C122 1_555 1_555
C128 C127 1_555 1_555
H99 C128 1_555 1_555
C129 C128 1_555 1_555
C130 C129 1_555 1_555
H100 C130 1_555 1_555
C131 C126 1_555 1_555
H101 C131 1_555 1_555
C132 N23 1_555 1_555
H102 C132 1_555 1_555
C133 C129 1_555 1_555
C134 C133 1_555 1_555
H103 C134 1_555 1_555
C135 C134 1_555 1_555
H104 C135 1_555 1_555
C136 N23 1_555 1_555
C137 N24 1_555 1_555
H105 C137 1_555 1_555
C138 N24 1_555 1_555
C139 C138 1_555 1_555
H106 C139 1_555 1_555
C140 C139 1_555 1_555
H107 C140 1_555 1_555
C141 C140 1_555 1_555
C142 C141 1_555 1_555
H108 C142 1_555 1_555
C143 C138 1_555 1_555
H109 C143 1_555 1_555
C144 H110 1_555 1_555
H111 C144 1_555 1_555
H112 C144 1_555 1_555
C145 N13 1_555 1_555
C146 C145 1_555 1_555
H113 C146 1_555 1_555
C147 C146 1_555 1_555
H114 C147 1_555 1_555
C148 C147 1_555 1_555
C149 C148 1_555 1_555
H115 C149 1_555 1_555
C150 C145 1_555 1_555
H116 C150 1_555 1_555
C151 H117 1_555 1_555
H118 C151 1_555 1_555
H119 C151 1_555 1_555
C152 N13 1_555 1_555
H120 C152 1_555 1_555
C153 N14 1_555 1_555
C154 C153 1_555 1_555
H121 C154 1_555 1_555
C155 C154 1_555 1_555
H122 C155 1_555 1_555
C156 C155 1_555 1_555
C157 N14 1_555 1_555
H123 C157 1_555 1_555
C158 H124 1_555 1_555
C159 C156 1_555 1_555
C160 C159 1_555 1_555
H125 C160 1_555 1_555
C161 C160 1_555 1_555
H126 C161 1_555 1_555
C162 C161 1_555 1_555
C163 C158 1_555 1_555
C164 C163 1_555 1_555
H127 C164 1_555 1_555
C165 C164 1_555 1_555
C166 C165 1_555 1_555
H128 C166 1_555 1_555
C167 C162 1_555 1_555
H129 C167 1_555 1_555
C168 H130 1_555 1_555
C169 C165 1_555 1_555
C170 C169 1_555 1_555
H131 C170 1_555 1_555
C171 C170 1_555 1_555
H132 C171 1_555 1_555
C172 N15 1_555 1_555
C173 N16 1_555 1_555
H133 C173 1_555 1_555
C174 N16 1_555 1_555
C175 C174 1_555 1_555
H134 C175 1_555 1_555
C176 C175 1_555 1_555
H135 C176 1_555 1_555
C177 C176 1_555 1_555
C178 C177 1_555 1_555
H136 C178 1_555 1_555
C179 C174 1_555 1_555
H137 C179 1_555 1_555
C180 H138 1_555 1_555
H139 C180 1_555 1_555
H140 C180 1_555 1_555
C181 N17 1_555 1_555
C182 C181 1_555 1_555
H141 C182 1_555 1_555
C183 C182 1_555 1_555
H142 C183 1_555 1_555
C184 C183 1_555 1_555
C185 C184 1_555 1_555
H143 C185 1_555 1_555
C186 C181 1_555 1_555
H144 C186 1_555 1_555
C187 H145 1_555 1_555
H146 C187 1_555 1_555
H147 C187 1_555 1_555
C188 N17 1_555 1_555
H148 C188 1_555 1_555
C189 N18 1_555 1_555
C190 C189 1_555 1_555
H149 C190 1_555 1_555
C191 C190 1_555 1_555
H150 C191 1_555 1_555
C192 C191 1_555 1_555
C193 N18 1_555 1_555
H151 C193 1_555 1_555
C194 H152 1_555 1_555
C195 C192 1_555 1_555
C196 C195 1_555 1_555
H153 C196 1_555 1_555
C197 C196 1_555 1_555
H154 C197 1_555 1_555
C198 C197 1_555 1_555
C199 C194 1_555 1_555
C200 C199 1_555 1_555
H155 C200 1_555 1_555
C201 C200 1_555 1_555
C202 C201 1_555 1_555
H156 C202 1_555 1_555
C203 C198 1_555 1_555
H157 C203 1_555 1_555
C204 N19 1_555 1_555
H158 C204 1_555 1_555
C205 C201 1_555 1_555
C206 C205 1_555 1_555
H159 C206 1_555 1_555
C207 C206 1_555 1_555
H160 C207 1_555 1_555
C208 N19 1_555 1_555
C209 N20 1_555 1_555
H161 C209 1_555 1_555
C210 N20 1_555 1_555
C211 C210 1_555 1_555
H162 C211 1_555 1_555
C212 C211 1_555 1_555
H163 C212 1_555 1_555
C213 C212 1_555 1_555
C214 C213 1_555 1_555
H164 C214 1_555 1_555
C215 C210 1_555 1_555
H165 C215 1_555 1_555
C216 H166 1_555 1_555
H167 C216 1_555 1_555
H168 C216 1_555 1_555
O3 C4 1_555 1_555
O4 C33 1_555 1_555
O5 C40 1_555 1_555
O6 C69 1_555 1_555
O7 C76 1_555 1_555
O8 C141 1_555 1_555
O9 C148 1_555 1_555
O10 C177 1_555 1_555
O11 C184 1_555 1_555
O12 C213 1_555 1_555
B1 F1 1_555 1_555
F1 Zn3 1_555 1_555
F2 Zn4 1_555 1_555
F3 Zn2 1_555 1_555
F4 B1 1_555 1_555
O13 Zn2 1_555 1_555
O14 Zn4 1_555 1_555
N25 C217 1_555 1_555
C217 C218 1_555 1_555
C218 H169 1_555 1_555
H170 C218 1_555 1_555
H171 C218 1_555 1_555
B2 F5 1_555 1_555
F6 B2 1_555 1_555
F7 B2 1_555 1_555
F8 B2 1_555 1_555
B3 F9 1_555 1_555
F10 B3 1_555 1_555
F11 B3 1_555 1_555
F12 B3 1_555 1_555
B4 F13 1_555 1_555
F14 B4 1_555 1_555
F15 B4 1_555 1_555
F16 B4 1_555 1_555
B5 F17 1_555 1_555
F18 B5 1_555 1_555
F19 B5 1_555 1_555
F20 B5 1_555 1_555
B6 F21 1_555 1_555
F22 B6 1_555 1_555
F23 B6 1_555 1_555
F24 B6 1_555 1_555
B7 F25 1_555 1_555
F26 B7 1_555 1_555
F27 B7 1_555 1_555
F28 B7 1_555 1_555
B8 F29 1_555 1_555
F30 B8 1_555 1_555
F31 B8 1_555 1_555
F32 B8 1_555 1_555
N26 C219 1_555 1_555
C219 C220 1_555 1_555
C220 H172 1_555 1_555
H173 C220 1_555 1_555
H174 C220 1_555 1_555
N27 C221 1_555 1_555
C221 C222 1_555 1_555
C222 H175 1_555 1_555
H176 C222 1_555 1_555
H177 C222 1_555 1_555
N28 C223 1_555 1_555
C223 C224 1_555 1_555
C224 H178 1_555 1_555
H179 C224 1_555 1_555
H180 C224 1_555 1_555
N29 C225 1_555 1_555
C225 C226 1_555 1_555
C226 H181 1_555 1_555
H182 C226 1_555 1_555
H183 C226 1_555 1_555
C5 C6 1_555 1_555
C7 O3 1_555 1_555
C8 C9 1_555 1_555
C12 C13 1_555 1_555
C18 C19 1_555 1_555
C22 C23 1_555 1_555
C24 C25 1_555 1_555
C27 C28 1_555 1_555
C28 C29 1_555 1_555
C34 C35 1_555 1_555
C36 O4 1_555 1_555
C41 C42 1_555 1_555
C43 O5 1_555 1_555
C44 C45 1_555 1_555
C48 C49 1_555 1_555
C50 C51 1_555 1_555
C54 C55 1_555 1_555
C58 C59 1_555 1_555
C60 C61 1_555 1_555
C63 C64 1_555 1_555
C64 C65 1_555 1_555
C70 C71 1_555 1_555
C72 O6 1_555 1_555
C77 C78 1_555 1_555
C79 O7 1_555 1_555
C80 C81 1_555 1_555
C84 C85 1_555 1_555
C86 C87 1_555 1_555
C90 C91 1_555 1_555
C94 C95 1_555 1_555
C96 C97 1_555 1_555
C99 C100 1_555 1_555
C100 C101 1_555 1_555
C106 C107 1_555 1_555
C113 C114 1_555 1_555
C116 C117 1_555 1_555
C120 C121 1_555 1_555
C122 C123 1_555 1_555
C126 C127 1_555 1_555
C130 C131 1_555 1_555
C132 C133 1_555 1_555
C135 C136 1_555 1_555
C136 C137 1_555 1_555
C142 C143 1_555 1_555
C144 O8 1_555 1_555
C149 C150 1_555 1_555
C151 O9 1_555 1_555
C152 C153 1_555 1_555
C156 C157 1_555 1_555
C158 C159 1_555 1_555
C162 C163 1_555 1_555
C166 C167 1_555 1_555
C168 C169 1_555 1_555
C171 C172 1_555 1_555
C172 C173 1_555 1_555
C178 C179 1_555 1_555
C180 O10 1_555 1_555
C185 C186 1_555 1_555
C187 O11 1_555 1_555
C188 C189 1_555 1_555
C192 C193 1_555 1_555
C194 C195 1_555 1_555
C198 C199 1_555 1_555
C202 C203 1_555 1_555
C204 C205 1_555 1_555
C207 C208 1_555 1_555
C208 C209 1_555 1_555
C214 C215 1_555 1_555
C216 O12 1_555 1_555
B1 F2 1_555 1_555
B1 F3 1_555 1_555

#END
