# generated using pymatgen
data_Zn5B8H302C302S2N38O53F41
_symmetry_space_group_name_H-M   'P 1'
_cell_length_a   24.96700000
_cell_length_b   29.87600000
_cell_length_c   37.43210000
_cell_angle_alpha   90.00000000
_cell_angle_beta   108.14200000
_cell_angle_gamma   90.00000000
_symmetry_Int_Tables_number   1
_chemical_formula_structural   Zn5B8H302C302S2N38O53F41
_chemical_formula_sum   'Zn20 B32 H1208 C1208 S8 N152 O212 F164'
_cell_volume   26533.10832480
_cell_formula_units_Z   4
loop_
 _symmetry_equiv_pos_site_id
 _symmetry_equiv_pos_as_xyz
  1  'x, y, z'
loop_
 _atom_site_type_symbol
 _atom_site_label
 _atom_site_symmetry_multiplicity
 _atom_site_fract_x
 _atom_site_fract_y
 _atom_site_fract_z
 _atom_site_occupancy
  Zn  Zn1  1  0.475060  0.709170  0.567840  1
  Zn  Zn2  1  0.024940  0.209170  0.932160  1
  Zn  Zn3  1  0.524940  0.290830  0.432160  1
  Zn  Zn4  1  0.975060  0.790830  0.067840  1
  Zn  Zn5  1  0.622570  0.680090  0.027580  1
  Zn  Zn6  1  0.877430  0.180090  0.472420  1
  Zn  Zn7  1  0.377430  0.319910  0.972420  1
  Zn  Zn8  1  0.122570  0.819910  0.527580  1
  Zn  Zn9  1  0.547140  0.796680  0.290470  1
  Zn  Zn10  1  0.952860  0.296680  0.209530  1
  Zn  Zn11  1  0.452860  0.203320  0.709530  1
  Zn  Zn12  1  0.047140  0.703320  0.790470  1
  Zn  Zn13  1  0.428410  0.642610  0.270020  1
  Zn  Zn14  1  0.071590  0.142610  0.229980  1
  Zn  Zn15  1  0.571590  0.357390  0.729980  1
  Zn  Zn16  1  0.928410  0.857390  0.770020  1
  Zn  Zn17  1  0.647090  0.633520  0.319290  1
  Zn  Zn18  1  0.852910  0.133520  0.180710  1
  Zn  Zn19  1  0.352910  0.366480  0.680710  1
  Zn  Zn20  1  0.147090  0.866480  0.819290  1
  B  B21  1  0.575400  0.684100  0.168800  1
  B  B22  1  0.924600  0.184100  0.331200  1
  B  B23  1  0.424600  0.315900  0.831200  1
  B  B24  1  0.075400  0.815900  0.668800  1
  B  B25  1  0.290800  0.341500  0.306200  1
  B  B26  1  0.209200  0.841500  0.193800  1
  B  B27  1  0.709200  0.658500  0.693800  1
  B  B28  1  0.790800  0.158500  0.806200  1
  B  B29  1  0.512100  0.696900  0.423700  1
  B  B30  1  0.987900  0.196900  0.076300  1
  B  B31  1  0.487900  0.303100  0.576300  1
  B  B32  1  0.012100  0.803100  0.923700  1
  B  B33  1  0.111200  0.173400  0.607500  1
  B  B34  1  0.388800  0.673400  0.892500  1
  B  B35  1  0.888800  0.826600  0.392500  1
  B  B36  1  0.611200  0.326600  0.107500  1
  B  B37  1  0.078100  0.408100  0.622300  1
  B  B38  1  0.421900  0.908100  0.877700  1
  B  B39  1  0.921900  0.591900  0.377700  1
  B  B40  1  0.578100  0.091900  0.122300  1
  B  B41  1  0.116300  0.475200  0.320000  1
  B  B42  1  0.383700  0.975200  0.180000  1
  B  B43  1  0.883700  0.524800  0.680000  1
  B  B44  1  0.616300  0.024800  0.820000  1
  B  B45  1  0.741300  0.001300  0.493300  1
  B  B46  1  0.758700  0.501300  0.006700  1
  B  B47  1  0.258700  0.998700  0.506700  1
  B  B48  1  0.241300  0.498700  0.993300  1
  B  B49  1  0.722900  0.421500  0.398900  1
  B  B50  1  0.777100  0.921500  0.101100  1
  B  B51  1  0.277100  0.578500  0.601100  1
  B  B52  1  0.222900  0.078500  0.898900  1
  H  H53  1  0.371200  0.814100  0.609900  1
  H  H54  1  0.128800  0.314100  0.890100  1
  H  H55  1  0.628800  0.185900  0.390100  1
  H  H56  1  0.871200  0.685900  0.109900  1
  H  H57  1  0.310400  0.804500  0.644800  1
  H  H58  1  0.189600  0.304500  0.855200  1
  H  H59  1  0.689600  0.195500  0.355200  1
  H  H60  1  0.810400  0.695500  0.144800  1
  H  H61  1  0.289400  0.674900  0.613200  1
  H  H62  1  0.210600  0.174900  0.886800  1
  H  H63  1  0.710600  0.325100  0.386800  1
  H  H64  1  0.789400  0.825100  0.113200  1
  H  H65  1  0.351700  0.684200  0.579300  1
  H  H66  1  0.148300  0.184200  0.920700  1
  H  H67  1  0.648300  0.315800  0.420700  1
  H  H68  1  0.851700  0.815800  0.079300  1
  H  H69  1  0.214600  0.682400  0.640000  1
  H  H70  1  0.285400  0.182400  0.860000  1
  H  H71  1  0.785400  0.317600  0.360000  1
  H  H72  1  0.714600  0.817600  0.140000  1
  H  H73  1  0.224500  0.698000  0.682500  1
  H  H74  1  0.275500  0.198000  0.817500  1
  H  H75  1  0.775500  0.302000  0.317500  1
  H  H76  1  0.724500  0.802000  0.182500  1
  H  H77  1  0.274700  0.674900  0.671000  1
  H  H78  1  0.225300  0.174900  0.829000  1
  H  H79  1  0.725300  0.325100  0.329000  1
  H  H80  1  0.774700  0.825100  0.171000  1
  H  H81  1  0.385000  0.814900  0.557000  1
  H  H82  1  0.115000  0.314900  0.943000  1
  H  H83  1  0.615000  0.185100  0.443000  1
  H  H84  1  0.885000  0.685100  0.057000  1
  H  H85  1  0.432800  0.867200  0.526000  1
  H  H86  1  0.067200  0.367200  0.974000  1
  H  H87  1  0.567200  0.132800  0.474000  1
  H  H88  1  0.932800  0.632800  0.026000  1
  H  H89  1  0.504800  0.880100  0.499100  1
  H  H90  1  0.995200  0.380100  0.000900  1
  H  H91  1  0.495200  0.119900  0.500900  1
  H  H92  1  0.004800  0.619900  0.999100  1
  H  H93  1  0.549800  0.751500  0.517500  1
  H  H94  1  0.950200  0.251500  0.982500  1
  H  H95  1  0.450200  0.248500  0.482500  1
  H  H96  1  0.049800  0.748500  0.017500  1
  H  H97  1  0.583400  0.763500  0.467600  1
  H  H98  1  0.916600  0.263500  0.032400  1
  H  H99  1  0.416600  0.236500  0.532400  1
  H  H100  1  0.083400  0.736500  0.967600  1
  H  H101  1  0.597000  0.889400  0.508200  1
  H  H102  1  0.903000  0.389400  0.991800  1
  H  H103  1  0.403000  0.110600  0.491800  1
  H  H104  1  0.097000  0.610600  0.008200  1
  H  H105  1  0.666667  0.905300  0.481900  1
  H  H106  1  0.833333  0.405300  0.018100  1
  H  H107  1  0.333333  0.094700  0.518100  1
  H  H108  1  0.166667  0.594700  0.981900  1
  H  H109  1  0.646200  0.739000  0.431100  1
  H  H110  1  0.853800  0.239000  0.068900  1
  H  H111  1  0.353800  0.261000  0.568900  1
  H  H112  1  0.146200  0.761000  0.931100  1
  H  H113  1  0.763400  0.824800  0.415900  1
  H  H114  1  0.736600  0.324800  0.084100  1
  H  H115  1  0.236600  0.175200  0.584100  1
  H  H116  1  0.263400  0.675200  0.915900  1
  H  H117  1  0.733100  0.879100  0.447600  1
  H  H118  1  0.766900  0.379100  0.052400  1
  H  H119  1  0.266900  0.120900  0.552400  1
  H  H120  1  0.233100  0.620900  0.947600  1
  H  H121  1  0.647100  0.719500  0.368700  1
  H  H122  1  0.852900  0.219500  0.131300  1
  H  H123  1  0.352900  0.280500  0.631300  1
  H  H124  1  0.147100  0.780500  0.868700  1
  H  H125  1  0.810300  0.750100  0.419600  1
  H  H126  1  0.689700  0.250100  0.080400  1
  H  H127  1  0.189700  0.249900  0.580400  1
  H  H128  1  0.310300  0.749900  0.919600  1
  H  H129  1  0.836100  0.691900  0.386900  1
  H  H130  1  0.663900  0.191900  0.113100  1
  H  H131  1  0.163900  0.308100  0.613100  1
  H  H132  1  0.336100  0.808100  0.886900  1
  H  H133  1  0.805000  0.631000  0.336400  1
  H  H134  1  0.695000  0.131000  0.163600  1
  H  H135  1  0.195000  0.369000  0.663600  1
  H  H136  1  0.305000  0.869000  0.836400  1
  H  H137  1  0.811200  0.559200  0.321500  1
  H  H138  1  0.688800  0.059200  0.178500  1
  H  H139  1  0.188800  0.440800  0.678500  1
  H  H140  1  0.311200  0.940800  0.821500  1
  H  H141  1  0.827200  0.508100  0.278800  1
  H  H142  1  0.672800  0.008100  0.221200  1
  H  H143  1  0.172800  0.491900  0.721200  1
  H  H144  1  0.327200  0.991900  0.778800  1
  H  H145  1  0.685900  0.549500  0.199700  1
  H  H146  1  0.814100  0.049500  0.300300  1
  H  H147  1  0.314100  0.450500  0.800300  1
  H  H148  1  0.185900  0.950500  0.699700  1
  H  H149  1  0.669400  0.600400  0.242200  1
  H  H150  1  0.830600  0.100400  0.257800  1
  H  H151  1  0.330600  0.399600  0.757800  1
  H  H152  1  0.169400  0.899600  0.742200  1
  H  H153  1  0.848000  0.484600  0.227800  1
  H  H154  1  0.652000  0.984600  0.272200  1
  H  H155  1  0.152000  0.515400  0.772200  1
  H  H156  1  0.348000  0.015400  0.727800  1
  H  H157  1  0.814700  0.449800  0.196200  1
  H  H158  1  0.685300  0.949800  0.303800  1
  H  H159  1  0.185300  0.550200  0.803800  1
  H  H160  1  0.314700  0.050200  0.696200  1
  H  H161  1  0.810000  0.446500  0.237800  1
  H  H162  1  0.690000  0.946500  0.262200  1
  H  H163  1  0.190000  0.553500  0.762200  1
  H  H164  1  0.310000  0.053500  0.737800  1
  H  H165  1  0.473800  0.736500  0.657200  1
  H  H166  1  0.026200  0.236500  0.842800  1
  H  H167  1  0.526200  0.263500  0.342800  1
  H  H168  1  0.973800  0.763500  0.157200  1
  H  H169  1  0.456500  0.792900  0.695300  1
  H  H170  1  0.043500  0.292900  0.804700  1
  H  H171  1  0.543500  0.207100  0.304700  1
  H  H172  1  0.956500  0.707100  0.195300  1
  H  H173  1  0.557900  0.875700  0.660400  1
  H  H174  1  0.942100  0.375700  0.839600  1
  H  H175  1  0.442100  0.124300  0.339600  1
  H  H176  1  0.057900  0.624300  0.160400  1
  H  H177  1  0.575400  0.819900  0.623900  1
  H  H178  1  0.924600  0.319900  0.876100  1
  H  H179  1  0.424600  0.180100  0.376100  1
  H  H180  1  0.075400  0.680100  0.123900  1
  H  H181  1  0.450800  0.894800  0.730600  1
  H  H182  1  0.049200  0.394800  0.769400  1
  H  H183  1  0.549200  0.105200  0.269400  1
  H  H184  1  0.950800  0.605200  0.230600  1
  H  H185  1  0.419500  0.860200  0.698200  1
  H  H186  1  0.080500  0.360200  0.801800  1
  H  H187  1  0.580500  0.139800  0.301800  1
  H  H188  1  0.919500  0.639800  0.198200  1
  H  H189  1  0.467500  0.842900  0.734900  1
  H  H190  1  0.032500  0.342900  0.765100  1
  H  H191  1  0.532500  0.157100  0.265100  1
  H  H192  1  0.967500  0.657100  0.234900  1
  H  H193  1  0.619600  0.746800  0.633000  1
  H  H194  1  0.880400  0.246800  0.867000  1
  H  H195  1  0.380400  0.253200  0.367000  1
  H  H196  1  0.119600  0.753200  0.133000  1
  H  H197  1  0.684200  0.693900  0.612200  1
  H  H198  1  0.815800  0.193900  0.887800  1
  H  H199  1  0.315800  0.306100  0.387800  1
  H  H200  1  0.184200  0.806100  0.112200  1
  H  H201  1  0.696500  0.639100  0.570700  1
  H  H202  1  0.803500  0.139100  0.929300  1
  H  H203  1  0.303500  0.360900  0.429300  1
  H  H204  1  0.196500  0.860900  0.070700  1
  H  H205  1  0.527100  0.635700  0.525000  1
  H  H206  1  0.972900  0.135700  0.975000  1
  H  H207  1  0.472900  0.364300  0.475000  1
  H  H208  1  0.027100  0.864300  0.025000  1
  H  H209  1  0.549600  0.617300  0.474500  1
  H  H210  1  0.950400  0.117300  0.025500  1
  H  H211  1  0.450400  0.382700  0.525500  1
  H  H212  1  0.049600  0.882700  0.974500  1
  H  H213  1  0.684000  0.562100  0.551900  1
  H  H214  1  0.816000  0.062100  0.948100  1
  H  H215  1  0.316000  0.437900  0.448100  1
  H  H216  1  0.184000  0.937900  0.051900  1
  H  H217  1  0.691700  0.509200  0.509600  1
  H  H218  1  0.808300  0.009200  0.990400  1
  H  H219  1  0.308300  0.490800  0.490400  1
  H  H220  1  0.191700  0.990800  0.009600  1
  H  H221  1  0.517300  0.586800  0.410500  1
  H  H222  1  0.982700  0.086800  0.089500  1
  H  H223  1  0.482700  0.413200  0.589500  1
  H  H224  1  0.017300  0.913200  0.910500  1
  H  H225  1  0.595100  0.478600  0.384400  1
  H  H226  1  0.904900  0.978600  0.115600  1
  H  H227  1  0.404900  0.521400  0.615600  1
  H  H228  1  0.095100  0.021400  0.884400  1
  H  H229  1  0.658800  0.478700  0.442700  1
  H  H230  1  0.841200  0.978700  0.057300  1
  H  H231  1  0.341200  0.521300  0.557300  1
  H  H232  1  0.158800  0.021300  0.942700  1
  H  H233  1  0.505000  0.604200  0.350100  1
  H  H234  1  0.995000  0.104200  0.149900  1
  H  H235  1  0.495000  0.395800  0.649900  1
  H  H236  1  0.005000  0.895800  0.850100  1
  H  H237  1  0.505000  0.470200  0.340100  1
  H  H238  1  0.995000  0.970200  0.159900  1
  H  H239  1  0.495000  0.529800  0.659900  1
  H  H240  1  0.005000  0.029800  0.840100  1
  H  H241  1  0.447000  0.477500  0.278000  1
  H  H242  1  0.053000  0.977500  0.222000  1
  H  H243  1  0.553000  0.522500  0.722000  1
  H  H244  1  0.947000  0.022500  0.778000  1
  H  H245  1  0.401400  0.529000  0.222600  1
  H  H246  1  0.098600  0.029000  0.277400  1
  H  H247  1  0.598600  0.471000  0.777400  1
  H  H248  1  0.901400  0.971000  0.722600  1
  H  H249  1  0.323600  0.555100  0.175200  1
  H  H250  1  0.176400  0.055100  0.324800  1
  H  H251  1  0.676400  0.444900  0.824800  1
  H  H252  1  0.823600  0.944900  0.675200  1
  H  H253  1  0.288800  0.569000  0.110800  1
  H  H254  1  0.211200  0.069000  0.389200  1
  H  H255  1  0.711200  0.431000  0.889200  1
  H  H256  1  0.788800  0.931000  0.610800  1
  H  H257  1  0.412800  0.659500  0.120900  1
  H  H258  1  0.087200  0.159500  0.379100  1
  H  H259  1  0.587200  0.340500  0.879100  1
  H  H260  1  0.912800  0.840500  0.620900  1
  H  H261  1  0.445800  0.647300  0.184900  1
  H  H262  1  0.054200  0.147300  0.315100  1
  H  H263  1  0.554200  0.352700  0.815100  1
  H  H264  1  0.945800  0.852700  0.684900  1
  H  H265  1  0.299000  0.566600  0.051300  1
  H  H266  1  0.201000  0.066600  0.448700  1
  H  H267  1  0.701000  0.433400  0.948700  1
  H  H268  1  0.799000  0.933400  0.551300  1
  H  H269  1  0.281100  0.606800  0.021700  1
  H  H270  1  0.218900  0.106800  0.478300  1
  H  H271  1  0.718900  0.393200  0.978300  1
  H  H272  1  0.781100  0.893200  0.521700  1
  H  H273  1  0.253200  0.602400  0.054700  1
  H  H274  1  0.246800  0.102400  0.445300  1
  H  H275  1  0.746800  0.397600  0.945300  1
  H  H276  1  0.753200  0.897600  0.554700  1
  H  H277  1  0.403200  0.624800  0.641700  1
  H  H278  1  0.096800  0.124800  0.858300  1
  H  H279  1  0.596800  0.375200  0.358300  1
  H  H280  1  0.903200  0.875200  0.141700  1
  H  H281  1  0.439800  0.606400  0.705200  1
  H  H282  1  0.060200  0.106400  0.794800  1
  H  H283  1  0.560200  0.393600  0.294800  1
  H  H284  1  0.939800  0.893600  0.205200  1
  H  H285  1  0.597700  0.623900  0.701000  1
  H  H286  1  0.902300  0.123900  0.799000  1
  H  H287  1  0.402300  0.376100  0.299000  1
  H  H288  1  0.097700  0.876100  0.201000  1
  H  H289  1  0.561500  0.643800  0.638000  1
  H  H290  1  0.938500  0.143800  0.862000  1
  H  H291  1  0.438500  0.356200  0.362000  1
  H  H292  1  0.061500  0.856200  0.138000  1
  H  H293  1  0.618600  0.580600  0.754200  1
  H  H294  1  0.881400  0.080600  0.745800  1
  H  H295  1  0.381400  0.419400  0.245800  1
  H  H296  1  0.118600  0.919400  0.254200  1
  H  H297  1  0.605300  0.594100  0.792000  1
  H  H298  1  0.894700  0.094100  0.708000  1
  H  H299  1  0.394700  0.405900  0.208000  1
  H  H300  1  0.105300  0.905900  0.292000  1
  H  H301  1  0.612700  0.632200  0.763800  1
  H  H302  1  0.887300  0.132200  0.736200  1
  H  H303  1  0.387300  0.367800  0.236200  1
  H  H304  1  0.112700  0.867800  0.263800  1
  H  H305  1  0.418800  0.592400  0.579700  1
  H  H306  1  0.081200  0.092400  0.920300  1
  H  H307  1  0.581200  0.407600  0.420300  1
  H  H308  1  0.918800  0.907600  0.079700  1
  H  H309  1  0.353400  0.578900  0.514300  1
  H  H310  1  0.146600  0.078900  0.985700  1
  H  H311  1  0.646600  0.421100  0.485700  1
  H  H312  1  0.853400  0.921100  0.014300  1
  H  H313  1  0.311600  0.605100  0.452700  1
  H  H314  1  0.188400  0.105100  0.047300  1
  H  H315  1  0.688400  0.394900  0.547300  1
  H  H316  1  0.811600  0.894900  0.952700  1
  H  H317  1  0.407300  0.715200  0.480400  1
  H  H318  1  0.092700  0.215200  0.019600  1
  H  H319  1  0.592700  0.284800  0.519600  1
  H  H320  1  0.907300  0.784800  0.980400  1
  H  H321  1  0.395400  0.713900  0.417500  1
  H  H322  1  0.104600  0.213900  0.082500  1
  H  H323  1  0.604600  0.286100  0.582500  1
  H  H324  1  0.895400  0.786100  0.917500  1
  H  H325  1  0.247100  0.659000  0.415700  1
  H  H326  1  0.252900  0.159000  0.084300  1
  H  H327  1  0.752900  0.341000  0.584300  1
  H  H328  1  0.747100  0.841000  0.915700  1
  H  H329  1  0.204500  0.686600  0.356800  1
  H  H330  1  0.295500  0.186600  0.143200  1
  H  H331  1  0.795500  0.313400  0.643200  1
  H  H332  1  0.704500  0.813400  0.856800  1
  H  H333  1  0.402100  0.755700  0.361500  1
  H  H334  1  0.097900  0.255700  0.138500  1
  H  H335  1  0.597900  0.244300  0.638500  1
  H  H336  1  0.902100  0.744300  0.861500  1
  H  H337  1  0.263100  0.772100  0.272300  1
  H  H338  1  0.236900  0.272100  0.227700  1
  H  H339  1  0.736900  0.227900  0.727700  1
  H  H340  1  0.763100  0.727900  0.772300  1
  H  H341  1  0.211900  0.728700  0.300100  1
  H  H342  1  0.288100  0.228700  0.199900  1
  H  H343  1  0.788100  0.271300  0.699900  1
  H  H344  1  0.711900  0.771300  0.800100  1
  H  H345  1  0.445800  0.760700  0.317400  1
  H  H346  1  0.054200  0.260700  0.182600  1
  H  H347  1  0.554200  0.239300  0.682600  1
  H  H348  1  0.945800  0.739300  0.817400  1
  H  H349  1  0.309600  0.835500  0.264800  1
  H  H350  1  0.190400  0.335500  0.235200  1
  H  H351  1  0.690400  0.164500  0.735200  1
  H  H352  1  0.809600  0.664500  0.764800  1
  H  H353  1  0.364500  0.873700  0.234800  1
  H  H354  1  0.135500  0.373700  0.265200  1
  H  H355  1  0.635500  0.126300  0.765200  1
  H  H356  1  0.864500  0.626300  0.734800  1
  H  H357  1  0.458700  0.882200  0.221400  1
  H  H358  1  0.041300  0.382200  0.278600  1
  H  H359  1  0.541300  0.117800  0.778600  1
  H  H360  1  0.958700  0.617800  0.721400  1
  H  H361  1  0.582300  0.797600  0.212500  1
  H  H362  1  0.917700  0.297600  0.287500  1
  H  H363  1  0.417700  0.202400  0.787500  1
  H  H364  1  0.082300  0.702400  0.712500  1
  H  H365  1  0.632700  0.821400  0.173700  1
  H  H366  1  0.867300  0.321400  0.326300  1
  H  H367  1  0.367300  0.178600  0.826300  1
  H  H368  1  0.132700  0.678600  0.673700  1
  H  H369  1  0.587300  0.949600  0.184400  1
  H  H370  1  0.912700  0.449600  0.315600  1
  H  H371  1  0.412700  0.050400  0.815600  1
  H  H372  1  0.087300  0.550400  0.684400  1
  H  H373  1  0.533300  0.924700  0.222500  1
  H  H374  1  0.966700  0.424700  0.277500  1
  H  H375  1  0.466700  0.075300  0.777500  1
  H  H376  1  0.033300  0.575300  0.722500  1
  H  H377  1  0.610900  0.950800  0.123000  1
  H  H378  1  0.889100  0.450800  0.377000  1
  H  H379  1  0.389100  0.049200  0.877000  1
  H  H380  1  0.110900  0.549200  0.623000  1
  H  H381  1  0.677800  0.947900  0.131600  1
  H  H382  1  0.822200  0.447900  0.368400  1
  H  H383  1  0.322200  0.052100  0.868400  1
  H  H384  1  0.177800  0.552100  0.631600  1
  H  H385  1  0.652100  0.962600  0.164100  1
  H  H386  1  0.847900  0.462600  0.335900  1
  H  H387  1  0.347900  0.037400  0.835900  1
  H  H388  1  0.152100  0.537400  0.664100  1
  H  H389  1  0.528000  0.801400  0.371800  1
  H  H390  1  0.972000  0.301400  0.128200  1
  H  H391  1  0.472000  0.198600  0.628200  1
  H  H392  1  0.028000  0.698600  0.871800  1
  H  H393  1  0.477400  0.832700  0.409200  1
  H  H394  1  0.022600  0.332700  0.090800  1
  H  H395  1  0.522600  0.167300  0.590800  1
  H  H396  1  0.977400  0.667300  0.909200  1
  H  H397  1  0.502800  0.957100  0.375700  1
  H  H398  1  0.997200  0.457100  0.124300  1
  H  H399  1  0.497200  0.042900  0.624300  1
  H  H400  1  0.002800  0.542900  0.875700  1
  H  H401  1  0.566400  0.923900  0.342900  1
  H  H402  1  0.933600  0.423900  0.157100  1
  H  H403  1  0.433600  0.076100  0.657100  1
  H  H404  1  0.066400  0.576100  0.842900  1
  H  H405  1  0.413200  0.963400  0.428600  1
  H  H406  1  0.086800  0.463400  0.071400  1
  H  H407  1  0.586800  0.036600  0.571400  1
  H  H408  1  0.913200  0.536600  0.928600  1
  H  H409  1  0.471900  0.974800  0.421700  1
  H  H410  1  0.028100  0.474800  0.078300  1
  H  H411  1  0.528100  0.025200  0.578300  1
  H  H412  1  0.971900  0.525200  0.921700  1
  H  H413  1  0.416900  0.965300  0.386700  1
  H  H414  1  0.083100  0.465300  0.113300  1
  H  H415  1  0.583100  0.034700  0.613300  1
  H  H416  1  0.916900  0.534700  0.886700  1
  H  H417  1  0.654500  0.875500  0.357600  1
  H  H418  1  0.845500  0.375500  0.142400  1
  H  H419  1  0.345500  0.124500  0.642400  1
  H  H420  1  0.154500  0.624500  0.857600  1
  H  H421  1  0.737000  0.863400  0.342100  1
  H  H422  1  0.763000  0.363400  0.157900  1
  H  H423  1  0.263000  0.136600  0.657900  1
  H  H424  1  0.237000  0.636600  0.842100  1
  H  H425  1  0.789500  0.813700  0.318300  1
  H  H426  1  0.710500  0.313700  0.181700  1
  H  H427  1  0.210500  0.186300  0.681700  1
  H  H428  1  0.289500  0.686300  0.818300  1
  H  H429  1  0.645700  0.747400  0.268200  1
  H  H430  1  0.854300  0.247400  0.231800  1
  H  H431  1  0.354300  0.252600  0.731800  1
  H  H432  1  0.145700  0.752600  0.768200  1
  H  H433  1  0.691500  0.733700  0.224500  1
  H  H434  1  0.808500  0.233700  0.275500  1
  H  H435  1  0.308500  0.266300  0.775500  1
  H  H436  1  0.191500  0.766300  0.724500  1
  H  H437  1  0.826600  0.740400  0.318300  1
  H  H438  1  0.673400  0.240400  0.181700  1
  H  H439  1  0.173400  0.259600  0.681700  1
  H  H440  1  0.326600  0.759600  0.818300  1
  H  H441  1  0.867000  0.681600  0.298200  1
  H  H442  1  0.633000  0.181600  0.201800  1
  H  H443  1  0.133000  0.318400  0.701800  1
  H  H444  1  0.367000  0.818400  0.798200  1
  H  H445  1  0.692600  0.681300  0.174100  1
  H  H446  1  0.807400  0.181300  0.325900  1
  H  H447  1  0.307400  0.318700  0.825900  1
  H  H448  1  0.192600  0.818700  0.674100  1
  H  H449  1  0.821200  0.594300  0.189400  1
  H  H450  1  0.678800  0.094300  0.310600  1
  H  H451  1  0.178800  0.405700  0.810600  1
  H  H452  1  0.321200  0.905700  0.689400  1
  H  H453  1  0.865100  0.624700  0.247000  1
  H  H454  1  0.634900  0.124700  0.253000  1
  H  H455  1  0.134900  0.375300  0.753000  1
  H  H456  1  0.365100  0.875300  0.747000  1
  H  H457  1  0.684800  0.677800  0.116000  1
  H  H458  1  0.815200  0.177800  0.384000  1
  H  H459  1  0.315200  0.322200  0.884000  1
  H  H460  1  0.184800  0.822200  0.616000  1
  H  H461  1  0.754300  0.555700  0.141000  1
  H  H462  1  0.745700  0.055700  0.359000  1
  H  H463  1  0.245700  0.444300  0.859000  1
  H  H464  1  0.254300  0.944300  0.641000  1
  H  H465  1  0.714700  0.536100  0.078200  1
  H  H466  1  0.785300  0.036100  0.421800  1
  H  H467  1  0.285300  0.463900  0.921800  1
  H  H468  1  0.214700  0.963900  0.578200  1
  H  H469  1  0.662100  0.561300  0.009500  1
  H  H470  1  0.837900  0.061300  0.490500  1
  H  H471  1  0.337900  0.438700  0.990500  1
  H  H472  1  0.162100  0.938700  0.509500  1
  H  H473  1  0.533400  0.632000  0.951100  1
  H  H474  1  0.966600  0.132000  0.548900  1
  H  H475  1  0.466600  0.368000  0.048900  1
  H  H476  1  0.033400  0.868000  0.451100  1
  H  H477  1  0.504300  0.634600  0.885600  1
  H  H478  1  0.995700  0.134600  0.614400  1
  H  H479  1  0.495700  0.365400  0.114400  1
  H  H480  1  0.004300  0.865400  0.385600  1
  H  H481  1  0.661800  0.600200  0.887900  1
  H  H482  1  0.838200  0.100200  0.612100  1
  H  H483  1  0.338200  0.399800  0.112100  1
  H  H484  1  0.161800  0.899800  0.387900  1
  H  H485  1  0.690700  0.599500  0.953600  1
  H  H486  1  0.809300  0.099500  0.546400  1
  H  H487  1  0.309300  0.400500  0.046400  1
  H  H488  1  0.190700  0.900500  0.453600  1
  H  H489  1  0.523600  0.651100  0.794200  1
  H  H490  1  0.976400  0.151100  0.705800  1
  H  H491  1  0.476400  0.348900  0.205800  1
  H  H492  1  0.023600  0.848900  0.294200  1
  H  H493  1  0.490500  0.647300  0.824400  1
  H  H494  1  0.009500  0.147300  0.675600  1
  H  H495  1  0.509500  0.352700  0.175600  1
  H  H496  1  0.990500  0.852700  0.324400  1
  H  H497  1  0.538100  0.684700  0.829200  1
  H  H498  1  0.961900  0.184700  0.670800  1
  H  H499  1  0.461900  0.315300  0.170800  1
  H  H500  1  0.038100  0.815300  0.329200  1
  H  H501  1  0.636600  0.645000  0.405200  1
  H  H502  1  0.863400  0.145000  0.094800  1
  H  H503  1  0.363400  0.355000  0.594800  1
  H  H504  1  0.136600  0.855000  0.905200  1
  H  H505  1  0.672800  0.662600  0.468500  1
  H  H506  1  0.827200  0.162600  0.031500  1
  H  H507  1  0.327200  0.337400  0.531500  1
  H  H508  1  0.172800  0.837400  0.968500  1
  H  H509  1  0.796700  0.571900  0.479800  1
  H  H510  1  0.703300  0.071900  0.020200  1
  H  H511  1  0.203300  0.428100  0.520200  1
  H  H512  1  0.296700  0.928100  0.979800  1
  H  H513  1  0.759200  0.552900  0.416800  1
  H  H514  1  0.740800  0.052900  0.083200  1
  H  H515  1  0.240800  0.447100  0.583200  1
  H  H516  1  0.259200  0.947100  0.916800  1
  H  H517  1  0.792000  0.575100  0.541500  1
  H  H518  1  0.708000  0.075100  0.958500  1
  H  H519  1  0.208000  0.424900  0.458500  1
  H  H520  1  0.292000  0.924900  0.041500  1
  H  H521  1  0.806700  0.618100  0.568300  1
  H  H522  1  0.693300  0.118100  0.931700  1
  H  H523  1  0.193300  0.381900  0.431700  1
  H  H524  1  0.306700  0.881900  0.068300  1
  H  H525  1  0.835400  0.611800  0.535900  1
  H  H526  1  0.664600  0.111800  0.964100  1
  H  H527  1  0.164600  0.388200  0.464100  1
  H  H528  1  0.335400  0.888200  0.035900  1
  H  H529  1  0.682200  0.522600  0.370600  1
  H  H530  1  0.817800  0.022600  0.129400  1
  H  H531  1  0.317800  0.477400  0.629400  1
  H  H532  1  0.182200  0.977400  0.870600  1
  H  H533  1  0.636100  0.469300  0.315800  1
  H  H534  1  0.863900  0.969300  0.184200  1
  H  H535  1  0.363900  0.530700  0.684200  1
  H  H536  1  0.136100  0.030700  0.815800  1
  H  H537  1  0.577500  0.459600  0.254400  1
  H  H538  1  0.922500  0.959600  0.245600  1
  H  H539  1  0.422500  0.540400  0.745600  1
  H  H540  1  0.077500  0.040400  0.754400  1
  H  H541  1  0.560600  0.592800  0.244700  1
  H  H542  1  0.939400  0.092800  0.255300  1
  H  H543  1  0.439400  0.407200  0.755300  1
  H  H544  1  0.060600  0.907200  0.744700  1
  H  H545  1  0.558200  0.575400  0.184500  1
  H  H546  1  0.941800  0.075400  0.315500  1
  H  H547  1  0.441800  0.424600  0.815500  1
  H  H548  1  0.058200  0.924600  0.684500  1
  H  H549  1  0.478900  0.466900  0.209500  1
  H  H550  1  0.021100  0.966900  0.290500  1
  H  H551  1  0.521100  0.533100  0.790500  1
  H  H552  1  0.978900  0.033100  0.709500  1
  H  H553  1  0.419000  0.464700  0.149100  1
  H  H554  1  0.081000  0.964700  0.350900  1
  H  H555  1  0.581000  0.535300  0.850900  1
  H  H556  1  0.919000  0.035300  0.649100  1
  H  H557  1  0.530900  0.603900  0.119800  1
  H  H558  1  0.969100  0.103900  0.380200  1
  H  H559  1  0.469100  0.396100  0.880200  1
  H  H560  1  0.030900  0.896100  0.619800  1
  H  H561  1  0.400000  0.546200  0.040300  1
  H  H562  1  0.100000  0.046200  0.459700  1
  H  H563  1  0.600000  0.453800  0.959700  1
  H  H564  1  0.900000  0.953800  0.540300  1
  H  H565  1  0.387800  0.496600  0.083100  1
  H  H566  1  0.112200  0.996600  0.416900  1
  H  H567  1  0.612200  0.503400  0.916900  1
  H  H568  1  0.887800  0.003400  0.583100  1
  H  H569  1  0.560300  0.613700  0.069300  1
  H  H570  1  0.939700  0.113700  0.430700  1
  H  H571  1  0.439700  0.386300  0.930700  1
  H  H572  1  0.060300  0.886300  0.569300  1
  H  H573  1  0.393100  0.627500  0.020400  1
  H  H574  1  0.106900  0.127500  0.479600  1
  H  H575  1  0.606900  0.372500  0.979600  1
  H  H576  1  0.893100  0.872500  0.520400  1
  H  H577  1  0.411800  0.681700  0.980500  1
  H  H578  1  0.088200  0.181700  0.519500  1
  H  H579  1  0.588200  0.318300  0.019500  1
  H  H580  1  0.911800  0.818300  0.480500  1
  H  H581  1  0.483400  0.729500  0.962000  1
  H  H582  1  0.016600  0.229500  0.538000  1
  H  H583  1  0.516600  0.270500  0.038000  1
  H  H584  1  0.983400  0.770500  0.462000  1
  H  H585  1  0.630900  0.711800  0.940400  1
  H  H586  1  0.869100  0.211800  0.559600  1
  H  H587  1  0.369100  0.288200  0.059600  1
  H  H588  1  0.130900  0.788200  0.440400  1
  H  H589  1  0.653200  0.766300  0.902800  1
  H  H590  1  0.846800  0.266300  0.597200  1
  H  H591  1  0.346800  0.233700  0.097200  1
  H  H592  1  0.153200  0.733700  0.402800  1
  H  H593  1  0.555100  0.855400  0.933300  1
  H  H594  1  0.944900  0.355400  0.566700  1
  H  H595  1  0.444900  0.144600  0.066700  1
  H  H596  1  0.055100  0.644600  0.433300  1
  H  H597  1  0.529900  0.799800  0.969600  1
  H  H598  1  0.970100  0.299800  0.530400  1
  H  H599  1  0.470100  0.200200  0.030400  1
  H  H600  1  0.029900  0.700200  0.469600  1
  H  H601  1  0.557600  0.884800  0.877600  1
  H  H602  1  0.942400  0.384800  0.622400  1
  H  H603  1  0.442400  0.115200  0.122400  1
  H  H604  1  0.057600  0.615200  0.377600  1
  H  H605  1  0.612100  0.905600  0.869900  1
  H  H606  1  0.887900  0.405600  0.630100  1
  H  H607  1  0.387900  0.094400  0.130100  1
  H  H608  1  0.112100  0.594400  0.369900  1
  H  H609  1  0.608600  0.903500  0.911900  1
  H  H610  1  0.891400  0.403500  0.588100  1
  H  H611  1  0.391400  0.096500  0.088100  1
  H  H612  1  0.108600  0.596500  0.411900  1
  H  H613  1  0.405200  0.633300  0.349300  1
  H  H614  1  0.094800  0.133300  0.150700  1
  H  H615  1  0.594800  0.366700  0.650700  1
  H  H616  1  0.905200  0.866700  0.849300  1
  H  H617  1  0.381900  0.597000  0.396800  1
  H  H618  1  0.118100  0.097000  0.103200  1
  H  H619  1  0.618100  0.403000  0.603200  1
  H  H620  1  0.881900  0.903000  0.896800  1
  H  H621  1  0.232600  0.558800  0.323400  1
  H  H622  1  0.267400  0.058800  0.176600  1
  H  H623  1  0.767400  0.441200  0.676600  1
  H  H624  1  0.732600  0.941200  0.823400  1
  H  H625  1  0.257700  0.593100  0.275000  1
  H  H626  1  0.242300  0.093100  0.225000  1
  H  H627  1  0.742300  0.406900  0.725000  1
  H  H628  1  0.757700  0.906900  0.775000  1
  H  H629  1  0.211300  0.552900  0.381500  1
  H  H630  1  0.288700  0.052900  0.118500  1
  H  H631  1  0.788700  0.447100  0.618500  1
  H  H632  1  0.711300  0.947100  0.881500  1
  H  H633  1  0.243200  0.517300  0.412900  1
  H  H634  1  0.256800  0.017300  0.087100  1
  H  H635  1  0.756800  0.482700  0.587100  1
  H  H636  1  0.743200  0.982700  0.912900  1
  H  H637  1  0.239400  0.509400  0.369900  1
  H  H638  1  0.260600  0.009400  0.130100  1
  H  H639  1  0.760600  0.490600  0.630100  1
  H  H640  1  0.739400  0.990600  0.869900  1
  H  H641  1  0.273400  0.663700  0.253200  1
  H  H642  1  0.226600  0.163700  0.246800  1
  H  H643  1  0.726600  0.336300  0.746800  1
  H  H644  1  0.773400  0.836300  0.753200  1
  H  H645  1  0.253400  0.721300  0.200700  1
  H  H646  1  0.246600  0.221300  0.299300  1
  H  H647  1  0.746600  0.278700  0.799300  1
  H  H648  1  0.753400  0.778700  0.700700  1
  H  H649  1  0.288500  0.772500  0.166500  1
  H  H650  1  0.211500  0.272500  0.333500  1
  H  H651  1  0.711500  0.227500  0.833500  1
  H  H652  1  0.788500  0.727500  0.666500  1
  H  H653  1  0.444000  0.721900  0.215200  1
  H  H654  1  0.056000  0.221900  0.284800  1
  H  H655  1  0.556000  0.278100  0.784800  1
  H  H656  1  0.944000  0.778100  0.715200  1
  H  H657  1  0.453200  0.739900  0.156800  1
  H  H658  1  0.046800  0.239900  0.343200  1
  H  H659  1  0.546800  0.260100  0.843200  1
  H  H660  1  0.953200  0.760100  0.656800  1
  H  H661  1  0.341400  0.835200  0.163400  1
  H  H662  1  0.158600  0.335200  0.336600  1
  H  H663  1  0.658600  0.164800  0.836600  1
  H  H664  1  0.841400  0.664800  0.663400  1
  H  H665  1  0.379400  0.884000  0.131500  1
  H  H666  1  0.120600  0.384000  0.368500  1
  H  H667  1  0.620600  0.116000  0.868500  1
  H  H668  1  0.879400  0.616000  0.631500  1
  H  H669  1  0.519900  0.755600  0.120900  1
  H  H670  1  0.980100  0.255600  0.379100  1
  H  H671  1  0.480100  0.244400  0.879100  1
  H  H672  1  0.019900  0.744400  0.620900  1
  H  H673  1  0.519900  0.877700  0.074600  1
  H  H674  1  0.980100  0.377700  0.425400  1
  H  H675  1  0.480100  0.122300  0.925400  1
  H  H676  1  0.019900  0.622300  0.574600  1
  H  H677  1  0.446300  0.899500  0.094800  1
  H  H678  1  0.053700  0.399500  0.405200  1
  H  H679  1  0.553700  0.100500  0.905200  1
  H  H680  1  0.946300  0.600500  0.594800  1
  H  H681  1  0.555400  0.733600  0.075100  1
  H  H682  1  0.944600  0.233600  0.424900  1
  H  H683  1  0.444600  0.266400  0.924900  1
  H  H684  1  0.055400  0.766400  0.575100  1
  H  H685  1  0.611100  0.860600  0.083500  1
  H  H686  1  0.888900  0.360600  0.416500  1
  H  H687  1  0.388900  0.139400  0.916500  1
  H  H688  1  0.111100  0.639400  0.583500  1
  H  H689  1  0.682200  0.837300  0.059100  1
  H  H690  1  0.817800  0.337300  0.440900  1
  H  H691  1  0.317800  0.162700  0.940900  1
  H  H692  1  0.182200  0.662700  0.559100  1
  H  H693  1  0.728900  0.775200  0.034400  1
  H  H694  1  0.771100  0.275200  0.465600  1
  H  H695  1  0.271100  0.224800  0.965600  1
  H  H696  1  0.228900  0.724800  0.534400  1
  H  H697  1  0.741700  0.756500  0.977100  1
  H  H698  1  0.758300  0.256500  0.522900  1
  H  H699  1  0.258300  0.243500  0.022900  1
  H  H700  1  0.241700  0.743500  0.477100  1
  H  H701  1  0.802300  0.728500  0.946100  1
  H  H702  1  0.697700  0.228500  0.553900  1
  H  H703  1  0.197700  0.271500  0.053900  1
  H  H704  1  0.302300  0.771500  0.446100  1
  H  H705  1  0.814400  0.612900  0.004200  1
  H  H706  1  0.685600  0.112900  0.495800  1
  H  H707  1  0.185600  0.387100  0.995800  1
  H  H708  1  0.314400  0.887100  0.504200  1
  H  H709  1  0.752200  0.640600  0.033900  1
  H  H710  1  0.747800  0.140600  0.466100  1
  H  H711  1  0.247800  0.359400  0.966100  1
  H  H712  1  0.252200  0.859400  0.533900  1
  H  H713  1  0.831900  0.686400  0.909700  1
  H  H714  1  0.668100  0.186400  0.590300  1
  H  H715  1  0.168100  0.313600  0.090300  1
  H  H716  1  0.331900  0.813600  0.409700  1
  H  H717  1  0.882800  0.652200  0.913800  1
  H  H718  1  0.617200  0.152200  0.586200  1
  H  H719  1  0.117200  0.347800  0.086200  1
  H  H720  1  0.382800  0.847800  0.413800  1
  H  H721  1  0.891800  0.695300  0.940400  1
  H  H722  1  0.608200  0.195300  0.559600  1
  H  H723  1  0.108200  0.304700  0.059600  1
  H  H724  1  0.391800  0.804700  0.440400  1
  H  H725  1  0.793900  0.436400  0.478300  1
  H  H726  1  0.706100  0.936400  0.021700  1
  H  H727  1  0.206100  0.563600  0.521700  1
  H  H728  1  0.293900  0.063600  0.978300  1
  H  H729  1  0.854600  0.413300  0.493200  1
  H  H730  1  0.645400  0.913300  0.006800  1
  H  H731  1  0.145400  0.586700  0.506800  1
  H  H732  1  0.354600  0.086700  0.993200  1
  H  H733  1  0.829400  0.438900  0.521900  1
  H  H734  1  0.670600  0.938900  0.978100  1
  H  H735  1  0.170600  0.561100  0.478100  1
  H  H736  1  0.329400  0.061100  0.021900  1
  H  H737  1  0.493400  0.446900  0.032500  1
  H  H738  1  0.006600  0.946900  0.467500  1
  H  H739  1  0.506600  0.553100  0.967500  1
  H  H740  1  0.993400  0.053100  0.532500  1
  H  H741  1  0.501000  0.470200  0.072300  1
  H  H742  1  0.999000  0.970200  0.427700  1
  H  H743  1  0.499000  0.529800  0.927700  1
  H  H744  1  0.001000  0.029800  0.572300  1
  H  H745  1  0.549100  0.437800  0.067100  1
  H  H746  1  0.950900  0.937800  0.432900  1
  H  H747  1  0.450900  0.562200  0.932900  1
  H  H748  1  0.049100  0.062200  0.567100  1
  H  H749  1  0.624700  0.014400  0.023700  1
  H  H750  1  0.875300  0.514400  0.476300  1
  H  H751  1  0.375300  0.985600  0.976300  1
  H  H752  1  0.124700  0.485600  0.523700  1
  H  H753  1  0.639300  0.012400  0.068400  1
  H  H754  1  0.860700  0.512400  0.431600  1
  H  H755  1  0.360700  0.987600  0.931600  1
  H  H756  1  0.139300  0.487600  0.568400  1
  H  H757  1  0.587000  0.041600  0.043900  1
  H  H758  1  0.913000  0.541600  0.456100  1
  H  H759  1  0.413000  0.958400  0.956100  1
  H  H760  1  0.087000  0.458400  0.543900  1
  H  H761  1  0.990600  0.593300  0.296200  1
  H  H762  1  0.509400  0.093300  0.203800  1
  H  H763  1  0.009400  0.406700  0.703800  1
  H  H764  1  0.490600  0.906700  0.796200  1
  H  H765  1  0.012900  0.553400  0.325700  1
  H  H766  1  0.487100  0.053400  0.174300  1
  H  H767  1  0.987100  0.446600  0.674300  1
  H  H768  1  0.512900  0.946600  0.825700  1
  H  H769  1  0.951600  0.574200  0.319500  1
  H  H770  1  0.548400  0.074200  0.180500  1
  H  H771  1  0.048400  0.425800  0.680500  1
  H  H772  1  0.451600  0.925800  0.819500  1
  H  H773  1  0.653800  0.034000  0.365900  1
  H  H774  1  0.846200  0.534000  0.134100  1
  H  H775  1  0.346200  0.966000  0.634100  1
  H  H776  1  0.153800  0.466000  0.865900  1
  H  H777  1  0.595000  0.016700  0.366700  1
  H  H778  1  0.905000  0.516700  0.133300  1
  H  H779  1  0.405000  0.983300  0.633300  1
  H  H780  1  0.095000  0.483300  0.866700  1
  H  H781  1  0.647800  0.012600  0.402600  1
  H  H782  1  0.852200  0.512600  0.097400  1
  H  H783  1  0.352200  0.987400  0.597400  1
  H  H784  1  0.147800  0.487400  0.902600  1
  H  H785  1  0.208300  0.475600  0.259300  1
  H  H786  1  0.291700  0.975600  0.240700  1
  H  H787  1  0.791700  0.524400  0.740700  1
  H  H788  1  0.708300  0.024400  0.759300  1
  H  H789  1  0.252500  0.467100  0.300100  1
  H  H790  1  0.247500  0.967100  0.199900  1
  H  H791  1  0.747500  0.532900  0.699900  1
  H  H792  1  0.752500  0.032900  0.800100  1
  H  H793  1  0.241400  0.429000  0.268500  1
  H  H794  1  0.258600  0.929000  0.231500  1
  H  H795  1  0.758600  0.571000  0.731500  1
  H  H796  1  0.741400  0.071000  0.768500  1
  H  H797  1  0.112000  0.378200  0.521000  1
  H  H798  1  0.388000  0.878200  0.979000  1
  H  H799  1  0.888000  0.621800  0.479000  1
  H  H800  1  0.612000  0.121800  0.021000  1
  H  H801  1  0.045600  0.374700  0.500100  1
  H  H802  1  0.454400  0.874700  0.999900  1
  H  H803  1  0.954400  0.625300  0.499900  1
  H  H804  1  0.545600  0.125300  0.000100  1
  H  H805  1  0.071400  0.357800  0.542600  1
  H  H806  1  0.428600  0.857800  0.957400  1
  H  H807  1  0.928600  0.642200  0.457400  1
  H  H808  1  0.571400  0.142200  0.042600  1
  H  H809  1  0.095300  0.256100  0.459200  1
  H  H810  1  0.404700  0.756100  0.040800  1
  H  H811  1  0.904700  0.743900  0.540800  1
  H  H812  1  0.595300  0.243900  0.959200  1
  H  H813  1  0.140700  0.282000  0.443900  1
  H  H814  1  0.359300  0.782000  0.056100  1
  H  H815  1  0.859300  0.718000  0.556100  1
  H  H816  1  0.640700  0.218000  0.943900  1
  H  H817  1  0.182300  0.221800  0.480700  1
  H  H818  1  0.317700  0.721800  0.019300  1
  H  H819  1  0.817700  0.778200  0.519300  1
  H  H820  1  0.682300  0.278200  0.980700  1
  H  H821  1  0.209200  0.267900  0.499700  1
  H  H822  1  0.290800  0.767900  0.000300  1
  H  H823  1  0.790800  0.732100  0.500300  1
  H  H824  1  0.709200  0.232100  0.999700  1
  H  H825  1  0.164300  0.242300  0.514800  1
  H  H826  1  0.335700  0.742300  0.985200  1
  H  H827  1  0.835700  0.757700  0.485200  1
  H  H828  1  0.664300  0.257700  0.014800  1
  H  H829  1  0.751400  0.375600  0.266500  1
  H  H830  1  0.748600  0.875600  0.233500  1
  H  H831  1  0.248600  0.624400  0.733500  1
  H  H832  1  0.251400  0.124400  0.766500  1
  H  H833  1  0.721400  0.420800  0.247300  1
  H  H834  1  0.778600  0.920800  0.252700  1
  H  H835  1  0.278600  0.579200  0.752700  1
  H  H836  1  0.221400  0.079200  0.747300  1
  H  H837  1  0.729100  0.411100  0.290700  1
  H  H838  1  0.770900  0.911100  0.209300  1
  H  H839  1  0.270900  0.588900  0.709300  1
  H  H840  1  0.229100  0.088900  0.790700  1
  H  H841  1  0.583000  0.329000  0.233800  1
  H  H842  1  0.917000  0.829000  0.266200  1
  H  H843  1  0.417000  0.671000  0.766200  1
  H  H844  1  0.083000  0.171000  0.733800  1
  H  H845  1  0.609200  0.287600  0.218000  1
  H  H846  1  0.890800  0.787600  0.282000  1
  H  H847  1  0.390800  0.712400  0.782000  1
  H  H848  1  0.109200  0.212400  0.718000  1
  H  H849  1  0.574100  0.265300  0.263800  1
  H  H850  1  0.925900  0.765300  0.236200  1
  H  H851  1  0.425900  0.734700  0.736200  1
  H  H852  1  0.074100  0.234700  0.763800  1
  H  H853  1  0.640900  0.258100  0.276800  1
  H  H854  1  0.859100  0.758100  0.223200  1
  H  H855  1  0.359100  0.741900  0.723200  1
  H  H856  1  0.140900  0.241900  0.776800  1
  H  H857  1  0.614700  0.299500  0.292700  1
  H  H858  1  0.885300  0.799500  0.207300  1
  H  H859  1  0.385300  0.700500  0.707300  1
  H  H860  1  0.114700  0.200500  0.792700  1
  H  H861  1  0.238700  0.186700  0.416000  1
  H  H862  1  0.261300  0.686700  0.084000  1
  H  H863  1  0.761300  0.813300  0.584000  1
  H  H864  1  0.738700  0.313300  0.916000  1
  H  H865  1  0.284400  0.212100  0.449500  1
  H  H866  1  0.215600  0.712100  0.050500  1
  H  H867  1  0.715600  0.787900  0.550500  1
  H  H868  1  0.784400  0.287900  0.949500  1
  H  H869  1  0.263800  0.233700  0.408400  1
  H  H870  1  0.236200  0.733700  0.091600  1
  H  H871  1  0.736200  0.766300  0.591600  1
  H  H872  1  0.763800  0.266300  0.908400  1
  H  H873  1  0.364500  0.117700  0.387800  1
  H  H874  1  0.135500  0.617700  0.112200  1
  H  H875  1  0.635500  0.882300  0.612200  1
  H  H876  1  0.864500  0.382300  0.887800  1
  H  H877  1  0.397900  0.121000  0.431800  1
  H  H878  1  0.102100  0.621000  0.068200  1
  H  H879  1  0.602100  0.879000  0.568200  1
  H  H880  1  0.897900  0.379000  0.931800  1
  H  H881  1  0.386400  0.048600  0.413000  1
  H  H882  1  0.113600  0.548600  0.087000  1
  H  H883  1  0.613600  0.951400  0.587000  1
  H  H884  1  0.886400  0.451400  0.913000  1
  H  H885  1  0.352900  0.058500  0.442300  1
  H  H886  1  0.147100  0.558500  0.057700  1
  H  H887  1  0.647100  0.941500  0.557700  1
  H  H888  1  0.852900  0.441500  0.942300  1
  H  H889  1  0.319500  0.055200  0.398400  1
  H  H890  1  0.180500  0.555200  0.101600  1
  H  H891  1  0.680500  0.944800  0.601600  1
  H  H892  1  0.819500  0.444800  0.898400  1
  H  H893  1  0.294900  0.467400  0.140600  1
  H  H894  1  0.205100  0.967400  0.359400  1
  H  H895  1  0.705100  0.532600  0.859400  1
  H  H896  1  0.794900  0.032600  0.640600  1
  H  H897  1  0.229700  0.472900  0.117000  1
  H  H898  1  0.270300  0.972900  0.383000  1
  H  H899  1  0.770300  0.527100  0.883000  1
  H  H900  1  0.729700  0.027100  0.617000  1
  H  H901  1  0.253900  0.495300  0.157600  1
  H  H902  1  0.246100  0.995300  0.342400  1
  H  H903  1  0.746100  0.504700  0.842400  1
  H  H904  1  0.753900  0.004700  0.657600  1
  H  H905  1  0.285200  0.348400  0.189400  1
  H  H906  1  0.214800  0.848400  0.310600  1
  H  H907  1  0.714800  0.651600  0.810600  1
  H  H908  1  0.785200  0.151600  0.689400  1
  H  H909  1  0.233100  0.335100  0.153500  1
  H  H910  1  0.266900  0.835100  0.346500  1
  H  H911  1  0.766900  0.664900  0.846500  1
  H  H912  1  0.733100  0.164900  0.653500  1
  H  H913  1  0.308600  0.290700  0.157600  1
  H  H914  1  0.191400  0.790700  0.342400  1
  H  H915  1  0.691400  0.709300  0.842400  1
  H  H916  1  0.808600  0.209300  0.657600  1
  H  H917  1  0.293900  0.320500  0.120300  1
  H  H918  1  0.206100  0.820500  0.379700  1
  H  H919  1  0.706100  0.679500  0.879700  1
  H  H920  1  0.793900  0.179500  0.620300  1
  H  H921  1  0.345900  0.333800  0.156100  1
  H  H922  1  0.154100  0.833800  0.343900  1
  H  H923  1  0.654100  0.666200  0.843900  1
  H  H924  1  0.845900  0.166200  0.656100  1
  H  H925  1  0.127000  0.064800  0.548100  1
  H  H926  1  0.373000  0.564800  0.951900  1
  H  H927  1  0.873000  0.935200  0.451900  1
  H  H928  1  0.627000  0.435200  0.048100  1
  H  H929  1  0.175600  0.099700  0.548000  1
  H  H930  1  0.324400  0.599700  0.952000  1
  H  H931  1  0.824400  0.900300  0.452000  1
  H  H932  1  0.675600  0.400300  0.048000  1
  H  H933  1  0.186000  0.047100  0.545200  1
  H  H934  1  0.314000  0.547100  0.954800  1
  H  H935  1  0.814000  0.952900  0.454800  1
  H  H936  1  0.686000  0.452900  0.045200  1
  H  H937  1  0.194800  0.044300  0.666200  1
  H  H938  1  0.305200  0.544300  0.833800  1
  H  H939  1  0.805200  0.955700  0.333800  1
  H  H940  1  0.694800  0.455700  0.166200  1
  H  H941  1  0.164500  0.092400  0.661800  1
  H  H942  1  0.335500  0.592400  0.838200  1
  H  H943  1  0.835500  0.907600  0.338200  1
  H  H944  1  0.664500  0.407600  0.161800  1
  H  H945  1  0.118300  0.041600  0.687800  1
  H  H946  1  0.381700  0.541600  0.812200  1
  H  H947  1  0.881700  0.958400  0.312200  1
  H  H948  1  0.618300  0.458400  0.187800  1
  H  H949  1  0.078400  0.057700  0.647600  1
  H  H950  1  0.421600  0.557700  0.852400  1
  H  H951  1  0.921600  0.942300  0.352400  1
  H  H952  1  0.578400  0.442300  0.147600  1
  H  H953  1  0.108600  0.009900  0.651900  1
  H  H954  1  0.391400  0.509900  0.848100  1
  H  H955  1  0.891400  0.990100  0.348100  1
  H  H956  1  0.608600  0.490100  0.151900  1
  H  H957  1  0.401700  0.141800  0.204900  1
  H  H958  1  0.098300  0.641800  0.295100  1
  H  H959  1  0.598300  0.858200  0.795100  1
  H  H960  1  0.901700  0.358200  0.704900  1
  H  H961  1  0.399800  0.100800  0.232000  1
  H  H962  1  0.100200  0.600800  0.268000  1
  H  H963  1  0.600200  0.899200  0.768000  1
  H  H964  1  0.899800  0.399200  0.732000  1
  H  H965  1  0.344900  0.113600  0.198000  1
  H  H966  1  0.155100  0.613600  0.302000  1
  H  H967  1  0.655100  0.886400  0.802000  1
  H  H968  1  0.844900  0.386400  0.698000  1
  H  H969  1  0.335000  0.235800  0.264600  1
  H  H970  1  0.165000  0.735800  0.235400  1
  H  H971  1  0.665000  0.764200  0.735400  1
  H  H972  1  0.835000  0.264200  0.764600  1
  H  H973  1  0.396600  0.223600  0.292800  1
  H  H974  1  0.103400  0.723600  0.207200  1
  H  H975  1  0.603400  0.776400  0.707200  1
  H  H976  1  0.896600  0.276400  0.792800  1
  H  H977  1  0.395900  0.298300  0.271400  1
  H  H978  1  0.104100  0.798300  0.228600  1
  H  H979  1  0.604100  0.701700  0.728600  1
  H  H980  1  0.895900  0.201700  0.771400  1
  H  H981  1  0.438300  0.268600  0.256900  1
  H  H982  1  0.061700  0.768600  0.243100  1
  H  H983  1  0.561700  0.731400  0.743100  1
  H  H984  1  0.938300  0.231400  0.756900  1
  H  H985  1  0.377200  0.280700  0.228900  1
  H  H986  1  0.122800  0.780700  0.271100  1
  H  H987  1  0.622800  0.719300  0.771100  1
  H  H988  1  0.877200  0.219300  0.728900  1
  H  H989  1  0.558700  0.948000  0.292300  1
  H  H990  1  0.941300  0.448000  0.207700  1
  H  H991  1  0.441300  0.052000  0.707700  1
  H  H992  1  0.058700  0.552000  0.792300  1
  H  H993  1  0.484900  0.000400  0.281100  1
  H  H994  1  0.015100  0.500400  0.218900  1
  H  H995  1  0.515100  0.999600  0.718900  1
  H  H996  1  0.984900  0.499600  0.781100  1
  H  H997  1  0.403900  0.919800  0.334900  1
  H  H998  1  0.096100  0.419800  0.165100  1
  H  H999  1  0.596100  0.080200  0.665100  1
  H  H1000  1  0.903900  0.580200  0.834900  1
  H  H1001  1  0.475700  0.861100  0.337900  1
  H  H1002  1  0.024300  0.361100  0.162100  1
  H  H1003  1  0.524300  0.138900  0.662100  1
  H  H1004  1  0.975700  0.638900  0.837900  1
  H  H1005  1  0.362900  0.051900  0.284100  1
  H  H1006  1  0.137100  0.551900  0.215900  1
  H  H1007  1  0.637100  0.948100  0.715900  1
  H  H1008  1  0.862900  0.448100  0.784100  1
  H  H1009  1  0.429600  0.049000  0.292100  1
  H  H1010  1  0.070400  0.549000  0.207900  1
  H  H1011  1  0.570400  0.951000  0.707900  1
  H  H1012  1  0.929600  0.451000  0.792100  1
  H  H1013  1  0.388000  0.023500  0.256700  1
  H  H1014  1  0.112000  0.523500  0.243300  1
  H  H1015  1  0.612000  0.976500  0.743300  1
  H  H1016  1  0.888000  0.476500  0.756700  1
  H  H1017  1  0.633400  0.900200  0.338800  1
  H  H1018  1  0.866600  0.400200  0.161200  1
  H  H1019  1  0.366600  0.099800  0.661200  1
  H  H1020  1  0.133400  0.599800  0.838800  1
  H  H1021  1  0.486300  0.607500  0.827800  1
  H  H1022  1  0.013700  0.107500  0.672200  1
  H  H1023  1  0.513700  0.392500  0.172200  1
  H  H1024  1  0.986300  0.892500  0.327800  1
  H  H1025  1  0.504800  0.629100  0.794300  1
  H  H1026  1  0.995200  0.129100  0.705700  1
  H  H1027  1  0.495200  0.370900  0.205700  1
  H  H1028  1  0.004800  0.870900  0.294300  1
  H  H1029  1  0.498100  0.660100  0.827500  1
  H  H1030  1  0.001900  0.160100  0.672500  1
  H  H1031  1  0.501900  0.339900  0.172500  1
  H  H1032  1  0.998100  0.839900  0.327500  1
  H  H1033  1  0.590300  0.043000  0.365100  1
  H  H1034  1  0.909700  0.543000  0.134900  1
  H  H1035  1  0.409700  0.957000  0.634900  1
  H  H1036  1  0.090300  0.457000  0.865100  1
  H  H1037  1  0.545600  0.022100  0.381700  1
  H  H1038  1  0.954400  0.522100  0.118300  1
  H  H1039  1  0.454400  0.977900  0.618300  1
  H  H1040  1  0.045600  0.477900  0.881700  1
  H  H1041  1  0.609100  0.024900  0.406400  1
  H  H1042  1  0.890900  0.524900  0.093600  1
  H  H1043  1  0.390900  0.975100  0.593600  1
  H  H1044  1  0.109100  0.475100  0.906400  1
  H  H1045  1  0.230800  0.420300  0.248500  1
  H  H1046  1  0.269200  0.920300  0.251500  1
  H  H1047  1  0.769200  0.579700  0.751500  1
  H  H1048  1  0.730800  0.079700  0.748500  1
  H  H1049  1  0.187500  0.459000  0.228600  1
  H  H1050  1  0.312500  0.959000  0.271400  1
  H  H1051  1  0.812500  0.541000  0.771400  1
  H  H1052  1  0.687500  0.041000  0.728600  1
  H  H1053  1  0.225800  0.464400  0.271500  1
  H  H1054  1  0.274200  0.964400  0.228500  1
  H  H1055  1  0.774200  0.535600  0.728500  1
  H  H1056  1  0.725800  0.035600  0.771500  1
  H  H1057  1  0.096800  0.282600  0.446300  1
  H  H1058  1  0.403200  0.782600  0.053700  1
  H  H1059  1  0.903200  0.717400  0.553700  1
  H  H1060  1  0.596800  0.217400  0.946300  1
  H  H1061  1  0.161800  0.286600  0.458800  1
  H  H1062  1  0.338200  0.786600  0.041200  1
  H  H1063  1  0.838200  0.713400  0.541200  1
  H  H1064  1  0.661800  0.213400  0.958800  1
  H  H1065  1  0.110500  0.207300  0.449700  1
  H  H1066  1  0.389500  0.707300  0.050300  1
  H  H1067  1  0.889500  0.792700  0.550300  1
  H  H1068  1  0.610500  0.292700  0.949700  1
  H  H1069  1  0.125100  0.242800  0.423300  1
  H  H1070  1  0.374900  0.742800  0.076700  1
  H  H1071  1  0.874900  0.757200  0.576700  1
  H  H1072  1  0.625100  0.257200  0.923300  1
  H  H1073  1  0.173000  0.223000  0.457300  1
  H  H1074  1  0.327000  0.723000  0.042700  1
  H  H1075  1  0.827000  0.777000  0.542700  1
  H  H1076  1  0.673000  0.277000  0.957300  1
  H  H1077  1  0.233200  0.200500  0.431800  1
  H  H1078  1  0.266800  0.700500  0.068200  1
  H  H1079  1  0.766800  0.799500  0.568200  1
  H  H1080  1  0.733200  0.299500  0.931800  1
  H  H1081  1  0.295100  0.207700  0.460600  1
  H  H1082  1  0.204900  0.707700  0.039400  1
  H  H1083  1  0.704900  0.792300  0.539400  1
  H  H1084  1  0.795100  0.292300  0.960600  1
  H  H1085  1  0.266800  0.245700  0.430500  1
  H  H1086  1  0.233200  0.745700  0.069500  1
  H  H1087  1  0.733200  0.754300  0.569500  1
  H  H1088  1  0.766800  0.254300  0.930500  1
  H  H1089  1  0.363900  0.130000  0.400200  1
  H  H1090  1  0.136100  0.630000  0.099800  1
  H  H1091  1  0.636100  0.870000  0.599800  1
  H  H1092  1  0.863900  0.370000  0.900200  1
  H  H1093  1  0.321900  0.088000  0.395300  1
  H  H1094  1  0.178100  0.588000  0.104700  1
  H  H1095  1  0.678100  0.912000  0.604700  1
  H  H1096  1  0.821900  0.412000  0.895300  1
  H  H1097  1  0.333400  0.106900  0.338300  1
  H  H1098  1  0.166600  0.606900  0.161700  1
  H  H1099  1  0.666600  0.893100  0.661700  1
  H  H1100  1  0.833400  0.393100  0.838300  1
  H  H1101  1  0.269400  0.114600  0.337000  1
  H  H1102  1  0.230600  0.614600  0.163000  1
  H  H1103  1  0.730600  0.885400  0.663000  1
  H  H1104  1  0.769400  0.385400  0.837000  1
  H  H1105  1  0.311100  0.156400  0.341900  1
  H  H1106  1  0.188900  0.656400  0.158100  1
  H  H1107  1  0.688900  0.843600  0.658100  1
  H  H1108  1  0.811100  0.343600  0.841900  1
  H  H1109  1  0.236000  0.491500  0.163600  1
  H  H1110  1  0.264000  0.991500  0.336400  1
  H  H1111  1  0.764000  0.508500  0.836400  1
  H  H1112  1  0.736000  0.008500  0.663600  1
  H  H1113  1  0.245700  0.523700  0.132000  1
  H  H1114  1  0.254300  0.023700  0.368000  1
  H  H1115  1  0.754300  0.476300  0.868000  1
  H  H1116  1  0.745700  0.976300  0.632000  1
  H  H1117  1  0.183800  0.505700  0.128100  1
  H  H1118  1  0.316200  0.005700  0.371900  1
  H  H1119  1  0.816200  0.494300  0.871900  1
  H  H1120  1  0.683800  0.994300  0.628100  1
  H  H1121  1  0.170900  0.382500  0.141800  1
  H  H1122  1  0.329100  0.882500  0.358200  1
  H  H1123  1  0.829100  0.617500  0.858200  1
  H  H1124  1  0.670900  0.117500  0.641800  1
  H  H1125  1  0.203800  0.418300  0.174100  1
  H  H1126  1  0.296200  0.918300  0.325900  1
  H  H1127  1  0.796200  0.581700  0.825900  1
  H  H1128  1  0.703800  0.081700  0.674100  1
  H  H1129  1  0.256000  0.340400  0.190300  1
  H  H1130  1  0.244000  0.840400  0.309700  1
  H  H1131  1  0.744000  0.659600  0.809700  1
  H  H1132  1  0.756000  0.159600  0.690300  1
  H  H1133  1  0.265800  0.341000  0.150000  1
  H  H1134  1  0.234200  0.841000  0.350000  1
  H  H1135  1  0.734200  0.659000  0.850000  1
  H  H1136  1  0.765800  0.159000  0.650000  1
  H  H1137  1  0.298100  0.376200  0.181700  1
  H  H1138  1  0.201900  0.876200  0.318300  1
  H  H1139  1  0.701900  0.623800  0.818300  1
  H  H1140  1  0.798100  0.123800  0.681700  1
  H  H1141  1  0.177400  0.089100  0.574100  1
  H  H1142  1  0.322600  0.589100  0.925900  1
  H  H1143  1  0.822600  0.910900  0.425900  1
  H  H1144  1  0.677400  0.410900  0.074100  1
  H  H1145  1  0.162600  0.037600  0.578300  1
  H  H1146  1  0.337400  0.537600  0.921700  1
  H  H1147  1  0.837400  0.962400  0.421700  1
  H  H1148  1  0.662600  0.462400  0.078300  1
  H  H1149  1  0.195000  0.051700  0.549300  1
  H  H1150  1  0.305000  0.551700  0.950700  1
  H  H1151  1  0.805000  0.948300  0.450700  1
  H  H1152  1  0.695000  0.448300  0.049300  1
  H  H1153  1  0.080400  0.989300  0.612800  1
  H  H1154  1  0.419600  0.489300  0.887200  1
  H  H1155  1  0.919600  0.010700  0.387200  1
  H  H1156  1  0.580400  0.510700  0.112800  1
  H  H1157  1  0.128500  0.959500  0.641100  1
  H  H1158  1  0.371500  0.459500  0.858900  1
  H  H1159  1  0.871500  0.040500  0.358900  1
  H  H1160  1  0.628500  0.540500  0.141100  1
  H  H1161  1  0.142700  0.988900  0.609400  1
  H  H1162  1  0.357300  0.488900  0.890600  1
  H  H1163  1  0.857300  0.011100  0.390600  1
  H  H1164  1  0.642700  0.511100  0.109400  1
  H  H1165  1  0.360100  0.495700  0.376000  1
  H  H1166  1  0.139900  0.995700  0.124000  1
  H  H1167  1  0.639900  0.504300  0.624000  1
  H  H1168  1  0.860100  0.004300  0.876000  1
  H  H1169  1  0.387500  0.474800  0.346300  1
  H  H1170  1  0.112500  0.974800  0.153700  1
  H  H1171  1  0.612500  0.525200  0.653700  1
  H  H1172  1  0.887500  0.025200  0.846300  1
  H  H1173  1  0.351300  0.443800  0.365000  1
  H  H1174  1  0.148700  0.943800  0.135000  1
  H  H1175  1  0.648700  0.556200  0.635000  1
  H  H1176  1  0.851300  0.056200  0.865000  1
  H  H1177  1  0.467400  0.453000  0.469100  1
  H  H1178  1  0.032600  0.953000  0.030900  1
  H  H1179  1  0.532600  0.547000  0.530900  1
  H  H1180  1  0.967400  0.047000  0.969100  1
  H  H1181  1  0.511200  0.481900  0.455000  1
  H  H1182  1  0.988800  0.981900  0.045000  1
  H  H1183  1  0.488800  0.518100  0.545000  1
  H  H1184  1  0.011200  0.018100  0.955000  1
  H  H1185  1  0.506600  0.508900  0.511600  1
  H  H1186  1  0.993400  0.008900  0.988400  1
  H  H1187  1  0.493400  0.491100  0.488400  1
  H  H1188  1  0.006600  0.991100  0.011600  1
  H  H1189  1  0.483900  0.545800  0.479400  1
  H  H1190  1  0.016100  0.045800  0.020600  1
  H  H1191  1  0.516100  0.454200  0.520600  1
  H  H1192  1  0.983900  0.954200  0.979400  1
  H  H1193  1  0.440300  0.517000  0.493500  1
  H  H1194  1  0.059700  0.017000  0.006500  1
  H  H1195  1  0.559700  0.483000  0.506500  1
  H  H1196  1  0.940300  0.983000  0.993500  1
  H  H1197  1  0.412600  0.535600  0.445600  1
  H  H1198  1  0.087400  0.035600  0.054400  1
  H  H1199  1  0.587400  0.464400  0.554400  1
  H  H1200  1  0.912600  0.964400  0.945600  1
  H  H1201  1  0.441400  0.508000  0.483400  1
  H  H1202  1  0.058600  0.008000  0.016600  1
  H  H1203  1  0.558600  0.492000  0.516600  1
  H  H1204  1  0.941400  0.992000  0.983400  1
  H  H1205  1  0.479500  0.537200  0.464800  1
  H  H1206  1  0.020500  0.037200  0.035200  1
  H  H1207  1  0.520500  0.462800  0.535200  1
  H  H1208  1  0.979500  0.962800  0.964800  1
  H  H1209  1  0.381800  0.421500  0.377800  1
  H  H1210  1  0.118200  0.921500  0.122200  1
  H  H1211  1  0.618200  0.578500  0.622200  1
  H  H1212  1  0.881800  0.078500  0.877800  1
  H  H1213  1  0.433600  0.444000  0.367700  1
  H  H1214  1  0.066400  0.944000  0.132300  1
  H  H1215  1  0.566400  0.556000  0.632300  1
  H  H1216  1  0.933600  0.056000  0.867700  1
  H  H1217  1  0.350800  0.453200  0.318100  1
  H  H1218  1  0.149200  0.953200  0.181900  1
  H  H1219  1  0.649200  0.546800  0.681900  1
  H  H1220  1  0.850800  0.046800  0.818100  1
  H  H1221  1  0.322700  0.478600  0.345400  1
  H  H1222  1  0.177300  0.978600  0.154600  1
  H  H1223  1  0.677300  0.521400  0.654600  1
  H  H1224  1  0.822700  0.021400  0.845400  1
  H  H1225  1  0.374400  0.500900  0.335300  1
  H  H1226  1  0.125600  0.000900  0.164700  1
  H  H1227  1  0.625600  0.499100  0.664700  1
  H  H1228  1  0.874400  0.999100  0.835300  1
  H  H1229  1  0.409900  0.266600  0.257500  1
  H  H1230  1  0.090100  0.766600  0.242500  1
  H  H1231  1  0.590100  0.733400  0.742500  1
  H  H1232  1  0.909900  0.233400  0.757500  1
  H  H1233  1  0.349000  0.282800  0.258100  1
  H  H1234  1  0.151000  0.782800  0.241900  1
  H  H1235  1  0.651000  0.717200  0.741900  1
  H  H1236  1  0.849000  0.217200  0.758100  1
  H  H1237  1  0.397600  0.272900  0.296700  1
  H  H1238  1  0.102400  0.772900  0.203300  1
  H  H1239  1  0.602400  0.727100  0.703300  1
  H  H1240  1  0.897600  0.227100  0.796700  1
  H  H1241  1  0.322700  0.145500  0.222300  1
  H  H1242  1  0.177300  0.645500  0.277700  1
  H  H1243  1  0.677300  0.854500  0.777700  1
  H  H1244  1  0.822700  0.354500  0.722300  1
  H  H1245  1  0.373200  0.126200  0.257200  1
  H  H1246  1  0.126800  0.626200  0.242800  1
  H  H1247  1  0.626800  0.873800  0.742800  1
  H  H1248  1  0.873200  0.373800  0.757200  1
  H  H1249  1  0.388300  0.101900  0.197600  1
  H  H1250  1  0.111700  0.601900  0.302400  1
  H  H1251  1  0.611700  0.898100  0.802400  1
  H  H1252  1  0.888300  0.398100  0.697600  1
  H  H1253  1  0.388900  0.153200  0.185300  1
  H  H1254  1  0.111100  0.653200  0.314700  1
  H  H1255  1  0.611100  0.846800  0.814700  1
  H  H1256  1  0.888900  0.346800  0.685300  1
  H  H1257  1  0.438900  0.134000  0.220000  1
  H  H1258  1  0.061100  0.634000  0.280000  1
  H  H1259  1  0.561100  0.866000  0.780000  1
  H  H1260  1  0.938900  0.366000  0.720000  1
  C  C1261  1  0.367800  0.749500  0.591440  1
  C  C1262  1  0.132200  0.249500  0.908560  1
  C  C1263  1  0.632200  0.250500  0.408560  1
  C  C1264  1  0.867800  0.750500  0.091440  1
  C  C1265  1  0.354900  0.785600  0.610900  1
  C  C1266  1  0.145100  0.285600  0.889100  1
  C  C1267  1  0.645100  0.214400  0.389100  1
  C  C1268  1  0.854900  0.714400  0.110900  1
  C  C1269  1  0.318900  0.779900  0.631400  1
  C  C1270  1  0.181100  0.279900  0.868600  1
  C  C1271  1  0.681100  0.220100  0.368600  1
  C  C1272  1  0.818900  0.720100  0.131400  1
  C  C1273  1  0.294600  0.738800  0.632900  1
  C  C1274  1  0.205400  0.238800  0.867100  1
  C  C1275  1  0.705400  0.261200  0.367100  1
  C  C1276  1  0.794600  0.761200  0.132900  1
  C  C1277  1  0.306600  0.703100  0.612800  1
  C  C1278  1  0.193400  0.203100  0.887200  1
  C  C1279  1  0.693400  0.296900  0.387200  1
  C  C1280  1  0.806600  0.796900  0.112800  1
  C  C1281  1  0.343200  0.708800  0.592640  1
  C  C1282  1  0.156800  0.208800  0.907360  1
  C  C1283  1  0.656800  0.291200  0.407360  1
  C  C1284  1  0.843200  0.791200  0.092640  1
  C  C1285  1  0.242100  0.694900  0.662500  1
  C  C1286  1  0.257900  0.194900  0.837500  1
  C  C1287  1  0.757900  0.305100  0.337500  1
  C  C1288  1  0.742100  0.805100  0.162500  1
  C  C1289  1  0.411000  0.792100  0.556100  1
  C  C1290  1  0.089000  0.292100  0.943900  1
  C  C1291  1  0.589000  0.207900  0.443900  1
  C  C1292  1  0.911000  0.707900  0.056100  1
  C  C1293  1  0.452200  0.801700  0.537400  1
  C  C1294  1  0.047800  0.301700  0.962600  1
  C  C1295  1  0.547800  0.198300  0.462600  1
  C  C1296  1  0.952200  0.698300  0.037400  1
  C  C1297  1  0.457600  0.843700  0.524200  1
  C  C1298  1  0.042400  0.343700  0.975800  1
  C  C1299  1  0.542400  0.156300  0.475800  1
  C  C1300  1  0.957600  0.656300  0.024200  1
  C  C1301  1  0.500200  0.851100  0.508200  1
  C  C1302  1  0.999800  0.351100  0.991800  1
  C  C1303  1  0.499800  0.148900  0.491800  1
  C  C1304  1  0.000200  0.648900  0.008200  1
  C  C1305  1  0.536100  0.816800  0.505400  1
  C  C1306  1  0.963900  0.316800  0.994600  1
  C  C1307  1  0.463900  0.183200  0.494600  1
  C  C1308  1  0.036100  0.683200  0.005400  1
  C  C1309  1  0.526200  0.775700  0.519300  1
  C  C1310  1  0.973800  0.275700  0.980700  1
  C  C1311  1  0.473800  0.224300  0.480700  1
  C  C1312  1  0.026200  0.724300  0.019300  1
  C  C1313  1  0.601000  0.792100  0.470700  1
  C  C1314  1  0.899000  0.292100  0.029300  1
  C  C1315  1  0.399000  0.207900  0.529300  1
  C  C1316  1  0.101000  0.707900  0.970700  1
  C  C1317  1  0.583500  0.824300  0.490200  1
  C  C1318  1  0.916500  0.324300  0.009800  1
  C  C1319  1  0.416500  0.175700  0.509800  1
  C  C1320  1  0.083500  0.675700  0.990200  1
  C  C1321  1  0.609100  0.866900  0.494500  1
  C  C1322  1  0.890900  0.366900  0.005500  1
  C  C1323  1  0.390900  0.133100  0.505500  1
  C  C1324  1  0.109100  0.633100  0.994500  1
  C  C1325  1  0.651000  0.876100  0.479400  1
  C  C1326  1  0.849000  0.376100  0.020600  1
  C  C1327  1  0.349000  0.123900  0.520600  1
  C  C1328  1  0.151000  0.623900  0.979400  1
  C  C1329  1  0.671600  0.842600  0.460200  1
  C  C1330  1  0.828400  0.342600  0.039800  1
  C  C1331  1  0.328400  0.157400  0.539800  1
  C  C1332  1  0.171600  0.657400  0.960200  1
  C  C1333  1  0.645000  0.800200  0.455000  1
  C  C1334  1  0.855000  0.300200  0.045000  1
  C  C1335  1  0.355000  0.199800  0.545000  1
  C  C1336  1  0.145000  0.699800  0.955000  1
  C  C1337  1  0.663700  0.767600  0.434800  1
  C  C1338  1  0.836300  0.267600  0.065200  1
  C  C1339  1  0.336300  0.232400  0.565200  1
  C  C1340  1  0.163700  0.732400  0.934800  1
  C  C1341  1  0.707000  0.775800  0.420100  1
  C  C1342  1  0.793000  0.275800  0.079900  1
  C  C1343  1  0.293000  0.224200  0.579900  1
  C  C1344  1  0.207000  0.724200  0.920100  1
  C  C1345  1  0.733300  0.818700  0.425600  1
  C  C1346  1  0.766700  0.318700  0.074400  1
  C  C1347  1  0.266700  0.181300  0.574400  1
  C  C1348  1  0.233300  0.681300  0.925600  1
  C  C1349  1  0.715600  0.850500  0.444600  1
  C  C1350  1  0.784400  0.350500  0.055400  1
  C  C1351  1  0.284400  0.149500  0.555400  1
  C  C1352  1  0.215600  0.649500  0.944600  1
  C  C1353  1  0.686000  0.714200  0.372700  1
  C  C1354  1  0.814000  0.214200  0.127300  1
  C  C1355  1  0.314000  0.285800  0.627300  1
  C  C1356  1  0.186000  0.785800  0.872700  1
  C  C1357  1  0.725300  0.740700  0.398600  1
  C  C1358  1  0.774700  0.240700  0.101400  1
  C  C1359  1  0.274700  0.259300  0.601400  1
  C  C1360  1  0.225300  0.759300  0.898600  1
  C  C1361  1  0.782000  0.732200  0.402900  1
  C  C1362  1  0.718000  0.232200  0.097100  1
  C  C1363  1  0.218000  0.267800  0.597100  1
  C  C1364  1  0.282000  0.767800  0.902900  1
  C  C1365  1  0.797500  0.698300  0.383100  1
  C  C1366  1  0.702500  0.198300  0.116900  1
  C  C1367  1  0.202500  0.301700  0.616900  1
  C  C1368  1  0.297500  0.801700  0.883100  1
  C  C1369  1  0.755600  0.673700  0.357600  1
  C  C1370  1  0.744400  0.173700  0.142400  1
  C  C1371  1  0.244400  0.326300  0.642400  1
  C  C1372  1  0.255600  0.826300  0.857600  1
  C  C1373  1  0.767100  0.638700  0.334000  1
  C  C1374  1  0.732900  0.138700  0.166000  1
  C  C1375  1  0.232900  0.361300  0.666000  1
  C  C1376  1  0.267100  0.861300  0.834000  1
  C  C1377  1  0.739200  0.585200  0.285900  1
  C  C1378  1  0.760800  0.085200  0.214100  1
  C  C1379  1  0.260800  0.414800  0.714100  1
  C  C1380  1  0.239200  0.914800  0.785900  1
  C  C1381  1  0.785700  0.557500  0.296700  1
  C  C1382  1  0.714300  0.057500  0.203300  1
  C  C1383  1  0.214300  0.442500  0.703300  1
  C  C1384  1  0.285700  0.942500  0.796700  1
  C  C1385  1  0.795200  0.527100  0.271200  1
  C  C1386  1  0.704800  0.027100  0.228800  1
  C  C1387  1  0.204800  0.472900  0.728800  1
  C  C1388  1  0.295200  0.972900  0.771200  1
  C  C1389  1  0.758400  0.524200  0.234900  1
  C  C1390  1  0.741600  0.024200  0.265100  1
  C  C1391  1  0.241600  0.475800  0.765100  1
  C  C1392  1  0.258400  0.975800  0.734900  1
  C  C1393  1  0.711600  0.551500  0.224400  1
  C  C1394  1  0.788400  0.051500  0.275600  1
  C  C1395  1  0.288400  0.448500  0.775600  1
  C  C1396  1  0.211600  0.948500  0.724400  1
  C  C1397  1  0.701900  0.581800  0.249700  1
  C  C1398  1  0.798100  0.081800  0.250300  1
  C  C1399  1  0.298100  0.418200  0.750300  1
  C  C1400  1  0.201900  0.918200  0.749700  1
  C  C1401  1  0.813400  0.467000  0.218200  1
  C  C1402  1  0.686600  0.967000  0.281800  1
  C  C1403  1  0.186600  0.533000  0.781800  1
  C  C1404  1  0.313400  0.033000  0.718200  1
  C  C1405  1  0.528000  0.772700  0.638400  1
  C  C1406  1  0.972000  0.272700  0.861600  1
  C  C1407  1  0.472000  0.227300  0.361600  1
  C  C1408  1  0.028000  0.727300  0.138400  1
  C  C1409  1  0.491400  0.764900  0.658500  1
  C  C1410  1  0.008600  0.264900  0.841500  1
  C  C1411  1  0.508600  0.235100  0.341500  1
  C  C1412  1  0.991400  0.735100  0.158500  1
  C  C1413  1  0.480400  0.798300  0.680400  1
  C  C1414  1  0.019600  0.298300  0.819600  1
  C  C1415  1  0.519600  0.201700  0.319600  1
  C  C1416  1  0.980400  0.701700  0.180400  1
  C  C1417  1  0.504500  0.839800  0.680300  1
  C  C1418  1  0.995500  0.339800  0.819700  1
  C  C1419  1  0.495500  0.160200  0.319700  1
  C  C1420  1  0.004500  0.660200  0.180300  1
  C  C1421  1  0.540600  0.847200  0.659700  1
  C  C1422  1  0.959400  0.347200  0.840300  1
  C  C1423  1  0.459400  0.152800  0.340300  1
  C  C1424  1  0.040600  0.652800  0.159700  1
  C  C1425  1  0.551400  0.814400  0.638700  1
  C  C1426  1  0.948600  0.314400  0.861300  1
  C  C1427  1  0.448600  0.185600  0.361300  1
  C  C1428  1  0.051400  0.685600  0.138700  1
  C  C1429  1  0.455500  0.867800  0.717100  1
  C  C1430  1  0.044500  0.367800  0.782900  1
  C  C1431  1  0.544500  0.132200  0.282900  1
  C  C1432  1  0.955500  0.632200  0.217100  1
  C  C1433  1  0.589100  0.731000  0.616100  1
  C  C1434  1  0.910900  0.231000  0.883900  1
  C  C1435  1  0.410900  0.269000  0.383900  1
  C  C1436  1  0.089100  0.769000  0.116100  1
  C  C1437  1  0.599500  0.697200  0.590720  1
  C  C1438  1  0.900500  0.197200  0.909280  1
  C  C1439  1  0.400500  0.302800  0.409280  1
  C  C1440  1  0.099500  0.802800  0.090720  1
  C  C1441  1  0.652400  0.681900  0.593600  1
  C  C1442  1  0.847600  0.181900  0.906400  1
  C  C1443  1  0.347600  0.318100  0.406400  1
  C  C1444  1  0.152400  0.818100  0.093600  1
  C  C1445  1  0.659800  0.649100  0.569500  1
  C  C1446  1  0.840200  0.149100  0.930500  1
  C  C1447  1  0.340200  0.350900  0.430500  1
  C  C1448  1  0.159800  0.850900  0.069500  1
  C  C1449  1  0.612300  0.631000  0.543550  1
  C  C1450  1  0.887700  0.131000  0.956450  1
  C  C1451  1  0.387700  0.369000  0.456450  1
  C  C1452  1  0.112300  0.869000  0.043550  1
  C  C1453  1  0.559800  0.648100  0.542620  1
  C  C1454  1  0.940200  0.148100  0.957380  1
  C  C1455  1  0.440200  0.351900  0.457380  1
  C  C1456  1  0.059800  0.851900  0.042620  1
  C  C1457  1  0.578700  0.595500  0.481260  1
  C  C1458  1  0.921300  0.095500  0.018740  1
  C  C1459  1  0.421300  0.404500  0.518740  1
  C  C1460  1  0.078700  0.904500  0.981260  1
  C  C1461  1  0.616200  0.595600  0.516870  1
  C  C1462  1  0.883800  0.095600  0.983130  1
  C  C1463  1  0.383800  0.404400  0.483130  1
  C  C1464  1  0.116200  0.904400  0.016870  1
  C  C1465  1  0.658400  0.562500  0.527000  1
  C  C1466  1  0.841600  0.062500  0.973000  1
  C  C1467  1  0.341600  0.437500  0.473000  1
  C  C1468  1  0.158400  0.937500  0.027000  1
  C  C1469  1  0.663000  0.531300  0.502000  1
  C  C1470  1  0.837000  0.031300  0.998000  1
  C  C1471  1  0.337000  0.468700  0.498000  1
  C  C1472  1  0.163000  0.968700  0.002000  1
  C  C1473  1  0.625900  0.530900  0.464700  1
  C  C1474  1  0.874100  0.030900  0.035300  1
  C  C1475  1  0.374100  0.469100  0.535300  1
  C  C1476  1  0.125900  0.969100  0.964700  1
  C  C1477  1  0.582400  0.563500  0.454420  1
  C  C1478  1  0.917600  0.063500  0.045580  1
  C  C1479  1  0.417600  0.436500  0.545580  1
  C  C1480  1  0.082400  0.936500  0.954420  1
  C  C1481  1  0.545700  0.564500  0.417470  1
  C  C1482  1  0.954300  0.064500  0.082530  1
  C  C1483  1  0.454300  0.435500  0.582530  1
  C  C1484  1  0.045700  0.935500  0.917470  1
  C  C1485  1  0.549700  0.533900  0.391100  1
  C  C1486  1  0.950300  0.033900  0.108900  1
  C  C1487  1  0.450300  0.466100  0.608900  1
  C  C1488  1  0.049700  0.966100  0.891100  1
  C  C1489  1  0.592600  0.500700  0.402000  1
  C  C1490  1  0.907400  0.000700  0.098000  1
  C  C1491  1  0.407400  0.499300  0.598000  1
  C  C1492  1  0.092600  0.999300  0.902000  1
  C  C1493  1  0.629400  0.500200  0.436600  1
  C  C1494  1  0.870600  0.000200  0.063400  1
  C  C1495  1  0.370600  0.499800  0.563400  1
  C  C1496  1  0.129400  0.999800  0.936600  1
  C  C1497  1  0.493400  0.578000  0.335300  1
  C  C1498  1  0.006600  0.078000  0.164700  1
  C  C1499  1  0.506600  0.422000  0.664700  1
  C  C1500  1  0.993400  0.922000  0.835300  1
  C  C1501  1  0.511600  0.536500  0.351850  1
  C  C1502  1  0.988400  0.036500  0.148150  1
  C  C1503  1  0.488400  0.463500  0.648150  1
  C  C1504  1  0.011600  0.963500  0.851850  1
  C  C1505  1  0.493800  0.499100  0.329900  1
  C  C1506  1  0.006200  0.999100  0.170100  1
  C  C1507  1  0.506200  0.500900  0.670100  1
  C  C1508  1  0.993800  0.000900  0.829900  1
  C  C1509  1  0.459900  0.503300  0.293200  1
  C  C1510  1  0.040100  0.003300  0.206800  1
  C  C1511  1  0.540100  0.496700  0.706800  1
  C  C1512  1  0.959900  0.996700  0.793200  1
  C  C1513  1  0.444900  0.545700  0.278850  1
  C  C1514  1  0.055100  0.045700  0.221150  1
  C  C1515  1  0.555100  0.454300  0.721150  1
  C  C1516  1  0.944900  0.954300  0.778850  1
  C  C1517  1  0.416300  0.553500  0.238800  1
  C  C1518  1  0.083700  0.053500  0.261200  1
  C  C1519  1  0.583700  0.446500  0.761200  1
  C  C1520  1  0.916300  0.946500  0.738800  1
  C  C1521  1  0.387300  0.600400  0.186330  1
  C  C1522  1  0.112700  0.100400  0.313670  1
  C  C1523  1  0.612700  0.399600  0.813670  1
  C  C1524  1  0.887300  0.899600  0.686330  1
  C  C1525  1  0.341300  0.576800  0.164100  1
  C  C1526  1  0.158700  0.076800  0.335900  1
  C  C1527  1  0.658700  0.423200  0.835900  1
  C  C1528  1  0.841300  0.923200  0.664100  1
  C  C1529  1  0.321100  0.584600  0.125800  1
  C  C1530  1  0.178900  0.084600  0.374200  1
  C  C1531  1  0.678900  0.415400  0.874200  1
  C  C1532  1  0.821100  0.915400  0.625800  1
  C  C1533  1  0.347700  0.615100  0.109500  1
  C  C1534  1  0.152300  0.115100  0.390500  1
  C  C1535  1  0.652300  0.384900  0.890500  1
  C  C1536  1  0.847700  0.884900  0.609500  1
  C  C1537  1  0.394400  0.638400  0.132000  1
  C  C1538  1  0.105600  0.138400  0.368000  1
  C  C1539  1  0.605600  0.361600  0.868000  1
  C  C1540  1  0.894400  0.861600  0.632000  1
  C  C1541  1  0.413900  0.631200  0.169800  1
  C  C1542  1  0.086100  0.131200  0.330200  1
  C  C1543  1  0.586100  0.368800  0.830200  1
  C  C1544  1  0.913900  0.868800  0.669800  1
  C  C1545  1  0.287800  0.598200  0.048000  1
  C  C1546  1  0.212200  0.098200  0.452000  1
  C  C1547  1  0.712200  0.401800  0.952000  1
  C  C1548  1  0.787800  0.901800  0.548000  1
  C  C1549  1  0.479200  0.636000  0.633670  1
  C  C1550  1  0.020800  0.136000  0.866330  1
  C  C1551  1  0.520800  0.364000  0.366330  1
  C  C1552  1  0.979200  0.864000  0.133670  1
  C  C1553  1  0.442800  0.624800  0.653750  1
  C  C1554  1  0.057200  0.124800  0.846250  1
  C  C1555  1  0.557200  0.375200  0.346250  1
  C  C1556  1  0.942800  0.875200  0.153750  1
  C  C1557  1  0.464700  0.613800  0.691390  1
  C  C1558  1  0.035300  0.113800  0.808610  1
  C  C1559  1  0.535300  0.386200  0.308610  1
  C  C1560  1  0.964700  0.886200  0.191390  1
  C  C1561  1  0.522000  0.613200  0.709150  1
  C  C1562  1  0.978000  0.113200  0.790850  1
  C  C1563  1  0.478000  0.386800  0.290850  1
  C  C1564  1  0.022000  0.886800  0.209150  1
  C  C1565  1  0.558100  0.624300  0.689060  1
  C  C1566  1  0.941900  0.124300  0.810940  1
  C  C1567  1  0.441900  0.375700  0.310940  1
  C  C1568  1  0.058100  0.875700  0.189060  1
  C  C1569  1  0.536500  0.635900  0.651570  1
  C  C1570  1  0.963500  0.135900  0.848430  1
  C  C1571  1  0.463500  0.364100  0.348430  1
  C  C1572  1  0.036500  0.864100  0.151570  1
  C  C1573  1  0.598700  0.601900  0.765500  1
  C  C1574  1  0.901300  0.101900  0.734500  1
  C  C1575  1  0.401300  0.398100  0.234500  1
  C  C1576  1  0.098700  0.898100  0.265500  1
  C  C1577  1  0.426600  0.621000  0.571430  1
  C  C1578  1  0.073400  0.121000  0.928570  1
  C  C1579  1  0.573400  0.379000  0.428570  1
  C  C1580  1  0.926600  0.879000  0.071430  1
  C  C1581  1  0.402100  0.633600  0.532030  1
  C  C1582  1  0.097900  0.133600  0.967970  1
  C  C1583  1  0.597900  0.366400  0.467970  1
  C  C1584  1  0.902100  0.866400  0.032030  1
  C  C1585  1  0.363400  0.607400  0.506900  1
  C  C1586  1  0.136600  0.107400  0.993100  1
  C  C1587  1  0.636600  0.392600  0.493100  1
  C  C1588  1  0.863400  0.892600  0.006900  1
  C  C1589  1  0.338700  0.622900  0.470400  1
  C  C1590  1  0.161300  0.122900  0.029600  1
  C  C1591  1  0.661300  0.377100  0.529600  1
  C  C1592  1  0.838700  0.877100  0.970400  1
  C  C1593  1  0.353600  0.664200  0.459910  1
  C  C1594  1  0.146400  0.164200  0.040090  1
  C  C1595  1  0.646400  0.335800  0.540090  1
  C  C1596  1  0.853600  0.835800  0.959910  1
  C  C1597  1  0.394900  0.687400  0.487260  1
  C  C1598  1  0.105100  0.187400  0.012740  1
  C  C1599  1  0.605100  0.312600  0.512740  1
  C  C1600  1  0.894900  0.812600  0.987260  1
  C  C1601  1  0.356800  0.708100  0.404700  1
  C  C1602  1  0.143200  0.208100  0.095300  1
  C  C1603  1  0.643200  0.291900  0.595300  1
  C  C1604  1  0.856800  0.791900  0.904700  1
  C  C1605  1  0.326200  0.683200  0.422310  1
  C  C1606  1  0.173800  0.183200  0.077690  1
  C  C1607  1  0.673800  0.316800  0.577690  1
  C  C1608  1  0.826200  0.816800  0.922310  1
  C  C1609  1  0.268700  0.675800  0.403600  1
  C  C1610  1  0.231300  0.175800  0.096400  1
  C  C1611  1  0.731300  0.324200  0.596400  1
  C  C1612  1  0.768700  0.824200  0.903600  1
  C  C1613  1  0.243500  0.692200  0.368700  1
  C  C1614  1  0.256500  0.192200  0.131300  1
  C  C1615  1  0.756500  0.307800  0.631300  1
  C  C1616  1  0.743500  0.807800  0.868700  1
  C  C1617  1  0.273900  0.717500  0.349650  1
  C  C1618  1  0.226100  0.217500  0.150350  1
  C  C1619  1  0.726100  0.282500  0.650350  1
  C  C1620  1  0.773900  0.782500  0.849650  1
  C  C1621  1  0.332300  0.725300  0.367960  1
  C  C1622  1  0.167700  0.225300  0.132040  1
  C  C1623  1  0.667700  0.274700  0.632040  1
  C  C1624  1  0.832300  0.774700  0.867960  1
  C  C1625  1  0.363100  0.750400  0.349240  1
  C  C1626  1  0.136900  0.250400  0.150760  1
  C  C1627  1  0.636900  0.249600  0.650760  1
  C  C1628  1  0.863100  0.749600  0.849240  1
  C  C1629  1  0.338900  0.767300  0.314050  1
  C  C1630  1  0.161100  0.267300  0.185950  1
  C  C1631  1  0.661100  0.232700  0.685950  1
  C  C1632  1  0.838900  0.732700  0.814050  1
  C  C1633  1  0.281000  0.759600  0.296400  1
  C  C1634  1  0.219000  0.259600  0.203600  1
  C  C1635  1  0.719000  0.240400  0.703600  1
  C  C1636  1  0.781000  0.740400  0.796400  1
  C  C1637  1  0.250300  0.734700  0.313270  1
  C  C1638  1  0.249700  0.234700  0.186730  1
  C  C1639  1  0.749700  0.265300  0.686730  1
  C  C1640  1  0.750300  0.765300  0.813270  1
  C  C1641  1  0.428800  0.783900  0.300300  1
  C  C1642  1  0.071200  0.283900  0.199700  1
  C  C1643  1  0.571200  0.216100  0.699700  1
  C  C1644  1  0.928800  0.716100  0.800300  1
  C  C1645  1  0.371900  0.794000  0.294610  1
  C  C1646  1  0.128100  0.294000  0.205390  1
  C  C1647  1  0.628100  0.206000  0.705390  1
  C  C1648  1  0.871900  0.706000  0.794610  1
  C  C1649  1  0.348100  0.827800  0.269600  1
  C  C1650  1  0.151900  0.327800  0.230400  1
  C  C1651  1  0.651900  0.172200  0.730400  1
  C  C1652  1  0.848100  0.672200  0.769600  1
  C  C1653  1  0.380400  0.850100  0.251700  1
  C  C1654  1  0.119600  0.350100  0.248300  1
  C  C1655  1  0.619600  0.149900  0.748300  1
  C  C1656  1  0.880400  0.649900  0.751700  1
  C  C1657  1  0.435800  0.838100  0.258300  1
  C  C1658  1  0.064200  0.338100  0.241700  1
  C  C1659  1  0.564200  0.161900  0.741700  1
  C  C1660  1  0.935800  0.661900  0.758300  1
  C  C1661  1  0.471900  0.857800  0.238100  1
  C  C1662  1  0.028100  0.357800  0.261900  1
  C  C1663  1  0.528100  0.142200  0.761900  1
  C  C1664  1  0.971900  0.642200  0.738100  1
  C  C1665  1  0.553600  0.859500  0.221500  1
  C  C1666  1  0.946400  0.359500  0.278500  1
  C  C1667  1  0.446400  0.140500  0.778500  1
  C  C1668  1  0.053600  0.640500  0.721500  1
  C  C1669  1  0.583200  0.828500  0.206700  1
  C  C1670  1  0.916800  0.328500  0.293300  1
  C  C1671  1  0.416800  0.171500  0.793300  1
  C  C1672  1  0.083200  0.671500  0.706700  1
  C  C1673  1  0.613100  0.842400  0.184000  1
  C  C1674  1  0.886900  0.342400  0.316000  1
  C  C1675  1  0.386900  0.157600  0.816000  1
  C  C1676  1  0.113100  0.657600  0.684000  1
  C  C1677  1  0.614700  0.887300  0.176300  1
  C  C1678  1  0.885300  0.387300  0.323700  1
  C  C1679  1  0.385300  0.112700  0.823700  1
  C  C1680  1  0.114700  0.612700  0.676300  1
  C  C1681  1  0.585900  0.918700  0.190100  1
  C  C1682  1  0.914100  0.418700  0.309900  1
  C  C1683  1  0.414100  0.081300  0.809900  1
  C  C1684  1  0.085900  0.581300  0.690100  1
  C  C1685  1  0.554200  0.903900  0.213000  1
  C  C1686  1  0.945800  0.403900  0.287000  1
  C  C1687  1  0.445800  0.096100  0.787000  1
  C  C1688  1  0.054200  0.596100  0.713000  1
  C  C1689  1  0.646700  0.943300  0.142100  1
  C  C1690  1  0.853300  0.443300  0.357900  1
  C  C1691  1  0.353300  0.056700  0.857900  1
  C  C1692  1  0.146700  0.556700  0.642100  1
  C  C1693  1  0.551600  0.861100  0.355700  1
  C  C1694  1  0.948400  0.361100  0.144300  1
  C  C1695  1  0.448400  0.138900  0.644300  1
  C  C1696  1  0.051600  0.638900  0.855700  1
  C  C1697  1  0.524900  0.833000  0.373700  1
  C  C1698  1  0.975100  0.333000  0.126300  1
  C  C1699  1  0.475100  0.167000  0.626300  1
  C  C1700  1  0.024900  0.667000  0.873700  1
  C  C1701  1  0.493100  0.851400  0.394500  1
  C  C1702  1  0.006900  0.351400  0.105500  1
  C  C1703  1  0.506900  0.148600  0.605500  1
  C  C1704  1  0.993100  0.648600  0.894500  1
  C  C1705  1  0.484800  0.895900  0.393800  1
  C  C1706  1  0.015200  0.395900  0.106200  1
  C  C1707  1  0.515200  0.104100  0.606200  1
  C  C1708  1  0.984800  0.604100  0.893800  1
  C  C1709  1  0.509200  0.925800  0.375600  1
  C  C1710  1  0.990800  0.425800  0.124400  1
  C  C1711  1  0.490800  0.074200  0.624400  1
  C  C1712  1  0.009200  0.574200  0.875600  1
  C  C1713  1  0.546700  0.905600  0.355500  1
  C  C1714  1  0.953300  0.405600  0.144500  1
  C  C1715  1  0.453300  0.094400  0.644500  1
  C  C1716  1  0.046700  0.594400  0.855500  1
  C  C1717  1  0.437100  0.957200  0.412800  1
  C  C1718  1  0.062900  0.457200  0.087200  1
  C  C1719  1  0.562900  0.042800  0.587200  1
  C  C1720  1  0.937100  0.542800  0.912800  1
  C  C1721  1  0.636300  0.853100  0.340000  1
  C  C1722  1  0.863700  0.353100  0.160000  1
  C  C1723  1  0.363700  0.146900  0.660000  1
  C  C1724  1  0.136300  0.646900  0.840000  1
  C  C1725  1  0.662100  0.832900  0.319000  1
  C  C1726  1  0.837900  0.332900  0.181000  1
  C  C1727  1  0.337900  0.167100  0.681000  1
  C  C1728  1  0.162100  0.667100  0.819000  1
  C  C1729  1  0.718900  0.838900  0.326800  1
  C  C1730  1  0.781100  0.338900  0.173200  1
  C  C1731  1  0.281100  0.161100  0.673200  1
  C  C1732  1  0.218900  0.661100  0.826800  1
  C  C1733  1  0.750000  0.809700  0.312800  1
  C  C1734  1  0.750000  0.309700  0.187200  1
  C  C1735  1  0.250000  0.190300  0.687200  1
  C  C1736  1  0.250000  0.690300  0.812800  1
  C  C1737  1  0.722800  0.774500  0.290500  1
  C  C1738  1  0.777200  0.274500  0.209500  1
  C  C1739  1  0.277200  0.225500  0.709500  1
  C  C1740  1  0.222800  0.725500  0.790500  1
  C  C1741  1  0.664900  0.771200  0.283800  1
  C  C1742  1  0.835100  0.271200  0.216200  1
  C  C1743  1  0.335100  0.228800  0.716200  1
  C  C1744  1  0.164900  0.728800  0.783800  1
  C  C1745  1  0.727200  0.722600  0.239410  1
  C  C1746  1  0.772800  0.222600  0.260590  1
  C  C1747  1  0.272800  0.277400  0.760590  1
  C  C1748  1  0.227200  0.777400  0.739410  1
  C  C1749  1  0.752200  0.740600  0.274600  1
  C  C1750  1  0.747800  0.240600  0.225400  1
  C  C1751  1  0.247800  0.259400  0.725400  1
  C  C1752  1  0.252200  0.759400  0.774600  1
  C  C1753  1  0.807000  0.726100  0.295200  1
  C  C1754  1  0.693000  0.226100  0.204800  1
  C  C1755  1  0.193000  0.273900  0.704800  1
  C  C1756  1  0.307000  0.773900  0.795200  1
  C  C1757  1  0.831600  0.692300  0.282800  1
  C  C1758  1  0.668400  0.192300  0.217200  1
  C  C1759  1  0.168400  0.307700  0.717200  1
  C  C1760  1  0.331600  0.807700  0.782800  1
  C  C1761  1  0.806100  0.672000  0.246900  1
  C  C1762  1  0.693900  0.172000  0.253100  1
  C  C1763  1  0.193900  0.328000  0.753100  1
  C  C1764  1  0.306100  0.828000  0.746900  1
  C  C1765  1  0.753300  0.688300  0.225100  1
  C  C1766  1  0.746700  0.188300  0.274900  1
  C  C1767  1  0.246700  0.311700  0.774900  1
  C  C1768  1  0.253300  0.811700  0.725100  1
  C  C1769  1  0.728000  0.669800  0.188940  1
  C  C1770  1  0.772000  0.169800  0.311060  1
  C  C1771  1  0.272000  0.330200  0.811060  1
  C  C1772  1  0.228000  0.830200  0.688940  1
  C  C1773  1  0.752000  0.636300  0.174360  1
  C  C1774  1  0.748000  0.136300  0.325640  1
  C  C1775  1  0.248000  0.363700  0.825640  1
  C  C1776  1  0.252000  0.863700  0.674360  1
  C  C1777  1  0.804200  0.618800  0.198000  1
  C  C1778  1  0.695800  0.118800  0.302000  1
  C  C1779  1  0.195800  0.381200  0.802000  1
  C  C1780  1  0.304200  0.881200  0.698000  1
  C  C1781  1  0.829800  0.636500  0.232300  1
  C  C1782  1  0.670200  0.136500  0.267700  1
  C  C1783  1  0.170200  0.363500  0.767700  1
  C  C1784  1  0.329800  0.863500  0.732300  1
  C  C1785  1  0.692000  0.648700  0.108360  1
  C  C1786  1  0.808000  0.148700  0.391640  1
  C  C1787  1  0.308000  0.351300  0.891640  1
  C  C1788  1  0.192000  0.851300  0.608360  1
  C  C1789  1  0.726100  0.619700  0.135770  1
  C  C1790  1  0.773900  0.119700  0.364230  1
  C  C1791  1  0.273900  0.380300  0.864230  1
  C  C1792  1  0.226100  0.880300  0.635770  1
  C  C1793  1  0.733100  0.577200  0.123600  1
  C  C1794  1  0.766900  0.077200  0.376400  1
  C  C1795  1  0.266900  0.422800  0.876400  1
  C  C1796  1  0.233100  0.922800  0.623600  1
  C  C1797  1  0.709800  0.565500  0.086300  1
  C  C1798  1  0.790200  0.065500  0.413700  1
  C  C1799  1  0.290200  0.434500  0.913700  1
  C  C1800  1  0.209800  0.934500  0.586300  1
  C  C1801  1  0.679400  0.596700  0.060770  1
  C  C1802  1  0.820600  0.096700  0.439230  1
  C  C1803  1  0.320600  0.403300  0.939230  1
  C  C1804  1  0.179400  0.903300  0.560770  1
  C  C1805  1  0.657200  0.589500  0.019920  1
  C  C1806  1  0.842800  0.089500  0.480080  1
  C  C1807  1  0.342800  0.410500  0.980080  1
  C  C1808  1  0.157200  0.910500  0.519920  1
  C  C1809  1  0.614500  0.616500  0.957970  1
  C  C1810  1  0.885500  0.116500  0.542030  1
  C  C1811  1  0.385500  0.383500  0.042030  1
  C  C1812  1  0.114500  0.883500  0.457970  1
  C  C1813  1  0.559800  0.626300  0.938040  1
  C  C1814  1  0.940200  0.126300  0.561960  1
  C  C1815  1  0.440200  0.373700  0.061960  1
  C  C1816  1  0.059800  0.873700  0.438040  1
  C  C1817  1  0.542400  0.628200  0.899300  1
  C  C1818  1  0.957600  0.128200  0.600700  1
  C  C1819  1  0.457600  0.371800  0.100700  1
  C  C1820  1  0.042400  0.871800  0.399300  1
  C  C1821  1  0.581600  0.620400  0.881100  1
  C  C1822  1  0.918400  0.120400  0.618900  1
  C  C1823  1  0.418400  0.379600  0.118900  1
  C  C1824  1  0.081600  0.879600  0.381100  1
  C  C1825  1  0.636000  0.608000  0.900900  1
  C  C1826  1  0.864000  0.108000  0.599100  1
  C  C1827  1  0.364000  0.392000  0.099100  1
  C  C1828  1  0.136000  0.892000  0.400900  1
  C  C1829  1  0.652900  0.606900  0.939800  1
  C  C1830  1  0.847100  0.106900  0.560200  1
  C  C1831  1  0.347100  0.393100  0.060200  1
  C  C1832  1  0.152900  0.893100  0.439800  1
  C  C1833  1  0.526900  0.654000  0.820800  1
  C  C1834  1  0.973100  0.154000  0.679200  1
  C  C1835  1  0.473100  0.346000  0.179200  1
  C  C1836  1  0.026900  0.846000  0.320800  1
  C  C1837  1  0.693600  0.596600  0.404850  1
  C  C1838  1  0.806400  0.096600  0.095150  1
  C  C1839  1  0.306400  0.403400  0.595150  1
  C  C1840  1  0.193600  0.903400  0.904850  1
  C  C1841  1  0.668900  0.629600  0.420600  1
  C  C1842  1  0.831100  0.129600  0.079400  1
  C  C1843  1  0.331100  0.370400  0.579400  1
  C  C1844  1  0.168900  0.870400  0.920600  1
  C  C1845  1  0.690500  0.640300  0.458100  1
  C  C1846  1  0.809500  0.140300  0.041900  1
  C  C1847  1  0.309500  0.359700  0.541900  1
  C  C1848  1  0.190500  0.859700  0.958100  1
  C  C1849  1  0.737900  0.618500  0.480500  1
  C  C1850  1  0.762100  0.118500  0.019500  1
  C  C1851  1  0.262100  0.381500  0.519500  1
  C  C1852  1  0.237900  0.881500  0.980500  1
  C  C1853  1  0.763600  0.586400  0.464600  1
  C  C1854  1  0.736400  0.086400  0.035400  1
  C  C1855  1  0.236400  0.413600  0.535400  1
  C  C1856  1  0.263600  0.913600  0.964600  1
  C  C1857  1  0.741500  0.575200  0.427200  1
  C  C1858  1  0.758500  0.075200  0.072800  1
  C  C1859  1  0.258500  0.424800  0.572800  1
  C  C1860  1  0.241500  0.924800  0.927200  1
  C  C1861  1  0.800900  0.607100  0.542700  1
  C  C1862  1  0.699100  0.107100  0.957300  1
  C  C1863  1  0.199100  0.392900  0.457300  1
  C  C1864  1  0.300900  0.892900  0.042700  1
  C  C1865  1  0.663900  0.546200  0.354300  1
  C  C1866  1  0.836100  0.046200  0.145700  1
  C  C1867  1  0.336100  0.453800  0.645700  1
  C  C1868  1  0.163900  0.953800  0.854300  1
  C  C1869  1  0.631900  0.536700  0.315150  1
  C  C1870  1  0.868100  0.036700  0.184850  1
  C  C1871  1  0.368100  0.463300  0.684850  1
  C  C1872  1  0.131900  0.963300  0.815150  1
  C  C1873  1  0.620200  0.494600  0.300800  1
  C  C1874  1  0.879800  0.994600  0.199200  1
  C  C1875  1  0.379800  0.505400  0.699200  1
  C  C1876  1  0.120200  0.005400  0.800800  1
  C  C1877  1  0.585400  0.488900  0.264600  1
  C  C1878  1  0.914600  0.988900  0.235400  1
  C  C1879  1  0.414600  0.511100  0.735400  1
  C  C1880  1  0.085400  0.011100  0.764600  1
  C  C1881  1  0.562000  0.525400  0.242840  1
  C  C1882  1  0.938000  0.025400  0.257160  1
  C  C1883  1  0.438000  0.474600  0.757160  1
  C  C1884  1  0.062000  0.974600  0.742840  1
  C  C1885  1  0.576100  0.567200  0.259310  1
  C  C1886  1  0.923900  0.067200  0.240690  1
  C  C1887  1  0.423900  0.432800  0.740690  1
  C  C1888  1  0.076100  0.932800  0.759310  1
  C  C1889  1  0.530200  0.552700  0.177150  1
  C  C1890  1  0.969800  0.052700  0.322850  1
  C  C1891  1  0.469800  0.447300  0.822850  1
  C  C1892  1  0.030200  0.947300  0.677150  1
  C  C1893  1  0.524700  0.522200  0.203450  1
  C  C1894  1  0.975300  0.022200  0.296550  1
  C  C1895  1  0.475300  0.477800  0.796550  1
  C  C1896  1  0.024700  0.977800  0.703450  1
  C  C1897  1  0.482500  0.488600  0.191800  1
  C  C1898  1  0.017500  0.988600  0.308200  1
  C  C1899  1  0.517500  0.511400  0.808200  1
  C  C1900  1  0.982500  0.011400  0.691800  1
  C  C1901  1  0.447400  0.487000  0.155900  1
  C  C1902  1  0.052600  0.987000  0.344100  1
  C  C1903  1  0.552600  0.513000  0.844100  1
  C  C1904  1  0.947400  0.013000  0.655900  1
  C  C1905  1  0.452200  0.518300  0.128360  1
  C  C1906  1  0.047800  0.018300  0.371640  1
  C  C1907  1  0.547800  0.481700  0.871640  1
  C  C1908  1  0.952200  0.981700  0.628360  1
  C  C1909  1  0.494900  0.550900  0.139400  1
  C  C1910  1  0.005100  0.050900  0.360600  1
  C  C1911  1  0.505100  0.449100  0.860600  1
  C  C1912  1  0.994900  0.949100  0.639400  1
  C  C1913  1  0.501800  0.582100  0.112570  1
  C  C1914  1  0.998200  0.082100  0.387430  1
  C  C1915  1  0.498200  0.417900  0.887430  1
  C  C1916  1  0.001800  0.917900  0.612570  1
  C  C1917  1  0.466600  0.580700  0.076170  1
  C  C1918  1  0.033400  0.080700  0.423830  1
  C  C1919  1  0.533400  0.419300  0.923830  1
  C  C1920  1  0.966600  0.919300  0.576170  1
  C  C1921  1  0.424000  0.547600  0.065500  1
  C  C1922  1  0.076000  0.047600  0.434500  1
  C  C1923  1  0.576000  0.452400  0.934500  1
  C  C1924  1  0.924000  0.952400  0.565500  1
  C  C1925  1  0.417100  0.518100  0.090800  1
  C  C1926  1  0.082900  0.018100  0.409200  1
  C  C1927  1  0.582900  0.481900  0.909200  1
  C  C1928  1  0.917100  0.981900  0.590800  1
  C  C1929  1  0.529500  0.627800  0.051380  1
  C  C1930  1  0.970500  0.127800  0.448620  1
  C  C1931  1  0.470500  0.372200  0.948620  1
  C  C1932  1  0.029500  0.872200  0.551380  1
  C  C1933  1  0.475200  0.614800  0.049560  1
  C  C1934  1  0.024800  0.114800  0.450440  1
  C  C1935  1  0.524800  0.385200  0.950440  1
  C  C1936  1  0.975200  0.885200  0.549560  1
  C  C1937  1  0.430900  0.635400  0.022700  1
  C  C1938  1  0.069100  0.135400  0.477300  1
  C  C1939  1  0.569100  0.364600  0.977300  1
  C  C1940  1  0.930900  0.864600  0.522700  1
  C  C1941  1  0.441900  0.667600  0.999180  1
  C  C1942  1  0.058100  0.167600  0.500820  1
  C  C1943  1  0.558100  0.332400  0.000820  1
  C  C1944  1  0.941900  0.832400  0.499180  1
  C  C1945  1  0.496800  0.678900  0.003250  1
  C  C1946  1  0.003200  0.178900  0.496750  1
  C  C1947  1  0.503200  0.321100  0.996750  1
  C  C1948  1  0.996800  0.821100  0.503250  1
  C  C1949  1  0.511900  0.711900  0.978950  1
  C  C1950  1  0.988100  0.211900  0.521050  1
  C  C1951  1  0.488100  0.288100  0.021050  1
  C  C1952  1  0.011900  0.788100  0.478950  1
  C  C1953  1  0.577500  0.750600  0.958080  1
  C  C1954  1  0.922500  0.250600  0.541920  1
  C  C1955  1  0.422500  0.249400  0.041920  1
  C  C1956  1  0.077500  0.749400  0.458080  1
  C  C1957  1  0.614700  0.740800  0.938740  1
  C  C1958  1  0.885300  0.240800  0.561260  1
  C  C1959  1  0.385300  0.259200  0.061260  1
  C  C1960  1  0.114700  0.759200  0.438740  1
  C  C1961  1  0.628400  0.773500  0.916800  1
  C  C1962  1  0.871600  0.273500  0.583200  1
  C  C1963  1  0.371600  0.226500  0.083200  1
  C  C1964  1  0.128400  0.726500  0.416800  1
  C  C1965  1  0.607100  0.815600  0.914800  1
  C  C1966  1  0.892900  0.315600  0.585200  1
  C  C1967  1  0.392900  0.184400  0.085200  1
  C  C1968  1  0.107100  0.684400  0.414800  1
  C  C1969  1  0.570200  0.826000  0.934500  1
  C  C1970  1  0.929800  0.326000  0.565500  1
  C  C1971  1  0.429800  0.174000  0.065500  1
  C  C1972  1  0.070200  0.674000  0.434500  1
  C  C1973  1  0.555400  0.792900  0.956200  1
  C  C1974  1  0.944600  0.292900  0.543800  1
  C  C1975  1  0.444600  0.207100  0.043800  1
  C  C1976  1  0.055400  0.707100  0.456200  1
  C  C1977  1  0.598600  0.888100  0.887600  1
  C  C1978  1  0.901400  0.388100  0.612400  1
  C  C1979  1  0.401400  0.111900  0.112400  1
  C  C1980  1  0.098600  0.611900  0.387600  1
  C  C1981  1  0.332600  0.617900  0.307500  1
  C  C1982  1  0.167400  0.117900  0.192500  1
  C  C1983  1  0.667400  0.382100  0.692500  1
  C  C1984  1  0.832600  0.882100  0.807500  1
  C  C1985  1  0.370100  0.618200  0.344000  1
  C  C1986  1  0.129900  0.118200  0.156000  1
  C  C1987  1  0.629900  0.381800  0.656000  1
  C  C1988  1  0.870100  0.881800  0.844000  1
  C  C1989  1  0.356300  0.596700  0.372000  1
  C  C1990  1  0.143700  0.096700  0.128000  1
  C  C1991  1  0.643700  0.403300  0.628000  1
  C  C1992  1  0.856300  0.903300  0.872000  1
  C  C1993  1  0.304900  0.574100  0.364900  1
  C  C1994  1  0.195100  0.074100  0.135100  1
  C  C1995  1  0.695100  0.425900  0.635100  1
  C  C1996  1  0.804900  0.925900  0.864900  1
  C  C1997  1  0.267900  0.573600  0.328700  1
  C  C1998  1  0.232100  0.073600  0.171300  1
  C  C1999  1  0.732100  0.426400  0.671300  1
  C  C2000  1  0.767900  0.926400  0.828700  1
  C  C2001  1  0.282500  0.594700  0.300100  1
  C  C2002  1  0.217500  0.094700  0.199900  1
  C  C2003  1  0.717500  0.405300  0.699900  1
  C  C2004  1  0.782500  0.905300  0.800100  1
  C  C2005  1  0.243100  0.532000  0.389500  1
  C  C2006  1  0.256900  0.032000  0.110500  1
  C  C2007  1  0.756900  0.468000  0.610500  1
  C  C2008  1  0.743100  0.968000  0.889500  1
  C  C2009  1  0.312100  0.665600  0.254900  1
  C  C2010  1  0.187900  0.165600  0.245100  1
  C  C2011  1  0.687900  0.334400  0.745100  1
  C  C2012  1  0.812100  0.834400  0.754900  1
  C  C2013  1  0.329400  0.694400  0.229300  1
  C  C2014  1  0.170600  0.194400  0.270700  1
  C  C2015  1  0.670600  0.305600  0.770700  1
  C  C2016  1  0.829400  0.805600  0.729300  1
  C  C2017  1  0.292700  0.722400  0.203900  1
  C  C2018  1  0.207300  0.222400  0.296100  1
  C  C2019  1  0.707300  0.277600  0.796100  1
  C  C2020  1  0.792700  0.777600  0.703900  1
  C  C2021  1  0.313200  0.751900  0.183000  1
  C  C2022  1  0.186800  0.251900  0.317000  1
  C  C2023  1  0.686800  0.248100  0.817000  1
  C  C2024  1  0.813200  0.748100  0.683000  1
  C  C2025  1  0.370300  0.751400  0.186200  1
  C  C2026  1  0.129700  0.251400  0.313800  1
  C  C2027  1  0.629700  0.248600  0.813800  1
  C  C2028  1  0.870300  0.748600  0.686200  1
  C  C2029  1  0.404700  0.722000  0.212080  1
  C  C2030  1  0.095300  0.222000  0.287920  1
  C  C2031  1  0.595300  0.278000  0.787920  1
  C  C2032  1  0.904700  0.778000  0.712080  1
  C  C2033  1  0.437900  0.769100  0.151020  1
  C  C2034  1  0.062100  0.269100  0.348980  1
  C  C2035  1  0.562100  0.230900  0.848980  1
  C  C2036  1  0.937900  0.730900  0.651020  1
  C  C2037  1  0.394400  0.782000  0.163760  1
  C  C2038  1  0.105600  0.282000  0.336240  1
  C  C2039  1  0.605600  0.218000  0.836240  1
  C  C2040  1  0.894400  0.718000  0.663760  1
  C  C2041  1  0.372200  0.826000  0.155300  1
  C  C2042  1  0.127800  0.326000  0.344700  1
  C  C2043  1  0.627800  0.174000  0.844700  1
  C  C2044  1  0.872200  0.674000  0.655300  1
  C  C2045  1  0.394300  0.854500  0.136100  1
  C  C2046  1  0.105700  0.354500  0.363900  1
  C  C2047  1  0.605700  0.145500  0.863900  1
  C  C2048  1  0.894300  0.645500  0.636100  1
  C  C2049  1  0.439100  0.842100  0.122400  1
  C  C2050  1  0.060900  0.342100  0.377600  1
  C  C2051  1  0.560900  0.157900  0.877600  1
  C  C2052  1  0.939100  0.657900  0.622400  1
  C  C2053  1  0.460600  0.797900  0.129640  1
  C  C2054  1  0.039400  0.297900  0.370360  1
  C  C2055  1  0.539400  0.202100  0.870360  1
  C  C2056  1  0.960600  0.702100  0.629640  1
  C  C2057  1  0.504900  0.784900  0.115800  1
  C  C2058  1  0.995100  0.284900  0.384200  1
  C  C2059  1  0.495100  0.215100  0.884200  1
  C  C2060  1  0.004900  0.715100  0.615800  1
  C  C2061  1  0.526800  0.813400  0.095230  1
  C  C2062  1  0.973200  0.313400  0.404770  1
  C  C2063  1  0.473200  0.186600  0.904770  1
  C  C2064  1  0.026800  0.686600  0.595230  1
  C  C2065  1  0.504600  0.857300  0.088200  1
  C  C2066  1  0.995400  0.357300  0.411800  1
  C  C2067  1  0.495400  0.142700  0.911800  1
  C  C2068  1  0.004600  0.642700  0.588200  1
  C  C2069  1  0.461600  0.870300  0.100800  1
  C  C2070  1  0.038400  0.370300  0.399200  1
  C  C2071  1  0.538400  0.129700  0.899200  1
  C  C2072  1  0.961600  0.629700  0.600800  1
  C  C2073  1  0.581100  0.755300  0.071520  1
  C  C2074  1  0.918900  0.255300  0.428480  1
  C  C2075  1  0.418900  0.244700  0.928480  1
  C  C2076  1  0.081100  0.744700  0.571520  1
  C  C2077  1  0.574000  0.799900  0.081060  1
  C  C2078  1  0.926000  0.299900  0.418940  1
  C  C2079  1  0.426000  0.200100  0.918940  1
  C  C2080  1  0.074000  0.700100  0.581060  1
  C  C2081  1  0.613100  0.830200  0.076700  1
  C  C2082  1  0.886900  0.330200  0.423300  1
  C  C2083  1  0.386900  0.169800  0.923300  1
  C  C2084  1  0.113100  0.669800  0.576700  1
  C  C2085  1  0.655400  0.816500  0.062400  1
  C  C2086  1  0.844600  0.316500  0.437600  1
  C  C2087  1  0.344600  0.183500  0.937600  1
  C  C2088  1  0.155400  0.683500  0.562400  1
  C  C2089  1  0.657900  0.772000  0.052990  1
  C  C2090  1  0.842100  0.272000  0.447010  1
  C  C2091  1  0.342100  0.228000  0.947010  1
  C  C2092  1  0.157900  0.728000  0.552990  1
  C  C2093  1  0.700300  0.755500  0.036580  1
  C  C2094  1  0.799700  0.255500  0.463420  1
  C  C2095  1  0.299700  0.244500  0.963420  1
  C  C2096  1  0.200300  0.744500  0.536580  1
  C  C2097  1  0.739900  0.701100  0.007790  1
  C  C2098  1  0.760100  0.201100  0.492210  1
  C  C2099  1  0.260100  0.298900  0.992210  1
  C  C2100  1  0.239900  0.798900  0.507790  1
  C  C2101  1  0.755800  0.726800  0.982170  1
  C  C2102  1  0.744200  0.226800  0.517830  1
  C  C2103  1  0.244200  0.273200  0.017830  1
  C  C2104  1  0.255800  0.773200  0.482170  1
  C  C2105  1  0.791900  0.710400  0.963700  1
  C  C2106  1  0.708100  0.210400  0.536300  1
  C  C2107  1  0.208100  0.289600  0.036300  1
  C  C2108  1  0.291900  0.789600  0.463700  1
  C  C2109  1  0.812500  0.667500  0.971200  1
  C  C2110  1  0.687500  0.167500  0.528800  1
  C  C2111  1  0.187500  0.332500  0.028800  1
  C  C2112  1  0.312500  0.832500  0.471200  1
  C  C2113  1  0.798600  0.641900  0.998100  1
  C  C2114  1  0.701400  0.141900  0.501900  1
  C  C2115  1  0.201400  0.358100  0.001900  1
  C  C2116  1  0.298600  0.858100  0.498100  1
  C  C2117  1  0.762100  0.658500  0.015900  1
  C  C2118  1  0.737900  0.158500  0.484100  1
  C  C2119  1  0.237900  0.341500  0.984100  1
  C  C2120  1  0.262100  0.841500  0.515900  1
  C  C2121  1  0.864800  0.672200  0.927500  1
  C  C2122  1  0.635200  0.172200  0.572500  1
  C  C2123  1  0.135200  0.327800  0.072500  1
  C  C2124  1  0.364800  0.827800  0.427500  1
  C  C2125  1  0.794600  0.379900  0.505800  1
  C  C2126  1  0.705400  0.879900  0.994200  1
  C  C2127  1  0.205400  0.620100  0.494200  1
  C  C2128  1  0.294600  0.120100  0.005800  1
  C  C2129  1  0.820100  0.420200  0.499300  1
  C  C2130  1  0.679900  0.920200  0.000700  1
  C  C2131  1  0.179900  0.579800  0.500700  1
  C  C2132  1  0.320100  0.079800  0.999300  1
  C  C2133  1  0.547500  0.497600  0.043700  1
  C  C2134  1  0.952500  0.997600  0.456300  1
  C  C2135  1  0.452500  0.502400  0.956300  1
  C  C2136  1  0.047500  0.002400  0.543700  1
  C  C2137  1  0.520700  0.460200  0.054800  1
  C  C2138  1  0.979300  0.960200  0.445200  1
  C  C2139  1  0.479300  0.539800  0.945200  1
  C  C2140  1  0.020700  0.039800  0.554800  1
  C  C2141  1  0.569100  0.972400  0.040600  1
  C  C2142  1  0.930900  0.472400  0.459400  1
  C  C2143  1  0.430900  0.027600  0.959400  1
  C  C2144  1  0.069100  0.527600  0.540600  1
  C  C2145  1  0.608700  0.014100  0.044500  1
  C  C2146  1  0.891300  0.514100  0.455500  1
  C  C2147  1  0.391300  0.985900  0.955500  1
  C  C2148  1  0.108700  0.485900  0.544500  1
  C  C2149  1  0.956500  0.534900  0.278600  1
  C  C2150  1  0.543500  0.034900  0.221400  1
  C  C2151  1  0.043500  0.465100  0.721400  1
  C  C2152  1  0.456500  0.965100  0.778600  1
  C  C2153  1  0.979700  0.566300  0.307100  1
  C  C2154  1  0.520300  0.066300  0.192900  1
  C  C2155  1  0.020300  0.433700  0.692900  1
  C  C2156  1  0.479700  0.933700  0.807100  1
  C  C2157  1  0.617500  0.074200  0.394500  1
  C  C2158  1  0.882500  0.574200  0.105500  1
  C  C2159  1  0.382500  0.925800  0.605500  1
  C  C2160  1  0.117500  0.425800  0.894500  1
  C  C2161  1  0.629500  0.030700  0.381100  1
  C  C2162  1  0.870500  0.530700  0.118900  1
  C  C2163  1  0.370500  0.969300  0.618900  1
  C  C2164  1  0.129500  0.469300  0.881100  1
  C  C2165  1  0.286500  0.478700  0.261100  1
  C  C2166  1  0.213500  0.978700  0.238900  1
  C  C2167  1  0.713500  0.521300  0.738900  1
  C  C2168  1  0.786500  0.021300  0.761100  1
  C  C2169  1  0.244100  0.461400  0.273100  1
  C  C2170  1  0.255900  0.961400  0.226900  1
  C  C2171  1  0.755900  0.538600  0.726900  1
  C  C2172  1  0.744100  0.038600  0.773100  1
  C  C2173  1  0.083400  0.494900  0.427700  1
  C  C2174  1  0.416600  0.994900  0.072300  1
  C  C2175  1  0.916600  0.505100  0.572300  1
  C  C2176  1  0.583400  0.005100  0.927700  1
  C  C2177  1  0.031700  0.494500  0.396400  1
  C  C2178  1  0.468300  0.994500  0.103600  1
  C  C2179  1  0.968300  0.505500  0.603600  1
  C  C2180  1  0.531700  0.005500  0.896400  1
  C  C2181  1  0.078100  0.360200  0.518200  1
  C  C2182  1  0.421900  0.860200  0.981800  1
  C  C2183  1  0.921900  0.639800  0.481800  1
  C  C2184  1  0.578100  0.139800  0.018200  1
  C  C2185  1  0.085900  0.315000  0.504600  1
  C  C2186  1  0.414100  0.815000  0.995400  1
  C  C2187  1  0.914100  0.685000  0.495400  1
  C  C2188  1  0.585900  0.185000  0.004600  1
  C  C2189  1  0.131000  0.273300  0.466600  1
  C  C2190  1  0.369000  0.773300  0.033400  1
  C  C2191  1  0.869000  0.726700  0.533400  1
  C  C2192  1  0.631000  0.226700  0.966600  1
  C  C2193  1  0.175000  0.249500  0.492400  1
  C  C2194  1  0.325000  0.749500  0.007600  1
  C  C2195  1  0.825000  0.750500  0.507600  1
  C  C2196  1  0.675000  0.250500  0.992400  1
  C  C2197  1  0.721700  0.397500  0.265800  1
  C  C2198  1  0.778300  0.897500  0.234200  1
  C  C2199  1  0.278300  0.602500  0.734200  1
  C  C2200  1  0.221700  0.102500  0.765800  1
  C  C2201  1  0.667100  0.374900  0.255100  1
  C  C2202  1  0.832900  0.874900  0.244900  1
  C  C2203  1  0.332900  0.625100  0.744900  1
  C  C2204  1  0.167100  0.125100  0.755100  1
  C  C2205  1  0.614300  0.307100  0.240200  1
  C  C2206  1  0.885700  0.807100  0.259800  1
  C  C2207  1  0.385700  0.692900  0.759800  1
  C  C2208  1  0.114300  0.192900  0.740200  1
  C  C2209  1  0.610700  0.280400  0.270700  1
  C  C2210  1  0.889300  0.780400  0.229300  1
  C  C2211  1  0.389300  0.719600  0.729300  1
  C  C2212  1  0.110700  0.219600  0.770700  1
  C  C2213  1  0.272400  0.205600  0.422500  1
  C  C2214  1  0.227600  0.705600  0.077500  1
  C  C2215  1  0.727600  0.794400  0.577500  1
  C  C2216  1  0.772400  0.294400  0.922500  1
  C  C2217  1  0.318200  0.182000  0.413000  1
  C  C2218  1  0.181800  0.682000  0.087000  1
  C  C2219  1  0.681800  0.818000  0.587000  1
  C  C2220  1  0.818200  0.318000  0.913000  1
  C  C2221  1  0.362100  0.111400  0.413200  1
  C  C2222  1  0.137900  0.611400  0.086800  1
  C  C2223  1  0.637900  0.888600  0.586800  1
  C  C2224  1  0.862100  0.388600  0.913200  1
  C  C2225  1  0.354600  0.064900  0.417000  1
  C  C2226  1  0.145400  0.564900  0.083000  1
  C  C2227  1  0.645400  0.935100  0.583000  1
  C  C2228  1  0.854600  0.435100  0.917000  1
  C  C2229  1  0.256600  0.469400  0.142200  1
  C  C2230  1  0.243400  0.969400  0.357800  1
  C  C2231  1  0.743400  0.530600  0.857800  1
  C  C2232  1  0.756600  0.030600  0.642200  1
  C  C2233  1  0.243100  0.427400  0.160000  1
  C  C2234  1  0.256900  0.927400  0.340000  1
  C  C2235  1  0.756900  0.572600  0.840000  1
  C  C2236  1  0.743100  0.072600  0.660000  1
  C  C2237  1  0.271000  0.348200  0.161500  1
  C  C2238  1  0.229000  0.848200  0.338500  1
  C  C2239  1  0.729000  0.651800  0.838500  1
  C  C2240  1  0.771000  0.151800  0.661500  1
  C  C2241  1  0.307800  0.321200  0.147800  1
  C  C2242  1  0.192200  0.821200  0.352200  1
  C  C2243  1  0.692200  0.678800  0.852200  1
  C  C2244  1  0.807800  0.178800  0.647800  1
  C  C2245  1  0.167800  0.070000  0.556200  1
  C  C2246  1  0.332200  0.570000  0.943800  1
  C  C2247  1  0.832200  0.930000  0.443800  1
  C  C2248  1  0.667800  0.430000  0.056200  1
  C  C2249  1  0.190000  0.067300  0.597600  1
  C  C2250  1  0.310000  0.567300  0.902400  1
  C  C2251  1  0.810000  0.932700  0.402400  1
  C  C2252  1  0.690000  0.432700  0.097600  1
  C  C2253  1  0.159900  0.060900  0.653200  1
  C  C2254  1  0.340100  0.560900  0.846800  1
  C  C2255  1  0.840100  0.939100  0.346800  1
  C  C2256  1  0.659900  0.439100  0.153200  1
  C  C2257  1  0.112600  0.041000  0.660700  1
  C  C2258  1  0.387400  0.541000  0.839300  1
  C  C2259  1  0.887400  0.959000  0.339300  1
  C  C2260  1  0.612600  0.459000  0.160700  1
  C  C2261  1  0.378100  0.125600  0.217200  1
  C  C2262  1  0.121900  0.625600  0.282800  1
  C  C2263  1  0.621900  0.874400  0.782800  1
  C  C2264  1  0.878100  0.374400  0.717200  1
  C  C2265  1  0.360000  0.156600  0.242300  1
  C  C2266  1  0.140000  0.656600  0.257700  1
  C  C2267  1  0.640000  0.843400  0.757700  1
  C  C2268  1  0.860000  0.343400  0.742300  1
  C  C2269  1  0.375200  0.232000  0.266700  1
  C  C2270  1  0.124800  0.732000  0.233300  1
  C  C2271  1  0.624800  0.768000  0.733300  1
  C  C2272  1  0.875200  0.268000  0.766700  1
  C  C2273  1  0.398700  0.273400  0.255000  1
  C  C2274  1  0.101300  0.773400  0.245000  1
  C  C2275  1  0.601300  0.726600  0.745000  1
  C  C2276  1  0.898700  0.226600  0.755000  1
  C  C2277  1  0.524200  0.901800  0.317700  1
  C  C2278  1  0.975800  0.401800  0.182300  1
  C  C2279  1  0.475800  0.098200  0.682300  1
  C  C2280  1  0.024200  0.598200  0.817700  1
  C  C2281  1  0.526900  0.941600  0.300200  1
  C  C2282  1  0.973100  0.441600  0.199800  1
  C  C2283  1  0.473100  0.058400  0.699800  1
  C  C2284  1  0.026900  0.558400  0.800200  1
  C  C2285  1  0.483300  0.973100  0.293700  1
  C  C2286  1  0.016700  0.473100  0.206300  1
  C  C2287  1  0.516700  0.026900  0.706300  1
  C  C2288  1  0.983300  0.526900  0.793700  1
  C  C2289  1  0.438900  0.963600  0.305800  1
  C  C2290  1  0.061100  0.463600  0.194200  1
  C  C2291  1  0.561100  0.036400  0.694200  1
  C  C2292  1  0.938900  0.536400  0.805800  1
  C  C2293  1  0.434000  0.924400  0.324800  1
  C  C2294  1  0.066000  0.424400  0.175200  1
  C  C2295  1  0.566000  0.075600  0.675200  1
  C  C2296  1  0.934000  0.575600  0.824800  1
  C  C2297  1  0.478700  0.890200  0.328400  1
  C  C2298  1  0.021300  0.390200  0.171600  1
  C  C2299  1  0.521300  0.109800  0.671600  1
  C  C2300  1  0.978700  0.609800  0.828400  1
  C  C2301  1  0.394000  0.032600  0.282800  1
  C  C2302  1  0.106000  0.532600  0.217200  1
  C  C2303  1  0.606000  0.967400  0.717200  1
  C  C2304  1  0.894000  0.467400  0.782800  1
  C  C2305  1  0.618000  0.872600  0.327600  1
  C  C2306  1  0.882000  0.372600  0.172400  1
  C  C2307  1  0.382000  0.127400  0.672400  1
  C  C2308  1  0.118000  0.627400  0.827600  1
  C  C2309  1  0.587600  0.921200  0.408900  1
  C  C2310  1  0.912400  0.421200  0.091100  1
  C  C2311  1  0.412400  0.078800  0.591100  1
  C  C2312  1  0.087600  0.578800  0.908900  1
  C  C2313  1  0.531200  0.927200  0.413000  1
  C  C2314  1  0.968800  0.427200  0.087000  1
  C  C2315  1  0.468800  0.072800  0.587000  1
  C  C2316  1  0.031200  0.572800  0.913000  1
  C  C2317  1  0.459900  0.986400  0.407100  1
  C  C2318  1  0.040100  0.486400  0.092900  1
  C  C2319  1  0.540100  0.013600  0.592900  1
  C  C2320  1  0.959900  0.513600  0.907100  1
  C  C2321  1  0.454800  0.033000  0.395800  1
  C  C2322  1  0.045200  0.533000  0.104200  1
  C  C2323  1  0.545200  0.967000  0.604200  1
  C  C2324  1  0.954800  0.467000  0.895800  1
  C  C2325  1  0.509600  0.630600  0.821300  1
  C  C2326  1  0.990400  0.130600  0.678700  1
  C  C2327  1  0.490400  0.369400  0.178700  1
  C  C2328  1  0.009600  0.869400  0.321300  1
  C  C2329  1  0.464000  0.967000  0.521700  1
  C  C2330  1  0.036000  0.467000  0.978300  1
  C  C2331  1  0.536000  0.033000  0.478300  1
  C  C2332  1  0.964000  0.533000  0.021700  1
  C  C2333  1  0.512000  0.960000  0.507200  1
  C  C2334  1  0.988000  0.460000  0.992800  1
  C  C2335  1  0.488000  0.040000  0.492800  1
  C  C2336  1  0.012000  0.540000  0.007200  1
  C  C2337  1  0.427300  0.006800  0.498200  1
  C  C2338  1  0.072700  0.506800  0.001800  1
  C  C2339  1  0.572700  0.993200  0.501800  1
  C  C2340  1  0.927300  0.493200  0.998200  1
  C  C2341  1  0.407000  0.962900  0.502200  1
  C  C2342  1  0.093000  0.462900  0.997800  1
  C  C2343  1  0.593000  0.037100  0.497800  1
  C  C2344  1  0.907000  0.537100  0.002200  1
  C  C2345  1  0.569900  0.083800  0.400800  1
  C  C2346  1  0.930100  0.583800  0.099200  1
  C  C2347  1  0.430100  0.916200  0.599200  1
  C  C2348  1  0.069900  0.416200  0.900800  1
  C  C2349  1  0.579500  0.039700  0.387400  1
  C  C2350  1  0.920500  0.539700  0.112600  1
  C  C2351  1  0.420500  0.960300  0.612600  1
  C  C2352  1  0.079500  0.460300  0.887400  1
  C  C2353  1  0.266000  0.473000  0.235200  1
  C  C2354  1  0.234000  0.973000  0.264800  1
  C  C2355  1  0.734000  0.527000  0.764800  1
  C  C2356  1  0.766000  0.027000  0.735200  1
  C  C2357  1  0.224500  0.452700  0.246800  1
  C  C2358  1  0.275500  0.952700  0.253200  1
  C  C2359  1  0.775500  0.547300  0.753200  1
  C  C2360  1  0.724500  0.047300  0.746800  1
  C  C2361  1  0.128000  0.499000  0.438000  1
  C  C2362  1  0.372000  0.999000  0.062000  1
  C  C2363  1  0.872000  0.501000  0.562000  1
  C  C2364  1  0.628000  0.001000  0.938000  1
  C  C2365  1  0.072000  0.488000  0.439000  1
  C  C2366  1  0.428000  0.988000  0.061000  1
  C  C2367  1  0.928000  0.512000  0.561000  1
  C  C2368  1  0.572000  0.012000  0.939000  1
  C  C2369  1  0.134000  0.232200  0.448700  1
  C  C2370  1  0.366000  0.732200  0.051300  1
  C  C2371  1  0.866000  0.767800  0.551300  1
  C  C2372  1  0.634000  0.267800  0.948700  1
  C  C2373  1  0.295200  0.192300  0.407400  1
  C  C2374  1  0.204800  0.692300  0.092600  1
  C  C2375  1  0.704800  0.807700  0.592600  1
  C  C2376  1  0.795200  0.307700  0.907400  1
  C  C2377  1  0.270400  0.213400  0.435000  1
  C  C2378  1  0.229600  0.713400  0.065000  1
  C  C2379  1  0.729600  0.786600  0.565000  1
  C  C2380  1  0.770400  0.286600  0.935000  1
  C  C2381  1  0.324600  0.119800  0.388500  1
  C  C2382  1  0.175400  0.619800  0.111500  1
  C  C2383  1  0.675400  0.880200  0.611500  1
  C  C2384  1  0.824600  0.380200  0.888500  1
  C  C2385  1  0.308300  0.124800  0.348200  1
  C  C2386  1  0.191700  0.624800  0.151800  1
  C  C2387  1  0.691700  0.875200  0.651800  1
  C  C2388  1  0.808300  0.375200  0.848200  1
  C  C2389  1  0.224000  0.498200  0.136600  1
  C  C2390  1  0.276000  0.998200  0.363400  1
  C  C2391  1  0.776000  0.501800  0.863400  1
  C  C2392  1  0.724000  0.001800  0.636600  1
  C  C2393  1  0.233900  0.458900  0.115700  1
  C  C2394  1  0.266100  0.958900  0.384300  1
  C  C2395  1  0.766100  0.541100  0.884300  1
  C  C2396  1  0.733900  0.041100  0.615700  1
  C  C2397  1  0.207400  0.397100  0.154600  1
  C  C2398  1  0.292600  0.897100  0.345400  1
  C  C2399  1  0.792600  0.602900  0.845400  1
  C  C2400  1  0.707400  0.102900  0.654600  1
  C  C2401  1  0.263000  0.359600  0.170900  1
  C  C2402  1  0.237000  0.859600  0.329100  1
  C  C2403  1  0.737000  0.640400  0.829100  1
  C  C2404  1  0.763000  0.140400  0.670900  1
  C  C2405  1  0.242100  0.052600  0.602100  1
  C  C2406  1  0.257900  0.552600  0.897900  1
  C  C2407  1  0.757900  0.947400  0.397900  1
  C  C2408  1  0.742100  0.447400  0.102100  1
  C  C2409  1  0.190400  0.058200  0.573900  1
  C  C2410  1  0.309600  0.558200  0.926100  1
  C  C2411  1  0.809600  0.941800  0.426100  1
  C  C2412  1  0.690400  0.441800  0.073900  1
  C  C2413  1  0.132400  0.016600  0.647000  1
  C  C2414  1  0.367600  0.516600  0.853000  1
  C  C2415  1  0.867600  0.983400  0.353000  1
  C  C2416  1  0.632400  0.483400  0.147000  1
  C  C2417  1  0.120700  0.987700  0.626900  1
  C  C2418  1  0.379300  0.487700  0.873100  1
  C  C2419  1  0.879300  0.012300  0.373100  1
  C  C2420  1  0.620700  0.512300  0.126900  1
  C  C2421  1  0.377700  0.469000  0.369300  1
  C  C2422  1  0.122300  0.969000  0.130700  1
  C  C2423  1  0.622300  0.531000  0.630700  1
  C  C2424  1  0.877700  0.031000  0.869300  1
  C  C2425  1  0.428300  0.458000  0.399600  1
  C  C2426  1  0.071700  0.958000  0.100400  1
  C  C2427  1  0.571700  0.542000  0.600400  1
  C  C2428  1  0.928300  0.042000  0.899600  1
  C  C2429  1  0.474700  0.482900  0.460200  1
  C  C2430  1  0.025300  0.982900  0.039800  1
  C  C2431  1  0.525300  0.517100  0.539800  1
  C  C2432  1  0.974700  0.017100  0.960200  1
  C  C2433  1  0.476500  0.516300  0.488400  1
  C  C2434  1  0.023500  0.016300  0.011600  1
  C  C2435  1  0.523500  0.483700  0.511600  1
  C  C2436  1  0.976500  0.983700  0.988400  1
  C  C2437  1  0.445900  0.518300  0.459600  1
  C  C2438  1  0.054100  0.018300  0.040400  1
  C  C2439  1  0.554100  0.481700  0.540400  1
  C  C2440  1  0.945900  0.981700  0.959600  1
  C  C2441  1  0.452200  0.478400  0.436600  1
  C  C2442  1  0.047800  0.978400  0.063400  1
  C  C2443  1  0.547800  0.521600  0.563400  1
  C  C2444  1  0.952200  0.021600  0.936600  1
  C  C2445  1  0.397900  0.450300  0.372900  1
  C  C2446  1  0.102100  0.950300  0.127100  1
  C  C2447  1  0.602100  0.549700  0.627100  1
  C  C2448  1  0.897900  0.049700  0.872900  1
  C  C2449  1  0.358100  0.472600  0.340200  1
  C  C2450  1  0.141900  0.972600  0.159800  1
  C  C2451  1  0.641900  0.527400  0.659800  1
  C  C2452  1  0.858100  0.027400  0.840200  1
  C  C2453  1  0.381400  0.263700  0.270400  1
  C  C2454  1  0.118600  0.763700  0.229600  1
  C  C2455  1  0.618600  0.736300  0.729600  1
  C  C2456  1  0.881400  0.236300  0.770400  1
  C  C2457  1  0.362300  0.215700  0.268800  1
  C  C2458  1  0.137700  0.715700  0.231200  1
  C  C2459  1  0.637700  0.784300  0.731200  1
  C  C2460  1  0.862300  0.284300  0.768800  1
  C  C2461  1  0.363900  0.146100  0.235000  1
  C  C2462  1  0.136100  0.646100  0.265000  1
  C  C2463  1  0.636100  0.853900  0.765000  1
  C  C2464  1  0.863900  0.353900  0.735000  1
  C  C2465  1  0.398400  0.132500  0.206700  1
  C  C2466  1  0.101600  0.632500  0.293300  1
  C  C2467  1  0.601600  0.867500  0.793300  1
  C  C2468  1  0.898400  0.367500  0.706700  1
  S  S2469  1  0.531140  0.688310  0.301930  1
  S  S2470  1  0.968860  0.188310  0.198070  1
  S  S2471  1  0.468860  0.311690  0.698070  1
  S  S2472  1  0.031140  0.811690  0.801930  1
  S  S2473  1  0.549700  0.688800  0.284300  1
  S  S2474  1  0.950300  0.188800  0.215700  1
  S  S2475  1  0.450300  0.311200  0.715700  1
  S  S2476  1  0.049700  0.811200  0.784300  1
  N  N2477  1  0.407500  0.754730  0.571390  1
  N  N2478  1  0.092500  0.254730  0.928610  1
  N  N2479  1  0.592500  0.245270  0.428610  1
  N  N2480  1  0.907500  0.745270  0.071390  1
  N  N2481  1  0.485900  0.767640  0.535140  1
  N  N2482  1  0.014100  0.267640  0.964860  1
  N  N2483  1  0.514100  0.232360  0.464860  1
  N  N2484  1  0.985900  0.732360  0.035140  1
  N  N2485  1  0.700600  0.682000  0.353340  1
  N  N2486  1  0.799400  0.182000  0.146660  1
  N  N2487  1  0.299400  0.318000  0.646660  1
  N  N2488  1  0.200600  0.818000  0.853340  1
  N  N2489  1  0.727500  0.618500  0.310330  1
  N  N2490  1  0.772500  0.118500  0.189670  1
  N  N2491  1  0.272500  0.381500  0.689670  1
  N  N2492  1  0.227500  0.881500  0.810330  1
  N  N2493  1  0.537900  0.738900  0.615060  1
  N  N2494  1  0.962100  0.238900  0.884940  1
  N  N2495  1  0.462100  0.261100  0.384940  1
  N  N2496  1  0.037900  0.761100  0.115060  1
  N  N2497  1  0.552700  0.680620  0.564840  1
  N  N2498  1  0.947300  0.180620  0.935160  1
  N  N2499  1  0.447300  0.319380  0.435160  1
  N  N2500  1  0.052700  0.819380  0.064840  1
  N  N2501  1  0.460800  0.582500  0.300020  1
  N  N2502  1  0.039200  0.082500  0.199980  1
  N  N2503  1  0.539200  0.417500  0.699980  1
  N  N2504  1  0.960800  0.917500  0.800020  1
  N  N2505  1  0.411400  0.593200  0.225740  1
  N  N2506  1  0.088600  0.093200  0.274260  1
  N  N2507  1  0.588600  0.406800  0.774260  1
  N  N2508  1  0.911400  0.906800  0.725740  1
  N  N2509  1  0.458200  0.648160  0.594750  1
  N  N2510  1  0.041800  0.148160  0.905250  1
  N  N2511  1  0.541800  0.351840  0.405250  1
  N  N2512  1  0.958200  0.851840  0.094750  1
  N  N2513  1  0.418000  0.673270  0.521890  1
  N  N2514  1  0.082000  0.173270  0.978110  1
  N  N2515  1  0.582000  0.326730  0.478110  1
  N  N2516  1  0.918000  0.826730  0.021890  1
  N  N2517  1  0.459900  0.805370  0.282750  1
  N  N2518  1  0.040100  0.305370  0.217250  1
  N  N2519  1  0.540100  0.194630  0.717250  1
  N  N2520  1  0.959900  0.694630  0.782750  1
  N  N2521  1  0.520400  0.842100  0.242750  1
  N  N2522  1  0.979600  0.342100  0.257250  1
  N  N2523  1  0.479600  0.157900  0.757250  1
  N  N2524  1  0.020400  0.657900  0.742750  1
  N  N2525  1  0.584700  0.841100  0.335600  1
  N  N2526  1  0.915300  0.341100  0.164400  1
  N  N2527  1  0.415300  0.158900  0.664400  1
  N  N2528  1  0.084700  0.658900  0.835600  1
  N  N2529  1  0.634700  0.798700  0.297400  1
  N  N2530  1  0.865300  0.298700  0.202600  1
  N  N2531  1  0.365300  0.201300  0.702600  1
  N  N2532  1  0.134700  0.701300  0.797400  1
  N  N2533  1  0.669600  0.637540  0.072680  1
  N  N2534  1  0.830400  0.137540  0.427320  1
  N  N2535  1  0.330400  0.362460  0.927320  1
  N  N2536  1  0.169600  0.862460  0.572680  1
  N  N2537  1  0.632300  0.620200  0.999030  1
  N  N2538  1  0.867700  0.120200  0.500970  1
  N  N2539  1  0.367700  0.379800  0.000970  1
  N  N2540  1  0.132300  0.879800  0.499030  1
  N  N2541  1  0.667200  0.586110  0.366480  1
  N  N2542  1  0.832800  0.086110  0.133520  1
  N  N2543  1  0.332800  0.413890  0.633520  1
  N  N2544  1  0.167200  0.913890  0.866480  1
  N  N2545  1  0.609800  0.573810  0.294030  1
  N  N2546  1  0.890200  0.073810  0.205970  1
  N  N2547  1  0.390200  0.426190  0.705970  1
  N  N2548  1  0.109800  0.926190  0.794030  1
  N  N2549  1  0.540500  0.659220  0.029210  1
  N  N2550  1  0.959500  0.159220  0.470790  1
  N  N2551  1  0.459500  0.340780  0.970790  1
  N  N2552  1  0.040500  0.840780  0.529210  1
  N  N2553  1  0.563500  0.716750  0.980780  1
  N  N2554  1  0.936500  0.216750  0.519220  1
  N  N2555  1  0.436500  0.283250  0.019220  1
  N  N2556  1  0.063500  0.783250  0.480780  1
  N  N2557  1  0.348800  0.642800  0.279980  1
  N  N2558  1  0.151200  0.142800  0.220020  1
  N  N2559  1  0.651200  0.357200  0.720020  1
  N  N2560  1  0.848800  0.857200  0.779980  1
  N  N2561  1  0.385100  0.693800  0.232850  1
  N  N2562  1  0.114900  0.193800  0.267150  1
  N  N2563  1  0.614900  0.306200  0.767150  1
  N  N2564  1  0.885100  0.806200  0.732850  1
  N  N2565  1  0.620900  0.741730  0.057950  1
  N  N2566  1  0.879100  0.241730  0.442050  1
  N  N2567  1  0.379100  0.258270  0.942050  1
  N  N2568  1  0.120900  0.758270  0.557950  1
  N  N2569  1  0.699500  0.715700  0.025280  1
  N  N2570  1  0.800500  0.215700  0.474720  1
  N  N2571  1  0.300500  0.284300  0.974720  1
  N  N2572  1  0.199500  0.784300  0.525280  1
  N  N2573  1  0.774900  0.346700  0.511300  1
  N  N2574  1  0.725100  0.846700  0.988700  1
  N  N2575  1  0.225100  0.653300  0.488700  1
  N  N2576  1  0.274900  0.153300  0.011300  1
  N  N2577  1  0.569400  0.526200  0.033700  1
  N  N2578  1  0.930600  0.026200  0.466300  1
  N  N2579  1  0.430600  0.473800  0.966300  1
  N  N2580  1  0.069400  0.973800  0.533700  1
  N  N2581  1  0.548600  0.939700  0.037400  1
  N  N2582  1  0.951400  0.439700  0.462600  1
  N  N2583  1  0.451400  0.060300  0.962600  1
  N  N2584  1  0.048600  0.560300  0.537400  1
  N  N2585  1  0.934900  0.521200  0.247900  1
  N  N2586  1  0.565100  0.021200  0.252100  1
  N  N2587  1  0.065100  0.478800  0.752100  1
  N  N2588  1  0.434900  0.978800  0.747900  1
  N  N2589  1  0.607700  0.104500  0.408000  1
  N  N2590  1  0.892300  0.604500  0.092000  1
  N  N2591  1  0.392300  0.895500  0.592000  1
  N  N2592  1  0.107700  0.395500  0.908000  1
  N  N2593  1  0.308100  0.496400  0.239500  1
  N  N2594  1  0.191900  0.996400  0.260500  1
  N  N2595  1  0.691900  0.503600  0.760500  1
  N  N2596  1  0.808100  0.003600  0.739500  1
  N  N2597  1  0.113800  0.482000  0.460000  1
  N  N2598  1  0.386200  0.982000  0.040000  1
  N  N2599  1  0.886200  0.518000  0.540000  1
  N  N2600  1  0.613800  0.018000  0.960000  1
  N  N2601  1  0.563500  0.865700  0.319000  1
  N  N2602  1  0.936500  0.365700  0.181000  1
  N  N2603  1  0.436500  0.134300  0.681000  1
  N  N2604  1  0.063500  0.634300  0.819000  1
  N  N2605  1  0.418000  0.971000  0.518200  1
  N  N2606  1  0.082000  0.471000  0.981800  1
  N  N2607  1  0.582000  0.029000  0.481800  1
  N  N2608  1  0.918000  0.529000  0.018200  1
  N  N2609  1  0.441900  0.039200  0.488000  1
  N  N2610  1  0.058100  0.539200  0.012000  1
  N  N2611  1  0.558100  0.960800  0.512000  1
  N  N2612  1  0.941900  0.460800  0.988000  1
  N  N2613  1  0.590800  0.114100  0.417400  1
  N  N2614  1  0.909200  0.614100  0.082600  1
  N  N2615  1  0.409200  0.885900  0.582600  1
  N  N2616  1  0.090800  0.385900  0.917400  1
  N  N2617  1  0.181000  0.503700  0.450900  1
  N  N2618  1  0.319000  0.003700  0.049100  1
  N  N2619  1  0.819000  0.496300  0.549100  1
  N  N2620  1  0.681000  0.996300  0.950900  1
  N  N2621  1  0.282400  0.050200  0.624700  1
  N  N2622  1  0.217600  0.550200  0.875300  1
  N  N2623  1  0.717600  0.949800  0.375300  1
  N  N2624  1  0.782400  0.449800  0.124700  1
  N  N2625  1  0.119500  0.063000  0.670800  1
  N  N2626  1  0.380500  0.563000  0.829200  1
  N  N2627  1  0.880500  0.937000  0.329200  1
  N  N2628  1  0.619500  0.437000  0.170800  1
  O  O2629  1  0.259600  0.736800  0.654130  1
  O  O2630  1  0.240400  0.236800  0.845870  1
  O  O2631  1  0.740400  0.263200  0.345870  1
  O  O2632  1  0.759600  0.763200  0.154130  1
  O  O2633  1  0.765700  0.496500  0.207650  1
  O  O2634  1  0.734300  0.996500  0.292350  1
  O  O2635  1  0.234300  0.503500  0.792350  1
  O  O2636  1  0.265700  0.003500  0.707650  1
  O  O2637  1  0.494800  0.875200  0.699900  1
  O  O2638  1  0.005200  0.375200  0.800100  1
  O  O2639  1  0.505200  0.124800  0.300100  1
  O  O2640  1  0.994800  0.624800  0.199900  1
  O  O2641  1  0.331700  0.625300  0.071790  1
  O  O2642  1  0.168300  0.125300  0.428210  1
  O  O2643  1  0.668300  0.374700  0.928210  1
  O  O2644  1  0.831700  0.874700  0.571790  1
  O  O2645  1  0.540000  0.600060  0.746010  1
  O  O2646  1  0.960000  0.100060  0.753990  1
  O  O2647  1  0.460000  0.399940  0.253990  1
  O  O2648  1  0.040000  0.899940  0.246010  1
  O  O2649  1  0.645800  0.898700  0.152740  1
  O  O2650  1  0.854200  0.398700  0.347260  1
  O  O2651  1  0.354200  0.101300  0.847260  1
  O  O2652  1  0.145800  0.601300  0.652740  1
  O  O2653  1  0.450800  0.910500  0.414800  1
  O  O2654  1  0.049200  0.410500  0.085200  1
  O  O2655  1  0.549200  0.089500  0.585200  1
  O  O2656  1  0.950800  0.589500  0.914800  1
  O  O2657  1  0.569100  0.622900  0.842680  1
  O  O2658  1  0.930900  0.122900  0.657320  1
  O  O2659  1  0.430900  0.377100  0.157320  1
  O  O2660  1  0.069100  0.877100  0.342680  1
  O  O2661  1  0.755800  0.630700  0.517380  1
  O  O2662  1  0.744200  0.130700  0.982620  1
  O  O2663  1  0.244200  0.369300  0.482620  1
  O  O2664  1  0.255800  0.869300  0.017380  1
  O  O2665  1  0.624300  0.844950  0.892390  1
  O  O2666  1  0.875700  0.344950  0.607610  1
  O  O2667  1  0.375700  0.155050  0.107610  1
  O  O2668  1  0.124300  0.655050  0.392390  1
  O  O2669  1  0.294400  0.556000  0.395460  1
  O  O2670  1  0.205600  0.056000  0.104540  1
  O  O2671  1  0.705600  0.444000  0.604540  1
  O  O2672  1  0.794400  0.944000  0.895460  1
  O  O2673  1  0.847600  0.647070  0.954360  1
  O  O2674  1  0.652400  0.147070  0.545640  1
  O  O2675  1  0.152400  0.352930  0.045640  1
  O  O2676  1  0.347600  0.852930  0.454360  1
  O  O2677  1  0.516100  0.670200  0.263200  1
  O  O2678  1  0.983900  0.170200  0.236800  1
  O  O2679  1  0.483900  0.329800  0.736800  1
  O  O2680  1  0.016100  0.829800  0.763200  1
  O  O2681  1  0.479200  0.684800  0.309300  1
  O  O2682  1  0.020800  0.184800  0.190700  1
  O  O2683  1  0.520800  0.315200  0.690700  1
  O  O2684  1  0.979200  0.815200  0.809300  1
  O  O2685  1  0.551600  0.733800  0.313800  1
  O  O2686  1  0.948400  0.233800  0.186200  1
  O  O2687  1  0.448400  0.266200  0.686200  1
  O  O2688  1  0.051600  0.766200  0.813800  1
  O  O2689  1  0.575400  0.660600  0.327400  1
  O  O2690  1  0.924600  0.160600  0.172600  1
  O  O2691  1  0.424600  0.339400  0.672600  1
  O  O2692  1  0.075400  0.839400  0.827400  1
  O  O2693  1  0.539200  0.748800  0.237600  1
  O  O2694  1  0.960800  0.248800  0.262400  1
  O  O2695  1  0.460800  0.251200  0.762400  1
  O  O2696  1  0.039200  0.751200  0.737600  1
  O  O2697  1  0.623800  0.666800  0.262100  1
  O  O2698  1  0.876200  0.166800  0.237900  1
  O  O2699  1  0.376200  0.333200  0.737900  1
  O  O2700  1  0.123800  0.833200  0.762100  1
  O  O2701  1  0.351500  0.047900  0.302400  1
  O  O2702  1  0.148500  0.547900  0.197600  1
  O  O2703  1  0.648500  0.952100  0.697600  1
  O  O2704  1  0.851500  0.452100  0.802400  1
  O  O2705  1  0.051500  0.284200  0.498100  1
  O  O2706  1  0.448500  0.784200  0.001900  1
  O  O2707  1  0.948500  0.715800  0.501900  1
  O  O2708  1  0.551500  0.215800  0.998100  1
  O  O2709  1  0.127900  0.313800  0.490800  1
  O  O2710  1  0.372100  0.813800  0.009200  1
  O  O2711  1  0.872100  0.686200  0.509200  1
  O  O2712  1  0.627900  0.186200  0.990800  1
  O  O2713  1  0.622200  0.391300  0.251500  1
  O  O2714  1  0.877800  0.891300  0.248500  1
  O  O2715  1  0.377800  0.608700  0.748500  1
  O  O2716  1  0.122200  0.108700  0.751500  1
  O  O2717  1  0.668600  0.331700  0.247700  1
  O  O2718  1  0.831400  0.831700  0.252300  1
  O  O2719  1  0.331400  0.668300  0.752300  1
  O  O2720  1  0.168600  0.168300  0.747700  1
  O  O2721  1  0.366500  0.193100  0.416400  1
  O  O2722  1  0.133500  0.693100  0.083600  1
  O  O2723  1  0.633500  0.806900  0.583600  1
  O  O2724  1  0.866500  0.306900  0.916400  1
  O  O2725  1  0.314400  0.137700  0.419100  1
  O  O2726  1  0.185600  0.637700  0.080900  1
  O  O2727  1  0.685600  0.862300  0.580900  1
  O  O2728  1  0.814400  0.362300  0.919100  1
  O  O2729  1  0.198400  0.419600  0.166000  1
  O  O2730  1  0.301600  0.919600  0.334000  1
  O  O2731  1  0.801600  0.580400  0.834000  1
  O  O2732  1  0.698400  0.080400  0.666000  1
  O  O2733  1  0.269000  0.394500  0.147400  1
  O  O2734  1  0.231000  0.894500  0.352600  1
  O  O2735  1  0.731000  0.605500  0.852600  1
  O  O2736  1  0.769000  0.105500  0.647400  1
  O  O2737  1  0.238000  0.071800  0.617900  1
  O  O2738  1  0.262000  0.571800  0.882100  1
  O  O2739  1  0.762000  0.928200  0.382100  1
  O  O2740  1  0.738000  0.428200  0.117900  1
  O  O2741  1  0.147900  0.058600  0.611500  1
  O  O2742  1  0.352100  0.558600  0.888500  1
  O  O2743  1  0.852100  0.941400  0.388500  1
  O  O2744  1  0.647900  0.441400  0.111500  1
  O  O2745  1  0.331400  0.149400  0.261700  1
  O  O2746  1  0.168600  0.649400  0.238300  1
  O  O2747  1  0.668600  0.850600  0.738300  1
  O  O2748  1  0.831400  0.350600  0.761700  1
  O  O2749  1  0.382500  0.197700  0.239300  1
  O  O2750  1  0.117500  0.697700  0.260700  1
  O  O2751  1  0.617500  0.802300  0.760700  1
  O  O2752  1  0.882500  0.302300  0.739300  1
  O  O2753  1  0.245200  0.413700  0.374100  1
  O  O2754  1  0.254800  0.913700  0.125900  1
  O  O2755  1  0.754800  0.586300  0.625900  1
  O  O2756  1  0.745200  0.086300  0.874100  1
  O  O2757  1  0.396100  0.993700  0.305400  1
  O  O2758  1  0.103900  0.493700  0.194600  1
  O  O2759  1  0.603900  0.006300  0.694600  1
  O  O2760  1  0.896100  0.506300  0.805400  1
  O  O2761  1  0.504600  0.901300  0.425300  1
  O  O2762  1  0.995400  0.401300  0.074700  1
  O  O2763  1  0.495400  0.098700  0.574700  1
  O  O2764  1  0.004600  0.598700  0.925300  1
  O  O2765  1  0.515900  0.970000  0.408100  1
  O  O2766  1  0.984100  0.470000  0.091900  1
  O  O2767  1  0.484100  0.030000  0.591900  1
  O  O2768  1  0.015900  0.530000  0.908100  1
  O  O2769  1  0.500800  0.814300  0.395600  1
  O  O2770  1  0.999200  0.314300  0.104400  1
  O  O2771  1  0.499200  0.185700  0.604400  1
  O  O2772  1  0.000800  0.685700  0.895600  1
  O  O2773  1  0.508300  0.656200  0.261800  1
  O  O2774  1  0.991700  0.156200  0.238200  1
  O  O2775  1  0.491700  0.343800  0.738200  1
  O  O2776  1  0.008300  0.843800  0.761800  1
  O  O2777  1  0.602800  0.675500  0.278100  1
  O  O2778  1  0.897200  0.175500  0.221900  1
  O  O2779  1  0.397200  0.324500  0.721900  1
  O  O2780  1  0.102800  0.824500  0.778100  1
  O  O2781  1  0.539700  0.734200  0.274200  1
  O  O2782  1  0.960300  0.234200  0.225800  1
  O  O2783  1  0.460300  0.265800  0.725800  1
  O  O2784  1  0.039700  0.765800  0.774200  1
  O  O2785  1  0.564100  0.683300  0.324300  1
  O  O2786  1  0.935900  0.183300  0.175700  1
  O  O2787  1  0.435900  0.316700  0.675700  1
  O  O2788  1  0.064100  0.816700  0.824300  1
  O  O2789  1  0.553800  0.773500  0.350500  1
  O  O2790  1  0.946200  0.273500  0.149500  1
  O  O2791  1  0.446200  0.226500  0.649500  1
  O  O2792  1  0.053800  0.726500  0.850500  1
  O  O2793  1  0.462100  0.679200  0.326500  1
  O  O2794  1  0.037900  0.179200  0.173500  1
  O  O2795  1  0.537900  0.320800  0.673500  1
  O  O2796  1  0.962100  0.820800  0.826500  1
  O  O2797  1  0.299800  0.070100  0.305900  1
  O  O2798  1  0.200200  0.570100  0.194100  1
  O  O2799  1  0.700200  0.929900  0.694100  1
  O  O2800  1  0.799800  0.429900  0.805900  1
  O  O2801  1  0.342500  0.203500  0.406200  1
  O  O2802  1  0.157500  0.703500  0.093800  1
  O  O2803  1  0.657500  0.796500  0.593800  1
  O  O2804  1  0.842500  0.296500  0.906200  1
  O  O2805  1  0.284500  0.148000  0.402000  1
  O  O2806  1  0.215500  0.648000  0.098000  1
  O  O2807  1  0.715500  0.852000  0.598000  1
  O  O2808  1  0.784500  0.352000  0.902000  1
  O  O2809  1  0.220600  0.463600  0.082200  1
  O  O2810  1  0.279400  0.963600  0.417800  1
  O  O2811  1  0.779400  0.536400  0.917800  1
  O  O2812  1  0.720600  0.036400  0.582200  1
  O  O2813  1  0.235300  0.416700  0.128300  1
  O  O2814  1  0.264700  0.916700  0.371700  1
  O  O2815  1  0.764700  0.583300  0.871700  1
  O  O2816  1  0.735300  0.083300  0.628300  1
  O  O2817  1  0.467400  0.442000  0.417400  1
  O  O2818  1  0.032600  0.942000  0.082600  1
  O  O2819  1  0.532600  0.558000  0.582600  1
  O  O2820  1  0.967400  0.058000  0.917400  1
  O  O2821  1  0.428900  0.494800  0.425300  1
  O  O2822  1  0.071100  0.994800  0.074700  1
  O  O2823  1  0.571100  0.505200  0.574700  1
  O  O2824  1  0.928900  0.005200  0.925300  1
  O  O2825  1  0.489700  0.451300  0.447100  1
  O  O2826  1  0.010300  0.951300  0.052900  1
  O  O2827  1  0.510300  0.548700  0.552900  1
  O  O2828  1  0.989700  0.048700  0.947100  1
  O  O2829  1  0.408400  0.478700  0.405000  1
  O  O2830  1  0.091600  0.978700  0.095000  1
  O  O2831  1  0.591600  0.521300  0.595000  1
  O  O2832  1  0.908400  0.021300  0.905000  1
  O  O2833  1  0.329600  0.195100  0.279800  1
  O  O2834  1  0.170400  0.695100  0.220200  1
  O  O2835  1  0.670400  0.804900  0.720200  1
  O  O2836  1  0.829600  0.304900  0.779800  1
  O  O2837  1  0.384500  0.192000  0.245200  1
  O  O2838  1  0.115500  0.692000  0.254800  1
  O  O2839  1  0.615500  0.808000  0.754800  1
  O  O2840  1  0.884500  0.308000  0.745200  1
  F  F2841  1  0.604800  0.649800  0.192120  1
  F  F2842  1  0.895200  0.149800  0.307880  1
  F  F2843  1  0.395200  0.350200  0.807880  1
  F  F2844  1  0.104800  0.850200  0.692120  1
  F  F2845  1  0.597500  0.724280  0.185320  1
  F  F2846  1  0.902500  0.224280  0.314680  1
  F  F2847  1  0.402500  0.275720  0.814680  1
  F  F2848  1  0.097500  0.775720  0.685320  1
  F  F2849  1  0.586400  0.680130  0.135380  1
  F  F2850  1  0.913600  0.180130  0.364620  1
  F  F2851  1  0.413600  0.319870  0.864620  1
  F  F2852  1  0.086400  0.819870  0.635380  1
  F  F2853  1  0.520300  0.680500  0.163700  1
  F  F2854  1  0.979700  0.180500  0.336300  1
  F  F2855  1  0.479700  0.319500  0.836300  1
  F  F2856  1  0.020300  0.819500  0.663700  1
  F  F2857  1  0.303800  0.296200  0.314640  1
  F  F2858  1  0.196200  0.796200  0.185360  1
  F  F2859  1  0.696200  0.703800  0.685360  1
  F  F2860  1  0.803800  0.203800  0.814640  1
  F  F2861  1  0.331400  0.367900  0.331640  1
  F  F2862  1  0.168600  0.867900  0.168360  1
  F  F2863  1  0.668600  0.632100  0.668360  1
  F  F2864  1  0.831400  0.132100  0.831640  1
  F  F2865  1  0.292500  0.351400  0.270270  1
  F  F2866  1  0.207500  0.851400  0.229730  1
  F  F2867  1  0.707500  0.648600  0.729730  1
  F  F2868  1  0.792500  0.148600  0.770270  1
  F  F2869  1  0.239600  0.351800  0.310200  1
  F  F2870  1  0.260400  0.851800  0.189800  1
  F  F2871  1  0.760400  0.648200  0.689800  1
  F  F2872  1  0.739600  0.148200  0.810200  1
  F  F2873  1  0.478350  0.662260  0.406650  1
  F  F2874  1  0.021650  0.162260  0.093350  1
  F  F2875  1  0.521650  0.337740  0.593350  1
  F  F2876  1  0.978350  0.837740  0.906650  1
  F  F2877  1  0.506200  0.700100  0.458880  1
  F  F2878  1  0.993800  0.200100  0.041120  1
  F  F2879  1  0.493800  0.299900  0.541120  1
  F  F2880  1  0.006200  0.799900  0.958880  1
  F  F2881  1  0.568100  0.688200  0.430300  1
  F  F2882  1  0.931900  0.188200  0.069700  1
  F  F2883  1  0.431900  0.311800  0.569700  1
  F  F2884  1  0.068100  0.811800  0.930300  1
  F  F2885  1  0.494900  0.737000  0.406000  1
  F  F2886  1  0.005100  0.237000  0.094000  1
  F  F2887  1  0.505100  0.263000  0.594000  1
  F  F2888  1  0.994900  0.763000  0.906000  1
  F  F2889  1  0.069600  0.148800  0.585180  1
  F  F2890  1  0.430400  0.648800  0.914820  1
  F  F2891  1  0.930400  0.851200  0.414820  1
  F  F2892  1  0.569600  0.351200  0.085180  1
  F  F2893  1  0.162500  0.159500  0.608140  1
  F  F2894  1  0.337500  0.659500  0.891860  1
  F  F2895  1  0.837500  0.840500  0.391860  1
  F  F2896  1  0.662500  0.340500  0.108140  1
  F  F2897  1  0.106800  0.175000  0.643560  1
  F  F2898  1  0.393200  0.675000  0.856440  1
  F  F2899  1  0.893200  0.825000  0.356440  1
  F  F2900  1  0.606800  0.325000  0.143560  1
  F  F2901  1  0.104700  0.217500  0.592250  1
  F  F2902  1  0.395300  0.717500  0.907750  1
  F  F2903  1  0.895300  0.782500  0.407750  1
  F  F2904  1  0.604700  0.282500  0.092250  1
  F  F2905  1  0.127700  0.411800  0.606800  1
  F  F2906  1  0.372300  0.911800  0.893200  1
  F  F2907  1  0.872300  0.588200  0.393200  1
  F  F2908  1  0.627700  0.088200  0.106800  1
  F  F2909  1  0.090500  0.375700  0.642600  1
  F  F2910  1  0.409500  0.875700  0.857400  1
  F  F2911  1  0.909500  0.624300  0.357400  1
  F  F2912  1  0.590500  0.124300  0.142600  1
  F  F2913  1  0.030500  0.409000  0.594000  1
  F  F2914  1  0.469500  0.909000  0.906000  1
  F  F2915  1  0.969500  0.591000  0.406000  1
  F  F2916  1  0.530500  0.091000  0.094000  1
  F  F2917  1  0.086900  0.450200  0.638100  1
  F  F2918  1  0.413100  0.950200  0.861900  1
  F  F2919  1  0.913100  0.549800  0.361900  1
  F  F2920  1  0.586900  0.049800  0.138100  1
  F  F2921  1  0.142100  0.442800  0.308300  1
  F  F2922  1  0.357900  0.942800  0.191700  1
  F  F2923  1  0.857900  0.557200  0.691700  1
  F  F2924  1  0.642100  0.057200  0.808300  1
  F  F2925  1  0.063200  0.465100  0.307300  1
  F  F2926  1  0.436800  0.965100  0.192700  1
  F  F2927  1  0.936800  0.534900  0.692700  1
  F  F2928  1  0.563200  0.034900  0.807300  1
  F  F2929  1  0.137500  0.467100  0.359900  1
  F  F2930  1  0.362500  0.967100  0.140100  1
  F  F2931  1  0.862500  0.532900  0.640100  1
  F  F2932  1  0.637500  0.032900  0.859900  1
  F  F2933  1  0.129600  0.516200  0.313300  1
  F  F2934  1  0.370400  0.016200  0.186700  1
  F  F2935  1  0.870400  0.483800  0.686700  1
  F  F2936  1  0.629600  0.983800  0.813300  1
  F  F2937  1  0.798100  0.995700  0.505300  1
  F  F2938  1  0.701900  0.495700  0.994700  1
  F  F2939  1  0.201900  0.004300  0.494700  1
  F  F2940  1  0.298100  0.504300  0.005300  1
  F  F2941  1  0.728500  0.043300  0.480800  1
  F  F2942  1  0.771500  0.543300  0.019200  1
  F  F2943  1  0.271500  0.956700  0.519200  1
  F  F2944  1  0.228500  0.456700  0.980800  1
  F  F2945  1  0.725100  0.975700  0.460300  1
  F  F2946  1  0.774900  0.475700  0.039700  1
  F  F2947  1  0.274900  0.024300  0.539700  1
  F  F2948  1  0.225100  0.524300  0.960300  1
  F  F2949  1  0.708400  0.980000  0.511000  1
  F  F2950  1  0.791600  0.480000  0.989000  1
  F  F2951  1  0.291600  0.020000  0.489000  1
  F  F2952  1  0.208400  0.520000  0.011000  1
  F  F2953  1  0.688100  0.420400  0.362200  1
  F  F2954  1  0.811900  0.920400  0.137800  1
  F  F2955  1  0.311900  0.579600  0.637800  1
  F  F2956  1  0.188100  0.079600  0.862200  1
  F  F2957  1  0.767900  0.395500  0.402680  1
  F  F2958  1  0.732100  0.895500  0.097320  1
  F  F2959  1  0.232100  0.604500  0.597320  1
  F  F2960  1  0.267900  0.104500  0.902680  1
  F  F2961  1  0.739100  0.464460  0.408800  1
  F  F2962  1  0.760900  0.964460  0.091200  1
  F  F2963  1  0.260900  0.535540  0.591200  1
  F  F2964  1  0.239100  0.035540  0.908800  1
  F  F2965  1  0.690600  0.404760  0.420560  1
  F  F2966  1  0.809400  0.904760  0.079440  1
  F  F2967  1  0.309400  0.595240  0.579440  1
  F  F2968  1  0.190600  0.095240  0.920560  1
  F  F2969  1  0.603100  0.722500  0.167100  1
  F  F2970  1  0.896900  0.222500  0.332900  1
  F  F2971  1  0.396900  0.277500  0.832900  1
  F  F2972  1  0.103100  0.777500  0.667100  1
  F  F2973  1  0.535300  0.681000  0.133100  1
  F  F2974  1  0.964700  0.181000  0.366900  1
  F  F2975  1  0.464700  0.319000  0.866900  1
  F  F2976  1  0.035300  0.819000  0.633100  1
  F  F2977  1  0.602900  0.644000  0.176600  1
  F  F2978  1  0.897100  0.144000  0.323400  1
  F  F2979  1  0.397100  0.356000  0.823400  1
  F  F2980  1  0.102900  0.856000  0.676600  1
  F  F2981  1  0.534500  0.688600  0.186100  1
  F  F2982  1  0.965500  0.188600  0.313900  1
  F  F2983  1  0.465500  0.311400  0.813900  1
  F  F2984  1  0.034500  0.811400  0.686100  1
  F  F2985  1  0.552800  0.701100  0.406800  1
  F  F2986  1  0.947200  0.201100  0.093200  1
  F  F2987  1  0.447200  0.298900  0.593200  1
  F  F2988  1  0.052800  0.798900  0.906800  1
  F  F2989  1  0.549400  0.688500  0.458900  1
  F  F2990  1  0.950600  0.188500  0.041100  1
  F  F2991  1  0.450600  0.311500  0.541100  1
  F  F2992  1  0.049400  0.811500  0.958900  1
  F  F2993  1  0.486700  0.734600  0.432800  1
  F  F2994  1  0.013300  0.234600  0.067200  1
  F  F2995  1  0.513300  0.265400  0.567200  1
  F  F2996  1  0.986700  0.765400  0.932800  1
  F  F2997  1  0.711500  0.966100  0.485800  1
  F  F2998  1  0.788500  0.466100  0.014200  1
  F  F2999  1  0.288500  0.033900  0.514200  1
  F  F3000  1  0.211500  0.533900  0.985800  1
  F  F3001  1  0.743200  0.015200  0.529600  1
  F  F3002  1  0.756800  0.515200  0.970400  1
  F  F3003  1  0.256800  0.984800  0.470400  1
  F  F3004  1  0.243200  0.484800  0.029600  1
