
#######################################################################
#
#                 Cambridge Crystallographic Data Centre
#                                CCDC 
#
#######################################################################
#
# If this CIF has been generated from an entry in the Cambridge 
# Structural Database, then it will include bibliographic, chemical, 
# crystal, experimental, refinement or atomic coordinate data resulting 
# from the CCDC's data processing and validation procedures.
#
#######################################################################

data_ZULJAT
_chemical_formula_moiety         
'C218 H168 Cd5 F3 N24 O18 S1 7+,7(C1 F3 O3 S1 1-),11.75(C2 H3 N1)'
_chemical_name_systematic        
'(\m~3~-Trifluoromethanesulfonato)-(\m~3~-carbonato)-hexakis(\m~2~-(naphthalene-2,7-diyldipyridine-5,2-diyl)bis(N-(4-methoxyphenyl)methanimine))-penta-cadmium heptakis(trifluoromethanesulfonate) acetonitrile solvate'
_symmetry_cell_setting           monoclinic
_symmetry_space_group_name_H-M   'P 21/c'
_symmetry_Int_Tables_number      14
_space_group_name_Hall           '-P 2ybc'
loop_
_symmetry_equiv_pos_site_id
_symmetry_equiv_pos_as_xyz
1 x,y,z
2 -x,1/2+y,1/2-z
3 -x,-y,-z
4 x,1/2-y,1/2+z
_cell_length_a                   20.3132(19)
_cell_length_b                   32.827(3)
_cell_length_c                   37.997(4)
_cell_angle_alpha                90
_cell_angle_beta                 92.479(4)
_cell_angle_gamma                90
_cell_volume                     25313.5
_exptl_crystal_colour            yellow
_exptl_crystal_description       block
_cell_formula_units_Z            4
loop_
_atom_site_label
_atom_site_type_symbol
_atom_site_fract_x
_atom_site_fract_y
_atom_site_fract_z
Cd1 Cd 0.40063(3) 0.33835(2) -0.04135(2)
Cd2 Cd 0.60677(3) 0.38890(2) 0.23402(2)
Cd3 Cd 0.70454(3) 0.26376(2) 0.20159(2)
Cd4 Cd 0.81383(3) 0.38655(2) 0.16479(2)
Cd5 Cd 1.01614(3) 0.34368(2) 0.44631(2)
N1 N 0.3819(4) 0.3976(2) -0.07335(17)
N2 N 0.5013(4) 0.3721(2) -0.04366(18)
N3 N 0.7711(4) 0.2464(2) 0.1539(2)
N4 N 0.7878(4) 0.2155(2) 0.2198(2)
N5 N 0.2906(4) 0.3213(2) -0.0344(2)
N6 N 0.3645(4) 0.3720(2) 0.01212(19)
N7 N 0.7677(4) 0.4523(2) 0.1601(2)
N8 N 0.8926(4) 0.4363(3) 0.1884(2)
N9 N 0.4291(4) 0.2954(2) -0.0897(2)
N10 N 0.4375(4) 0.2766(2) -0.01846(19)
N11 N 0.5242(4) 0.3385(2) 0.23717(19)
N12 N 0.5634(4) 0.3878(2) 0.29228(19)
N13 N 0.5223(4) 0.4371(2) 0.21982(19)
N14 N 0.6520(4) 0.4532(2) 0.24429(18)
N15 N 1.0553(4) 0.3871(2) 0.4021(2)
N16 N 1.1340(4) 0.3352(3) 0.4451(2)
N17 N 0.6230(4) 0.2137(2) 0.18530(19)
N18 N 0.6386(4) 0.2527(2) 0.24966(18)
N19 N 0.9137(4) 0.3785(2) 0.4481(2)
N20 N 1.0314(4) 0.4015(3) 0.4833(2)
N21 N 0.8527(4) 0.3857(3) 0.1070(2)
N22 N 0.8917(4) 0.3351(3) 0.1615(2)
N23 N 0.9835(4) 0.2818(3) 0.4209(2)
N24 N 0.9834(4) 0.3000(3) 0.4918(2)
C1 C 0.3176(5) 0.4113(3) -0.0851(2)
C2 C 0.2781(5) 0.3853(3) -0.1058(3)
H1 H 0.2948 0.3597 -0.1127
C3 C 0.2132(5) 0.3968(3) -0.1166(3)
H2 H 0.1869 0.3795 -0.1315
C4 C 0.1884(5) 0.4340(3) -0.1051(3)
C5 C 0.2269(5) 0.4592(3) -0.0844(3)
H3 H 0.2095 0.4843 -0.0764
C6 C 0.2935(5) 0.4481(3) -0.0746(3)
H4 H 0.3208 0.4661 -0.0610
C7 C 0.0930(9) 0.4760(6) -0.1023(6)
H5 H 0.0489 0.4780 -0.1137
H6 H 0.0893 0.4721 -0.0769
H7 H 0.1175 0.5012 -0.1065
C8 C 0.4330(4) 0.4201(3) -0.0754(2)
H8 H 0.4286 0.4464 -0.0856
C9 C 0.4986(4) 0.4063(3) -0.0624(2)
C10 C 0.5551(5) 0.4284(3) -0.0692(3)
H9 H 0.5518 0.4532 -0.0821
C11 C 0.6160(5) 0.4143(3) -0.0573(3)
H10 H 0.6548 0.4287 -0.0629
C12 C 0.6207(5) 0.3789(3) -0.0368(2)
C13 C 0.5604(4) 0.3593(3) -0.0316(2)
H11 H 0.5618 0.3347 -0.0184
C14 C 0.6874(4) 0.3393(3) 0.0068(2)
H12 H 0.6480 0.3329 0.0181
C15 C 0.6835(4) 0.3634(3) -0.0224(2)
C16 C 0.7447(5) 0.3736(3) -0.0389(3)
H13 H 0.7434 0.3899 -0.0596
C17 C 0.8039(5) 0.3601(3) -0.0252(2)
H14 H 0.8430 0.3678 -0.0363
C18 C 0.8090(4) 0.3350(3) 0.0047(2)
C19 C 0.7477(4) 0.3235(3) 0.0208(2)
C20 C 0.7502(4) 0.2978(3) 0.0502(2)
H15 H 0.7103 0.2906 0.0608
C21 C 0.8089(4) 0.2828(3) 0.0643(2)
C22 C 0.8697(5) 0.2941(3) 0.0481(2)
H16 H 0.9105 0.2837 0.0573
C23 C 0.8686(5) 0.3196(3) 0.0200(2)
H17 H 0.9091 0.3272 0.0102
C24 C 0.7706(4) 0.2660(3) 0.1234(2)
H18 H 0.7391 0.2871 0.1196
C25 C 0.8134(4) 0.2576(3) 0.0962(2)
C26 C 0.8590(5) 0.2264(3) 0.1021(3)
H19 H 0.8891 0.2194 0.0846
C27 C 0.8594(5) 0.2054(3) 0.1347(3)
H20 H 0.8900 0.1840 0.1394
C28 C 0.8146(5) 0.2164(3) 0.1596(3)
C29 C 0.8208(5) 0.2001(3) 0.1953(3)
H21 H 0.8497 0.1778 0.2004
C30 C 0.7951(5) 0.2037(3) 0.2558(3)
C31 C 0.8041(6) 0.1640(4) 0.2667(3)
H22 H 0.8083 0.1425 0.2502
C32 C 0.8069(7) 0.1565(4) 0.3034(3)
H23 H 0.8122 0.1294 0.3119
C33 C 0.8019(6) 0.1885(4) 0.3271(3)
C34 C 0.7964(5) 0.2272(4) 0.3156(3)
H24 H 0.7956 0.2491 0.3319
C35 C 0.7920(5) 0.2345(3) 0.2807(3)
H25 H 0.7864 0.2618 0.2728
C36 C 0.7834(7) 0.2085(5) 0.3863(4)
H26 H 0.8158 0.2306 0.3875
H27 H 0.7800 0.1964 0.4098
H28 H 0.7404 0.2193 0.3783
C37 C 0.2471(4) 0.2994(3) -0.0591(3)
C38 C 0.2711(5) 0.2658(3) -0.0761(2)
H29 H 0.3147 0.2565 -0.0710
C39 C 0.2299(5) 0.2457(3) -0.1010(3)
H30 H 0.2449 0.2217 -0.1121
C40 C 0.1681(4) 0.2605(3) -0.1096(2)
C41 C 0.1437(5) 0.2953(4) -0.0927(3)
H31 H 0.1011 0.3057 -0.0988
C42 C 0.1838(5) 0.3143(3) -0.0668(3)
H32 H 0.1680 0.3372 -0.0544
C43 C 0.1482(6) 0.2117(4) -0.1555(3)
H33 H 0.1924 0.2178 -0.1635
H34 H 0.1181 0.2073 -0.1760
H35 H 0.1499 0.1871 -0.1409
C44 C 0.2643(5) 0.3365(4) -0.0074(3)
H36 H 0.2192 0.3313 -0.0037
C45 C 0.3022(5) 0.3621(3) 0.0182(2)
C46 C 0.2705(5) 0.3762(4) 0.0479(3)
H37 H 0.2268 0.3679 0.0522
C47 C 0.3037(5) 0.4023(4) 0.0704(3)
H38 H 0.2830 0.4120 0.0907
C48 C 0.3681(5) 0.4147(3) 0.0638(2)
C49 C 0.3968(4) 0.3980(3) 0.0341(2)
H39 H 0.4407 0.4054 0.0293
C50 C 0.4704(5) 0.4464(3) 0.0920(2)
H40 H 0.4966 0.4289 0.0784
C51 C 0.4014(5) 0.4440(3) 0.0871(2)
C52 C 0.3641(5) 0.4718(3) 0.1075(2)
H41 H 0.3174 0.4709 0.1047
C53 C 0.3907(5) 0.4984(3) 0.1299(2)
H42 H 0.3633 0.5164 0.1424
C54 C 0.4618(5) 0.5004(3) 0.1356(2)
C55 C 0.5020(5) 0.4730(2) 0.1154(2)
C56 C 0.5717(5) 0.4744(3) 0.1213(2)
H43 H 0.5982 0.4569 0.1079
C57 C 0.6025(5) 0.5004(3) 0.1460(2)
C58 C 0.5616(5) 0.5285(3) 0.1637(2)
H44 H 0.5816 0.5481 0.1791
C59 C 0.4953(5) 0.5278(3) 0.1590(2)
H45 H 0.4701 0.5465 0.1719
C60 C 0.7055(5) 0.4600(3) 0.1508(2)
H46 H 0.6801 0.4381 0.1410
C61 C 0.6742(5) 0.4972(3) 0.1542(2)
C62 C 0.7123(6) 0.5289(3) 0.1685(3)
H47 H 0.6939 0.5553 0.1711
C63 C 0.7772(6) 0.5216(3) 0.1790(3)
H48 H 0.8033 0.5430 0.1890
C64 C 0.8047(5) 0.4831(3) 0.1749(3)
C65 C 0.8704(5) 0.4720(3) 0.1890(3)
H49 H 0.8977 0.4929 0.1990
C66 C 0.9540(5) 0.4227(4) 0.2043(3)
C67 C 0.9984(5) 0.3984(4) 0.1870(2)
H50 H 0.9911 0.3926 0.1626
C68 C 1.0533(5) 0.3826(3) 0.2053(3)
H51 H 1.0836 0.3660 0.1934
C69 C 1.0639(4) 0.3910(4) 0.2409(3)
C70 C 1.0195(5) 0.4153(4) 0.2582(2)
H52 H 1.0267 0.4211 0.2826
C71 C 0.9646(5) 0.4311(3) 0.2399(3)
H53 H 0.9342 0.4477 0.2518
C72 C 1.1267(9) 0.3803(7) 0.2956(5)
H54 H 1.1655 0.3655 0.3050
H55 H 1.1332 0.4096 0.2993
H56 H 1.0877 0.3714 0.3078
O1 O 1.1169(6) 0.3718(4) 0.2568(3)
C73 C 0.4167(5) 0.3025(3) -0.1265(2)
C74 C 0.3823(5) 0.2733(3) -0.1469(3)
H57 H 0.3711 0.2478 -0.1369
C75 C 0.3651(5) 0.2816(3) -0.1811(3)
H58 H 0.3409 0.2621 -0.1949
C76 C 0.3826(5) 0.3186(3) -0.1962(3)
C77 C 0.4192(5) 0.3466(3) -0.1759(2)
H59 H 0.4334 0.3713 -0.1862
C78 C 0.4346(5) 0.3387(3) -0.1414(2)
H60 H 0.4580 0.3584 -0.1275
C79 C 0.3688(7) 0.3636(3) -0.2455(3)
H61 H 0.3470 0.3836 -0.2309
H62 H 0.3482 0.3638 -0.2693
H63 H 0.4156 0.3705 -0.2466
C80 C 0.4508(5) 0.2610(3) -0.0796(3)
H64 H 0.4648 0.2423 -0.0968
C81 C 0.4553(5) 0.2488(3) -0.0424(2)
C82 C 0.4715(6) 0.2091(3) -0.0335(3)
H65 H 0.4845 0.1904 -0.0510
C83 C 0.4683(6) 0.1975(3) 0.0015(3)
H66 H 0.4789 0.1703 0.0083
C84 C 0.4495(4) 0.2257(3) 0.0267(2)
C85 C 0.4346(4) 0.2648(3) 0.0147(2)
H67 H 0.4215 0.2843 0.0315
C86 C 0.4147(7) 0.1651(4) 0.1070(3)
H68 H 0.4009 0.1384 0.1128
C87 C 0.4240(7) 0.1740(3) 0.0723(3)
H69 H 0.4179 0.1538 0.0545
C88 C 0.4432(5) 0.2148(3) 0.0636(3)
C89 C 0.4522(5) 0.2425(3) 0.0896(2)
H70 H 0.4638 0.2695 0.0836
C90 C 0.4450(5) 0.2328(3) 0.1256(2)
C91 C 0.4245(7) 0.1931(3) 0.1340(3)
C92 C 0.4150(8) 0.1833(4) 0.1697(3)
H71 H 0.4030 0.1564 0.1760
C93 C 0.4230(7) 0.2124(4) 0.1952(3)
H72 H 0.4133 0.2060 0.2188
C94 C 0.4456(5) 0.2520(3) 0.1870(2)
C95 C 0.4552(5) 0.2615(3) 0.1522(2)
H73 H 0.4691 0.2882 0.1463
C96 C 0.5086(4) 0.3099(3) 0.2127(2)
H74 H 0.5344 0.3084 0.1924
C97 C 0.4573(5) 0.2827(3) 0.2153(2)
C98 C 0.4201(5) 0.2841(3) 0.2449(2)
H75 H 0.3843 0.2658 0.2475
C99 C 0.4362(5) 0.3128(3) 0.2709(3)
H76 H 0.4113 0.3146 0.2914
C100 C 0.4886(4) 0.3387(3) 0.2664(2)
C101 C 0.5102(4) 0.3674(3) 0.2944(2)
H77 H 0.4841 0.3707 0.3144
C102 C 0.5866(5) 0.4114(3) 0.3215(2)
C103 C 0.5434(5) 0.4298(3) 0.3451(3)
H78 H 0.4971 0.4281 0.3407
C104 C 0.5690(6) 0.4503(4) 0.3745(3)
H79 H 0.5403 0.4627 0.3905
C105 C 0.6358(6) 0.4525(3) 0.3804(3)
C106 C 0.6816(6) 0.4354(3) 0.3571(3)
H80 H 0.7278 0.4374 0.3616
C107 C 0.6542(5) 0.4155(3) 0.3275(2)
H81 H 0.6829 0.4044 0.3109
C108 C 0.6214(8) 0.4844(5) 0.4359(4)
H82 H 0.5967 0.5085 0.4278
H83 H 0.6468 0.4909 0.4577
H84 H 0.5906 0.4622 0.4403
C109 C 0.4559(5) 0.4295(3) 0.2075(2)
C110 C 0.4464(5) 0.4008(3) 0.1813(3)
H85 H 0.4830 0.3867 0.1724
C111 C 0.3826(5) 0.3925(3) 0.1676(3)
H86 H 0.3759 0.3726 0.1496
C112 C 0.3285(5) 0.4135(4) 0.1806(3)
C113 C 0.3387(5) 0.4414(4) 0.2074(3)
H87 H 0.3022 0.4552 0.2167
C114 C 0.4014(5) 0.4491(4) 0.2207(3)
H88 H 0.4077 0.4683 0.2392
C115 C 0.2112(7) 0.4253(6) 0.1770(5)
H89 H 0.2106 0.4246 0.2027
H90 H 0.1711 0.4124 0.1669
H91 H 0.2130 0.4537 0.1690
C116 C 0.5384(5) 0.4726(3) 0.2312(2)
H92 H 0.5055 0.4931 0.2316
C117 C 0.6057(5) 0.4827(3) 0.2438(2)
C118 C 0.6216(6) 0.5224(3) 0.2546(3)
H93 H 0.5889 0.5431 0.2543
C119 C 0.6851(6) 0.5306(3) 0.2655(3)
H94 H 0.6961 0.5574 0.2732
C120 C 0.7338(5) 0.5014(3) 0.2658(3)
C121 C 0.7136(5) 0.4625(3) 0.2548(2)
H95 H 0.7458 0.4415 0.2549
C122 C 0.8978(6) 0.5550(3) 0.2762(3)
H96 H 0.9168 0.5796 0.2683
C123 C 0.8336(6) 0.5462(3) 0.2677(3)
H97 H 0.8082 0.5658 0.2547
C124 C 0.8031(5) 0.5100(3) 0.2769(3)
C125 C 0.8404(5) 0.4833(3) 0.2975(3)
H98 H 0.8210 0.4585 0.3047
C126 C 0.9061(5) 0.4915(3) 0.3081(3)
C127 C 0.9351(6) 0.5279(3) 0.2966(3)
C128 C 1.0026(6) 0.5354(4) 0.3069(3)
H99 H 1.0230 0.5596 0.2991
C129 C 1.0387(6) 0.5086(4) 0.3275(3)
H100 H 1.0832 0.5146 0.3343
C130 C 1.0093(6) 0.4722(4) 0.3386(3)
C131 C 0.9446(6) 0.4642(3) 0.3293(3)
H101 H 0.9251 0.4398 0.3373
C132 C 1.0216(5) 0.4136(3) 0.3830(3)
H102 H 0.9750 0.4137 0.3845
C133 C 1.0506(6) 0.4426(4) 0.3600(3)
C134 C 1.1185(6) 0.4422(5) 0.3590(4)
H103 H 1.1403 0.4615 0.3449
C135 C 1.1550(6) 0.4137(4) 0.3787(4)
H104 H 1.2016 0.4127 0.3778
C136 C 1.1213(5) 0.3865(4) 0.4000(3)
C137 C 1.1595(5) 0.3582(3) 0.4224(3)
H105 H 1.2057 0.3569 0.4199
C138 C 1.1744(5) 0.3124(3) 0.4690(3)
C139 C 1.1468(6) 0.2781(4) 0.4846(3)
H106 H 1.1035 0.2694 0.4778
C140 C 1.1846(7) 0.2568(4) 0.5104(3)
H107 H 1.1663 0.2337 0.5215
C141 C 1.2475(7) 0.2688(5) 0.5197(4)
C142 C 1.2737(7) 0.3033(5) 0.5046(4)
H108 H 1.3164 0.3125 0.5121
C143 C 1.2385(6) 0.3241(5) 0.4790(4)
H109 H 1.2579 0.3469 0.4680
C144 C 1.2604(11) 0.2307(6) 0.5715(5)
H110 H 1.2351 0.2499 0.5853
H111 H 1.2949 0.2181 0.5867
H112 H 1.2310 0.2095 0.5618
C145 C 0.6156(6) 0.1941(3) 0.1527(3)
C146 C 0.5993(8) 0.1532(4) 0.1492(3)
H113 H 0.5941 0.1370 0.1696
C147 C 0.5906(10) 0.1356(4) 0.1156(3)
H114 H 0.5802 0.1075 0.1136
C148 C 0.5968(8) 0.1582(4) 0.0858(3)
C149 C 0.6110(6) 0.1980(3) 0.0894(3)
H115 H 0.6146 0.2141 0.0688
C150 C 0.6205(5) 0.2164(3) 0.1220(3)
H116 H 0.6306 0.2447 0.1234
C151 C 0.5707(13) 0.1014(5) 0.0483(5)
H117 H 0.6084 0.0840 0.0551
H118 H 0.5576 0.0964 0.0235
H119 H 0.5338 0.0951 0.0631
C152 C 0.5903(5) 0.2014(3) 0.2110(2)
H120 H 0.5625 0.1783 0.2078
C153 C 0.5941(5) 0.2216(3) 0.2451(2)
C154 C 0.5552(5) 0.2099(3) 0.2726(2)
H121 H 0.5279 0.1865 0.2700
C155 C 0.5560(5) 0.2320(3) 0.3032(2)
H122 H 0.5268 0.2252 0.3212
C156 C 0.5996(4) 0.2642(3) 0.3080(2)
C157 C 0.6405(4) 0.2729(3) 0.2800(2)
H123 H 0.6714 0.2945 0.2830
C158 C 0.5463(5) 0.3267(3) 0.3844(2)
H124 H 0.5062 0.3346 0.3945
C159 C 0.5445(5) 0.3019(3) 0.3560(2)
H125 H 0.5031 0.2925 0.3466
C160 C 0.6035(4) 0.2897(3) 0.3397(2)
C161 C 0.6633(4) 0.3040(3) 0.3537(2)
H126 H 0.7026 0.2966 0.3427
C162 C 0.6676(4) 0.3293(3) 0.3840(2)
C163 C 0.6075(4) 0.3413(3) 0.3994(2)
C164 C 0.6121(5) 0.3664(3) 0.4300(3)
H127 H 0.5730 0.3740 0.4411
C165 C 0.6714(5) 0.3797(3) 0.4434(3)
H128 H 0.6731 0.3963 0.4640
C166 C 0.7321(5) 0.3690(3) 0.4268(3)
C167 C 0.7279(5) 0.3437(3) 0.3980(2)
H129 H 0.7673 0.3357 0.3874
C168 C 0.8546(4) 0.3645(3) 0.4371(2)
H130 H 0.8524 0.3386 0.4258
C169 C 0.7961(4) 0.3858(3) 0.4411(2)
C170 C 0.7996(6) 0.4233(4) 0.4574(3)
H131 H 0.7610 0.4391 0.4601
C171 C 0.8617(6) 0.4379(4) 0.4701(3)
H132 H 0.8652 0.4634 0.4818
C172 C 0.9177(5) 0.4145(3) 0.4651(3)
C173 C 0.9835(5) 0.4271(3) 0.4813(3)
H133 H 0.9896 0.4540 0.4900
C174 C 1.0946(6) 0.4122(3) 0.4994(3)
C175 C 1.1238(6) 0.3855(4) 0.5230(3)
H134 H 1.1023 0.3607 0.5283
C176 C 1.1845(7) 0.3946(4) 0.5391(4)
H135 H 1.2046 0.3767 0.5560
C177 C 1.2155(7) 0.4312(4) 0.5297(4)
C178 C 1.1868(6) 0.4569(4) 0.5060(4)
H136 H 1.2089 0.4812 0.4997
C179 C 1.1241(6) 0.4481(4) 0.4904(4)
H137 H 1.1030 0.4664 0.4741
C180 C 1.3089(15) 0.4144(7) 0.5712(8)
H138 H 1.2776 0.4065 0.5888
H139 H 1.3467 0.4282 0.5828
H140 H 1.3242 0.3900 0.5591
O2 O 0.7364(8) 0.4786(5) -0.0034(4)
C181 C 0.8269(8) 0.4117(7) 0.0771(4)
C182 C 0.7587(8) 0.4147(6) 0.0738(4)
H141 H 0.7321 0.4011 0.0901
C183 C 0.7294(6) 0.4377(5) 0.0467(4)
H142 H 0.6827 0.4398 0.0444
C184 C 0.7683(8) 0.4576(5) 0.0229(3)
C185 C 0.8365(7) 0.4546(5) 0.0262(3)
H143 H 0.8631 0.4682 0.0099
C186 C 0.8658(6) 0.4316(6) 0.0533(4)
H144 H 0.9125 0.4295 0.0556
C187 C 0.7759(12) 0.5006(7) -0.0270(6)
H145 H 0.7474 0.5144 -0.0447
H146 H 0.8024 0.5208 -0.0138
H147 H 0.8051 0.4816 -0.0387
C188 C 0.9045(5) 0.3637(4) 0.1040(3)
H148 H 0.9291 0.3658 0.0834
C189 C 0.9262(5) 0.3352(4) 0.1322(3)
C190 C 0.9802(6) 0.3098(4) 0.1282(3)
H149 H 1.0052 0.3118 0.1077
C191 C 0.9976(5) 0.2816(4) 0.1542(3)
H150 H 1.0332 0.2633 0.1515
C192 C 0.9611(5) 0.2812(4) 0.1845(3)
C193 C 0.9089(4) 0.3084(3) 0.1867(3)
H151 H 0.8841 0.3079 0.2073
C194 C 1.0051(8) 0.1841(4) 0.2324(4)
H152 H 1.0173 0.1570 0.2266
C195 C 0.9958(7) 0.2111(4) 0.2066(4)
H153 H 1.0025 0.2031 0.1830
C196 C 0.9760(5) 0.2516(4) 0.2139(3)
C197 C 0.9688(5) 0.2627(3) 0.2482(3)
H154 H 0.9562 0.2898 0.2533
C198 C 0.9797(5) 0.2350(3) 0.2760(3)
C199 C 0.9977(7) 0.1940(4) 0.2681(3)
C200 C 1.0053(7) 0.1665(4) 0.2959(3)
H155 H 1.0164 0.1390 0.2910
C201 C 0.9973(7) 0.1776(4) 0.3297(3)
H156 H 1.0022 0.1579 0.3479
C202 C 0.9813(5) 0.2192(3) 0.3383(3)
C203 C 0.9727(5) 0.2463(3) 0.3114(3)
H157 H 0.9615 0.2736 0.3167
C204 C 0.9870(5) 0.2697(3) 0.3875(3)
H158 H 1.0008 0.2892 0.3709
C205 C 0.9720(5) 0.2306(3) 0.3751(3)
C206 C 0.9496(6) 0.2033(3) 0.3995(3)
H159 H 0.9387 0.1763 0.3923
C207 C 0.9430(6) 0.2146(4) 0.4337(3)
H160 H 0.9256 0.1961 0.4502
C208 C 0.9621(5) 0.2537(3) 0.4442(3)
C209 C 0.9615(5) 0.2656(3) 0.4812(3)
H161 H 0.9444 0.2472 0.4977
C210 C 0.9887(5) 0.3088(3) 0.5282(3)
C211 C 1.0263(5) 0.2821(3) 0.5506(3)
H162 H 1.0410 0.2567 0.5420
C212 C 1.0411(5) 0.2934(3) 0.5846(3)
H163 H 1.0683 0.2763 0.5993
C213 C 1.0167(6) 0.3297(3) 0.5979(3)
C214 C 0.9776(6) 0.3547(3) 0.5769(3)
H164 H 0.9592 0.3788 0.5863
C215 C 0.9650(5) 0.3443(3) 0.5414(3)
H165 H 0.9397 0.3621 0.5265
C216 C 1.0232(7) 0.3782(4) 0.6447(3)
H166 H 1.0384 0.3978 0.6273
H167 H 1.0473 0.3826 0.6673
H168 H 0.9759 0.3820 0.6477
C217 C 0.7335(4) 0.3493(3) 0.2174(2)
O3 O 0.6813(3) 0.34248(18) 0.23504(17)
O4 O 0.7524(3) 0.38515(18) 0.21175(16)
O5 O 0.7657(3) 0.31865(19) 0.20518(17)
O6 O 0.1254(4) 0.4440(3) -0.1160(2)
O7 O 0.8043(5) 0.1774(3) 0.3617(2)
O8 O 0.1255(3) 0.2449(3) -0.1355(2)
O9 O 0.3625(4) 0.3241(2) -0.23050(17)
O10 O 0.6660(5) 0.4720(3) 0.4091(2)
O11 O 0.2679(4) 0.4038(3) 0.1656(3)
O12 O 1.2890(6) 0.2511(4) 0.5444(3)
O13 O 0.5887(7) 0.1428(3) 0.0528(2)
O14 O 1.2761(5) 0.4424(3) 0.5451(3)
O15 O 1.0349(4) 0.3376(3) 0.6326(2)
S1 S 0.63896(11) 0.34851(6) 0.14606(6)
O16 O 0.6340(3) 0.30685(18) 0.15872(16)
O17 O 0.7036(3) 0.36013(19) 0.13525(17)
O18 O 0.6062(3) 0.37835(18) 0.16715(15)
F1 F 0.5240(2) 0.34639(16) 0.11150(13)
F2 F 0.5992(3) 0.38032(15) 0.08580(13)
F3 F 0.6016(3) 0.31479(15) 0.08617(13)
C218 C 0.5891(4) 0.3480(2) 0.1057(2)
N25 N 1.0002(9) 0.5560(5) 0.2094(5)
C219 C 1.0313(11) 0.5290(6) 0.2022(7)
C220 C 1.0753(11) 0.4951(6) 0.1911(6)
H169 H 1.0565 0.4825 0.1696
H170 H 1.0791 0.4747 0.2099
H171 H 1.1190 0.5061 0.1866
S2 S 0.34794(18) 0.35168(14) 0.37121(14)
O19 O 0.3897(9) 0.3492(6) 0.3467(5)
O20 O 0.3698(8) 0.3164(5) 0.3999(4)
O21 O 0.2775(7) 0.3472(5) 0.3646(4)
F4 F 0.4297(7) 0.3950(5) 0.4111(4)
F5 F 0.3305(7) 0.3971(5) 0.4282(4)
F6 F 0.3470(8) 0.4255(5) 0.3785(4)
C221 C 0.3647(9) 0.3899(5) 0.3999(5)
S3 S 0.44748(19) 0.58285(10) 0.25337(10)
O22 O 0.4761(6) 0.5911(4) 0.2209(3)
O23 O 0.4492(5) 0.5413(3) 0.2647(3)
O24 O 0.4684(5) 0.6111(3) 0.2810(3)
F7 F 0.3254(5) 0.5860(4) 0.2719(3)
F8 F 0.3518(6) 0.6321(4) 0.2343(3)
F9 F 0.3372(6) 0.5701(4) 0.2181(3)
C222 C 0.3653(9) 0.5920(6) 0.2434(5)
S4 S 0.1733(2) 0.58163(14) 0.35878(15)
O25 O 0.1889(7) 0.5396(4) 0.3487(5)
O26 O 0.1400(7) 0.6062(4) 0.3309(4)
O27 O 0.1459(7) 0.5847(5) 0.3957(4)
F10 F 0.2927(6) 0.5830(4) 0.3881(4)
F11 F 0.2851(7) 0.6018(5) 0.3335(4)
F12 F 0.2523(6) 0.6417(3) 0.3747(3)
C223 C 0.2479(10) 0.6038(6) 0.3641(6)
S5 S 0.05717(16) 0.15369(13) 0.51830(10)
O28 O 0.1252(4) 0.1491(4) 0.5243(3)
O29 O 0.0381(5) 0.1898(4) 0.4996(3)
O30 O 0.0176(5) 0.1434(5) 0.5463(3)
F13 F 0.0491(7) 0.0781(4) 0.4994(5)
F14 F 0.0693(7) 0.1167(4) 0.4578(4)
F15 F -0.0276(5) 0.1142(4) 0.4755(3)
C224 C 0.0360(9) 0.1152(6) 0.4863(6)
S6 S 0.20935(16) 0.54483(10) 0.12911(9)
O31 O 0.2044(5) 0.5029(3) 0.1199(3)
O32 O 0.2582(5) 0.5666(3) 0.1123(3)
O33 O 0.2038(5) 0.5537(4) 0.1665(3)
F16 F 0.0812(5) 0.5451(4) 0.1208(3)
F17 F 0.1250(5) 0.6044(3) 0.1130(4)
F18 F 0.1292(6) 0.5586(4) 0.0743(3)
C225 C 0.1332(8) 0.5635(5) 0.1091(5)
S7 S 0.88308(12) 0.35009(8) 0.34094(6)
O34 O 0.8623(3) 0.3118(2) 0.35514(18)
O35 O 0.8591(3) 0.3857(2) 0.35910(18)
O36 O 0.9515(3) 0.3519(2) 0.33224(18)
C226 C 0.8384(5) 0.3529(3) 0.2990(3)
F19 F 0.7741(3) 0.3468(2) 0.30167(17)
F20 F 0.8450(4) 0.38890(19) 0.28362(17)
F21 F 0.8599(3) 0.32435(18) 0.27632(15)
N26 N 0.5958(6) 0.1940(4) 0.3931(3)
C227 C 0.6134(7) 0.1687(5) 0.3751(4)
C228 C 0.6370(8) 0.1378(6) 0.3532(5)
H172 H 0.6659 0.1499 0.3360
H173 H 0.5998 0.1244 0.3407
H174 H 0.6619 0.1178 0.3675
N27 N 0.0433(17) 0.4851(10) 0.5753(9)
C229 C 0.101(2) 0.4885(13) 0.5900(12)
C230 C 0.1716(17) 0.4935(12) 0.6083(10)
H175 H 0.2046 0.4824 0.5930
H176 H 0.1735 0.4789 0.6308
H177 H 0.1805 0.5225 0.6126
N28 N 0.2170(8) 0.1230(4) 0.2925(3)
C231 C 0.2026(9) 0.1552(5) 0.2930(4)
C232 C 0.1801(12) 0.1969(5) 0.2961(7)
H178 H 0.1344 0.1970 0.3035
H179 H 0.1824 0.2106 0.2733
H180 H 0.2081 0.2113 0.3137
N29 N 0.6052(7) 0.2458(4) 0.5085(3)
C233 C 0.6353(8) 0.2514(4) 0.4840(3)
C234 C 0.6778(10) 0.2546(5) 0.4549(4)
H181 H 0.7200 0.2414 0.4609
H182 H 0.6853 0.2834 0.4496
H183 H 0.6570 0.2412 0.4342
N30 N 0.8138(7) 0.2940(5) 0.4957(5)
C235 C 0.7921(9) 0.3142(7) 0.5146(6)
C236 C 0.7596(14) 0.3417(9) 0.5372(7)
H184 H 0.7743 0.3696 0.5327
H185 H 0.7704 0.3346 0.5618
H186 H 0.7118 0.3399 0.5326
N31 N 0.0186(16) 0.4417(9) 0.1113(8)
C237 C 0.0631(19) 0.4379(11) 0.0983(10)
C238 C 0.120(2) 0.4343(15) 0.0821(13)
H187 H 0.1115 0.4373 0.0566
H188 H 0.1389 0.4075 0.0872
H189 H 0.1504 0.4556 0.0906
N32 N 0.2631(6) 0.2924(4) 0.2757(4)
C239 C 0.2724(8) 0.3263(5) 0.2729(5)
C240 C 0.284(2) 0.3731(8) 0.280(2)
H190 H 0.2620 0.3811 0.3013
H191 H 0.2661 0.3888 0.2599
H192 H 0.3315 0.3783 0.2831
C241 C 0.3468(16) 0.4974(10) 0.3271(9)
H193 H 0.3642 0.4718 0.3179
H194 H 0.3470 0.5182 0.3086
H195 H 0.3015 0.4930 0.3343
C242 C 0.3877(17) 0.5107(10) 0.3573(10)
N33 N 0.4303(19) 0.5188(11) 0.3876(10)
N34 N 0.2831(11) 0.5509(7) 0.4751(6)
C243 C 0.2646(14) 0.5303(9) 0.4538(8)
C244 C 0.2404(17) 0.4978(10) 0.4234(9)
H196 H 0.2788 0.4843 0.4139
H197 H 0.2160 0.5123 0.4043
H198 H 0.2117 0.4774 0.4336
N35 N 0.2061(13) 0.4713(9) 0.2702(7)
C245 C 0.1900(11) 0.5048(7) 0.2624(6)
C246 C 0.1735(11) 0.5476(7) 0.2551(6)
H199 H 0.1810 0.5638 0.2765
H200 H 0.1271 0.5497 0.2471
H201 H 0.2014 0.5580 0.2366
N36 N 0.6765(15) 0.5838(9) 0.3394(8)
C247 C 0.6183(11) 0.5708(6) 0.3389(6)
C248 C 0.5554(11) 0.5551(7) 0.3430(6)
H202 H 0.5515 0.5286 0.3312
H203 H 0.5226 0.5739 0.3325
H204 H 0.5478 0.5518 0.3681
loop_
_geom_bond_atom_site_label_1
_geom_bond_atom_site_label_2
_geom_bond_site_symmetry_1
_geom_bond_site_symmetry_2
Cd1 N1 1_555 1_555
Cd2 N11 1_555 1_555
Cd3 N3 1_555 1_555
Cd4 N7 1_555 1_555
Cd5 N15 1_555 1_555
N1 C1 1_555 1_555
N2 Cd1 1_555 1_555
N3 C24 1_555 1_555
N4 Cd3 1_555 1_555
N5 Cd1 1_555 1_555
N6 Cd1 1_555 1_555
N7 C60 1_555 1_555
N8 Cd4 1_555 1_555
N9 Cd1 1_555 1_555
N10 Cd1 1_555 1_555
N11 C96 1_555 1_555
N12 Cd2 1_555 1_555
N13 Cd2 1_555 1_555
N14 Cd2 1_555 1_555
N15 C132 1_555 1_555
N16 Cd5 1_555 1_555
N17 Cd3 1_555 1_555
N18 Cd3 1_555 1_555
N19 Cd5 1_555 1_555
N20 Cd5 1_555 1_555
N21 Cd4 1_555 1_555
N22 Cd4 1_555 1_555
N23 Cd5 1_555 1_555
N24 Cd5 1_555 1_555
C1 C2 1_555 1_555
C2 H1 1_555 1_555
C3 C2 1_555 1_555
H2 C3 1_555 1_555
C4 C3 1_555 1_555
C5 C4 1_555 1_555
H3 C5 1_555 1_555
C6 C1 1_555 1_555
H4 C6 1_555 1_555
C7 H5 1_555 1_555
H6 C7 1_555 1_555
H7 C7 1_555 1_555
C8 N1 1_555 1_555
H8 C8 1_555 1_555
C9 N2 1_555 1_555
C10 C9 1_555 1_555
H9 C10 1_555 1_555
C11 C10 1_555 1_555
H10 C11 1_555 1_555
C12 C11 1_555 1_555
C13 N2 1_555 1_555
H11 C13 1_555 1_555
C14 H12 1_555 1_555
C15 C12 1_555 1_555
C16 C15 1_555 1_555
H13 C16 1_555 1_555
C17 C16 1_555 1_555
H14 C17 1_555 1_555
C18 C17 1_555 1_555
C19 C14 1_555 1_555
C20 C19 1_555 1_555
H15 C20 1_555 1_555
C21 C20 1_555 1_555
C22 C21 1_555 1_555
H16 C22 1_555 1_555
C23 C18 1_555 1_555
H17 C23 1_555 1_555
C24 H18 1_555 1_555
C25 C21 1_555 1_555
C26 C25 1_555 1_555
H19 C26 1_555 1_555
C27 C26 1_555 1_555
H20 C27 1_555 1_555
C28 N3 1_555 1_555
C29 N4 1_555 1_555
H21 C29 1_555 1_555
C30 N4 1_555 1_555
C31 C30 1_555 1_555
H22 C31 1_555 1_555
C32 C31 1_555 1_555
H23 C32 1_555 1_555
C33 C32 1_555 1_555
C34 C33 1_555 1_555
H24 C34 1_555 1_555
C35 C30 1_555 1_555
H25 C35 1_555 1_555
C36 H26 1_555 1_555
H27 C36 1_555 1_555
H28 C36 1_555 1_555
C37 N5 1_555 1_555
C38 C37 1_555 1_555
H29 C38 1_555 1_555
C39 C38 1_555 1_555
H30 C39 1_555 1_555
C40 C39 1_555 1_555
C41 C40 1_555 1_555
H31 C41 1_555 1_555
C42 C37 1_555 1_555
H32 C42 1_555 1_555
C43 H33 1_555 1_555
H34 C43 1_555 1_555
H35 C43 1_555 1_555
C44 N5 1_555 1_555
H36 C44 1_555 1_555
C45 N6 1_555 1_555
C46 C45 1_555 1_555
H37 C46 1_555 1_555
C47 C46 1_555 1_555
H38 C47 1_555 1_555
C48 C47 1_555 1_555
C49 N6 1_555 1_555
H39 C49 1_555 1_555
C50 H40 1_555 1_555
C51 C48 1_555 1_555
C52 C51 1_555 1_555
H41 C52 1_555 1_555
C53 C52 1_555 1_555
H42 C53 1_555 1_555
C54 C53 1_555 1_555
C55 C50 1_555 1_555
C56 C55 1_555 1_555
H43 C56 1_555 1_555
C57 C56 1_555 1_555
C58 C57 1_555 1_555
H44 C58 1_555 1_555
C59 C54 1_555 1_555
H45 C59 1_555 1_555
C60 H46 1_555 1_555
C61 C57 1_555 1_555
C62 C61 1_555 1_555
H47 C62 1_555 1_555
C63 C62 1_555 1_555
H48 C63 1_555 1_555
C64 N7 1_555 1_555
C65 N8 1_555 1_555
H49 C65 1_555 1_555
C66 N8 1_555 1_555
C67 C66 1_555 1_555
H50 C67 1_555 1_555
C68 C67 1_555 1_555
H51 C68 1_555 1_555
C69 C68 1_555 1_555
C70 C69 1_555 1_555
H52 C70 1_555 1_555
C71 C66 1_555 1_555
H53 C71 1_555 1_555
C72 H54 1_555 1_555
H55 C72 1_555 1_555
H56 C72 1_555 1_555
O1 C69 1_555 1_555
C73 N9 1_555 1_555
C74 C73 1_555 1_555
H57 C74 1_555 1_555
C75 C74 1_555 1_555
H58 C75 1_555 1_555
C76 C75 1_555 1_555
C77 C76 1_555 1_555
H59 C77 1_555 1_555
C78 C73 1_555 1_555
H60 C78 1_555 1_555
C79 H61 1_555 1_555
H62 C79 1_555 1_555
H63 C79 1_555 1_555
C80 N9 1_555 1_555
H64 C80 1_555 1_555
C81 N10 1_555 1_555
C82 C81 1_555 1_555
H65 C82 1_555 1_555
C83 C82 1_555 1_555
H66 C83 1_555 1_555
C84 C83 1_555 1_555
C85 N10 1_555 1_555
H67 C85 1_555 1_555
C86 H68 1_555 1_555
C87 C86 1_555 1_555
H69 C87 1_555 1_555
C88 C84 1_555 1_555
C89 C88 1_555 1_555
H70 C89 1_555 1_555
C90 C89 1_555 1_555
C91 C86 1_555 1_555
C92 C91 1_555 1_555
H71 C92 1_555 1_555
C93 C92 1_555 1_555
H72 C93 1_555 1_555
C94 C93 1_555 1_555
C95 C90 1_555 1_555
H73 C95 1_555 1_555
C96 H74 1_555 1_555
C97 C94 1_555 1_555
C98 C97 1_555 1_555
H75 C98 1_555 1_555
C99 C98 1_555 1_555
H76 C99 1_555 1_555
C100 N11 1_555 1_555
C101 N12 1_555 1_555
H77 C101 1_555 1_555
C102 N12 1_555 1_555
C103 C102 1_555 1_555
H78 C103 1_555 1_555
C104 C103 1_555 1_555
H79 C104 1_555 1_555
C105 C104 1_555 1_555
C106 C105 1_555 1_555
H80 C106 1_555 1_555
C107 C102 1_555 1_555
H81 C107 1_555 1_555
C108 H82 1_555 1_555
H83 C108 1_555 1_555
H84 C108 1_555 1_555
C109 N13 1_555 1_555
C110 C109 1_555 1_555
H85 C110 1_555 1_555
C111 C110 1_555 1_555
H86 C111 1_555 1_555
C112 C111 1_555 1_555
C113 C112 1_555 1_555
H87 C113 1_555 1_555
C114 C109 1_555 1_555
H88 C114 1_555 1_555
C115 H89 1_555 1_555
H90 C115 1_555 1_555
H91 C115 1_555 1_555
C116 N13 1_555 1_555
H92 C116 1_555 1_555
C117 N14 1_555 1_555
C118 C117 1_555 1_555
H93 C118 1_555 1_555
C119 C118 1_555 1_555
H94 C119 1_555 1_555
C120 C119 1_555 1_555
C121 N14 1_555 1_555
H95 C121 1_555 1_555
C122 H96 1_555 1_555
C123 C122 1_555 1_555
H97 C123 1_555 1_555
C124 C120 1_555 1_555
C125 C124 1_555 1_555
H98 C125 1_555 1_555
C126 C125 1_555 1_555
C127 C122 1_555 1_555
C128 C127 1_555 1_555
H99 C128 1_555 1_555
C129 C128 1_555 1_555
H100 C129 1_555 1_555
C130 C129 1_555 1_555
C131 C126 1_555 1_555
H101 C131 1_555 1_555
C132 H102 1_555 1_555
C133 C130 1_555 1_555
C134 C133 1_555 1_555
H103 C134 1_555 1_555
C135 C134 1_555 1_555
H104 C135 1_555 1_555
C136 N15 1_555 1_555
C137 N16 1_555 1_555
H105 C137 1_555 1_555
C138 N16 1_555 1_555
C139 C138 1_555 1_555
H106 C139 1_555 1_555
C140 C139 1_555 1_555
H107 C140 1_555 1_555
C141 C140 1_555 1_555
C142 C141 1_555 1_555
H108 C142 1_555 1_555
C143 C138 1_555 1_555
H109 C143 1_555 1_555
C144 H110 1_555 1_555
H111 C144 1_555 1_555
H112 C144 1_555 1_555
C145 N17 1_555 1_555
C146 C145 1_555 1_555
H113 C146 1_555 1_555
C147 C146 1_555 1_555
H114 C147 1_555 1_555
C148 C147 1_555 1_555
C149 C148 1_555 1_555
H115 C149 1_555 1_555
C150 C145 1_555 1_555
H116 C150 1_555 1_555
C151 H117 1_555 1_555
H118 C151 1_555 1_555
H119 C151 1_555 1_555
C152 N17 1_555 1_555
H120 C152 1_555 1_555
C153 N18 1_555 1_555
C154 C153 1_555 1_555
H121 C154 1_555 1_555
C155 C154 1_555 1_555
H122 C155 1_555 1_555
C156 C155 1_555 1_555
C157 N18 1_555 1_555
H123 C157 1_555 1_555
C158 H124 1_555 1_555
C159 C158 1_555 1_555
H125 C159 1_555 1_555
C160 C156 1_555 1_555
C161 C160 1_555 1_555
H126 C161 1_555 1_555
C162 C161 1_555 1_555
C163 C158 1_555 1_555
C164 C163 1_555 1_555
H127 C164 1_555 1_555
C165 C164 1_555 1_555
H128 C165 1_555 1_555
C166 C165 1_555 1_555
C167 C162 1_555 1_555
H129 C167 1_555 1_555
C168 N19 1_555 1_555
H130 C168 1_555 1_555
C169 C166 1_555 1_555
C170 C169 1_555 1_555
H131 C170 1_555 1_555
C171 C170 1_555 1_555
H132 C171 1_555 1_555
C172 N19 1_555 1_555
C173 N20 1_555 1_555
H133 C173 1_555 1_555
C174 N20 1_555 1_555
C175 C174 1_555 1_555
H134 C175 1_555 1_555
C176 C175 1_555 1_555
H135 C176 1_555 1_555
C177 C176 1_555 1_555
C178 C177 1_555 1_555
H136 C178 1_555 1_555
C179 C174 1_555 1_555
H137 C179 1_555 1_555
C180 H138 1_555 1_555
H139 C180 1_555 1_555
H140 C180 1_555 1_555
O2 C184 1_555 1_555
C181 N21 1_555 1_555
C182 C181 1_555 1_555
H141 C182 1_555 1_555
C183 C182 1_555 1_555
H142 C183 1_555 1_555
C184 C183 1_555 1_555
C185 C184 1_555 1_555
H143 C185 1_555 1_555
C186 C181 1_555 1_555
H144 C186 1_555 1_555
C187 O2 1_555 1_555
H145 C187 1_555 1_555
H146 C187 1_555 1_555
H147 C187 1_555 1_555
C188 N21 1_555 1_555
H148 C188 1_555 1_555
C189 N22 1_555 1_555
C190 C189 1_555 1_555
H149 C190 1_555 1_555
C191 C190 1_555 1_555
H150 C191 1_555 1_555
C192 C191 1_555 1_555
C193 N22 1_555 1_555
H151 C193 1_555 1_555
C194 H152 1_555 1_555
C195 C194 1_555 1_555
H153 C195 1_555 1_555
C196 C192 1_555 1_555
C197 C196 1_555 1_555
H154 C197 1_555 1_555
C198 C197 1_555 1_555
C199 C194 1_555 1_555
C200 C199 1_555 1_555
H155 C200 1_555 1_555
C201 C200 1_555 1_555
H156 C201 1_555 1_555
C202 C201 1_555 1_555
C203 C198 1_555 1_555
H157 C203 1_555 1_555
C204 N23 1_555 1_555
H158 C204 1_555 1_555
C205 C202 1_555 1_555
C206 C205 1_555 1_555
H159 C206 1_555 1_555
C207 C206 1_555 1_555
H160 C207 1_555 1_555
C208 N23 1_555 1_555
C209 N24 1_555 1_555
H161 C209 1_555 1_555
C210 N24 1_555 1_555
C211 C210 1_555 1_555
H162 C211 1_555 1_555
C212 C211 1_555 1_555
H163 C212 1_555 1_555
C213 C212 1_555 1_555
C214 C213 1_555 1_555
H164 C214 1_555 1_555
C215 C210 1_555 1_555
H165 C215 1_555 1_555
C216 H166 1_555 1_555
H167 C216 1_555 1_555
H168 C216 1_555 1_555
C217 O3 1_555 1_555
O3 Cd2 1_555 1_555
O4 Cd4 1_555 1_555
O5 Cd3 1_555 1_555
O6 C4 1_555 1_555
O7 C33 1_555 1_555
O8 C40 1_555 1_555
O9 C76 1_555 1_555
O10 C105 1_555 1_555
O11 C112 1_555 1_555
O12 C141 1_555 1_555
O13 C148 1_555 1_555
O14 C177 1_555 1_555
O15 C213 1_555 1_555
S1 O16 1_555 1_555
O16 Cd3 1_555 1_555
O17 Cd4 1_555 1_555
O18 Cd2 1_555 1_555
F1 C218 1_555 1_555
F2 C218 1_555 1_555
F3 C218 1_555 1_555
C218 S1 1_555 1_555
N25 C219 1_555 1_555
C219 C220 1_555 1_555
C220 H169 1_555 1_555
H170 C220 1_555 1_555
H171 C220 1_555 1_555
S2 O19 1_555 1_555
O20 S2 1_555 1_555
O21 S2 1_555 1_555
F4 C221 1_555 1_555
F5 C221 1_555 1_555
F6 C221 1_555 1_555
C221 S2 1_555 1_555
S3 O22 1_555 1_555
O23 S3 1_555 1_555
O24 S3 1_555 1_555
F7 C222 1_555 1_555
F8 C222 1_555 1_555
F9 C222 1_555 1_555
C222 S3 1_555 1_555
S4 O25 1_555 1_555
O26 S4 1_555 1_555
O27 S4 1_555 1_555
F10 C223 1_555 1_555
F11 C223 1_555 1_555
F12 C223 1_555 1_555
C223 S4 1_555 1_555
S5 O28 1_555 1_555
O29 S5 1_555 1_555
O30 S5 1_555 1_555
F13 C224 1_555 1_555
F14 C224 1_555 1_555
F15 C224 1_555 1_555
C224 S5 1_555 1_555
S6 O31 1_555 1_555
O32 S6 1_555 1_555
O33 S6 1_555 1_555
F16 C225 1_555 1_555
F17 C225 1_555 1_555
F18 C225 1_555 1_555
C225 S6 1_555 1_555
S7 O34 1_555 1_555
O35 S7 1_555 1_555
O36 S7 1_555 1_555
C226 S7 1_555 1_555
F19 C226 1_555 1_555
F20 C226 1_555 1_555
F21 C226 1_555 1_555
N26 C227 1_555 1_555
C227 C228 1_555 1_555
C228 H172 1_555 1_555
H173 C228 1_555 1_555
H174 C228 1_555 1_555
N27 C229 1_555 1_555
C229 C230 1_555 1_555
C230 H175 1_555 1_555
H176 C230 1_555 1_555
H177 C230 1_555 1_555
N28 C231 1_555 1_555
C231 C232 1_555 1_555
C232 H178 1_555 1_555
H179 C232 1_555 1_555
H180 C232 1_555 1_555
N29 C233 1_555 1_555
C233 C234 1_555 1_555
C234 H181 1_555 1_555
H182 C234 1_555 1_555
H183 C234 1_555 1_555
N30 C235 1_555 1_555
C235 C236 1_555 1_555
C236 H184 1_555 1_555
H185 C236 1_555 1_555
H186 C236 1_555 1_555
N31 C237 1_555 1_555
C237 C238 1_555 1_555
C238 H187 1_555 1_555
H188 C238 1_555 1_555
H189 C238 1_555 1_555
N32 C239 1_555 1_555
C239 C240 1_555 1_555
C240 H190 1_555 1_555
H191 C240 1_555 1_555
H192 C240 1_555 1_555
C241 H193 1_555 1_555
H194 C241 1_555 1_555
H195 C241 1_555 1_555
C242 C241 1_555 1_555
N33 C242 1_555 1_555
N34 C243 1_555 1_555
C243 C244 1_555 1_555
C244 H196 1_555 1_555
H197 C244 1_555 1_555
H198 C244 1_555 1_555
N35 C245 1_555 1_555
C245 C246 1_555 1_555
C246 H199 1_555 1_555
H200 C246 1_555 1_555
H201 C246 1_555 1_555
N36 C247 1_555 1_555
C247 C248 1_555 1_555
C248 H202 1_555 1_555
H203 C248 1_555 1_555
H204 C248 1_555 1_555
C5 C6 1_555 1_555
C7 O6 1_555 1_555
C8 C9 1_555 1_555
C12 C13 1_555 1_555
C14 C15 1_555 1_555
C18 C19 1_555 1_555
C22 C23 1_555 1_555
C24 C25 1_555 1_555
C27 C28 1_555 1_555
C28 C29 1_555 1_555
C34 C35 1_555 1_555
C36 O7 1_555 1_555
C41 C42 1_555 1_555
C43 O8 1_555 1_555
C44 C45 1_555 1_555
C48 C49 1_555 1_555
C50 C51 1_555 1_555
C54 C55 1_555 1_555
C58 C59 1_555 1_555
C60 C61 1_555 1_555
C63 C64 1_555 1_555
C64 C65 1_555 1_555
C70 C71 1_555 1_555
C72 O1 1_555 1_555
C77 C78 1_555 1_555
C79 O9 1_555 1_555
C80 C81 1_555 1_555
C84 C85 1_555 1_555
C87 C88 1_555 1_555
C90 C91 1_555 1_555
C94 C95 1_555 1_555
C96 C97 1_555 1_555
C99 C100 1_555 1_555
C100 C101 1_555 1_555
C106 C107 1_555 1_555
C108 O10 1_555 1_555
C113 C114 1_555 1_555
C115 O11 1_555 1_555
C116 C117 1_555 1_555
C120 C121 1_555 1_555
C123 C124 1_555 1_555
C126 C127 1_555 1_555
C130 C131 1_555 1_555
C132 C133 1_555 1_555
C135 C136 1_555 1_555
C136 C137 1_555 1_555
C142 C143 1_555 1_555
C144 O12 1_555 1_555
C149 C150 1_555 1_555
C151 O13 1_555 1_555
C152 C153 1_555 1_555
C156 C157 1_555 1_555
C159 C160 1_555 1_555
C162 C163 1_555 1_555
C166 C167 1_555 1_555
C168 C169 1_555 1_555
C171 C172 1_555 1_555
C172 C173 1_555 1_555
C178 C179 1_555 1_555
C180 O14 1_555 1_555
C185 C186 1_555 1_555
C188 C189 1_555 1_555
C192 C193 1_555 1_555
C195 C196 1_555 1_555
C198 C199 1_555 1_555
C202 C203 1_555 1_555
C204 C205 1_555 1_555
C207 C208 1_555 1_555
C208 C209 1_555 1_555
C214 C215 1_555 1_555
C216 O15 1_555 1_555
C217 O4 1_555 1_555
C217 O5 1_555 1_555
S1 O17 1_555 1_555
S1 O18 1_555 1_555

#END
