# generated using pymatgen
data_Fe4B11H198C241N29O17F49
_symmetry_space_group_name_H-M   'P 1'
_cell_length_a   15.94670000
_cell_length_b   22.94090000
_cell_length_c   37.51300000
_cell_angle_alpha   99.64500000
_cell_angle_beta   92.89300000
_cell_angle_gamma   106.16000000
_symmetry_Int_Tables_number   1
_chemical_formula_structural   Fe4B11H198C241N29O17F49
_chemical_formula_sum   'Fe8 B22 H396 C482 N58 O34 F98'
_cell_volume   12926.38040751
_cell_formula_units_Z   2
loop_
 _symmetry_equiv_pos_site_id
 _symmetry_equiv_pos_as_xyz
  1  'x, y, z'
loop_
 _atom_site_type_symbol
 _atom_site_label
 _atom_site_symmetry_multiplicity
 _atom_site_fract_x
 _atom_site_fract_y
 _atom_site_fract_z
 _atom_site_occupancy
  Fe  Fe1  1  0.745220  0.737440  0.153580  1.0
  Fe  Fe2  1  0.254780  0.262560  0.846420  1.0
  Fe  Fe3  1  0.186280  0.322660  0.146490  1.0
  Fe  Fe4  1  0.813720  0.677340  0.853510  1.0
  Fe  Fe5  1  0.170600  0.703780  0.342020  1.0
  Fe  Fe6  1  0.829400  0.296220  0.657980  1.0
  Fe  Fe7  1  0.637280  0.291430  0.369230  1.0
  Fe  Fe8  1  0.362720  0.708570  0.630770  1.0
  B  B9  1  0.151800  0.272900  0.997300  1
  B  B10  1  0.848200  0.727100  0.002700  1
  B  B11  1  0.459700  0.459600  0.283800  1
  B  B12  1  0.540300  0.540400  0.716200  1
  B  B13  1  0.660800  0.274300  0.524200  1
  B  B14  1  0.339200  0.725700  0.475800  1
  B  B15  1  0.283400  0.104600  0.085400  1
  B  B16  1  0.716600  0.895400  0.914600  1
  B  B17  1  0.459900  0.693500  0.257900  1
  B  B18  1  0.540100  0.306500  0.742100  1
  B  B19  1  0.818100  0.332200  0.209800  1
  B  B20  1  0.181900  0.667800  0.790200  1
  B  B21  1  0.061800  0.557100  0.212360  1
  B  B22  1  0.938200  0.442900  0.787640  1
  B  B23  1  0.970600  0.165100  0.334700  1
  B  B24  1  0.029400  0.834900  0.665300  1
  B  B25  1  0.140500  0.254600  0.994500  1
  B  B26  1  0.859500  0.745400  0.005500  1
  B  B27  1  0.636700  0.256500  0.521100  1
  B  B28  1  0.363300  0.743500  0.478900  1
  B  B29  1  0.982800  0.986700  0.040600  1
  B  B30  1  0.017200  0.013300  0.959400  1
  H  H31  1  0.983800  0.098500  0.197100  1
  H  H32  1  0.016200  0.901500  0.802900  1
  H  H33  1  0.012900  0.102400  0.239100  1
  H  H34  1  0.987100  0.897600  0.760900  1
  H  H35  1  0.924700  0.117900  0.227500  1
  H  H36  1  0.075300  0.882100  0.772500  1
  H  H37  1  0.382600  0.937700  0.252400  1
  H  H38  1  0.617400  0.062300  0.747600  1
  H  H39  1  0.290300  0.935800  0.267900  1
  H  H40  1  0.709700  0.064200  0.732100  1
  H  H41  1  0.364300  0.919200  0.291200  1
  H  H42  1  0.635700  0.080800  0.708800  1
  H  H43  1  0.857600  0.486300  0.270300  1
  H  H44  1  0.142400  0.513700  0.729700  1
  H  H45  1  0.866400  0.494700  0.229100  1
  H  H46  1  0.133600  0.505300  0.770900  1
  H  H47  1  0.771400  0.470900  0.242600  1
  H  H48  1  0.228600  0.529100  0.757400  1
  H  H49  1  0.322100  0.998600  0.139100  1
  H  H50  1  0.677900  0.001400  0.860900  1
  H  H51  1  0.416200  0.048800  0.149500  1
  H  H52  1  0.583800  0.951200  0.850500  1
  H  H53  1  0.335500  0.055900  0.171900  1
  H  H54  1  0.664500  0.944100  0.828100  1
  H  H55  1  0.418100  0.314400  0.497100  1
  H  H56  1  0.581900  0.685600  0.502900  1
  H  H57  1  0.470500  0.268200  0.479700  1
  H  H58  1  0.529500  0.731800  0.520300  1
  H  H59  1  0.369000  0.242000  0.485400  1
  H  H60  1  0.631000  0.758000  0.514600  1
  H  H61  1  0.720300  0.705200  0.473100  1
  H  H62  1  0.279700  0.294800  0.526900  1
  H  H63  1  0.740300  0.735200  0.437700  1
  H  H64  1  0.259700  0.264800  0.562300  1
  H  H65  1  0.752800  0.668700  0.438900  1
  H  H66  1  0.247200  0.331300  0.561100  1
  H  H67  1  0.508700  0.643300  0.366200  1
  H  H68  1  0.491300  0.356700  0.633800  1
  H  H69  1  0.465600  0.662100  0.402200  1
  H  H70  1  0.534400  0.337900  0.597800  1
  H  H71  1  0.508900  0.760000  0.388300  1
  H  H72  1  0.491100  0.240000  0.611700  1
  H  H73  1  0.422600  0.708600  0.367700  1
  H  H74  1  0.577400  0.291400  0.632300  1
  H  H75  1  0.511400  0.722700  0.348400  1
  H  H76  1  0.488600  0.277300  0.651600  1
  H  H77  1  0.772000  0.572500  0.761600  1
  H  H78  1  0.228000  0.427500  0.238400  1
  H  H79  1  0.711300  0.580400  0.705200  1
  H  H80  1  0.288700  0.419600  0.294800  1
  H  H81  1  0.861300  0.758700  0.719300  1
  H  H82  1  0.138700  0.241300  0.280700  1
  H  H83  1  0.922000  0.750800  0.775800  1
  H  H84  1  0.078000  0.249200  0.224200  1
  H  H85  1  0.761200  0.716200  0.628400  1
  H  H86  1  0.238800  0.283800  0.371600  1
  H  H87  1  0.803900  0.761000  0.666200  1
  H  H88  1  0.196100  0.239000  0.333800  1
  H  H89  1  0.850800  0.712200  0.647600  1
  H  H90  1  0.149200  0.287800  0.352400  1
  H  H91  1  0.840200  0.620100  0.921400  1.0
  H  H92  1  0.159800  0.379900  0.078600  1.0
  H  H93  1  0.650000  0.585600  0.119800  1.0
  H  H94  1  0.350000  0.414400  0.880200  1.0
  H  H95  1  0.646700  0.484700  0.128800  1.0
  H  H96  1  0.353300  0.515300  0.871200  1.0
  H  H97  1  0.596500  0.526400  0.232000  1.0
  H  H98  1  0.403500  0.473600  0.768000  1.0
  H  H99  1  0.604300  0.626400  0.225300  1.0
  H  H100  1  0.395700  0.373600  0.774700  1.0
  H  H101  1  0.622800  0.386600  0.144700  1.0
  H  H102  1  0.377200  0.613400  0.855300  1.0
  H  H103  1  0.670500  0.370600  0.178800  1.0
  H  H104  1  0.329500  0.629400  0.821200  1.0
  H  H105  1  0.718200  0.429500  0.162100  1.0
  H  H106  1  0.281800  0.570500  0.837900  1.0
  H  H107  1  0.529900  0.682100  0.188800  1.0
  H  H108  1  0.470100  0.317900  0.811200  1.0
  H  H109  1  0.480000  0.782600  0.191600  1.0
  H  H110  1  0.520000  0.217400  0.808400  1.0
  H  H111  1  0.515000  0.885300  0.184400  1.0
  H  H112  1  0.485000  0.114700  0.815600  1.0
  H  H113  1  0.749300  0.873600  0.155400  1.0
  H  H114  1  0.250700  0.126400  0.844600  1.0
  H  H115  1  0.765400  0.955400  0.134700  1.0
  H  H116  1  0.234600  0.044600  0.865300  1.0
  H  H117  1  0.572500  0.981600  0.196200  1.0
  H  H118  1  0.427500  0.018400  0.803800  1.0
  H  H119  1  0.620600  0.086100  0.197400  1.0
  H  H120  1  0.379400  0.913900  0.802600  1.0
  H  H121  1  0.871800  0.045600  0.117700  1.0
  H  H122  1  0.128200  0.954400  0.882300  1.0
  H  H123  1  0.853600  0.218100  0.154200  1.0
  H  H124  1  0.146400  0.781900  0.845800  1.0
  H  H125  1  0.732900  0.177400  0.183000  1.0
  H  H126  1  0.267100  0.822600  0.817000  1.0
  H  H127  1  0.002300  0.237100  0.158000  1.0
  H  H128  1  0.997700  0.762900  0.842000  1.0
  H  H129  1  0.942100  0.095300  0.072300  1.0
  H  H130  1  0.057900  0.904700  0.927700  1.0
  H  H131  1  0.075300  0.141600  0.050600  1.0
  H  H132  1  0.924700  0.858400  0.949400  1.0
  H  H133  1  0.224500  0.230300  0.061600  1.0
  H  H134  1  0.775500  0.769700  0.938400  1.0
  H  H135  1  0.310900  0.396900  0.074100  1.0
  H  H136  1  0.689100  0.603100  0.925900  1.0
  H  H137  1  0.452100  0.433300  0.057000  1.0
  H  H138  1  0.547900  0.566700  0.943000  1.0
  H  H139  1  0.524700  0.305100  0.101400  1.0
  H  H140  1  0.475300  0.694900  0.898600  1.0
  H  H141  1  0.380400  0.264200  0.114700  1.0
  H  H142  1  0.619600  0.735800  0.885300  1.0
  H  H143  1  0.590400  0.413200  0.022000  1.0
  H  H144  1  0.409600  0.586800  0.978000  1.0
  H  H145  1  0.668100  0.457800  0.051200  1.0
  H  H146  1  0.331900  0.542200  0.948800  1.0
  H  H147  1  0.570800  0.464100  0.052500  1.0
  H  H148  1  0.429200  0.535900  0.947500  1.0
  H  H149  1  0.694900  0.640300  0.044500  1.0
  H  H150  1  0.305100  0.359700  0.955500  1.0
  H  H151  1  0.572600  0.556800  0.017000  1.0
  H  H152  1  0.427400  0.443200  0.983000  1.0
  H  H153  1  0.415100  0.625900  0.081200  1.0
  H  H154  1  0.584900  0.374100  0.918800  1.0
  H  H155  1  0.535400  0.706500  0.110600  1.0
  H  H156  1  0.464600  0.293500  0.889400  1.0
  H  H157  1  0.333900  0.526800  0.068600  1.0
  H  H158  1  0.666100  0.473200  0.931400  1.0
  H  H159  1  0.292900  0.482900  0.030300  1.0
  H  H160  1  0.707100  0.517100  0.969700  1.0
  H  H161  1  0.308900  0.556000  0.035200  1.0
  H  H162  1  0.691100  0.444000  0.964800  1.0
  H  H163  1  0.740100  0.762300  0.059100  1.0
  H  H164  1  0.259900  0.237700  0.940900  1.0
  H  H165  1  0.892400  0.852000  0.065900  1.0
  H  H166  1  0.107600  0.148000  0.934100  1.0
  H  H167  1  0.007700  0.919400  0.104500  1.0
  H  H168  1  0.992300  0.080600  0.895500  1.0
  H  H169  1  0.922400  0.831700  0.184600  1.0
  H  H170  1  0.077600  0.168300  0.815400  1.0
  H  H171  1  0.072900  0.995100  0.144300  1.0
  H  H172  1  0.927100  0.004900  0.855700  1.0
  H  H173  1  0.040600  0.880500  0.217700  1.0
  H  H174  1  0.959400  0.119500  0.782300  1.0
  H  H175  1  0.142500  0.953400  0.259200  1.0
  H  H176  1  0.857500  0.046600  0.740800  1.0
  H  H177  1  0.171600  0.100300  0.162500  1.0
  H  H178  1  0.828400  0.899700  0.837500  1.0
  H  H179  1  0.302000  0.159900  0.264800  1.0
  H  H180  1  0.698000  0.840100  0.735200  1.0
  H  H181  1  0.242700  0.063600  0.278800  1.0
  H  H182  1  0.757300  0.936400  0.721200  1.0
  H  H183  1  0.178100  0.196700  0.167500  1.0
  H  H184  1  0.821900  0.803300  0.832500  1.0
  H  H185  1  0.392100  0.231200  0.238500  1.0
  H  H186  1  0.607900  0.768800  0.761500  1.0
  H  H187  1  0.437300  0.329700  0.226600  1.0
  H  H188  1  0.562700  0.670300  0.773400  1.0
  H  H189  1  0.401400  0.414300  0.194600  1.0
  H  H190  1  0.598600  0.585700  0.805400  1.0
  H  H191  1  0.192500  0.471900  0.177200  1.0
  H  H192  1  0.807500  0.528100  0.822800  1.0
  H  H193  1  0.224200  0.575200  0.171100  1.0
  H  H194  1  0.775800  0.424800  0.828900  1.0
  H  H195  1  0.459000  0.569600  0.137800  1.0
  H  H196  1  0.541000  0.430400  0.862200  1.0
  H  H197  1  0.430400  0.467800  0.144500  1.0
  H  H198  1  0.569600  0.532200  0.855500  1.0
  H  H199  1  0.247000  0.653000  0.139700  1.0
  H  H200  1  0.753000  0.347000  0.860300  1.0
  H  H201  1  0.324700  0.716500  0.149300  1.0
  H  H202  1  0.675300  0.283500  0.850700  1.0
  H  H203  1  0.293100  0.678000  0.180500  1.0
  H  H204  1  0.706900  0.322000  0.819500  1.0
  H  H205  1  0.714800  0.772400  0.318100  1.0
  H  H206  1  0.285200  0.227600  0.681900  1.0
  H  H207  1  0.727100  0.712100  0.263600  1.0
  H  H208  1  0.272900  0.287900  0.736400  1.0
  H  H209  1  0.830300  0.866100  0.223100  1.0
  H  H210  1  0.169700  0.133900  0.776900  1.0
  H  H211  1  0.823300  0.926300  0.280100  1.0
  H  H212  1  0.176700  0.073700  0.719900  1.0
  H  H213  1  0.654300  0.846000  0.353700  1.0
  H  H214  1  0.345700  0.154000  0.646300  1.0
  H  H215  1  0.720800  0.895800  0.385100  1.0
  H  H216  1  0.279200  0.104200  0.614900  1.0
  H  H217  1  0.739800  0.831700  0.369800  1.0
  H  H218  1  0.260200  0.168300  0.630200  1.0
  H  H219  1  0.853100  0.699700  0.231900  1.0
  H  H220  1  0.146900  0.300300  0.768100  1.0
  H  H221  1  0.910200  0.610900  0.197400  1.0
  H  H222  1  0.089800  0.389100  0.802600  1.0
  H  H223  1  0.917200  0.550300  0.142900  1.0
  H  H224  1  0.082800  0.449700  0.857100  1.0
  H  H225  1  0.800700  0.652400  0.091500  1.0
  H  H226  1  0.199300  0.347600  0.908500  1.0
  H  H227  1  0.886300  0.625400  0.046600  1.0
  H  H228  1  0.113700  0.374600  0.953400  1.0
  H  H229  1  0.836600  0.473000  0.092000  1.0
  H  H230  1  0.163400  0.527000  0.908000  1.0
  H  H231  1  0.848300  0.414000  0.037700  1.0
  H  H232  1  0.151700  0.586000  0.962300  1.0
  H  H233  1  0.908200  0.618100  0.981300  1.0
  H  H234  1  0.091800  0.381900  0.018700  1.0
  H  H235  1  0.904000  0.452300  0.921900  1.0
  H  H236  1  0.096000  0.547700  0.078100  1.0
  H  H237  1  0.879100  0.406300  0.971800  1.0
  H  H238  1  0.120900  0.593700  0.028200  1.0
  H  H239  1  0.015000  0.525800  0.895900  1.0
  H  H240  1  0.985000  0.474200  0.104100  1.0
  H  H241  1  0.037700  0.571800  0.844300  1.0
  H  H242  1  0.962300  0.428200  0.155700  1.0
  H  H243  1  0.977900  0.630500  0.799500  1.0
  H  H244  1  0.022100  0.369500  0.200500  1.0
  H  H245  1  0.979200  0.760700  0.787000  1.0
  H  H246  1  0.020800  0.239300  0.213000  1.0
  H  H247  1  0.953800  0.793800  0.732800  1.0
  H  H248  1  0.046200  0.206200  0.267200  1.0
  H  H249  1  0.734000  0.648700  0.705000  1.0
  H  H250  1  0.266000  0.351300  0.295000  1.0
  H  H251  1  0.759400  0.615600  0.759100  1.0
  H  H252  1  0.240600  0.384400  0.240900  1.0
  H  H253  1  0.748000  0.732100  0.639200  1.0
  H  H254  1  0.252000  0.267900  0.360800  1.0
  H  H255  1  0.751200  0.670900  0.653600  1.0
  H  H256  1  0.248800  0.329100  0.346400  1.0
  H  H257  1  0.702500  0.716300  0.674800  1.0
  H  H258  1  0.297500  0.283700  0.325200  1.0
  H  H259  1  0.111900  0.556900  0.290500  1.0
  H  H260  1  0.888100  0.443100  0.709500  1.0
  H  H261  1  0.073200  0.450300  0.286300  1.0
  H  H262  1  0.926800  0.549700  0.713700  1.0
  H  H263  1  0.910500  0.464200  0.364600  1.0
  H  H264  1  0.089500  0.535800  0.635400  1.0
  H  H265  1  0.946000  0.571600  0.367600  1.0
  H  H266  1  0.054000  0.428400  0.632400  1.0
  H  H267  1  0.981900  0.348700  0.276800  1.0
  H  H268  1  0.018100  0.651300  0.723200  1.0
  H  H269  1  0.980200  0.305800  0.306500  1.0
  H  H270  1  0.019800  0.694200  0.693500  1.0
  H  H271  1  0.064200  0.363700  0.306600  1.0
  H  H272  1  0.935800  0.636300  0.693400  1.0
  H  H273  1  0.930500  0.635800  0.325600  1.0
  H  H274  1  0.069500  0.364200  0.674400  1.0
  H  H275  1  0.886700  0.737000  0.324700  1.0
  H  H276  1  0.113300  0.263000  0.675300  1.0
  H  H277  1  0.932100  0.844300  0.327400  1.0
  H  H278  1  0.067900  0.155700  0.672600  1.0
  H  H279  1  0.181800  0.840400  0.340000  1.0
  H  H280  1  0.818200  0.159600  0.660000  1.0
  H  H281  1  0.211100  0.933200  0.368500  1.0
  H  H282  1  0.788900  0.066800  0.631500  1.0
  H  H283  1  0.986600  0.934900  0.314300  1.0
  H  H284  1  0.013400  0.065100  0.685700  1.0
  H  H285  1  0.037500  0.041800  0.319900  1.0
  H  H286  1  0.962500  0.958200  0.680100  1.0
  H  H287  1  0.332400  0.030300  0.387300  1.0
  H  H288  1  0.667600  0.969700  0.612700  1.0
  H  H289  1  0.301200  0.190300  0.365400  1.0
  H  H290  1  0.698800  0.809700  0.634600  1.0
  H  H291  1  0.159700  0.141000  0.339900  1.0
  H  H292  1  0.840300  0.859000  0.660100  1.0
  H  H293  1  0.445100  0.206200  0.358100  1.0
  H  H294  1  0.554900  0.793800  0.641900  1.0
  H  H295  1  0.433400  0.098800  0.433900  1.0
  H  H296  1  0.566600  0.901200  0.566100  1.0
  H  H297  1  0.576700  0.153100  0.455600  1.0
  H  H298  1  0.423300  0.846900  0.544400  1.0
  H  H299  1  0.719600  0.241600  0.449300  1.0
  H  H300  1  0.280400  0.758400  0.550700  1.0
  H  H301  1  0.858300  0.311700  0.377900  1.0
  H  H302  1  0.141700  0.688300  0.622100  1.0
  H  H303  1  0.994700  0.386200  0.395700  1.0
  H  H304  1  0.005300  0.613800  0.604300  1.0
  H  H305  1  0.905800  0.440700  0.491300  1.0
  H  H306  1  0.094200  0.559300  0.508700  1.0
  H  H307  1  0.773200  0.363900  0.473700  1.0
  H  H308  1  0.226800  0.636100  0.526300  1.0
  H  H309  1  0.137300  0.447900  0.431600  1.0
  H  H310  1  0.862700  0.552100  0.568400  1.0
  H  H311  1  0.144600  0.519900  0.436400  1.0
  H  H312  1  0.855400  0.480100  0.563600  1.0
  H  H313  1  0.077000  0.471000  0.405000  1.0
  H  H314  1  0.923000  0.529000  0.595000  1.0
  H  H315  1  0.111400  0.616100  0.423000  1.0
  H  H316  1  0.888600  0.383900  0.577000  1.0
  H  H317  1  0.995800  0.578200  0.456100  1.0
  H  H318  1  0.004200  0.421800  0.543900  1.0
  H  H319  1  0.895100  0.715900  0.437100  1.0
  H  H320  1  0.104900  0.284100  0.562900  1.0
  H  H321  1  0.017400  0.754900  0.407000  1.0
  H  H322  1  0.982600  0.245100  0.593000  1.0
  H  H323  1  0.846300  0.530600  0.466200  1.0
  H  H324  1  0.153700  0.469400  0.533800  1.0
  H  H325  1  0.821100  0.565000  0.503000  1.0
  H  H326  1  0.178900  0.435000  0.497000  1.0
  H  H327  1  0.922000  0.574400  0.496400  1.0
  H  H328  1  0.078000  0.425600  0.503600  1.0
  H  H329  1  0.208300  0.775100  0.440400  1.0
  H  H330  1  0.791700  0.224900  0.559600  1.0
  H  H331  1  0.351500  0.861500  0.441100  1.0
  H  H332  1  0.648500  0.138500  0.558900  1.0
  H  H333  1  0.460500  0.911000  0.407300  1.0
  H  H334  1  0.539500  0.089000  0.592700  1.0
  H  H335  1  0.343900  0.785500  0.318200  1.0
  H  H336  1  0.656100  0.214500  0.681800  1.0
  H  H337  1  0.582900  0.849100  0.266500  1.0
  H  H338  1  0.417100  0.150900  0.733500  1.0
  H  H339  1  0.484100  0.804200  0.302700  1.0
  H  H340  1  0.515900  0.195800  0.697300  1.0
  H  H341  1  0.500400  0.971900  0.363200  1.0
  H  H342  1  0.499600  0.028100  0.636800  1.0
  H  H343  1  0.684900  0.944400  0.250700  1.0
  H  H344  1  0.315100  0.055600  0.749300  1.0
  H  H345  1  0.740200  0.050400  0.261000  1.0
  H  H346  1  0.259800  0.949600  0.739000  1.0
  H  H347  1  0.598100  0.066400  0.346000  1.0
  H  H348  1  0.401900  0.933600  0.654000  1.0
  H  H349  1  0.638900  0.156000  0.352100  1.0
  H  H350  1  0.361100  0.844000  0.647900  1.0
  H  H351  1  0.775000  0.144000  0.264700  1.0
  H  H352  1  0.225000  0.856000  0.735300  1.0
  H  H353  1  0.809200  0.251900  0.270200  1.0
  H  H354  1  0.190800  0.748100  0.729800  1.0
  H  H355  1  0.787600  0.356000  0.304700  1.0
  H  H356  1  0.212400  0.644000  0.695300  1.0
  H  H357  1  0.763500  0.436300  0.406700  1.0
  H  H358  1  0.236500  0.563700  0.593300  1.0
  H  H359  1  0.773700  0.542800  0.416400  1.0
  H  H360  1  0.226300  0.457200  0.583600  1.0
  H  H361  1  0.696600  0.526100  0.310300  1.0
  H  H362  1  0.303400  0.473900  0.689700  1.0
  H  H363  1  0.689200  0.421800  0.300300  1.0
  H  H364  1  0.310800  0.578200  0.699700  1.0
  H  H365  1  0.733700  0.626900  0.322400  1.0
  H  H366  1  0.266300  0.373100  0.677600  1.0
  H  H367  1  0.713500  0.676900  0.353300  1.0
  H  H368  1  0.286500  0.323100  0.646700  1.0
  H  H369  1  0.640400  0.612400  0.338300  1.0
  H  H370  1  0.359600  0.387600  0.661700  1.0
  H  H371  1  0.590800  0.335700  0.269000  1.0
  H  H372  1  0.409200  0.664300  0.731000  1.0
  H  H373  1  0.588100  0.282700  0.210600  1.0
  H  H374  1  0.411900  0.717300  0.789400  1.0
  H  H375  1  0.493500  0.120000  0.243900  1.0
  H  H376  1  0.506500  0.880000  0.756100  1.0
  H  H377  1  0.504800  0.171500  0.302600  1.0
  H  H378  1  0.495200  0.828500  0.697400  1.0
  H  H379  1  0.503500  0.216900  0.156600  1.0
  H  H380  1  0.496500  0.783100  0.843400  1.0
  H  H381  1  0.534700  0.162000  0.134600  1.0
  H  H382  1  0.465300  0.838000  0.865400  1.0
  H  H383  1  0.605100  0.219800  0.159900  1.0
  H  H384  1  0.394900  0.780200  0.840100  1.0
  H  H385  1  0.481400  0.347100  0.316700  1.0
  H  H386  1  0.518600  0.652900  0.683300  1.0
  H  H387  1  0.470400  0.437700  0.366900  1.0
  H  H388  1  0.529600  0.562300  0.633100  1.0
  H  H389  1  0.510800  0.491200  0.425800  1.0
  H  H390  1  0.489200  0.508800  0.574200  1.0
  H  H391  1  0.635000  0.366800  0.445100  1.0
  H  H392  1  0.365000  0.633200  0.554900  1.0
  H  H393  1  0.654200  0.606300  0.530100  1.0
  H  H394  1  0.345800  0.393700  0.469900  1.0
  H  H395  1  0.607000  0.553900  0.472000  1.0
  H  H396  1  0.393000  0.446100  0.528000  1.0
  H  H397  1  0.612900  0.392000  0.501600  1.0
  H  H398  1  0.387100  0.608000  0.498400  1.0
  H  H399  1  0.701500  0.606500  0.594900  1.0
  H  H400  1  0.298500  0.393500  0.405100  1.0
  H  H401  1  0.728800  0.553100  0.639300  1.0
  H  H402  1  0.271200  0.446900  0.360700  1.0
  H  H403  1  0.659400  0.392200  0.566000  1.0
  H  H404  1  0.340600  0.607800  0.434000  1.0
  H  H405  1  0.652500  0.481800  0.674000  1.0
  H  H406  1  0.347500  0.518200  0.326000  1.0
  H  H407  1  0.765600  0.375100  0.607400  1.0
  H  H408  1  0.234400  0.624900  0.392600  1.0
  H  H409  1  0.667400  0.425500  0.720300  1.0
  H  H410  1  0.332600  0.574500  0.279700  1.0
  H  H411  1  0.730300  0.344200  0.740700  1.0
  H  H412  1  0.269700  0.655800  0.259300  1.0
  H  H413  1  0.950200  0.293500  0.737000  1.0
  H  H414  1  0.049800  0.706500  0.263000  1.0
  H  H415  1  0.975200  0.246500  0.785400  1.0
  H  H416  1  0.024800  0.753500  0.214600  1.0
  H  H417  1  0.714600  0.183900  0.792800  1.0
  H  H418  1  0.285400  0.816100  0.207200  1.0
  H  H419  1  0.689500  0.234000  0.745500  1.0
  H  H420  1  0.310500  0.766000  0.254500  1.0
  H  H421  1  0.774800  0.177500  0.856300  1.0
  H  H422  1  0.225200  0.822500  0.143700  1.0
  H  H423  1  0.823700  0.124900  0.853100  1.0
  H  H424  1  0.176300  0.875100  0.146900  1.0
  H  H425  1  0.755400  0.125100  0.820400  1.0
  H  H426  1  0.244600  0.874900  0.179600  1.0
  C  C427  1  0.911900  0.025400  0.217600  1
  C  C428  1  0.088100  0.974600  0.782400  1
  C  C429  1  0.962700  0.091800  0.220600  1
  C  C430  1  0.037300  0.908200  0.779400  1
  C  C431  1  0.387300  0.007500  0.291200  1
  C  C432  1  0.612700  0.992500  0.708800  1
  C  C433  1  0.353600  0.945400  0.274400  1
  C  C434  1  0.646400  0.054600  0.725600  1
  C  C435  1  0.829100  0.560800  0.259400  1
  C  C436  1  0.170900  0.439200  0.740600  1
  C  C437  1  0.831300  0.498200  0.249600  1
  C  C438  1  0.168700  0.501800  0.750400  1
  C  C439  1  0.363200  0.026400  0.159200  1
  C  C440  1  0.636800  0.973600  0.840800  1
  C  C441  1  0.387400  0.989300  0.185100  1
  C  C442  1  0.612600  0.010700  0.814900  1
  C  C443  1  0.392200  0.284600  0.447700  1
  C  C444  1  0.607800  0.715400  0.552300  1
  C  C445  1  0.413700  0.276900  0.479300  1
  C  C446  1  0.586300  0.723100  0.520700  1
  C  C447  1  0.623900  0.666300  0.430800  1
  C  C448  1  0.376100  0.333700  0.569200  1
  C  C449  1  0.717500  0.696500  0.446500  1
  C  C450  1  0.282500  0.303500  0.553500  1
  C  C451  1  0.509700  0.678200  0.385900  1
  C  C452  1  0.490300  0.321800  0.614100  1
  C  C453  1  0.486700  0.719900  0.371700  1
  C  C454  1  0.513300  0.280100  0.628300  1
  C  C455  1  0.852700  0.660900  0.774000  1
  C  C456  1  0.147300  0.339100  0.226000  1
  C  C457  1  0.790100  0.610300  0.753000  1
  C  C458  1  0.209900  0.389700  0.247000  1
  C  C459  1  0.754100  0.615000  0.719500  1
  C  C460  1  0.245900  0.385000  0.280500  1
  C  C461  1  0.780600  0.670300  0.706900  1
  C  C462  1  0.219400  0.329700  0.293100  1
  C  C463  1  0.843200  0.720900  0.727900  1
  C  C464  1  0.156800  0.279100  0.272100  1
  C  C465  1  0.879200  0.716200  0.761400  1
  C  C466  1  0.120800  0.283800  0.238600  1
  C  C467  1  0.794100  0.719500  0.651800  1
  C  C468  1  0.205900  0.280500  0.348200  1
  C  C469  1  0.471000  0.000800  0.468500  1
  C  C470  1  0.529000  0.999200  0.531500  1
  C  C471  1  0.469000  0.951700  0.491600  1
  C  C472  1  0.531000  0.048300  0.508400  1
  C  C473  1  0.619000  0.014700  0.437600  1
  C  C474  1  0.381000  0.985300  0.562400  1
  C  C475  1  0.687000  0.052000  0.427900  1
  C  C476  1  0.313000  0.948000  0.572100  1
  C  C477  1  0.878200  0.608000  0.904890  1.0
  C  C478  1  0.121800  0.392000  0.095110  1.0
  C  C479  1  0.631500  0.616600  0.172130  1.0
  C  C480  1  0.368500  0.383400  0.827870  1.0
  C  C481  1  0.641600  0.574600  0.142900  1.0
  C  C482  1  0.358400  0.425400  0.857100  1.0
  C  C483  1  0.639100  0.514400  0.148400  1.0
  C  C484  1  0.360900  0.485600  0.851600  1.0
  C  C485  1  0.625500  0.498900  0.182300  1.0
  C  C486  1  0.374500  0.501100  0.817700  1.0
  C  C487  1  0.610100  0.538900  0.209500  1.0
  C  C488  1  0.389900  0.461100  0.790500  1.0
  C  C489  1  0.613800  0.598000  0.205500  1.0
  C  C490  1  0.386200  0.402000  0.794500  1.0
  C  C491  1  0.661600  0.404100  0.167400  1.0
  C  C492  1  0.338400  0.595900  0.832600  1.0
  C  C493  1  0.580800  0.704600  0.179450  1.0
  C  C494  1  0.419200  0.295400  0.820550  1.0
  C  C495  1  0.596600  0.768500  0.177400  1.0
  C  C496  1  0.403400  0.231500  0.822600  1.0
  C  C497  1  0.535300  0.801800  0.184200  1.0
  C  C498  1  0.464700  0.198200  0.815800  1.0
  C  C499  1  0.556200  0.862600  0.179800  1.0
  C  C500  1  0.443800  0.137400  0.820200  1.0
  C  C501  1  0.637600  0.891000  0.168750  1.0
  C  C502  1  0.362400  0.109000  0.831250  1.0
  C  C503  1  0.693400  0.854700  0.162540  1.0
  C  C504  1  0.306600  0.145300  0.837460  1.0
  C  C505  1  0.736600  0.982000  0.147700  1.0
  C  C506  1  0.263400  0.018000  0.852300  1.0
  C  C507  1  0.666000  0.956900  0.166200  1.0
  C  C508  1  0.334000  0.043100  0.833800  1.0
  C  C509  1  0.622600  0.997900  0.184300  1.0
  C  C510  1  0.377400  0.002100  0.815700  1.0
  C  C511  1  0.651100  0.059900  0.185100  1.0
  C  C512  1  0.348900  0.940100  0.814900  1.0
  C  C513  1  0.725700  0.085700  0.167800  1.0
  C  C514  1  0.274300  0.914300  0.832200  1.0
  C  C515  1  0.766400  0.045900  0.147900  1.0
  C  C516  1  0.233600  0.954100  0.852100  1.0
  C  C517  1  0.843300  0.072100  0.131100  1.0
  C  C518  1  0.156700  0.927900  0.868900  1.0
  C  C519  1  0.876400  0.134900  0.134000  1.0
  C  C520  1  0.123600  0.865100  0.866000  1.0
  C  C521  1  0.832700  0.174700  0.153100  1.0
  C  C522  1  0.167300  0.825300  0.846900  1.0
  C  C523  1  0.760600  0.150300  0.169700  1.0
  C  C524  1  0.239400  0.849700  0.830300  1.0
  C  C525  1  0.017200  0.217300  0.135920  1.0
  C  C526  1  0.982800  0.782700  0.864080  1.0
  C  C527  1  0.958600  0.162000  0.117560  1.0
  C  C528  1  0.041400  0.838000  0.882440  1.0
  C  C529  1  0.980500  0.133200  0.085400  1.0
  C  C530  1  0.019500  0.866800  0.914600  1.0
  C  C531  1  0.059300  0.160600  0.072600  1.0
  C  C532  1  0.940700  0.839400  0.927400  1.0
  C  C533  1  0.114100  0.215200  0.091950  1.0
  C  C534  1  0.885900  0.784800  0.908050  1.0
  C  C535  1  0.200700  0.247400  0.082220  1.0
  C  C536  1  0.799300  0.752600  0.917780  1.0
  C  C537  1  0.330900  0.324900  0.094150  1.0
  C  C538  1  0.669100  0.675100  0.905850  1.0
  C  C539  1  0.353600  0.376400  0.078500  1.0
  C  C540  1  0.646400  0.623600  0.921500  1.0
  C  C541  1  0.438000  0.399100  0.069100  1.0
  C  C542  1  0.562000  0.600900  0.930900  1.0
  C  C543  1  0.500500  0.371800  0.077300  1.0
  C  C544  1  0.499500  0.628200  0.922700  1.0
  C  C545  1  0.480400  0.322800  0.094800  1.0
  C  C546  1  0.519600  0.677200  0.905200  1.0
  C  C547  1  0.394600  0.298800  0.103000  1.0
  C  C548  1  0.605400  0.701200  0.897000  1.0
  C  C549  1  0.605500  0.435000  0.047300  1.0
  C  C550  1  0.394500  0.565000  0.952700  1.0
  C  C551  1  0.627900  0.679500  0.081520  1.0
  C  C552  1  0.372100  0.320500  0.918480  1.0
  C  C553  1  0.638800  0.636500  0.052900  1.0
  C  C554  1  0.361200  0.363500  0.947100  1.0
  C  C555  1  0.565400  0.587000  0.036300  1.0
  C  C556  1  0.434600  0.413000  0.963700  1.0
  C  C557  1  0.483600  0.582400  0.047900  1.0
  C  C558  1  0.516400  0.417600  0.952100  1.0
  C  C559  1  0.472300  0.627600  0.074500  1.0
  C  C560  1  0.527700  0.372400  0.925500  1.0
  C  C561  1  0.543700  0.675900  0.091800  1.0
  C  C562  1  0.456300  0.324100  0.908200  1.0
  C  C563  1  0.331600  0.523500  0.042200  1.0
  C  C564  1  0.668400  0.476500  0.957800  1.0
  C  C565  1  0.753800  0.762900  0.084100  1.0
  C  C566  1  0.246200  0.237100  0.915900  1.0
  C  C567  1  0.833800  0.805700  0.104600  1.0
  C  C568  1  0.166200  0.194300  0.895400  1.0
  C  C569  1  0.897400  0.849700  0.090900  1.0
  C  C570  1  0.102600  0.150300  0.909100  1.0
  C  C571  1  0.965700  0.888700  0.113700  1.0
  C  C572  1  0.034300  0.111300  0.886300  1.0
  C  C573  1  0.976200  0.885200  0.149800  1.0
  C  C574  1  0.023800  0.114800  0.850200  1.0
  C  C575  1  0.913900  0.838000  0.160500  1.0
  C  C576  1  0.086100  0.162000  0.839500  1.0
  C  C577  1  0.086100  0.987300  0.167700  1.0
  C  C578  1  0.913900  0.012700  0.832300  1.0
  C  C579  1  0.046900  0.931600  0.176800  1.0
  C  C580  1  0.953100  0.068400  0.823200  1.0
  C  C581  1  0.068400  0.919500  0.211800  1.0
  C  C582  1  0.931600  0.080500  0.788200  1.0
  C  C583  1  0.127700  0.962900  0.236500  1.0
  C  C584  1  0.872300  0.037100  0.763500  1.0
  C  C585  1  0.168700  0.022800  0.229200  1.0
  C  C586  1  0.831300  0.977200  0.770800  1.0
  C  C587  1  0.149400  0.035100  0.195000  1.0
  C  C588  1  0.850600  0.964900  0.805000  1.0
  C  C589  1  0.184900  0.093400  0.186100  1.0
  C  C590  1  0.815100  0.906600  0.813900  1.0
  C  C591  1  0.240700  0.141600  0.212600  1.0
  C  C592  1  0.759300  0.858400  0.787400  1.0
  C  C593  1  0.262500  0.128300  0.247100  1.0
  C  C594  1  0.737500  0.871700  0.752900  1.0
  C  C595  1  0.227700  0.071200  0.255500  1.0
  C  C596  1  0.772300  0.928800  0.744500  1.0
  C  C597  1  0.230500  0.224900  0.180380  1.0
  C  C598  1  0.769500  0.775100  0.819620  1.0
  C  C599  1  0.277300  0.204000  0.204600  1.0
  C  C600  1  0.722700  0.796000  0.795400  1.0
  C  C601  1  0.357100  0.244300  0.222000  1.0
  C  C602  1  0.642900  0.755700  0.778000  1.0
  C  C603  1  0.383200  0.301900  0.215000  1.0
  C  C604  1  0.616800  0.698100  0.785000  1.0
  C  C605  1  0.332000  0.321300  0.190950  1.0
  C  C606  1  0.668000  0.678700  0.809050  1.0
  C  C607  1  0.348200  0.383300  0.184920  1.0
  C  C608  1  0.651800  0.616700  0.815080  1.0
  C  C609  1  0.306700  0.458400  0.160700  1.0
  C  C610  1  0.693300  0.541600  0.839300  1.0
  C  C611  1  0.246600  0.491500  0.168850  1.0
  C  C612  1  0.753400  0.508500  0.831150  1.0
  C  C613  1  0.264900  0.552700  0.164940  1.0
  C  C614  1  0.735100  0.447300  0.835060  1.0
  C  C615  1  0.342100  0.580600  0.152100  1.0
  C  C616  1  0.657900  0.419400  0.847900  1.0
  C  C617  1  0.404300  0.549100  0.145330  1.0
  C  C618  1  0.595700  0.450900  0.854670  1.0
  C  C619  1  0.387600  0.489000  0.149360  1.0
  C  C620  1  0.612400  0.511000  0.850640  1.0
  C  C621  1  0.302600  0.674900  0.154700  1.0
  C  C622  1  0.697400  0.325100  0.845300  1.0
  C  C623  1  0.766600  0.852500  0.303700  1.0
  C  C624  1  0.233400  0.147500  0.696300  1.0
  C  C625  1  0.739600  0.791700  0.299000  1.0
  C  C626  1  0.260400  0.208300  0.701000  1.0
  C  C627  1  0.747100  0.755800  0.266550  1.0
  C  C628  1  0.252900  0.244200  0.733450  1.0
  C  C629  1  0.783500  0.782500  0.237870  1.0
  C  C630  1  0.216500  0.217500  0.762130  1.0
  C  C631  1  0.808900  0.846500  0.242600  1.0
  C  C632  1  0.191100  0.153500  0.757400  1.0
  C  C633  1  0.802900  0.882400  0.276200  1.0
  C  C634  1  0.197100  0.117600  0.723800  1.0
  C  C635  1  0.716100  0.864100  0.363400  1.0
  C  C636  1  0.283900  0.135900  0.636600  1.0
  C  C637  1  0.833100  0.704300  0.208500  1.0
  C  C638  1  0.166900  0.295700  0.791500  1.0
  C  C639  1  0.843900  0.663700  0.175510  1.0
  C  C640  1  0.156100  0.336300  0.824490  1.0
  C  C641  1  0.885900  0.617500  0.175290  1.0
  C  C642  1  0.114100  0.382500  0.824710  1.0
  C  C643  1  0.891100  0.582900  0.143310  1.0
  C  C644  1  0.108900  0.417100  0.856690  1.0
  C  C645  1  0.858700  0.594200  0.110630  1.0
  C  C646  1  0.141300  0.405800  0.889370  1.0
  C  C647  1  0.820700  0.642500  0.113350  1.0
  C  C648  1  0.179300  0.357500  0.886650  1.0
  C  C649  1  0.878700  0.582400  0.044690  1.0
  C  C650  1  0.121300  0.417600  0.955310  1.0
  C  C651  1  0.862700  0.557000  0.075230  1.0
  C  C652  1  0.137300  0.443000  0.924770  1.0
  C  C653  1  0.850000  0.492100  0.071570  1.0
  C  C654  1  0.150000  0.507900  0.928430  1.0
  C  C655  1  0.856800  0.457000  0.039180  1.0
  C  C656  1  0.143200  0.543000  0.960820  1.0
  C  C657  1  0.875900  0.482800  0.008210  1.0
  C  C658  1  0.124100  0.517200  0.991790  1.0
  C  C659  1  0.884600  0.547800  0.010860  1.0
  C  C660  1  0.115400  0.452200  0.989140  1.0
  C  C661  1  0.901000  0.575200  0.979630  1.0
  C  C662  1  0.099000  0.424800  0.020370  1.0
  C  C663  1  0.906500  0.539400  0.947070  1.0
  C  C664  1  0.093500  0.460600  0.052930  1.0
  C  C665  1  0.898800  0.476300  0.944510  1.0
  C  C666  1  0.101200  0.523700  0.055490  1.0
  C  C667  1  0.884000  0.449000  0.974150  1.0
  C  C668  1  0.116000  0.551000  0.025850  1.0
  C  C669  1  0.923300  0.568600  0.914290  1.0
  C  C670  1  0.076700  0.431400  0.085710  1.0
  C  C671  1  0.983300  0.553400  0.890750  1.0
  C  C672  1  0.016700  0.446600  0.109250  1.0
  C  C673  1  0.995100  0.579300  0.859820  1.0
  C  C674  1  0.004900  0.420700  0.140180  1.0
  C  C675  1  0.943800  0.616500  0.851850  1.0
  C  C676  1  0.056200  0.383500  0.148150  1.0
  C  C677  1  0.938800  0.636300  0.817180  1.0
  C  C678  1  0.061200  0.363700  0.182820  1.0
  C  C679  1  0.871700  0.685000  0.778150  1.0
  C  C680  1  0.128300  0.315000  0.221850  1.0
  C  C681  1  0.929400  0.738000  0.770330  1.0
  C  C682  1  0.070600  0.262000  0.229670  1.0
  C  C683  1  0.914300  0.757600  0.738150  1.0
  C  C684  1  0.085700  0.242400  0.261850  1.0
  C  C685  1  0.841500  0.724400  0.713800  1.0
  C  C686  1  0.158500  0.275600  0.286200  1.0
  C  C687  1  0.783800  0.671400  0.721610  1.0
  C  C688  1  0.216200  0.328600  0.278390  1.0
  C  C689  1  0.798900  0.651800  0.753800  1.0
  C  C690  1  0.201100  0.348200  0.246200  1.0
  C  C691  1  0.752200  0.714100  0.660900  1.0
  C  C692  1  0.247800  0.285900  0.339100  1.0
  C  C693  1  0.033900  0.573700  0.328200  1.0
  C  C694  1  0.966100  0.426300  0.671800  1.0
  C  C695  1  0.070100  0.538000  0.305300  1.0
  C  C696  1  0.929900  0.462000  0.694700  1.0
  C  C697  1  0.048000  0.474900  0.302900  1.0
  C  C698  1  0.952000  0.525100  0.697100  1.0
  C  C699  1  0.988300  0.448300  0.325200  1.0
  C  C700  1  0.011700  0.551700  0.674800  1.0
  C  C701  1  0.950900  0.483500  0.349290  1.0
  C  C702  1  0.049100  0.516500  0.650710  1.0
  C  C703  1  0.971900  0.546900  0.351400  1.0
  C  C704  1  0.028100  0.453100  0.648600  1.0
  C  C705  1  0.000100  0.348200  0.302100  1.0
  C  C706  1  0.999900  0.651800  0.697900  1.0
  C  C707  1  0.989100  0.662000  0.328500  1.0
  C  C708  1  0.010900  0.338000  0.671500  1.0
  C  C709  1  0.007100  0.728300  0.331200  1.0
  C  C710  1  0.992900  0.271700  0.668800  1.0
  C  C711  1  0.947400  0.758900  0.328200  1.0
  C  C712  1  0.052600  0.241100  0.671800  1.0
  C  C713  1  0.974500  0.822800  0.330100  1.0
  C  C714  1  0.025500  0.177200  0.669900  1.0
  C  C715  1  0.062100  0.854600  0.335900  1.0
  C  C716  1  0.937900  0.145400  0.664100  1.0
  C  C717  1  0.120900  0.819200  0.337700  1.0
  C  C718  1  0.879100  0.180800  0.662300  1.0
  C  C719  1  0.177200  0.955100  0.357800  1.0
  C  C720  1  0.822800  0.044900  0.642200  1.0
  C  C721  1  0.095700  0.922200  0.339500  1.0
  C  C722  1  0.904300  0.077800  0.660500  1.0
  C  C723  1  0.043800  0.956400  0.326000  1.0
  C  C724  1  0.956200  0.043600  0.674000  1.0
  C  C725  1  0.073900  0.020200  0.329200  1.0
  C  C726  1  0.926100  0.979800  0.670800  1.0
  C  C727  1  0.158500  0.052600  0.346200  1.0
  C  C728  1  0.841500  0.947400  0.653800  1.0
  C  C729  1  0.211600  0.018600  0.361000  1.0
  C  C730  1  0.788400  0.981400  0.639000  1.0
  C  C731  1  0.296900  0.051700  0.377100  1.0
  C  C732  1  0.703100  0.948300  0.622900  1.0
  C  C733  1  0.330400  0.115100  0.378400  1.0
  C  C734  1  0.669600  0.884900  0.621600  1.0
  C  C735  1  0.278000  0.147100  0.364300  1.0
  C  C736  1  0.722000  0.852900  0.635700  1.0
  C  C737  1  0.194300  0.118000  0.348900  1.0
  C  C738  1  0.805700  0.882000  0.651100  1.0
  C  C739  1  0.472900  0.195200  0.377910  1.0
  C  C740  1  0.527100  0.804800  0.622090  1.0
  C  C741  1  0.424600  0.148800  0.394300  1.0
  C  C742  1  0.575400  0.851200  0.605700  1.0
  C  C743  1  0.464800  0.131900  0.423080  1.0
  C  C744  1  0.535200  0.868100  0.576920  1.0
  C  C745  1  0.549100  0.163100  0.435430  1.0
  C  C746  1  0.450900  0.836900  0.564570  1.0
  C  C747  1  0.595400  0.210000  0.418470  1.0
  C  C748  1  0.404600  0.790000  0.581530  1.0
  C  C749  1  0.685400  0.247800  0.429560  1.0
  C  C750  1  0.314600  0.752200  0.570440  1.0
  C  C751  1  0.800600  0.332300  0.423680  1.0
  C  C752  1  0.199400  0.667700  0.576320  1.0
  C  C753  1  0.868000  0.338300  0.400910  1.0
  C  C754  1  0.132000  0.661700  0.599090  1.0
  C  C755  1  0.949100  0.382700  0.411300  1.0
  C  C756  1  0.050900  0.617300  0.588700  1.0
  C  C757  1  0.961300  0.420800  0.444300  1.0
  C  C758  1  0.038700  0.579200  0.555700  1.0
  C  C759  1  0.895900  0.414400  0.468200  1.0
  C  C760  1  0.104100  0.585600  0.531800  1.0
  C  C761  1  0.817200  0.369400  0.457350  1.0
  C  C762  1  0.182800  0.630600  0.542650  1.0
  C  C763  1  0.104500  0.477900  0.429900  1.0
  C  C764  1  0.895500  0.522100  0.570100  1.0
  C  C765  1  0.078800  0.690700  0.413700  1.0
  C  C766  1  0.921200  0.309300  0.586300  1.0
  C  C767  1  0.068700  0.637600  0.427000  1.0
  C  C768  1  0.931300  0.362400  0.573000  1.0
  C  C769  1  0.999400  0.613900  0.445800  1.0
  C  C770  1  0.000600  0.386100  0.554200  1.0
  C  C771  1  0.936300  0.643200  0.449300  1.0
  C  C772  1  0.063700  0.356800  0.550700  1.0
  C  C773  1  0.940300  0.696300  0.434800  1.0
  C  C774  1  0.059700  0.303700  0.565200  1.0
  C  C775  1  0.012800  0.719000  0.417100  1.0
  C  C776  1  0.987200  0.281000  0.582900  1.0
  C  C777  1  0.863100  0.568500  0.484700  1.0
  C  C778  1  0.136900  0.431500  0.515300  1.0
  C  C779  1  0.212200  0.763400  0.415100  1.0
  C  C780  1  0.787800  0.236600  0.584900  1.0
  C  C781  1  0.284400  0.796500  0.396900  1.0
  C  C782  1  0.715600  0.203500  0.603100  1.0
  C  C783  1  0.350400  0.847300  0.415800  1.0
  C  C784  1  0.649600  0.152700  0.584200  1.0
  C  C785  1  0.414300  0.875800  0.395600  1.0
  C  C786  1  0.585700  0.124200  0.604400  1.0
  C  C787  1  0.412300  0.854400  0.359100  1.0
  C  C788  1  0.587700  0.145600  0.640900  1.0
  C  C789  1  0.344000  0.802000  0.343200  1.0
  C  C790  1  0.656000  0.198000  0.656800  1.0
  C  C791  1  0.566400  0.874400  0.286000  1.0
  C  C792  1  0.433600  0.125600  0.714000  1.0
  C  C793  1  0.507700  0.848000  0.307200  1.0
  C  C794  1  0.492300  0.152000  0.692800  1.0
  C  C795  1  0.480200  0.884400  0.336600  1.0
  C  C796  1  0.519800  0.115600  0.663400  1.0
  C  C797  1  0.517000  0.947200  0.343400  1.0
  C  C798  1  0.483000  0.052800  0.656600  1.0
  C  C799  1  0.579700  0.975900  0.321360  1.0
  C  C800  1  0.420300  0.024100  0.678640  1.0
  C  C801  1  0.604000  0.938800  0.291870  1.0
  C  C802  1  0.396000  0.061200  0.708130  1.0
  C  C803  1  0.665800  0.968600  0.269900  1.0
  C  C804  1  0.334200  0.031400  0.730100  1.0
  C  C805  1  0.698400  0.031700  0.275900  1.0
  C  C806  1  0.301600  0.968300  0.724100  1.0
  C  C807  1  0.671300  0.069700  0.303890  1.0
  C  C808  1  0.328700  0.930300  0.696110  1.0
  C  C809  1  0.614700  0.041400  0.326400  1.0
  C  C810  1  0.385300  0.958600  0.673600  1.0
  C  C811  1  0.672100  0.175000  0.334650  1.0
  C  C812  1  0.327900  0.825000  0.665350  1.0
  C  C813  1  0.700500  0.137000  0.307450  1.0
  C  C814  1  0.299500  0.863000  0.692550  1.0
  C  C815  1  0.753000  0.167200  0.283400  1.0
  C  C816  1  0.247000  0.832800  0.716600  1.0
  C  C817  1  0.773400  0.231700  0.286590  1.0
  C  C818  1  0.226600  0.768300  0.713410  1.0
  C  C819  1  0.741100  0.265400  0.313670  1.0
  C  C820  1  0.258900  0.734600  0.686330  1.0
  C  C821  1  0.754700  0.331000  0.319940  1.0
  C  C822  1  0.245300  0.669000  0.680060  1.0
  C  C823  1  0.727500  0.419600  0.352820  1.0
  C  C824  1  0.272500  0.580400  0.647180  1.0
  C  C825  1  0.750600  0.454500  0.387010  1.0
  C  C826  1  0.249400  0.545500  0.612990  1.0
  C  C827  1  0.755300  0.517700  0.392900  1.0
  C  C828  1  0.244700  0.482300  0.607100  1.0
  C  C829  1  0.732900  0.542700  0.364100  1.0
  C  C830  1  0.267100  0.457300  0.635900  1.0
  C  C831  1  0.710000  0.507900  0.330000  1.0
  C  C832  1  0.290000  0.492100  0.670000  1.0
  C  C833  1  0.706200  0.446200  0.323970  1.0
  C  C834  1  0.293800  0.553800  0.676030  1.0
  C  C835  1  0.703500  0.632700  0.344300  1.0
  C  C836  1  0.296500  0.367300  0.655700  1.0
  C  C837  1  0.544900  0.259800  0.292070  1.0
  C  C838  1  0.455100  0.740200  0.707930  1.0
  C  C839  1  0.571300  0.291800  0.264030  1.0
  C  C840  1  0.428700  0.708200  0.735970  1.0
  C  C841  1  0.569000  0.260200  0.229260  1.0
  C  C842  1  0.431000  0.739800  0.770740  1.0
  C  C843  1  0.539200  0.195500  0.220830  1.0
  C  C844  1  0.460800  0.804500  0.779170  1.0
  C  C845  1  0.514300  0.163900  0.249080  1.0
  C  C846  1  0.485700  0.836100  0.750920  1.0
  C  C847  1  0.519000  0.194400  0.283740  1.0
  C  C848  1  0.481000  0.805600  0.716260  1.0
  C  C849  1  0.544800  0.192400  0.157200  1.0
  C  C850  1  0.455200  0.807600  0.842800  1.0
  C  C851  1  0.516500  0.337800  0.334950  1.0
  C  C852  1  0.483500  0.662200  0.665050  1.0
  C  C853  1  0.534100  0.373200  0.371680  1.0
  C  C854  1  0.465900  0.626800  0.628320  1.0
  C  C855  1  0.505500  0.424400  0.383220  1.0
  C  C856  1  0.494500  0.575600  0.616780  1.0
  C  C857  1  0.528200  0.455200  0.418040  1.0
  C  C858  1  0.471800  0.544800  0.581960  1.0
  C  C859  1  0.576600  0.434900  0.442670  1.0
  C  C860  1  0.423400  0.565100  0.557330  1.0
  C  C861  1  0.602800  0.382200  0.428820  1.0
  C  C862  1  0.397200  0.617800  0.571180  1.0
  C  C863  1  0.646500  0.563000  0.524530  1.0
  C  C864  1  0.353500  0.437000  0.475470  1.0
  C  C865  1  0.618000  0.532000  0.490180  1.0
  C  C866  1  0.382000  0.468000  0.509820  1.0
  C  C867  1  0.604400  0.467100  0.480830  1.0
  C  C868  1  0.395600  0.532900  0.519170  1.0
  C  C869  1  0.621300  0.435200  0.507630  1.0
  C  C870  1  0.378700  0.564800  0.492370  1.0
  C  C871  1  0.650600  0.466900  0.543530  1.0
  C  C872  1  0.349400  0.533100  0.456470  1.0
  C  C873  1  0.665000  0.532000  0.552400  1.0
  C  C874  1  0.335000  0.468000  0.447600  1.0
  C  C875  1  0.693200  0.563200  0.588720  1.0
  C  C876  1  0.306800  0.436800  0.411280  1.0
  C  C877  1  0.708900  0.531200  0.615140  1.0
  C  C878  1  0.291100  0.468800  0.384860  1.0
  C  C879  1  0.696000  0.467100  0.607140  1.0
  C  C880  1  0.304000  0.532900  0.392860  1.0
  C  C881  1  0.667600  0.435500  0.571630  1.0
  C  C882  1  0.332400  0.564500  0.428370  1.0
  C  C883  1  0.709300  0.433800  0.636360  1.0
  C  C884  1  0.290700  0.566200  0.363640  1.0
  C  C885  1  0.679500  0.449600  0.669970  1.0
  C  C886  1  0.320500  0.550400  0.330030  1.0
  C  C887  1  0.748400  0.386800  0.630770  1.0
  C  C888  1  0.251600  0.613200  0.369230  1.0
  C  C889  1  0.690000  0.417300  0.697600  1.0
  C  C890  1  0.310000  0.582700  0.302400  1.0
  C  C891  1  0.733100  0.374000  0.691220  1.0
  C  C892  1  0.266900  0.626000  0.308780  1.0
  C  C893  1  0.751700  0.340100  0.717600  1.0
  C  C894  1  0.248300  0.659900  0.282400  1.0
  C  C895  1  0.815000  0.268900  0.736900  1.0
  C  C896  1  0.185000  0.731100  0.263100  1.0
  C  C897  1  0.902500  0.272400  0.748600  1.0
  C  C898  1  0.097500  0.727600  0.251400  1.0
  C  C899  1  0.916900  0.244400  0.777200  1.0
  C  C900  1  0.083100  0.755600  0.222800  1.0
  C  C901  1  0.846800  0.212900  0.794300  1.0
  C  C902  1  0.153200  0.787100  0.205700  1.0
  C  C903  1  0.762500  0.207200  0.782200  1.0
  C  C904  1  0.237500  0.792800  0.217800  1.0
  C  C905  1  0.748100  0.236600  0.753600  1.0
  C  C906  1  0.251900  0.763400  0.246400  1.0
  C  C907  1  0.800500  0.151200  0.839600  1.0
  C  C908  1  0.199500  0.848800  0.160400  1.0
  N  N909  1  0.875000  0.977200  0.213600  1
  N  N910  1  0.125000  0.022800  0.786400  1
  N  N911  1  0.420400  0.057700  0.304300  1
  N  N912  1  0.579600  0.942300  0.695700  1
  N  N913  1  0.825100  0.610100  0.267050  1
  N  N914  1  0.174900  0.389900  0.732950  1
  N  N915  1  0.399500  0.944900  0.191800  1
  N  N916  1  0.600500  0.055100  0.808200  1
  N  N917  1  0.372900  0.293200  0.418900  1
  N  N918  1  0.627100  0.706800  0.581100  1
  N  N919  1  0.640200  0.679100  0.167710  1.0
  N  N920  1  0.359800  0.320900  0.832290  1.0
  N  N921  1  0.675900  0.794600  0.165740  1.0
  N  N922  1  0.324100  0.205400  0.834260  1.0
  N  N923  1  0.095200  0.244600  0.123720  1.0
  N  N924  1  0.904800  0.755400  0.876280  1.0
  N  N925  1  0.243100  0.299000  0.102340  1.0
  N  N926  1  0.756900  0.701000  0.897660  1.0
  N  N927  1  0.702500  0.726000  0.101510  1.0
  N  N928  1  0.297500  0.274000  0.898490  1.0
  N  N929  1  0.842200  0.800100  0.139380  1.0
  N  N930  1  0.157800  0.199900  0.860620  1.0
  N  N931  1  0.254200  0.282400  0.173790  1.0
  N  N932  1  0.745800  0.717600  0.826210  1.0
  N  N933  1  0.288500  0.395400  0.166170  1.0
  N  N934  1  0.711500  0.604600  0.833830  1.0
  N  N935  1  0.795800  0.746100  0.204930  1.0
  N  N936  1  0.204200  0.253900  0.795070  1.0
  N  N937  1  0.810800  0.675900  0.145110  1.0
  N  N938  1  0.189200  0.324100  0.854890  1.0
  N  N939  1  0.879500  0.661600  0.811840  1.0
  N  N940  1  0.120500  0.338400  0.188160  1.0
  N  N941  1  0.884100  0.630500  0.873850  1.0
  N  N942  1  0.115900  0.369500  0.126150  1.0
  N  N943  1  0.054800  0.639500  0.330210  1.0
  N  N944  1  0.945200  0.360500  0.669790  1.0
  N  N945  1  0.098100  0.758000  0.336400  1.0
  N  N946  1  0.901900  0.242000  0.663600  1.0
  N  N947  1  0.558000  0.225400  0.389080  1.0
  N  N948  1  0.442000  0.774600  0.610920  1.0
  N  N949  1  0.716000  0.290100  0.411150  1.0
  N  N950  1  0.284000  0.709900  0.588850  1.0
  N  N951  1  0.154100  0.717200  0.394940  1.0
  N  N952  1  0.845900  0.282800  0.605060  1.0
  N  N953  1  0.278900  0.773800  0.360940  1.0
  N  N954  1  0.721100  0.226200  0.639060  1.0
  N  N955  1  0.688800  0.236400  0.337560  1.0
  N  N956  1  0.311200  0.763600  0.662440  1.0
  N  N957  1  0.720600  0.354500  0.347070  1.0
  N  N958  1  0.279400  0.645500  0.652930  1.0
  N  N959  1  0.552000  0.291900  0.328160  1.0
  N  N960  1  0.448000  0.708100  0.671840  1.0
  N  N961  1  0.585100  0.352600  0.394150  1.0
  N  N962  1  0.414900  0.647400  0.605850  1.0
  N  N963  1  0.798600  0.303700  0.708790  1.0
  N  N964  1  0.201400  0.696300  0.291210  1.0
  N  N965  1  0.763300  0.356500  0.657790  1.0
  N  N966  1  0.236700  0.643500  0.342210  1.0
  O  O967  1  0.563300  0.622800  0.433500  1
  O  O968  1  0.436700  0.377200  0.566500  1
  O  O969  1  0.594300  0.699500  0.405900  1
  O  O970  1  0.405700  0.300500  0.594100  1
  O  O971  1  0.737000  0.667100  0.674200  1
  O  O972  1  0.263000  0.332900  0.325800  1
  O  O973  1  0.401600  0.008000  0.458000  1
  O  O974  1  0.598400  0.992000  0.542000  1
  O  O975  1  0.530500  0.009400  0.441300  1
  O  O976  1  0.469500  0.990600  0.558700  1
  O  O977  1  0.623400  0.440500  0.190900  1.0
  O  O978  1  0.376600  0.559500  0.809100  1.0
  O  O979  1  0.587500  0.393200  0.070090  1.0
  O  O980  1  0.412500  0.606800  0.929910  1.0
  O  O981  1  0.418600  0.530700  0.031150  1.0
  O  O982  1  0.581400  0.469300  0.968850  1.0
  O  O983  1  0.365800  0.641500  0.146730  1.0
  O  O984  1  0.634200  0.358500  0.853270  1.0
  O  O985  1  0.764900  0.891600  0.336410  1.0
  O  O986  1  0.235100  0.108400  0.663590  1.0
  O  O987  1  0.831800  0.747600  0.682700  1.0
  O  O988  1  0.168200  0.252400  0.317300  1.0
  O  O989  1  0.962800  0.386100  0.325520  1.0
  O  O990  1  0.037200  0.613900  0.674480  1.0
  O  O991  1  0.035900  0.470000  0.455200  1.0
  O  O992  1  0.964100  0.530000  0.544800  1.0
  O  O993  1  0.863000  0.622100  0.467410  1.0
  O  O994  1  0.137000  0.377900  0.532590  1.0
  O  O995  1  0.738200  0.605100  0.372740  1.0
  O  O996  1  0.261800  0.394900  0.627260  1.0
  O  O997  1  0.531900  0.161100  0.187340  1.0
  O  O998  1  0.468100  0.838900  0.812660  1.0
  O  O999  1  0.872200  0.190200  0.823300  1.0
  O  O1000  1  0.127800  0.809800  0.176700  1.0
  F  F1001  1  0.172300  0.217600  0.994700  1
  F  F1002  1  0.827700  0.782400  0.005300  1
  F  F1003  1  0.091600  0.272900  0.022300  1
  F  F1004  1  0.908400  0.727100  0.977700  1
  F  F1005  1  0.115800  0.275600  0.963700  1
  F  F1006  1  0.884200  0.724400  0.036300  1
  F  F1007  1  0.219600  0.327000  0.009400  1
  F  F1008  1  0.780400  0.673000  0.990600  1
  F  F1009  1  0.404500  0.470200  0.258130  1
  F  F1010  1  0.595500  0.529800  0.741870  1
  F  F1011  1  0.512000  0.426600  0.268590  1
  F  F1012  1  0.488000  0.573400  0.731410  1
  F  F1013  1  0.505600  0.515100  0.304900  1
  F  F1014  1  0.494400  0.484900  0.695100  1
  F  F1015  1  0.408700  0.424900  0.307360  1
  F  F1016  1  0.591300  0.575100  0.692640  1
  F  F1017  1  0.675500  0.218000  0.511300  1
  F  F1018  1  0.324500  0.782000  0.488700  1
  F  F1019  1  0.618000  0.272500  0.555480  1
  F  F1020  1  0.382000  0.727500  0.444520  1
  F  F1021  1  0.741100  0.319800  0.533420  1
  F  F1022  1  0.258900  0.680200  0.466580  1
  F  F1023  1  0.614000  0.290700  0.497400  1
  F  F1024  1  0.386000  0.709300  0.502600  1
  F  F1025  1  0.221600  0.050200  0.087300  1
  F  F1026  1  0.778400  0.949800  0.912700  1
  F  F1027  1  0.364000  0.094000  0.083300  1
  F  F1028  1  0.636000  0.906000  0.916700  1
  F  F1029  1  0.260200  0.125200  0.055000  1
  F  F1030  1  0.739800  0.874800  0.945000  1
  F  F1031  1  0.287700  0.150700  0.114200  1
  F  F1032  1  0.712300  0.849300  0.885800  1
  F  F1033  1  0.434000  0.701900  0.292350  1
  F  F1034  1  0.566000  0.298100  0.707650  1
  F  F1035  1  0.546200  0.723700  0.257400  1
  F  F1036  1  0.453800  0.276300  0.742600  1
  F  F1037  1  0.432600  0.635100  0.239580  1
  F  F1038  1  0.567400  0.364900  0.760420  1
  F  F1039  1  0.422000  0.724500  0.235400  1
  F  F1040  1  0.578000  0.275500  0.764600  1
  F  F1041  1  0.747200  0.292400  0.186610  1
  F  F1042  1  0.252800  0.707600  0.813390  1
  F  F1043  1  0.859000  0.380400  0.193400  1
  F  F1044  1  0.141000  0.619600  0.806600  1
  F  F1045  1  0.877000  0.299800  0.218070  1
  F  F1046  1  0.123000  0.700200  0.781930  1
  F  F1047  1  0.785600  0.354500  0.241110  1
  F  F1048  1  0.214400  0.645500  0.758890  1
  F  F1049  1  0.020700  0.588500  0.236630  1
  F  F1050  1  0.979300  0.411500  0.763370  1
  F  F1051  1  0.050900  0.495500  0.216800  1
  F  F1052  1  0.949100  0.504500  0.783200  1
  F  F1053  1  0.055100  0.557200  0.175970  1
  F  F1054  1  0.944900  0.442800  0.824030  1
  F  F1055  1  0.149800  0.584200  0.226900  1
  F  F1056  1  0.850200  0.415800  0.773100  1
  F  F1057  1  0.917700  0.113300  0.312000  1
  F  F1058  1  0.082300  0.886700  0.688000  1
  F  F1059  1  0.927900  0.208500  0.345600  1
  F  F1060  1  0.072100  0.791500  0.654400  1
  F  F1061  1  0.004000  0.153700  0.366600  1
  F  F1062  1  0.996000  0.846300  0.633400  1
  F  F1063  1  0.039900  0.188500  0.315400  1
  F  F1064  1  0.960100  0.811500  0.684600  1
  F  F1065  1  0.067700  0.203300  0.987900  1
  F  F1066  1  0.932300  0.796700  0.012100  1
  F  F1067  1  0.147200  0.284600  0.965300  1
  F  F1068  1  0.852800  0.715400  0.034700  1
  F  F1069  1  0.217800  0.239100  0.999200  1
  F  F1070  1  0.782200  0.760900  0.000800  1
  F  F1071  1  0.129300  0.291800  0.025800  1
  F  F1072  1  0.870700  0.708200  0.974200  1
  F  F1073  1  0.530400  0.519400  0.287700  1
  F  F1074  1  0.469600  0.480600  0.712300  1
  F  F1075  1  0.462000  0.481400  0.320500  1
  F  F1076  1  0.538000  0.518600  0.679500  1
  F  F1077  1  0.684400  0.216000  0.509900  1
  F  F1078  1  0.315600  0.784000  0.490100  1
  F  F1079  1  0.552000  0.224200  0.525100  1
  F  F1080  1  0.448000  0.775800  0.474900  1
  F  F1081  1  0.672800  0.292000  0.554900  1
  F  F1082  1  0.327200  0.708000  0.445100  1
  F  F1083  1  0.634700  0.293200  0.495500  1
  F  F1084  1  0.365300  0.706800  0.504500  1
  F  F1085  1  0.046200  0.006300  0.070100  1
  F  F1086  1  0.953800  0.993700  0.929900  1
  F  F1087  1  0.900600  0.977900  0.052700  1
  F  F1088  1  0.099400  0.022100  0.947300  1
  F  F1089  1  0.992000  0.030700  0.018700  1
  F  F1090  1  0.008000  0.969300  0.981300  1
  F  F1091  1  0.990000  0.932900  0.019700  1
  F  F1092  1  0.010000  0.067100  0.980300  1
  F  F1093  1  0.114100  0.528500  0.223300  1
  F  F1094  1  0.885900  0.471500  0.776700  1
  F  F1095  1  0.978300  0.521800  0.193300  1
  F  F1096  1  0.021700  0.478200  0.806700  1
  F  F1097  1  0.095000  0.597600  0.188200  1
  F  F1098  1  0.905000  0.402400  0.811800  1
