
#######################################################################
#
#                 Cambridge Crystallographic Data Centre
#                                CCDC 
#
#######################################################################
#
# If this CIF has been generated from an entry in the Cambridge 
# Structural Database, then it will include bibliographic, chemical, 
# crystal, experimental, refinement or atomic coordinate data resulting 
# from the CCDC's data processing and validation procedures.
#
#######################################################################

data_ZULJEX
_chemical_formula_moiety         
'C216 H168 Fe4 N24 O12 8+,C4 H8 O2,5(C2 H3 N1),8(B1 F4 1-)'
_chemical_name_systematic        
'hexakis(\m~2~-(Naphthalene-2,7-diyldipyridine-5,2-diyl)bis(N-(4-methoxyphenyl)methanimine))-tetra-iron octakis(tetrafluoroborate) acetonitrile ethyl acetate solvate'
_symmetry_cell_setting           triclinic
_symmetry_space_group_name_H-M   'P -1'
_symmetry_Int_Tables_number      2
_space_group_name_Hall           '-P 1'
loop_
_symmetry_equiv_pos_site_id
_symmetry_equiv_pos_as_xyz
1 x,y,z
2 -x,-y,-z
_cell_length_a                   15.9467(9)
_cell_length_b                   22.9409(13)
_cell_length_c                   37.513(2)
_cell_angle_alpha                99.645(3)
_cell_angle_beta                 92.893(3)
_cell_angle_gamma                106.160(2)
_cell_volume                     12926.4
_exptl_crystal_colour            'dark blue'
_exptl_crystal_description       block
_cell_formula_units_Z            2
loop_
_atom_site_label
_atom_site_type_symbol
_atom_site_fract_x
_atom_site_fract_y
_atom_site_fract_z
Fe1 Fe -0.25478(5) -0.26256(4) 0.15358(2)
Fe2 Fe 0.18628(5) 0.32266(4) 0.14649(2)
N1 N -0.3598(3) -0.3209(2) 0.16771(14)
N2 N -0.3241(3) -0.2054(2) 0.16574(14)
N3 N 0.0952(3) 0.2446(2) 0.12372(14)
N4 N 0.2431(3) 0.2990(2) 0.10234(14)
N5 N -0.2975(3) -0.2740(2) 0.10151(15)
N6 N -0.1578(3) -0.1999(2) 0.13938(15)
N7 N 0.2542(3) 0.2824(2) 0.17379(14)
N8 N 0.2885(3) 0.3954(2) 0.16617(14)
N9 N -0.2042(3) -0.2539(2) 0.20493(14)
N10 N -0.1892(3) -0.3241(2) 0.14511(14)
N11 N -0.1205(3) -0.3384(2) -0.18816(14)
C1 C -0.1218(4) -0.3920(3) -0.09511(16)
H1 H -0.1598 -0.3799 -0.0786
O1 O -0.3766(5) -0.5595(3) 0.1909(2)
O2 O 0.5875(3) 0.3932(3) 0.07009(16)
O3 O -0.5814(3) -0.4693(3) 0.03115(16)
O4 O 0.3658(3) 0.6415(2) 0.14673(15)
O5 O -0.2351(5) -0.1084(3) 0.33641(18)
C2 C -0.3685(4) -0.3834(3) 0.17213(19)
C3 C -0.3584(4) -0.4254(3) 0.1429(2)
H2 H -0.3500 -0.4144 0.1198
C4 C -0.3609(4) -0.4856(3) 0.1484(2)
H3 H -0.3533 -0.5153 0.1288
C5 C -0.3745(5) -0.5011(3) 0.1823(3)
C6 C -0.3899(5) -0.4611(3) 0.2095(2)
H4 H -0.4035 -0.4736 0.2320
C7 C -0.3862(4) -0.4020(3) 0.2055(2)
H5 H -0.3957 -0.3736 0.2253
C8 C -0.3384(8) -0.5959(5) 0.1674(3)
H6 H -0.3772 -0.6134 0.1447
H7 H -0.3295 -0.6294 0.1788
H8 H -0.2818 -0.5705 0.1621
C9 C -0.4192(4) -0.2954(3) 0.17945(18)
H9 H -0.4701 -0.3179 0.1888
C10 C -0.4034(4) -0.2315(3) 0.17740(18)
C11 C -0.4647(4) -0.1982(3) 0.1842(2)
H10 H -0.5200 -0.2174 0.1916
C12 C -0.4438(4) -0.1374(3) 0.1798(2)
H11 H -0.4850 -0.1147 0.1844
C13 C -0.3624(4) -0.1090(3) 0.16875(19)
C14 C -0.3066(4) -0.1453(3) 0.16254(18)
H12 H -0.2507 -0.1264 0.1554
C15 C -0.2634(4) -0.0180(3) 0.1477(2)
H13 H -0.2346 -0.0446 0.1347
C16 C -0.3340(4) -0.0431(3) 0.1662(2)
C17 C -0.3774(5) -0.0021(3) 0.1843(2)
H14 H -0.4275 -0.0184 0.1962
C18 C -0.3489(5) 0.0599(3) 0.1851(2)
H15 H -0.3794 0.0861 0.1974
C19 C -0.2743(4) 0.0857(3) 0.1678(2)
C20 C -0.2336(4) 0.0459(3) 0.1479(2)
C21 C -0.1567(4) 0.0721(3) 0.1311(2)
H16 H -0.1282 0.0456 0.1177
C22 C -0.1236(4) 0.1349(3) 0.1340(2)
C23 C -0.1673(4) 0.1747(3) 0.1531(2)
H17 H -0.1464 0.2181 0.1542
C24 C -0.2394(5) 0.1503(3) 0.1697(2)
H18 H -0.2671 0.1774 0.1830
C25 C 0.0172(4) 0.2173(3) 0.13592(19)
H19 H 0.0023 0.2371 0.1580
C26 C -0.0414(4) 0.1620(3) 0.11756(19)
C27 C -0.0195(5) 0.1332(3) 0.0854(2)
H20 H -0.0579 0.0953 0.0723
C28 C 0.0593(5) 0.1606(3) 0.0726(2)
H21 H 0.0753 0.1416 0.0506
C29 C 0.1141(4) 0.2152(3) 0.09195(18)
C30 C 0.2007(4) 0.2474(3) 0.08222(18)
H22 H 0.2245 0.2303 0.0616
C31 C 0.3309(4) 0.3249(3) 0.09415(17)
C32 C 0.3536(5) 0.3764(4) 0.0785(2)
H23 H 0.3109 0.3969 0.0741
C33 C 0.4380(5) 0.3991(4) 0.0691(2)
H24 H 0.4521 0.4333 0.0570
C34 C 0.5005(4) 0.3718(4) 0.0773(2)
C35 C 0.4804(5) 0.3228(4) 0.0948(3)
H25 H 0.5247 0.3051 0.1014
C36 C 0.3946(5) 0.2988(4) 0.1030(3)
H26 H 0.3804 0.2642 0.1147
C37 C 0.6055(6) 0.4350(6) 0.0473(3)
H27 H 0.5904 0.4132 0.0220
H28 H 0.6681 0.4578 0.0512
H29 H 0.5708 0.4641 0.0525
C38 C -0.3721(4) -0.3205(3) 0.08152(19)
C39 C -0.3612(5) -0.3635(3) 0.0529(2)
H30 H -0.3051 -0.3597 0.0445
C40 C -0.4346(5) -0.4130(4) 0.0363(2)
H31 H -0.4274 -0.4432 0.0170
C41 C -0.5164(5) -0.4176(4) 0.0479(2)
C42 C -0.5277(5) -0.3724(4) 0.0745(2)
H32 H -0.5849 -0.3741 0.0812
C43 C -0.4563(4) -0.3241(3) 0.0918(2)
H33 H -0.4646 -0.2935 0.1106
C44 C -0.6684(5) -0.4765(5) 0.0422(3)
H34 H -0.6661 -0.4732 0.0686
H35 H -0.7071 -0.5171 0.0303
H36 H -0.6911 -0.4440 0.0352
C45 C -0.2462(5) -0.2371(3) 0.0841(2)
H37 H -0.2599 -0.2377 0.0591
C46 C -0.1662(5) -0.1943(3) 0.1046(2)
C47 C -0.1026(6) -0.1503(4) 0.0909(2)
H38 H -0.1076 -0.1480 0.0659
C48 C -0.0343(6) -0.1113(4) 0.1137(2)
H39 H 0.0077 -0.0806 0.1045
C49 C -0.0238(5) -0.1148(3) 0.1498(2)
C50 C -0.0861(4) -0.1620(3) 0.1605(2)
H40 H -0.0776 -0.1683 0.1846
C51 C 0.0861(4) -0.0127(3) 0.1677(2)
H41 H 0.0729 -0.0049 0.1443
C52 C 0.0469(5) -0.0684(3) 0.1768(2)
C53 C 0.0684(6) -0.0805(4) 0.2118(2)
H42 H 0.0406 -0.1195 0.2177
C54 C 0.1277(6) -0.0371(4) 0.2365(3)
H43 H 0.1425 -0.0466 0.2592
C55 C 0.1687(5) 0.0228(4) 0.2292(2)
C56 C 0.1494(5) 0.0351(3) 0.1950(2)
C57 C 0.1849(4) 0.0934(3) 0.1861(2)
H44 H 0.1716 0.1003 0.1625
C58 C 0.2407(4) 0.1416(3) 0.2126(2)
C59 C 0.2625(5) 0.1283(4) 0.2471(2)
H45 H 0.3020 0.1599 0.2648
C60 C 0.2277(5) 0.0712(4) 0.2555(2)
H46 H 0.2427 0.0636 0.2788
C61 C 0.2305(4) 0.2249(3) 0.18038(19)
H47 H 0.1781 0.1967 0.1675
C62 C 0.2773(4) 0.2040(3) 0.2046(2)
C63 C 0.3571(5) 0.2443(3) 0.2220(2)
H48 H 0.3921 0.2312 0.2385
C64 C 0.3832(4) 0.3019(3) 0.2150(2)
H49 H 0.4373 0.3297 0.2266
C65 C 0.3320(4) 0.3213(3) 0.19095(18)
C66 C 0.3482(4) 0.3833(3) 0.18492(19)
H50 H 0.4014 0.4143 0.1946
C67 C 0.3067(4) 0.4584(3) 0.16070(17)
C68 C 0.2466(4) 0.4915(3) 0.16885(18)
H51 H 0.1925 0.4719 0.1772
C69 C 0.2649(4) 0.5527(3) 0.16494(19)
H52 H 0.2242 0.5752 0.1711
C70 C 0.3421(4) 0.5806(3) 0.1521(2)
C71 C 0.4043(4) 0.5491(3) 0.14533(19)
H53 H 0.4590 0.5696 0.1378
C72 C 0.3876(4) 0.4890(3) 0.14936(19)
H54 H 0.4304 0.4678 0.1445
C73 C 0.3026(6) 0.6749(4) 0.1547(3)
H55 H 0.2470 0.6530 0.1397
H56 H 0.3247 0.7165 0.1493
H57 H 0.2931 0.6780 0.1805
C74 C -0.2334(6) -0.1475(5) 0.3037(2)
C75 C -0.2604(5) -0.2083(4) 0.2990(2)
H58 H -0.2852 -0.2276 0.3181
C76 C -0.2529(4) -0.2442(4) 0.26655(19)
H59 H -0.2729 -0.2879 0.2636
C77 C -0.2165(4) -0.2175(3) 0.23787(18)
C78 C -0.1911(5) -0.1535(3) 0.2426(2)
H60 H -0.1697 -0.1339 0.2231
C79 C -0.1971(5) -0.1176(4) 0.2762(2)
H61 H -0.1767 -0.0737 0.2801
C80 C -0.2839(10) -0.1359(7) 0.3634(4)
H62 H -0.3457 -0.1540 0.3537
H63 H -0.2792 -0.1042 0.3851
H64 H -0.2602 -0.1683 0.3698
C81 C -0.1669(4) -0.2957(3) 0.20850(18)
H65 H -0.1469 -0.3003 0.2319
C82 C -0.1561(4) -0.3363(3) 0.17551(18)
C83 C -0.1141(5) -0.3825(3) 0.17529(19)
H66 H -0.0898 -0.3891 0.1974
C84 C -0.1089(4) -0.4171(3) 0.14331(18)
H67 H -0.0828 -0.4497 0.1429
C85 C -0.1413(4) -0.4058(3) 0.11063(17)
C86 C -0.1793(4) -0.3575(3) 0.11335(17)
H68 H -0.1993 -0.3476 0.0915
C87 C -0.1213(4) -0.4176(3) 0.04469(16)
H69 H -0.1137 -0.3746 0.0466
C88 C -0.1373(4) -0.4430(3) 0.07523(17)
C89 C -0.1500(4) -0.5079(3) 0.07157(18)
H70 H -0.1634 -0.5270 0.0920
C90 C -0.1432(4) -0.5430(3) 0.03918(17)
H71 H -0.1517 -0.5860 0.0377
C91 C -0.1241(4) -0.5172(3) 0.00821(17)
C92 C -0.1154(4) -0.4522(3) 0.01086(16)
C93 C -0.0990(4) -0.4248(3) -0.02037(16)
H72 H -0.0918 -0.3819 -0.0187
C94 C -0.0935(4) -0.4606(3) -0.05293(17)
C95 C -0.1012(4) -0.5237(3) -0.05549(18)
H73 H -0.0960 -0.5477 -0.0781
C96 C -0.1160(4) -0.5510(3) -0.02585(17)
H74 H -0.1209 -0.5937 -0.0282
C97 C -0.0767(4) -0.4314(3) -0.08571(16)
C98 C -0.0167(4) -0.4466(3) -0.10925(17)
H75 H 0.0150 -0.4742 -0.1041
C99 C -0.0049(4) -0.4207(3) -0.14018(17)
H76 H 0.0377 -0.4282 -0.1557
C100 C -0.0562(4) -0.3835(3) -0.14815(16)
N12 N -0.1159(3) -0.3695(2) -0.12615(13)
C101 C -0.0612(4) -0.3637(3) -0.18282(17)
H77 H -0.0221 -0.3695 -0.2005
O6 O -0.1682(6) -0.2524(4) -0.3173(2)
C102 C -0.1283(5) -0.3150(4) -0.22185(17)
C103 C -0.0706(5) -0.2620(3) -0.22967(18)
H78 H -0.0208 -0.2393 -0.2130
C104 C -0.0857(5) -0.2424(3) -0.26185(19)
H79 H -0.0462 -0.2062 -0.2672
C105 C -0.1585(5) -0.2756(3) -0.28620(16)
C106 C -0.2162(5) -0.3286(3) -0.27839(18)
H80 H -0.2660 -0.3513 -0.2950
C107 C -0.2011(5) -0.3482(3) -0.2462(2)
H81 H -0.2406 -0.3844 -0.2409
C108 C -0.2478(11) -0.2859(7) -0.3391(4)
H82 H -0.2520 -0.2679 -0.3608
H83 H -0.2488 -0.3291 -0.3464
H84 H -0.2975 -0.2837 -0.3252
Fe1A Fe 0.25478(5) 0.26256(4) -0.15358(2)
Fe2A Fe -0.18628(5) -0.32266(4) -0.14649(2)
N1A N 0.3598(3) 0.3209(2) -0.16771(14)
N2A N 0.3241(3) 0.2054(2) -0.16574(14)
N3A N -0.0952(3) -0.2446(2) -0.12372(14)
N4A N -0.2431(3) -0.2990(2) -0.10234(14)
N5A N 0.2975(3) 0.2740(2) -0.10151(15)
N6A N 0.1578(3) 0.1999(2) -0.13938(15)
N7A N -0.2542(3) -0.2824(2) -0.17379(14)
N8A N -0.2885(3) -0.3954(2) -0.16617(14)
N9A N 0.2042(3) 0.2539(2) -0.20493(14)
N10A N 0.1892(3) 0.3241(2) -0.14511(14)
N11A N 0.1205(3) 0.3384(2) 0.18816(14)
C1A C 0.1218(4) 0.3920(3) 0.09511(16)
H1A H 0.1598 0.3799 0.0786
O1A O 0.3766(5) 0.5595(3) -0.1909(2)
O2A O -0.5875(3) -0.3932(3) -0.07009(16)
O3A O 0.5814(3) 0.4693(3) -0.03115(16)
O4A O -0.3658(3) -0.6415(2) -0.14673(15)
O5A O 0.2351(5) 0.1084(3) -0.33641(18)
C2A C 0.3685(4) 0.3834(3) -0.17213(19)
C3A C 0.3584(4) 0.4254(3) -0.1429(2)
H2A H 0.3500 0.4144 -0.1198
C4A C 0.3609(4) 0.4856(3) -0.1484(2)
H3A H 0.3533 0.5153 -0.1288
C5A C 0.3745(5) 0.5011(3) -0.1823(3)
C6A C 0.3899(5) 0.4611(3) -0.2095(2)
H4A H 0.4035 0.4736 -0.2320
C7A C 0.3862(4) 0.4020(3) -0.2055(2)
H5A H 0.3957 0.3736 -0.2253
C8A C 0.3384(8) 0.5959(5) -0.1674(3)
H6A H 0.3772 0.6134 -0.1447
H7A H 0.3295 0.6294 -0.1788
H8A H 0.2818 0.5705 -0.1621
C9A C 0.4192(4) 0.2954(3) -0.17945(18)
H9A H 0.4701 0.3179 -0.1888
C10A C 0.4034(4) 0.2315(3) -0.17740(18)
C11A C 0.4647(4) 0.1982(3) -0.1842(2)
H10A H 0.5200 0.2174 -0.1916
C12A C 0.4438(4) 0.1374(3) -0.1798(2)
H11A H 0.4850 0.1147 -0.1844
C13A C 0.3624(4) 0.1090(3) -0.16875(19)
C14A C 0.3066(4) 0.1453(3) -0.16254(18)
H12A H 0.2507 0.1264 -0.1554
C15A C 0.2634(4) 0.0180(3) -0.1477(2)
H13A H 0.2346 0.0446 -0.1347
C16A C 0.3340(4) 0.0431(3) -0.1662(2)
C17A C 0.3774(5) 0.0021(3) -0.1843(2)
H14A H 0.4275 0.0184 -0.1962
C18A C 0.3489(5) -0.0599(3) -0.1851(2)
H15A H 0.3794 -0.0861 -0.1974
C19A C 0.2743(4) -0.0857(3) -0.1678(2)
C20A C 0.2336(4) -0.0459(3) -0.1479(2)
C21A C 0.1567(4) -0.0721(3) -0.1311(2)
H16A H 0.1282 -0.0456 -0.1177
C22A C 0.1236(4) -0.1349(3) -0.1340(2)
C23A C 0.1673(4) -0.1747(3) -0.1531(2)
H17A H 0.1464 -0.2181 -0.1542
C24A C 0.2394(5) -0.1503(3) -0.1697(2)
H18A H 0.2671 -0.1774 -0.1830
C25A C -0.0172(4) -0.2173(3) -0.13592(19)
H19A H -0.0023 -0.2371 -0.1580
C26A C 0.0414(4) -0.1620(3) -0.11756(19)
C27A C 0.0195(5) -0.1332(3) -0.0854(2)
H20A H 0.0579 -0.0953 -0.0723
C28A C -0.0593(5) -0.1606(3) -0.0726(2)
H21A H -0.0753 -0.1416 -0.0506
C29A C -0.1141(4) -0.2152(3) -0.09195(18)
C30A C -0.2007(4) -0.2474(3) -0.08222(18)
H22A H -0.2245 -0.2303 -0.0616
C31A C -0.3309(4) -0.3249(3) -0.09415(17)
C32A C -0.3536(5) -0.3764(4) -0.0785(2)
H23A H -0.3109 -0.3969 -0.0741
C33A C -0.4380(5) -0.3991(4) -0.0691(2)
H24A H -0.4521 -0.4333 -0.0570
C34A C -0.5005(4) -0.3718(4) -0.0773(2)
C35A C -0.4804(5) -0.3228(4) -0.0948(3)
H25A H -0.5247 -0.3051 -0.1014
C36A C -0.3946(5) -0.2988(4) -0.1030(3)
H26A H -0.3804 -0.2642 -0.1147
C37A C -0.6055(6) -0.4350(6) -0.0473(3)
H27A H -0.5904 -0.4132 -0.0220
H28A H -0.6681 -0.4578 -0.0512
H29A H -0.5708 -0.4641 -0.0525
C38A C 0.3721(4) 0.3205(3) -0.08152(19)
C39A C 0.3612(5) 0.3635(3) -0.0529(2)
H30A H 0.3051 0.3597 -0.0445
C40A C 0.4346(5) 0.4130(4) -0.0363(2)
H31A H 0.4274 0.4432 -0.0170
C41A C 0.5164(5) 0.4176(4) -0.0479(2)
C42A C 0.5277(5) 0.3724(4) -0.0745(2)
H32A H 0.5849 0.3741 -0.0812
C43A C 0.4563(4) 0.3241(3) -0.0918(2)
H33A H 0.4646 0.2935 -0.1106
C44A C 0.6684(5) 0.4765(5) -0.0422(3)
H34A H 0.6661 0.4732 -0.0686
H35A H 0.7071 0.5171 -0.0303
H36A H 0.6911 0.4440 -0.0352
C45A C 0.2462(5) 0.2371(3) -0.0841(2)
H37A H 0.2599 0.2377 -0.0591
C46A C 0.1662(5) 0.1943(3) -0.1046(2)
C47A C 0.1026(6) 0.1503(4) -0.0909(2)
H38A H 0.1076 0.1480 -0.0659
C48A C 0.0343(6) 0.1113(4) -0.1137(2)
H39A H -0.0077 0.0806 -0.1045
C49A C 0.0238(5) 0.1148(3) -0.1498(2)
C50A C 0.0861(4) 0.1620(3) -0.1605(2)
H40A H 0.0776 0.1683 -0.1846
C51A C -0.0861(4) 0.0127(3) -0.1677(2)
H41A H -0.0729 0.0049 -0.1443
C52A C -0.0469(5) 0.0684(3) -0.1768(2)
C53A C -0.0684(6) 0.0805(4) -0.2118(2)
H42A H -0.0406 0.1195 -0.2177
C54A C -0.1277(6) 0.0371(4) -0.2365(3)
H43A H -0.1425 0.0466 -0.2592
C55A C -0.1687(5) -0.0228(4) -0.2292(2)
C56A C -0.1494(5) -0.0351(3) -0.1950(2)
C57A C -0.1849(4) -0.0934(3) -0.1861(2)
H44A H -0.1716 -0.1003 -0.1625
C58A C -0.2407(4) -0.1416(3) -0.2126(2)
C59A C -0.2625(5) -0.1283(4) -0.2471(2)
H45A H -0.3020 -0.1599 -0.2648
C60A C -0.2277(5) -0.0712(4) -0.2555(2)
H46A H -0.2427 -0.0636 -0.2788
C61A C -0.2305(4) -0.2249(3) -0.18038(19)
H47A H -0.1781 -0.1967 -0.1675
C62A C -0.2773(4) -0.2040(3) -0.2046(2)
C63A C -0.3571(5) -0.2443(3) -0.2220(2)
H48A H -0.3921 -0.2312 -0.2385
C64A C -0.3832(4) -0.3019(3) -0.2150(2)
H49A H -0.4373 -0.3297 -0.2266
C65A C -0.3320(4) -0.3213(3) -0.19095(18)
C66A C -0.3482(4) -0.3833(3) -0.18492(19)
H50A H -0.4014 -0.4143 -0.1946
C67A C -0.3067(4) -0.4584(3) -0.16070(17)
C68A C -0.2466(4) -0.4915(3) -0.16885(18)
H51A H -0.1925 -0.4719 -0.1772
C69A C -0.2649(4) -0.5527(3) -0.16494(19)
H52A H -0.2242 -0.5752 -0.1711
C70A C -0.3421(4) -0.5806(3) -0.1521(2)
C71A C -0.4043(4) -0.5491(3) -0.14533(19)
H53A H -0.4590 -0.5696 -0.1378
C72A C -0.3876(4) -0.4890(3) -0.14936(19)
H54A H -0.4304 -0.4678 -0.1445
C73A C -0.3026(6) -0.6749(4) -0.1547(3)
H55A H -0.2470 -0.6530 -0.1397
H56A H -0.3247 -0.7165 -0.1493
H57A H -0.2931 -0.6780 -0.1805
C74A C 0.2334(6) 0.1475(5) -0.3037(2)
C75A C 0.2604(5) 0.2083(4) -0.2990(2)
H58A H 0.2852 0.2276 -0.3181
C76A C 0.2529(4) 0.2442(4) -0.26655(19)
H59A H 0.2729 0.2879 -0.2636
C77A C 0.2165(4) 0.2175(3) -0.23787(18)
C78A C 0.1911(5) 0.1535(3) -0.2426(2)
H60A H 0.1697 0.1339 -0.2231
C79A C 0.1971(5) 0.1176(4) -0.2762(2)
H61A H 0.1767 0.0737 -0.2801
C80A C 0.2839(10) 0.1359(7) -0.3634(4)
H62A H 0.3457 0.1540 -0.3537
H63A H 0.2792 0.1042 -0.3851
H64A H 0.2602 0.1683 -0.3698
C81A C 0.1669(4) 0.2957(3) -0.20850(18)
H65A H 0.1469 0.3003 -0.2319
C82A C 0.1561(4) 0.3363(3) -0.17551(18)
C83A C 0.1141(5) 0.3825(3) -0.17529(19)
H66A H 0.0898 0.3891 -0.1974
C84A C 0.1089(4) 0.4171(3) -0.14331(18)
H67A H 0.0828 0.4497 -0.1429
C85A C 0.1413(4) 0.4058(3) -0.11063(17)
C86A C 0.1793(4) 0.3575(3) -0.11335(17)
H68A H 0.1993 0.3476 -0.0915
C87A C 0.1213(4) 0.4176(3) -0.04469(16)
H69A H 0.1137 0.3746 -0.0466
C88A C 0.1373(4) 0.4430(3) -0.07523(17)
C89A C 0.1500(4) 0.5079(3) -0.07157(18)
H70A H 0.1634 0.5270 -0.0920
C90A C 0.1432(4) 0.5430(3) -0.03918(17)
H71A H 0.1517 0.5860 -0.0377
C91A C 0.1241(4) 0.5172(3) -0.00821(17)
C92A C 0.1154(4) 0.4522(3) -0.01086(16)
C93A C 0.0990(4) 0.4248(3) 0.02037(16)
H72A H 0.0918 0.3819 0.0187
C94A C 0.0935(4) 0.4606(3) 0.05293(17)
C95A C 0.1012(4) 0.5237(3) 0.05549(18)
H73A H 0.0960 0.5477 0.0781
C96A C 0.1160(4) 0.5510(3) 0.02585(17)
H74A H 0.1209 0.5937 0.0282
C97A C 0.0767(4) 0.4314(3) 0.08571(16)
C98A C 0.0167(4) 0.4466(3) 0.10925(17)
H75A H -0.0150 0.4742 0.1041
C99A C 0.0049(4) 0.4207(3) 0.14018(17)
H76A H -0.0377 0.4282 0.1557
C100A C 0.0562(4) 0.3835(3) 0.14815(16)
N12A N 0.1159(3) 0.3695(2) 0.12615(13)
C101A C 0.0612(4) 0.3637(3) 0.18282(17)
H77A H 0.0221 0.3695 0.2005
O6A O 0.1682(6) 0.2524(4) 0.3173(2)
C102A C 0.1283(5) 0.3150(4) 0.22185(17)
C103A C 0.0706(5) 0.2620(3) 0.22967(18)
H78A H 0.0208 0.2393 0.2130
C104A C 0.0857(5) 0.2424(3) 0.26185(19)
H79A H 0.0462 0.2062 0.2672
C105A C 0.1585(5) 0.2756(3) 0.28620(16)
C106A C 0.2162(5) 0.3286(3) 0.27839(18)
H80A H 0.2660 0.3513 0.2950
C107A C 0.2011(5) 0.3482(3) 0.2462(2)
H81A H 0.2406 0.3844 0.2409
C108A C 0.2478(11) 0.2859(7) 0.3391(4)
H82A H 0.2520 0.2679 0.3608
H83A H 0.2488 0.3291 0.3464
H84A H 0.2975 0.2837 0.3252
Fe3 Fe 0.17060(6) -0.29622(4) 0.34202(3)
Fe4 Fe 0.63728(5) 0.29143(4) 0.36923(2)
N13 N 0.0548(4) -0.3605(3) 0.33021(17)
N14 N 0.0981(4) -0.2420(3) 0.33640(17)
N15 N 0.5580(3) 0.2254(2) 0.38908(13)
N16 N 0.7160(3) 0.2901(2) 0.41115(13)
N17 N 0.1541(3) -0.2828(2) 0.39494(19)
N18 N 0.2789(3) -0.2262(2) 0.36094(16)
N19 N 0.6888(3) 0.2364(2) 0.33756(13)
N20 N 0.7206(3) 0.3545(2) 0.34707(14)
N21 N 0.5520(3) 0.2919(2) 0.32816(13)
N22 N 0.5851(3) 0.3526(2) 0.39415(13)
N23 N 0.7986(4) 0.3037(3) 0.70879(16)
N24 N 0.7633(4) 0.3565(2) 0.65779(15)
O7 O -0.0372(3) -0.6139(2) 0.32552(14)
O8 O 1.0359(3) 0.4700(3) 0.4552(2)
O9 O -0.1370(4) -0.3779(3) 0.46741(18)
O10 O 0.7382(4) 0.6051(2) 0.37274(17)
O11 O 0.5319(3) 0.1611(2) 0.18734(12)
O12 O 0.8722(5) 0.1902(3) 0.82330(17)
C109 C 0.0339(4) -0.4263(3) 0.32820(18)
C110 C 0.0701(5) -0.4620(3) 0.3053(2)
H85 H 0.1119 -0.4431 0.2905
C111 C 0.0480(5) -0.5251(3) 0.3029(2)
H86 H 0.0732 -0.5497 0.2863
C112 C -0.0117(4) -0.5517(3) 0.3252(2)
C113 C -0.0491(4) -0.5165(3) 0.34929(19)
H87 H -0.0895 -0.5358 0.3646
C114 C -0.0281(4) -0.4531(3) 0.3514(2)
H88 H -0.0540 -0.4284 0.3676
C115 C 0.0001(6) -0.6518(4) 0.3021(3)
H89 H -0.0181 -0.6513 0.2768
H90 H -0.0198 -0.6942 0.3065
H91 H 0.0642 -0.6363 0.3066
C116 C -0.0109(5) -0.3380(3) 0.3285(3)
H92 H -0.0695 -0.3642 0.3256
C117 C 0.0071(5) -0.2717(4) 0.3312(3)
C118 C -0.0526(6) -0.2411(4) 0.3282(3)
H93 H -0.1133 -0.2630 0.3247
C119 C -0.0255(6) -0.1772(4) 0.3301(3)
H94 H -0.0679 -0.1557 0.3274
C120 C 0.0621(5) -0.1454(3) 0.3359(3)
C121 C 0.1209(5) -0.1808(3) 0.3377(2)
H95 H 0.1818 -0.1596 0.3400
C122 C 0.1772(5) -0.0449(3) 0.3578(2)
H96 H 0.2111 -0.0668 0.3685
C123 C 0.0957(5) -0.0778(3) 0.3395(3)
C124 C 0.0438(5) -0.0436(3) 0.3260(3)
H97 H -0.0134 -0.0651 0.3143
C125 C 0.0739(5) 0.0202(3) 0.3292(3)
H98 H 0.0375 0.0418 0.3199
C126 C 0.1585(5) 0.0526(3) 0.3462(2)
C127 C 0.2116(4) 0.0186(3) 0.3610(2)
C128 C 0.2969(4) 0.0517(3) 0.3771(2)
H99 H 0.3324 0.0303 0.3873
C129 C 0.3304(4) 0.1151(3) 0.3784(2)
C130 C 0.2780(4) 0.1471(3) 0.3643(2)
H100 H 0.3012 0.1903 0.3654
C131 C 0.1943(5) 0.1180(3) 0.3489(2)
H101 H 0.1597 0.1410 0.3399
C132 C 0.4729(4) 0.1952(3) 0.37791(17)
H102 H 0.4451 0.2062 0.3581
C133 C 0.4246(4) 0.1488(3) 0.39430(18)
C134 C 0.4648(4) 0.1319(3) 0.42308(19)
H103 H 0.4334 0.0988 0.4339
C135 C 0.5491(4) 0.1631(3) 0.43543(18)
H104 H 0.5767 0.1531 0.4556
C136 C 0.5954(4) 0.2100(3) 0.41847(17)
C137 C 0.6854(4) 0.2478(3) 0.42956(18)
H105 H 0.7196 0.2416 0.4493
C138 C 0.8006(4) 0.3323(3) 0.42368(18)
C139 C 0.8680(4) 0.3383(3) 0.40091(19)
H106 H 0.8583 0.3117 0.3779
C140 C 0.9491(4) 0.3827(3) 0.4113(2)
H107 H 0.9947 0.3862 0.3957
C141 C 0.9613(4) 0.4208(3) 0.4443(2)
C142 C 0.8959(4) 0.4144(3) 0.4682(2)
H108 H 0.9058 0.4407 0.4913
C143 C 0.8172(4) 0.3694(3) 0.45735(19)
H109 H 0.7732 0.3639 0.4737
C144 C 1.1045(6) 0.4779(5) 0.4299(3)
H110 H 1.1373 0.4479 0.4316
H111 H 1.1446 0.5199 0.4364
H112 H 1.0770 0.4710 0.4050
C145 C 0.0788(4) -0.3093(3) 0.4137(2)
C146 C 0.0687(5) -0.3624(4) 0.4270(2)
H113 H 0.1114 -0.3839 0.4230
C147 C -0.0006(6) -0.3861(4) 0.4458(3)
H114 H -0.0042 -0.4218 0.4561
C148 C -0.0637(5) -0.3568(5) 0.4493(3)
C149 C -0.0597(6) -0.3037(6) 0.4348(3)
H115 H -0.1049 -0.2841 0.4371
C150 C 0.0128(6) -0.2810(5) 0.4171(3)
H116 H 0.0174 -0.2451 0.4070
C151 C -0.1369(12) -0.4315(9) 0.4847(6)
H117 H -0.1537 -0.4694 0.4662
H118 H -0.1789 -0.4350 0.5030
H119 H -0.0780 -0.4256 0.4964
C152 C 0.2122(4) -0.2366(3) 0.4151(2)
H120 H 0.2083 -0.2249 0.4404
C153 C 0.2844(4) -0.2035(3) 0.3969(2)
C154 C 0.3504(5) -0.1527(3) 0.4158(2)
H121 H 0.3515 -0.1385 0.4411
C155 C 0.4143(5) -0.1242(3) 0.3956(2)
H122 H 0.4605 -0.0890 0.4073
C156 C 0.4123(4) -0.1456(3) 0.3591(2)
C157 C 0.3440(4) -0.1980(3) 0.3432(2)
H123 H 0.3439 -0.2145 0.3182
C158 C 0.5664(4) -0.1256(3) 0.2860(2)
H124 H 0.5829 -0.1509 0.2665
C159 C 0.5077(5) -0.1520(3) 0.3072(2)
H125 H 0.4841 -0.1958 0.3027
C160 C 0.4802(4) -0.1156(3) 0.3366(2)
C161 C 0.5170(5) -0.0528(3) 0.3434(2)
H126 H 0.5004 -0.0281 0.3632
C162 C 0.5797(4) -0.0241(3) 0.32136(19)
C163 C 0.6040(4) -0.0612(3) 0.29187(19)
C164 C 0.6658(5) -0.0314(3) 0.2699(2)
H127 H 0.6849 -0.0556 0.2507
C165 C 0.6984(4) 0.0317(3) 0.2759(2)
H128 H 0.7402 0.0504 0.2610
C166 C 0.6713(4) 0.0697(3) 0.30389(19)
C167 C 0.6147(4) 0.0414(3) 0.3264(2)
H129 H 0.5981 0.0664 0.3460
C168 C 0.6721(4) 0.1750(3) 0.33465(17)
H130 H 0.6389 0.1560 0.3521
C169 C 0.7005(4) 0.1370(3) 0.30745(18)
C170 C 0.7530(4) 0.1672(3) 0.2834(2)
H131 H 0.7750 0.1440 0.2647
C171 C 0.7734(5) 0.2317(3) 0.28659(19)
H132 H 0.8092 0.2519 0.2702
C172 C 0.7411(4) 0.2654(3) 0.31367(17)
C173 C 0.7547(4) 0.3310(3) 0.31994(18)
H133 H 0.7876 0.3560 0.3047
C174 C 0.7275(4) 0.4196(3) 0.35282(17)
C175 C 0.7506(4) 0.4545(3) 0.38701(19)
H134 H 0.7635 0.4363 0.4067
C176 C 0.7553(4) 0.5177(3) 0.3929(2)
H135 H 0.7737 0.5428 0.4164
C177 C 0.7329(4) 0.5427(3) 0.3641(2)
C178 C 0.7100(4) 0.5079(3) 0.3300(2)
H136 H 0.6966 0.5261 0.3103
C179 C 0.7062(4) 0.4462(3) 0.32397(19)
H137 H 0.6892 0.4218 0.3003
C180 C 0.7035(8) 0.6327(4) 0.3443(3)
H138 H 0.7337 0.6269 0.3224
H139 H 0.7135 0.6769 0.3533
H140 H 0.6404 0.6124 0.3383
C181 C 0.5449(4) 0.2598(3) 0.29207(17)
C182 C 0.5713(4) 0.2918(3) 0.26403(17)
H141 H 0.5908 0.3357 0.2690
C183 C 0.5690(4) 0.2602(3) 0.22926(18)
H142 H 0.5881 0.2827 0.2106
C184 C 0.5392(4) 0.1955(3) 0.22083(18)
C185 C 0.5143(5) 0.1639(3) 0.24908(18)
H143 H 0.4935 0.1200 0.2439
C186 C 0.5190(4) 0.1944(3) 0.28374(17)
H144 H 0.5048 0.1715 0.3026
C187 C 0.5448(7) 0.1924(4) 0.1572(2)
H145 H 0.5035 0.2169 0.1566
H146 H 0.5347 0.1620 0.1346
H147 H 0.6051 0.2198 0.1599
C188 C 0.5165(4) 0.3378(3) 0.33495(17)
H148 H 0.4814 0.3471 0.3167
C189 C 0.5341(4) 0.3732(3) 0.37168(17)
C190 C 0.5055(4) 0.4244(3) 0.38322(18)
H149 H 0.4704 0.4377 0.3669
C191 C 0.5282(4) 0.4552(3) 0.41804(18)
H150 H 0.5108 0.4912 0.4258
C192 C 0.5766(4) 0.4349(3) 0.44267(17)
C193 C 0.6028(4) 0.3822(3) 0.42882(17)
H151 H 0.6350 0.3668 0.4451
C194 C 0.6465(4) 0.5630(3) 0.52453(18)
H152 H 0.6542 0.6063 0.5301
C195 C 0.6180(4) 0.5320(3) 0.49018(18)
H153 H 0.6070 0.5539 0.4720
C196 C 0.6044(4) 0.4671(3) 0.48083(17)
C197 C 0.6213(3) 0.4352(3) 0.50763(16)
H154 H 0.6129 0.3920 0.5016
C198 C 0.6506(4) 0.4669(3) 0.54353(16)
C199 C 0.6650(4) 0.5320(3) 0.55240(18)
C200 C 0.6932(4) 0.5632(3) 0.58872(18)
H155 H 0.7015 0.6065 0.5949
C201 C 0.7089(4) 0.5312(3) 0.61514(18)
H156 H 0.7288 0.5531 0.6393
C202 C 0.6960(4) 0.4671(3) 0.60714(16)
C203 C 0.6676(4) 0.4355(3) 0.57163(17)
H157 H 0.6594 0.3922 0.5660
C204 C 0.7093(4) 0.4338(3) 0.63636(18)
C205 C 0.6795(5) 0.4496(3) 0.66997(19)
H158 H 0.6525 0.4818 0.6740
C206 C 0.7484(4) 0.3868(3) 0.63077(18)
H159 H 0.7656 0.3751 0.6074
C207 C 0.6900(6) 0.4173(4) 0.6976(2)
H160 H 0.6674 0.4255 0.7203
C208 C 0.7331(5) 0.3740(3) 0.69122(19)
C209 C 0.7517(6) 0.3401(4) 0.7176(2)
H161 H 0.7303 0.3442 0.7407
C210 C 0.8150(5) 0.2689(3) 0.7369(2)
C211 C 0.9025(6) 0.2724(4) 0.7486(2)
H162 H 0.9502 0.2935 0.7370
C212 C 0.9169(7) 0.2444(4) 0.7772(3)
H163 H 0.9752 0.2465 0.7854
C213 C 0.8468(7) 0.2129(4) 0.7943(2)
C214 C 0.7625(7) 0.2072(4) 0.7822(2)
H164 H 0.7146 0.1839 0.7928
C215 C 0.7481(6) 0.2366(4) 0.7536(2)
H165 H 0.6895 0.2340 0.7455
C216 C 0.8005(8) 0.1512(5) 0.8396(3)
H166 H 0.7748 0.1775 0.8563
H167 H 0.8237 0.1249 0.8531
H168 H 0.7554 0.1251 0.8204
Fe3A Fe 0.82940(6) 0.29622(4) 0.65798(3)
Fe4A Fe 0.36272(5) -0.29143(4) 0.63077(2)
N13A N 0.9452(4) 0.3605(3) 0.66979(17)
N14A N 0.9019(4) 0.2420(3) 0.66360(17)
N15A N 0.4420(3) -0.2254(2) 0.61092(13)
N16A N 0.2840(3) -0.2901(2) 0.58885(13)
N17A N 0.8459(3) 0.2828(2) 0.60506(19)
N18A N 0.7211(3) 0.2262(2) 0.63906(16)
N19A N 0.3112(3) -0.2364(2) 0.66244(13)
N20A N 0.2794(3) -0.3545(2) 0.65293(14)
N21A N 0.4480(3) -0.2919(2) 0.67184(13)
N22A N 0.4149(3) -0.3526(2) 0.60585(13)
N23A N 0.2014(4) -0.3037(3) 0.29121(16)
N24A N 0.2367(4) -0.3565(2) 0.34221(15)
O7A O 1.0372(3) 0.6139(2) 0.67448(14)
O8A O -0.0359(3) -0.4700(3) 0.5448(2)
O9A O 1.1370(4) 0.3779(3) 0.53259(18)
O10A O 0.2618(4) -0.6051(2) 0.62726(17)
O11A O 0.4681(3) -0.1611(2) 0.81266(12)
O12A O 0.1278(5) -0.1902(3) 0.17670(17)
C109A C 0.9661(4) 0.4263(3) 0.67180(18)
C110A C 0.9299(5) 0.4620(3) 0.6947(2)
H85A H 0.8881 0.4431 0.7095
C111A C 0.9520(5) 0.5251(3) 0.6971(2)
H86A H 0.9268 0.5497 0.7137
C112A C 1.0117(4) 0.5517(3) 0.6748(2)
C113A C 1.0491(4) 0.5165(3) 0.65071(19)
H87A H 1.0895 0.5358 0.6354
C114A C 1.0281(4) 0.4531(3) 0.6486(2)
H88A H 1.0540 0.4284 0.6324
C115A C 0.9999(6) 0.6518(4) 0.6979(3)
H89A H 1.0181 0.6513 0.7232
H90A H 1.0198 0.6942 0.6935
H91A H 0.9358 0.6363 0.6934
C116A C 1.0109(5) 0.3380(3) 0.6715(3)
H92A H 1.0695 0.3642 0.6744
C117A C 0.9929(5) 0.2717(4) 0.6688(3)
C118A C 1.0526(6) 0.2411(4) 0.6718(3)
H93A H 1.1133 0.2630 0.6753
C119A C 1.0255(6) 0.1772(4) 0.6699(3)
H94A H 1.0679 0.1557 0.6726
C120A C 0.9379(5) 0.1454(3) 0.6641(3)
C121A C 0.8791(5) 0.1808(3) 0.6623(2)
H95A H 0.8182 0.1596 0.6600
C122A C 0.8228(5) 0.0449(3) 0.6422(2)
H96A H 0.7889 0.0668 0.6315
C123A C 0.9043(5) 0.0778(3) 0.6605(3)
C124A C 0.9562(5) 0.0436(3) 0.6740(3)
H97A H 1.0134 0.0651 0.6857
C125A C 0.9261(5) -0.0202(3) 0.6708(3)
H98A H 0.9625 -0.0418 0.6801
C126A C 0.8415(5) -0.0526(3) 0.6538(2)
C127A C 0.7884(4) -0.0186(3) 0.6390(2)
C128A C 0.7031(4) -0.0517(3) 0.6229(2)
H99A H 0.6676 -0.0303 0.6127
C129A C 0.6696(4) -0.1151(3) 0.6216(2)
C130A C 0.7220(4) -0.1471(3) 0.6357(2)
H100A H 0.6988 -0.1903 0.6346
C131A C 0.8057(5) -0.1180(3) 0.6511(2)
H101A H 0.8403 -0.1410 0.6601
C132A C 0.5271(4) -0.1952(3) 0.62209(17)
H102A H 0.5549 -0.2062 0.6419
C133A C 0.5754(4) -0.1488(3) 0.60570(18)
C134A C 0.5352(4) -0.1319(3) 0.57692(19)
H103A H 0.5666 -0.0988 0.5661
C135A C 0.4509(4) -0.1631(3) 0.56457(18)
H104A H 0.4233 -0.1531 0.5444
C136A C 0.4046(4) -0.2100(3) 0.58153(17)
C137A C 0.3146(4) -0.2478(3) 0.57044(18)
H105A H 0.2804 -0.2416 0.5507
C138A C 0.1994(4) -0.3323(3) 0.57632(18)
C139A C 0.1320(4) -0.3383(3) 0.59909(19)
H106A H 0.1417 -0.3117 0.6221
C140A C 0.0509(4) -0.3827(3) 0.5887(2)
H107A H 0.0053 -0.3862 0.6043
C141A C 0.0387(4) -0.4208(3) 0.5557(2)
C142A C 0.1041(4) -0.4144(3) 0.5318(2)
H108A H 0.0942 -0.4407 0.5087
C143A C 0.1828(4) -0.3694(3) 0.54265(19)
H109A H 0.2268 -0.3639 0.5263
C144A C -0.1045(6) -0.4779(5) 0.5701(3)
H110A H -0.1373 -0.4479 0.5684
H111A H -0.1446 -0.5199 0.5636
H112A H -0.0770 -0.4710 0.5950
C145A C 0.9212(4) 0.3093(3) 0.5863(2)
C146A C 0.9313(5) 0.3624(4) 0.5730(2)
H113A H 0.8886 0.3839 0.5770
C147A C 1.0006(6) 0.3861(4) 0.5542(3)
H114A H 1.0042 0.4218 0.5439
C148A C 1.0637(5) 0.3568(5) 0.5507(3)
C149A C 1.0597(6) 0.3037(6) 0.5652(3)
H115A H 1.1049 0.2841 0.5629
C150A C 0.9872(6) 0.2810(5) 0.5829(3)
H116A H 0.9826 0.2451 0.5930
C151A C 1.1369(12) 0.4315(9) 0.5153(6)
H117A H 1.1537 0.4694 0.5338
H118A H 1.1789 0.4350 0.4970
H119A H 1.0780 0.4256 0.5036
C152A C 0.7878(4) 0.2366(3) 0.5849(2)
H120A H 0.7917 0.2249 0.5596
C153A C 0.7156(4) 0.2035(3) 0.6031(2)
C154A C 0.6496(5) 0.1527(3) 0.5842(2)
H121A H 0.6485 0.1385 0.5589
C155A C 0.5857(5) 0.1242(3) 0.6044(2)
H122A H 0.5395 0.0890 0.5927
C156A C 0.5877(4) 0.1456(3) 0.6409(2)
C157A C 0.6560(4) 0.1980(3) 0.6568(2)
H123A H 0.6561 0.2145 0.6818
C158A C 0.4336(4) 0.1256(3) 0.7140(2)
H124A H 0.4171 0.1509 0.7335
C159A C 0.4923(5) 0.1520(3) 0.6928(2)
H125A H 0.5159 0.1958 0.6973
C160A C 0.5198(4) 0.1156(3) 0.6634(2)
C161A C 0.4830(5) 0.0528(3) 0.6566(2)
H126A H 0.4996 0.0281 0.6368
C162A C 0.4203(4) 0.0241(3) 0.67864(19)
C163A C 0.3960(4) 0.0612(3) 0.70813(19)
C164A C 0.3342(5) 0.0314(3) 0.7301(2)
H127A H 0.3151 0.0556 0.7493
C165A C 0.3016(4) -0.0317(3) 0.7241(2)
H128A H 0.2598 -0.0504 0.7390
C166A C 0.3287(4) -0.0697(3) 0.69611(19)
C167A C 0.3853(4) -0.0414(3) 0.6736(2)
H129A H 0.4019 -0.0664 0.6540
C168A C 0.3279(4) -0.1750(3) 0.66535(17)
H130A H 0.3611 -0.1560 0.6479
C169A C 0.2995(4) -0.1370(3) 0.69255(18)
C170A C 0.2470(4) -0.1672(3) 0.7166(2)
H131A H 0.2250 -0.1440 0.7353
C171A C 0.2266(5) -0.2317(3) 0.71341(19)
H132A H 0.1908 -0.2519 0.7298
C172A C 0.2589(4) -0.2654(3) 0.68633(17)
C173A C 0.2453(4) -0.3310(3) 0.68006(18)
H133A H 0.2124 -0.3560 0.6953
C174A C 0.2725(4) -0.4196(3) 0.64718(17)
C175A C 0.2494(4) -0.4545(3) 0.61299(19)
H134A H 0.2365 -0.4363 0.5933
C176A C 0.2447(4) -0.5177(3) 0.6071(2)
H135A H 0.2263 -0.5428 0.5836
C177A C 0.2671(4) -0.5427(3) 0.6359(2)
C178A C 0.2900(4) -0.5079(3) 0.6700(2)
H136A H 0.3034 -0.5261 0.6897
C179A C 0.2938(4) -0.4462(3) 0.67603(19)
H137A H 0.3108 -0.4218 0.6997
C180A C 0.2965(8) -0.6327(4) 0.6557(3)
H138A H 0.2663 -0.6269 0.6776
H139A H 0.2865 -0.6769 0.6467
H140A H 0.3596 -0.6124 0.6617
C181A C 0.4551(4) -0.2598(3) 0.70793(17)
C182A C 0.4287(4) -0.2918(3) 0.73597(17)
H141A H 0.4092 -0.3357 0.7310
C183A C 0.4310(4) -0.2602(3) 0.77074(18)
H142A H 0.4119 -0.2827 0.7894
C184A C 0.4608(4) -0.1955(3) 0.77917(18)
C185A C 0.4857(5) -0.1639(3) 0.75092(18)
H143A H 0.5065 -0.1200 0.7561
C186A C 0.4810(4) -0.1944(3) 0.71626(17)
H144A H 0.4952 -0.1715 0.6974
C187A C 0.4552(7) -0.1924(4) 0.8428(2)
H145A H 0.4965 -0.2169 0.8434
H146A H 0.4653 -0.1620 0.8654
H147A H 0.3949 -0.2198 0.8401
C188A C 0.4835(4) -0.3378(3) 0.66505(17)
H148A H 0.5186 -0.3471 0.6833
C189A C 0.4659(4) -0.3732(3) 0.62832(17)
C190A C 0.4945(4) -0.4244(3) 0.61678(18)
H149A H 0.5296 -0.4377 0.6331
C191A C 0.4718(4) -0.4552(3) 0.58196(18)
H150A H 0.4892 -0.4912 0.5742
C192A C 0.4234(4) -0.4349(3) 0.55733(17)
C193A C 0.3972(4) -0.3822(3) 0.57118(17)
H151A H 0.3650 -0.3668 0.5549
C194A C 0.3535(4) -0.5630(3) 0.47547(18)
H152A H 0.3458 -0.6063 0.4699
C195A C 0.3820(4) -0.5320(3) 0.50982(18)
H153A H 0.3930 -0.5539 0.5280
C196A C 0.3956(4) -0.4671(3) 0.51917(17)
C197A C 0.3787(3) -0.4352(3) 0.49237(16)
H154A H 0.3871 -0.3920 0.4984
C198A C 0.3494(4) -0.4669(3) 0.45647(16)
C199A C 0.3350(4) -0.5320(3) 0.44760(18)
C200A C 0.3068(4) -0.5632(3) 0.41128(18)
H155A H 0.2985 -0.6065 0.4051
C201A C 0.2911(4) -0.5312(3) 0.38486(18)
H156A H 0.2712 -0.5531 0.3607
C202A C 0.3040(4) -0.4671(3) 0.39286(16)
C203A C 0.3324(4) -0.4355(3) 0.42837(17)
H157A H 0.3406 -0.3922 0.4340
C204A C 0.2907(4) -0.4338(3) 0.36364(18)
C205A C 0.3205(5) -0.4496(3) 0.33003(19)
H158A H 0.3475 -0.4818 0.3260
C206A C 0.2516(4) -0.3868(3) 0.36923(18)
H159A H 0.2344 -0.3751 0.3926
C207A C 0.3100(6) -0.4173(4) 0.3024(2)
H160A H 0.3326 -0.4255 0.2797
C208A C 0.2669(5) -0.3740(3) 0.30878(19)
C209A C 0.2483(6) -0.3401(4) 0.2824(2)
H161A H 0.2697 -0.3442 0.2593
C210A C 0.1850(5) -0.2689(3) 0.2631(2)
C211A C 0.0975(6) -0.2724(4) 0.2514(2)
H162A H 0.0498 -0.2935 0.2630
C212A C 0.0831(7) -0.2444(4) 0.2228(3)
H163A H 0.0248 -0.2465 0.2146
C213A C 0.1532(7) -0.2129(4) 0.2057(2)
C214A C 0.2375(7) -0.2072(4) 0.2178(2)
H164A H 0.2854 -0.1839 0.2072
C215A C 0.2519(6) -0.2366(4) 0.2464(2)
H165A H 0.3105 -0.2340 0.2545
C216A C 0.1995(8) -0.1512(5) 0.1604(3)
H166A H 0.2252 -0.1775 0.1437
H167A H 0.1763 -0.1249 0.1469
H168A H 0.2446 -0.1251 0.1796
B1 B 0.1518(7) 0.2729(4) -0.0027(3)
F1 F 0.1723(7) 0.2176(4) -0.0053(2)
F2 F 0.0916(6) 0.2729(4) 0.0223(3)
F3 F 0.1158(7) 0.2756(5) -0.0363(3)
F4 F 0.2196(5) 0.3270(4) 0.0094(2)
B2 B 0.4597(5) 0.4596(4) 0.2838(2)
F5 F 0.4045(4) 0.4702(2) 0.25813(12)
F6 F 0.5120(3) 0.4266(2) 0.26859(14)
F7 F 0.5056(6) 0.5151(4) 0.3049(3)
F8 F 0.4087(4) 0.4249(4) 0.30736(17)
B3 B 0.6608(6) 0.2743(4) 0.5242(2)
F9 F 0.6755(9) 0.2180(6) 0.5113(5)
F10 F 0.6180(6) 0.2725(3) 0.55548(19)
F11 F 0.7411(4) 0.3198(3) 0.53342(18)
F12 F 0.6140(8) 0.2907(7) 0.4974(3)
B4 B 0.2834(12) 0.1046(8) 0.0854(4)
F13 F 0.2216(15) 0.0502(8) 0.0873(7)
F14 F 0.3640(13) 0.0940(10) 0.0833(6)
F15 F 0.2602(14) 0.1252(10) 0.0550(4)
F16 F 0.2877(9) 0.1507(6) 0.1142(3)
B5 B 0.4599(6) 0.6935(4) 0.2579(2)
F17 F 0.4340(4) 0.7019(2) 0.29235(16)
F18 F 0.5462(4) 0.7237(4) 0.2574(2)
F19 F 0.4326(4) 0.6351(3) 0.23958(17)
F20 F 0.4220(6) 0.7245(4) 0.2354(3)
B6 B 0.8181(5) 0.3322(3) 0.2098(2)
F21 F 0.7472(3) 0.2924(2) 0.18661(14)
F22 F 0.8590(3) 0.3804(2) 0.19340(13)
F23 F 0.8770(3) 0.2998(2) 0.21807(16)
F24 F 0.7856(4) 0.3545(2) 0.24111(13)
B7 B 0.0618(5) 0.5571(3) 0.21236(18)
F25 F 0.0207(3) 0.5885(3) 0.23663(13)
F26 F 0.0509(8) 0.4955(4) 0.2168(2)
F27 F 0.0551(6) 0.5572(4) 0.17597(17)
F28 F 0.1498(5) 0.5842(5) 0.2269(2)
B8 B 0.9706(13) 0.1651(8) 0.3347(5)
F29 F 0.9177(9) 0.1133(6) 0.3120(4)
F30 F 0.9279(16) 0.2085(9) 0.3456(6)
F31 F 1.0040(18) 0.1537(12) 0.3666(6)
F32 F 1.0399(15) 0.1885(13) 0.3154(8)
N25 N 0.8750(7) -0.0228(5) 0.2136(4)
C217 C 0.9119(7) 0.0254(6) 0.2176(3)
C218 C 0.9627(8) 0.0918(5) 0.2206(4)
H169 H 0.9838 0.0985 0.1971
H170 H 1.0129 0.1024 0.2391
H171 H 0.9247 0.1179 0.2275
N26 N 0.4204(7) 0.0577(5) 0.3043(3)
C219 C 0.3873(8) 0.0075(5) 0.2912(4)
C220 C 0.3536(8) -0.0546(5) 0.2744(4)
H172 H 0.3826 -0.0623 0.2524
H173 H 0.2903 -0.0642 0.2679
H174 H 0.3643 -0.0808 0.2912
N27 N 0.8251(4) 0.6101(3) 0.26705(17)
C221 C 0.8291(5) 0.5608(4) 0.2594(2)
C222 C 0.8313(6) 0.4982(4) 0.2496(2)
H175 H 0.8576 0.4863 0.2703
H176 H 0.8664 0.4947 0.2291
H177 H 0.7714 0.4709 0.2426
C223 C 0.3632(10) 0.0264(7) 0.1592(6)
H178 H 0.3221 -0.0014 0.1391
H179 H 0.4162 0.0488 0.1495
H180 H 0.3355 0.0559 0.1719
C224 C 0.3874(8) -0.0107(9) 0.1851(5)
N28 N 0.3995(11) -0.0551(10) 0.1918(7)
N29 N 0.3729(6) 0.2932(4) 0.4189(3)
C225 C 0.3922(8) 0.2846(5) 0.4477(4)
C226 C 0.4137(10) 0.2769(8) 0.4793(4)
H181 H 0.4181 0.3144 0.4971
H182 H 0.4705 0.2682 0.4797
H183 H 0.3690 0.2420 0.4854
O13 O -0.4367(7) -0.3772(5) 0.4335(3)
O14 O -0.4057(10) -0.3005(7) 0.4059(4)
C227 C -0.3761(17) -0.3337(12) 0.4308(7)
C228 C -0.2825(14) -0.3035(11) 0.4465(6)
H184 H -0.2797 -0.2948 0.4731
H185 H -0.2597 -0.2648 0.4377
H186 H -0.2472 -0.3313 0.4389
C229 C -0.4903(10) -0.3218(7) 0.3859(4)
H187 H -0.4913 -0.3567 0.3662
H188 H -0.5344 -0.3379 0.4022
C230 C -0.5133(16) -0.2801(11) 0.3717(7)
H189 H -0.4911 -0.2400 0.3883
H190 H -0.5774 -0.2914 0.3677
H191 H -0.4886 -0.2773 0.3484
loop_
_geom_bond_atom_site_label_1
_geom_bond_atom_site_label_2
_geom_bond_site_symmetry_1
_geom_bond_site_symmetry_2
Fe1 N1 1_555 1_555
Fe2 N3 1_555 1_555
N1 C2 1_555 1_555
N2 Fe1 1_555 1_555
N3 C25 1_555 1_555
N4 Fe2 1_555 1_555
N5 Fe1 1_555 1_555
N6 Fe1 1_555 1_555
N7 Fe2 1_555 1_555
N8 Fe2 1_555 1_555
N9 Fe1 1_555 1_555
N10 Fe1 1_555 1_555
N11 C101 1_555 1_555
C1 H1 1_555 1_555
O1 C5 1_555 1_555
O2 C34 1_555 1_555
O3 C41 1_555 1_555
O4 C70 1_555 1_555
O5 C74 1_555 1_555
C2 C3 1_555 1_555
C3 H2 1_555 1_555
C4 C3 1_555 1_555
H3 C4 1_555 1_555
C5 C4 1_555 1_555
C6 C5 1_555 1_555
H4 C6 1_555 1_555
C7 C2 1_555 1_555
H5 C7 1_555 1_555
C8 O1 1_555 1_555
H6 C8 1_555 1_555
H7 C8 1_555 1_555
H8 C8 1_555 1_555
C9 N1 1_555 1_555
H9 C9 1_555 1_555
C10 N2 1_555 1_555
C11 C10 1_555 1_555
H10 C11 1_555 1_555
C12 C11 1_555 1_555
H11 C12 1_555 1_555
C13 C12 1_555 1_555
C14 N2 1_555 1_555
H12 C14 1_555 1_555
C15 H13 1_555 1_555
C16 C13 1_555 1_555
C17 C16 1_555 1_555
H14 C17 1_555 1_555
C18 C17 1_555 1_555
H15 C18 1_555 1_555
C19 C18 1_555 1_555
C20 C15 1_555 1_555
C21 C20 1_555 1_555
H16 C21 1_555 1_555
C22 C21 1_555 1_555
C23 C22 1_555 1_555
H17 C23 1_555 1_555
C24 C19 1_555 1_555
H18 C24 1_555 1_555
C25 H19 1_555 1_555
C26 C22 1_555 1_555
C27 C26 1_555 1_555
H20 C27 1_555 1_555
C28 C27 1_555 1_555
H21 C28 1_555 1_555
C29 N3 1_555 1_555
C30 N4 1_555 1_555
H22 C30 1_555 1_555
C31 N4 1_555 1_555
C32 C31 1_555 1_555
H23 C32 1_555 1_555
C33 C32 1_555 1_555
H24 C33 1_555 1_555
C34 C33 1_555 1_555
C35 C34 1_555 1_555
H25 C35 1_555 1_555
C36 C31 1_555 1_555
H26 C36 1_555 1_555
C37 O2 1_555 1_555
H27 C37 1_555 1_555
H28 C37 1_555 1_555
H29 C37 1_555 1_555
C38 N5 1_555 1_555
C39 C38 1_555 1_555
H30 C39 1_555 1_555
C40 C39 1_555 1_555
H31 C40 1_555 1_555
C41 C40 1_555 1_555
C42 C41 1_555 1_555
H32 C42 1_555 1_555
C43 C38 1_555 1_555
H33 C43 1_555 1_555
C44 O3 1_555 1_555
H34 C44 1_555 1_555
H35 C44 1_555 1_555
H36 C44 1_555 1_555
C45 N5 1_555 1_555
H37 C45 1_555 1_555
C46 N6 1_555 1_555
C47 C46 1_555 1_555
H38 C47 1_555 1_555
C48 C47 1_555 1_555
H39 C48 1_555 1_555
C49 C48 1_555 1_555
C50 N6 1_555 1_555
H40 C50 1_555 1_555
C51 H41 1_555 1_555
C52 C49 1_555 1_555
C53 C52 1_555 1_555
H42 C53 1_555 1_555
C54 C53 1_555 1_555
H43 C54 1_555 1_555
C55 C54 1_555 1_555
C56 C51 1_555 1_555
C57 C56 1_555 1_555
H44 C57 1_555 1_555
C58 C57 1_555 1_555
C59 C58 1_555 1_555
H45 C59 1_555 1_555
C60 C55 1_555 1_555
H46 C60 1_555 1_555
C61 N7 1_555 1_555
H47 C61 1_555 1_555
C62 C58 1_555 1_555
C63 C62 1_555 1_555
H48 C63 1_555 1_555
C64 C63 1_555 1_555
H49 C64 1_555 1_555
C65 N7 1_555 1_555
C66 N8 1_555 1_555
H50 C66 1_555 1_555
C67 N8 1_555 1_555
C68 C67 1_555 1_555
H51 C68 1_555 1_555
C69 C68 1_555 1_555
H52 C69 1_555 1_555
C70 C69 1_555 1_555
C71 C70 1_555 1_555
H53 C71 1_555 1_555
C72 C67 1_555 1_555
H54 C72 1_555 1_555
C73 O4 1_555 1_555
H55 C73 1_555 1_555
H56 C73 1_555 1_555
H57 C73 1_555 1_555
C74 C75 1_555 1_555
C75 H58 1_555 1_555
C76 C75 1_555 1_555
H59 C76 1_555 1_555
C77 N9 1_555 1_555
C78 C77 1_555 1_555
H60 C78 1_555 1_555
C79 C74 1_555 1_555
H61 C79 1_555 1_555
C80 O5 1_555 1_555
H62 C80 1_555 1_555
H63 C80 1_555 1_555
H64 C80 1_555 1_555
C81 N9 1_555 1_555
H65 C81 1_555 1_555
C82 N10 1_555 1_555
C83 C82 1_555 1_555
H66 C83 1_555 1_555
C84 C83 1_555 1_555
H67 C84 1_555 1_555
C85 C84 1_555 1_555
C86 N10 1_555 1_555
H68 C86 1_555 1_555
C87 H69 1_555 1_555
C88 C85 1_555 1_555
C89 C88 1_555 1_555
H70 C89 1_555 1_555
C90 C89 1_555 1_555
H71 C90 1_555 1_555
C91 C90 1_555 1_555
C92 C87 1_555 1_555
C93 C92 1_555 1_555
H72 C93 1_555 1_555
C94 C93 1_555 1_555
C95 C94 1_555 1_555
H73 C95 1_555 1_555
C96 C91 1_555 1_555
H74 C96 1_555 1_555
C97 C1 1_555 1_555
C98 C97 1_555 1_555
H75 C98 1_555 1_555
C99 C98 1_555 1_555
H76 C99 1_555 1_555
C100 C99 1_555 1_555
N12 C1 1_555 1_555
C101 C100 1_555 1_555
H77 C101 1_555 1_555
O6 C105 1_555 1_555
C102 N11 1_555 1_555
C103 C102 1_555 1_555
H78 C103 1_555 1_555
C104 C103 1_555 1_555
H79 C104 1_555 1_555
C105 C104 1_555 1_555
C106 C105 1_555 1_555
H80 C106 1_555 1_555
C107 C102 1_555 1_555
H81 C107 1_555 1_555
C108 O6 1_555 1_555
H82 C108 1_555 1_555
H83 C108 1_555 1_555
H84 C108 1_555 1_555
Fe3 N13 1_555 1_555
Fe4 N15 1_555 1_555
N13 C109 1_555 1_555
N14 Fe3 1_555 1_555
N15 C132 1_555 1_555
N16 Fe4 1_555 1_555
N17 Fe3 1_555 1_555
N18 Fe3 1_555 1_555
N19 Fe4 1_555 1_555
N20 Fe4 1_555 1_555
N21 Fe4 1_555 1_555
N22 Fe4 1_555 1_555
N23 C209 1_555 1_555
N24 C206 1_555 1_555
O7 C112 1_555 1_555
O8 C141 1_555 1_555
O9 C148 1_555 1_555
O10 C177 1_555 1_555
O11 C184 1_555 1_555
O12 C213 1_555 1_555
C109 C110 1_555 1_555
C110 H85 1_555 1_555
C111 C110 1_555 1_555
H86 C111 1_555 1_555
C112 C111 1_555 1_555
C113 C112 1_555 1_555
H87 C113 1_555 1_555
C114 C109 1_555 1_555
H88 C114 1_555 1_555
C115 O7 1_555 1_555
H89 C115 1_555 1_555
H90 C115 1_555 1_555
H91 C115 1_555 1_555
C116 N13 1_555 1_555
H92 C116 1_555 1_555
C117 N14 1_555 1_555
C118 C117 1_555 1_555
H93 C118 1_555 1_555
C119 C118 1_555 1_555
H94 C119 1_555 1_555
C120 C119 1_555 1_555
C121 N14 1_555 1_555
H95 C121 1_555 1_555
C122 H96 1_555 1_555
C123 C120 1_555 1_555
C124 C123 1_555 1_555
H97 C124 1_555 1_555
C125 C124 1_555 1_555
H98 C125 1_555 1_555
C126 C125 1_555 1_555
C127 C122 1_555 1_555
C128 C127 1_555 1_555
H99 C128 1_555 1_555
C129 C128 1_555 1_555
C130 C129 1_555 1_555
H100 C130 1_555 1_555
C131 C126 1_555 1_555
H101 C131 1_555 1_555
C132 H102 1_555 1_555
C133 C129 1_555 1_555
C134 C133 1_555 1_555
H103 C134 1_555 1_555
C135 C134 1_555 1_555
H104 C135 1_555 1_555
C136 N15 1_555 1_555
C137 N16 1_555 1_555
H105 C137 1_555 1_555
C138 N16 1_555 1_555
C139 C138 1_555 1_555
H106 C139 1_555 1_555
C140 C139 1_555 1_555
H107 C140 1_555 1_555
C141 C140 1_555 1_555
C142 C141 1_555 1_555
H108 C142 1_555 1_555
C143 C138 1_555 1_555
H109 C143 1_555 1_555
C144 O8 1_555 1_555
H110 C144 1_555 1_555
H111 C144 1_555 1_555
H112 C144 1_555 1_555
C145 N17 1_555 1_555
C146 C145 1_555 1_555
H113 C146 1_555 1_555
C147 C146 1_555 1_555
H114 C147 1_555 1_555
C148 C147 1_555 1_555
C149 C148 1_555 1_555
H115 C149 1_555 1_555
C150 C145 1_555 1_555
H116 C150 1_555 1_555
C151 O9 1_555 1_555
H117 C151 1_555 1_555
H118 C151 1_555 1_555
H119 C151 1_555 1_555
C152 N17 1_555 1_555
H120 C152 1_555 1_555
C153 N18 1_555 1_555
C154 C153 1_555 1_555
H121 C154 1_555 1_555
C155 C154 1_555 1_555
H122 C155 1_555 1_555
C156 C155 1_555 1_555
C157 N18 1_555 1_555
H123 C157 1_555 1_555
C158 H124 1_555 1_555
C159 C158 1_555 1_555
H125 C159 1_555 1_555
C160 C156 1_555 1_555
C161 C160 1_555 1_555
H126 C161 1_555 1_555
C162 C161 1_555 1_555
C163 C158 1_555 1_555
C164 C163 1_555 1_555
H127 C164 1_555 1_555
C165 C164 1_555 1_555
H128 C165 1_555 1_555
C166 C165 1_555 1_555
C167 C162 1_555 1_555
H129 C167 1_555 1_555
C168 N19 1_555 1_555
H130 C168 1_555 1_555
C169 C166 1_555 1_555
C170 C169 1_555 1_555
H131 C170 1_555 1_555
C171 C170 1_555 1_555
H132 C171 1_555 1_555
C172 N19 1_555 1_555
C173 N20 1_555 1_555
H133 C173 1_555 1_555
C174 N20 1_555 1_555
C175 C174 1_555 1_555
H134 C175 1_555 1_555
C176 C175 1_555 1_555
H135 C176 1_555 1_555
C177 C176 1_555 1_555
C178 C177 1_555 1_555
H136 C178 1_555 1_555
C179 C174 1_555 1_555
H137 C179 1_555 1_555
C180 O10 1_555 1_555
H138 C180 1_555 1_555
H139 C180 1_555 1_555
H140 C180 1_555 1_555
C181 N21 1_555 1_555
C182 C181 1_555 1_555
H141 C182 1_555 1_555
C183 C182 1_555 1_555
H142 C183 1_555 1_555
C184 C183 1_555 1_555
C185 C184 1_555 1_555
H143 C185 1_555 1_555
C186 C181 1_555 1_555
H144 C186 1_555 1_555
C187 O11 1_555 1_555
H145 C187 1_555 1_555
H146 C187 1_555 1_555
H147 C187 1_555 1_555
C188 N21 1_555 1_555
H148 C188 1_555 1_555
C189 N22 1_555 1_555
C190 C189 1_555 1_555
H149 C190 1_555 1_555
C191 C190 1_555 1_555
H150 C191 1_555 1_555
C192 C191 1_555 1_555
C193 N22 1_555 1_555
H151 C193 1_555 1_555
C194 H152 1_555 1_555
C195 C194 1_555 1_555
H153 C195 1_555 1_555
C196 C192 1_555 1_555
C197 C196 1_555 1_555
H154 C197 1_555 1_555
C198 C197 1_555 1_555
C199 C194 1_555 1_555
C200 C199 1_555 1_555
H155 C200 1_555 1_555
C201 C200 1_555 1_555
H156 C201 1_555 1_555
C202 C201 1_555 1_555
C203 C198 1_555 1_555
H157 C203 1_555 1_555
C204 C202 1_555 1_555
C205 C204 1_555 1_555
H158 C205 1_555 1_555
C206 C204 1_555 1_555
H159 C206 1_555 1_555
C207 C205 1_555 1_555
H160 C207 1_555 1_555
C208 N24 1_555 1_555
C209 C208 1_555 1_555
H161 C209 1_555 1_555
C210 N23 1_555 1_555
C211 C210 1_555 1_555
H162 C211 1_555 1_555
C212 C211 1_555 1_555
H163 C212 1_555 1_555
C213 C212 1_555 1_555
C214 C213 1_555 1_555
H164 C214 1_555 1_555
C215 C210 1_555 1_555
H165 C215 1_555 1_555
C216 O12 1_555 1_555
H166 C216 1_555 1_555
H167 C216 1_555 1_555
H168 C216 1_555 1_555
B1 F1 1_555 1_555
F2 B1 1_555 1_555
F3 B1 1_555 1_555
F4 B1 1_555 1_555
B2 F5 1_555 1_555
F6 B2 1_555 1_555
F7 B2 1_555 1_555
F8 B2 1_555 1_555
B3 F9 1_555 1_555
F10 B3 1_555 1_555
F11 B3 1_555 1_555
F12 B3 1_555 1_555
B4 F13 1_555 1_555
F14 B4 1_555 1_555
F15 B4 1_555 1_555
F16 B4 1_555 1_555
B5 F17 1_555 1_555
F18 B5 1_555 1_555
F19 B5 1_555 1_555
F20 B5 1_555 1_555
B6 F21 1_555 1_555
F22 B6 1_555 1_555
F23 B6 1_555 1_555
F24 B6 1_555 1_555
B7 F25 1_555 1_555
F26 B7 1_555 1_555
F27 B7 1_555 1_555
F28 B7 1_555 1_555
B8 F29 1_555 1_555
F30 B8 1_555 1_555
F31 B8 1_555 1_555
F32 B8 1_555 1_555
N25 C217 1_555 1_555
C217 C218 1_555 1_555
C218 H169 1_555 1_555
H170 C218 1_555 1_555
H171 C218 1_555 1_555
N26 C219 1_555 1_555
C219 C220 1_555 1_555
C220 H172 1_555 1_555
H173 C220 1_555 1_555
H174 C220 1_555 1_555
N27 C221 1_555 1_555
C221 C222 1_555 1_555
C222 H175 1_555 1_555
H176 C222 1_555 1_555
H177 C222 1_555 1_555
C223 H178 1_555 1_555
H179 C223 1_555 1_555
H180 C223 1_555 1_555
C224 C223 1_555 1_555
N28 C224 1_555 1_555
N29 C225 1_555 1_555
C225 C226 1_555 1_555
C226 H181 1_555 1_555
H182 C226 1_555 1_555
H183 C226 1_555 1_555
O13 C227 1_555 1_555
O14 C227 1_555 1_555
C227 C228 1_555 1_555
C228 H184 1_555 1_555
H185 C228 1_555 1_555
H186 C228 1_555 1_555
C229 O14 1_555 1_555
H187 C229 1_555 1_555
H188 C229 1_555 1_555
C230 C229 1_555 1_555
H189 C230 1_555 1_555
H190 C230 1_555 1_555
H191 C230 1_555 1_555
Fe1A N1A 1_555 1_555
Fe2A N11 1_555 1_555
N1A C2A 1_555 1_555
N2A Fe1A 1_555 1_555
N3A Fe2A 1_555 1_555
N4A Fe2A 1_555 1_555
N5A Fe1A 1_555 1_555
N6A Fe1A 1_555 1_555
N7A Fe2A 1_555 1_555
N8A Fe2A 1_555 1_555
N9A Fe1A 1_555 1_555
N10A Fe1A 1_555 1_555
N11A Fe2 1_555 1_555
C1A H1A 1_555 1_555
O1A C5A 1_555 1_555
O2A C34A 1_555 1_555
O3A C41A 1_555 1_555
O4A C70A 1_555 1_555
O5A C74A 1_555 1_555
C2A C3A 1_555 1_555
C3A H2A 1_555 1_555
C4A C3A 1_555 1_555
H3A C4A 1_555 1_555
C5A C4A 1_555 1_555
C6A C5A 1_555 1_555
H4A C6A 1_555 1_555
C7A C2A 1_555 1_555
H5A C7A 1_555 1_555
C8A O1A 1_555 1_555
H6A C8A 1_555 1_555
H7A C8A 1_555 1_555
H8A C8A 1_555 1_555
C9A N1A 1_555 1_555
H9A C9A 1_555 1_555
C10A N2A 1_555 1_555
C11A C10A 1_555 1_555
H10A C11A 1_555 1_555
C12A C11A 1_555 1_555
H11A C12A 1_555 1_555
C13A C12A 1_555 1_555
C14A N2A 1_555 1_555
H12A C14A 1_555 1_555
C15A H13A 1_555 1_555
C16A C13A 1_555 1_555
C17A C16A 1_555 1_555
H14A C17A 1_555 1_555
C18A C17A 1_555 1_555
H15A C18A 1_555 1_555
C19A C18A 1_555 1_555
C20A C15A 1_555 1_555
C21A C20A 1_555 1_555
H16A C21A 1_555 1_555
C22A C21A 1_555 1_555
C23A C22A 1_555 1_555
H17A C23A 1_555 1_555
C24A C19A 1_555 1_555
H18A C24A 1_555 1_555
C25A N3A 1_555 1_555
H19A C25A 1_555 1_555
C26A C22A 1_555 1_555
C27A C26A 1_555 1_555
H20A C27A 1_555 1_555
C28A C27A 1_555 1_555
H21A C28A 1_555 1_555
C29A N3A 1_555 1_555
C30A N4A 1_555 1_555
H22A C30A 1_555 1_555
C31A N4A 1_555 1_555
C32A C31A 1_555 1_555
H23A C32A 1_555 1_555
C33A C32A 1_555 1_555
H24A C33A 1_555 1_555
C34A C33A 1_555 1_555
C35A C34A 1_555 1_555
H25A C35A 1_555 1_555
C36A C31A 1_555 1_555
H26A C36A 1_555 1_555
C37A O2A 1_555 1_555
H27A C37A 1_555 1_555
H28A C37A 1_555 1_555
H29A C37A 1_555 1_555
C38A N5A 1_555 1_555
C39A C38A 1_555 1_555
H30A C39A 1_555 1_555
C40A C39A 1_555 1_555
H31A C40A 1_555 1_555
C41A C40A 1_555 1_555
C42A C41A 1_555 1_555
H32A C42A 1_555 1_555
C43A C38A 1_555 1_555
H33A C43A 1_555 1_555
C44A O3A 1_555 1_555
H34A C44A 1_555 1_555
H35A C44A 1_555 1_555
H36A C44A 1_555 1_555
C45A N5A 1_555 1_555
H37A C45A 1_555 1_555
C46A N6A 1_555 1_555
C47A C46A 1_555 1_555
H38A C47A 1_555 1_555
C48A C47A 1_555 1_555
H39A C48A 1_555 1_555
C49A C48A 1_555 1_555
C50A N6A 1_555 1_555
H40A C50A 1_555 1_555
C51A H41A 1_555 1_555
C52A C49A 1_555 1_555
C53A C52A 1_555 1_555
H42A C53A 1_555 1_555
C54A C53A 1_555 1_555
H43A C54A 1_555 1_555
C55A C54A 1_555 1_555
C56A C51A 1_555 1_555
C57A C56A 1_555 1_555
H44A C57A 1_555 1_555
C58A C57A 1_555 1_555
C59A C58A 1_555 1_555
H45A C59A 1_555 1_555
C60A C55A 1_555 1_555
H46A C60A 1_555 1_555
C61A N7A 1_555 1_555
H47A C61A 1_555 1_555
C62A C58A 1_555 1_555
C63A C62A 1_555 1_555
H48A C63A 1_555 1_555
C64A C63A 1_555 1_555
H49A C64A 1_555 1_555
C65A N7A 1_555 1_555
C66A N8A 1_555 1_555
H50A C66A 1_555 1_555
C67A N8A 1_555 1_555
C68A C67A 1_555 1_555
H51A C68A 1_555 1_555
C69A C68A 1_555 1_555
H52A C69A 1_555 1_555
C70A C69A 1_555 1_555
C71A C70A 1_555 1_555
H53A C71A 1_555 1_555
C72A C67A 1_555 1_555
H54A C72A 1_555 1_555
C73A O4A 1_555 1_555
H55A C73A 1_555 1_555
H56A C73A 1_555 1_555
H57A C73A 1_555 1_555
C74A C75A 1_555 1_555
C75A H58A 1_555 1_555
C76A C75A 1_555 1_555
H59A C76A 1_555 1_555
C77A N9A 1_555 1_555
C78A C77A 1_555 1_555
H60A C78A 1_555 1_555
C79A C74A 1_555 1_555
H61A C79A 1_555 1_555
C80A O5A 1_555 1_555
H62A C80A 1_555 1_555
H63A C80A 1_555 1_555
H64A C80A 1_555 1_555
C81A N9A 1_555 1_555
H65A C81A 1_555 1_555
C82A N10A 1_555 1_555
C83A C82A 1_555 1_555
H66A C83A 1_555 1_555
C84A C83A 1_555 1_555
H67A C84A 1_555 1_555
C85A C84A 1_555 1_555
C86A N10A 1_555 1_555
H68A C86A 1_555 1_555
C87A H69A 1_555 1_555
C88A C85A 1_555 1_555
C89A C88A 1_555 1_555
H70A C89A 1_555 1_555
C90A C89A 1_555 1_555
H71A C90A 1_555 1_555
C91A C90A 1_555 1_555
C92A C87A 1_555 1_555
C93A C92A 1_555 1_555
H72A C93A 1_555 1_555
C94A C93A 1_555 1_555
C95A C94A 1_555 1_555
H73A C95A 1_555 1_555
C96A C91A 1_555 1_555
H74A C96A 1_555 1_555
C97A C1A 1_555 1_555
C98A C97A 1_555 1_555
H75A C98A 1_555 1_555
C99A C98A 1_555 1_555
H76A C99A 1_555 1_555
C100A C99A 1_555 1_555
N12A Fe2 1_555 1_555
C101A N11A 1_555 1_555
H77A C101A 1_555 1_555
O6A C105A 1_555 1_555
C102A N11A 1_555 1_555
C103A C102A 1_555 1_555
H78A C103A 1_555 1_555
C104A C103A 1_555 1_555
H79A C104A 1_555 1_555
C105A C104A 1_555 1_555
C106A C105A 1_555 1_555
H80A C106A 1_555 1_555
C107A C102A 1_555 1_555
H81A C107A 1_555 1_555
C108A O6A 1_555 1_555
H82A C108A 1_555 1_555
H83A C108A 1_555 1_555
H84A C108A 1_555 1_555
Fe3A N23 1_555 1_555
Fe4A N15A 1_555 1_555
N13A Fe3A 1_555 1_555
N14A Fe3A 1_555 1_555
N15A C132A 1_555 1_555
N16A Fe4A 1_555 1_555
N17A Fe3A 1_555 1_555
N18A Fe3A 1_555 1_555
N19A Fe4A 1_555 1_555
N20A Fe4A 1_555 1_555
N21A Fe4A 1_555 1_555
N22A Fe4A 1_555 1_555
N23A Fe3 1_555 1_555
N24A Fe3 1_555 1_555
O7A C112A 1_555 1_555
O8A C141A 1_555 1_555
O9A C148A 1_555 1_555
O10A C177A 1_555 1_555
O11A C184A 1_555 1_555
O12A C213A 1_555 1_555
C109A N13A 1_555 1_555
C110A C109A 1_555 1_555
H85A C110A 1_555 1_555
C111A C110A 1_555 1_555
H86A C111A 1_555 1_555
C112A C111A 1_555 1_555
C113A C112A 1_555 1_555
H87A C113A 1_555 1_555
C114A C109A 1_555 1_555
H88A C114A 1_555 1_555
C115A O7A 1_555 1_555
H89A C115A 1_555 1_555
H90A C115A 1_555 1_555
H91A C115A 1_555 1_555
C116A N13A 1_555 1_555
H92A C116A 1_555 1_555
C117A N14A 1_555 1_555
C118A C117A 1_555 1_555
H93A C118A 1_555 1_555
C119A C118A 1_555 1_555
H94A C119A 1_555 1_555
C120A C119A 1_555 1_555
C121A N14A 1_555 1_555
H95A C121A 1_555 1_555
C122A H96A 1_555 1_555
C123A C120A 1_555 1_555
C124A C123A 1_555 1_555
H97A C124A 1_555 1_555
C125A C124A 1_555 1_555
H98A C125A 1_555 1_555
C126A C125A 1_555 1_555
C127A C122A 1_555 1_555
C128A C127A 1_555 1_555
H99A C128A 1_555 1_555
C129A C128A 1_555 1_555
C130A C129A 1_555 1_555
H100A C130A 1_555 1_555
C131A C126A 1_555 1_555
H101A C131A 1_555 1_555
C132A H102A 1_555 1_555
C133A C129A 1_555 1_555
C134A C133A 1_555 1_555
H103A C134A 1_555 1_555
C135A C134A 1_555 1_555
H104A C135A 1_555 1_555
C136A N15A 1_555 1_555
C137A N16A 1_555 1_555
H105A C137A 1_555 1_555
C138A N16A 1_555 1_555
C139A C138A 1_555 1_555
H106A C139A 1_555 1_555
C140A C139A 1_555 1_555
H107A C140A 1_555 1_555
C141A C140A 1_555 1_555
C142A C141A 1_555 1_555
H108A C142A 1_555 1_555
C143A C138A 1_555 1_555
H109A C143A 1_555 1_555
C144A O8A 1_555 1_555
H110A C144A 1_555 1_555
H111A C144A 1_555 1_555
H112A C144A 1_555 1_555
C145A N17A 1_555 1_555
C146A C145A 1_555 1_555
H113A C146A 1_555 1_555
C147A C146A 1_555 1_555
H114A C147A 1_555 1_555
C148A C147A 1_555 1_555
C149A C148A 1_555 1_555
H115A C149A 1_555 1_555
C150A C145A 1_555 1_555
H116A C150A 1_555 1_555
C151A O9A 1_555 1_555
H117A C151A 1_555 1_555
H118A C151A 1_555 1_555
H119A C151A 1_555 1_555
C152A N17A 1_555 1_555
H120A C152A 1_555 1_555
C153A N18A 1_555 1_555
C154A C153A 1_555 1_555
H121A C154A 1_555 1_555
C155A C154A 1_555 1_555
H122A C155A 1_555 1_555
C156A C155A 1_555 1_555
C157A N18A 1_555 1_555
H123A C157A 1_555 1_555
C158A H124A 1_555 1_555
C159A C158A 1_555 1_555
H125A C159A 1_555 1_555
C160A C156A 1_555 1_555
C161A C160A 1_555 1_555
H126A C161A 1_555 1_555
C162A C161A 1_555 1_555
C163A C158A 1_555 1_555
C164A C163A 1_555 1_555
H127A C164A 1_555 1_555
C165A C164A 1_555 1_555
H128A C165A 1_555 1_555
C166A C165A 1_555 1_555
C167A C162A 1_555 1_555
H129A C167A 1_555 1_555
C168A N19A 1_555 1_555
H130A C168A 1_555 1_555
C169A C166A 1_555 1_555
C170A C169A 1_555 1_555
H131A C170A 1_555 1_555
C171A C170A 1_555 1_555
H132A C171A 1_555 1_555
C172A N19A 1_555 1_555
C173A N20A 1_555 1_555
H133A C173A 1_555 1_555
C174A N20A 1_555 1_555
C175A C174A 1_555 1_555
H134A C175A 1_555 1_555
C176A C175A 1_555 1_555
H135A C176A 1_555 1_555
C177A C176A 1_555 1_555
C178A C177A 1_555 1_555
H136A C178A 1_555 1_555
C179A C174A 1_555 1_555
H137A C179A 1_555 1_555
C180A O10A 1_555 1_555
H138A C180A 1_555 1_555
H139A C180A 1_555 1_555
H140A C180A 1_555 1_555
C181A N21A 1_555 1_555
C182A C181A 1_555 1_555
H141A C182A 1_555 1_555
C183A C182A 1_555 1_555
H142A C183A 1_555 1_555
C184A C183A 1_555 1_555
C185A C184A 1_555 1_555
H143A C185A 1_555 1_555
C186A C181A 1_555 1_555
H144A C186A 1_555 1_555
C187A O11A 1_555 1_555
H145A C187A 1_555 1_555
H146A C187A 1_555 1_555
H147A C187A 1_555 1_555
C188A N21A 1_555 1_555
H148A C188A 1_555 1_555
C189A N22A 1_555 1_555
C190A C189A 1_555 1_555
H149A C190A 1_555 1_555
C191A C190A 1_555 1_555
H150A C191A 1_555 1_555
C192A C191A 1_555 1_555
C193A N22A 1_555 1_555
H151A C193A 1_555 1_555
C194A H152A 1_555 1_555
C195A C194A 1_555 1_555
H153A C195A 1_555 1_555
C196A C192A 1_555 1_555
C197A C196A 1_555 1_555
H154A C197A 1_555 1_555
C198A C197A 1_555 1_555
C199A C194A 1_555 1_555
C200A C199A 1_555 1_555
H155A C200A 1_555 1_555
C201A C200A 1_555 1_555
H156A C201A 1_555 1_555
C202A C201A 1_555 1_555
C203A C198A 1_555 1_555
H157A C203A 1_555 1_555
C204A C202A 1_555 1_555
C205A C204A 1_555 1_555
H158A C205A 1_555 1_555
C206A N24A 1_555 1_555
H159A C206A 1_555 1_555
C207A C205A 1_555 1_555
H160A C207A 1_555 1_555
C208A N24A 1_555 1_555
C209A N23A 1_555 1_555
H161A C209A 1_555 1_555
C210A N23A 1_555 1_555
C211A C210A 1_555 1_555
H162A C211A 1_555 1_555
C212A C211A 1_555 1_555
H163A C212A 1_555 1_555
C213A C212A 1_555 1_555
C214A C213A 1_555 1_555
H164A C214A 1_555 1_555
C215A C210A 1_555 1_555
H165A C215A 1_555 1_555
C216A O12A 1_555 1_555
H166A C216A 1_555 1_555
H167A C216A 1_555 1_555
H168A C216A 1_555 1_555
C6 C7 1_555 1_555
C9 C10 1_555 1_555
C13 C14 1_555 1_555
C15 C16 1_555 1_555
C19 C20 1_555 1_555
C23 C24 1_555 1_555
C25 C26 1_555 1_555
C28 C29 1_555 1_555
C29 C30 1_555 1_555
C35 C36 1_555 1_555
C42 C43 1_555 1_555
C45 C46 1_555 1_555
C49 C50 1_555 1_555
C51 C52 1_555 1_555
C55 C56 1_555 1_555
C59 C60 1_555 1_555
C61 C62 1_555 1_555
C64 C65 1_555 1_555
C65 C66 1_555 1_555
C71 C72 1_555 1_555
C76 C77 1_555 1_555
C78 C79 1_555 1_555
C81 C82 1_555 1_555
C85 C86 1_555 1_555
C87 C88 1_555 1_555
C91 C92 1_555 1_555
C94 C97 1_555 1_555
C95 C96 1_555 1_555
C100 N12 1_555 1_555
N12 Fe2A 1_555 1_555
C106 C107 1_555 1_555
N24 Fe3A 1_555 1_555
C113 C114 1_555 1_555
C116 C117 1_555 1_555
C120 C121 1_555 1_555
C122 C123 1_555 1_555
C126 C127 1_555 1_555
C130 C131 1_555 1_555
C132 C133 1_555 1_555
C135 C136 1_555 1_555
C136 C137 1_555 1_555
C142 C143 1_555 1_555
C149 C150 1_555 1_555
C152 C153 1_555 1_555
C156 C157 1_555 1_555
C159 C160 1_555 1_555
C162 C163 1_555 1_555
C166 C167 1_555 1_555
C168 C169 1_555 1_555
C171 C172 1_555 1_555
C172 C173 1_555 1_555
C178 C179 1_555 1_555
C185 C186 1_555 1_555
C188 C189 1_555 1_555
C192 C193 1_555 1_555
C195 C196 1_555 1_555
C198 C199 1_555 1_555
C202 C203 1_555 1_555
C207 C208 1_555 1_555
C214 C215 1_555 1_555
C1A N12A 1_555 1_555
C6A C7A 1_555 1_555
C9A C10A 1_555 1_555
C13A C14A 1_555 1_555
C15A C16A 1_555 1_555
C19A C20A 1_555 1_555
C23A C24A 1_555 1_555
C25A C26A 1_555 1_555
C28A C29A 1_555 1_555
C29A C30A 1_555 1_555
C35A C36A 1_555 1_555
C42A C43A 1_555 1_555
C45A C46A 1_555 1_555
C49A C50A 1_555 1_555
C51A C52A 1_555 1_555
C55A C56A 1_555 1_555
C59A C60A 1_555 1_555
C61A C62A 1_555 1_555
C64A C65A 1_555 1_555
C65A C66A 1_555 1_555
C71A C72A 1_555 1_555
C76A C77A 1_555 1_555
C78A C79A 1_555 1_555
C81A C82A 1_555 1_555
C85A C86A 1_555 1_555
C87A C88A 1_555 1_555
C91A C92A 1_555 1_555
C94A C97A 1_555 1_555
C95A C96A 1_555 1_555
C100A N12A 1_555 1_555
C100A C101A 1_555 1_555
C106A C107A 1_555 1_555
C113A C114A 1_555 1_555
C116A C117A 1_555 1_555
C120A C121A 1_555 1_555
C122A C123A 1_555 1_555
C126A C127A 1_555 1_555
C130A C131A 1_555 1_555
C132A C133A 1_555 1_555
C135A C136A 1_555 1_555
C136A C137A 1_555 1_555
C142A C143A 1_555 1_555
C149A C150A 1_555 1_555
C152A C153A 1_555 1_555
C156A C157A 1_555 1_555
C159A C160A 1_555 1_555
C162A C163A 1_555 1_555
C166A C167A 1_555 1_555
C168A C169A 1_555 1_555
C171A C172A 1_555 1_555
C172A C173A 1_555 1_555
C178A C179A 1_555 1_555
C185A C186A 1_555 1_555
C188A C189A 1_555 1_555
C192A C193A 1_555 1_555
C195A C196A 1_555 1_555
C198A C199A 1_555 1_555
C202A C203A 1_555 1_555
C204A C206A 1_555 1_555
C207A C208A 1_555 1_555
C208A C209A 1_555 1_555
C214A C215A 1_555 1_555

#END
