# generated using pymatgen
data_Cd10H466C539S15N76(O5F3)17
_symmetry_space_group_name_H-M   'P 1'
_cell_length_a   20.31320000
_cell_length_b   32.82700000
_cell_length_c   37.99700000
_cell_angle_alpha   90.00000000
_cell_angle_beta   92.47900000
_cell_angle_gamma   90.00000000
_symmetry_Int_Tables_number   1
_chemical_formula_structural   Cd10H466C539S15N76(O5F3)17
_chemical_formula_sum   'Cd20 H932 C1078 S30 N152 O170 F102'
_cell_volume   25313.50132051
_cell_formula_units_Z   2
loop_
 _symmetry_equiv_pos_site_id
 _symmetry_equiv_pos_as_xyz
  1  'x, y, z'
loop_
 _atom_site_type_symbol
 _atom_site_label
 _atom_site_symmetry_multiplicity
 _atom_site_fract_x
 _atom_site_fract_y
 _atom_site_fract_z
 _atom_site_occupancy
  Cd  Cd1  1  0.400630  0.338350  0.958650  1
  Cd  Cd2  1  0.599370  0.838350  0.541350  1
  Cd  Cd3  1  0.599370  0.661650  0.041350  1
  Cd  Cd4  1  0.400630  0.161650  0.458650  1
  Cd  Cd5  1  0.606770  0.388900  0.234020  1
  Cd  Cd6  1  0.393230  0.888900  0.265980  1
  Cd  Cd7  1  0.393230  0.611100  0.765980  1
  Cd  Cd8  1  0.606770  0.111100  0.734020  1
  Cd  Cd9  1  0.704540  0.263760  0.201590  1
  Cd  Cd10  1  0.295460  0.763760  0.298410  1
  Cd  Cd11  1  0.295460  0.736240  0.798410  1
  Cd  Cd12  1  0.704540  0.236240  0.701590  1
  Cd  Cd13  1  0.813830  0.386550  0.164790  1
  Cd  Cd14  1  0.186170  0.886550  0.335210  1
  Cd  Cd15  1  0.186170  0.613450  0.835210  1
  Cd  Cd16  1  0.813830  0.113450  0.664790  1
  Cd  Cd17  1  0.016140  0.343680  0.446310  1
  Cd  Cd18  1  0.983860  0.843680  0.053690  1
  Cd  Cd19  1  0.983860  0.656320  0.553690  1
  Cd  Cd20  1  0.016140  0.156320  0.946310  1
  H  H21  1  0.294800  0.359700  0.887300  1
  H  H22  1  0.705200  0.859700  0.612700  1
  H  H23  1  0.705200  0.640300  0.112700  1
  H  H24  1  0.294800  0.140300  0.387300  1
  H  H25  1  0.186900  0.379500  0.868500  1
  H  H26  1  0.813100  0.879500  0.631500  1
  H  H27  1  0.813100  0.620500  0.131500  1
  H  H28  1  0.186900  0.120500  0.368500  1
  H  H29  1  0.209500  0.484300  0.923600  1
  H  H30  1  0.790500  0.984300  0.576400  1
  H  H31  1  0.790500  0.515700  0.076400  1
  H  H32  1  0.209500  0.015700  0.423600  1
  H  H33  1  0.320800  0.466100  0.939000  1
  H  H34  1  0.679200  0.966100  0.561000  1
  H  H35  1  0.679200  0.533900  0.061000  1
  H  H36  1  0.320800  0.033900  0.439000  1
  H  H37  1  0.048900  0.478000  0.886300  1
  H  H38  1  0.951100  0.978000  0.613700  1
  H  H39  1  0.951100  0.522000  0.113700  1
  H  H40  1  0.048900  0.022000  0.386300  1
  H  H41  1  0.089300  0.472100  0.923100  1
  H  H42  1  0.910700  0.972100  0.576900  1
  H  H43  1  0.910700  0.527900  0.076900  1
  H  H44  1  0.089300  0.027900  0.423100  1
  H  H45  1  0.117500  0.501200  0.893500  1
  H  H46  1  0.882500  0.001200  0.606500  1
  H  H47  1  0.882500  0.498800  0.106500  1
  H  H48  1  0.117500  0.998800  0.393500  1
  H  H49  1  0.428600  0.446400  0.914400  1
  H  H50  1  0.571400  0.946400  0.585600  1
  H  H51  1  0.571400  0.553600  0.085600  1
  H  H52  1  0.428600  0.053600  0.414400  1
  H  H53  1  0.551800  0.453200  0.917900  1
  H  H54  1  0.448200  0.953200  0.582100  1
  H  H55  1  0.448200  0.546800  0.082100  1
  H  H56  1  0.551800  0.046800  0.417900  1
  H  H57  1  0.654800  0.428700  0.937100  1
  H  H58  1  0.345200  0.928700  0.562900  1
  H  H59  1  0.345200  0.571300  0.062900  1
  H  H60  1  0.654800  0.071300  0.437100  1
  H  H61  1  0.561800  0.334700  0.981600  1
  H  H62  1  0.438200  0.834700  0.518400  1
  H  H63  1  0.438200  0.665300  0.018400  1
  H  H64  1  0.561800  0.165300  0.481600  1
  H  H65  1  0.648000  0.332900  0.018100  1
  H  H66  1  0.352000  0.832900  0.481900  1
  H  H67  1  0.352000  0.667100  0.981900  1
  H  H68  1  0.648000  0.167100  0.518100  1
  H  H69  1  0.743400  0.389900  0.940400  1
  H  H70  1  0.256600  0.889900  0.559600  1
  H  H71  1  0.256600  0.610100  0.059600  1
  H  H72  1  0.743400  0.110100  0.440400  1
  H  H73  1  0.843000  0.367800  0.963700  1
  H  H74  1  0.157000  0.867800  0.536300  1
  H  H75  1  0.157000  0.632200  0.036300  1
  H  H76  1  0.843000  0.132200  0.463700  1
  H  H77  1  0.710300  0.290600  0.060800  1
  H  H78  1  0.289700  0.790600  0.439200  1
  H  H79  1  0.289700  0.709400  0.939200  1
  H  H80  1  0.710300  0.209400  0.560800  1
  H  H81  1  0.910500  0.283700  0.057300  1
  H  H82  1  0.089500  0.783700  0.442700  1
  H  H83  1  0.089500  0.716300  0.942700  1
  H  H84  1  0.910500  0.216300  0.557300  1
  H  H85  1  0.909100  0.327200  0.010200  1
  H  H86  1  0.090900  0.827200  0.489800  1
  H  H87  1  0.090900  0.672800  0.989800  1
  H  H88  1  0.909100  0.172800  0.510200  1
  H  H89  1  0.739100  0.287100  0.119600  1
  H  H90  1  0.260900  0.787100  0.380400  1
  H  H91  1  0.260900  0.712900  0.880400  1
  H  H92  1  0.739100  0.212900  0.619600  1
  H  H93  1  0.889100  0.219400  0.084600  1
  H  H94  1  0.110900  0.719400  0.415400  1
  H  H95  1  0.110900  0.780600  0.915400  1
  H  H96  1  0.889100  0.280600  0.584600  1
  H  H97  1  0.890000  0.184000  0.139400  1
  H  H98  1  0.110000  0.684000  0.360600  1
  H  H99  1  0.110000  0.816000  0.860600  1
  H  H100  1  0.890000  0.316000  0.639400  1
  H  H101  1  0.849700  0.177800  0.200400  1
  H  H102  1  0.150300  0.677800  0.299600  1
  H  H103  1  0.150300  0.822200  0.799600  1
  H  H104  1  0.849700  0.322200  0.700400  1
  H  H105  1  0.808300  0.142500  0.250200  1
  H  H106  1  0.191700  0.642500  0.249800  1
  H  H107  1  0.191700  0.857500  0.749800  1
  H  H108  1  0.808300  0.357500  0.750200  1
  H  H109  1  0.812200  0.129400  0.311900  1
  H  H110  1  0.187800  0.629400  0.188100  1
  H  H111  1  0.187800  0.870600  0.688100  1
  H  H112  1  0.812200  0.370600  0.811900  1
  H  H113  1  0.795600  0.249100  0.331900  1
  H  H114  1  0.204400  0.749100  0.168100  1
  H  H115  1  0.204400  0.750900  0.668100  1
  H  H116  1  0.795600  0.250900  0.831900  1
  H  H117  1  0.786400  0.261800  0.272800  1
  H  H118  1  0.213600  0.761800  0.227200  1
  H  H119  1  0.213600  0.738200  0.727200  1
  H  H120  1  0.786400  0.238200  0.772800  1
  H  H121  1  0.815800  0.230600  0.387500  1
  H  H122  1  0.184200  0.730600  0.112500  1
  H  H123  1  0.184200  0.769400  0.612500  1
  H  H124  1  0.815800  0.269400  0.887500  1
  H  H125  1  0.780000  0.196400  0.409800  1
  H  H126  1  0.220000  0.696400  0.090200  1
  H  H127  1  0.220000  0.803600  0.590200  1
  H  H128  1  0.780000  0.303600  0.909800  1
  H  H129  1  0.740400  0.219300  0.378300  1
  H  H130  1  0.259600  0.719300  0.121700  1
  H  H131  1  0.259600  0.780700  0.621700  1
  H  H132  1  0.740400  0.280700  0.878300  1
  H  H133  1  0.314700  0.256500  0.929000  1
  H  H134  1  0.685300  0.756500  0.571000  1
  H  H135  1  0.685300  0.743500  0.071000  1
  H  H136  1  0.314700  0.243500  0.429000  1
  H  H137  1  0.244900  0.221700  0.887900  1
  H  H138  1  0.755100  0.721700  0.612100  1
  H  H139  1  0.755100  0.778300  0.112100  1
  H  H140  1  0.244900  0.278300  0.387900  1
  H  H141  1  0.101100  0.305700  0.901200  1
  H  H142  1  0.898900  0.805700  0.598800  1
  H  H143  1  0.898900  0.694300  0.098800  1
  H  H144  1  0.101100  0.194300  0.401200  1
  H  H145  1  0.168000  0.337200  0.945600  1
  H  H146  1  0.832000  0.837200  0.554400  1
  H  H147  1  0.832000  0.662800  0.054400  1
  H  H148  1  0.168000  0.162800  0.445600  1
  H  H149  1  0.192400  0.217800  0.836500  1
  H  H150  1  0.807600  0.717800  0.663500  1
  H  H151  1  0.807600  0.782200  0.163500  1
  H  H152  1  0.192400  0.282200  0.336500  1
  H  H153  1  0.118100  0.207300  0.824000  1
  H  H154  1  0.881900  0.707300  0.676000  1
  H  H155  1  0.881900  0.792700  0.176000  1
  H  H156  1  0.118100  0.292700  0.324000  1
  H  H157  1  0.149900  0.187100  0.859100  1
  H  H158  1  0.850100  0.687100  0.640900  1
  H  H159  1  0.850100  0.812900  0.140900  1
  H  H160  1  0.149900  0.312900  0.359100  1
  H  H161  1  0.219200  0.331300  0.996300  1
  H  H162  1  0.780800  0.831300  0.503700  1
  H  H163  1  0.780800  0.668700  0.003700  1
  H  H164  1  0.219200  0.168700  0.496300  1
  H  H165  1  0.226800  0.367900  0.052200  1
  H  H166  1  0.773200  0.867900  0.447800  1
  H  H167  1  0.773200  0.632100  0.947800  1
  H  H168  1  0.226800  0.132100  0.552200  1
  H  H169  1  0.283000  0.412000  0.090700  1
  H  H170  1  0.717000  0.912000  0.409300  1
  H  H171  1  0.717000  0.588000  0.909300  1
  H  H172  1  0.283000  0.088000  0.590700  1
  H  H173  1  0.440700  0.405400  0.029300  1
  H  H174  1  0.559300  0.905400  0.470700  1
  H  H175  1  0.559300  0.594600  0.970700  1
  H  H176  1  0.440700  0.094600  0.529300  1
  H  H177  1  0.496600  0.428900  0.078400  1
  H  H178  1  0.503400  0.928900  0.421600  1
  H  H179  1  0.503400  0.571100  0.921600  1
  H  H180  1  0.496600  0.071100  0.578400  1
  H  H181  1  0.317400  0.470900  0.104700  1
  H  H182  1  0.682600  0.970900  0.395300  1
  H  H183  1  0.682600  0.529100  0.895300  1
  H  H184  1  0.317400  0.029100  0.604700  1
  H  H185  1  0.363300  0.516400  0.142400  1
  H  H186  1  0.636700  0.016400  0.357600  1
  H  H187  1  0.636700  0.483600  0.857600  1
  H  H188  1  0.363300  0.983600  0.642400  1
  H  H189  1  0.598200  0.456900  0.107900  1
  H  H190  1  0.401800  0.956900  0.392100  1
  H  H191  1  0.401800  0.543100  0.892100  1
  H  H192  1  0.598200  0.043100  0.607900  1
  H  H193  1  0.581600  0.548100  0.179100  1
  H  H194  1  0.418400  0.048100  0.320900  1
  H  H195  1  0.418400  0.451900  0.820900  1
  H  H196  1  0.581600  0.951900  0.679100  1
  H  H197  1  0.470100  0.546500  0.171900  1
  H  H198  1  0.529900  0.046500  0.328100  1
  H  H199  1  0.529900  0.453500  0.828100  1
  H  H200  1  0.470100  0.953500  0.671900  1
  H  H201  1  0.680100  0.438100  0.141000  1
  H  H202  1  0.319900  0.938100  0.359000  1
  H  H203  1  0.319900  0.561900  0.859000  1
  H  H204  1  0.680100  0.061900  0.641000  1
  H  H205  1  0.693900  0.555300  0.171100  1
  H  H206  1  0.306100  0.055300  0.328900  1
  H  H207  1  0.306100  0.444700  0.828900  1
  H  H208  1  0.693900  0.944700  0.671100  1
  H  H209  1  0.803300  0.543000  0.189000  1
  H  H210  1  0.196700  0.043000  0.311000  1
  H  H211  1  0.196700  0.457000  0.811000  1
  H  H212  1  0.803300  0.957000  0.689000  1
  H  H213  1  0.897700  0.492900  0.199000  1
  H  H214  1  0.102300  0.992900  0.301000  1
  H  H215  1  0.102300  0.507100  0.801000  1
  H  H216  1  0.897700  0.007100  0.699000  1
  H  H217  1  0.991100  0.392600  0.162600  1
  H  H218  1  0.008900  0.892600  0.337400  1
  H  H219  1  0.008900  0.607400  0.837400  1
  H  H220  1  0.991100  0.107400  0.662600  1
  H  H221  1  0.083600  0.366000  0.193400  1
  H  H222  1  0.916400  0.866000  0.306600  1
  H  H223  1  0.916400  0.634000  0.806600  1
  H  H224  1  0.083600  0.134000  0.693400  1
  H  H225  1  0.026700  0.421100  0.282600  1
  H  H226  1  0.973300  0.921100  0.217400  1
  H  H227  1  0.973300  0.578900  0.717400  1
  H  H228  1  0.026700  0.078900  0.782600  1
  H  H229  1  0.934200  0.447700  0.251800  1
  H  H230  1  0.065800  0.947700  0.248200  1
  H  H231  1  0.065800  0.552300  0.748200  1
  H  H232  1  0.934200  0.052300  0.751800  1
  H  H233  1  0.165500  0.365500  0.305000  1
  H  H234  1  0.834500  0.865500  0.195000  1
  H  H235  1  0.834500  0.634500  0.695000  1
  H  H236  1  0.165500  0.134500  0.805000  1
  H  H237  1  0.133200  0.409600  0.299300  1
  H  H238  1  0.866800  0.909600  0.200700  1
  H  H239  1  0.866800  0.590400  0.700700  1
  H  H240  1  0.133200  0.090400  0.799300  1
  H  H241  1  0.087700  0.371400  0.307800  1
  H  H242  1  0.912300  0.871400  0.192200  1
  H  H243  1  0.912300  0.628600  0.692200  1
  H  H244  1  0.087700  0.128600  0.807800  1
  H  H245  1  0.371100  0.247800  0.863100  1
  H  H246  1  0.628900  0.747800  0.636900  1
  H  H247  1  0.628900  0.752200  0.136900  1
  H  H248  1  0.371100  0.252200  0.363100  1
  H  H249  1  0.340900  0.262100  0.805100  1
  H  H250  1  0.659100  0.762100  0.694900  1
  H  H251  1  0.659100  0.737900  0.194900  1
  H  H252  1  0.340900  0.237900  0.305100  1
  H  H253  1  0.433400  0.371300  0.813800  1
  H  H254  1  0.566600  0.871300  0.686200  1
  H  H255  1  0.566600  0.628700  0.186200  1
  H  H256  1  0.433400  0.128700  0.313800  1
  H  H257  1  0.458000  0.358400  0.872500  1
  H  H258  1  0.542000  0.858400  0.627500  1
  H  H259  1  0.542000  0.641600  0.127500  1
  H  H260  1  0.458000  0.141600  0.372500  1
  H  H261  1  0.347000  0.383600  0.769100  1
  H  H262  1  0.653000  0.883600  0.730900  1
  H  H263  1  0.653000  0.616400  0.230900  1
  H  H264  1  0.347000  0.116400  0.269100  1
  H  H265  1  0.348200  0.363800  0.730700  1
  H  H266  1  0.651800  0.863800  0.769300  1
  H  H267  1  0.651800  0.636200  0.269300  1
  H  H268  1  0.348200  0.136200  0.230700  1
  H  H269  1  0.415600  0.370500  0.753400  1
  H  H270  1  0.584400  0.870500  0.746600  1
  H  H271  1  0.584400  0.629500  0.246600  1
  H  H272  1  0.415600  0.129500  0.253400  1
  H  H273  1  0.464800  0.242300  0.903200  1
  H  H274  1  0.535200  0.742300  0.596800  1
  H  H275  1  0.535200  0.757700  0.096800  1
  H  H276  1  0.464800  0.257700  0.403200  1
  H  H277  1  0.484500  0.190400  0.949000  1
  H  H278  1  0.515500  0.690400  0.551000  1
  H  H279  1  0.515500  0.809600  0.051000  1
  H  H280  1  0.484500  0.309600  0.449000  1
  H  H281  1  0.478900  0.170300  0.008300  1
  H  H282  1  0.521100  0.670300  0.491700  1
  H  H283  1  0.521100  0.829700  0.991700  1
  H  H284  1  0.478900  0.329700  0.508300  1
  H  H285  1  0.421500  0.284300  0.031500  1
  H  H286  1  0.578500  0.784300  0.468500  1
  H  H287  1  0.578500  0.715700  0.968500  1
  H  H288  1  0.421500  0.215700  0.531500  1
  H  H289  1  0.400900  0.138400  0.112800  1
  H  H290  1  0.599100  0.638400  0.387200  1
  H  H291  1  0.599100  0.861600  0.887200  1
  H  H292  1  0.400900  0.361600  0.612800  1
  H  H293  1  0.417900  0.153800  0.054500  1
  H  H294  1  0.582100  0.653800  0.445500  1
  H  H295  1  0.582100  0.846200  0.945500  1
  H  H296  1  0.417900  0.346200  0.554500  1
  H  H297  1  0.463800  0.269500  0.083600  1
  H  H298  1  0.536200  0.769500  0.416400  1
  H  H299  1  0.536200  0.730500  0.916400  1
  H  H300  1  0.463800  0.230500  0.583600  1
  H  H301  1  0.403000  0.156400  0.176000  1
  H  H302  1  0.597000  0.656400  0.324000  1
  H  H303  1  0.597000  0.843600  0.824000  1
  H  H304  1  0.403000  0.343600  0.676000  1
  H  H305  1  0.413300  0.206000  0.218800  1
  H  H306  1  0.586700  0.706000  0.281200  1
  H  H307  1  0.586700  0.794000  0.781200  1
  H  H308  1  0.413300  0.294000  0.718800  1
  H  H309  1  0.469100  0.288200  0.146300  1
  H  H310  1  0.530900  0.788200  0.353700  1
  H  H311  1  0.530900  0.711800  0.853700  1
  H  H312  1  0.469100  0.211800  0.646300  1
  H  H313  1  0.534400  0.308400  0.192400  1
  H  H314  1  0.465600  0.808400  0.307600  1
  H  H315  1  0.465600  0.691600  0.807600  1
  H  H316  1  0.534400  0.191600  0.692400  1
  H  H317  1  0.384300  0.265800  0.247500  1
  H  H318  1  0.615700  0.765800  0.252500  1
  H  H319  1  0.615700  0.734200  0.752500  1
  H  H320  1  0.384300  0.234200  0.747500  1
  H  H321  1  0.411300  0.314600  0.291400  1
  H  H322  1  0.588700  0.814600  0.208600  1
  H  H323  1  0.588700  0.685400  0.708600  1
  H  H324  1  0.411300  0.185400  0.791400  1
  H  H325  1  0.484100  0.370700  0.314400  1
  H  H326  1  0.515900  0.870700  0.185600  1
  H  H327  1  0.515900  0.629300  0.685600  1
  H  H328  1  0.484100  0.129300  0.814400  1
  H  H329  1  0.497100  0.428100  0.340700  1
  H  H330  1  0.502900  0.928100  0.159300  1
  H  H331  1  0.502900  0.571900  0.659300  1
  H  H332  1  0.497100  0.071900  0.840700  1
  H  H333  1  0.540300  0.462700  0.390500  1
  H  H334  1  0.459700  0.962700  0.109500  1
  H  H335  1  0.459700  0.537300  0.609500  1
  H  H336  1  0.540300  0.037300  0.890500  1
  H  H337  1  0.727800  0.437400  0.361600  1
  H  H338  1  0.272200  0.937400  0.138400  1
  H  H339  1  0.272200  0.562600  0.638400  1
  H  H340  1  0.727800  0.062600  0.861600  1
  H  H341  1  0.682900  0.404400  0.310900  1
  H  H342  1  0.317100  0.904400  0.189100  1
  H  H343  1  0.317100  0.595600  0.689100  1
  H  H344  1  0.682900  0.095600  0.810900  1
  H  H345  1  0.596700  0.508500  0.427800  1
  H  H346  1  0.403300  0.008500  0.072200  1
  H  H347  1  0.403300  0.491500  0.572200  1
  H  H348  1  0.596700  0.991500  0.927800  1
  H  H349  1  0.646800  0.490900  0.457700  1
  H  H350  1  0.353200  0.990900  0.042300  1
  H  H351  1  0.353200  0.509100  0.542300  1
  H  H352  1  0.646800  0.009100  0.957700  1
  H  H353  1  0.590600  0.462200  0.440300  1
  H  H354  1  0.409400  0.962200  0.059700  1
  H  H355  1  0.409400  0.537800  0.559700  1
  H  H356  1  0.590600  0.037800  0.940300  1
  H  H357  1  0.483000  0.386700  0.172400  1
  H  H358  1  0.517000  0.886700  0.327600  1
  H  H359  1  0.517000  0.613300  0.827600  1
  H  H360  1  0.483000  0.113300  0.672400  1
  H  H361  1  0.375900  0.372600  0.149600  1
  H  H362  1  0.624100  0.872600  0.350400  1
  H  H363  1  0.624100  0.627400  0.850400  1
  H  H364  1  0.375900  0.127400  0.649600  1
  H  H365  1  0.302200  0.455200  0.216700  1
  H  H366  1  0.697800  0.955200  0.283300  1
  H  H367  1  0.697800  0.544800  0.783300  1
  H  H368  1  0.302200  0.044800  0.716700  1
  H  H369  1  0.407700  0.468300  0.239200  1
  H  H370  1  0.592300  0.968300  0.260800  1
  H  H371  1  0.592300  0.531700  0.760800  1
  H  H372  1  0.407700  0.031700  0.739200  1
  H  H373  1  0.210600  0.424600  0.202700  1
  H  H374  1  0.789400  0.924600  0.297300  1
  H  H375  1  0.789400  0.575400  0.797300  1
  H  H376  1  0.210600  0.075400  0.702700  1
  H  H377  1  0.171100  0.412400  0.166900  1
  H  H378  1  0.828900  0.912400  0.333100  1
  H  H379  1  0.828900  0.587600  0.833100  1
  H  H380  1  0.171100  0.087600  0.666900  1
  H  H381  1  0.213000  0.453700  0.169000  1
  H  H382  1  0.787000  0.953700  0.331000  1
  H  H383  1  0.787000  0.546300  0.831000  1
  H  H384  1  0.213000  0.046300  0.669000  1
  H  H385  1  0.505500  0.493100  0.231600  1
  H  H386  1  0.494500  0.993100  0.268400  1
  H  H387  1  0.494500  0.506900  0.768400  1
  H  H388  1  0.505500  0.006900  0.731600  1
  H  H389  1  0.588900  0.543100  0.254300  1
  H  H390  1  0.411100  0.043100  0.245700  1
  H  H391  1  0.411100  0.456900  0.745700  1
  H  H392  1  0.588900  0.956900  0.754300  1
  H  H393  1  0.696100  0.557400  0.273200  1
  H  H394  1  0.303900  0.057400  0.226800  1
  H  H395  1  0.303900  0.442600  0.726800  1
  H  H396  1  0.696100  0.942600  0.773200  1
  H  H397  1  0.745800  0.441500  0.254900  1
  H  H398  1  0.254200  0.941500  0.245100  1
  H  H399  1  0.254200  0.558500  0.745100  1
  H  H400  1  0.745800  0.058500  0.754900  1
  H  H401  1  0.916800  0.579600  0.268300  1
  H  H402  1  0.083200  0.079600  0.231700  1
  H  H403  1  0.083200  0.420400  0.731700  1
  H  H404  1  0.916800  0.920400  0.768300  1
  H  H405  1  0.808200  0.565800  0.254700  1
  H  H406  1  0.191800  0.065800  0.245300  1
  H  H407  1  0.191800  0.434200  0.745300  1
  H  H408  1  0.808200  0.934200  0.754700  1
  H  H409  1  0.821000  0.458500  0.304700  1
  H  H410  1  0.179000  0.958500  0.195300  1
  H  H411  1  0.179000  0.541500  0.695300  1
  H  H412  1  0.821000  0.041500  0.804700  1
  H  H413  1  0.023000  0.559600  0.299100  1
  H  H414  1  0.977000  0.059600  0.200900  1
  H  H415  1  0.977000  0.440400  0.700900  1
  H  H416  1  0.023000  0.940400  0.799100  1
  H  H417  1  0.083200  0.514600  0.334300  1
  H  H418  1  0.916800  0.014600  0.165700  1
  H  H419  1  0.916800  0.485400  0.665700  1
  H  H420  1  0.083200  0.985400  0.834300  1
  H  H421  1  0.925100  0.439800  0.337300  1
  H  H422  1  0.074900  0.939800  0.162700  1
  H  H423  1  0.074900  0.560200  0.662700  1
  H  H424  1  0.925100  0.060200  0.837300  1
  H  H425  1  0.975000  0.413700  0.384500  1
  H  H426  1  0.025000  0.913700  0.115500  1
  H  H427  1  0.025000  0.586300  0.615500  1
  H  H428  1  0.975000  0.086300  0.884500  1
  H  H429  1  0.140300  0.461500  0.344900  1
  H  H430  1  0.859700  0.961500  0.155100  1
  H  H431  1  0.859700  0.538500  0.655100  1
  H  H432  1  0.140300  0.038500  0.844900  1
  H  H433  1  0.201600  0.412700  0.377800  1
  H  H434  1  0.798400  0.912700  0.122200  1
  H  H435  1  0.798400  0.587300  0.622200  1
  H  H436  1  0.201600  0.087300  0.877800  1
  H  H437  1  0.205700  0.356900  0.419900  1
  H  H438  1  0.794300  0.856900  0.080100  1
  H  H439  1  0.794300  0.643100  0.580100  1
  H  H440  1  0.205700  0.143100  0.919900  1
  H  H441  1  0.103500  0.269400  0.477800  1
  H  H442  1  0.896500  0.769400  0.022200  1
  H  H443  1  0.896500  0.730600  0.522200  1
  H  H444  1  0.103500  0.230600  0.977800  1
  H  H445  1  0.166300  0.233700  0.521500  1
  H  H446  1  0.833700  0.733700  0.978500  1
  H  H447  1  0.833700  0.766300  0.478500  1
  H  H448  1  0.166300  0.266300  0.021500  1
  H  H449  1  0.316400  0.312500  0.512100  1
  H  H450  1  0.683600  0.812500  0.987900  1
  H  H451  1  0.683600  0.687500  0.487900  1
  H  H452  1  0.316400  0.187500  0.012100  1
  H  H453  1  0.257900  0.346900  0.468000  1
  H  H454  1  0.742100  0.846900  0.032000  1
  H  H455  1  0.742100  0.653100  0.532000  1
  H  H456  1  0.257900  0.153100  0.968000  1
  H  H457  1  0.235100  0.249900  0.585300  1
  H  H458  1  0.764900  0.749900  0.914700  1
  H  H459  1  0.764900  0.750100  0.414700  1
  H  H460  1  0.235100  0.250100  0.085300  1
  H  H461  1  0.294900  0.218100  0.586700  1
  H  H462  1  0.705100  0.718100  0.913300  1
  H  H463  1  0.705100  0.781900  0.413300  1
  H  H464  1  0.294900  0.281900  0.086700  1
  H  H465  1  0.231000  0.209500  0.561800  1
  H  H466  1  0.769000  0.709500  0.938200  1
  H  H467  1  0.769000  0.790500  0.438200  1
  H  H468  1  0.231000  0.290500  0.061800  1
  H  H469  1  0.594100  0.137000  0.169600  1
  H  H470  1  0.405900  0.637000  0.330400  1
  H  H471  1  0.405900  0.863000  0.830400  1
  H  H472  1  0.594100  0.363000  0.669600  1
  H  H473  1  0.580200  0.107500  0.113600  1
  H  H474  1  0.419800  0.607500  0.386400  1
  H  H475  1  0.419800  0.892500  0.886400  1
  H  H476  1  0.580200  0.392500  0.613600  1
  H  H477  1  0.614600  0.214100  0.068800  1
  H  H478  1  0.385400  0.714100  0.431200  1
  H  H479  1  0.385400  0.785900  0.931200  1
  H  H480  1  0.614600  0.285900  0.568800  1
  H  H481  1  0.630600  0.244700  0.123400  1
  H  H482  1  0.369400  0.744700  0.376600  1
  H  H483  1  0.369400  0.755300  0.876600  1
  H  H484  1  0.630600  0.255300  0.623400  1
  H  H485  1  0.608400  0.084000  0.055100  1
  H  H486  1  0.391600  0.584000  0.444900  1
  H  H487  1  0.391600  0.916000  0.944900  1
  H  H488  1  0.608400  0.416000  0.555100  1
  H  H489  1  0.557600  0.096400  0.023500  1
  H  H490  1  0.442400  0.596400  0.476500  1
  H  H491  1  0.442400  0.903600  0.976500  1
  H  H492  1  0.557600  0.403600  0.523500  1
  H  H493  1  0.533800  0.095100  0.063100  1
  H  H494  1  0.466200  0.595100  0.436900  1
  H  H495  1  0.466200  0.904900  0.936900  1
  H  H496  1  0.533800  0.404900  0.563100  1
  H  H497  1  0.562500  0.178300  0.207800  1
  H  H498  1  0.437500  0.678300  0.292200  1
  H  H499  1  0.437500  0.821700  0.792200  1
  H  H500  1  0.562500  0.321700  0.707800  1
  H  H501  1  0.527900  0.186500  0.270000  1
  H  H502  1  0.472100  0.686500  0.230000  1
  H  H503  1  0.472100  0.813500  0.730000  1
  H  H504  1  0.527900  0.313500  0.770000  1
  H  H505  1  0.526800  0.225200  0.321200  1
  H  H506  1  0.473200  0.725200  0.178800  1
  H  H507  1  0.473200  0.774800  0.678800  1
  H  H508  1  0.526800  0.274800  0.821200  1
  H  H509  1  0.671400  0.294500  0.283000  1
  H  H510  1  0.328600  0.794500  0.217000  1
  H  H511  1  0.328600  0.705500  0.717000  1
  H  H512  1  0.671400  0.205500  0.783000  1
  H  H513  1  0.506200  0.334600  0.394500  1
  H  H514  1  0.493800  0.834600  0.105500  1
  H  H515  1  0.493800  0.665400  0.605500  1
  H  H516  1  0.506200  0.165400  0.894500  1
  H  H517  1  0.503100  0.292500  0.346600  1
  H  H518  1  0.496900  0.792500  0.153400  1
  H  H519  1  0.496900  0.707500  0.653400  1
  H  H520  1  0.503100  0.207500  0.846600  1
  H  H521  1  0.702600  0.296600  0.342700  1
  H  H522  1  0.297400  0.796600  0.157300  1
  H  H523  1  0.297400  0.703400  0.657300  1
  H  H524  1  0.702600  0.203400  0.842700  1
  H  H525  1  0.573000  0.374000  0.441100  1
  H  H526  1  0.427000  0.874000  0.058900  1
  H  H527  1  0.427000  0.626000  0.558900  1
  H  H528  1  0.573000  0.126000  0.941100  1
  H  H529  1  0.673100  0.396300  0.464000  1
  H  H530  1  0.326900  0.896300  0.036000  1
  H  H531  1  0.326900  0.603700  0.536000  1
  H  H532  1  0.673100  0.103700  0.964000  1
  H  H533  1  0.767300  0.335700  0.387400  1
  H  H534  1  0.232700  0.835700  0.112600  1
  H  H535  1  0.232700  0.664300  0.612600  1
  H  H536  1  0.767300  0.164300  0.887400  1
  H  H537  1  0.852400  0.338600  0.425800  1
  H  H538  1  0.147600  0.838600  0.074200  1
  H  H539  1  0.147600  0.661400  0.574200  1
  H  H540  1  0.852400  0.161400  0.925800  1
  H  H541  1  0.761000  0.439100  0.460100  1
  H  H542  1  0.239000  0.939100  0.039900  1
  H  H543  1  0.239000  0.560900  0.539900  1
  H  H544  1  0.761000  0.060900  0.960100  1
  H  H545  1  0.865200  0.463400  0.481800  1
  H  H546  1  0.134800  0.963400  0.018200  1
  H  H547  1  0.134800  0.536600  0.518200  1
  H  H548  1  0.865200  0.036600  0.981800  1
  H  H549  1  0.989600  0.454000  0.490000  1
  H  H550  1  0.010400  0.954000  0.010000  1
  H  H551  1  0.010400  0.546000  0.510000  1
  H  H552  1  0.989600  0.046000  0.990000  1
  H  H553  1  0.102300  0.360700  0.528300  1
  H  H554  1  0.897700  0.860700  0.971700  1
  H  H555  1  0.897700  0.639300  0.471700  1
  H  H556  1  0.102300  0.139300  0.028300  1
  H  H557  1  0.204600  0.376700  0.556000  1
  H  H558  1  0.795400  0.876700  0.944000  1
  H  H559  1  0.795400  0.623300  0.444000  1
  H  H560  1  0.204600  0.123300  0.056000  1
  H  H561  1  0.208900  0.481200  0.499700  1
  H  H562  1  0.791100  0.981200  0.000300  1
  H  H563  1  0.791100  0.518800  0.500300  1
  H  H564  1  0.208900  0.018800  0.999700  1
  H  H565  1  0.103000  0.466400  0.474100  1
  H  H566  1  0.897000  0.966400  0.025900  1
  H  H567  1  0.897000  0.533600  0.525900  1
  H  H568  1  0.103000  0.033600  0.974100  1
  H  H569  1  0.277600  0.406500  0.588800  1
  H  H570  1  0.722400  0.906500  0.911200  1
  H  H571  1  0.722400  0.593500  0.411200  1
  H  H572  1  0.277600  0.093500  0.088800  1
  H  H573  1  0.346700  0.428200  0.582800  1
  H  H574  1  0.653300  0.928200  0.917200  1
  H  H575  1  0.653300  0.571800  0.417200  1
  H  H576  1  0.346700  0.071800  0.082800  1
  H  H577  1  0.324200  0.390000  0.559100  1
  H  H578  1  0.675800  0.890000  0.940900  1
  H  H579  1  0.675800  0.610000  0.440900  1
  H  H580  1  0.324200  0.110000  0.059100  1
  H  H581  1  0.732100  0.401100  0.090100  1
  H  H582  1  0.267900  0.901100  0.409900  1
  H  H583  1  0.267900  0.598900  0.909900  1
  H  H584  1  0.732100  0.098900  0.590100  1
  H  H585  1  0.682700  0.439800  0.044400  1
  H  H586  1  0.317300  0.939800  0.455600  1
  H  H587  1  0.317300  0.560200  0.955600  1
  H  H588  1  0.682700  0.060200  0.544400  1
  H  H589  1  0.863100  0.468200  0.009900  1
  H  H590  1  0.136900  0.968200  0.490100  1
  H  H591  1  0.136900  0.531800  0.990100  1
  H  H592  1  0.863100  0.031800  0.509900  1
  H  H593  1  0.912500  0.429500  0.055600  1
  H  H594  1  0.087500  0.929500  0.444400  1
  H  H595  1  0.087500  0.570500  0.944400  1
  H  H596  1  0.912500  0.070500  0.555600  1
  H  H597  1  0.747400  0.514400  0.955300  1
  H  H598  1  0.252600  0.014400  0.544700  1
  H  H599  1  0.252600  0.485600  0.044700  1
  H  H600  1  0.747400  0.985600  0.455300  1
  H  H601  1  0.802400  0.520800  0.986200  1
  H  H602  1  0.197600  0.020800  0.513800  1
  H  H603  1  0.197600  0.479200  0.013800  1
  H  H604  1  0.802400  0.979200  0.486200  1
  H  H605  1  0.805100  0.481600  0.961300  1
  H  H606  1  0.194900  0.981600  0.538700  1
  H  H607  1  0.194900  0.518400  0.038700  1
  H  H608  1  0.805100  0.018400  0.461300  1
  H  H609  1  0.929100  0.365800  0.083400  1
  H  H610  1  0.070900  0.865800  0.416600  1
  H  H611  1  0.070900  0.634200  0.916600  1
  H  H612  1  0.929100  0.134200  0.583400  1
  H  H613  1  0.005200  0.311800  0.107700  1
  H  H614  1  0.994800  0.811800  0.392300  1
  H  H615  1  0.994800  0.688200  0.892300  1
  H  H616  1  0.005200  0.188200  0.607700  1
  H  H617  1  0.033200  0.263300  0.151500  1
  H  H618  1  0.966800  0.763300  0.348500  1
  H  H619  1  0.966800  0.736700  0.848500  1
  H  H620  1  0.033200  0.236700  0.651500  1
  H  H621  1  0.884100  0.307900  0.207300  1
  H  H622  1  0.115900  0.807900  0.292700  1
  H  H623  1  0.115900  0.692100  0.792700  1
  H  H624  1  0.884100  0.192100  0.707300  1
  H  H625  1  0.017300  0.157000  0.226600  1
  H  H626  1  0.982700  0.657000  0.273400  1
  H  H627  1  0.982700  0.843000  0.773400  1
  H  H628  1  0.017300  0.343000  0.726600  1
  H  H629  1  0.002500  0.203100  0.183000  1
  H  H630  1  0.997500  0.703100  0.317000  1
  H  H631  1  0.997500  0.796900  0.817000  1
  H  H632  1  0.002500  0.296900  0.683000  1
  H  H633  1  0.956200  0.289800  0.253300  1
  H  H634  1  0.043800  0.789800  0.246700  1
  H  H635  1  0.043800  0.710200  0.746700  1
  H  H636  1  0.956200  0.210200  0.753300  1
  H  H637  1  0.016400  0.139000  0.291000  1
  H  H638  1  0.983600  0.639000  0.209000  1
  H  H639  1  0.983600  0.861000  0.709000  1
  H  H640  1  0.016400  0.361000  0.791000  1
  H  H641  1  0.002200  0.157900  0.347900  1
  H  H642  1  0.997800  0.657900  0.152100  1
  H  H643  1  0.997800  0.842100  0.652100  1
  H  H644  1  0.002200  0.342100  0.847900  1
  H  H645  1  0.961500  0.273600  0.316700  1
  H  H646  1  0.038500  0.773600  0.183300  1
  H  H647  1  0.038500  0.726400  0.683300  1
  H  H648  1  0.961500  0.226400  0.816700  1
  H  H649  1  0.000800  0.289200  0.370900  1
  H  H650  1  0.999200  0.789200  0.129100  1
  H  H651  1  0.999200  0.710800  0.629100  1
  H  H652  1  0.000800  0.210800  0.870900  1
  H  H653  1  0.938700  0.176300  0.392300  1
  H  H654  1  0.061300  0.676300  0.107700  1
  H  H655  1  0.061300  0.823700  0.607700  1
  H  H656  1  0.938700  0.323700  0.892300  1
  H  H657  1  0.925600  0.196100  0.450200  1
  H  H658  1  0.074400  0.696100  0.049800  1
  H  H659  1  0.074400  0.803900  0.549800  1
  H  H660  1  0.925600  0.303900  0.950200  1
  H  H661  1  0.944400  0.247200  0.497700  1
  H  H662  1  0.055600  0.747200  0.002300  1
  H  H663  1  0.055600  0.752800  0.502300  1
  H  H664  1  0.944400  0.252800  0.997700  1
  H  H665  1  0.041000  0.256700  0.542000  1
  H  H666  1  0.959000  0.756700  0.958000  1
  H  H667  1  0.959000  0.743300  0.458000  1
  H  H668  1  0.041000  0.243300  0.042000  1
  H  H669  1  0.068300  0.276300  0.599300  1
  H  H670  1  0.931700  0.776300  0.900700  1
  H  H671  1  0.931700  0.723700  0.400700  1
  H  H672  1  0.068300  0.223700  0.099300  1
  H  H673  1  0.959200  0.378800  0.586300  1
  H  H674  1  0.040800  0.878800  0.913700  1
  H  H675  1  0.040800  0.621200  0.413700  1
  H  H676  1  0.959200  0.121200  0.086300  1
  H  H677  1  0.939700  0.362100  0.526500  1
  H  H678  1  0.060300  0.862100  0.973500  1
  H  H679  1  0.060300  0.637900  0.473500  1
  H  H680  1  0.939700  0.137900  0.026500  1
  H  H681  1  0.038400  0.397800  0.627300  1
  H  H682  1  0.961600  0.897800  0.872700  1
  H  H683  1  0.961600  0.602200  0.372700  1
  H  H684  1  0.038400  0.102200  0.127300  1
  H  H685  1  0.047300  0.382600  0.667300  1
  H  H686  1  0.952700  0.882600  0.832700  1
  H  H687  1  0.952700  0.617400  0.332700  1
  H  H688  1  0.047300  0.117400  0.167300  1
  H  H689  1  0.975900  0.382000  0.647700  1
  H  H690  1  0.024100  0.882000  0.852300  1
  H  H691  1  0.024100  0.618000  0.352300  1
  H  H692  1  0.975900  0.118000  0.147700  1
  H  H693  1  0.056500  0.482500  0.169600  1
  H  H694  1  0.943500  0.982500  0.330400  1
  H  H695  1  0.943500  0.517500  0.830400  1
  H  H696  1  0.056500  0.017500  0.669600  1
  H  H697  1  0.079100  0.474700  0.209900  1
  H  H698  1  0.920900  0.974700  0.290100  1
  H  H699  1  0.920900  0.525300  0.790100  1
  H  H700  1  0.079100  0.025300  0.709900  1
  H  H701  1  0.119000  0.506100  0.186600  1
  H  H702  1  0.881000  0.006100  0.313400  1
  H  H703  1  0.881000  0.493900  0.813400  1
  H  H704  1  0.119000  0.993900  0.686600  1
  H  H705  1  0.665900  0.149900  0.336000  1
  H  H706  1  0.334100  0.649900  0.164000  1
  H  H707  1  0.334100  0.850100  0.664000  1
  H  H708  1  0.665900  0.350100  0.836000  1
  H  H709  1  0.599800  0.124400  0.340700  1
  H  H710  1  0.400200  0.624400  0.159300  1
  H  H711  1  0.400200  0.875600  0.659300  1
  H  H712  1  0.599800  0.375600  0.840700  1
  H  H713  1  0.661900  0.117800  0.367500  1
  H  H714  1  0.338100  0.617800  0.132500  1
  H  H715  1  0.338100  0.882200  0.632500  1
  H  H716  1  0.661900  0.382200  0.867500  1
  H  H717  1  0.204600  0.482400  0.593000  1
  H  H718  1  0.795400  0.982400  0.907000  1
  H  H719  1  0.795400  0.517600  0.407000  1
  H  H720  1  0.204600  0.017600  0.093000  1
  H  H721  1  0.173500  0.478900  0.630800  1
  H  H722  1  0.826500  0.978900  0.869200  1
  H  H723  1  0.826500  0.521100  0.369200  1
  H  H724  1  0.173500  0.021100  0.130800  1
  H  H725  1  0.180500  0.522500  0.612600  1
  H  H726  1  0.819500  0.022500  0.887400  1
  H  H727  1  0.819500  0.477500  0.387400  1
  H  H728  1  0.180500  0.977500  0.112600  1
  H  H729  1  0.134400  0.197000  0.303500  1
  H  H730  1  0.865600  0.697000  0.196500  1
  H  H731  1  0.865600  0.803000  0.696500  1
  H  H732  1  0.134400  0.303000  0.803500  1
  H  H733  1  0.182400  0.210600  0.273300  1
  H  H734  1  0.817600  0.710600  0.226700  1
  H  H735  1  0.817600  0.789400  0.726700  1
  H  H736  1  0.182400  0.289400  0.773300  1
  H  H737  1  0.208100  0.211300  0.313700  1
  H  H738  1  0.791900  0.711300  0.186300  1
  H  H739  1  0.791900  0.788700  0.686300  1
  H  H740  1  0.208100  0.288700  0.813700  1
  H  H741  1  0.720000  0.241400  0.460900  1
  H  H742  1  0.280000  0.741400  0.039100  1
  H  H743  1  0.280000  0.758600  0.539100  1
  H  H744  1  0.720000  0.258600  0.960900  1
  H  H745  1  0.685300  0.283400  0.449600  1
  H  H746  1  0.314700  0.783400  0.050400  1
  H  H747  1  0.314700  0.716600  0.550400  1
  H  H748  1  0.685300  0.216600  0.949600  1
  H  H749  1  0.657000  0.241200  0.434200  1
  H  H750  1  0.343000  0.741200  0.065800  1
  H  H751  1  0.343000  0.758800  0.565800  1
  H  H752  1  0.657000  0.258800  0.934200  1
  H  H753  1  0.774300  0.369600  0.532700  1
  H  H754  1  0.225700  0.869600  0.967300  1
  H  H755  1  0.225700  0.630400  0.467300  1
  H  H756  1  0.774300  0.130400  0.032700  1
  H  H757  1  0.770400  0.334600  0.561800  1
  H  H758  1  0.229600  0.834600  0.938200  1
  H  H759  1  0.229600  0.665400  0.438200  1
  H  H760  1  0.770400  0.165400  0.061800  1
  H  H761  1  0.711800  0.339900  0.532600  1
  H  H762  1  0.288200  0.839900  0.967400  1
  H  H763  1  0.288200  0.660100  0.467400  1
  H  H764  1  0.711800  0.160100  0.032600  1
  H  H765  1  0.111500  0.437300  0.056600  1
  H  H766  1  0.888500  0.937300  0.443400  1
  H  H767  1  0.888500  0.562700  0.943400  1
  H  H768  1  0.111500  0.062700  0.556600  1
  H  H769  1  0.138900  0.407500  0.087200  1
  H  H770  1  0.861100  0.907500  0.412800  1
  H  H771  1  0.861100  0.592500  0.912800  1
  H  H772  1  0.138900  0.092500  0.587200  1
  H  H773  1  0.150400  0.455600  0.090600  1
  H  H774  1  0.849600  0.955600  0.409400  1
  H  H775  1  0.849600  0.544400  0.909400  1
  H  H776  1  0.150400  0.044400  0.590600  1
  H  H777  1  0.262000  0.381100  0.301300  1
  H  H778  1  0.738000  0.881100  0.198700  1
  H  H779  1  0.738000  0.618900  0.698700  1
  H  H780  1  0.262000  0.118900  0.801300  1
  H  H781  1  0.266100  0.388800  0.259900  1
  H  H782  1  0.733900  0.888800  0.240100  1
  H  H783  1  0.733900  0.611200  0.740100  1
  H  H784  1  0.266100  0.111200  0.759900  1
  H  H785  1  0.331500  0.378300  0.283100  1
  H  H786  1  0.668500  0.878300  0.216900  1
  H  H787  1  0.668500  0.621700  0.716900  1
  H  H788  1  0.331500  0.121700  0.783100  1
  H  H789  1  0.364200  0.471800  0.317900  1
  H  H790  1  0.635800  0.971800  0.182100  1
  H  H791  1  0.635800  0.528200  0.682100  1
  H  H792  1  0.364200  0.028200  0.817900  1
  H  H793  1  0.347000  0.518200  0.308600  1
  H  H794  1  0.653000  0.018200  0.191400  1
  H  H795  1  0.653000  0.481800  0.691400  1
  H  H796  1  0.347000  0.981800  0.808600  1
  H  H797  1  0.301500  0.493000  0.334300  1
  H  H798  1  0.698500  0.993000  0.165700  1
  H  H799  1  0.698500  0.507000  0.665700  1
  H  H800  1  0.301500  0.007000  0.834300  1
  H  H801  1  0.278800  0.484300  0.413900  1
  H  H802  1  0.721200  0.984300  0.086100  1
  H  H803  1  0.721200  0.515700  0.586100  1
  H  H804  1  0.278800  0.015700  0.913900  1
  H  H805  1  0.216000  0.512300  0.404300  1
  H  H806  1  0.784000  0.012300  0.095700  1
  H  H807  1  0.784000  0.487700  0.595700  1
  H  H808  1  0.216000  0.987700  0.904300  1
  H  H809  1  0.211700  0.477400  0.433600  1
  H  H810  1  0.788300  0.977400  0.066400  1
  H  H811  1  0.788300  0.522600  0.566400  1
  H  H812  1  0.211700  0.022600  0.933600  1
  H  H813  1  0.181000  0.563800  0.276500  1
  H  H814  1  0.819000  0.063800  0.223500  1
  H  H815  1  0.819000  0.436200  0.723500  1
  H  H816  1  0.181000  0.936200  0.776500  1
  H  H817  1  0.127100  0.549700  0.247100  1
  H  H818  1  0.872900  0.049700  0.252900  1
  H  H819  1  0.872900  0.450300  0.752900  1
  H  H820  1  0.127100  0.950300  0.747100  1
  H  H821  1  0.201400  0.558000  0.236600  1
  H  H822  1  0.798600  0.058000  0.263400  1
  H  H823  1  0.798600  0.442000  0.763400  1
  H  H824  1  0.201400  0.942000  0.736600  1
  H  H825  1  0.551500  0.528600  0.331200  1
  H  H826  1  0.448500  0.028600  0.168800  1
  H  H827  1  0.448500  0.471400  0.668800  1
  H  H828  1  0.551500  0.971400  0.831200  1
  H  H829  1  0.522600  0.573900  0.332500  1
  H  H830  1  0.477400  0.073900  0.167500  1
  H  H831  1  0.477400  0.426100  0.667500  1
  H  H832  1  0.522600  0.926100  0.832500  1
  H  H833  1  0.547800  0.551800  0.368100  1
  H  H834  1  0.452200  0.051800  0.131900  1
  H  H835  1  0.452200  0.448200  0.631900  1
  H  H836  1  0.547800  0.948200  0.868100  1
  H  H837  1  0.042700  0.435900  0.859100  1
  H  H838  1  0.957300  0.935900  0.640900  1
  H  H839  1  0.957300  0.564100  0.140900  1
  H  H840  1  0.042700  0.064100  0.359100  1
  H  H841  1  0.104900  0.417700  0.840000  1
  H  H842  1  0.895100  0.917700  0.660000  1
  H  H843  1  0.895100  0.582300  0.160000  1
  H  H844  1  0.104900  0.082300  0.340000  1
  H  H845  1  0.077300  0.395100  0.873600  1
  H  H846  1  0.922700  0.895100  0.626400  1
  H  H847  1  0.922700  0.604900  0.126400  1
  H  H848  1  0.077300  0.104900  0.373600  1
  H  H849  1  0.006100  0.477600  0.193500  1
  H  H850  1  0.993900  0.977600  0.306500  1
  H  H851  1  0.993900  0.522400  0.806500  1
  H  H852  1  0.006100  0.022400  0.693500  1
  H  H853  1  0.100200  0.460000  0.227800  1
  H  H854  1  0.899800  0.960000  0.272200  1
  H  H855  1  0.899800  0.540000  0.772200  1
  H  H856  1  0.100200  0.040000  0.727800  1
  H  H857  1  0.004000  0.362300  0.265900  1
  H  H858  1  0.996000  0.862300  0.234100  1
  H  H859  1  0.996000  0.637700  0.734100  1
  H  H860  1  0.004000  0.137700  0.765900  1
  H  H861  1  0.909900  0.379900  0.231600  1
  H  H862  1  0.090100  0.879900  0.268400  1
  H  H863  1  0.090100  0.620100  0.768400  1
  H  H864  1  0.909900  0.120100  0.731600  1
  H  H865  1  0.155300  0.352500  0.299700  1
  H  H866  1  0.844700  0.852500  0.200300  1
  H  H867  1  0.844700  0.647500  0.700300  1
  H  H868  1  0.155300  0.147500  0.799700  1
  H  H869  1  0.078600  0.361400  0.303800  1
  H  H870  1  0.921400  0.861400  0.196200  1
  H  H871  1  0.921400  0.638600  0.696200  1
  H  H872  1  0.078600  0.138600  0.803800  1
  H  H873  1  0.102600  0.338000  0.269800  1
  H  H874  1  0.897400  0.838000  0.230200  1
  H  H875  1  0.897400  0.662000  0.730200  1
  H  H876  1  0.102600  0.162000  0.769800  1
  H  H877  1  0.324900  0.397600  0.572700  1
  H  H878  1  0.675100  0.897600  0.927300  1
  H  H879  1  0.675100  0.602400  0.427300  1
  H  H880  1  0.324900  0.102400  0.072700  1
  H  H881  1  0.372900  0.426500  0.551700  1
  H  H882  1  0.627100  0.926500  0.948300  1
  H  H883  1  0.627100  0.573500  0.448300  1
  H  H884  1  0.372900  0.073500  0.051700  1
  H  H885  1  0.329500  0.392900  0.531000  1
  H  H886  1  0.670500  0.892900  0.969000  1
  H  H887  1  0.670500  0.607100  0.469000  1
  H  H888  1  0.329500  0.107100  0.031000  1
  H  H889  1  0.711400  0.447000  0.033700  1
  H  H890  1  0.288600  0.947000  0.466300  1
  H  H891  1  0.288600  0.553000  0.966300  1
  H  H892  1  0.711400  0.053000  0.533700  1
  H  H893  1  0.905300  0.459700  0.015400  1
  H  H894  1  0.094700  0.959700  0.484600  1
  H  H895  1  0.094700  0.540300  0.984600  1
  H  H896  1  0.905300  0.040300  0.515400  1
  H  H897  1  0.932400  0.419400  0.064700  1
  H  H898  1  0.067600  0.919400  0.435300  1
  H  H899  1  0.067600  0.580600  0.935300  1
  H  H900  1  0.932400  0.080600  0.564700  1
  H  H901  1  0.738400  0.406700  0.083100  1
  H  H902  1  0.261600  0.906700  0.416900  1
  H  H903  1  0.261600  0.593300  0.916900  1
  H  H904  1  0.738400  0.093300  0.583100  1
  H  H905  1  0.732900  0.509100  0.959100  1
  H  H906  1  0.267100  0.009100  0.540900  1
  H  H907  1  0.267100  0.490900  0.040900  1
  H  H908  1  0.732900  0.990900  0.459100  1
  H  H909  1  0.708500  0.465900  0.973100  1
  H  H910  1  0.291500  0.965900  0.526900  1
  H  H911  1  0.291500  0.534100  0.026900  1
  H  H912  1  0.708500  0.034100  0.473100  1
  H  H913  1  0.708900  0.504800  0.998500  1
  H  H914  1  0.291100  0.004800  0.501500  1
  H  H915  1  0.291100  0.495200  0.001500  1
  H  H916  1  0.708900  0.995200  0.498500  1
  H  H917  1  0.227100  0.466400  0.600200  1
  H  H918  1  0.772900  0.966400  0.899800  1
  H  H919  1  0.772900  0.533600  0.399800  1
  H  H920  1  0.227100  0.033600  0.100200  1
  H  H921  1  0.197800  0.433900  0.626800  1
  H  H922  1  0.802200  0.933900  0.873200  1
  H  H923  1  0.802200  0.566100  0.373200  1
  H  H924  1  0.197800  0.066100  0.126800  1
  H  H925  1  0.203000  0.480900  0.637800  1
  H  H926  1  0.797000  0.980900  0.862200  1
  H  H927  1  0.797000  0.519100  0.362200  1
  H  H928  1  0.203000  0.019100  0.137800  1
  H  H929  1  0.117800  0.345500  0.087400  1
  H  H930  1  0.882200  0.845500  0.412600  1
  H  H931  1  0.882200  0.654500  0.912600  1
  H  H932  1  0.117800  0.154500  0.587400  1
  H  H933  1  0.097600  0.364700  0.124100  1
  H  H934  1  0.902400  0.864700  0.375900  1
  H  H935  1  0.902400  0.635300  0.875900  1
  H  H936  1  0.097600  0.135300  0.624100  1
  H  H937  1  0.169300  0.373100  0.109800  1
  H  H938  1  0.830700  0.873100  0.390200  1
  H  H939  1  0.830700  0.626900  0.890200  1
  H  H940  1  0.169300  0.126900  0.609800  1
  H  H941  1  0.336400  0.375200  0.267700  1
  H  H942  1  0.663600  0.875200  0.232300  1
  H  H943  1  0.663600  0.624800  0.732300  1
  H  H944  1  0.336400  0.124800  0.767700  1
  H  H945  1  0.262800  0.389400  0.274600  1
  H  H946  1  0.737200  0.889400  0.225400  1
  H  H947  1  0.737200  0.610600  0.725400  1
  H  H948  1  0.262800  0.110600  0.774600  1
  H  H949  1  0.280800  0.373100  0.236500  1
  H  H950  1  0.719200  0.873100  0.263500  1
  H  H951  1  0.719200  0.626900  0.763500  1
  H  H952  1  0.280800  0.126900  0.736500  1
  C  C953  1  0.317600  0.411300  0.914900  1
  C  C954  1  0.682400  0.911300  0.585100  1
  C  C955  1  0.682400  0.588700  0.085100  1
  C  C956  1  0.317600  0.088700  0.414900  1
  C  C957  1  0.278100  0.385300  0.894200  1
  C  C958  1  0.721900  0.885300  0.605800  1
  C  C959  1  0.721900  0.614700  0.105800  1
  C  C960  1  0.278100  0.114700  0.394200  1
  C  C961  1  0.213200  0.396800  0.883400  1
  C  C962  1  0.786800  0.896800  0.616600  1
  C  C963  1  0.786800  0.603200  0.116600  1
  C  C964  1  0.213200  0.103200  0.383400  1
  C  C965  1  0.188400  0.434000  0.894900  1
  C  C966  1  0.811600  0.934000  0.605100  1
  C  C967  1  0.811600  0.566000  0.105100  1
  C  C968  1  0.188400  0.066000  0.394900  1
  C  C969  1  0.226900  0.459200  0.915600  1
  C  C970  1  0.773100  0.959200  0.584400  1
  C  C971  1  0.773100  0.540800  0.084400  1
  C  C972  1  0.226900  0.040800  0.415600  1
  C  C973  1  0.293500  0.448100  0.925400  1
  C  C974  1  0.706500  0.948100  0.574600  1
  C  C975  1  0.706500  0.551900  0.074600  1
  C  C976  1  0.293500  0.051900  0.425400  1
  C  C977  1  0.093000  0.476000  0.897700  1
  C  C978  1  0.907000  0.976000  0.602300  1
  C  C979  1  0.907000  0.524000  0.102300  1
  C  C980  1  0.093000  0.024000  0.397700  1
  C  C981  1  0.433000  0.420100  0.924600  1
  C  C982  1  0.567000  0.920100  0.575400  1
  C  C983  1  0.567000  0.579900  0.075400  1
  C  C984  1  0.433000  0.079900  0.424600  1
  C  C985  1  0.498600  0.406300  0.937600  1
  C  C986  1  0.501400  0.906300  0.562400  1
  C  C987  1  0.501400  0.593700  0.062400  1
  C  C988  1  0.498600  0.093700  0.437600  1
  C  C989  1  0.555100  0.428400  0.930800  1
  C  C990  1  0.444900  0.928400  0.569200  1
  C  C991  1  0.444900  0.571600  0.069200  1
  C  C992  1  0.555100  0.071600  0.430800  1
  C  C993  1  0.616000  0.414300  0.942700  1
  C  C994  1  0.384000  0.914300  0.557300  1
  C  C995  1  0.384000  0.585700  0.057300  1
  C  C996  1  0.616000  0.085700  0.442700  1
  C  C997  1  0.620700  0.378900  0.963200  1
  C  C998  1  0.379300  0.878900  0.536800  1
  C  C999  1  0.379300  0.621100  0.036800  1
  C  C1000  1  0.620700  0.121100  0.463200  1
  C  C1001  1  0.560400  0.359300  0.968400  1
  C  C1002  1  0.439600  0.859300  0.531600  1
  C  C1003  1  0.439600  0.640700  0.031600  1
  C  C1004  1  0.560400  0.140700  0.468400  1
  C  C1005  1  0.687400  0.339300  0.006800  1
  C  C1006  1  0.312600  0.839300  0.493200  1
  C  C1007  1  0.312600  0.660700  0.993200  1
  C  C1008  1  0.687400  0.160700  0.506800  1
  C  C1009  1  0.683500  0.363400  0.977600  1
  C  C1010  1  0.316500  0.863400  0.522400  1
  C  C1011  1  0.316500  0.636600  0.022400  1
  C  C1012  1  0.683500  0.136600  0.477600  1
  C  C1013  1  0.744700  0.373600  0.961100  1
  C  C1014  1  0.255300  0.873600  0.538900  1
  C  C1015  1  0.255300  0.626400  0.038900  1
  C  C1016  1  0.744700  0.126400  0.461100  1
  C  C1017  1  0.803900  0.360100  0.974800  1
  C  C1018  1  0.196100  0.860100  0.525200  1
  C  C1019  1  0.196100  0.639900  0.025200  1
  C  C1020  1  0.803900  0.139900  0.474800  1
  C  C1021  1  0.809000  0.335000  0.004700  1
  C  C1022  1  0.191000  0.835000  0.495300  1
  C  C1023  1  0.191000  0.665000  0.995300  1
  C  C1024  1  0.809000  0.165000  0.504700  1
  C  C1025  1  0.747700  0.323500  0.020800  1
  C  C1026  1  0.252300  0.823500  0.479200  1
  C  C1027  1  0.252300  0.676500  0.979200  1
  C  C1028  1  0.747700  0.176500  0.520800  1
  C  C1029  1  0.750200  0.297800  0.050200  1
  C  C1030  1  0.249800  0.797800  0.449800  1
  C  C1031  1  0.249800  0.702200  0.949800  1
  C  C1032  1  0.750200  0.202200  0.550200  1
  C  C1033  1  0.808900  0.282800  0.064300  1
  C  C1034  1  0.191100  0.782800  0.435700  1
  C  C1035  1  0.191100  0.717200  0.935700  1
  C  C1036  1  0.808900  0.217200  0.564300  1
  C  C1037  1  0.869700  0.294100  0.048100  1
  C  C1038  1  0.130300  0.794100  0.451900  1
  C  C1039  1  0.130300  0.705900  0.951900  1
  C  C1040  1  0.869700  0.205900  0.548100  1
  C  C1041  1  0.868600  0.319600  0.020000  1
  C  C1042  1  0.131400  0.819600  0.480000  1
  C  C1043  1  0.131400  0.680400  0.980000  1
  C  C1044  1  0.868600  0.180400  0.520000  1
  C  C1045  1  0.770600  0.266000  0.123400  1
  C  C1046  1  0.229400  0.766000  0.376600  1
  C  C1047  1  0.229400  0.734000  0.876600  1
  C  C1048  1  0.770600  0.234000  0.623400  1
  C  C1049  1  0.813400  0.257600  0.096200  1
  C  C1050  1  0.186600  0.757600  0.403800  1
  C  C1051  1  0.186600  0.742400  0.903800  1
  C  C1052  1  0.813400  0.242400  0.596200  1
  C  C1053  1  0.859000  0.226400  0.102100  1
  C  C1054  1  0.141000  0.726400  0.397900  1
  C  C1055  1  0.141000  0.773600  0.897900  1
  C  C1056  1  0.859000  0.273600  0.602100  1
  C  C1057  1  0.859400  0.205400  0.134700  1
  C  C1058  1  0.140600  0.705400  0.365300  1
  C  C1059  1  0.140600  0.794600  0.865300  1
  C  C1060  1  0.859400  0.294600  0.634700  1
  C  C1061  1  0.814600  0.216400  0.159600  1
  C  C1062  1  0.185400  0.716400  0.340400  1
  C  C1063  1  0.185400  0.783600  0.840400  1
  C  C1064  1  0.814600  0.283600  0.659600  1
  C  C1065  1  0.820800  0.200100  0.195300  1
  C  C1066  1  0.179200  0.700100  0.304700  1
  C  C1067  1  0.179200  0.799900  0.804700  1
  C  C1068  1  0.820800  0.299900  0.695300  1
  C  C1069  1  0.795100  0.203700  0.255800  1
  C  C1070  1  0.204900  0.703700  0.244200  1
  C  C1071  1  0.204900  0.796300  0.744200  1
  C  C1072  1  0.795100  0.296300  0.755800  1
  C  C1073  1  0.804100  0.164000  0.266700  1
  C  C1074  1  0.195900  0.664000  0.233300  1
  C  C1075  1  0.195900  0.836000  0.733300  1
  C  C1076  1  0.804100  0.336000  0.766700  1
  C  C1077  1  0.806900  0.156500  0.303400  1
  C  C1078  1  0.193100  0.656500  0.196600  1
  C  C1079  1  0.193100  0.843500  0.696600  1
  C  C1080  1  0.806900  0.343500  0.803400  1
  C  C1081  1  0.801900  0.188500  0.327100  1
  C  C1082  1  0.198100  0.688500  0.172900  1
  C  C1083  1  0.198100  0.811500  0.672900  1
  C  C1084  1  0.801900  0.311500  0.827100  1
  C  C1085  1  0.796400  0.227200  0.315600  1
  C  C1086  1  0.203600  0.727200  0.184400  1
  C  C1087  1  0.203600  0.772800  0.684400  1
  C  C1088  1  0.796400  0.272800  0.815600  1
  C  C1089  1  0.792000  0.234500  0.280700  1
  C  C1090  1  0.208000  0.734500  0.219300  1
  C  C1091  1  0.208000  0.765500  0.719300  1
  C  C1092  1  0.792000  0.265500  0.780700  1
  C  C1093  1  0.783400  0.208500  0.386300  1
  C  C1094  1  0.216600  0.708500  0.113700  1
  C  C1095  1  0.216600  0.791500  0.613700  1
  C  C1096  1  0.783400  0.291500  0.886300  1
  C  C1097  1  0.247100  0.299400  0.940900  1
  C  C1098  1  0.752900  0.799400  0.559100  1
  C  C1099  1  0.752900  0.700600  0.059100  1
  C  C1100  1  0.247100  0.200600  0.440900  1
  C  C1101  1  0.271100  0.265800  0.923900  1
  C  C1102  1  0.728900  0.765800  0.576100  1
  C  C1103  1  0.728900  0.734200  0.076100  1
  C  C1104  1  0.271100  0.234200  0.423900  1
  C  C1105  1  0.229900  0.245700  0.899000  1
  C  C1106  1  0.770100  0.745700  0.601000  1
  C  C1107  1  0.770100  0.754300  0.101000  1
  C  C1108  1  0.229900  0.254300  0.399000  1
  C  C1109  1  0.168100  0.260500  0.890400  1
  C  C1110  1  0.831900  0.760500  0.609600  1
  C  C1111  1  0.831900  0.739500  0.109600  1
  C  C1112  1  0.168100  0.239500  0.390400  1
  C  C1113  1  0.143700  0.295300  0.907300  1
  C  C1114  1  0.856300  0.795300  0.592700  1
  C  C1115  1  0.856300  0.704700  0.092700  1
  C  C1116  1  0.143700  0.204700  0.407300  1
  C  C1117  1  0.183800  0.314300  0.933200  1
  C  C1118  1  0.816200  0.814300  0.566800  1
  C  C1119  1  0.816200  0.685700  0.066800  1
  C  C1120  1  0.183800  0.185700  0.433200  1
  C  C1121  1  0.148200  0.211700  0.844500  1
  C  C1122  1  0.851800  0.711700  0.655500  1
  C  C1123  1  0.851800  0.788300  0.155500  1
  C  C1124  1  0.148200  0.288300  0.344500  1
  C  C1125  1  0.264300  0.336500  0.992600  1
  C  C1126  1  0.735700  0.836500  0.507400  1
  C  C1127  1  0.735700  0.663500  0.007400  1
  C  C1128  1  0.264300  0.163500  0.492600  1
  C  C1129  1  0.302200  0.362100  0.018200  1
  C  C1130  1  0.697800  0.862100  0.481800  1
  C  C1131  1  0.697800  0.637900  0.981800  1
  C  C1132  1  0.302200  0.137900  0.518200  1
  C  C1133  1  0.270500  0.376200  0.047900  1
  C  C1134  1  0.729500  0.876200  0.452100  1
  C  C1135  1  0.729500  0.623800  0.952100  1
  C  C1136  1  0.270500  0.123800  0.547900  1
  C  C1137  1  0.303700  0.402300  0.070400  1
  C  C1138  1  0.696300  0.902300  0.429600  1
  C  C1139  1  0.696300  0.597700  0.929600  1
  C  C1140  1  0.303700  0.097700  0.570400  1
  C  C1141  1  0.368100  0.414700  0.063800  1
  C  C1142  1  0.631900  0.914700  0.436200  1
  C  C1143  1  0.631900  0.585300  0.936200  1
  C  C1144  1  0.368100  0.085300  0.563800  1
  C  C1145  1  0.396800  0.398000  0.034100  1
  C  C1146  1  0.603200  0.898000  0.465900  1
  C  C1147  1  0.603200  0.602000  0.965900  1
  C  C1148  1  0.396800  0.102000  0.534100  1
  C  C1149  1  0.470400  0.446400  0.092000  1
  C  C1150  1  0.529600  0.946400  0.408000  1
  C  C1151  1  0.529600  0.553600  0.908000  1
  C  C1152  1  0.470400  0.053600  0.592000  1
  C  C1153  1  0.401400  0.444000  0.087100  1
  C  C1154  1  0.598600  0.944000  0.412900  1
  C  C1155  1  0.598600  0.556000  0.912900  1
  C  C1156  1  0.401400  0.056000  0.587100  1
  C  C1157  1  0.364100  0.471800  0.107500  1
  C  C1158  1  0.635900  0.971800  0.392500  1
  C  C1159  1  0.635900  0.528200  0.892500  1
  C  C1160  1  0.364100  0.028200  0.607500  1
  C  C1161  1  0.390700  0.498400  0.129900  1
  C  C1162  1  0.609300  0.998400  0.370100  1
  C  C1163  1  0.609300  0.501600  0.870100  1
  C  C1164  1  0.390700  0.001600  0.629900  1
  C  C1165  1  0.461800  0.500400  0.135600  1
  C  C1166  1  0.538200  0.000400  0.364400  1
  C  C1167  1  0.538200  0.499600  0.864400  1
  C  C1168  1  0.461800  0.999600  0.635600  1
  C  C1169  1  0.502000  0.473000  0.115400  1
  C  C1170  1  0.498000  0.973000  0.384600  1
  C  C1171  1  0.498000  0.527000  0.884600  1
  C  C1172  1  0.502000  0.027000  0.615400  1
  C  C1173  1  0.571700  0.474400  0.121300  1
  C  C1174  1  0.428300  0.974400  0.378700  1
  C  C1175  1  0.428300  0.525600  0.878700  1
  C  C1176  1  0.571700  0.025600  0.621300  1
  C  C1177  1  0.602500  0.500400  0.146000  1
  C  C1178  1  0.397500  0.000400  0.354000  1
  C  C1179  1  0.397500  0.499600  0.854000  1
  C  C1180  1  0.602500  0.999600  0.646000  1
  C  C1181  1  0.561600  0.528500  0.163700  1
  C  C1182  1  0.438400  0.028500  0.336300  1
  C  C1183  1  0.438400  0.471500  0.836300  1
  C  C1184  1  0.561600  0.971500  0.663700  1
  C  C1185  1  0.495300  0.527800  0.159000  1
  C  C1186  1  0.504700  0.027800  0.341000  1
  C  C1187  1  0.504700  0.472200  0.841000  1
  C  C1188  1  0.495300  0.972200  0.659000  1
  C  C1189  1  0.705500  0.460000  0.150800  1
  C  C1190  1  0.294500  0.960000  0.349200  1
  C  C1191  1  0.294500  0.540000  0.849200  1
  C  C1192  1  0.705500  0.040000  0.650800  1
  C  C1193  1  0.674200  0.497200  0.154200  1
  C  C1194  1  0.325800  0.997200  0.345800  1
  C  C1195  1  0.325800  0.502800  0.845800  1
  C  C1196  1  0.674200  0.002800  0.654200  1
  C  C1197  1  0.712300  0.528900  0.168500  1
  C  C1198  1  0.287700  0.028900  0.331500  1
  C  C1199  1  0.287700  0.471100  0.831500  1
  C  C1200  1  0.712300  0.971100  0.668500  1
  C  C1201  1  0.777200  0.521600  0.179000  1
  C  C1202  1  0.222800  0.021600  0.321000  1
  C  C1203  1  0.222800  0.478400  0.821000  1
  C  C1204  1  0.777200  0.978400  0.679000  1
  C  C1205  1  0.804700  0.483100  0.174900  1
  C  C1206  1  0.195300  0.983100  0.325100  1
  C  C1207  1  0.195300  0.516900  0.825100  1
  C  C1208  1  0.804700  0.016900  0.674900  1
  C  C1209  1  0.870400  0.472000  0.189000  1
  C  C1210  1  0.129600  0.972000  0.311000  1
  C  C1211  1  0.129600  0.528000  0.811000  1
  C  C1212  1  0.870400  0.028000  0.689000  1
  C  C1213  1  0.954000  0.422700  0.204300  1
  C  C1214  1  0.046000  0.922700  0.295700  1
  C  C1215  1  0.046000  0.577300  0.795700  1
  C  C1216  1  0.954000  0.077300  0.704300  1
  C  C1217  1  0.998400  0.398400  0.187000  1
  C  C1218  1  0.001600  0.898400  0.313000  1
  C  C1219  1  0.001600  0.601600  0.813000  1
  C  C1220  1  0.998400  0.101600  0.687000  1
  C  C1221  1  0.053300  0.382600  0.205300  1
  C  C1222  1  0.946700  0.882600  0.294700  1
  C  C1223  1  0.946700  0.617400  0.794700  1
  C  C1224  1  0.053300  0.117400  0.705300  1
  C  C1225  1  0.063900  0.391000  0.240900  1
  C  C1226  1  0.936100  0.891000  0.259100  1
  C  C1227  1  0.936100  0.609000  0.759100  1
  C  C1228  1  0.063900  0.109000  0.740900  1
  C  C1229  1  0.019500  0.415300  0.258200  1
  C  C1230  1  0.980500  0.915300  0.241800  1
  C  C1231  1  0.980500  0.584700  0.741800  1
  C  C1232  1  0.019500  0.084700  0.758200  1
  C  C1233  1  0.964600  0.431100  0.239900  1
  C  C1234  1  0.035400  0.931100  0.260100  1
  C  C1235  1  0.035400  0.568900  0.760100  1
  C  C1236  1  0.964600  0.068900  0.739900  1
  C  C1237  1  0.126700  0.380300  0.295600  1
  C  C1238  1  0.873300  0.880300  0.204400  1
  C  C1239  1  0.873300  0.619700  0.704400  1
  C  C1240  1  0.126700  0.119700  0.795600  1
  C  C1241  1  0.416700  0.302500  0.873500  1
  C  C1242  1  0.583300  0.802500  0.626500  1
  C  C1243  1  0.583300  0.697500  0.126500  1
  C  C1244  1  0.416700  0.197500  0.373500  1
  C  C1245  1  0.382300  0.273300  0.853100  1
  C  C1246  1  0.617700  0.773300  0.646900  1
  C  C1247  1  0.617700  0.726700  0.146900  1
  C  C1248  1  0.382300  0.226700  0.353100  1
  C  C1249  1  0.365100  0.281600  0.818900  1
  C  C1250  1  0.634900  0.781600  0.681100  1
  C  C1251  1  0.634900  0.718400  0.181100  1
  C  C1252  1  0.365100  0.218400  0.318900  1
  C  C1253  1  0.382600  0.318600  0.803800  1
  C  C1254  1  0.617400  0.818600  0.696200  1
  C  C1255  1  0.617400  0.681400  0.196200  1
  C  C1256  1  0.382600  0.181400  0.303800  1
  C  C1257  1  0.419200  0.346600  0.824100  1
  C  C1258  1  0.580800  0.846600  0.675900  1
  C  C1259  1  0.580800  0.653400  0.175900  1
  C  C1260  1  0.419200  0.153400  0.324100  1
  C  C1261  1  0.434600  0.338700  0.858600  1
  C  C1262  1  0.565400  0.838700  0.641400  1
  C  C1263  1  0.565400  0.661300  0.141400  1
  C  C1264  1  0.434600  0.161300  0.358600  1
  C  C1265  1  0.368800  0.363600  0.754500  1
  C  C1266  1  0.631200  0.863600  0.745500  1
  C  C1267  1  0.631200  0.636400  0.245500  1
  C  C1268  1  0.368800  0.136400  0.254500  1
  C  C1269  1  0.450800  0.261000  0.920400  1
  C  C1270  1  0.549200  0.761000  0.579600  1
  C  C1271  1  0.549200  0.739000  0.079600  1
  C  C1272  1  0.450800  0.239000  0.420400  1
  C  C1273  1  0.455300  0.248800  0.957600  1
  C  C1274  1  0.544700  0.748800  0.542400  1
  C  C1275  1  0.544700  0.751200  0.042400  1
  C  C1276  1  0.455300  0.251200  0.457600  1
  C  C1277  1  0.471500  0.209100  0.966500  1
  C  C1278  1  0.528500  0.709100  0.533500  1
  C  C1279  1  0.528500  0.790900  0.033500  1
  C  C1280  1  0.471500  0.290900  0.466500  1
  C  C1281  1  0.468300  0.197500  0.001500  1
  C  C1282  1  0.531700  0.697500  0.498500  1
  C  C1283  1  0.531700  0.802500  0.998500  1
  C  C1284  1  0.468300  0.302500  0.501500  1
  C  C1285  1  0.449500  0.225700  0.026700  1
  C  C1286  1  0.550500  0.725700  0.473300  1
  C  C1287  1  0.550500  0.774300  0.973300  1
  C  C1288  1  0.449500  0.274300  0.526700  1
  C  C1289  1  0.434600  0.264800  0.014700  1
  C  C1290  1  0.565400  0.764800  0.485300  1
  C  C1291  1  0.565400  0.735200  0.985300  1
  C  C1292  1  0.434600  0.235200  0.514700  1
  C  C1293  1  0.414700  0.165100  0.107000  1
  C  C1294  1  0.585300  0.665100  0.393000  1
  C  C1295  1  0.585300  0.834900  0.893000  1
  C  C1296  1  0.414700  0.334900  0.607000  1
  C  C1297  1  0.424000  0.174000  0.072300  1
  C  C1298  1  0.576000  0.674000  0.427700  1
  C  C1299  1  0.576000  0.826000  0.927700  1
  C  C1300  1  0.424000  0.326000  0.572300  1
  C  C1301  1  0.443200  0.214800  0.063600  1
  C  C1302  1  0.556800  0.714800  0.436400  1
  C  C1303  1  0.556800  0.785200  0.936400  1
  C  C1304  1  0.443200  0.285200  0.563600  1
  C  C1305  1  0.452200  0.242500  0.089600  1
  C  C1306  1  0.547800  0.742500  0.410400  1
  C  C1307  1  0.547800  0.757500  0.910400  1
  C  C1308  1  0.452200  0.257500  0.589600  1
  C  C1309  1  0.445000  0.232800  0.125600  1
  C  C1310  1  0.555000  0.732800  0.374400  1
  C  C1311  1  0.555000  0.767200  0.874400  1
  C  C1312  1  0.445000  0.267200  0.625600  1
  C  C1313  1  0.424500  0.193100  0.134000  1
  C  C1314  1  0.575500  0.693100  0.366000  1
  C  C1315  1  0.575500  0.806900  0.866000  1
  C  C1316  1  0.424500  0.306900  0.634000  1
  C  C1317  1  0.415000  0.183300  0.169700  1
  C  C1318  1  0.585000  0.683300  0.330300  1
  C  C1319  1  0.585000  0.816700  0.830300  1
  C  C1320  1  0.415000  0.316700  0.669700  1
  C  C1321  1  0.423000  0.212400  0.195200  1
  C  C1322  1  0.577000  0.712400  0.304800  1
  C  C1323  1  0.577000  0.787600  0.804800  1
  C  C1324  1  0.423000  0.287600  0.695200  1
  C  C1325  1  0.445600  0.252000  0.187000  1
  C  C1326  1  0.554400  0.752000  0.313000  1
  C  C1327  1  0.554400  0.748000  0.813000  1
  C  C1328  1  0.445600  0.248000  0.687000  1
  C  C1329  1  0.455200  0.261500  0.152200  1
  C  C1330  1  0.544800  0.761500  0.347800  1
  C  C1331  1  0.544800  0.738500  0.847800  1
  C  C1332  1  0.455200  0.238500  0.652200  1
  C  C1333  1  0.508600  0.309900  0.212700  1
  C  C1334  1  0.491400  0.809900  0.287300  1
  C  C1335  1  0.491400  0.690100  0.787300  1
  C  C1336  1  0.508600  0.190100  0.712700  1
  C  C1337  1  0.457300  0.282700  0.215300  1
  C  C1338  1  0.542700  0.782700  0.284700  1
  C  C1339  1  0.542700  0.717300  0.784700  1
  C  C1340  1  0.457300  0.217300  0.715300  1
  C  C1341  1  0.420100  0.284100  0.244900  1
  C  C1342  1  0.579900  0.784100  0.255100  1
  C  C1343  1  0.579900  0.715900  0.755100  1
  C  C1344  1  0.420100  0.215900  0.744900  1
  C  C1345  1  0.436200  0.312800  0.270900  1
  C  C1346  1  0.563800  0.812800  0.229100  1
  C  C1347  1  0.563800  0.687200  0.729100  1
  C  C1348  1  0.436200  0.187200  0.770900  1
  C  C1349  1  0.488600  0.338700  0.266400  1
  C  C1350  1  0.511400  0.838700  0.233600  1
  C  C1351  1  0.511400  0.661300  0.733600  1
  C  C1352  1  0.488600  0.161300  0.766400  1
  C  C1353  1  0.510200  0.367400  0.294400  1
  C  C1354  1  0.489800  0.867400  0.205600  1
  C  C1355  1  0.489800  0.632600  0.705600  1
  C  C1356  1  0.510200  0.132600  0.794400  1
  C  C1357  1  0.586600  0.411400  0.321500  1
  C  C1358  1  0.413400  0.911400  0.178500  1
  C  C1359  1  0.413400  0.588600  0.678500  1
  C  C1360  1  0.586600  0.088600  0.821500  1
  C  C1361  1  0.543400  0.429800  0.345100  1
  C  C1362  1  0.456600  0.929800  0.154900  1
  C  C1363  1  0.456600  0.570200  0.654900  1
  C  C1364  1  0.543400  0.070200  0.845100  1
  C  C1365  1  0.569000  0.450300  0.374500  1
  C  C1366  1  0.431000  0.950300  0.125500  1
  C  C1367  1  0.431000  0.549700  0.625500  1
  C  C1368  1  0.569000  0.049700  0.874500  1
  C  C1369  1  0.635800  0.452500  0.380400  1
  C  C1370  1  0.364200  0.952500  0.119600  1
  C  C1371  1  0.364200  0.547500  0.619600  1
  C  C1372  1  0.635800  0.047500  0.880400  1
  C  C1373  1  0.681600  0.435400  0.357100  1
  C  C1374  1  0.318400  0.935400  0.142900  1
  C  C1375  1  0.318400  0.564600  0.642900  1
  C  C1376  1  0.681600  0.064600  0.857100  1
  C  C1377  1  0.654200  0.415500  0.327500  1
  C  C1378  1  0.345800  0.915500  0.172500  1
  C  C1379  1  0.345800  0.584500  0.672500  1
  C  C1380  1  0.654200  0.084500  0.827500  1
  C  C1381  1  0.621400  0.484400  0.435900  1
  C  C1382  1  0.378600  0.984400  0.064100  1
  C  C1383  1  0.378600  0.515600  0.564100  1
  C  C1384  1  0.621400  0.015600  0.935900  1
  C  C1385  1  0.455900  0.429500  0.207500  1
  C  C1386  1  0.544100  0.929500  0.292500  1
  C  C1387  1  0.544100  0.570500  0.792500  1
  C  C1388  1  0.455900  0.070500  0.707500  1
  C  C1389  1  0.446400  0.400800  0.181300  1
  C  C1390  1  0.553600  0.900800  0.318700  1
  C  C1391  1  0.553600  0.599200  0.818700  1
  C  C1392  1  0.446400  0.099200  0.681300  1
  C  C1393  1  0.382600  0.392500  0.167600  1
  C  C1394  1  0.617400  0.892500  0.332400  1
  C  C1395  1  0.617400  0.607500  0.832400  1
  C  C1396  1  0.382600  0.107500  0.667600  1
  C  C1397  1  0.328500  0.413500  0.180600  1
  C  C1398  1  0.671500  0.913500  0.319400  1
  C  C1399  1  0.671500  0.586500  0.819400  1
  C  C1400  1  0.328500  0.086500  0.680600  1
  C  C1401  1  0.338700  0.441400  0.207400  1
  C  C1402  1  0.661300  0.941400  0.292600  1
  C  C1403  1  0.661300  0.558600  0.792600  1
  C  C1404  1  0.338700  0.058600  0.707400  1
  C  C1405  1  0.401400  0.449100  0.220700  1
  C  C1406  1  0.598600  0.949100  0.279300  1
  C  C1407  1  0.598600  0.550900  0.779300  1
  C  C1408  1  0.401400  0.050900  0.720700  1
  C  C1409  1  0.211200  0.425300  0.177000  1
  C  C1410  1  0.788800  0.925300  0.323000  1
  C  C1411  1  0.788800  0.574700  0.823000  1
  C  C1412  1  0.211200  0.074700  0.677000  1
  C  C1413  1  0.538400  0.472600  0.231200  1
  C  C1414  1  0.461600  0.972600  0.268800  1
  C  C1415  1  0.461600  0.527400  0.768800  1
  C  C1416  1  0.538400  0.027400  0.731200  1
  C  C1417  1  0.605700  0.482700  0.243800  1
  C  C1418  1  0.394300  0.982700  0.256200  1
  C  C1419  1  0.394300  0.517300  0.756200  1
  C  C1420  1  0.605700  0.017300  0.743800  1
  C  C1421  1  0.621600  0.522400  0.254600  1
  C  C1422  1  0.378400  0.022400  0.245400  1
  C  C1423  1  0.378400  0.477600  0.745400  1
  C  C1424  1  0.621600  0.977600  0.754600  1
  C  C1425  1  0.685100  0.530600  0.265500  1
  C  C1426  1  0.314900  0.030600  0.234500  1
  C  C1427  1  0.314900  0.469400  0.734500  1
  C  C1428  1  0.685100  0.969400  0.765500  1
  C  C1429  1  0.733800  0.501400  0.265800  1
  C  C1430  1  0.266200  0.001400  0.234200  1
  C  C1431  1  0.266200  0.498600  0.734200  1
  C  C1432  1  0.733800  0.998600  0.765800  1
  C  C1433  1  0.713600  0.462500  0.254800  1
  C  C1434  1  0.286400  0.962500  0.245200  1
  C  C1435  1  0.286400  0.537500  0.745200  1
  C  C1436  1  0.713600  0.037500  0.754800  1
  C  C1437  1  0.897800  0.555000  0.276200  1
  C  C1438  1  0.102200  0.055000  0.223800  1
  C  C1439  1  0.102200  0.445000  0.723800  1
  C  C1440  1  0.897800  0.945000  0.776200  1
  C  C1441  1  0.833600  0.546200  0.267700  1
  C  C1442  1  0.166400  0.046200  0.232300  1
  C  C1443  1  0.166400  0.453800  0.732300  1
  C  C1444  1  0.833600  0.953800  0.767700  1
  C  C1445  1  0.803100  0.510000  0.276900  1
  C  C1446  1  0.196900  0.010000  0.223100  1
  C  C1447  1  0.196900  0.490000  0.723100  1
  C  C1448  1  0.803100  0.990000  0.776900  1
  C  C1449  1  0.840400  0.483300  0.297500  1
  C  C1450  1  0.159600  0.983300  0.202500  1
  C  C1451  1  0.159600  0.516700  0.702500  1
  C  C1452  1  0.840400  0.016700  0.797500  1
  C  C1453  1  0.906100  0.491500  0.308100  1
  C  C1454  1  0.093900  0.991500  0.191900  1
  C  C1455  1  0.093900  0.508500  0.691900  1
  C  C1456  1  0.906100  0.008500  0.808100  1
  C  C1457  1  0.935100  0.527900  0.296600  1
  C  C1458  1  0.064900  0.027900  0.203400  1
  C  C1459  1  0.064900  0.472100  0.703400  1
  C  C1460  1  0.935100  0.972100  0.796600  1
  C  C1461  1  0.002600  0.535400  0.306900  1
  C  C1462  1  0.997400  0.035400  0.193100  1
  C  C1463  1  0.997400  0.464600  0.693100  1
  C  C1464  1  0.002600  0.964600  0.806900  1
  C  C1465  1  0.038700  0.508600  0.327500  1
  C  C1466  1  0.961300  0.008600  0.172500  1
  C  C1467  1  0.961300  0.491400  0.672500  1
  C  C1468  1  0.038700  0.991400  0.827500  1
  C  C1469  1  0.009300  0.472200  0.338600  1
  C  C1470  1  0.990700  0.972200  0.161400  1
  C  C1471  1  0.990700  0.527800  0.661400  1
  C  C1472  1  0.009300  0.027800  0.838600  1
  C  C1473  1  0.944600  0.464200  0.329300  1
  C  C1474  1  0.055400  0.964200  0.170700  1
  C  C1475  1  0.055400  0.535800  0.670700  1
  C  C1476  1  0.944600  0.035800  0.829300  1
  C  C1477  1  0.021600  0.413600  0.383000  1
  C  C1478  1  0.978400  0.913600  0.117000  1
  C  C1479  1  0.978400  0.586400  0.617000  1
  C  C1480  1  0.021600  0.086400  0.883000  1
  C  C1481  1  0.050600  0.442600  0.360000  1
  C  C1482  1  0.949400  0.942600  0.140000  1
  C  C1483  1  0.949400  0.557400  0.640000  1
  C  C1484  1  0.050600  0.057400  0.860000  1
  C  C1485  1  0.118500  0.442200  0.359000  1
  C  C1486  1  0.881500  0.942200  0.141000  1
  C  C1487  1  0.881500  0.557800  0.641000  1
  C  C1488  1  0.118500  0.057800  0.859000  1
  C  C1489  1  0.155000  0.413700  0.378700  1
  C  C1490  1  0.845000  0.913700  0.121300  1
  C  C1491  1  0.845000  0.586300  0.621300  1
  C  C1492  1  0.155000  0.086300  0.878700  1
  C  C1493  1  0.121300  0.386500  0.400000  1
  C  C1494  1  0.878700  0.886500  0.100000  1
  C  C1495  1  0.878700  0.613500  0.600000  1
  C  C1496  1  0.121300  0.113500  0.900000  1
  C  C1497  1  0.159500  0.358200  0.422400  1
  C  C1498  1  0.840500  0.858200  0.077600  1
  C  C1499  1  0.840500  0.641800  0.577600  1
  C  C1500  1  0.159500  0.141800  0.922400  1
  C  C1501  1  0.174400  0.312400  0.469000  1
  C  C1502  1  0.825600  0.812400  0.031000  1
  C  C1503  1  0.825600  0.687600  0.531000  1
  C  C1504  1  0.174400  0.187600  0.969000  1
  C  C1505  1  0.146800  0.278100  0.484600  1
  C  C1506  1  0.853200  0.778100  0.015400  1
  C  C1507  1  0.853200  0.721900  0.515400  1
  C  C1508  1  0.146800  0.221900  0.984600  1
  C  C1509  1  0.184600  0.256800  0.510400  1
  C  C1510  1  0.815400  0.756800  0.989600  1
  C  C1511  1  0.815400  0.743200  0.489600  1
  C  C1512  1  0.184600  0.243200  0.010400  1
  C  C1513  1  0.247500  0.268800  0.519700  1
  C  C1514  1  0.752500  0.768800  0.980300  1
  C  C1515  1  0.752500  0.731200  0.480300  1
  C  C1516  1  0.247500  0.231200  0.019700  1
  C  C1517  1  0.273700  0.303300  0.504600  1
  C  C1518  1  0.726300  0.803300  0.995400  1
  C  C1519  1  0.726300  0.696700  0.495400  1
  C  C1520  1  0.273700  0.196700  0.004600  1
  C  C1521  1  0.238500  0.324100  0.479000  1
  C  C1522  1  0.761500  0.824100  0.021000  1
  C  C1523  1  0.761500  0.675900  0.521000  1
  C  C1524  1  0.238500  0.175900  0.979000  1
  C  C1525  1  0.260400  0.230700  0.571500  1
  C  C1526  1  0.739600  0.730700  0.928500  1
  C  C1527  1  0.739600  0.769300  0.428500  1
  C  C1528  1  0.260400  0.269300  0.071500  1
  C  C1529  1  0.615600  0.194100  0.152700  1
  C  C1530  1  0.384400  0.694100  0.347300  1
  C  C1531  1  0.384400  0.805900  0.847300  1
  C  C1532  1  0.615600  0.305900  0.652700  1
  C  C1533  1  0.599300  0.153200  0.149200  1
  C  C1534  1  0.400700  0.653200  0.350800  1
  C  C1535  1  0.400700  0.846800  0.850800  1
  C  C1536  1  0.599300  0.346800  0.649200  1
  C  C1537  1  0.590600  0.135600  0.115600  1
  C  C1538  1  0.409400  0.635600  0.384400  1
  C  C1539  1  0.409400  0.864400  0.884400  1
  C  C1540  1  0.590600  0.364400  0.615600  1
  C  C1541  1  0.596800  0.158200  0.085800  1
  C  C1542  1  0.403200  0.658200  0.414200  1
  C  C1543  1  0.403200  0.841800  0.914200  1
  C  C1544  1  0.596800  0.341800  0.585800  1
  C  C1545  1  0.611000  0.198000  0.089400  1
  C  C1546  1  0.389000  0.698000  0.410600  1
  C  C1547  1  0.389000  0.802000  0.910600  1
  C  C1548  1  0.611000  0.302000  0.589400  1
  C  C1549  1  0.620500  0.216400  0.122000  1
  C  C1550  1  0.379500  0.716400  0.378000  1
  C  C1551  1  0.379500  0.783600  0.878000  1
  C  C1552  1  0.620500  0.283600  0.622000  1
  C  C1553  1  0.570700  0.101400  0.048300  1
  C  C1554  1  0.429300  0.601400  0.451700  1
  C  C1555  1  0.429300  0.898600  0.951700  1
  C  C1556  1  0.570700  0.398600  0.548300  1
  C  C1557  1  0.590300  0.201400  0.211000  1
  C  C1558  1  0.409700  0.701400  0.289000  1
  C  C1559  1  0.409700  0.798600  0.789000  1
  C  C1560  1  0.590300  0.298600  0.711000  1
  C  C1561  1  0.594100  0.221600  0.245100  1
  C  C1562  1  0.405900  0.721600  0.254900  1
  C  C1563  1  0.405900  0.778400  0.754900  1
  C  C1564  1  0.594100  0.278400  0.745100  1
  C  C1565  1  0.555200  0.209900  0.272600  1
  C  C1566  1  0.444800  0.709900  0.227400  1
  C  C1567  1  0.444800  0.790100  0.727400  1
  C  C1568  1  0.555200  0.290100  0.772600  1
  C  C1569  1  0.556000  0.232000  0.303200  1
  C  C1570  1  0.444000  0.732000  0.196800  1
  C  C1571  1  0.444000  0.768000  0.696800  1
  C  C1572  1  0.556000  0.268000  0.803200  1
  C  C1573  1  0.599600  0.264200  0.308000  1
  C  C1574  1  0.400400  0.764200  0.192000  1
  C  C1575  1  0.400400  0.735800  0.692000  1
  C  C1576  1  0.599600  0.235800  0.808000  1
  C  C1577  1  0.640500  0.272900  0.280000  1
  C  C1578  1  0.359500  0.772900  0.220000  1
  C  C1579  1  0.359500  0.727100  0.720000  1
  C  C1580  1  0.640500  0.227100  0.780000  1
  C  C1581  1  0.546300  0.326700  0.384400  1
  C  C1582  1  0.453700  0.826700  0.115600  1
  C  C1583  1  0.453700  0.673300  0.615600  1
  C  C1584  1  0.546300  0.173300  0.884400  1
  C  C1585  1  0.544500  0.301900  0.356000  1
  C  C1586  1  0.455500  0.801900  0.144000  1
  C  C1587  1  0.455500  0.698100  0.644000  1
  C  C1588  1  0.544500  0.198100  0.856000  1
  C  C1589  1  0.603500  0.289700  0.339700  1
  C  C1590  1  0.396500  0.789700  0.160300  1
  C  C1591  1  0.396500  0.710300  0.660300  1
  C  C1592  1  0.603500  0.210300  0.839700  1
  C  C1593  1  0.663300  0.304000  0.353700  1
  C  C1594  1  0.336700  0.804000  0.146300  1
  C  C1595  1  0.336700  0.696000  0.646300  1
  C  C1596  1  0.663300  0.196000  0.853700  1
  C  C1597  1  0.667600  0.329300  0.384000  1
  C  C1598  1  0.332400  0.829300  0.116000  1
  C  C1599  1  0.332400  0.670700  0.616000  1
  C  C1600  1  0.667600  0.170700  0.884000  1
  C  C1601  1  0.607500  0.341300  0.399400  1
  C  C1602  1  0.392500  0.841300  0.100600  1
  C  C1603  1  0.392500  0.658700  0.600600  1
  C  C1604  1  0.607500  0.158700  0.899400  1
  C  C1605  1  0.612100  0.366400  0.430000  1
  C  C1606  1  0.387900  0.866400  0.070000  1
  C  C1607  1  0.387900  0.633600  0.570000  1
  C  C1608  1  0.612100  0.133600  0.930000  1
  C  C1609  1  0.671400  0.379700  0.443400  1
  C  C1610  1  0.328600  0.879700  0.056600  1
  C  C1611  1  0.328600  0.620300  0.556600  1
  C  C1612  1  0.671400  0.120300  0.943400  1
  C  C1613  1  0.732100  0.369000  0.426800  1
  C  C1614  1  0.267900  0.869000  0.073200  1
  C  C1615  1  0.267900  0.631000  0.573200  1
  C  C1616  1  0.732100  0.131000  0.926800  1
  C  C1617  1  0.727900  0.343700  0.398000  1
  C  C1618  1  0.272100  0.843700  0.102000  1
  C  C1619  1  0.272100  0.656300  0.602000  1
  C  C1620  1  0.727900  0.156300  0.898000  1
  C  C1621  1  0.854600  0.364500  0.437100  1
  C  C1622  1  0.145400  0.864500  0.062900  1
  C  C1623  1  0.145400  0.635500  0.562900  1
  C  C1624  1  0.854600  0.135500  0.937100  1
  C  C1625  1  0.796100  0.385800  0.441100  1
  C  C1626  1  0.203900  0.885800  0.058900  1
  C  C1627  1  0.203900  0.614200  0.558900  1
  C  C1628  1  0.796100  0.114200  0.941100  1
  C  C1629  1  0.799600  0.423300  0.457400  1
  C  C1630  1  0.200400  0.923300  0.042600  1
  C  C1631  1  0.200400  0.576700  0.542600  1
  C  C1632  1  0.799600  0.076700  0.957400  1
  C  C1633  1  0.861700  0.437900  0.470100  1
  C  C1634  1  0.138300  0.937900  0.029900  1
  C  C1635  1  0.138300  0.562100  0.529900  1
  C  C1636  1  0.861700  0.062100  0.970100  1
  C  C1637  1  0.917700  0.414500  0.465100  1
  C  C1638  1  0.082300  0.914500  0.034900  1
  C  C1639  1  0.082300  0.585500  0.534900  1
  C  C1640  1  0.917700  0.085500  0.965100  1
  C  C1641  1  0.983500  0.427100  0.481300  1
  C  C1642  1  0.016500  0.927100  0.018700  1
  C  C1643  1  0.016500  0.572900  0.518700  1
  C  C1644  1  0.983500  0.072900  0.981300  1
  C  C1645  1  0.094600  0.412200  0.499400  1
  C  C1646  1  0.905400  0.912200  0.000600  1
  C  C1647  1  0.905400  0.587800  0.500600  1
  C  C1648  1  0.094600  0.087800  0.999400  1
  C  C1649  1  0.123800  0.385500  0.523000  1
  C  C1650  1  0.876200  0.885500  0.977000  1
  C  C1651  1  0.876200  0.614500  0.477000  1
  C  C1652  1  0.123800  0.114500  0.023000  1
  C  C1653  1  0.184500  0.394600  0.539100  1
  C  C1654  1  0.815500  0.894600  0.960900  1
  C  C1655  1  0.815500  0.605400  0.460900  1
  C  C1656  1  0.184500  0.105400  0.039100  1
  C  C1657  1  0.215500  0.431200  0.529700  1
  C  C1658  1  0.784500  0.931200  0.970300  1
  C  C1659  1  0.784500  0.568800  0.470300  1
  C  C1660  1  0.215500  0.068800  0.029700  1
  C  C1661  1  0.186800  0.456900  0.506000  1
  C  C1662  1  0.813200  0.956900  0.994000  1
  C  C1663  1  0.813200  0.543100  0.494000  1
  C  C1664  1  0.186800  0.043100  0.006000  1
  C  C1665  1  0.124100  0.448100  0.490400  1
  C  C1666  1  0.875900  0.948100  0.009600  1
  C  C1667  1  0.875900  0.551900  0.509600  1
  C  C1668  1  0.124100  0.051900  0.990400  1
  C  C1669  1  0.308900  0.414400  0.571200  1
  C  C1670  1  0.691100  0.914400  0.928800  1
  C  C1671  1  0.691100  0.585600  0.428800  1
  C  C1672  1  0.308900  0.085600  0.071200  1
  C  C1673  1  0.826900  0.411700  0.077100  1
  C  C1674  1  0.173100  0.911700  0.422900  1
  C  C1675  1  0.173100  0.588300  0.922900  1
  C  C1676  1  0.826900  0.088300  0.577100  1
  C  C1677  1  0.758700  0.414700  0.073800  1
  C  C1678  1  0.241300  0.914700  0.426200  1
  C  C1679  1  0.241300  0.585300  0.926200  1
  C  C1680  1  0.758700  0.085300  0.573800  1
  C  C1681  1  0.729400  0.437700  0.046700  1
  C  C1682  1  0.270600  0.937700  0.453300  1
  C  C1683  1  0.270600  0.562300  0.953300  1
  C  C1684  1  0.729400  0.062300  0.546700  1
  C  C1685  1  0.768300  0.457600  0.022900  1
  C  C1686  1  0.231700  0.957600  0.477100  1
  C  C1687  1  0.231700  0.542400  0.977100  1
  C  C1688  1  0.768300  0.042400  0.522900  1
  C  C1689  1  0.836500  0.454600  0.026200  1
  C  C1690  1  0.163500  0.954600  0.473800  1
  C  C1691  1  0.163500  0.545400  0.973800  1
  C  C1692  1  0.836500  0.045400  0.526200  1
  C  C1693  1  0.865800  0.431600  0.053300  1
  C  C1694  1  0.134200  0.931600  0.446700  1
  C  C1695  1  0.134200  0.568400  0.946700  1
  C  C1696  1  0.865800  0.068400  0.553300  1
  C  C1697  1  0.775900  0.500600  0.973000  1
  C  C1698  1  0.224100  0.000600  0.527000  1
  C  C1699  1  0.224100  0.499400  0.027000  1
  C  C1700  1  0.775900  0.999400  0.473000  1
  C  C1701  1  0.904500  0.363700  0.104000  1
  C  C1702  1  0.095500  0.863700  0.396000  1
  C  C1703  1  0.095500  0.636300  0.896000  1
  C  C1704  1  0.904500  0.136300  0.604000  1
  C  C1705  1  0.926200  0.335200  0.132200  1
  C  C1706  1  0.073800  0.835200  0.367800  1
  C  C1707  1  0.073800  0.664800  0.867800  1
  C  C1708  1  0.926200  0.164800  0.632200  1
  C  C1709  1  0.980200  0.309800  0.128200  1
  C  C1710  1  0.019800  0.809800  0.371800  1
  C  C1711  1  0.019800  0.690200  0.871800  1
  C  C1712  1  0.980200  0.190200  0.628200  1
  C  C1713  1  0.997600  0.281600  0.154200  1
  C  C1714  1  0.002400  0.781600  0.345800  1
  C  C1715  1  0.002400  0.718400  0.845800  1
  C  C1716  1  0.997600  0.218400  0.654200  1
  C  C1717  1  0.961100  0.281200  0.184500  1
  C  C1718  1  0.038900  0.781200  0.315500  1
  C  C1719  1  0.038900  0.718800  0.815500  1
  C  C1720  1  0.961100  0.218800  0.684500  1
  C  C1721  1  0.908900  0.308400  0.186700  1
  C  C1722  1  0.091100  0.808400  0.313300  1
  C  C1723  1  0.091100  0.691600  0.813300  1
  C  C1724  1  0.908900  0.191600  0.686700  1
  C  C1725  1  0.005100  0.184100  0.232400  1
  C  C1726  1  0.994900  0.684100  0.267600  1
  C  C1727  1  0.994900  0.815900  0.767600  1
  C  C1728  1  0.005100  0.315900  0.732400  1
  C  C1729  1  0.995800  0.211100  0.206600  1
  C  C1730  1  0.004200  0.711100  0.293400  1
  C  C1731  1  0.004200  0.788900  0.793400  1
  C  C1732  1  0.995800  0.288900  0.706600  1
  C  C1733  1  0.976000  0.251600  0.213900  1
  C  C1734  1  0.024000  0.751600  0.286100  1
  C  C1735  1  0.024000  0.748400  0.786100  1
  C  C1736  1  0.976000  0.248400  0.713900  1
  C  C1737  1  0.968800  0.262700  0.248200  1
  C  C1738  1  0.031200  0.762700  0.251800  1
  C  C1739  1  0.031200  0.737300  0.751800  1
  C  C1740  1  0.968800  0.237300  0.748200  1
  C  C1741  1  0.979700  0.235000  0.276000  1
  C  C1742  1  0.020300  0.735000  0.224000  1
  C  C1743  1  0.020300  0.765000  0.724000  1
  C  C1744  1  0.979700  0.265000  0.776000  1
  C  C1745  1  0.997700  0.194000  0.268100  1
  C  C1746  1  0.002300  0.694000  0.231900  1
  C  C1747  1  0.002300  0.806000  0.731900  1
  C  C1748  1  0.997700  0.306000  0.768100  1
  C  C1749  1  0.005300  0.166500  0.295900  1
  C  C1750  1  0.994700  0.666500  0.204100  1
  C  C1751  1  0.994700  0.833500  0.704100  1
  C  C1752  1  0.005300  0.333500  0.795900  1
  C  C1753  1  0.997300  0.177600  0.329700  1
  C  C1754  1  0.002700  0.677600  0.170300  1
  C  C1755  1  0.002700  0.822400  0.670300  1
  C  C1756  1  0.997300  0.322400  0.829700  1
  C  C1757  1  0.981300  0.219200  0.338300  1
  C  C1758  1  0.018700  0.719200  0.161700  1
  C  C1759  1  0.018700  0.780800  0.661700  1
  C  C1760  1  0.981300  0.280800  0.838300  1
  C  C1761  1  0.972700  0.246300  0.311400  1
  C  C1762  1  0.027300  0.746300  0.188600  1
  C  C1763  1  0.027300  0.753700  0.688600  1
  C  C1764  1  0.972700  0.253700  0.811400  1
  C  C1765  1  0.987000  0.269700  0.387500  1
  C  C1766  1  0.013000  0.769700  0.112500  1
  C  C1767  1  0.013000  0.730300  0.612500  1
  C  C1768  1  0.987000  0.230300  0.887500  1
  C  C1769  1  0.972000  0.230600  0.375100  1
  C  C1770  1  0.028000  0.730600  0.124900  1
  C  C1771  1  0.028000  0.769400  0.624900  1
  C  C1772  1  0.972000  0.269400  0.875100  1
  C  C1773  1  0.949600  0.203300  0.399500  1
  C  C1774  1  0.050400  0.703300  0.100500  1
  C  C1775  1  0.050400  0.796700  0.600500  1
  C  C1776  1  0.949600  0.296700  0.899500  1
  C  C1777  1  0.943000  0.214600  0.433700  1
  C  C1778  1  0.057000  0.714600  0.066300  1
  C  C1779  1  0.057000  0.785400  0.566300  1
  C  C1780  1  0.943000  0.285400  0.933700  1
  C  C1781  1  0.962100  0.253700  0.444200  1
  C  C1782  1  0.037900  0.753700  0.055800  1
  C  C1783  1  0.037900  0.746300  0.555800  1
  C  C1784  1  0.962100  0.246300  0.944200  1
  C  C1785  1  0.961500  0.265600  0.481200  1
  C  C1786  1  0.038500  0.765600  0.018800  1
  C  C1787  1  0.038500  0.734400  0.518800  1
  C  C1788  1  0.961500  0.234400  0.981200  1
  C  C1789  1  0.988700  0.308800  0.528200  1
  C  C1790  1  0.011300  0.808800  0.971800  1
  C  C1791  1  0.011300  0.691200  0.471800  1
  C  C1792  1  0.988700  0.191200  0.028200  1
  C  C1793  1  0.026300  0.282100  0.550600  1
  C  C1794  1  0.973700  0.782100  0.949400  1
  C  C1795  1  0.973700  0.717900  0.449400  1
  C  C1796  1  0.026300  0.217900  0.050600  1
  C  C1797  1  0.041100  0.293400  0.584600  1
  C  C1798  1  0.958900  0.793400  0.915400  1
  C  C1799  1  0.958900  0.706600  0.415400  1
  C  C1800  1  0.041100  0.206600  0.084600  1
  C  C1801  1  0.016700  0.329700  0.597900  1
  C  C1802  1  0.983300  0.829700  0.902100  1
  C  C1803  1  0.983300  0.670300  0.402100  1
  C  C1804  1  0.016700  0.170300  0.097900  1
  C  C1805  1  0.977600  0.354700  0.576900  1
  C  C1806  1  0.022400  0.854700  0.923100  1
  C  C1807  1  0.022400  0.645300  0.423100  1
  C  C1808  1  0.977600  0.145300  0.076900  1
  C  C1809  1  0.965000  0.344300  0.541400  1
  C  C1810  1  0.035000  0.844300  0.958600  1
  C  C1811  1  0.035000  0.655700  0.458600  1
  C  C1812  1  0.965000  0.155700  0.041400  1
  C  C1813  1  0.023200  0.378200  0.644700  1
  C  C1814  1  0.976800  0.878200  0.855300  1
  C  C1815  1  0.976800  0.621800  0.355300  1
  C  C1816  1  0.023200  0.121800  0.144700  1
  C  C1817  1  0.733500  0.349300  0.217400  1
  C  C1818  1  0.266500  0.849300  0.282600  1
  C  C1819  1  0.266500  0.650700  0.782600  1
  C  C1820  1  0.733500  0.150700  0.717400  1
  C  C1821  1  0.589100  0.348000  0.105700  1
  C  C1822  1  0.410900  0.848000  0.394300  1
  C  C1823  1  0.410900  0.652000  0.894300  1
  C  C1824  1  0.589100  0.152000  0.605700  1
  C  C1825  1  0.031300  0.529000  0.202200  1
  C  C1826  1  0.968700  0.029000  0.297800  1
  C  C1827  1  0.968700  0.471000  0.797800  1
  C  C1828  1  0.031300  0.971000  0.702200  1
  C  C1829  1  0.075300  0.495100  0.191100  1
  C  C1830  1  0.924700  0.995100  0.308900  1
  C  C1831  1  0.924700  0.504900  0.808900  1
  C  C1832  1  0.075300  0.004900  0.691100  1
  C  C1833  1  0.364700  0.389900  0.399900  1
  C  C1834  1  0.635300  0.889900  0.100100  1
  C  C1835  1  0.635300  0.610100  0.600100  1
  C  C1836  1  0.364700  0.110100  0.899900  1
  C  C1837  1  0.365300  0.592000  0.243400  1
  C  C1838  1  0.634700  0.092000  0.256600  1
  C  C1839  1  0.634700  0.408000  0.756600  1
  C  C1840  1  0.365300  0.908000  0.743400  1
  C  C1841  1  0.247900  0.603800  0.364100  1
  C  C1842  1  0.752100  0.103800  0.135900  1
  C  C1843  1  0.752100  0.396200  0.635900  1
  C  C1844  1  0.247900  0.896200  0.864100  1
  C  C1845  1  0.036000  0.115200  0.486300  1
  C  C1846  1  0.964000  0.615200  0.013700  1
  C  C1847  1  0.964000  0.884800  0.513700  1
  C  C1848  1  0.036000  0.384800  0.986300  1
  C  C1849  1  0.133200  0.563500  0.109100  1
  C  C1850  1  0.866800  0.063500  0.390900  1
  C  C1851  1  0.866800  0.436500  0.890900  1
  C  C1852  1  0.133200  0.936500  0.609100  1
  C  C1853  1  0.838400  0.352900  0.299000  1
  C  C1854  1  0.161600  0.852900  0.201000  1
  C  C1855  1  0.161600  0.647100  0.701000  1
  C  C1856  1  0.838400  0.147100  0.799000  1
  C  C1857  1  0.613400  0.168700  0.375100  1
  C  C1858  1  0.386600  0.668700  0.124900  1
  C  C1859  1  0.386600  0.831300  0.624900  1
  C  C1860  1  0.613400  0.331300  0.875100  1
  C  C1861  1  0.637000  0.137800  0.353200  1
  C  C1862  1  0.363000  0.637800  0.146800  1
  C  C1863  1  0.363000  0.862200  0.646800  1
  C  C1864  1  0.637000  0.362200  0.853200  1
  C  C1865  1  0.101000  0.488500  0.590000  1
  C  C1866  1  0.899000  0.988500  0.910000  1
  C  C1867  1  0.899000  0.511500  0.410000  1
  C  C1868  1  0.101000  0.011500  0.090000  1
  C  C1869  1  0.171600  0.493500  0.608300  1
  C  C1870  1  0.828400  0.993500  0.891700  1
  C  C1871  1  0.828400  0.506500  0.391700  1
  C  C1872  1  0.171600  0.006500  0.108300  1
  C  C1873  1  0.202600  0.155200  0.293000  1
  C  C1874  1  0.797400  0.655200  0.207000  1
  C  C1875  1  0.797400  0.844800  0.707000  1
  C  C1876  1  0.202600  0.344800  0.793000  1
  C  C1877  1  0.180100  0.196900  0.296100  1
  C  C1878  1  0.819900  0.696900  0.203900  1
  C  C1879  1  0.819900  0.803100  0.703900  1
  C  C1880  1  0.180100  0.303100  0.796100  1
  C  C1881  1  0.635300  0.251400  0.484000  1
  C  C1882  1  0.364700  0.751400  0.016000  1
  C  C1883  1  0.364700  0.748600  0.516000  1
  C  C1884  1  0.635300  0.248600  0.984000  1
  C  C1885  1  0.677800  0.254600  0.454900  1
  C  C1886  1  0.322200  0.754600  0.045100  1
  C  C1887  1  0.322200  0.745400  0.545100  1
  C  C1888  1  0.677800  0.245400  0.954900  1
  C  C1889  1  0.792100  0.314200  0.514600  1
  C  C1890  1  0.207900  0.814200  0.985400  1
  C  C1891  1  0.207900  0.685800  0.485400  1
  C  C1892  1  0.792100  0.185800  0.014600  1
  C  C1893  1  0.759600  0.341700  0.537200  1
  C  C1894  1  0.240400  0.841700  0.962800  1
  C  C1895  1  0.240400  0.658300  0.462800  1
  C  C1896  1  0.759600  0.158300  0.037200  1
  C  C1897  1  0.063100  0.437900  0.098300  1
  C  C1898  1  0.936900  0.937900  0.401700  1
  C  C1899  1  0.936900  0.562100  0.901700  1
  C  C1900  1  0.063100  0.062100  0.598300  1
  C  C1901  1  0.120000  0.434300  0.082100  1
  C  C1902  1  0.880000  0.934300  0.417900  1
  C  C1903  1  0.880000  0.565700  0.917900  1
  C  C1904  1  0.120000  0.065700  0.582100  1
  C  C1905  1  0.272400  0.326300  0.272900  1
  C  C1906  1  0.727600  0.826300  0.227100  1
  C  C1907  1  0.727600  0.673700  0.727100  1
  C  C1908  1  0.272400  0.173700  0.772900  1
  C  C1909  1  0.284000  0.373100  0.280000  1
  C  C1910  1  0.716000  0.873100  0.220000  1
  C  C1911  1  0.716000  0.626900  0.720000  1
  C  C1912  1  0.284000  0.126900  0.780000  1
  C  C1913  1  0.346800  0.497400  0.327100  1
  C  C1914  1  0.653200  0.997400  0.172900  1
  C  C1915  1  0.653200  0.502600  0.672900  1
  C  C1916  1  0.346800  0.002600  0.827100  1
  C  C1917  1  0.387700  0.510700  0.357300  1
  C  C1918  1  0.612300  0.010700  0.142700  1
  C  C1919  1  0.612300  0.489300  0.642700  1
  C  C1920  1  0.387700  0.989300  0.857300  1
  C  C1921  1  0.264600  0.530300  0.453800  1
  C  C1922  1  0.735400  0.030300  0.046200  1
  C  C1923  1  0.735400  0.469700  0.546200  1
  C  C1924  1  0.264600  0.969700  0.953800  1
  C  C1925  1  0.240400  0.497800  0.423400  1
  C  C1926  1  0.759600  0.997800  0.076600  1
  C  C1927  1  0.759600  0.502200  0.576600  1
  C  C1928  1  0.240400  0.002200  0.923400  1
  C  C1929  1  0.190000  0.504800  0.262400  1
  C  C1930  1  0.810000  0.004800  0.237600  1
  C  C1931  1  0.810000  0.495200  0.737600  1
  C  C1932  1  0.190000  0.995200  0.762400  1
  C  C1933  1  0.173500  0.547600  0.255100  1
  C  C1934  1  0.826500  0.047600  0.244900  1
  C  C1935  1  0.826500  0.452400  0.744900  1
  C  C1936  1  0.173500  0.952400  0.755100  1
  C  C1937  1  0.618300  0.570800  0.338900  1
  C  C1938  1  0.381700  0.070800  0.161100  1
  C  C1939  1  0.381700  0.429200  0.661100  1
  C  C1940  1  0.618300  0.929200  0.838900  1
  C  C1941  1  0.555400  0.555100  0.343000  1
  C  C1942  1  0.444600  0.055100  0.157000  1
  C  C1943  1  0.444600  0.444900  0.657000  1
  C  C1944  1  0.555400  0.944900  0.843000  1
  C  C1945  1  0.084800  0.421700  0.862700  1
  C  C1946  1  0.915200  0.921700  0.637300  1
  C  C1947  1  0.915200  0.578300  0.137300  1
  C  C1948  1  0.084800  0.078300  0.362700  1
  C  C1949  1  0.949200  0.430400  0.209300  1
  C  C1950  1  0.050800  0.930400  0.290700  1
  C  C1951  1  0.050800  0.569600  0.790700  1
  C  C1952  1  0.949200  0.069600  0.709300  1
  C  C1953  1  0.005700  0.454200  0.208200  1
  C  C1954  1  0.994300  0.954200  0.291800  1
  C  C1955  1  0.994300  0.545800  0.791800  1
  C  C1956  1  0.005700  0.045800  0.708200  1
  C  C1957  1  0.061600  0.443700  0.228600  1
  C  C1958  1  0.938400  0.943700  0.271400  1
  C  C1959  1  0.938400  0.556300  0.771400  1
  C  C1960  1  0.061600  0.056300  0.728600  1
  C  C1961  1  0.060900  0.409500  0.250100  1
  C  C1962  1  0.939100  0.909500  0.249900  1
  C  C1963  1  0.939100  0.590500  0.749900  1
  C  C1964  1  0.060900  0.090500  0.750100  1
  C  C1965  1  0.004400  0.385700  0.251200  1
  C  C1966  1  0.995600  0.885700  0.248800  1
  C  C1967  1  0.995600  0.614300  0.748800  1
  C  C1968  1  0.004400  0.114300  0.751200  1
  C  C1969  1  0.948500  0.396200  0.230800  1
  C  C1970  1  0.051500  0.896200  0.269200  1
  C  C1971  1  0.051500  0.603800  0.769200  1
  C  C1972  1  0.948500  0.103800  0.730800  1
  C  C1973  1  0.114000  0.359400  0.287000  1
  C  C1974  1  0.886000  0.859400  0.213000  1
  C  C1975  1  0.886000  0.640600  0.713000  1
  C  C1976  1  0.114000  0.140600  0.787000  1
  C  C1977  1  0.331000  0.412300  0.551000  1
  C  C1978  1  0.669000  0.912300  0.949000  1
  C  C1979  1  0.669000  0.587700  0.449000  1
  C  C1980  1  0.331000  0.087700  0.051000  1
  C  C1981  1  0.756200  0.441400  0.040000  1
  C  C1982  1  0.243800  0.941400  0.460000  1
  C  C1983  1  0.243800  0.558600  0.960000  1
  C  C1984  1  0.756200  0.058600  0.540000  1
  C  C1985  1  0.805800  0.457200  0.019900  1
  C  C1986  1  0.194200  0.957200  0.480100  1
  C  C1987  1  0.194200  0.542800  0.980100  1
  C  C1988  1  0.805800  0.042800  0.519900  1
  C  C1989  1  0.871500  0.449000  0.029100  1
  C  C1990  1  0.128500  0.949000  0.470900  1
  C  C1991  1  0.128500  0.551000  0.970900  1
  C  C1992  1  0.871500  0.051000  0.529100  1
  C  C1993  1  0.887500  0.425000  0.058400  1
  C  C1994  1  0.112500  0.925000  0.441600  1
  C  C1995  1  0.112500  0.575000  0.941600  1
  C  C1996  1  0.887500  0.075000  0.558400  1
  C  C1997  1  0.837900  0.409300  0.078500  1
  C  C1998  1  0.162100  0.909300  0.421500  1
  C  C1999  1  0.162100  0.590700  0.921500  1
  C  C2000  1  0.837900  0.090700  0.578500  1
  C  C2001  1  0.772300  0.417500  0.069300  1
  C  C2002  1  0.227700  0.917500  0.430700  1
  C  C2003  1  0.227700  0.582500  0.930700  1
  C  C2004  1  0.772300  0.082500  0.569300  1
  C  C2005  1  0.731800  0.491100  0.979700  1
  C  C2006  1  0.268200  0.991100  0.520300  1
  C  C2007  1  0.268200  0.508900  0.020300  1
  C  C2008  1  0.731800  0.008900  0.479700  1
  C  C2009  1  0.123000  0.470000  0.601300  1
  C  C2010  1  0.877000  0.970000  0.898700  1
  C  C2011  1  0.877000  0.530000  0.398700  1
  C  C2012  1  0.123000  0.030000  0.101300  1
  C  C2013  1  0.195000  0.462000  0.618100  1
  C  C2014  1  0.805000  0.962000  0.881900  1
  C  C2015  1  0.805000  0.538000  0.381900  1
  C  C2016  1  0.195000  0.038000  0.118100  1
  C  C2017  1  0.157000  0.320000  0.128100  1
  C  C2018  1  0.843000  0.820000  0.371900  1
  C  C2019  1  0.843000  0.680000  0.871900  1
  C  C2020  1  0.157000  0.180000  0.628100  1
  C  C2021  1  0.134000  0.353000  0.111200  1
  C  C2022  1  0.866000  0.853000  0.388800  1
  C  C2023  1  0.866000  0.647000  0.888800  1
  C  C2024  1  0.134000  0.147000  0.611200  1
  C  C2025  1  0.289700  0.369900  0.261900  1
  C  C2026  1  0.710300  0.869900  0.238100  1
  C  C2027  1  0.710300  0.630100  0.738100  1
  C  C2028  1  0.289700  0.130100  0.761900  1
  C  C2029  1  0.542400  0.012200  0.505280  0.5
  S  S2030  1  0.542400  0.012200  0.505280  0.5
  C  C2031  1  0.457600  0.512200  0.994720  0.5
  S  S2032  1  0.457600  0.512200  0.994720  0.5
  C  C2033  1  0.457600  0.987800  0.494720  0.5
  S  S2034  1  0.457600  0.987800  0.494720  0.5
  C  C2035  1  0.542400  0.487800  0.005280  0.5
  S  S2036  1  0.542400  0.487800  0.005280  0.5
  S  S2037  1  0.638960  0.348510  0.146060  1
  S  S2038  1  0.361040  0.848510  0.353940  1
  S  S2039  1  0.361040  0.651490  0.853940  1
  S  S2040  1  0.638960  0.151490  0.646060  1
  S  S2041  1  0.347940  0.351680  0.371210  1
  S  S2042  1  0.652060  0.851680  0.128790  1
  S  S2043  1  0.652060  0.648320  0.628790  1
  S  S2044  1  0.347940  0.148320  0.871210  1
  S  S2045  1  0.447480  0.582850  0.253370  1
  S  S2046  1  0.552520  0.082850  0.246630  1
  S  S2047  1  0.552520  0.417150  0.746630  1
  S  S2048  1  0.447480  0.917150  0.753370  1
  S  S2049  1  0.173300  0.581630  0.358780  1
  S  S2050  1  0.826700  0.081630  0.141220  1
  S  S2051  1  0.826700  0.418370  0.641220  1
  S  S2052  1  0.173300  0.918370  0.858780  1
  S  S2053  1  0.057170  0.153690  0.518300  1
  S  S2054  1  0.942830  0.653690  0.981700  1
  S  S2055  1  0.942830  0.846310  0.481700  1
  S  S2056  1  0.057170  0.346310  0.018300  1
  S  S2057  1  0.209350  0.544830  0.129110  1
  S  S2058  1  0.790650  0.044830  0.370890  1
  S  S2059  1  0.790650  0.455170  0.870890  1
  S  S2060  1  0.209350  0.955170  0.629110  1
  S  S2061  1  0.883080  0.350090  0.340940  1
  S  S2062  1  0.116920  0.850090  0.159060  1
  S  S2063  1  0.116920  0.649910  0.659060  1
  S  S2064  1  0.883080  0.149910  0.840940  1
  N  N2065  1  0.381900  0.397600  0.926650  1
  N  N2066  1  0.618100  0.897600  0.573350  1
  N  N2067  1  0.618100  0.602400  0.073350  1
  N  N2068  1  0.381900  0.102400  0.426650  1
  N  N2069  1  0.501300  0.372100  0.956340  1
  N  N2070  1  0.498700  0.872100  0.543660  1
  N  N2071  1  0.498700  0.627900  0.043660  1
  N  N2072  1  0.501300  0.127900  0.456340  1
  N  N2073  1  0.771100  0.246400  0.153900  1
  N  N2074  1  0.228900  0.746400  0.346100  1
  N  N2075  1  0.228900  0.753600  0.846100  1
  N  N2076  1  0.771100  0.253600  0.653900  1
  N  N2077  1  0.787800  0.215500  0.219800  1
  N  N2078  1  0.212200  0.715500  0.280200  1
  N  N2079  1  0.212200  0.784500  0.780200  1
  N  N2080  1  0.787800  0.284500  0.719800  1
  N  N2081  1  0.290600  0.321300  0.965600  1
  N  N2082  1  0.709400  0.821300  0.534400  1
  N  N2083  1  0.709400  0.678700  0.034400  1
  N  N2084  1  0.290600  0.178700  0.465600  1
  N  N2085  1  0.364500  0.372000  0.012120  1
  N  N2086  1  0.635500  0.872000  0.487880  1
  N  N2087  1  0.635500  0.628000  0.987880  1
  N  N2088  1  0.364500  0.128000  0.512120  1
  N  N2089  1  0.767700  0.452300  0.160100  1
  N  N2090  1  0.232300  0.952300  0.339900  1
  N  N2091  1  0.232300  0.547700  0.839900  1
  N  N2092  1  0.767700  0.047700  0.660100  1
  N  N2093  1  0.892600  0.436300  0.188400  1
  N  N2094  1  0.107400  0.936300  0.311600  1
  N  N2095  1  0.107400  0.563700  0.811600  1
  N  N2096  1  0.892600  0.063700  0.688400  1
  N  N2097  1  0.429100  0.295400  0.910300  1
  N  N2098  1  0.570900  0.795400  0.589700  1
  N  N2099  1  0.570900  0.704600  0.089700  1
  N  N2100  1  0.429100  0.204600  0.410300  1
  N  N2101  1  0.437500  0.276600  0.981540  1
  N  N2102  1  0.562500  0.776600  0.518460  1
  N  N2103  1  0.562500  0.723400  0.018460  1
  N  N2104  1  0.437500  0.223400  0.481540  1
  N  N2105  1  0.524200  0.338500  0.237170  1
  N  N2106  1  0.475800  0.838500  0.262830  1
  N  N2107  1  0.475800  0.661500  0.762830  1
  N  N2108  1  0.524200  0.161500  0.737170  1
  N  N2109  1  0.563400  0.387800  0.292280  1
  N  N2110  1  0.436600  0.887800  0.207720  1
  N  N2111  1  0.436600  0.612200  0.707720  1
  N  N2112  1  0.563400  0.112200  0.792280  1
  N  N2113  1  0.522300  0.437100  0.219820  1
  N  N2114  1  0.477700  0.937100  0.280180  1
  N  N2115  1  0.477700  0.562900  0.780180  1
  N  N2116  1  0.522300  0.062900  0.719820  1
  N  N2117  1  0.652000  0.453200  0.244290  1
  N  N2118  1  0.348000  0.953200  0.255710  1
  N  N2119  1  0.348000  0.546800  0.755710  1
  N  N2120  1  0.652000  0.046800  0.744290  1
  N  N2121  1  0.055300  0.387100  0.402100  1
  N  N2122  1  0.944700  0.887100  0.097900  1
  N  N2123  1  0.944700  0.612900  0.597900  1
  N  N2124  1  0.055300  0.112900  0.902100  1
  N  N2125  1  0.134000  0.335200  0.445100  1
  N  N2126  1  0.866000  0.835200  0.054900  1
  N  N2127  1  0.866000  0.664800  0.554900  1
  N  N2128  1  0.134000  0.164800  0.945100  1
  N  N2129  1  0.623000  0.213700  0.185300  1
  N  N2130  1  0.377000  0.713700  0.314700  1
  N  N2131  1  0.377000  0.786300  0.814700  1
  N  N2132  1  0.623000  0.286300  0.685300  1
  N  N2133  1  0.638600  0.252700  0.249660  1
  N  N2134  1  0.361400  0.752700  0.250340  1
  N  N2135  1  0.361400  0.747300  0.750340  1
  N  N2136  1  0.638600  0.247300  0.749660  1
  N  N2137  1  0.913700  0.378500  0.448100  1
  N  N2138  1  0.086300  0.878500  0.051900  1
  N  N2139  1  0.086300  0.621500  0.551900  1
  N  N2140  1  0.913700  0.121500  0.948100  1
  N  N2141  1  0.031400  0.401500  0.483300  1
  N  N2142  1  0.968600  0.901500  0.016700  1
  N  N2143  1  0.968600  0.598500  0.516700  1
  N  N2144  1  0.031400  0.098500  0.983300  1
  N  N2145  1  0.852700  0.385700  0.107000  1
  N  N2146  1  0.147300  0.885700  0.393000  1
  N  N2147  1  0.147300  0.614300  0.893000  1
  N  N2148  1  0.852700  0.114300  0.607000  1
  N  N2149  1  0.891700  0.335100  0.161500  1
  N  N2150  1  0.108300  0.835100  0.338500  1
  N  N2151  1  0.108300  0.664900  0.838500  1
  N  N2152  1  0.891700  0.164900  0.661500  1
  N  N2153  1  0.983500  0.281800  0.420900  1
  N  N2154  1  0.016500  0.781800  0.079100  1
  N  N2155  1  0.016500  0.718200  0.579100  1
  N  N2156  1  0.983500  0.218200  0.920900  1
  N  N2157  1  0.983400  0.300000  0.491800  1
  N  N2158  1  0.016600  0.800000  0.008200  1
  N  N2159  1  0.016600  0.700000  0.508200  1
  N  N2160  1  0.983400  0.200000  0.991800  1
  N  N2161  1  0.000200  0.556000  0.209400  1
  N  N2162  1  0.999800  0.056000  0.290600  1
  N  N2163  1  0.999800  0.444000  0.790600  1
  N  N2164  1  0.000200  0.944000  0.709400  1
  N  N2165  1  0.595800  0.194000  0.393100  1
  N  N2166  1  0.404200  0.694000  0.106900  1
  N  N2167  1  0.404200  0.806000  0.606900  1
  N  N2168  1  0.595800  0.306000  0.893100  1
  N  N2169  1  0.043300  0.485100  0.575300  1
  N  N2170  1  0.956700  0.985100  0.924700  1
  N  N2171  1  0.956700  0.514900  0.424700  1
  N  N2172  1  0.043300  0.014900  0.075300  1
  N  N2173  1  0.217000  0.123000  0.292500  1
  N  N2174  1  0.783000  0.623000  0.207500  1
  N  N2175  1  0.783000  0.877000  0.707500  1
  N  N2176  1  0.217000  0.377000  0.792500  1
  N  N2177  1  0.605200  0.245800  0.508500  1
  N  N2178  1  0.394800  0.745800  0.991500  1
  N  N2179  1  0.394800  0.754200  0.491500  1
  N  N2180  1  0.605200  0.254200  0.008500  1
  N  N2181  1  0.813800  0.294000  0.495700  1
  N  N2182  1  0.186200  0.794000  0.004300  1
  N  N2183  1  0.186200  0.706000  0.504300  1
  N  N2184  1  0.813800  0.206000  0.995700  1
  N  N2185  1  0.018600  0.441700  0.111300  1
  N  N2186  1  0.981400  0.941700  0.388700  1
  N  N2187  1  0.981400  0.558300  0.888700  1
  N  N2188  1  0.018600  0.058300  0.611300  1
  N  N2189  1  0.263100  0.292400  0.275700  1
  N  N2190  1  0.736900  0.792400  0.224300  1
  N  N2191  1  0.736900  0.707600  0.724300  1
  N  N2192  1  0.263100  0.207600  0.775700  1
  N  N2193  1  0.430300  0.518800  0.387600  1
  N  N2194  1  0.569700  0.018800  0.112400  1
  N  N2195  1  0.569700  0.481200  0.612400  1
  N  N2196  1  0.430300  0.981200  0.887600  1
  N  N2197  1  0.283100  0.550900  0.475100  1
  N  N2198  1  0.716900  0.050900  0.024900  1
  N  N2199  1  0.716900  0.449100  0.524900  1
  N  N2200  1  0.283100  0.949100  0.975100  1
  N  N2201  1  0.206100  0.471300  0.270200  1
  N  N2202  1  0.793900  0.971300  0.229800  1
  N  N2203  1  0.793900  0.528700  0.729800  1
  N  N2204  1  0.206100  0.028700  0.770200  1
  N  N2205  1  0.676500  0.583800  0.339400  1
  N  N2206  1  0.323500  0.083800  0.160600  1
  N  N2207  1  0.323500  0.416200  0.660600  1
  N  N2208  1  0.676500  0.916200  0.839400  1
  N  N2209  1  0.067000  0.471700  0.584100  1
  N  N2210  1  0.933000  0.971700  0.915900  1
  N  N2211  1  0.933000  0.528300  0.415900  1
  N  N2212  1  0.067000  0.028300  0.084100  1
  N  N2213  1  0.178000  0.299000  0.147600  1
  N  N2214  1  0.822000  0.799000  0.352400  1
  N  N2215  1  0.822000  0.701000  0.852400  1
  N  N2216  1  0.178000  0.201000  0.647600  1
  O  O2217  1  0.116900  0.371800  0.256800  1
  O  O2218  1  0.883100  0.871800  0.243200  1
  O  O2219  1  0.883100  0.628200  0.743200  1
  O  O2220  1  0.116900  0.128200  0.756800  1
  O  O2221  1  0.736400  0.478600  0.996600  1
  O  O2222  1  0.263600  0.978600  0.503400  1
  O  O2223  1  0.263600  0.521400  0.003400  1
  O  O2224  1  0.736400  0.021400  0.496600  1
  O  O2225  1  0.681300  0.342480  0.235040  1
  O  O2226  1  0.318700  0.842480  0.264960  1
  O  O2227  1  0.318700  0.657520  0.764960  1
  O  O2228  1  0.681300  0.157520  0.735040  1
  O  O2229  1  0.752400  0.385150  0.211750  1
  O  O2230  1  0.247600  0.885150  0.288250  1
  O  O2231  1  0.247600  0.614850  0.788250  1
  O  O2232  1  0.752400  0.114850  0.711750  1
  O  O2233  1  0.765700  0.318650  0.205180  1
  O  O2234  1  0.234300  0.818650  0.294820  1
  O  O2235  1  0.234300  0.681350  0.794820  1
  O  O2236  1  0.765700  0.181350  0.705180  1
  O  O2237  1  0.125400  0.444000  0.884000  1
  O  O2238  1  0.874600  0.944000  0.616000  1
  O  O2239  1  0.874600  0.556000  0.116000  1
  O  O2240  1  0.125400  0.056000  0.384000  1
  O  O2241  1  0.804300  0.177400  0.361700  1
  O  O2242  1  0.195700  0.677400  0.138300  1
  O  O2243  1  0.195700  0.822600  0.638300  1
  O  O2244  1  0.804300  0.322600  0.861700  1
  O  O2245  1  0.125500  0.244900  0.864500  1
  O  O2246  1  0.874500  0.744900  0.635500  1
  O  O2247  1  0.874500  0.755100  0.135500  1
  O  O2248  1  0.125500  0.255100  0.364500  1
  O  O2249  1  0.362500  0.324100  0.769500  1
  O  O2250  1  0.637500  0.824100  0.730500  1
  O  O2251  1  0.637500  0.675900  0.230500  1
  O  O2252  1  0.362500  0.175900  0.269500  1
  O  O2253  1  0.666000  0.472000  0.409100  1
  O  O2254  1  0.334000  0.972000  0.090900  1
  O  O2255  1  0.334000  0.528000  0.590900  1
  O  O2256  1  0.666000  0.028000  0.909100  1
  O  O2257  1  0.267900  0.403800  0.165600  1
  O  O2258  1  0.732100  0.903800  0.334400  1
  O  O2259  1  0.732100  0.596200  0.834400  1
  O  O2260  1  0.267900  0.096200  0.665600  1
  O  O2261  1  0.289000  0.251100  0.544400  1
  O  O2262  1  0.711000  0.751100  0.955600  1
  O  O2263  1  0.711000  0.748900  0.455600  1
  O  O2264  1  0.289000  0.248900  0.044400  1
  O  O2265  1  0.588700  0.142800  0.052800  1
  O  O2266  1  0.411300  0.642800  0.447200  1
  O  O2267  1  0.411300  0.857200  0.947200  1
  O  O2268  1  0.588700  0.357200  0.552800  1
  O  O2269  1  0.276100  0.442400  0.545100  1
  O  O2270  1  0.723900  0.942400  0.954900  1
  O  O2271  1  0.723900  0.557600  0.454900  1
  O  O2272  1  0.276100  0.057600  0.045100  1
  O  O2273  1  0.034900  0.337600  0.632600  1
  O  O2274  1  0.965100  0.837600  0.867400  1
  O  O2275  1  0.965100  0.662400  0.367400  1
  O  O2276  1  0.034900  0.162400  0.132600  1
  O  O2277  1  0.634000  0.306850  0.158720  1
  O  O2278  1  0.366000  0.806850  0.341280  1
  O  O2279  1  0.366000  0.693150  0.841280  1
  O  O2280  1  0.634000  0.193150  0.658720  1
  O  O2281  1  0.703600  0.360130  0.135250  1
  O  O2282  1  0.296400  0.860130  0.364750  1
  O  O2283  1  0.296400  0.639870  0.864750  1
  O  O2284  1  0.703600  0.139870  0.635250  1
  O  O2285  1  0.606200  0.378350  0.167150  1
  O  O2286  1  0.393800  0.878350  0.332850  1
  O  O2287  1  0.393800  0.621650  0.832850  1
  O  O2288  1  0.606200  0.121650  0.667150  1
  O  O2289  1  0.389700  0.349200  0.346700  1
  O  O2290  1  0.610300  0.849200  0.153300  1
  O  O2291  1  0.610300  0.650800  0.653300  1
  O  O2292  1  0.389700  0.150800  0.846700  1
  O  O2293  1  0.369800  0.316400  0.399900  1
  O  O2294  1  0.630200  0.816400  0.100100  1
  O  O2295  1  0.630200  0.683600  0.600100  1
  O  O2296  1  0.369800  0.183600  0.899900  1
  O  O2297  1  0.277500  0.347200  0.364600  1
  O  O2298  1  0.722500  0.847200  0.135400  1
  O  O2299  1  0.722500  0.652800  0.635400  1
  O  O2300  1  0.277500  0.152800  0.864600  1
  O  O2301  1  0.476100  0.591100  0.220900  1
  O  O2302  1  0.523900  0.091100  0.279100  1
  O  O2303  1  0.523900  0.408900  0.779100  1
  O  O2304  1  0.476100  0.908900  0.720900  1
  O  O2305  1  0.449200  0.541300  0.264700  1
  O  O2306  1  0.550800  0.041300  0.235300  1
  O  O2307  1  0.550800  0.458700  0.735300  1
  O  O2308  1  0.449200  0.958700  0.764700  1
  O  O2309  1  0.468400  0.611100  0.281000  1
  O  O2310  1  0.531600  0.111100  0.219000  1
  O  O2311  1  0.531600  0.388900  0.719000  1
  O  O2312  1  0.468400  0.888900  0.781000  1
  O  O2313  1  0.188900  0.539600  0.348700  1
  O  O2314  1  0.811100  0.039600  0.151300  1
  O  O2315  1  0.811100  0.460400  0.651300  1
  O  O2316  1  0.188900  0.960400  0.848700  1
  O  O2317  1  0.140000  0.606200  0.330900  1
  O  O2318  1  0.860000  0.106200  0.169100  1
  O  O2319  1  0.860000  0.393800  0.669100  1
  O  O2320  1  0.140000  0.893800  0.830900  1
  O  O2321  1  0.145900  0.584700  0.395700  1
  O  O2322  1  0.854100  0.084700  0.104300  1
  O  O2323  1  0.854100  0.415300  0.604300  1
  O  O2324  1  0.145900  0.915300  0.895700  1
  O  O2325  1  0.125200  0.149100  0.524300  1
  O  O2326  1  0.874800  0.649100  0.975700  1
  O  O2327  1  0.874800  0.850900  0.475700  1
  O  O2328  1  0.125200  0.350900  0.024300  1
  O  O2329  1  0.038100  0.189800  0.499600  1
  O  O2330  1  0.961900  0.689800  0.000400  1
  O  O2331  1  0.961900  0.810200  0.500400  1
  O  O2332  1  0.038100  0.310200  0.999600  1
  O  O2333  1  0.017600  0.143400  0.546300  1
  O  O2334  1  0.982400  0.643400  0.953700  1
  O  O2335  1  0.982400  0.856600  0.453700  1
  O  O2336  1  0.017600  0.356600  0.046300  1
  O  O2337  1  0.204400  0.502900  0.119900  1
  O  O2338  1  0.795600  0.002900  0.380100  1
  O  O2339  1  0.795600  0.497100  0.880100  1
  O  O2340  1  0.204400  0.997100  0.619900  1
  O  O2341  1  0.258200  0.566600  0.112300  1
  O  O2342  1  0.741800  0.066600  0.387700  1
  O  O2343  1  0.741800  0.433400  0.887700  1
  O  O2344  1  0.258200  0.933400  0.612300  1
  O  O2345  1  0.203800  0.553700  0.166500  1
  O  O2346  1  0.796200  0.053700  0.333500  1
  O  O2347  1  0.796200  0.446300  0.833500  1
  O  O2348  1  0.203800  0.946300  0.666500  1
  O  O2349  1  0.862300  0.311800  0.355140  1
  O  O2350  1  0.137700  0.811800  0.144860  1
  O  O2351  1  0.137700  0.688200  0.644860  1
  O  O2352  1  0.862300  0.188200  0.855140  1
  O  O2353  1  0.859100  0.385700  0.359100  1
  O  O2354  1  0.140900  0.885700  0.140900  1
  O  O2355  1  0.140900  0.614300  0.640900  1
  O  O2356  1  0.859100  0.114300  0.859100  1
  O  O2357  1  0.951500  0.351900  0.332240  1
  O  O2358  1  0.048500  0.851900  0.167760  1
  O  O2359  1  0.048500  0.648100  0.667760  1
  O  O2360  1  0.951500  0.148100  0.832240  1
  O  O2361  1  0.120500  0.397600  0.269200  1
  O  O2362  1  0.879500  0.897600  0.230800  1
  O  O2363  1  0.879500  0.602400  0.730800  1
  O  O2364  1  0.120500  0.102400  0.769200  1
  O  O2365  1  0.797100  0.481700  0.991600  1
  O  O2366  1  0.202900  0.981700  0.508400  1
  O  O2367  1  0.202900  0.518300  0.008400  1
  O  O2368  1  0.797100  0.018300  0.491600  1
  O  O2369  1  0.368100  0.387600  0.337700  1
  O  O2370  1  0.631900  0.887600  0.162300  1
  O  O2371  1  0.631900  0.612400  0.662300  1
  O  O2372  1  0.368100  0.112400  0.837700  1
  O  O2373  1  0.389000  0.324000  0.361700  1
  O  O2374  1  0.611000  0.824000  0.138300  1
  O  O2375  1  0.611000  0.676000  0.638300  1
  O  O2376  1  0.389000  0.176000  0.861700  1
  O  O2377  1  0.282000  0.356800  0.370800  1
  O  O2378  1  0.718000  0.856800  0.129200  1
  O  O2379  1  0.718000  0.643200  0.629200  1
  O  O2380  1  0.282000  0.143200  0.870800  1
  O  O2381  1  0.581700  0.999800  0.478600  0.5
  F  F2382  1  0.581700  0.999800  0.478600  0.5
  O  O2383  1  0.418300  0.499800  0.021400  0.5
  F  F2384  1  0.418300  0.499800  0.021400  0.5
  O  O2385  1  0.418300  0.000200  0.521400  0.5
  F  F2386  1  0.418300  0.000200  0.521400  0.5
  O  O2387  1  0.581700  0.500200  0.978600  0.5
  F  F2388  1  0.581700  0.500200  0.978600  0.5
  O  O2389  1  0.535600  0.051700  0.509520  0.5
  F  F2390  1  0.535600  0.051700  0.509520  0.5
  O  O2391  1  0.464400  0.551700  0.990480  0.5
  F  F2392  1  0.464400  0.551700  0.990480  0.5
  O  O2393  1  0.464400  0.948300  0.490480  0.5
  F  F2394  1  0.464400  0.948300  0.490480  0.5
  O  O2395  1  0.535600  0.448300  0.009520  0.5
  F  F2396  1  0.535600  0.448300  0.009520  0.5
  O  O2397  1  0.562700  0.991600  0.536590  0.5
  F  F2398  1  0.562700  0.991600  0.536590  0.5
  O  O2399  1  0.437300  0.491600  0.963410  0.5
  F  F2400  1  0.437300  0.491600  0.963410  0.5
  O  O2401  1  0.437300  0.008400  0.463410  0.5
  F  F2402  1  0.437300  0.008400  0.463410  0.5
  O  O2403  1  0.562700  0.508400  0.036590  0.5
  F  F2404  1  0.562700  0.508400  0.036590  0.5
  F  F2405  1  0.524000  0.346390  0.111500  1
  F  F2406  1  0.476000  0.846390  0.388500  1
  F  F2407  1  0.476000  0.653610  0.888500  1
  F  F2408  1  0.524000  0.153610  0.611500  1
  F  F2409  1  0.599200  0.380320  0.085800  1
  F  F2410  1  0.400800  0.880320  0.414200  1
  F  F2411  1  0.400800  0.619680  0.914200  1
  F  F2412  1  0.599200  0.119680  0.585800  1
  F  F2413  1  0.601600  0.314790  0.086170  1
  F  F2414  1  0.398400  0.814790  0.413830  1
  F  F2415  1  0.398400  0.685210  0.913830  1
  F  F2416  1  0.601600  0.185210  0.586170  1
  F  F2417  1  0.429700  0.395000  0.411100  1
  F  F2418  1  0.570300  0.895000  0.088900  1
  F  F2419  1  0.570300  0.605000  0.588900  1
  F  F2420  1  0.429700  0.105000  0.911100  1
  F  F2421  1  0.330500  0.397100  0.428200  1
  F  F2422  1  0.669500  0.897100  0.071800  1
  F  F2423  1  0.669500  0.602900  0.571800  1
  F  F2424  1  0.330500  0.102900  0.928200  1
  F  F2425  1  0.347000  0.425500  0.378500  1
  F  F2426  1  0.653000  0.925500  0.121500  1
  F  F2427  1  0.653000  0.574500  0.621500  1
  F  F2428  1  0.347000  0.074500  0.878500  1
  F  F2429  1  0.325400  0.586000  0.271900  1
  F  F2430  1  0.674600  0.086000  0.228100  1
  F  F2431  1  0.674600  0.414000  0.728100  1
  F  F2432  1  0.325400  0.914000  0.771900  1
  F  F2433  1  0.351800  0.632100  0.234300  1
  F  F2434  1  0.648200  0.132100  0.265700  1
  F  F2435  1  0.648200  0.367900  0.765700  1
  F  F2436  1  0.351800  0.867900  0.734300  1
  F  F2437  1  0.337200  0.570100  0.218100  1
  F  F2438  1  0.662800  0.070100  0.281900  1
  F  F2439  1  0.662800  0.429900  0.781900  1
  F  F2440  1  0.337200  0.929900  0.718100  1
  F  F2441  1  0.292700  0.583000  0.388100  1
  F  F2442  1  0.707300  0.083000  0.111900  1
  F  F2443  1  0.707300  0.417000  0.611900  1
  F  F2444  1  0.292700  0.917000  0.888100  1
  F  F2445  1  0.285100  0.601800  0.333500  1
  F  F2446  1  0.714900  0.101800  0.166500  1
  F  F2447  1  0.714900  0.398200  0.666500  1
  F  F2448  1  0.285100  0.898200  0.833500  1
  F  F2449  1  0.252300  0.641700  0.374700  1
  F  F2450  1  0.747700  0.141700  0.125300  1
  F  F2451  1  0.747700  0.358300  0.625300  1
  F  F2452  1  0.252300  0.858300  0.874700  1
  F  F2453  1  0.049100  0.078100  0.499400  1
  F  F2454  1  0.950900  0.578100  0.000600  1
  F  F2455  1  0.950900  0.921900  0.500600  1
  F  F2456  1  0.049100  0.421900  0.999400  1
  F  F2457  1  0.069300  0.116700  0.457800  1
  F  F2458  1  0.930700  0.616700  0.042200  1
  F  F2459  1  0.930700  0.883300  0.542200  1
  F  F2460  1  0.069300  0.383300  0.957800  1
  F  F2461  1  0.972400  0.114200  0.475500  1
  F  F2462  1  0.027600  0.614200  0.024500  1
  F  F2463  1  0.027600  0.885800  0.524500  1
  F  F2464  1  0.972400  0.385800  0.975500  1
  F  F2465  1  0.081200  0.545100  0.120800  1
  F  F2466  1  0.918800  0.045100  0.379200  1
  F  F2467  1  0.918800  0.454900  0.879200  1
  F  F2468  1  0.081200  0.954900  0.620800  1
  F  F2469  1  0.125000  0.604400  0.113000  1
  F  F2470  1  0.875000  0.104400  0.387000  1
  F  F2471  1  0.875000  0.395600  0.887000  1
  F  F2472  1  0.125000  0.895600  0.613000  1
  F  F2473  1  0.129200  0.558600  0.074300  1
  F  F2474  1  0.870800  0.058600  0.425700  1
  F  F2475  1  0.870800  0.441400  0.925700  1
  F  F2476  1  0.129200  0.941400  0.574300  1
  F  F2477  1  0.774100  0.346800  0.301670  1
  F  F2478  1  0.225900  0.846800  0.198330  1
  F  F2479  1  0.225900  0.653200  0.698330  1
  F  F2480  1  0.774100  0.153200  0.801670  1
  F  F2481  1  0.845000  0.388900  0.283620  1
  F  F2482  1  0.155000  0.888900  0.216380  1
  F  F2483  1  0.155000  0.611100  0.716380  1
  F  F2484  1  0.845000  0.111100  0.783620  1
  F  F2485  1  0.859900  0.324350  0.276320  1
  F  F2486  1  0.140100  0.824350  0.223680  1
  F  F2487  1  0.140100  0.675650  0.723680  1
  F  F2488  1  0.859900  0.175650  0.776320  1
  F  F2489  1  0.427200  0.403400  0.401400  1
  F  F2490  1  0.572800  0.903400  0.098600  1
  F  F2491  1  0.572800  0.596600  0.598600  1
  F  F2492  1  0.427200  0.096600  0.901400  1
  F  F2493  1  0.362100  0.359700  0.427400  1
  F  F2494  1  0.637900  0.859700  0.072600  1
  F  F2495  1  0.637900  0.640300  0.572600  1
  F  F2496  1  0.362100  0.140300  0.927400  1
  F  F2497  1  0.325100  0.416300  0.409900  1
  F  F2498  1  0.674900  0.916300  0.090100  1
  F  F2499  1  0.674900  0.583700  0.590100  1
  F  F2500  1  0.325100  0.083700  0.909900  1
