data_image0
_cell_length_a       22.42
_cell_length_b       22.42
_cell_length_c       42.177
_cell_angle_alpha    90
_cell_angle_beta     90
_cell_angle_gamma    120

_symmetry_space_group_name_H-M    "P 1"
_symmetry_int_tables_number       1

loop_
  _symmetry_equiv_pos_as_xyz
  'x, y, z'

loop_
  _atom_site_label
  _atom_site_occupancy
  _atom_site_fract_x
  _atom_site_fract_y
  _atom_site_fract_z
  _atom_site_thermal_displace_type
  _atom_site_B_iso_or_equiv
  _atom_site_type_symbol
  C1       1.0000 0.37737  0.25242  0.50589  Biso   1.000  C
  C2       1.0000 0.34799  0.19705  0.47995  Biso   1.000  C
  H1       1.0000 0.42639  0.26704  0.50933  Biso   1.000  H
  H2       1.0000 0.35236  0.23264  0.52593  Biso   1.000  H
  C3       1.0000 0.37136  0.31381  0.49738  Biso   1.000  C
  C4       1.0000 0.27315  0.17583  0.47284  Biso   1.000  C
  H3       1.0000 0.35055  0.15631  0.48704  Biso   1.000  H
  H4       1.0000 0.37576  0.21513  0.46044  Biso   1.000  H
  C5       1.0000 0.29708  0.29264  0.48986  Biso   1.000  C
  H5       1.0000 0.38786  0.34682  0.51523  Biso   1.000  H
  H6       1.0000 0.40068  0.33714  0.47874  Biso   1.000  H
  N1       1.0000 0.24769  0.12536  0.44723  Biso   1.000  N
  H7       1.0000 0.24475  0.15461  0.49224  Biso   1.000  H
  C6       1.0000 0.26845  0.23913  0.46355  Biso   1.000  C
  H8       1.0000 0.26865  0.27343  0.50914  Biso   1.000  H
  H9       1.0000 0.29447  0.33364  0.48334  Biso   1.000  H
  C7       1.0000 0.20275  0.06402  0.45390  Biso   1.000  C
  N2       1.0000 0.19696  0.21935  0.45726  Biso   1.000  N
  H10      1.0000 0.29618  0.25952  0.44384  Biso   1.000  H
  C8       1.0000 0.17459  0.00814  0.43080  Biso   1.000  C
  H11      1.0000 0.18637  0.05392  0.47514  Biso   1.000  H
  C9       1.0000 0.18246  0.22862  0.42933  Biso   1.000  C
  C10      1.0000 0.19468  0.01844  0.39903  Biso   1.000  C
  C11      1.0000 0.12626  0.94226  0.44019  Biso   1.000  C
  C12      1.0000 0.11277  0.21101  0.41966  Biso   1.000  C
  H12      1.0000 0.21825  0.24783  0.41404  Biso   1.000  H
  C13      1.0000 0.16768  0.96534  0.37777  Biso   1.000  C
  H13      1.0000 0.22788  0.06335  0.39204  Biso   1.000  H
  C14      1.0000 0.09827  0.88726  0.41966  Biso   1.000  C
  H14      1.0000 0.11166  0.93475  0.46174  Biso   1.000  H
  C15      1.0000 0.10114  0.22012  0.38803  Biso   1.000  C
  C16      1.0000 0.05776  0.18402  0.44019  Biso   1.000  C
  C17      1.0000 0.18438  0.97554  0.34450  Biso   1.000  C
  C18      1.0000 0.11896  0.89885  0.38803  Biso   1.000  C
  C19      1.0000 0.04618  0.81752  0.42933  Biso   1.000  C
  C20      1.0000 0.03467  0.20236  0.37777  Biso   1.000  C
  H15      1.0000 0.13827  0.23836  0.37333  Biso   1.000  H
  H16      1.0000 0.06526  0.17691  0.46174  Biso   1.000  H
  C21      1.0000 0.99188  0.16646  0.43080  Biso   1.000  C
  C22      1.0000 0.19499  0.98285  0.31683  Biso   1.000  C
  H17      1.0000 0.10006  0.86177  0.37333  Biso   1.000  H
  N3       1.0000 0.02240  0.80305  0.45726  Biso   1.000  N
  H18      1.0000 0.02958  0.78173  0.41404  Biso   1.000  H
  C23      1.0000 0.02449  0.20885  0.34450  Biso   1.000  C
  C24      1.0000 0.98157  0.17624  0.39903  Biso   1.000  C
  C25      1.0000 0.93597  0.13875  0.45390  Biso   1.000  C
  C26      1.0000 0.20467  0.99186  0.28286  Biso   1.000  C
  C27      1.0000 0.97069  0.73157  0.46355  Biso   1.000  C
  C28      1.0000 0.01718  0.21214  0.31683  Biso   1.000  C
  H19      1.0000 0.93669  0.16455  0.39204  Biso   1.000  H
  N4       1.0000 0.87466  0.12237  0.44723  Biso   1.000  N
  H20      1.0000 0.94605  0.13241  0.47514  Biso   1.000  H
  C29      1.0000 0.23819  0.05604  0.26979  Biso   1.000  C
  C30      1.0000 0.17859  0.93567  0.26273  Biso   1.000  C
  C31      1.0000 0.90266  0.72683  0.47284  Biso   1.000  C
  C32      1.0000 0.99558  0.70293  0.48986  Biso   1.000  C
  H21      1.0000 0.96339  0.70386  0.44384  Biso   1.000  H
  C33      1.0000 0.00815  0.21281  0.28286  Biso   1.000  C
  C34      1.0000 0.82418  0.09734  0.47284  Biso   1.000  C
  C35      1.0000 0.24294  0.06438  0.23729  Biso   1.000  C
  H22      1.0000 0.25838  0.09544  0.28314  Biso   1.000  H
  C36      1.0000 0.18215  0.94396  0.23022  Biso   1.000  C
  H23      1.0000 0.15786  0.89056  0.27143  Biso   1.000  H
  N5       1.0000 0.87763  0.75232  0.44723  Biso   1.000  N
  H24      1.0000 0.90988  0.75526  0.49224  Biso   1.000  H
  C37      1.0000 0.84908  0.65204  0.47995  Biso   1.000  C
  C38      1.0000 0.94248  0.62866  0.49738  Biso   1.000  C
  H25      1.0000 0.00480  0.73136  0.50914  Biso   1.000  H
  H26      1.0000 0.03917  0.70556  0.48334  Biso   1.000  H
  C39      1.0000 0.06438  0.24294  0.26273  Biso   1.000  C
  C40      1.0000 0.94396  0.18212  0.26979  Biso   1.000  C
  C41      1.0000 0.76089  0.02936  0.46355  Biso   1.000  C
  H27      1.0000 0.84538  0.09013  0.49224  Biso   1.000  H
  C42      1.0000 0.80300  0.15096  0.47995  Biso   1.000  C
  H28      1.0000 0.26730  0.10944  0.22856  Biso   1.000  H
  C43      1.0000 0.21284  0.00819  0.21713  Biso   1.000  C
  H29      1.0000 0.16294  0.90456  0.21687  Biso   1.000  H
  C44      1.0000 0.86128  0.79723  0.45390  Biso   1.000  C
  H30      1.0000 0.80578  0.64947  0.48704  Biso   1.000  H
  H31      1.0000 0.83937  0.62423  0.46044  Biso   1.000  H
  C45      1.0000 0.87506  0.62264  0.50589  Biso   1.000  C
  H32      1.0000 0.95896  0.61213  0.51523  Biso   1.000  H
  H33      1.0000 0.93648  0.59936  0.47874  Biso   1.000  H
  C46      1.0000 0.05601  0.23815  0.23022  Biso   1.000  C
  H34      1.0000 0.10946  0.26735  0.27143  Biso   1.000  H
  C47      1.0000 0.93562  0.17856  0.23729  Biso   1.000  C
  H35      1.0000 0.90458  0.16296  0.28314  Biso   1.000  H
  N6       1.0000 0.78064  0.97760  0.45726  Biso   1.000  N
  C48      1.0000 0.70734  0.00443  0.48986  Biso   1.000  C
  H36      1.0000 0.74048  0.03662  0.44384  Biso   1.000  H
  H37      1.0000 0.84367  0.19422  0.48704  Biso   1.000  H
  H38      1.0000 0.78487  0.16064  0.46044  Biso   1.000  H
  C49      1.0000 0.74758  0.12495  0.50589  Biso   1.000  C
  C50      1.0000 0.21214  0.01715  0.18316  Biso   1.000  C
  C51      1.0000 0.83356  0.82546  0.43080  Biso   1.000  C
  H39      1.0000 0.86758  0.81366  0.47514  Biso   1.000  H
  H40      1.0000 0.84066  0.57366  0.50933  Biso   1.000  H
  H41      1.0000 0.88030  0.64767  0.52593  Biso   1.000  H
  C52      1.0000 0.99186  0.20467  0.21713  Biso   1.000  C
  H42      1.0000 0.09543  0.25839  0.21687  Biso   1.000  H
  H43      1.0000 0.89053  0.15786  0.22856  Biso   1.000  H
  C53      1.0000 0.77140  0.95385  0.42933  Biso   1.000  C
  H44      1.0000 0.72658  0.99526  0.50914  Biso   1.000  H
  H45      1.0000 0.66638  0.96086  0.48334  Biso   1.000  H
  C54      1.0000 0.68617  0.05753  0.49738  Biso   1.000  C
  H46      1.0000 0.73298  0.15935  0.50933  Biso   1.000  H
  H47      1.0000 0.76737  0.11974  0.52593  Biso   1.000  H
  C55      1.0000 0.20884  0.02446  0.15551  Biso   1.000  C
  C56      1.0000 0.81596  0.87377  0.44019  Biso   1.000  C
  C57      1.0000 0.82378  0.80537  0.39903  Biso   1.000  C
  C58      1.0000 0.98287  0.19499  0.18316  Biso   1.000  C
  C59      1.0000 0.78896  0.90173  0.41966  Biso   1.000  C
  H48      1.0000 0.75217  0.97044  0.41404  Biso   1.000  H
  H49      1.0000 0.65317  0.04105  0.51523  Biso   1.000  H
  H50      1.0000 0.66287  0.06355  0.47874  Biso   1.000  H
  C60      1.0000 0.20234  0.03466  0.12222  Biso   1.000  C
  H51      1.0000 0.82307  0.88834  0.46174  Biso   1.000  H
  C61      1.0000 0.79767  0.83236  0.37777  Biso   1.000  C
  H52      1.0000 0.83550  0.77215  0.39204  Biso   1.000  H
  C62      1.0000 0.97555  0.18438  0.15551  Biso   1.000  C
  C63      1.0000 0.77985  0.88103  0.38803  Biso   1.000  C
  C64      1.0000 0.22011  0.10115  0.11196  Biso   1.000  C
  C65      1.0000 0.17624  0.98156  0.10096  Biso   1.000  C
  C66      1.0000 0.79120  0.81567  0.34450  Biso   1.000  C
  C67      1.0000 0.96531  0.16764  0.12222  Biso   1.000  C
  H53      1.0000 0.76165  0.89993  0.37333  Biso   1.000  H
  H54      1.0000 0.23832  0.13829  0.12666  Biso   1.000  H
  C68      1.0000 0.21103  0.11279  0.08033  Biso   1.000  C
  C69      1.0000 0.16645  0.99186  0.06921  Biso   1.000  C
  H55      1.0000 0.16456  0.93670  0.10797  Biso   1.000  H
  C70      1.0000 0.78790  0.80506  0.31683  Biso   1.000  C
  C71      1.0000 0.01844  0.19468  0.10096  Biso   1.000  C
  C72      1.0000 0.89883  0.11897  0.11196  Biso   1.000  C
  C73      1.0000 0.18402  0.05779  0.05980  Biso   1.000  C
  C74      1.0000 0.22866  0.18248  0.07065  Biso   1.000  C
  C75      1.0000 0.13873  0.93598  0.04612  Biso   1.000  C
  C76      1.0000 0.78718  0.79533  0.28286  Biso   1.000  C
  C77      1.0000 0.00810  0.17454  0.06921  Biso   1.000  C
  H56      1.0000 0.06335  0.22785  0.10797  Biso   1.000  H
  C78      1.0000 0.88722  0.09827  0.08033  Biso   1.000  C
  H57      1.0000 0.86172  0.10007  0.12666  Biso   1.000  H
  H58      1.0000 0.17692  0.06525  0.03827  Biso   1.000  H
  N7       1.0000 0.21935  0.19695  0.04272  Biso   1.000  N
  H59      1.0000 0.24785  0.21827  0.08597  Biso   1.000  H
  N8       1.0000 0.12236  0.87469  0.05278  Biso   1.000  N
  H60      1.0000 0.13245  0.94608  0.02487  Biso   1.000  H
  C79      1.0000 0.81786  0.76185  0.26979  Biso   1.000  C
  C80      1.0000 0.75706  0.82144  0.26273  Biso   1.000  C
  C81      1.0000 0.06405  0.20277  0.04612  Biso   1.000  C
  C82      1.0000 0.94222  0.12629  0.05980  Biso   1.000  C
  C83      1.0000 0.81754  0.04615  0.07065  Biso   1.000  C
  C84      1.0000 0.23915  0.26849  0.03644  Biso   1.000  C
  C85      1.0000 0.09732  0.82417  0.02715  Biso   1.000  C
  C86      1.0000 0.82144  0.75706  0.23729  Biso   1.000  C
  H61      1.0000 0.83707  0.74166  0.28314  Biso   1.000  H
  C87      1.0000 0.76184  0.81788  0.23022  Biso   1.000  C
  H62      1.0000 0.73267  0.84214  0.27143  Biso   1.000  H
  N9       1.0000 0.12531  0.24768  0.05278  Biso   1.000  N
  H63      1.0000 0.05394  0.18639  0.02487  Biso   1.000  H
  H64      1.0000 0.93473  0.11166  0.03827  Biso   1.000  H
  N10      1.0000 0.80304  0.02240  0.04272  Biso   1.000  N
  H65      1.0000 0.78173  0.02956  0.08597  Biso   1.000  H
  C88      1.0000 0.17584  0.27317  0.02715  Biso   1.000  C
  C89      1.0000 0.29265  0.29707  0.01015  Biso   1.000  C
  H66      1.0000 0.25953  0.29614  0.05617  Biso   1.000  H
  H67      1.0000 0.09013  0.84539  0.00778  Biso   1.000  H
  C90      1.0000 0.15096  0.80300  0.02003  Biso   1.000  C
  C91      1.0000 0.02932  0.76087  0.03644  Biso   1.000  C
  C92      1.0000 0.79533  0.78719  0.21713  Biso   1.000  C
  H68      1.0000 0.84213  0.73270  0.22856  Biso   1.000  H
  H69      1.0000 0.74165  0.83710  0.21687  Biso   1.000  H
  C93      1.0000 0.73156  0.97069  0.03644  Biso   1.000  C
  H70      1.0000 0.15462  0.24474  0.00778  Biso   1.000  H
  C94      1.0000 0.19704  0.34796  0.02003  Biso   1.000  C
  C95      1.0000 0.31384  0.37139  0.00261  Biso   1.000  C
  H71      1.0000 0.33362  0.29444  0.01667  Biso   1.000  H
  H72      1.0000 0.27346  0.26869  0.99087  Biso   1.000  H
  C96      1.0000 0.12495  0.74758  0.99412  Biso   1.000  C
  H73      1.0000 0.19423  0.84369  0.01297  Biso   1.000  H
  H74      1.0000 0.16063  0.78487  0.03957  Biso   1.000  H
  N11      1.0000 0.97761  0.78065  0.04272  Biso   1.000  N
  C97      1.0000 0.00444  0.70736  0.01015  Biso   1.000  C
  H75      1.0000 0.03665  0.74048  0.05617  Biso   1.000  H
  C98      1.0000 0.80504  0.78786  0.18316  Biso   1.000  C
  C99      1.0000 0.72684  0.90266  0.02715  Biso   1.000  C
  C100     1.0000 0.70291  0.99557  0.01015  Biso   1.000  C
  H76      1.0000 0.70386  0.96338  0.05617  Biso   1.000  H
  H77      1.0000 0.15633  0.35058  0.01297  Biso   1.000  H
  H78      1.0000 0.21514  0.37577  0.03957  Biso   1.000  H
  C101     1.0000 0.25242  0.37736  0.99412  Biso   1.000  C
  H79      1.0000 0.33712  0.40064  0.02127  Biso   1.000  H
  H80      1.0000 0.34683  0.38787  0.98478  Biso   1.000  H
  H81      1.0000 0.15934  0.73296  0.99066  Biso   1.000  H
  H82      1.0000 0.11972  0.76736  0.97406  Biso   1.000  H
  C102     1.0000 0.05755  0.68619  0.00261  Biso   1.000  C
  C103     1.0000 0.95384  0.77138  0.07065  Biso   1.000  C
  H83      1.0000 0.99522  0.72657  0.99087  Biso   1.000  H
  H84      1.0000 0.96084  0.66636  0.01667  Biso   1.000  H
  C104     1.0000 0.81567  0.79121  0.15551  Biso   1.000  C
  N12      1.0000 0.75228  0.87763  0.05278  Biso   1.000  N
  H85      1.0000 0.75525  0.90987  0.00778  Biso   1.000  H
  C105     1.0000 0.65207  0.84910  0.02003  Biso   1.000  C
  C106     1.0000 0.62864  0.94247  0.00261  Biso   1.000  C
  H86      1.0000 0.73134  0.00479  0.99087  Biso   1.000  H
  H87      1.0000 0.70552  0.03914  0.01667  Biso   1.000  H
  H88      1.0000 0.26701  0.42634  0.99066  Biso   1.000  H
  H89      1.0000 0.23266  0.35238  0.97406  Biso   1.000  H
  H90      1.0000 0.04104  0.65318  0.98478  Biso   1.000  H
  H91      1.0000 0.06354  0.66286  0.02127  Biso   1.000  H
  C107     1.0000 0.90177  0.78899  0.08033  Biso   1.000  C
  H92      1.0000 0.97042  0.75217  0.08597  Biso   1.000  H
  C108     1.0000 0.83234  0.79770  0.12222  Biso   1.000  C
  C109     1.0000 0.79724  0.86130  0.04612  Biso   1.000  C
  C110     1.0000 0.62266  0.87510  0.99412  Biso   1.000  C
  H93      1.0000 0.64946  0.80578  0.01297  Biso   1.000  H
  H94      1.0000 0.62423  0.83936  0.03957  Biso   1.000  H
  H95      1.0000 0.61215  0.95900  0.98478  Biso   1.000  H
  H96      1.0000 0.59934  0.93650  0.02127  Biso   1.000  H
  C111     1.0000 0.88102  0.77988  0.11196  Biso   1.000  C
  C112     1.0000 0.87373  0.81598  0.05980  Biso   1.000  C
  C113     1.0000 0.80532  0.82376  0.10096  Biso   1.000  C
  C114     1.0000 0.82545  0.83359  0.06921  Biso   1.000  C
  H97      1.0000 0.81363  0.86759  0.02487  Biso   1.000  H
  H98      1.0000 0.57365  0.84070  0.99066  Biso   1.000  H
  H99      1.0000 0.64765  0.88031  0.97406  Biso   1.000  H
  H100     1.0000 0.89994  0.76169  0.12666  Biso   1.000  H
  H101     1.0000 0.88835  0.82309  0.03827  Biso   1.000  H
  H102     1.0000 0.77217  0.83550  0.10797  Biso   1.000  H
  C115     1.0000 0.56549  0.45230  0.44529  Biso   1.000  C
  C116     1.0000 0.55389  0.43160  0.41366  Biso   1.000  C
  C117     1.0000 0.63200  0.50102  0.45556  Biso   1.000  C
  H103     1.0000 0.52839  0.43340  0.45999  Biso   1.000  H
  C118     1.0000 0.48421  0.37948  0.40399  Biso   1.000  C
  C119     1.0000 0.60889  0.45961  0.39313  Biso   1.000  C
  C120     1.0000 0.64222  0.51771  0.48884  Biso   1.000  C
  C121     1.0000 0.68510  0.52801  0.43429  Biso   1.000  C
  N13      1.0000 0.46970  0.35573  0.37606  Biso   1.000  N
  H104     1.0000 0.44839  0.36289  0.41930  Biso   1.000  H
  H105     1.0000 0.60140  0.44499  0.37160  Biso   1.000  H
  C122     1.0000 0.67479  0.50792  0.40254  Biso   1.000  C
  C123     1.0000 0.64953  0.52832  0.51649  Biso   1.000  C
  H106     1.0000 0.73001  0.56118  0.44131  Biso   1.000  H
  C124     1.0000 0.39822  0.30402  0.36977  Biso   1.000  C
  C125     1.0000 0.73072  0.53610  0.37945  Biso   1.000  C
  C126     1.0000 0.65852  0.53800  0.55047  Biso   1.000  C
  C127     1.0000 0.39351  0.23599  0.36048  Biso   1.000  C
  C128     1.0000 0.36958  0.32890  0.34348  Biso   1.000  C
  H107     1.0000 0.37052  0.29671  0.38950  Biso   1.000  H
  N14      1.0000 0.79198  0.58101  0.38611  Biso   1.000  N
  H108     1.0000 0.72061  0.51972  0.35820  Biso   1.000  H
  C129     1.0000 0.60229  0.51189  0.57062  Biso   1.000  C
  C130     1.0000 0.72267  0.57148  0.56355  Biso   1.000  C
  C131     1.0000 0.31873  0.18242  0.35337  Biso   1.000  C
  N15      1.0000 0.41895  0.21096  0.38611  Biso   1.000  N
  H109     1.0000 0.42191  0.24320  0.34111  Biso   1.000  H
  C132     1.0000 0.29530  0.27580  0.33594  Biso   1.000  C
  H110     1.0000 0.39801  0.33812  0.32421  Biso   1.000  H
  H111     1.0000 0.37221  0.37252  0.35000  Biso   1.000  H
  C133     1.0000 0.84250  0.60650  0.36048  Biso   1.000  C
  H112     1.0000 0.55719  0.49119  0.56189  Biso   1.000  H
  C134     1.0000 0.61062  0.51544  0.60312  Biso   1.000  C
  C135     1.0000 0.73104  0.57627  0.59606  Biso   1.000  C
  H113     1.0000 0.76210  0.59172  0.55021  Biso   1.000  H
  C136     1.0000 0.28929  0.20838  0.32745  Biso   1.000  C
  H114     1.0000 0.31612  0.13911  0.34630  Biso   1.000  H
  H115     1.0000 0.29089  0.17269  0.37290  Biso   1.000  H
  C137     1.0000 0.46388  0.19458  0.37945  Biso   1.000  C
  H116     1.0000 0.27879  0.29228  0.31811  Biso   1.000  H
  H117     1.0000 0.26600  0.26982  0.35460  Biso   1.000  H
  H118     1.0000 0.82131  0.57812  0.34111  Biso   1.000  H
  C138     1.0000 0.86370  0.68128  0.35337  Biso   1.000  C
  C139     1.0000 0.90581  0.60181  0.36977  Biso   1.000  C
  C140     1.0000 0.67483  0.54619  0.61619  Biso   1.000  C
  H119     1.0000 0.57125  0.49628  0.61647  Biso   1.000  H
  H120     1.0000 0.77612  0.60068  0.60476  Biso   1.000  H
  H121     1.0000 0.24029  0.17398  0.32399  Biso   1.000  H
  H122     1.0000 0.31429  0.21358  0.30740  Biso   1.000  H
  C141     1.0000 0.49211  0.16692  0.40254  Biso   1.000  C
  H123     1.0000 0.48030  0.20091  0.35820  Biso   1.000  H
  H124     1.0000 0.82300  0.68391  0.34630  Biso   1.000  H
  H125     1.0000 0.88180  0.70910  0.37290  Biso   1.000  H
  C142     1.0000 0.91908  0.71069  0.32745  Biso   1.000  C
  N16      1.0000 0.88601  0.53028  0.37606  Biso   1.000  N
  C143     1.0000 0.95931  0.63040  0.34348  Biso   1.000  C
  H126     1.0000 0.92622  0.62952  0.38950  Biso   1.000  H
  C144     1.0000 0.68384  0.54547  0.65016  Biso   1.000  C
  C145     1.0000 0.54040  0.14931  0.39313  Biso   1.000  C
  C146     1.0000 0.47199  0.15708  0.43429  Biso   1.000  C
  H127     1.0000 0.93370  0.75972  0.32399  Biso   1.000  H
  H128     1.0000 0.89932  0.68571  0.30740  Biso   1.000  H
  C147     1.0000 0.98050  0.70472  0.33594  Biso   1.000  C
  C148     1.0000 0.89532  0.51580  0.40399  Biso   1.000  C
  H129     1.0000 0.94013  0.60202  0.32421  Biso   1.000  H
  H130     1.0000 0.00031  0.62782  0.35000  Biso   1.000  H
  C149     1.0000 0.69116  0.54217  0.67783  Biso   1.000  C
  C150     1.0000 0.56843  0.12232  0.41366  Biso   1.000  C
  H131     1.0000 0.55501  0.15642  0.37160  Biso   1.000  H
  C151     1.0000 0.49901  0.13102  0.45556  Biso   1.000  C
  H132     1.0000 0.43880  0.16878  0.44131  Biso   1.000  H
  H133     1.0000 0.01350  0.72120  0.31811  Biso   1.000  H
  H134     1.0000 0.00381  0.73402  0.35460  Biso   1.000  H
  C152     1.0000 0.87770  0.44612  0.41366  Biso   1.000  C
  H135     1.0000 0.91451  0.55160  0.41930  Biso   1.000  H
  C153     1.0000 0.70134  0.53568  0.71110  Biso   1.000  C
  C154     1.0000 0.54768  0.11320  0.44529  Biso   1.000  C
  C155     1.0000 0.62051  0.10471  0.40399  Biso   1.000  C
  C156     1.0000 0.48231  0.12448  0.48884  Biso   1.000  C
  C157     1.0000 0.85069  0.39111  0.39313  Biso   1.000  C
  C158     1.0000 0.88678  0.43448  0.44529  Biso   1.000  C
  C159     1.0000 0.76781  0.55345  0.72136  Biso   1.000  C
  C160     1.0000 0.64823  0.50957  0.73237  Biso   1.000  C
  H136     1.0000 0.56660  0.09502  0.45999  Biso   1.000  H
  N17      1.0000 0.64428  0.11398  0.37606  Biso   1.000  N
  H137     1.0000 0.63708  0.08550  0.41930  Biso   1.000  H
  C161     1.0000 0.47170  0.12119  0.51649  Biso   1.000  C
  C162     1.0000 0.83311  0.32519  0.40254  Biso   1.000  C
  H138     1.0000 0.84358  0.39858  0.37160  Biso   1.000  H
  C163     1.0000 0.86901  0.36799  0.45556  Biso   1.000  C
  H139     1.0000 0.90499  0.47161  0.45999  Biso   1.000  H
  H140     1.0000 0.80493  0.57168  0.70666  Biso   1.000  H
  C164     1.0000 0.77946  0.54439  0.75299  Biso   1.000  C
  C165     1.0000 0.65855  0.49979  0.76414  Biso   1.000  C
  H141     1.0000 0.60336  0.49788  0.72537  Biso   1.000  H
  C166     1.0000 0.69598  0.09420  0.36977  Biso   1.000  C
  C167     1.0000 0.46200  0.12052  0.55047  Biso   1.000  C
  C168     1.0000 0.80540  0.26931  0.37945  Biso   1.000  C
  C169     1.0000 0.84290  0.31489  0.43429  Biso   1.000  C
  C170     1.0000 0.87551  0.35779  0.48884  Biso   1.000  C
  C171     1.0000 0.72442  0.51735  0.77353  Biso   1.000  C
  C172     1.0000 0.84913  0.56195  0.76267  Biso   1.000  C
  C173     1.0000 0.60263  0.47208  0.78723  Biso   1.000  C
  C174     1.0000 0.76398  0.15750  0.36048  Biso   1.000  C
  C175     1.0000 0.67110  0.04069  0.34348  Biso   1.000  C
  H142     1.0000 0.70332  0.07380  0.38950  Biso   1.000  H
  C176     1.0000 0.48810  0.09039  0.57062  Biso   1.000  C
  C177     1.0000 0.42851  0.15121  0.56355  Biso   1.000  C
  N18      1.0000 0.78902  0.20802  0.38611  Biso   1.000  N
  H143     1.0000 0.79911  0.27940  0.35820  Biso   1.000  H
  H144     1.0000 0.83120  0.26998  0.44131  Biso   1.000  H
  C178     1.0000 0.87881  0.35048  0.51649  Biso   1.000  C
  H145     1.0000 0.73193  0.51024  0.79508  Biso   1.000  H
  N19      1.0000 0.86363  0.55268  0.79060  Biso   1.000  N
  H146     1.0000 0.88492  0.58116  0.74737  Biso   1.000  H
  N20      1.0000 0.54132  0.45570  0.78057  Biso   1.000  N
  H147     1.0000 0.61271  0.46574  0.80847  Biso   1.000  H
  H148     1.0000 0.75680  0.17872  0.34111  Biso   1.000  H
  C179     1.0000 0.81760  0.13628  0.35337  Biso   1.000  C
  C180     1.0000 0.72421  0.01952  0.33594  Biso   1.000  C
  H149     1.0000 0.66188  0.05990  0.32421  Biso   1.000  H
  H150     1.0000 0.62750  0.99969  0.35000  Biso   1.000  H
  H151     1.0000 0.50877  0.06598  0.56189  Biso   1.000  H
  C181     1.0000 0.48452  0.09518  0.60312  Biso   1.000  C
  C182     1.0000 0.42373  0.15477  0.59606  Biso   1.000  C
  H152     1.0000 0.40832  0.17042  0.55021  Biso   1.000  H
  C183     1.0000 0.87950  0.34152  0.55047  Biso   1.000  C
  C184     1.0000 0.93511  0.57246  0.79688  Biso   1.000  C
  C185     1.0000 0.49085  0.43067  0.80617  Biso   1.000  C
  H153     1.0000 0.86090  0.17702  0.34630  Biso   1.000  H
  H154     1.0000 0.82730  0.11820  0.37290  Biso   1.000  H
  C186     1.0000 0.79162  0.08091  0.32745  Biso   1.000  C
  H155     1.0000 0.70770  0.98651  0.31811  Biso   1.000  H
  H156     1.0000 0.73023  0.99624  0.35460  Biso   1.000  H
  C187     1.0000 0.45385  0.12865  0.61619  Biso   1.000  C
  H157     1.0000 0.50373  0.07499  0.61647  Biso   1.000  H
  H158     1.0000 0.39933  0.17547  0.60476  Biso   1.000  H
  C188     1.0000 0.90960  0.39771  0.57062  Biso   1.000  C
  C189     1.0000 0.84882  0.27729  0.56355  Biso   1.000  C
  C190     1.0000 0.93982  0.50916  0.80617  Biso   1.000  C
  C191     1.0000 0.96374  0.62597  0.82320  Biso   1.000  C
  H159     1.0000 0.96284  0.59285  0.77718  Biso   1.000  H
  C192     1.0000 0.42755  0.36269  0.79688  Biso   1.000  C
  H160     1.0000 0.51204  0.42346  0.82557  Biso   1.000  H
  C193     1.0000 0.46966  0.48428  0.81329  Biso   1.000  C
  H161     1.0000 0.82601  0.06628  0.32399  Biso   1.000  H
  H162     1.0000 0.78638  0.10069  0.30740  Biso   1.000  H
  C194     1.0000 0.45456  0.13839  0.65016  Biso   1.000  C
  H163     1.0000 0.93399  0.44282  0.56189  Biso   1.000  H
  C195     1.0000 0.90485  0.38936  0.60312  Biso   1.000  C
  C196     1.0000 0.84522  0.26895  0.59606  Biso   1.000  C
  H164     1.0000 0.82961  0.23789  0.55021  Biso   1.000  H
  N21      1.0000 0.91436  0.45869  0.78057  Biso   1.000  N
  H165     1.0000 0.91144  0.48799  0.82557  Biso   1.000  H
  C197     1.0000 0.01465  0.53038  0.81329  Biso   1.000  C
  H166     1.0000 0.93532  0.60676  0.84247  Biso   1.000  H
  H167     1.0000 0.96114  0.66697  0.81668  Biso   1.000  H
  C198     1.0000 0.03805  0.64719  0.83071  Biso   1.000  C
  N22      1.0000 0.44730  0.31092  0.79060  Biso   1.000  N
  C199     1.0000 0.37401  0.33776  0.82320  Biso   1.000  C
  H168     1.0000 0.40714  0.36995  0.77718  Biso   1.000  H
  H169     1.0000 0.51034  0.52755  0.82038  Biso   1.000  H
  H170     1.0000 0.45153  0.49397  0.79377  Biso   1.000  H
  C200     1.0000 0.41424  0.45827  0.83923  Biso   1.000  C
  C201     1.0000 0.45784  0.14895  0.67783  Biso   1.000  C
  C202     1.0000 0.87134  0.32519  0.61619  Biso   1.000  C
  H171     1.0000 0.92504  0.42876  0.61647  Biso   1.000  H
  H172     1.0000 0.82452  0.22388  0.60476  Biso   1.000  H
  C203     1.0000 0.86941  0.39735  0.78723  Biso   1.000  C
  H173     1.0000 0.01724  0.48969  0.82038  Biso   1.000  H
  H174     1.0000 0.04243  0.54846  0.79377  Biso   1.000  H
  C204     1.0000 0.04403  0.58575  0.83923  Biso   1.000  C
  H175     1.0000 0.05453  0.68015  0.84857  Biso   1.000  H
  H176     1.0000 0.06735  0.67047  0.81208  Biso   1.000  H
  C205     1.0000 0.43806  0.28718  0.76267  Biso   1.000  C
  C206     1.0000 0.35283  0.39086  0.83071  Biso   1.000  C
  H177     1.0000 0.39324  0.32859  0.84247  Biso   1.000  H
  H178     1.0000 0.33304  0.29419  0.81668  Biso   1.000  H
  H179     1.0000 0.39964  0.49268  0.84266  Biso   1.000  H
  H180     1.0000 0.43403  0.45307  0.85926  Biso   1.000  H
  C207     1.0000 0.46433  0.16569  0.71110  Biso   1.000  C
  C208     1.0000 0.86166  0.31618  0.65016  Biso   1.000  C
  C209     1.0000 0.84125  0.34147  0.76414  Biso   1.000  C
  H181     1.0000 0.85304  0.38725  0.80847  Biso   1.000  H
  H182     1.0000 0.09305  0.60037  0.84266  Biso   1.000  H
  H183     1.0000 0.01902  0.56597  0.85926  Biso   1.000  H
  C210     1.0000 0.45562  0.23506  0.75299  Biso   1.000  C
  H184     1.0000 0.41883  0.30377  0.74737  Biso   1.000  H
  H185     1.0000 0.31984  0.37438  0.84857  Biso   1.000  H
  H186     1.0000 0.32953  0.39688  0.81208  Biso   1.000  H
  C211     1.0000 0.44652  0.21436  0.72136  Biso   1.000  C
  C212     1.0000 0.49042  0.13865  0.73237  Biso   1.000  C
  C213     1.0000 0.85104  0.30886  0.67783  Biso   1.000  C
  C214     1.0000 0.86134  0.35177  0.73237  Biso   1.000  C
  C215     1.0000 0.79290  0.27554  0.77353  Biso   1.000  C
  C216     1.0000 0.48260  0.20704  0.77353  Biso   1.000  C
  H187     1.0000 0.42831  0.23326  0.70666  Biso   1.000  H
  C217     1.0000 0.50022  0.15878  0.76414  Biso   1.000  C
  H188     1.0000 0.50216  0.10548  0.72537  Biso   1.000  H
  C218     1.0000 0.83435  0.29867  0.71110  Biso   1.000  C
  H189     1.0000 0.89455  0.39668  0.72537  Biso   1.000  H
  C219     1.0000 0.76493  0.22059  0.75299  Biso   1.000  C
  H190     1.0000 0.77833  0.26807  0.79508  Biso   1.000  H
  H191     1.0000 0.48974  0.22167  0.79508  Biso   1.000  H
  C220     1.0000 0.52795  0.13056  0.78723  Biso   1.000  C
  C221     1.0000 0.78562  0.23218  0.72136  Biso   1.000  C
  C222     1.0000 0.71285  0.15085  0.76267  Biso   1.000  C
  N23      1.0000 0.54430  0.08565  0.78057  Biso   1.000  N
  H192     1.0000 0.53424  0.14699  0.80847  Biso   1.000  H
  H193     1.0000 0.76670  0.19504  0.70666  Biso   1.000  H
  N24      1.0000 0.68906  0.13638  0.79060  Biso   1.000  N
  H194     1.0000 0.69624  0.11506  0.74737  Biso   1.000  H
  C223     1.0000 0.56933  0.06016  0.80617  Biso   1.000  C
  C224     1.0000 0.63733  0.06484  0.79688  Biso   1.000  C
  H195     1.0000 0.57654  0.08859  0.82557  Biso   1.000  H
  C225     1.0000 0.51575  0.98537  0.81329  Biso   1.000  C
  C226     1.0000 0.66224  0.03626  0.82320  Biso   1.000  C
  H196     1.0000 0.63006  0.03719  0.77718  Biso   1.000  H
  H197     1.0000 0.47244  0.98280  0.82038  Biso   1.000  H
  H198     1.0000 0.50603  0.95756  0.79377  Biso   1.000  H
  C227     1.0000 0.54172  0.95596  0.83923  Biso   1.000  C
  H199     1.0000 0.67146  0.06469  0.84247  Biso   1.000  H
  H200     1.0000 0.70584  0.03888  0.81668  Biso   1.000  H
  C228     1.0000 0.60914  0.96199  0.83071  Biso   1.000  C
  H201     1.0000 0.50733  0.90699  0.84266  Biso   1.000  H
  H202     1.0000 0.54697  0.98100  0.85926  Biso   1.000  H
  H203     1.0000 0.62563  0.94546  0.84857  Biso   1.000  H
  H204     1.0000 0.60314  0.93269  0.81208  Biso   1.000  H
  C229     1.0000 0.35049  0.47172  0.48351  Biso   1.000  C
  C230     1.0000 0.34147  0.46198  0.44953  Biso   1.000  C
  C231     1.0000 0.35777  0.48228  0.51116  Biso   1.000  C
  C232     1.0000 0.27732  0.42851  0.43645  Biso   1.000  C
  C233     1.0000 0.39771  0.48810  0.42938  Biso   1.000  C
  C234     1.0000 0.36802  0.49901  0.54444  Biso   1.000  C
  C235     1.0000 0.26895  0.42372  0.40394  Biso   1.000  C
  H205     1.0000 0.23792  0.40832  0.44979  Biso   1.000  H
  C236     1.0000 0.38937  0.48454  0.39688  Biso   1.000  C
  H206     1.0000 0.44280  0.50880  0.43811  Biso   1.000  H
  C237     1.0000 0.43450  0.54768  0.55471  Biso   1.000  C
  C238     1.0000 0.31489  0.47197  0.56571  Biso   1.000  C
  C239     1.0000 0.32518  0.45385  0.38381  Biso   1.000  C
  H207     1.0000 0.22390  0.39936  0.39524  Biso   1.000  H
  H208     1.0000 0.42877  0.50375  0.38353  Biso   1.000  H
  H209     1.0000 0.47161  0.56659  0.54001  Biso   1.000  H
  C240     1.0000 0.44610  0.56839  0.58634  Biso   1.000  C
  C241     1.0000 0.32523  0.49211  0.59746  Biso   1.000  C
  H210     1.0000 0.26998  0.43881  0.55869  Biso   1.000  H
  C242     1.0000 0.31615  0.45452  0.34984  Biso   1.000  C
  C243     1.0000 0.39113  0.54042  0.60687  Biso   1.000  C
  C244     1.0000 0.51579  0.62051  0.59601  Biso   1.000  C
  C245     1.0000 0.26928  0.46389  0.62055  Biso   1.000  C
  C246     1.0000 0.30883  0.45781  0.32217  Biso   1.000  C
  H211     1.0000 0.39860  0.55500  0.62840  Biso   1.000  H
  N25      1.0000 0.53029  0.64425  0.62394  Biso   1.000  N
  H212     1.0000 0.55160  0.63709  0.58070  Biso   1.000  H
  N26      1.0000 0.20802  0.41898  0.61389  Biso   1.000  N
  H213     1.0000 0.27941  0.48032  0.64180  Biso   1.000  H
  C247     1.0000 0.29868  0.46435  0.28890  Biso   1.000  C
  C248     1.0000 0.60180  0.69601  0.63023  Biso   1.000  C
  C249     1.0000 0.15749  0.39348  0.63952  Biso   1.000  C
  C250     1.0000 0.23219  0.44653  0.27864  Biso   1.000  C
  C251     1.0000 0.35176  0.49041  0.26763  Biso   1.000  C
  C252     1.0000 0.60649  0.76400  0.63952  Biso   1.000  C
  C253     1.0000 0.63041  0.67109  0.65652  Biso   1.000  C
  H214     1.0000 0.62947  0.70328  0.61050  Biso   1.000  H
  H215     1.0000 0.17871  0.42191  0.65889  Biso   1.000  H
  C254     1.0000 0.13629  0.31870  0.64663  Biso   1.000  C
  C255     1.0000 0.09420  0.39822  0.63023  Biso   1.000  C
  H216     1.0000 0.19509  0.42835  0.29334  Biso   1.000  H
  C256     1.0000 0.22055  0.45565  0.24701  Biso   1.000  C
  C257     1.0000 0.34147  0.50025  0.23586  Biso   1.000  C
  H217     1.0000 0.39666  0.50216  0.27463  Biso   1.000  H
  N27      1.0000 0.58104  0.78903  0.61389  Biso   1.000  N
  H218     1.0000 0.57808  0.75679  0.65889  Biso   1.000  H
  C258     1.0000 0.68129  0.81761  0.64663  Biso   1.000  C
  C259     1.0000 0.70469  0.72419  0.66406  Biso   1.000  C
  H219     1.0000 0.60201  0.66192  0.67579  Biso   1.000  H
  H220     1.0000 0.62781  0.62751  0.65000  Biso   1.000  H
  H221     1.0000 0.17699  0.31607  0.65370  Biso   1.000  H
  H222     1.0000 0.11819  0.29089  0.62710  Biso   1.000  H
  C260     1.0000 0.08091  0.28929  0.67255  Biso   1.000  C
  N28      1.0000 0.11398  0.46971  0.62394  Biso   1.000  N
  C261     1.0000 0.04068  0.36959  0.65652  Biso   1.000  C
  H223     1.0000 0.07379  0.37051  0.61050  Biso   1.000  H
  C262     1.0000 0.27557  0.48264  0.22647  Biso   1.000  C
  C263     1.0000 0.15086  0.43803  0.23733  Biso   1.000  C
  C264     1.0000 0.39739  0.52796  0.21277  Biso   1.000  C
  C265     1.0000 0.53611  0.80541  0.62055  Biso   1.000  C
  H224     1.0000 0.68387  0.86088  0.65370  Biso   1.000  H
  H225     1.0000 0.70910  0.82730  0.62710  Biso   1.000  H
  C266     1.0000 0.71070  0.79160  0.67255  Biso   1.000  C
  H226     1.0000 0.72120  0.70770  0.68189  Biso   1.000  H
  H227     1.0000 0.73402  0.73021  0.64540  Biso   1.000  H
  H228     1.0000 0.06632  0.24031  0.67601  Biso   1.000  H
  H229     1.0000 0.10069  0.31432  0.69260  Biso   1.000  H
  C267     1.0000 0.01952  0.29532  0.66406  Biso   1.000  C
  C268     1.0000 0.10467  0.48418  0.59601  Biso   1.000  C
  H230     1.0000 0.05989  0.39802  0.67579  Biso   1.000  H
  H231     1.0000 0.99971  0.37221  0.65000  Biso   1.000  H
  H232     1.0000 0.26807  0.48974  0.20492  Biso   1.000  H
  N29      1.0000 0.13636  0.44730  0.20940  Biso   1.000  N
  H233     1.0000 0.11508  0.41882  0.25263  Biso   1.000  H
  N30      1.0000 0.45867  0.54429  0.21943  Biso   1.000  N
  H234     1.0000 0.38728  0.53424  0.19153  Biso   1.000  H
  C269     1.0000 0.50790  0.83311  0.59746  Biso   1.000  C
  H235     1.0000 0.51972  0.79912  0.64180  Biso   1.000  H
  H236     1.0000 0.75970  0.82601  0.67601  Biso   1.000  H
  H237     1.0000 0.68571  0.78640  0.69260  Biso   1.000  H
  H238     1.0000 0.98649  0.27879  0.68189  Biso   1.000  H
  H239     1.0000 0.99621  0.26601  0.64540  Biso   1.000  H
  C270     1.0000 0.12232  0.55392  0.58634  Biso   1.000  C
  H240     1.0000 0.08548  0.44839  0.58070  Biso   1.000  H
  C271     1.0000 0.06488  0.42753  0.20312  Biso   1.000  C
  C272     1.0000 0.50914  0.56932  0.19383  Biso   1.000  C
  C273     1.0000 0.45959  0.85068  0.60687  Biso   1.000  C
  C274     1.0000 0.52801  0.84290  0.56571  Biso   1.000  C
  C275     1.0000 0.11322  0.56550  0.55471  Biso   1.000  C
  C276     1.0000 0.14933  0.60892  0.60687  Biso   1.000  C
  C277     1.0000 0.06018  0.49082  0.19383  Biso   1.000  C
  C278     1.0000 0.03625  0.37402  0.17680  Biso   1.000  C
  H241     1.0000 0.03715  0.40713  0.22282  Biso   1.000  H
  H242     1.0000 0.48795  0.57653  0.17443  Biso   1.000  H
  C279     1.0000 0.53036  0.51575  0.18671  Biso   1.000  C
  C280     1.0000 0.57247  0.63735  0.20312  Biso   1.000  C
  C281     1.0000 0.43159  0.87772  0.58634  Biso   1.000  C
  H243     1.0000 0.44500  0.84362  0.62840  Biso   1.000  H
  C282     1.0000 0.50101  0.86901  0.54444  Biso   1.000  C
  H244     1.0000 0.56119  0.83121  0.55869  Biso   1.000  H
  C283     1.0000 0.13098  0.63200  0.54444  Biso   1.000  C
  H245     1.0000 0.09503  0.52842  0.54001  Biso   1.000  H
  H246     1.0000 0.15641  0.60140  0.62840  Biso   1.000  H
  C284     1.0000 0.16688  0.67479  0.59746  Biso   1.000  C
  N31      1.0000 0.08566  0.54135  0.21943  Biso   1.000  N
  H247     1.0000 0.08858  0.51204  0.17443  Biso   1.000  H
  C285     1.0000 0.98536  0.46966  0.18671  Biso   1.000  C
  H248     1.0000 0.06468  0.39323  0.15753  Biso   1.000  H
  H249     1.0000 0.03886  0.33302  0.18332  Biso   1.000  H
  C286     1.0000 0.96197  0.35285  0.16929  Biso   1.000  C
  H250     1.0000 0.48965  0.47244  0.17962  Biso   1.000  H
  H251     1.0000 0.54846  0.50602  0.20623  Biso   1.000  H
  C287     1.0000 0.58575  0.54171  0.16077  Biso   1.000  C
  N32      1.0000 0.55269  0.68906  0.20940  Biso   1.000  N
  C288     1.0000 0.62598  0.66223  0.17680  Biso   1.000  C
  H252     1.0000 0.59285  0.63004  0.22282  Biso   1.000  H
  C289     1.0000 0.45231  0.88678  0.55471  Biso   1.000  C
  C290     1.0000 0.37949  0.89528  0.59601  Biso   1.000  C
  C291     1.0000 0.51768  0.87550  0.51116  Biso   1.000  C
  C292     1.0000 0.12449  0.64219  0.51116  Biso   1.000  C
  C293     1.0000 0.15709  0.68509  0.56571  Biso   1.000  C
  C294     1.0000 0.19460  0.73068  0.62055  Biso   1.000  C
  C295     1.0000 0.13058  0.60264  0.21277  Biso   1.000  C
  H253     1.0000 0.98278  0.51034  0.17962  Biso   1.000  H
  H254     1.0000 0.95757  0.45153  0.20623  Biso   1.000  H
  C296     1.0000 0.95596  0.41424  0.16077  Biso   1.000  C
  H255     1.0000 0.94547  0.31983  0.15143  Biso   1.000  H
  H256     1.0000 0.93264  0.32952  0.18792  Biso   1.000  H
  H257     1.0000 0.60038  0.50736  0.15734  Biso   1.000  H
  H258     1.0000 0.56596  0.54691  0.14074  Biso   1.000  H
  C297     1.0000 0.64716  0.60913  0.16929  Biso   1.000  C
  C298     1.0000 0.56196  0.71286  0.23733  Biso   1.000  C
  H259     1.0000 0.60678  0.67145  0.15753  Biso   1.000  H
  H260     1.0000 0.66698  0.70585  0.18332  Biso   1.000  H
  H261     1.0000 0.43342  0.90501  0.54001  Biso   1.000  H
  N33      1.0000 0.35572  0.88601  0.62394  Biso   1.000  N
  H262     1.0000 0.36291  0.91449  0.58070  Biso   1.000  H
  C299     1.0000 0.52829  0.87880  0.48351  Biso   1.000  C
  C300     1.0000 0.12118  0.64951  0.48351  Biso   1.000  C
  H263     1.0000 0.16879  0.73001  0.55869  Biso   1.000  H
  N34      1.0000 0.21099  0.79202  0.61389  Biso   1.000  N
  H264     1.0000 0.20088  0.72058  0.64180  Biso   1.000  H
  C301     1.0000 0.15874  0.65852  0.23586  Biso   1.000  C
  H265     1.0000 0.14696  0.61273  0.19153  Biso   1.000  H
  H266     1.0000 0.90694  0.39961  0.15734  Biso   1.000  H
  H267     1.0000 0.98097  0.43402  0.14074  Biso   1.000  H
  H268     1.0000 0.68015  0.62561  0.15143  Biso   1.000  H
  H269     1.0000 0.67049  0.60315  0.18792  Biso   1.000  H
  C302     1.0000 0.54437  0.76492  0.24701  Biso   1.000  C
  H270     1.0000 0.58116  0.69622  0.25263  Biso   1.000  H
  C303     1.0000 0.30401  0.90579  0.63023  Biso   1.000  C
  C304     1.0000 0.53802  0.87952  0.44953  Biso   1.000  C
  C305     1.0000 0.12052  0.65852  0.44953  Biso   1.000  C
  C306     1.0000 0.23601  0.84249  0.63952  Biso   1.000  C
  C307     1.0000 0.20709  0.72444  0.22647  Biso   1.000  C
  C308     1.0000 0.13865  0.64822  0.26763  Biso   1.000  C
  C309     1.0000 0.55347  0.78563  0.27864  Biso   1.000  C
  C310     1.0000 0.51739  0.79294  0.22647  Biso   1.000  C
  C311     1.0000 0.32889  0.95930  0.65652  Biso   1.000  C
  H271     1.0000 0.29668  0.92618  0.61050  Biso   1.000  H
  C312     1.0000 0.57151  0.84882  0.43645  Biso   1.000  C
  C313     1.0000 0.51189  0.90960  0.42938  Biso   1.000  C
  C314     1.0000 0.15118  0.72269  0.43645  Biso   1.000  C
  C315     1.0000 0.09039  0.60228  0.42938  Biso   1.000  C
  H272     1.0000 0.24322  0.82132  0.65889  Biso   1.000  H
  C316     1.0000 0.18239  0.86371  0.64663  Biso   1.000  C
  C317     1.0000 0.23509  0.77945  0.24701  Biso   1.000  C
  H273     1.0000 0.22166  0.73191  0.20492  Biso   1.000  H
  C318     1.0000 0.16565  0.70132  0.28890  Biso   1.000  C
  H274     1.0000 0.10545  0.60331  0.27463  Biso   1.000  H
  C319     1.0000 0.53569  0.83435  0.28890  Biso   1.000  C
  H275     1.0000 0.57168  0.76673  0.29334  Biso   1.000  H
  H276     1.0000 0.51026  0.77832  0.20492  Biso   1.000  H
  C320     1.0000 0.49980  0.84125  0.23586  Biso   1.000  C
  C321     1.0000 0.27581  0.98052  0.66406  Biso   1.000  C
  H277     1.0000 0.33811  0.94009  0.67579  Biso   1.000  H
  H278     1.0000 0.37249  0.00029  0.65000  Biso   1.000  H
  C322     1.0000 0.57627  0.84522  0.40394  Biso   1.000  C
  H279     1.0000 0.59170  0.82961  0.44979  Biso   1.000  H
  C323     1.0000 0.51550  0.90486  0.39688  Biso   1.000  C
  H280     1.0000 0.49122  0.93401  0.43811  Biso   1.000  H
  C324     1.0000 0.15477  0.73104  0.40394  Biso   1.000  C
  H281     1.0000 0.17039  0.76209  0.44979  Biso   1.000  H
  C325     1.0000 0.09514  0.61062  0.39688  Biso   1.000  C
  H282     1.0000 0.06603  0.55721  0.43811  Biso   1.000  H
  H283     1.0000 0.13912  0.82302  0.65370  Biso   1.000  H
  H284     1.0000 0.17269  0.88179  0.62710  Biso   1.000  H
  C326     1.0000 0.20840  0.91913  0.67255  Biso   1.000  C
  C327     1.0000 0.21437  0.76781  0.27864  Biso   1.000  C
  C328     1.0000 0.28714  0.84913  0.23733  Biso   1.000  C
  C329     1.0000 0.14895  0.69112  0.32217  Biso   1.000  C
  C330     1.0000 0.54216  0.85104  0.32217  Biso   1.000  C
  C331     1.0000 0.50957  0.86134  0.26763  Biso   1.000  C
  C332     1.0000 0.47205  0.86942  0.21277  Biso   1.000  C
  H285     1.0000 0.29229  0.01348  0.68189  Biso   1.000  H
  H286     1.0000 0.26978  0.00380  0.64540  Biso   1.000  H
  C333     1.0000 0.54615  0.87133  0.38381  Biso   1.000  C
  H287     1.0000 0.60066  0.82451  0.39524  Biso   1.000  H
  H288     1.0000 0.49629  0.92505  0.38353  Biso   1.000  H
  C334     1.0000 0.12868  0.67485  0.38381  Biso   1.000  C
  H289     1.0000 0.17550  0.77615  0.39524  Biso   1.000  H
  H290     1.0000 0.07495  0.57122  0.38353  Biso   1.000  H
  H291     1.0000 0.17399  0.93370  0.67601  Biso   1.000  H
  H292     1.0000 0.21361  0.89930  0.69260  Biso   1.000  H
  H293     1.0000 0.23329  0.80494  0.29334  Biso   1.000  H
  N35      1.0000 0.31095  0.86366  0.20940  Biso   1.000  N
  H294     1.0000 0.30375  0.88493  0.25263  Biso   1.000  H
  C335     1.0000 0.13836  0.68386  0.34984  Biso   1.000  C
  C336     1.0000 0.54545  0.86165  0.34984  Biso   1.000  C
  H295     1.0000 0.49786  0.89456  0.27463  Biso   1.000  H
  N36      1.0000 0.45572  0.91439  0.21943  Biso   1.000  N
  H296     1.0000 0.46577  0.85305  0.19153  Biso   1.000  H
  C337     1.0000 0.36266  0.93514  0.20312  Biso   1.000  C
  C338     1.0000 0.43066  0.93983  0.19383  Biso   1.000  C
  C339     1.0000 0.33775  0.96373  0.17680  Biso   1.000  C
  H297     1.0000 0.36996  0.96285  0.22282  Biso   1.000  H
  H298     1.0000 0.42348  0.91145  0.17443  Biso   1.000  H
  C340     1.0000 0.48425  0.01461  0.18671  Biso   1.000  C
  H299     1.0000 0.32856  0.93535  0.15753  Biso   1.000  H
  H300     1.0000 0.29418  0.96115  0.18332  Biso   1.000  H
  C341     1.0000 0.39085  0.03799  0.16929  Biso   1.000  C
  H301     1.0000 0.52758  0.01724  0.17962  Biso   1.000  H
  H302     1.0000 0.49396  0.04242  0.20623  Biso   1.000  H
  C342     1.0000 0.45827  0.04402  0.16077  Biso   1.000  C
  H303     1.0000 0.37436  0.05453  0.15143  Biso   1.000  H
  H304     1.0000 0.39685  0.06730  0.18792  Biso   1.000  H
  H305     1.0000 0.49266  0.09300  0.15734  Biso   1.000  H
  H306     1.0000 0.45305  0.01904  0.14074  Biso   1.000  H
  C343     1.0000 0.45828  0.41424  0.66079  Biso   1.000  C
  C344     1.0000 0.48429  0.46966  0.68670  Biso   1.000  C
  H307     1.0000 0.49267  0.39961  0.65733  Biso   1.000  H
  H308     1.0000 0.45305  0.43402  0.64073  Biso   1.000  H
  C345     1.0000 0.39088  0.35285  0.66927  Biso   1.000  C
  C346     1.0000 0.43065  0.49082  0.69381  Biso   1.000  C
  H309     1.0000 0.52756  0.51034  0.67964  Biso   1.000  H
  H310     1.0000 0.49396  0.45153  0.70624  Biso   1.000  H
  H311     1.0000 0.37437  0.31983  0.65145  Biso   1.000  H
  H312     1.0000 0.39687  0.32952  0.68793  Biso   1.000  H
  C347     1.0000 0.33777  0.37402  0.67681  Biso   1.000  C
  N37      1.0000 0.45569  0.54135  0.71944  Biso   1.000  N
  H313     1.0000 0.42346  0.51204  0.67444  Biso   1.000  H
  C348     1.0000 0.36265  0.42753  0.70311  Biso   1.000  C
  H314     1.0000 0.32855  0.39323  0.65754  Biso   1.000  H
  H315     1.0000 0.29416  0.33302  0.68333  Biso   1.000  H
  C349     1.0000 0.47206  0.60264  0.71278  Biso   1.000  C
  N38      1.0000 0.31094  0.44730  0.70939  Biso   1.000  N
  H316     1.0000 0.36998  0.40713  0.72283  Biso   1.000  H
  C350     1.0000 0.49978  0.65852  0.73588  Biso   1.000  C
  H317     1.0000 0.46578  0.61273  0.69154  Biso   1.000  H
  C351     1.0000 0.28717  0.43803  0.73732  Biso   1.000  C
  C352     1.0000 0.51735  0.72444  0.72646  Biso   1.000  C
  C353     1.0000 0.50957  0.64822  0.76762  Biso   1.000  C
  C354     1.0000 0.23509  0.45565  0.74699  Biso   1.000  C
  H318     1.0000 0.30375  0.41882  0.75264  Biso   1.000  H
  C355     1.0000 0.54436  0.77945  0.74699  Biso   1.000  C
  H319     1.0000 0.51025  0.73191  0.70493  Biso   1.000  H
  C356     1.0000 0.53567  0.70132  0.78889  Biso   1.000  C
  H320     1.0000 0.49786  0.60331  0.77464  Biso   1.000  H
  C357     1.0000 0.21435  0.44653  0.77862  Biso   1.000  C
  C358     1.0000 0.20706  0.48264  0.72646  Biso   1.000  C
  C359     1.0000 0.55344  0.76781  0.77862  Biso   1.000  C
  C360     1.0000 0.56199  0.84913  0.73732  Biso   1.000  C
  C361     1.0000 0.54217  0.69112  0.82218  Biso   1.000  C
  C362     1.0000 0.16567  0.46435  0.78889  Biso   1.000  C
  H321     1.0000 0.23327  0.42835  0.79332  Biso   1.000  H
  H322     1.0000 0.22168  0.48974  0.70493  Biso   1.000  H
  C363     1.0000 0.15878  0.50025  0.73588  Biso   1.000  C
  H323     1.0000 0.57165  0.80494  0.79332  Biso   1.000  H
  N39      1.0000 0.55270  0.86366  0.70939  Biso   1.000  N
  H324     1.0000 0.58118  0.88493  0.75264  Biso   1.000  H
  C364     1.0000 0.54550  0.68386  0.84982  Biso   1.000  C
  C365     1.0000 0.14898  0.45781  0.82218  Biso   1.000  C
  C366     1.0000 0.13865  0.49041  0.76762  Biso   1.000  C
  C367     1.0000 0.13057  0.52796  0.71278  Biso   1.000  C
  C368     1.0000 0.57248  0.93514  0.70311  Biso   1.000  C
  C369     1.0000 0.54617  0.67485  0.88380  Biso   1.000  C
  C370     1.0000 0.13836  0.45452  0.84982  Biso   1.000  C
  H325     1.0000 0.10549  0.50216  0.77464  Biso   1.000  H
  N40      1.0000 0.08561  0.54429  0.71944  Biso   1.000  N
  H326     1.0000 0.14696  0.53424  0.69154  Biso   1.000  H
  C371     1.0000 0.50917  0.93983  0.69381  Biso   1.000  C
  C372     1.0000 0.62598  0.96373  0.67681  Biso   1.000  C
  H327     1.0000 0.59289  0.96285  0.72283  Biso   1.000  H
  C373     1.0000 0.57627  0.73104  0.90395  Biso   1.000  C
  C374     1.0000 0.51548  0.61062  0.89689  Biso   1.000  C
  C375     1.0000 0.12866  0.45385  0.88380  Biso   1.000  C
  C376     1.0000 0.06017  0.56932  0.69381  Biso   1.000  C
  N41      1.0000 0.45867  0.91439  0.71944  Biso   1.000  N
  H328     1.0000 0.48797  0.91145  0.67444  Biso   1.000  H
  C377     1.0000 0.53037  0.01461  0.68670  Biso   1.000  C
  H329     1.0000 0.60679  0.93535  0.65754  Biso   1.000  H
  H330     1.0000 0.66697  0.96115  0.68333  Biso   1.000  H
  C378     1.0000 0.64714  0.03799  0.66927  Biso   1.000  C
  H331     1.0000 0.60065  0.77615  0.89523  Biso   1.000  H
  C379     1.0000 0.57152  0.72269  0.93646  Biso   1.000  C
  C380     1.0000 0.51189  0.60228  0.92939  Biso   1.000  C
  H332     1.0000 0.49627  0.57122  0.88354  Biso   1.000  H
  C381     1.0000 0.15477  0.42372  0.90395  Biso   1.000  C
  C382     1.0000 0.09517  0.48454  0.89689  Biso   1.000  C
  H333     1.0000 0.08858  0.57653  0.67444  Biso   1.000  H
  C383     1.0000 0.06488  0.63735  0.70311  Biso   1.000  C
  C384     1.0000 0.98540  0.51575  0.68670  Biso   1.000  C
  C385     1.0000 0.39738  0.86942  0.71278  Biso   1.000  C
  H334     1.0000 0.48966  0.01724  0.67964  Biso   1.000  H
  H335     1.0000 0.54846  0.04242  0.70624  Biso   1.000  H
  C386     1.0000 0.58575  0.04402  0.66079  Biso   1.000  C
  H336     1.0000 0.68016  0.05453  0.65145  Biso   1.000  H
  H337     1.0000 0.67045  0.06730  0.68793  Biso   1.000  H
  C387     1.0000 0.53800  0.65852  0.94952  Biso   1.000  C
  H338     1.0000 0.59171  0.76209  0.94981  Biso   1.000  H
  H339     1.0000 0.49118  0.55721  0.93809  Biso   1.000  H
  H340     1.0000 0.17546  0.39936  0.89523  Biso   1.000  H
  C388     1.0000 0.15118  0.42851  0.93646  Biso   1.000  C
  C389     1.0000 0.09039  0.48810  0.92939  Biso   1.000  C
  H341     1.0000 0.07498  0.50375  0.88354  Biso   1.000  H
  N42      1.0000 0.13637  0.68906  0.70939  Biso   1.000  N
  C390     1.0000 0.03624  0.66223  0.67681  Biso   1.000  C
  H342     1.0000 0.03719  0.63004  0.72283  Biso   1.000  H
  H343     1.0000 0.98278  0.47244  0.67964  Biso   1.000  H
  H344     1.0000 0.95756  0.50602  0.70624  Biso   1.000  H
  C391     1.0000 0.95596  0.54171  0.66079  Biso   1.000  C
  C392     1.0000 0.34146  0.84125  0.73588  Biso   1.000  C
  H345     1.0000 0.38727  0.85305  0.69154  Biso   1.000  H
  H346     1.0000 0.60034  0.09300  0.65733  Biso   1.000  H
  H347     1.0000 0.56599  0.01904  0.64073  Biso   1.000  H
  C393     1.0000 0.52832  0.64951  0.98350  Biso   1.000  C
  C394     1.0000 0.12051  0.46198  0.94952  Biso   1.000  C
  H348     1.0000 0.17039  0.40832  0.94981  Biso   1.000  H
  H349     1.0000 0.06600  0.50880  0.93809  Biso   1.000  H
  C395     1.0000 0.15090  0.71286  0.73732  Biso   1.000  C
  H350     1.0000 0.06467  0.67145  0.65754  Biso   1.000  H
  H351     1.0000 0.03888  0.70585  0.68333  Biso   1.000  H
  C396     1.0000 0.96197  0.60913  0.66927  Biso   1.000  C
  H352     1.0000 0.90698  0.50736  0.65733  Biso   1.000  H
  H353     1.0000 0.98095  0.54691  0.64073  Biso   1.000  H
  C397     1.0000 0.27555  0.79294  0.72646  Biso   1.000  C
  C398     1.0000 0.35177  0.86134  0.76762  Biso   1.000  C
  C399     1.0000 0.51771  0.64219  0.01117  Biso   1.000  C
  C400     1.0000 0.12123  0.47172  0.98350  Biso   1.000  C
  C401     1.0000 0.22055  0.76492  0.74699  Biso   1.000  C
  H354     1.0000 0.11506  0.69622  0.75264  Biso   1.000  H
  H355     1.0000 0.94545  0.62561  0.65145  Biso   1.000  H
  H356     1.0000 0.93266  0.60315  0.68793  Biso   1.000  H
  H357     1.0000 0.26806  0.77832  0.70493  Biso   1.000  H
  C402     1.0000 0.29867  0.83435  0.78889  Biso   1.000  C
  H358     1.0000 0.39670  0.89456  0.77464  Biso   1.000  H
  C403     1.0000 0.50101  0.63200  0.04443  Biso   1.000  C
  C404     1.0000 0.12450  0.48228  0.01117  Biso   1.000  C
  C405     1.0000 0.23215  0.78563  0.77862  Biso   1.000  C
  C406     1.0000 0.30888  0.85104  0.82218  Biso   1.000  C
  C407     1.0000 0.45229  0.56550  0.05470  Biso   1.000  C
  C408     1.0000 0.52801  0.68509  0.06570  Biso   1.000  C
  C409     1.0000 0.13100  0.49901  0.04443  Biso   1.000  C
  H359     1.0000 0.19505  0.76673  0.79332  Biso   1.000  H
  C410     1.0000 0.31619  0.86165  0.84982  Biso   1.000  C
  H360     1.0000 0.43339  0.52842  0.04000  Biso   1.000  H
  C411     1.0000 0.43160  0.55392  0.08633  Biso   1.000  C
  C412     1.0000 0.50791  0.67479  0.09747  Biso   1.000  C
  H361     1.0000 0.56121  0.73001  0.05870  Biso   1.000  H
  C413     1.0000 0.11318  0.54768  0.05470  Biso   1.000  C
  C414     1.0000 0.15708  0.47197  0.06570  Biso   1.000  C
  C415     1.0000 0.32518  0.87133  0.88380  Biso   1.000  C
  C416     1.0000 0.45959  0.60892  0.10686  Biso   1.000  C
  C417     1.0000 0.37951  0.48418  0.09600  Biso   1.000  C
  C418     1.0000 0.53608  0.73068  0.12056  Biso   1.000  C
  H362     1.0000 0.09498  0.56659  0.04000  Biso   1.000  H
  C419     1.0000 0.12229  0.56839  0.08633  Biso   1.000  C
  C420     1.0000 0.16689  0.49211  0.09747  Biso   1.000  C
  H363     1.0000 0.16882  0.43881  0.05870  Biso   1.000  H
  C421     1.0000 0.26895  0.84522  0.90395  Biso   1.000  C
  C422     1.0000 0.38936  0.90486  0.89689  Biso   1.000  C
  H364     1.0000 0.44499  0.60140  0.12841  Biso   1.000  H
  N43      1.0000 0.35573  0.46971  0.12393  Biso   1.000  N
  H365     1.0000 0.36291  0.44839  0.08071  Biso   1.000  H
  N44      1.0000 0.58102  0.79202  0.11390  Biso   1.000  N
  H366     1.0000 0.51970  0.72058  0.14181  Biso   1.000  H
  C423     1.0000 0.14929  0.54042  0.10686  Biso   1.000  C
  C424     1.0000 0.10472  0.62051  0.09600  Biso   1.000  C
  C425     1.0000 0.19461  0.46389  0.12056  Biso   1.000  C
  H367     1.0000 0.22385  0.82451  0.89523  Biso   1.000  H
  C426     1.0000 0.27731  0.84882  0.93646  Biso   1.000  C
  C427     1.0000 0.39771  0.90960  0.92939  Biso   1.000  C
  H368     1.0000 0.42876  0.92505  0.88354  Biso   1.000  H
  C428     1.0000 0.30402  0.39822  0.13021  Biso   1.000  C
  C429     1.0000 0.60648  0.84249  0.13951  Biso   1.000  C
  H369     1.0000 0.15640  0.55500  0.12841  Biso   1.000  H
  N45      1.0000 0.11396  0.64425  0.12393  Biso   1.000  N
  H370     1.0000 0.08550  0.63709  0.08071  Biso   1.000  H
  N46      1.0000 0.21096  0.41898  0.11390  Biso   1.000  N
  H371     1.0000 0.20091  0.48032  0.14181  Biso   1.000  H
  C430     1.0000 0.34150  0.87952  0.94952  Biso   1.000  C
  H372     1.0000 0.23791  0.82961  0.94981  Biso   1.000  H
  H373     1.0000 0.44279  0.93401  0.93809  Biso   1.000  H
  C431     1.0000 0.23599  0.39348  0.13951  Biso   1.000  C
  C432     1.0000 0.32891  0.36959  0.15653  Biso   1.000  C
  H374     1.0000 0.29672  0.37051  0.11051  Biso   1.000  H
  H375     1.0000 0.57810  0.82132  0.15890  Biso   1.000  H
  C433     1.0000 0.68132  0.86371  0.14662  Biso   1.000  C
  C434     1.0000 0.60178  0.90579  0.13021  Biso   1.000  C
  C435     1.0000 0.09422  0.69601  0.13021  Biso   1.000  C
  C436     1.0000 0.35051  0.87880  0.98350  Biso   1.000  C
  H376     1.0000 0.24320  0.42191  0.15890  Biso   1.000  H
  C437     1.0000 0.18241  0.31870  0.14662  Biso   1.000  C
  C438     1.0000 0.27580  0.29532  0.16405  Biso   1.000  C
  H377     1.0000 0.33813  0.39802  0.17581  Biso   1.000  H
  H378     1.0000 0.37250  0.37221  0.15001  Biso   1.000  H
  H379     1.0000 0.68390  0.82302  0.15371  Biso   1.000  H
  H380     1.0000 0.70909  0.88179  0.12711  Biso   1.000  H
  C439     1.0000 0.71072  0.91913  0.17256  Biso   1.000  C
  N47      1.0000 0.53029  0.88601  0.12393  Biso   1.000  N
  C440     1.0000 0.63041  0.95930  0.15653  Biso   1.000  C
  H381     1.0000 0.62950  0.92618  0.11051  Biso   1.000  H
  C441     1.0000 0.15751  0.76400  0.13951  Biso   1.000  C
  C442     1.0000 0.04067  0.67109  0.15653  Biso   1.000  C
  H382     1.0000 0.07381  0.70328  0.11051  Biso   1.000  H
  C443     1.0000 0.35782  0.87550  0.01117  Biso   1.000  C
  H383     1.0000 0.13908  0.31607  0.15371  Biso   1.000  H
  H384     1.0000 0.17270  0.29089  0.12711  Biso   1.000  H
  C444     1.0000 0.20838  0.28929  0.17256  Biso   1.000  C
  H385     1.0000 0.29229  0.27879  0.18190  Biso   1.000  H
  H386     1.0000 0.26980  0.26601  0.14541  Biso   1.000  H
  H387     1.0000 0.75971  0.93370  0.17600  Biso   1.000  H
  H388     1.0000 0.68569  0.89930  0.19259  Biso   1.000  H
  C445     1.0000 0.70471  0.98052  0.16405  Biso   1.000  C
  C446     1.0000 0.51579  0.89528  0.09600  Biso   1.000  C
  H389     1.0000 0.60198  0.94009  0.17581  Biso   1.000  H
  H390     1.0000 0.62780  0.00029  0.15001  Biso   1.000  H
  N48      1.0000 0.20798  0.78903  0.11390  Biso   1.000  N
  H391     1.0000 0.17871  0.75679  0.15890  Biso   1.000  H
  C447     1.0000 0.13633  0.81761  0.14662  Biso   1.000  C
  H392     1.0000 0.99971  0.62751  0.15001  Biso   1.000  H
  C448     1.0000 0.01950  0.72419  0.16405  Biso   1.000  C
  H393     1.0000 0.05991  0.66192  0.17581  Biso   1.000  H
  C449     1.0000 0.36800  0.86901  0.04443  Biso   1.000  C
  H394     1.0000 0.17399  0.24031  0.17600  Biso   1.000  H
  H395     1.0000 0.21363  0.31432  0.19259  Biso   1.000  H
  H396     1.0000 0.72119  0.01348  0.18190  Biso   1.000  H
  H397     1.0000 0.73401  0.00380  0.14541  Biso   1.000  H
  C450     1.0000 0.44613  0.87772  0.08633  Biso   1.000  C
  H398     1.0000 0.55158  0.91449  0.08071  Biso   1.000  H
  C451     1.0000 0.26930  0.80541  0.12056  Biso   1.000  C
  H399     1.0000 0.17700  0.86088  0.15371  Biso   1.000  H
  H400     1.0000 0.11820  0.82730  0.12711  Biso   1.000  H
  C452     1.0000 0.08090  0.79160  0.17256  Biso   1.000  C
  H401     1.0000 0.98650  0.70770  0.18190  Biso   1.000  H
  H402     1.0000 0.99619  0.73021  0.14541  Biso   1.000  H
  C453     1.0000 0.43447  0.88678  0.05470  Biso   1.000  C
  C454     1.0000 0.31489  0.84290  0.06570  Biso   1.000  C
  C455     1.0000 0.39108  0.85068  0.10686  Biso   1.000  C
  C456     1.0000 0.32521  0.83311  0.09747  Biso   1.000  C
  H403     1.0000 0.27940  0.79912  0.14181  Biso   1.000  H
  H404     1.0000 0.06630  0.82601  0.17600  Biso   1.000  H
  H405     1.0000 0.10069  0.78640  0.19259  Biso   1.000  H
  H406     1.0000 0.47160  0.90501  0.04000  Biso   1.000  H
  H407     1.0000 0.27002  0.83121  0.05870  Biso   1.000  H
  H408     1.0000 0.39862  0.84362  0.12841  Biso   1.000  H
  C457     1.0000 0.54171  0.58575  0.33921  Biso   1.000  C
  C458     1.0000 0.51572  0.53038  0.31330  Biso   1.000  C
  H409     1.0000 0.50732  0.60037  0.34267  Biso   1.000  H
  H410     1.0000 0.54694  0.56597  0.35927  Biso   1.000  H
  C459     1.0000 0.60914  0.64719  0.33073  Biso   1.000  C
  C460     1.0000 0.56934  0.50916  0.30619  Biso   1.000  C
  H411     1.0000 0.47246  0.48969  0.32036  Biso   1.000  H
  H412     1.0000 0.50603  0.54846  0.29376  Biso   1.000  H
  C461     1.0000 0.66223  0.62597  0.32319  Biso   1.000  C
  H413     1.0000 0.62562  0.68015  0.34855  Biso   1.000  H
  H414     1.0000 0.60312  0.67047  0.31207  Biso   1.000  H
  N49      1.0000 0.54433  0.45869  0.28056  Biso   1.000  N
  H415     1.0000 0.57656  0.48799  0.32556  Biso   1.000  H
  C462     1.0000 0.63734  0.57246  0.29689  Biso   1.000  C
  H416     1.0000 0.67144  0.60676  0.34246  Biso   1.000  H
  H417     1.0000 0.70583  0.66697  0.31667  Biso   1.000  H
  C463     1.0000 0.52793  0.39735  0.28722  Biso   1.000  C
  N50      1.0000 0.68905  0.55268  0.29061  Biso   1.000  N
  H418     1.0000 0.63001  0.59285  0.27717  Biso   1.000  H
  C464     1.0000 0.50022  0.34147  0.26412  Biso   1.000  C
  H419     1.0000 0.53421  0.38725  0.30846  Biso   1.000  H
  C465     1.0000 0.71282  0.56195  0.26268  Biso   1.000  C
  C466     1.0000 0.49042  0.35177  0.23238  Biso   1.000  C
  C467     1.0000 0.48264  0.27554  0.27354  Biso   1.000  C
  C468     1.0000 0.76492  0.54439  0.25301  Biso   1.000  C
  H420     1.0000 0.69625  0.58116  0.24736  Biso   1.000  H
  C469     1.0000 0.46432  0.29867  0.21111  Biso   1.000  C
  H421     1.0000 0.50213  0.39668  0.22536  Biso   1.000  H
  C470     1.0000 0.45566  0.22059  0.25301  Biso   1.000  C
  H422     1.0000 0.48975  0.26807  0.29507  Biso   1.000  H
  C471     1.0000 0.78565  0.55345  0.22138  Biso   1.000  C
  C472     1.0000 0.79293  0.51735  0.27354  Biso   1.000  C
  C473     1.0000 0.45782  0.30886  0.17782  Biso   1.000  C
  C474     1.0000 0.44655  0.23218  0.22138  Biso   1.000  C
  C475     1.0000 0.43800  0.15085  0.26268  Biso   1.000  C
  C476     1.0000 0.83435  0.53568  0.21111  Biso   1.000  C
  H423     1.0000 0.76675  0.57168  0.20668  Biso   1.000  H
  H424     1.0000 0.77831  0.51024  0.29507  Biso   1.000  H
  C477     1.0000 0.84124  0.49979  0.26412  Biso   1.000  C
  C478     1.0000 0.45452  0.31618  0.15018  Biso   1.000  C
  H425     1.0000 0.42834  0.19504  0.20668  Biso   1.000  H
  N51      1.0000 0.44732  0.13638  0.29061  Biso   1.000  N
  H426     1.0000 0.41881  0.11506  0.24736  Biso   1.000  H
  C479     1.0000 0.85102  0.54217  0.17782  Biso   1.000  C
  C480     1.0000 0.86134  0.50957  0.23238  Biso   1.000  C
  C481     1.0000 0.86945  0.47208  0.28722  Biso   1.000  C
  C482     1.0000 0.45385  0.32519  0.11620  Biso   1.000  C
  C483     1.0000 0.42751  0.06484  0.29689  Biso   1.000  C
  C484     1.0000 0.86163  0.54547  0.15018  Biso   1.000  C
  H427     1.0000 0.89452  0.49788  0.22536  Biso   1.000  H
  N52      1.0000 0.91438  0.45570  0.28056  Biso   1.000  N
  H428     1.0000 0.85303  0.46574  0.30846  Biso   1.000  H
  C485     1.0000 0.42373  0.26895  0.09605  Biso   1.000  C
  C486     1.0000 0.48451  0.38936  0.10311  Biso   1.000  C
  C487     1.0000 0.49083  0.06016  0.30619  Biso   1.000  C
  C488     1.0000 0.37402  0.03626  0.32319  Biso   1.000  C
  H429     1.0000 0.40713  0.03719  0.27717  Biso   1.000  H
  C489     1.0000 0.87136  0.54619  0.11620  Biso   1.000  C
  C490     1.0000 0.93982  0.43067  0.30619  Biso   1.000  C
  H430     1.0000 0.39936  0.22388  0.10477  Biso   1.000  H
  C491     1.0000 0.42848  0.27729  0.06354  Biso   1.000  C
  C492     1.0000 0.48810  0.39771  0.07061  Biso   1.000  C
  H431     1.0000 0.50372  0.42876  0.11646  Biso   1.000  H
  N53      1.0000 0.54135  0.08565  0.28056  Biso   1.000  N
  H432     1.0000 0.51204  0.08859  0.32556  Biso   1.000  H
  C493     1.0000 0.46963  0.98537  0.31330  Biso   1.000  C
  H433     1.0000 0.39323  0.06469  0.34246  Biso   1.000  H
  H434     1.0000 0.33305  0.03888  0.31667  Biso   1.000  H
  C494     1.0000 0.35285  0.96199  0.33073  Biso   1.000  C
  C495     1.0000 0.84523  0.57627  0.09605  Biso   1.000  C
  C496     1.0000 0.90482  0.51544  0.10311  Biso   1.000  C
  C497     1.0000 0.93513  0.36269  0.29689  Biso   1.000  C
  H435     1.0000 0.91142  0.42346  0.32556  Biso   1.000  H
  C498     1.0000 0.01462  0.48428  0.31330  Biso   1.000  C
  C499     1.0000 0.46202  0.34152  0.05048  Biso   1.000  C
  H436     1.0000 0.40829  0.23789  0.05019  Biso   1.000  H
  H437     1.0000 0.50883  0.44282  0.06191  Biso   1.000  H
  C500     1.0000 0.60261  0.13056  0.28722  Biso   1.000  C
  H438     1.0000 0.51036  0.98280  0.32036  Biso   1.000  H
  H439     1.0000 0.45153  0.95756  0.29376  Biso   1.000  H
  C501     1.0000 0.41424  0.95596  0.33921  Biso   1.000  C
  H440     1.0000 0.31983  0.94546  0.34855  Biso   1.000  H
  H441     1.0000 0.32955  0.93269  0.31207  Biso   1.000  H
  H442     1.0000 0.82456  0.60068  0.10477  Biso   1.000  H
  C502     1.0000 0.84881  0.57148  0.06354  Biso   1.000  C
  C503     1.0000 0.90960  0.51189  0.07061  Biso   1.000  C
  H443     1.0000 0.92504  0.49628  0.11646  Biso   1.000  H
  N54      1.0000 0.86362  0.31092  0.29061  Biso   1.000  N
  C504     1.0000 0.96375  0.33776  0.32319  Biso   1.000  C
  H444     1.0000 0.96281  0.36995  0.27717  Biso   1.000  H
  H445     1.0000 0.01721  0.52755  0.32036  Biso   1.000  H
  H446     1.0000 0.04243  0.49397  0.29376  Biso   1.000  H
  C505     1.0000 0.04403  0.45827  0.33921  Biso   1.000  C
  C506     1.0000 0.47167  0.35048  0.01650  Biso   1.000  C
  C507     1.0000 0.65856  0.15878  0.26412  Biso   1.000  C
  H447     1.0000 0.61275  0.14699  0.30846  Biso   1.000  H
  H448     1.0000 0.39966  0.90699  0.34267  Biso   1.000  H
  H449     1.0000 0.43403  0.98100  0.35927  Biso   1.000  H
  C508     1.0000 0.87948  0.53800  0.05048  Biso   1.000  C
  H450     1.0000 0.82962  0.59172  0.05019  Biso   1.000  H
  H451     1.0000 0.93400  0.49119  0.06191  Biso   1.000  H
  C509     1.0000 0.84912  0.28718  0.26268  Biso   1.000  C
  H452     1.0000 0.93535  0.32859  0.34246  Biso   1.000  H
  H453     1.0000 0.96114  0.29419  0.31667  Biso   1.000  H
  C510     1.0000 0.03802  0.39086  0.33073  Biso   1.000  C
  H454     1.0000 0.09304  0.49268  0.34267  Biso   1.000  H
  H455     1.0000 0.01904  0.45307  0.35927  Biso   1.000  H
  C511     1.0000 0.48229  0.35779  0.98883  Biso   1.000  C
  C512     1.0000 0.72444  0.20704  0.27354  Biso   1.000  C
  C513     1.0000 0.64823  0.13865  0.23238  Biso   1.000  C
  C514     1.0000 0.87879  0.52832  0.01650  Biso   1.000  C
  C515     1.0000 0.77944  0.23506  0.25301  Biso   1.000  C
  H456     1.0000 0.88493  0.30377  0.24736  Biso   1.000  H
  H457     1.0000 0.05454  0.37438  0.34855  Biso   1.000  H
  H458     1.0000 0.06735  0.39688  0.31207  Biso   1.000  H
  C516     1.0000 0.49898  0.36799  0.95557  Biso   1.000  C
  H459     1.0000 0.73193  0.22167  0.29507  Biso   1.000  H
  C517     1.0000 0.70135  0.16569  0.21111  Biso   1.000  C
  H460     1.0000 0.60332  0.10548  0.22536  Biso   1.000  H
  C518     1.0000 0.87549  0.51771  0.98883  Biso   1.000  C
  C519     1.0000 0.76784  0.21436  0.22138  Biso   1.000  C
  C520     1.0000 0.54770  0.43448  0.94530  Biso   1.000  C
  C521     1.0000 0.47199  0.31489  0.93430  Biso   1.000  C
  C522     1.0000 0.69111  0.14895  0.17782  Biso   1.000  C
  C523     1.0000 0.86902  0.50102  0.95557  Biso   1.000  C
  H461     1.0000 0.80494  0.23326  0.20668  Biso   1.000  H
  H462     1.0000 0.56663  0.47161  0.96000  Biso   1.000  H
  C524     1.0000 0.56842  0.44612  0.91367  Biso   1.000  C
  C525     1.0000 0.49208  0.32519  0.90253  Biso   1.000  C
  H463     1.0000 0.43878  0.26998  0.94130  Biso   1.000  H
  C526     1.0000 0.68382  0.13839  0.15018  Biso   1.000  C
  C527     1.0000 0.84291  0.52801  0.93430  Biso   1.000  C
  C528     1.0000 0.88681  0.45230  0.94530  Biso   1.000  C
  C529     1.0000 0.54043  0.39111  0.89314  Biso   1.000  C
  C530     1.0000 0.62048  0.51580  0.90400  Biso   1.000  C
  C531     1.0000 0.46391  0.26931  0.87944  Biso   1.000  C
  C532     1.0000 0.67481  0.12865  0.11620  Biso   1.000  C
  C533     1.0000 0.83313  0.50792  0.90253  Biso   1.000  C
  H464     1.0000 0.83117  0.56118  0.94130  Biso   1.000  H
  C534     1.0000 0.87771  0.43160  0.91367  Biso   1.000  C
  H465     1.0000 0.90501  0.43340  0.96000  Biso   1.000  H
  H466     1.0000 0.55500  0.39858  0.87159  Biso   1.000  H
  N55      1.0000 0.64426  0.53028  0.87607  Biso   1.000  N
  H467     1.0000 0.63708  0.55160  0.91929  Biso   1.000  H
  N56      1.0000 0.41900  0.20802  0.88610  Biso   1.000  N
  H468     1.0000 0.48029  0.27940  0.85819  Biso   1.000  H
  C535     1.0000 0.73104  0.15477  0.09605  Biso   1.000  C
  C536     1.0000 0.61066  0.09518  0.10311  Biso   1.000  C
  C537     1.0000 0.80538  0.53610  0.87944  Biso   1.000  C
  C538     1.0000 0.85073  0.45961  0.89314  Biso   1.000  C
  C539     1.0000 0.89527  0.37948  0.90400  Biso   1.000  C
  C540     1.0000 0.69600  0.60181  0.86979  Biso   1.000  C
  C541     1.0000 0.39351  0.15750  0.86049  Biso   1.000  C
  H469     1.0000 0.77614  0.17547  0.10477  Biso   1.000  H
  C542     1.0000 0.72271  0.15121  0.06354  Biso   1.000  C
  C543     1.0000 0.60229  0.09039  0.07061  Biso   1.000  C
  H470     1.0000 0.57126  0.07499  0.11646  Biso   1.000  H
  N57      1.0000 0.78903  0.58101  0.88610  Biso   1.000  N
  H471     1.0000 0.79911  0.51972  0.85819  Biso   1.000  H
  H472     1.0000 0.84359  0.44499  0.87159  Biso   1.000  H
  N58      1.0000 0.88603  0.35573  0.87607  Biso   1.000  N
  H473     1.0000 0.91450  0.36289  0.91929  Biso   1.000  H
  C544     1.0000 0.76400  0.60650  0.86049  Biso   1.000  C
  C545     1.0000 0.67109  0.63040  0.84347  Biso   1.000  C
  H474     1.0000 0.70330  0.62952  0.88949  Biso   1.000  H
  H475     1.0000 0.42192  0.17872  0.84110  Biso   1.000  H
  C546     1.0000 0.31867  0.13628  0.85338  Biso   1.000  C
  C547     1.0000 0.39821  0.09420  0.86979  Biso   1.000  C
  C548     1.0000 0.65852  0.12052  0.05048  Biso   1.000  C
  H476     1.0000 0.76211  0.17042  0.05019  Biso   1.000  H
  H477     1.0000 0.55721  0.06598  0.06191  Biso   1.000  H
  C549     1.0000 0.90580  0.30402  0.86979  Biso   1.000  C
  H478     1.0000 0.75681  0.57812  0.84110  Biso   1.000  H
  C550     1.0000 0.81758  0.68128  0.85338  Biso   1.000  C
  C551     1.0000 0.72421  0.70472  0.83595  Biso   1.000  C
  H479     1.0000 0.66189  0.60202  0.82419  Biso   1.000  H
  H480     1.0000 0.62752  0.62782  0.84999  Biso   1.000  H
  H481     1.0000 0.31612  0.17702  0.84629  Biso   1.000  H
  H482     1.0000 0.29090  0.11820  0.87289  Biso   1.000  H
  C552     1.0000 0.28930  0.08091  0.82744  Biso   1.000  C
  N59      1.0000 0.46970  0.11398  0.87607  Biso   1.000  N
  C553     1.0000 0.36959  0.04069  0.84347  Biso   1.000  C
  H483     1.0000 0.37049  0.07380  0.88949  Biso   1.000  H
  C554     1.0000 0.64949  0.12119  0.01650  Biso   1.000  C
  C555     1.0000 0.84248  0.23599  0.86049  Biso   1.000  C
  C556     1.0000 0.95932  0.32890  0.84347  Biso   1.000  C
  H484     1.0000 0.92619  0.29671  0.88949  Biso   1.000  H
  H485     1.0000 0.86091  0.68391  0.84629  Biso   1.000  H
  H486     1.0000 0.82730  0.70910  0.87289  Biso   1.000  H
  C557     1.0000 0.79161  0.71069  0.82744  Biso   1.000  C
  H487     1.0000 0.70770  0.72120  0.81810  Biso   1.000  H
  H488     1.0000 0.73021  0.73402  0.85459  Biso   1.000  H
  H489     1.0000 0.24028  0.06628  0.82400  Biso   1.000  H
  H490     1.0000 0.31431  0.10069  0.80741  Biso   1.000  H
  C558     1.0000 0.29531  0.01952  0.83595  Biso   1.000  C
  C559     1.0000 0.48420  0.10471  0.90400  Biso   1.000  C
  H491     1.0000 0.37219  0.99969  0.84999  Biso   1.000  H
  H492     1.0000 0.39801  0.05990  0.82419  Biso   1.000  H
  C560     1.0000 0.64217  0.12448  0.98883  Biso   1.000  C
  N60      1.0000 0.79201  0.21096  0.88610  Biso   1.000  N
  H493     1.0000 0.82129  0.24320  0.84110  Biso   1.000  H
  C561     1.0000 0.86369  0.18242  0.85338  Biso   1.000  C
  C562     1.0000 0.98050  0.27580  0.83595  Biso   1.000  C
  H494     1.0000 0.94011  0.33812  0.82419  Biso   1.000  H
  H495     1.0000 0.00031  0.37252  0.84999  Biso   1.000  H
  H496     1.0000 0.82603  0.75972  0.82400  Biso   1.000  H
  H497     1.0000 0.78639  0.68571  0.80741  Biso   1.000  H
  H498     1.0000 0.27880  0.98651  0.81810  Biso   1.000  H
  H499     1.0000 0.26601  0.99624  0.85459  Biso   1.000  H
  C563     1.0000 0.55389  0.12232  0.91367  Biso   1.000  C
  H500     1.0000 0.44841  0.08550  0.91929  Biso   1.000  H
  C564     1.0000 0.63202  0.13102  0.95557  Biso   1.000  C
  C565     1.0000 0.73070  0.19458  0.87944  Biso   1.000  C
  H501     1.0000 0.82299  0.13911  0.84629  Biso   1.000  H
  H502     1.0000 0.88180  0.17269  0.87289  Biso   1.000  H
  C566     1.0000 0.91909  0.20838  0.82744  Biso   1.000  C
  H503     1.0000 0.01349  0.29228  0.81810  Biso   1.000  H
  H504     1.0000 0.00382  0.26982  0.85459  Biso   1.000  H
  C567     1.0000 0.56552  0.11320  0.94530  Biso   1.000  C
  C568     1.0000 0.60891  0.14931  0.89314  Biso   1.000  C
  C569     1.0000 0.68510  0.15708  0.93430  Biso   1.000  C
  C570     1.0000 0.67481  0.16692  0.90253  Biso   1.000  C
  H505     1.0000 0.72062  0.20091  0.85819  Biso   1.000  H
  H506     1.0000 0.93369  0.17398  0.82400  Biso   1.000  H
  H507     1.0000 0.89930  0.21358  0.80741  Biso   1.000  H
  H508     1.0000 0.52842  0.09502  0.96000  Biso   1.000  H
  H509     1.0000 0.60140  0.15642  0.87159  Biso   1.000  H
  H510     1.0000 0.72997  0.16878  0.94130  Biso   1.000  H
  C571     1.0000 0.00442  0.29707  0.51014  Biso   1.000  C
  C572     1.0000 0.02934  0.26849  0.53645  Biso   1.000  C
  H511     1.0000 0.99523  0.26869  0.49086  Biso   1.000  H
  H512     1.0000 0.96083  0.29444  0.51666  Biso   1.000  H
  C573     1.0000 0.05755  0.37139  0.50262  Biso   1.000  C
  N61      1.0000 0.97760  0.19695  0.54274  Biso   1.000  N
  C574     1.0000 0.09734  0.27317  0.52716  Biso   1.000  C
  H513     1.0000 0.03661  0.29614  0.55616  Biso   1.000  H
  C575     1.0000 0.12494  0.37736  0.49411  Biso   1.000  C
  H514     1.0000 0.04104  0.38787  0.48477  Biso   1.000  H
  H515     1.0000 0.06352  0.40064  0.52126  Biso   1.000  H
  C576     1.0000 0.95382  0.18248  0.57067  Biso   1.000  C
  N62      1.0000 0.12237  0.24768  0.55277  Biso   1.000  N
  H516     1.0000 0.09012  0.24474  0.50776  Biso   1.000  H
  C577     1.0000 0.15092  0.34796  0.52005  Biso   1.000  C
  H517     1.0000 0.15934  0.42634  0.49067  Biso   1.000  H
  H518     1.0000 0.11972  0.35238  0.47407  Biso   1.000  H
  C578     1.0000 0.90176  0.11279  0.58034  Biso   1.000  C
  H519     1.0000 0.97042  0.21827  0.58596  Biso   1.000  H
  C579     1.0000 0.13872  0.20277  0.54610  Biso   1.000  C
  H520     1.0000 0.19425  0.35058  0.51296  Biso   1.000  H
  H521     1.0000 0.16063  0.37577  0.53956  Biso   1.000  H
  C580     1.0000 0.88104  0.10115  0.61197  Biso   1.000  C
  C581     1.0000 0.87376  0.05779  0.55981  Biso   1.000  C
  C582     1.0000 0.16644  0.17454  0.56920  Biso   1.000  C
  H522     1.0000 0.13245  0.18639  0.52486  Biso   1.000  H
  C583     1.0000 0.83232  0.03466  0.62223  Biso   1.000  C
  H523     1.0000 0.89996  0.13829  0.62667  Biso   1.000  H
  H524     1.0000 0.88834  0.06525  0.53826  Biso   1.000  H
  C584     1.0000 0.82541  0.99186  0.56920  Biso   1.000  C
  C585     1.0000 0.18406  0.12629  0.55981  Biso   1.000  C
  C586     1.0000 0.17624  0.19468  0.60097  Biso   1.000  C
  C587     1.0000 0.81562  0.02446  0.65550  Biso   1.000  C
  C588     1.0000 0.80532  0.98156  0.60097  Biso   1.000  C
  C589     1.0000 0.79725  0.93598  0.54610  Biso   1.000  C
  C590     1.0000 0.21104  0.09827  0.58034  Biso   1.000  C
  H525     1.0000 0.17693  0.11166  0.53826  Biso   1.000  H
  C591     1.0000 0.20233  0.16764  0.62223  Biso   1.000  C
  H526     1.0000 0.16450  0.22785  0.60796  Biso   1.000  H
  C592     1.0000 0.80501  0.01715  0.68317  Biso   1.000  C
  H527     1.0000 0.77214  0.93670  0.60796  Biso   1.000  H
  N63      1.0000 0.75233  0.87469  0.55277  Biso   1.000  N
  H528     1.0000 0.81363  0.94608  0.52486  Biso   1.000  H
  C593     1.0000 0.22015  0.11897  0.61197  Biso   1.000  C
  C594     1.0000 0.22860  0.04615  0.57067  Biso   1.000  C
  C595     1.0000 0.20883  0.18438  0.65550  Biso   1.000  C
  C596     1.0000 0.79535  0.00819  0.71714  Biso   1.000  C
  C597     1.0000 0.72685  0.82417  0.52716  Biso   1.000  C
  H529     1.0000 0.23835  0.10007  0.62667  Biso   1.000  H
  N64      1.0000 0.21936  0.02240  0.54274  Biso   1.000  N
  H530     1.0000 0.24783  0.02956  0.58596  Biso   1.000  H
  C598     1.0000 0.21213  0.19499  0.68317  Biso   1.000  C
  C599     1.0000 0.82144  0.06438  0.73727  Biso   1.000  C
  C600     1.0000 0.76181  0.94396  0.73021  Biso   1.000  C
  H531     1.0000 0.75525  0.84539  0.50776  Biso   1.000  H
  C601     1.0000 0.65204  0.80300  0.52005  Biso   1.000  C
  C602     1.0000 0.73155  0.76087  0.53645  Biso   1.000  C
  C603     1.0000 0.23914  0.97069  0.53645  Biso   1.000  C
  C604     1.0000 0.21282  0.20467  0.71714  Biso   1.000  C
  H532     1.0000 0.84214  0.10944  0.72857  Biso   1.000  H
  C605     1.0000 0.81785  0.05604  0.76978  Biso   1.000  C
  C606     1.0000 0.75709  0.93567  0.76271  Biso   1.000  C
  H533     1.0000 0.74162  0.90456  0.71686  Biso   1.000  H
  H534     1.0000 0.64945  0.84369  0.51296  Biso   1.000  H
  H535     1.0000 0.62424  0.78487  0.53956  Biso   1.000  H
  C607     1.0000 0.62263  0.74758  0.49411  Biso   1.000  C
  N65      1.0000 0.80304  0.78065  0.54274  Biso   1.000  N
  C608     1.0000 0.70292  0.70736  0.51014  Biso   1.000  C
  H536     1.0000 0.70382  0.74048  0.55616  Biso   1.000  H
  C609     1.0000 0.17582  0.90266  0.52716  Biso   1.000  C
  C610     1.0000 0.29266  0.99557  0.51014  Biso   1.000  C
  H537     1.0000 0.25952  0.96338  0.55616  Biso   1.000  H
  C611     1.0000 0.24294  0.17856  0.73727  Biso   1.000  C
  C612     1.0000 0.18214  0.23815  0.73021  Biso   1.000  C
  H538     1.0000 0.83706  0.09544  0.78313  Biso   1.000  H
  C613     1.0000 0.78719  0.99186  0.78287  Biso   1.000  C
  H539     1.0000 0.73270  0.89056  0.77144  Biso   1.000  H
  H540     1.0000 0.57361  0.73296  0.49067  Biso   1.000  H
  H541     1.0000 0.64764  0.76736  0.47407  Biso   1.000  H
  C614     1.0000 0.62864  0.68619  0.50262  Biso   1.000  C
  C615     1.0000 0.81754  0.77138  0.57067  Biso   1.000  C
  H542     1.0000 0.73135  0.72657  0.49086  Biso   1.000  H
  H543     1.0000 0.70553  0.66636  0.51666  Biso   1.000  H
  N66      1.0000 0.12534  0.87763  0.55277  Biso   1.000  N
  H544     1.0000 0.15462  0.90987  0.50776  Biso   1.000  H
  C616     1.0000 0.19703  0.84910  0.52005  Biso   1.000  C
  C617     1.0000 0.31383  0.94247  0.50262  Biso   1.000  C
  H545     1.0000 0.27345  0.00479  0.49086  Biso   1.000  H
  H546     1.0000 0.33362  0.03914  0.51666  Biso   1.000  H
  H547     1.0000 0.26733  0.15786  0.72857  Biso   1.000  H
  C618     1.0000 0.23816  0.18212  0.76978  Biso   1.000  C
  C619     1.0000 0.17856  0.24294  0.76271  Biso   1.000  C
  H548     1.0000 0.16296  0.25839  0.71686  Biso   1.000  H
  C620     1.0000 0.78786  0.98285  0.81684  Biso   1.000  C
  H549     1.0000 0.61214  0.65318  0.48477  Biso   1.000  H
  H550     1.0000 0.59932  0.66286  0.52126  Biso   1.000  H
  C621     1.0000 0.88723  0.78899  0.58034  Biso   1.000  C
  H551     1.0000 0.78175  0.75217  0.58596  Biso   1.000  H
  C622     1.0000 0.06406  0.86130  0.54610  Biso   1.000  C
  H552     1.0000 0.15633  0.80578  0.51296  Biso   1.000  H
  H553     1.0000 0.21513  0.83936  0.53956  Biso   1.000  H
  C623     1.0000 0.25245  0.87510  0.49411  Biso   1.000  C
  H554     1.0000 0.34685  0.95900  0.48477  Biso   1.000  H
  H555     1.0000 0.33716  0.93650  0.52126  Biso   1.000  H
  C624     1.0000 0.20467  0.21281  0.78287  Biso   1.000  C
  H556     1.0000 0.25837  0.16296  0.78313  Biso   1.000  H
  H557     1.0000 0.15790  0.26735  0.77144  Biso   1.000  H
  C625     1.0000 0.79116  0.97554  0.84449  Biso   1.000  C
  C626     1.0000 0.89886  0.77988  0.61197  Biso   1.000  C
  C627     1.0000 0.94224  0.81598  0.55981  Biso   1.000  C
  C628     1.0000 0.00814  0.83359  0.56920  Biso   1.000  C
  H558     1.0000 0.05395  0.86759  0.52486  Biso   1.000  H
  H559     1.0000 0.26705  0.84070  0.49067  Biso   1.000  H
  H560     1.0000 0.23266  0.88031  0.47407  Biso   1.000  H
  C629     1.0000 0.19496  0.21214  0.81684  Biso   1.000  C
  C630     1.0000 0.79766  0.96534  0.87778  Biso   1.000  C
  C631     1.0000 0.96535  0.79770  0.62223  Biso   1.000  C
  H561     1.0000 0.86176  0.76169  0.62667  Biso   1.000  H
  H562     1.0000 0.93474  0.82309  0.53826  Biso   1.000  H
  C632     1.0000 0.01843  0.82376  0.60097  Biso   1.000  C
  C633     1.0000 0.18435  0.20885  0.84449  Biso   1.000  C
  C634     1.0000 0.82376  0.01844  0.89904  Biso   1.000  C
  C635     1.0000 0.77989  0.89885  0.88804  Biso   1.000  C
  C636     1.0000 0.97553  0.79121  0.65550  Biso   1.000  C
  H563     1.0000 0.06333  0.83550  0.60796  Biso   1.000  H
  C637     1.0000 0.16768  0.20236  0.87778  Biso   1.000  C
  C638     1.0000 0.83355  0.00814  0.93079  Biso   1.000  C
  H564     1.0000 0.83547  0.06335  0.89203  Biso   1.000  H
  H565     1.0000 0.76170  0.86177  0.87334  Biso   1.000  H
  C639     1.0000 0.78899  0.88726  0.91967  Biso   1.000  C
  C640     1.0000 0.98282  0.78786  0.68317  Biso   1.000  C
  C641     1.0000 0.11898  0.22012  0.88804  Biso   1.000  C
  C642     1.0000 0.19468  0.17624  0.89904  Biso   1.000  C
  C643     1.0000 0.86127  0.06402  0.95388  Biso   1.000  C
  C644     1.0000 0.81600  0.94226  0.94020  Biso   1.000  C
  C645     1.0000 0.77134  0.81752  0.92935  Biso   1.000  C
  C646     1.0000 0.99185  0.78719  0.71714  Biso   1.000  C
  H566     1.0000 0.10009  0.23836  0.87334  Biso   1.000  H
  C647     1.0000 0.09823  0.21101  0.91967  Biso   1.000  C
  C648     1.0000 0.17458  0.16646  0.93079  Biso   1.000  C
  H567     1.0000 0.22786  0.16455  0.89203  Biso   1.000  H
  N67      1.0000 0.87767  0.12536  0.94722  Biso   1.000  N
  H568     1.0000 0.86755  0.05392  0.97513  Biso   1.000  H
  H569     1.0000 0.82308  0.93475  0.96173  Biso   1.000  H
  N68      1.0000 0.78065  0.80305  0.95728  Biso   1.000  N
  H570     1.0000 0.75215  0.78173  0.91403  Biso   1.000  H
  C649     1.0000 0.93562  0.75706  0.73727  Biso   1.000  C
  C650     1.0000 0.05604  0.81788  0.73021  Biso   1.000  C
  C651     1.0000 0.12627  0.18402  0.94020  Biso   1.000  C
  C652     1.0000 0.04616  0.22862  0.92935  Biso   1.000  C
  C653     1.0000 0.20278  0.13875  0.95388  Biso   1.000  C
  C654     1.0000 0.90268  0.17583  0.97285  Biso   1.000  C
  C655     1.0000 0.76088  0.73157  0.96356  Biso   1.000  C
  H571     1.0000 0.89057  0.73270  0.72857  Biso   1.000  H
  C656     1.0000 0.94399  0.76185  0.76978  Biso   1.000  C
  C657     1.0000 0.06438  0.82144  0.76271  Biso   1.000  C
  H572     1.0000 0.09544  0.83710  0.71686  Biso   1.000  H
  H573     1.0000 0.11165  0.17691  0.96173  Biso   1.000  H
  N69      1.0000 0.02239  0.21935  0.95728  Biso   1.000  N
  H574     1.0000 0.02958  0.24783  0.91403  Biso   1.000  H
  N70      1.0000 0.24772  0.12237  0.94722  Biso   1.000  N
  H575     1.0000 0.18637  0.13241  0.97513  Biso   1.000  H
  H576     1.0000 0.90987  0.15461  0.99222  Biso   1.000  H
  C658     1.0000 0.84906  0.19705  0.97997  Biso   1.000  C
  C659     1.0000 0.97068  0.23913  0.96356  Biso   1.000  C
  C660     1.0000 0.82416  0.72683  0.97285  Biso   1.000  C
  C661     1.0000 0.70735  0.70293  0.98985  Biso   1.000  C
  H577     1.0000 0.74047  0.70386  0.94383  Biso   1.000  H
  H578     1.0000 0.90459  0.74166  0.78313  Biso   1.000  H
  C662     1.0000 0.00814  0.79533  0.78287  Biso   1.000  C
  H579     1.0000 0.10947  0.84214  0.77144  Biso   1.000  H
  C663     1.0000 0.27316  0.09734  0.97285  Biso   1.000  C
  H580     1.0000 0.80577  0.15631  0.98703  Biso   1.000  H
  H581     1.0000 0.83937  0.21513  0.96043  Biso   1.000  H
  C664     1.0000 0.87505  0.25242  0.00588  Biso   1.000  C
  C665     1.0000 0.99556  0.29264  0.98985  Biso   1.000  C
  H582     1.0000 0.96335  0.25952  0.94383  Biso   1.000  H
  N71      1.0000 0.87469  0.75232  0.94722  Biso   1.000  N
  H583     1.0000 0.84538  0.75526  0.99222  Biso   1.000  H
  C666     1.0000 0.80296  0.65204  0.97997  Biso   1.000  C
  C667     1.0000 0.68619  0.62866  0.99739  Biso   1.000  C
  H584     1.0000 0.66638  0.70556  0.98333  Biso   1.000  H
  H585     1.0000 0.72656  0.73136  0.00913  Biso   1.000  H
  C668     1.0000 0.01716  0.80506  0.81684  Biso   1.000  C
  H586     1.0000 0.24475  0.09013  0.99222  Biso   1.000  H
  C669     1.0000 0.34796  0.15096  0.97997  Biso   1.000  C
  C670     1.0000 0.26847  0.02936  0.96356  Biso   1.000  C
  C671     1.0000 0.94245  0.31381  0.99739  Biso   1.000  C
  H587     1.0000 0.84066  0.26704  0.00934  Biso   1.000  H
  H588     1.0000 0.88028  0.23264  0.02594  Biso   1.000  H
  H589     1.0000 0.03916  0.33364  0.98333  Biso   1.000  H
  H590     1.0000 0.00478  0.27343  0.00913  Biso   1.000  H
  C672     1.0000 0.93595  0.79723  0.95388  Biso   1.000  C
  H591     1.0000 0.84369  0.64947  0.98703  Biso   1.000  H
  H592     1.0000 0.78486  0.62423  0.96043  Biso   1.000  H
  C673     1.0000 0.74758  0.62264  0.00588  Biso   1.000  C
  H593     1.0000 0.66288  0.59936  0.97873  Biso   1.000  H
  H594     1.0000 0.65317  0.61213  0.01522  Biso   1.000  H
  C674     1.0000 0.02447  0.81567  0.84449  Biso   1.000  C
  H595     1.0000 0.35054  0.19422  0.98703  Biso   1.000  H
  H596     1.0000 0.37577  0.16064  0.96043  Biso   1.000  H
  C675     1.0000 0.37737  0.12495  0.00588  Biso   1.000  C
  N72      1.0000 0.19696  0.97760  0.95728  Biso   1.000  N
  C676     1.0000 0.29709  0.00443  0.98985  Biso   1.000  C
  H597     1.0000 0.29614  0.03662  0.94383  Biso   1.000  H
  H598     1.0000 0.93646  0.33714  0.97873  Biso   1.000  H
  H599     1.0000 0.95896  0.34682  0.01522  Biso   1.000  H
  C677     1.0000 0.99190  0.82546  0.93079  Biso   1.000  C
  H600     1.0000 0.94608  0.81366  0.97513  Biso   1.000  H
  H601     1.0000 0.73299  0.57366  0.00934  Biso   1.000  H
  H602     1.0000 0.76737  0.64767  0.02594  Biso   1.000  H
  C678     1.0000 0.03469  0.83236  0.87778  Biso   1.000  C
  C679     1.0000 0.37136  0.05753  0.99739  Biso   1.000  C
  H603     1.0000 0.42637  0.15935  0.00934  Biso   1.000  H
  H604     1.0000 0.35238  0.11974  0.02594  Biso   1.000  H
  C680     1.0000 0.18246  0.95385  0.92935  Biso   1.000  C
  H605     1.0000 0.29448  0.96086  0.98333  Biso   1.000  H
  H606     1.0000 0.26868  0.99526  0.00913  Biso   1.000  H
  C681     1.0000 0.98159  0.80537  0.89904  Biso   1.000  C
  C682     1.0000 0.05780  0.87377  0.94020  Biso   1.000  C
  C683     1.0000 0.10117  0.88103  0.88804  Biso   1.000  C
  H607     1.0000 0.40069  0.06355  0.97873  Biso   1.000  H
  H608     1.0000 0.38787  0.04105  0.01522  Biso   1.000  H
  C684     1.0000 0.11278  0.90173  0.91967  Biso   1.000  C
  H609     1.0000 0.21827  0.97044  0.91403  Biso   1.000  H
  H610     1.0000 0.93665  0.77215  0.89203  Biso   1.000  H
  H611     1.0000 0.06527  0.88834  0.96173  Biso   1.000  H
  H612     1.0000 0.13828  0.89993  0.87334  Biso   1.000  H
  Ne1      1.0000 0.66667  0.33333  0.58333  Biso   1.000  Ne
  He1      1.0000 0.66663  0.33331  0.77751  Biso   1.000  He
  He2      1.0000 0.76490  0.44019  0.51997  Biso   1.000  He
  He3      1.0000 0.56754  0.34208  0.64706  Biso   1.000  He
  He4      1.0000 0.65818  0.22808  0.64617  Biso   1.000  He
  He5      1.0000 0.66665  0.33335  0.38923  Biso   1.000  He
  Ar1      1.0000 0.66666  0.33333  0.58333  Biso   1.000  Ar
  Ne2      1.0000 0.00000  0.00001  0.25000  Biso   1.000  Ne
  He6      1.0000 0.99999  0.00000  0.44417  Biso   1.000  He
  He7      1.0000 0.09823  0.10686  0.18664  Biso   1.000  He
  He8      1.0000 0.90087  0.00875  0.31373  Biso   1.000  He
  He9      1.0000 0.99151  0.89475  0.31284  Biso   1.000  He
  He10     1.0000 0.99999  0.00002  0.05590  Biso   1.000  He
  Ar2      1.0000 0.00000  1.00000  0.25000  Biso   1.000  Ar
  Ne3      1.0000 0.66667  0.33333  0.08333  Biso   1.000  Ne
  He11     1.0000 0.66668  0.33331  0.27664  Biso   1.000  He
  He12     1.0000 0.77648  0.34223  0.14803  Biso   1.000  He
  He13     1.0000 0.55854  0.23396  0.01955  Biso   1.000  He
  He14     1.0000 0.65571  0.44423  0.15121  Biso   1.000  He
  He15     1.0000 0.66669  0.33334  0.88896  Biso   1.000  He
  Ar3      1.0000 0.66667  0.33333  0.08334  Biso   1.000  Ar
  Ne4      1.0000 0.33333  0.66667  0.41667  Biso   1.000  Ne
  He16     1.0000 0.33335  0.66666  0.60997  Biso   1.000  He
  He17     1.0000 0.44344  0.67559  0.48107  Biso   1.000  He
  He18     1.0000 0.22522  0.56731  0.35287  Biso   1.000  He
  He19     1.0000 0.32238  0.77756  0.48455  Biso   1.000  He
  He20     1.0000 0.33336  0.66667  0.22230  Biso   1.000  He
  Ar4      1.0000 0.33333  0.66666  0.41667  Biso   1.000  Ar
  Ne5      1.0000 0.33333  0.66667  0.91667  Biso   1.000  Ne
  He21     1.0000 0.33332  0.66666  0.11084  Biso   1.000  He
  He22     1.0000 0.43161  0.77358  0.85332  Biso   1.000  He
  He23     1.0000 0.23417  0.67541  0.98037  Biso   1.000  He
  He24     1.0000 0.32484  0.56140  0.97950  Biso   1.000  He
  He25     1.0000 0.33332  0.66667  0.72257  Biso   1.000  He
  Ar5      1.0000 0.33333  0.66666  0.91667  Biso   1.000  Ar
  Ne6      1.0000 0.00000  0.00001  0.75000  Biso   1.000  Ne
  He26     1.0000 0.00002  0.00000  0.94331  Biso   1.000  He
  He27     1.0000 0.11008  0.00893  0.81444  Biso   1.000  He
  He28     1.0000 0.89188  0.90063  0.68622  Biso   1.000  He
  He29     1.0000 0.98904  0.11090  0.81788  Biso   1.000  He
  He30     1.0000 0.00003  0.00001  0.55563  Biso   1.000  He
  Ar6      1.0000 0.00000  0.00000  0.75000  Biso   1.000  Ar
