data_image0
_cell_length_a       11.872
_cell_length_b       43.653
_cell_length_c       21.478
_cell_angle_alpha    90
_cell_angle_beta     97.4
_cell_angle_gamma    90

_symmetry_space_group_name_H-M    "P 1"
_symmetry_int_tables_number       1

loop_
  _symmetry_equiv_pos_as_xyz
  'x, y, z'

loop_
  _atom_site_label
  _atom_site_occupancy
  _atom_site_fract_x
  _atom_site_fract_y
  _atom_site_fract_z
  _atom_site_thermal_displace_type
  _atom_site_B_iso_or_equiv
  _atom_site_type_symbol
  C1       1.0000 0.25880  0.45575  0.49002  Biso   1.000  C
  O1       1.0000 0.15442  0.44043  0.49101  Biso   1.000  O
  H1       1.0000 0.25824  0.47571  0.51181  Biso   1.000  H
  H2       1.0000 0.27303  0.45940  0.44622  Biso   1.000  H
  C2       1.0000 0.34739  0.43530  0.52279  Biso   1.000  C
  C3       1.0000 0.05592  0.45488  0.46378  Biso   1.000  C
  H3       1.0000 0.34687  0.43690  0.56829  Biso   1.000  H
  H4       1.0000 0.42208  0.44130  0.51223  Biso   1.000  H
  H5       1.0000 0.33159  0.41411  0.50960  Biso   1.000  H
  C4       1.0000 0.05593  0.48313  0.43523  Biso   1.000  C
  C5       1.0000 0.95668  0.43942  0.46913  Biso   1.000  C
  C6       1.0000 0.95324  0.49625  0.40917  Biso   1.000  C
  H6       1.0000 0.12547  0.49360  0.43330  Biso   1.000  H
  C7       1.0000 0.85574  0.45227  0.44152  Biso   1.000  C
  C8       1.0000 0.95660  0.40907  0.50312  Biso   1.000  C
  C9       1.0000 0.95447  0.52796  0.37973  Biso   1.000  C
  C10      1.0000 0.85367  0.48022  0.41058  Biso   1.000  C
  H7       1.0000 0.78637  0.44171  0.44382  Biso   1.000  H
  C11      1.0000 0.95613  0.38171  0.45988  Biso   1.000  C
  H8       1.0000 0.02459  0.40799  0.53500  Biso   1.000  H
  H9       1.0000 0.88868  0.40810  0.52542  Biso   1.000  H
  C12      1.0000 0.97853  0.52734  0.31311  Biso   1.000  C
  H10      1.0000 0.01296  0.54060  0.40481  Biso   1.000  H
  H11      1.0000 0.87998  0.53790  0.38142  Biso   1.000  H
  O2       1.0000 0.75676  0.49364  0.38110  Biso   1.000  O
  C13      1.0000 0.05572  0.36916  0.44518  Biso   1.000  C
  C14      1.0000 0.85402  0.36868  0.43340  Biso   1.000  C
  C15      1.0000 0.08842  0.52766  0.29813  Biso   1.000  C
  C16      1.0000 0.89126  0.52725  0.26461  Biso   1.000  C
  C17      1.0000 0.65468  0.47825  0.37969  Biso   1.000  C
  C18      1.0000 0.05585  0.34412  0.40560  Biso   1.000  C
  H12      1.0000 0.12609  0.37789  0.46270  Biso   1.000  H
  C19      1.0000 0.85492  0.34279  0.39570  Biso   1.000  C
  O3       1.0000 0.75665  0.38256  0.44931  Biso   1.000  O
  C20      1.0000 0.10884  0.52725  0.23541  Biso   1.000  C
  O4       1.0000 0.17374  0.52846  0.34762  Biso   1.000  O
  C21      1.0000 0.91160  0.52766  0.20189  Biso   1.000  C
  H13      1.0000 0.81515  0.52691  0.27381  Biso   1.000  H
  H14      1.0000 0.63324  0.47630  0.42251  Biso   1.000  H
  H15      1.0000 0.66017  0.45749  0.36171  Biso   1.000  H
  C22      1.0000 0.56542  0.49800  0.33753  Biso   1.000  C
  C23      1.0000 0.95583  0.33040  0.38161  Biso   1.000  C
  O5       1.0000 0.15269  0.33107  0.38959  Biso   1.000  O
  H16      1.0000 0.78506  0.33349  0.37931  Biso   1.000  H
  C24      1.0000 0.65153  0.36923  0.42870  Biso   1.000  C
  C25      1.0000 0.02148  0.52734  0.18691  Biso   1.000  C
  H17      1.0000 0.18495  0.52691  0.22621  Biso   1.000  H
  C26      1.0000 0.26833  0.54553  0.34330  Biso   1.000  C
  O6       1.0000 0.82635  0.52846  0.15235  Biso   1.000  O
  H18      1.0000 0.53833  0.51449  0.36260  Biso   1.000  H
  H19      1.0000 0.50126  0.48510  0.32062  Biso   1.000  H
  H20      1.0000 0.60087  0.50679  0.30278  Biso   1.000  H
  C27      1.0000 0.95531  0.30255  0.33959  Biso   1.000  C
  C28      1.0000 0.25459  0.34836  0.39711  Biso   1.000  C
  H21      1.0000 0.64940  0.34799  0.44453  Biso   1.000  H
  H22      1.0000 0.63878  0.36870  0.38232  Biso   1.000  H
  C29      1.0000 0.56228  0.38797  0.45312  Biso   1.000  C
  C30      1.0000 0.04562  0.52796  0.12024  Biso   1.000  C
  H23      1.0000 0.24540  0.56589  0.32551  Biso   1.000  H
  H24      1.0000 0.31487  0.53529  0.31419  Biso   1.000  H
  C31      1.0000 0.33729  0.54963  0.40499  Biso   1.000  C
  C32      1.0000 0.73177  0.54553  0.15672  Biso   1.000  C
  C33      1.0000 0.97340  0.27233  0.37532  Biso   1.000  C
  H25      1.0000 0.01581  0.30490  0.31222  Biso   1.000  H
  H26      1.0000 0.88177  0.30170  0.31213  Biso   1.000  H
  H27      1.0000 0.28268  0.35120  0.44208  Biso   1.000  H
  H28      1.0000 0.24229  0.36870  0.37720  Biso   1.000  H
  C34      1.0000 0.33873  0.32981  0.36490  Biso   1.000  C
  H29      1.0000 0.57525  0.38820  0.49899  Biso   1.000  H
  H30      1.0000 0.48748  0.37910  0.43899  Biso   1.000  H
  H31      1.0000 0.56515  0.40900  0.43720  Biso   1.000  H
  C35      1.0000 0.04677  0.49625  0.09085  Biso   1.000  C
  H32      1.0000 0.12012  0.53790  0.11860  Biso   1.000  H
  H33      1.0000 0.98715  0.54060  0.09522  Biso   1.000  H
  H34      1.0000 0.30166  0.56509  0.42922  Biso   1.000  H
  H35      1.0000 0.41378  0.55641  0.39889  Biso   1.000  H
  H36      1.0000 0.34193  0.53009  0.42781  Biso   1.000  H
  H37      1.0000 0.75461  0.56589  0.17451  Biso   1.000  H
  H38      1.0000 0.68522  0.53529  0.18578  Biso   1.000  H
  C36      1.0000 0.66280  0.54963  0.09498  Biso   1.000  C
  C37      1.0000 0.07947  0.25868  0.38551  Biso   1.000  C
  C38      1.0000 0.88159  0.25755  0.39631  Biso   1.000  C
  H39      1.0000 0.35467  0.31040  0.38739  Biso   1.000  H
  H40      1.0000 0.40939  0.34140  0.36523  Biso   1.000  H
  H41      1.0000 0.30638  0.32550  0.32152  Biso   1.000  H
  C39      1.0000 0.14642  0.48022  0.08939  Biso   1.000  C
  C40      1.0000 0.94408  0.48313  0.06474  Biso   1.000  C
  H42      1.0000 0.69844  0.56509  0.07080  Biso   1.000  H
  H43      1.0000 0.58631  0.55641  0.10108  Biso   1.000  H
  H44      1.0000 0.65808  0.53009  0.07221  Biso   1.000  H
  C41      1.0000 0.09555  0.23059  0.41513  Biso   1.000  C
  H45      1.0000 0.14267  0.26880  0.37189  Biso   1.000  H
  C42      1.0000 0.89782  0.22860  0.42363  Biso   1.000  C
  O7       1.0000 0.77949  0.27231  0.38720  Biso   1.000  O
  C43      1.0000 0.14427  0.45227  0.05850  Biso   1.000  C
  O8       1.0000 0.24334  0.49364  0.11893  Biso   1.000  O
  C44      1.0000 0.94409  0.45488  0.03625  Biso   1.000  C
  H46      1.0000 0.87463  0.49360  0.06672  Biso   1.000  H
  C45      1.0000 0.00386  0.21483  0.43227  Biso   1.000  C
  O9       1.0000 0.19849  0.21554  0.42781  Biso   1.000  O
  H47      1.0000 0.83471  0.21811  0.43659  Biso   1.000  H
  C46      1.0000 0.68119  0.25673  0.40020  Biso   1.000  C
  C47      1.0000 0.04342  0.43942  0.03089  Biso   1.000  C
  H48      1.0000 0.21374  0.44171  0.05620  Biso   1.000  H
  C48      1.0000 0.34541  0.47825  0.12029  Biso   1.000  C
  O10      1.0000 0.84559  0.44043  0.00897  Biso   1.000  O
  C49      1.0000 0.01823  0.18221  0.45960  Biso   1.000  C
  C50      1.0000 0.30015  0.23277  0.42889  Biso   1.000  C
  H49      1.0000 0.68885  0.25080  0.44500  Biso   1.000  H
  H50      1.0000 0.66976  0.23790  0.37429  Biso   1.000  H
  C51      1.0000 0.58382  0.27762  0.38542  Biso   1.000  C
  C52      1.0000 0.04358  0.40907  0.99690  Biso   1.000  C
  H51      1.0000 0.36678  0.47630  0.07751  Biso   1.000  H
  H52      1.0000 0.33993  0.45749  0.13832  Biso   1.000  H
  C53      1.0000 0.43459  0.49800  0.16250  Biso   1.000  C
  C54      1.0000 0.74130  0.45575  0.01000  Biso   1.000  C
  C55      1.0000 0.01457  0.15848  0.40884  Biso   1.000  C
  H53      1.0000 0.09177  0.18079  0.48711  Biso   1.000  H
  H54      1.0000 0.95692  0.17811  0.48570  Biso   1.000  H
  H55      1.0000 0.29772  0.25091  0.45640  Biso   1.000  H
  H56      1.0000 0.30906  0.23989  0.38612  Biso   1.000  H
  C56      1.0000 0.39518  0.21281  0.45279  Biso   1.000  C
  H57      1.0000 0.59919  0.29691  0.40833  Biso   1.000  H
  H58      1.0000 0.51537  0.26809  0.39781  Biso   1.000  H
  H59      1.0000 0.57236  0.28179  0.34020  Biso   1.000  H
  C57      1.0000 0.04389  0.38171  0.04014  Biso   1.000  C
  H60      1.0000 0.97559  0.40799  0.96502  Biso   1.000  H
  H61      1.0000 0.11150  0.40810  0.97460  Biso   1.000  H
  H62      1.0000 0.46169  0.51449  0.13742  Biso   1.000  H
  H63      1.0000 0.49884  0.48510  0.17940  Biso   1.000  H
  H64      1.0000 0.39922  0.50679  0.19719  Biso   1.000  H
  H65      1.0000 0.74186  0.47571  0.98822  Biso   1.000  H
  C58      1.0000 0.65280  0.43530  0.97723  Biso   1.000  C
  H66      1.0000 0.72699  0.45940  0.05381  Biso   1.000  H
  C59      1.0000 0.11242  0.14746  0.38776  Biso   1.000  C
  C60      1.0000 0.91123  0.14782  0.37889  Biso   1.000  C
  H67      1.0000 0.37634  0.20170  0.48979  Biso   1.000  H
  H68      1.0000 0.46330  0.22530  0.46462  Biso   1.000  H
  H69      1.0000 0.40948  0.19811  0.42021  Biso   1.000  H
  C61      1.0000 0.14600  0.36868  0.06662  Biso   1.000  C
  C62      1.0000 0.94429  0.36916  0.05479  Biso   1.000  C
  H70      1.0000 0.65332  0.43690  0.93173  Biso   1.000  H
  H71      1.0000 0.57810  0.44130  0.98779  Biso   1.000  H
  H72      1.0000 0.66859  0.41411  0.99042  Biso   1.000  H
  C63      1.0000 0.10955  0.12732  0.33893  Biso   1.000  C
  H73      1.0000 0.18418  0.15410  0.40800  Biso   1.000  H
  C64      1.0000 0.90796  0.12730  0.33015  Biso   1.000  C
  O11      1.0000 0.81533  0.15949  0.40077  Biso   1.000  O
  C65      1.0000 0.14510  0.34279  0.10432  Biso   1.000  C
  O12      1.0000 0.24337  0.38256  0.05071  Biso   1.000  O
  C66      1.0000 0.94425  0.34412  0.09442  Biso   1.000  C
  H74      1.0000 0.87400  0.37789  0.03728  Biso   1.000  H
  C67      1.0000 0.00738  0.11694  0.30785  Biso   1.000  C
  O13      1.0000 0.20490  0.11667  0.31508  Biso   1.000  O
  H75      1.0000 0.83647  0.11990  0.31109  Biso   1.000  H
  C68      1.0000 0.70910  0.14629  0.38119  Biso   1.000  C
  C69      1.0000 0.04418  0.33040  0.11841  Biso   1.000  C
  H76      1.0000 0.21504  0.33349  0.12071  Biso   1.000  H
  C70      1.0000 0.34849  0.36923  0.07132  Biso   1.000  C
  O14      1.0000 0.84741  0.33107  0.11043  Biso   1.000  O
  C71      1.0000 0.00005  0.09699  0.25001  Biso   1.000  C
  C72      1.0000 0.31187  0.12082  0.35119  Biso   1.000  C
  H77      1.0000 0.70846  0.12471  0.39542  Biso   1.000  H
  H78      1.0000 0.69366  0.14661  0.33480  Biso   1.000  H
  C73      1.0000 0.62094  0.16409  0.40842  Biso   1.000  C
  C74      1.0000 0.04470  0.30255  0.16038  Biso   1.000  C
  H79      1.0000 0.35070  0.34799  0.05550  Biso   1.000  H
  H80      1.0000 0.36132  0.36870  0.11770  Biso   1.000  H
  C75      1.0000 0.43782  0.38797  0.04690  Biso   1.000  C
  C76      1.0000 0.74551  0.34836  0.10292  Biso   1.000  C
  C77      1.0000 0.99272  0.11694  0.19217  Biso   1.000  C
  H81      1.0000 0.06803  0.08371  0.25222  Biso   1.000  H
  H82      1.0000 0.93207  0.08371  0.24780  Biso   1.000  H
  H83      1.0000 0.31527  0.10929  0.39110  Biso   1.000  H
  H84      1.0000 0.32456  0.14281  0.36119  Biso   1.000  H
  C78      1.0000 0.40136  0.10929  0.31339  Biso   1.000  C
  H85      1.0000 0.63936  0.16471  0.45420  Biso   1.000  H
  H86      1.0000 0.54675  0.15431  0.39729  Biso   1.000  H
  H87      1.0000 0.61831  0.18500  0.39171  Biso   1.000  H
  C79      1.0000 0.02660  0.27233  0.12465  Biso   1.000  C
  H88      1.0000 0.11833  0.30170  0.18790  Biso   1.000  H
  H89      1.0000 0.98421  0.30490  0.18780  Biso   1.000  H
  H90      1.0000 0.42476  0.38820  0.00099  Biso   1.000  H
  H91      1.0000 0.51261  0.37910  0.06099  Biso   1.000  H
  H92      1.0000 0.43495  0.40900  0.06282  Biso   1.000  H
  H93      1.0000 0.71741  0.35120  0.05789  Biso   1.000  H
  H94      1.0000 0.75781  0.36870  0.12282  Biso   1.000  H
  C80      1.0000 0.66129  0.32981  0.13512  Biso   1.000  C
  C81      1.0000 0.09213  0.12730  0.16982  Biso   1.000  C
  C82      1.0000 0.89054  0.12732  0.16104  Biso   1.000  C
  H95      1.0000 0.38027  0.08879  0.29701  Biso   1.000  H
  H96      1.0000 0.47457  0.10819  0.34020  Biso   1.000  H
  H97      1.0000 0.40744  0.12329  0.27842  Biso   1.000  H
  C83      1.0000 0.11851  0.25755  0.10371  Biso   1.000  C
  C84      1.0000 0.92063  0.25868  0.11451  Biso   1.000  C
  H98      1.0000 0.64542  0.31040  0.11259  Biso   1.000  H
  H99      1.0000 0.59071  0.34140  0.13479  Biso   1.000  H
  H100     1.0000 0.69372  0.32550  0.17851  Biso   1.000  H
  C85      1.0000 0.08878  0.14782  0.12108  Biso   1.000  C
  H101     1.0000 0.16362  0.11990  0.18888  Biso   1.000  H
  C86      1.0000 0.88760  0.14746  0.11226  Biso   1.000  C
  O15      1.0000 0.79511  0.11667  0.18494  Biso   1.000  O
  O16      1.0000 0.22061  0.27231  0.11282  Biso   1.000  O
  C87      1.0000 0.10219  0.22860  0.07634  Biso   1.000  C
  C88      1.0000 0.90455  0.23059  0.08489  Biso   1.000  C
  H102     1.0000 0.85742  0.26880  0.12808  Biso   1.000  H
  C89      1.0000 0.98552  0.15848  0.09113  Biso   1.000  C
  O17      1.0000 0.18468  0.15949  0.09925  Biso   1.000  O
  H103     1.0000 0.81592  0.15410  0.09202  Biso   1.000  H
  C90      1.0000 0.68822  0.12082  0.14879  Biso   1.000  C
  C91      1.0000 0.31891  0.25673  0.09982  Biso   1.000  C
  H104     1.0000 0.16529  0.21811  0.06338  Biso   1.000  H
  C92      1.0000 0.99623  0.21483  0.06770  Biso   1.000  C
  O18      1.0000 0.80161  0.21554  0.07221  Biso   1.000  O
  C93      1.0000 0.98178  0.18221  0.04038  Biso   1.000  C
  C94      1.0000 0.29090  0.14629  0.11878  Biso   1.000  C
  H105     1.0000 0.68482  0.10929  0.10888  Biso   1.000  H
  H106     1.0000 0.67553  0.14281  0.13879  Biso   1.000  H
  C95      1.0000 0.59873  0.10929  0.18658  Biso   1.000  C
  H107     1.0000 0.31124  0.25080  0.05498  Biso   1.000  H
  H108     1.0000 0.33033  0.23790  0.12569  Biso   1.000  H
  C96      1.0000 0.41619  0.27762  0.11461  Biso   1.000  C
  C97      1.0000 0.69994  0.23277  0.07108  Biso   1.000  C
  H109     1.0000 0.04309  0.17811  0.01432  Biso   1.000  H
  H110     1.0000 0.90833  0.18079  0.01291  Biso   1.000  H
  H111     1.0000 0.29164  0.12471  0.10461  Biso   1.000  H
  H112     1.0000 0.30644  0.14661  0.16522  Biso   1.000  H
  C98      1.0000 0.37908  0.16409  0.09160  Biso   1.000  C
  H113     1.0000 0.61983  0.08879  0.20301  Biso   1.000  H
  H114     1.0000 0.52553  0.10819  0.15982  Biso   1.000  H
  H115     1.0000 0.59266  0.12329  0.22161  Biso   1.000  H
  H116     1.0000 0.40091  0.29691  0.09169  Biso   1.000  H
  H117     1.0000 0.48473  0.26809  0.10221  Biso   1.000  H
  H118     1.0000 0.42774  0.28179  0.15982  Biso   1.000  H
  H119     1.0000 0.70230  0.25091  0.04362  Biso   1.000  H
  H120     1.0000 0.69104  0.23989  0.11390  Biso   1.000  H
  C99      1.0000 0.60491  0.21281  0.04719  Biso   1.000  C
  H121     1.0000 0.36074  0.16471  0.04582  Biso   1.000  H
  H122     1.0000 0.45334  0.15431  0.10268  Biso   1.000  H
  H123     1.0000 0.38171  0.18500  0.10831  Biso   1.000  H
  H124     1.0000 0.62367  0.20170  0.01019  Biso   1.000  H
  H125     1.0000 0.53680  0.22530  0.03540  Biso   1.000  H
  H126     1.0000 0.59062  0.19811  0.07982  Biso   1.000  H
  C100     1.0000 0.14644  0.51978  0.58941  Biso   1.000  C
  C101     1.0000 0.04686  0.50375  0.59082  Biso   1.000  C
  O19      1.0000 0.24336  0.50636  0.61895  Biso   1.000  O
  C102     1.0000 0.14436  0.54773  0.55847  Biso   1.000  C
  C103     1.0000 0.04564  0.47204  0.62026  Biso   1.000  C
  C104     1.0000 0.94418  0.51687  0.56477  Biso   1.000  C
  C105     1.0000 0.34551  0.52175  0.62031  Biso   1.000  C
  C106     1.0000 0.04342  0.56058  0.53087  Biso   1.000  C
  H127     1.0000 0.21375  0.55829  0.55622  Biso   1.000  H
  H128     1.0000 0.12022  0.46210  0.61862  Biso   1.000  H
  C107     1.0000 0.02158  0.47266  0.68693  Biso   1.000  C
  H129     1.0000 0.98715  0.45940  0.59519  Biso   1.000  H
  C108     1.0000 0.94418  0.54512  0.53622  Biso   1.000  C
  H130     1.0000 0.87463  0.50640  0.56669  Biso   1.000  H
  H131     1.0000 0.36687  0.52370  0.57749  Biso   1.000  H
  H132     1.0000 0.34002  0.54251  0.63829  Biso   1.000  H
  C109     1.0000 0.43469  0.50200  0.66252  Biso   1.000  C
  C110     1.0000 0.04359  0.59093  0.49688  Biso   1.000  C
  C111     1.0000 0.10886  0.47275  0.73543  Biso   1.000  C
  C112     1.0000 0.91170  0.47234  0.70191  Biso   1.000  C
  O20      1.0000 0.84569  0.55957  0.50899  Biso   1.000  O
  H133     1.0000 0.46178  0.48551  0.63740  Biso   1.000  H
  H134     1.0000 0.49886  0.51490  0.67942  Biso   1.000  H
  H135     1.0000 0.39932  0.49321  0.69721  Biso   1.000  H
  C113     1.0000 0.04398  0.61829  0.54012  Biso   1.000  C
  H136     1.0000 0.11143  0.59190  0.47462  Biso   1.000  H
  H137     1.0000 0.97560  0.59201  0.46500  Biso   1.000  H
  H138     1.0000 0.18497  0.47309  0.72623  Biso   1.000  H
  C114     1.0000 0.08851  0.47234  0.79811  Biso   1.000  C
  O21      1.0000 0.82637  0.47154  0.65237  Biso   1.000  O
  C115     1.0000 0.89126  0.47275  0.76459  Biso   1.000  C
  C116     1.0000 0.74140  0.54425  0.51002  Biso   1.000  C
  C117     1.0000 0.14609  0.63132  0.56660  Biso   1.000  C
  C118     1.0000 0.94439  0.63084  0.55481  Biso   1.000  C
  O22      1.0000 0.17384  0.47154  0.84764  Biso   1.000  O
  C119     1.0000 0.97862  0.47266  0.81309  Biso   1.000  C
  C120     1.0000 0.73177  0.45447  0.65669  Biso   1.000  C
  H139     1.0000 0.81515  0.47309  0.77379  Biso   1.000  H
  H140     1.0000 0.74187  0.52429  0.48819  Biso   1.000  H
  H141     1.0000 0.72709  0.54060  0.55383  Biso   1.000  H
  C121     1.0000 0.65272  0.56470  0.47720  Biso   1.000  C
  O23      1.0000 0.24346  0.61744  0.55068  Biso   1.000  O
  C122     1.0000 0.14519  0.65721  0.60430  Biso   1.000  C
  C123     1.0000 0.94426  0.65588  0.59439  Biso   1.000  C
  H142     1.0000 0.87410  0.62211  0.53730  Biso   1.000  H
  C124     1.0000 0.26843  0.45447  0.84332  Biso   1.000  C
  C125     1.0000 0.95448  0.47204  0.87975  Biso   1.000  C
  H143     1.0000 0.75470  0.43411  0.67449  Biso   1.000  H
  H144     1.0000 0.68532  0.46471  0.68580  Biso   1.000  H
  C126     1.0000 0.66290  0.45037  0.59500  Biso   1.000  C
  H145     1.0000 0.65324  0.56310  0.43171  Biso   1.000  H
  H146     1.0000 0.57803  0.55870  0.48781  Biso   1.000  H
  H147     1.0000 0.66860  0.58589  0.49040  Biso   1.000  H
  C127     1.0000 0.34858  0.63077  0.57129  Biso   1.000  C
  C128     1.0000 0.04427  0.66960  0.61838  Biso   1.000  C
  H148     1.0000 0.21504  0.66651  0.62068  Biso   1.000  H
  O24      1.0000 0.84751  0.66893  0.61045  Biso   1.000  O
  H149     1.0000 0.24550  0.43411  0.82553  Biso   1.000  H
  H150     1.0000 0.31489  0.46471  0.81421  Biso   1.000  H
  C129     1.0000 0.33731  0.45037  0.90501  Biso   1.000  C
  H151     1.0000 0.01306  0.45940  0.90483  Biso   1.000  H
  C130     1.0000 0.95334  0.50375  0.90919  Biso   1.000  C
  H152     1.0000 0.87999  0.46210  0.88140  Biso   1.000  H
  H153     1.0000 0.69845  0.43491  0.57082  Biso   1.000  H
  H154     1.0000 0.58641  0.44359  0.60110  Biso   1.000  H
  H155     1.0000 0.65817  0.46991  0.57218  Biso   1.000  H
  H156     1.0000 0.35080  0.65201  0.55552  Biso   1.000  H
  H157     1.0000 0.36142  0.63130  0.61773  Biso   1.000  H
  C131     1.0000 0.43792  0.61203  0.54692  Biso   1.000  C
  C132     1.0000 0.04480  0.69745  0.66040  Biso   1.000  C
  C133     1.0000 0.74560  0.65164  0.60289  Biso   1.000  C
  H158     1.0000 0.30175  0.43491  0.92919  Biso   1.000  H
  H159     1.0000 0.41380  0.44359  0.89891  Biso   1.000  H
  H160     1.0000 0.34202  0.46991  0.92779  Biso   1.000  H
  C134     1.0000 0.05603  0.51687  0.93525  Biso   1.000  C
  C135     1.0000 0.85369  0.51978  0.91060  Biso   1.000  C
  H161     1.0000 0.42486  0.61180  0.50101  Biso   1.000  H
  H162     1.0000 0.51271  0.62090  0.56101  Biso   1.000  H
  H163     1.0000 0.43496  0.59100  0.56279  Biso   1.000  H
  C136     1.0000 0.02670  0.72767  0.62467  Biso   1.000  C
  H164     1.0000 0.11843  0.69830  0.68792  Biso   1.000  H
  H165     1.0000 0.98431  0.69510  0.68782  Biso   1.000  H
  H166     1.0000 0.71743  0.64880  0.55791  Biso   1.000  H
  H167     1.0000 0.75790  0.63130  0.62280  Biso   1.000  H
  C137     1.0000 0.66138  0.67019  0.63510  Biso   1.000  C
  C138     1.0000 0.05602  0.54512  0.96380  Biso   1.000  C
  H168     1.0000 0.12549  0.50640  0.93333  Biso   1.000  H
  O25      1.0000 0.75685  0.50636  0.88107  Biso   1.000  O
  C139     1.0000 0.85584  0.54773  0.94154  Biso   1.000  C
  C140     1.0000 0.11861  0.74245  0.60373  Biso   1.000  C
  C141     1.0000 0.92064  0.74132  0.61449  Biso   1.000  C
  H169     1.0000 0.64544  0.68960  0.61261  Biso   1.000  H
  H170     1.0000 0.59081  0.65860  0.63482  Biso   1.000  H
  H171     1.0000 0.69382  0.67450  0.67853  Biso   1.000  H
  O26      1.0000 0.15452  0.55957  0.99103  Biso   1.000  O
  C142     1.0000 0.95670  0.56058  0.96915  Biso   1.000  C
  C143     1.0000 0.65469  0.52175  0.87971  Biso   1.000  C
  H172     1.0000 0.78646  0.55829  0.94380  Biso   1.000  H
  O27      1.0000 0.22070  0.72769  0.61280  Biso   1.000  O
  C144     1.0000 0.10229  0.77140  0.57636  Biso   1.000  C
  C145     1.0000 0.90456  0.76941  0.58486  Biso   1.000  C
  H173     1.0000 0.85744  0.73120  0.62810  Biso   1.000  H
  C146     1.0000 0.25881  0.54425  0.98999  Biso   1.000  C
  C147     1.0000 0.95653  0.59093  0.00314  Biso   1.000  C
  H174     1.0000 0.63334  0.52370  0.92253  Biso   1.000  H
  H175     1.0000 0.66019  0.54251  0.86173  Biso   1.000  H
  C148     1.0000 0.56551  0.50200  0.83750  Biso   1.000  C
  C149     1.0000 0.31900  0.74327  0.59979  Biso   1.000  C
  H176     1.0000 0.16539  0.78189  0.56340  Biso   1.000  H
  C150     1.0000 0.99625  0.78517  0.56772  Biso   1.000  C
  O28      1.0000 0.80171  0.78446  0.57223  Biso   1.000  O
  H177     1.0000 0.27311  0.54060  0.94619  Biso   1.000  H
  H178     1.0000 0.25824  0.52429  0.01178  Biso   1.000  H
  C151     1.0000 0.34732  0.56470  0.02281  Biso   1.000  C
  C152     1.0000 0.95623  0.61829  0.95990  Biso   1.000  C
  H179     1.0000 0.88861  0.59190  0.02539  Biso   1.000  H
  H180     1.0000 0.02451  0.59201  0.03497  Biso   1.000  H
  H181     1.0000 0.53843  0.48551  0.86262  Biso   1.000  H
  H182     1.0000 0.50126  0.51490  0.82060  Biso   1.000  H
  H183     1.0000 0.60089  0.49321  0.80280  Biso   1.000  H
  H184     1.0000 0.31126  0.74920  0.55500  Biso   1.000  H
  H185     1.0000 0.33035  0.76210  0.62571  Biso   1.000  H
  C153     1.0000 0.41629  0.72238  0.61463  Biso   1.000  C
  C154     1.0000 0.98188  0.81779  0.54040  Biso   1.000  C
  C155     1.0000 0.69995  0.76723  0.57110  Biso   1.000  C
  H186     1.0000 0.34680  0.56310  0.06831  Biso   1.000  H
  H187     1.0000 0.42200  0.55870  0.01220  Biso   1.000  H
  H188     1.0000 0.33152  0.58589  0.00957  Biso   1.000  H
  C156     1.0000 0.05582  0.63084  0.94520  Biso   1.000  C
  C157     1.0000 0.85412  0.63132  0.93342  Biso   1.000  C
  H189     1.0000 0.40101  0.70309  0.59171  Biso   1.000  H
  H190     1.0000 0.48474  0.73191  0.60218  Biso   1.000  H
  H191     1.0000 0.42774  0.71821  0.65979  Biso   1.000  H
  H192     1.0000 0.04318  0.82189  0.51429  Biso   1.000  H
  C158     1.0000 0.98554  0.84152  0.59115  Biso   1.000  C
  H193     1.0000 0.90834  0.81921  0.51289  Biso   1.000  H
  H194     1.0000 0.70239  0.74909  0.54359  Biso   1.000  H
  H195     1.0000 0.69106  0.76011  0.61392  Biso   1.000  H
  C159     1.0000 0.60493  0.78719  0.54721  Biso   1.000  C
  C160     1.0000 0.05595  0.65588  0.90562  Biso   1.000  C
  H196     1.0000 0.12611  0.62211  0.96272  Biso   1.000  H
  O29      1.0000 0.75675  0.61744  0.94934  Biso   1.000  O
  C161     1.0000 0.85502  0.65721  0.89572  Biso   1.000  C
  C162     1.0000 0.08888  0.85218  0.62111  Biso   1.000  C
  C163     1.0000 0.88769  0.85254  0.61223  Biso   1.000  C
  H197     1.0000 0.62377  0.79830  0.51021  Biso   1.000  H
  H198     1.0000 0.53690  0.77470  0.53542  Biso   1.000  H
  H199     1.0000 0.59071  0.80189  0.57979  Biso   1.000  H
  O30      1.0000 0.15269  0.66893  0.88957  Biso   1.000  O
  C164     1.0000 0.95592  0.66960  0.88159  Biso   1.000  C
  C165     1.0000 0.65163  0.63077  0.92872  Biso   1.000  C
  H200     1.0000 0.78507  0.66651  0.87929  Biso   1.000  H
  O31      1.0000 0.18477  0.84051  0.59923  Biso   1.000  O
  C166     1.0000 0.09215  0.87270  0.66984  Biso   1.000  C
  C167     1.0000 0.89056  0.87268  0.66106  Biso   1.000  C
  H201     1.0000 0.81601  0.84590  0.59200  Biso   1.000  H
  C168     1.0000 0.25461  0.65164  0.89713  Biso   1.000  C
  C169     1.0000 0.95541  0.69745  0.83961  Biso   1.000  C
  H202     1.0000 0.64941  0.65201  0.94450  Biso   1.000  H
  H203     1.0000 0.63878  0.63130  0.88229  Biso   1.000  H
  C170     1.0000 0.56229  0.61203  0.95309  Biso   1.000  C
  C171     1.0000 0.29100  0.85371  0.61881  Biso   1.000  C
  H204     1.0000 0.16372  0.88010  0.68890  Biso   1.000  H
  C172     1.0000 0.99282  0.88306  0.69219  Biso   1.000  C
  O32      1.0000 0.79521  0.88333  0.68496  Biso   1.000  O
  H205     1.0000 0.28269  0.64880  0.94210  Biso   1.000  H
  H206     1.0000 0.24230  0.63130  0.87722  Biso   1.000  H
  C173     1.0000 0.33883  0.67019  0.86492  Biso   1.000  C
  H207     1.0000 0.01590  0.69510  0.81219  Biso   1.000  H
  C174     1.0000 0.97350  0.72767  0.87534  Biso   1.000  C
  H208     1.0000 0.88178  0.69830  0.81210  Biso   1.000  H
  H209     1.0000 0.57535  0.61180  0.99901  Biso   1.000  H
  H210     1.0000 0.48750  0.62090  0.93901  Biso   1.000  H
  H211     1.0000 0.56525  0.59100  0.93722  Biso   1.000  H
  H212     1.0000 0.29166  0.87529  0.60463  Biso   1.000  H
  H213     1.0000 0.30644  0.85339  0.66519  Biso   1.000  H
  C175     1.0000 0.37918  0.83591  0.59162  Biso   1.000  C
  C176     1.0000 0.00006  0.90301  0.74998  Biso   1.000  C
  C177     1.0000 0.68832  0.87918  0.64881  Biso   1.000  C
  H214     1.0000 0.35468  0.68960  0.88741  Biso   1.000  H
  H215     1.0000 0.40940  0.65860  0.86520  Biso   1.000  H
  H216     1.0000 0.30639  0.67450  0.82149  Biso   1.000  H
  C178     1.0000 0.07948  0.74132  0.88553  Biso   1.000  C
  C179     1.0000 0.88160  0.74245  0.89628  Biso   1.000  C
  H217     1.0000 0.36075  0.83529  0.54580  Biso   1.000  H
  H218     1.0000 0.45336  0.84569  0.60270  Biso   1.000  H
  H219     1.0000 0.38180  0.81500  0.60829  Biso   1.000  H
  H220     1.0000 0.06812  0.91629  0.75219  Biso   1.000  H
  C180     1.0000 0.00738  0.88306  0.80783  Biso   1.000  C
  H221     1.0000 0.93208  0.91629  0.74782  Biso   1.000  H
  H222     1.0000 0.68484  0.89071  0.60890  Biso   1.000  H
  H223     1.0000 0.67555  0.85719  0.63881  Biso   1.000  H
  C181     1.0000 0.59875  0.89071  0.68660  Biso   1.000  C
  C182     1.0000 0.09565  0.76941  0.91516  Biso   1.000  C
  H224     1.0000 0.14268  0.73120  0.87191  Biso   1.000  H
  O33      1.0000 0.77951  0.72769  0.88722  Biso   1.000  O
  C183     1.0000 0.89792  0.77140  0.92365  Biso   1.000  C
  C184     1.0000 0.10957  0.87268  0.83896  Biso   1.000  C
  C185     1.0000 0.90798  0.87270  0.83018  Biso   1.000  C
  H225     1.0000 0.61992  0.91121  0.70299  Biso   1.000  H
  H226     1.0000 0.52562  0.89181  0.65979  Biso   1.000  H
  H227     1.0000 0.59267  0.87671  0.72163  Biso   1.000  H
  O34      1.0000 0.19849  0.78446  0.92779  Biso   1.000  O
  C186     1.0000 0.00396  0.78517  0.93229  Biso   1.000  C
  C187     1.0000 0.68121  0.74327  0.90023  Biso   1.000  C
  H228     1.0000 0.83481  0.78189  0.93661  Biso   1.000  H
  C188     1.0000 0.11252  0.85254  0.88778  Biso   1.000  C
  O35      1.0000 0.20499  0.88333  0.81506  Biso   1.000  O
  C189     1.0000 0.91133  0.85218  0.87891  Biso   1.000  C
  H229     1.0000 0.83649  0.88010  0.81111  Biso   1.000  H
  C190     1.0000 0.30025  0.76723  0.92891  Biso   1.000  C
  C191     1.0000 0.01833  0.81779  0.95962  Biso   1.000  C
  H230     1.0000 0.68895  0.74920  0.94502  Biso   1.000  H
  H231     1.0000 0.66978  0.76210  0.87431  Biso   1.000  H
  C192     1.0000 0.58391  0.72238  0.88539  Biso   1.000  C
  C193     1.0000 0.01459  0.84152  0.90886  Biso   1.000  C
  H232     1.0000 0.18420  0.84590  0.90802  Biso   1.000  H
  C194     1.0000 0.31188  0.87918  0.85121  Biso   1.000  C
  O36      1.0000 0.81543  0.84051  0.90079  Biso   1.000  O
  H233     1.0000 0.29782  0.74909  0.95642  Biso   1.000  H
  H234     1.0000 0.30915  0.76011  0.88609  Biso   1.000  H
  C195     1.0000 0.39519  0.78719  0.95281  Biso   1.000  C
  H235     1.0000 0.09187  0.81921  0.98713  Biso   1.000  H
  H236     1.0000 0.95702  0.82189  0.98572  Biso   1.000  H
  H237     1.0000 0.59919  0.70309  0.90830  Biso   1.000  H
  H238     1.0000 0.51538  0.73191  0.89783  Biso   1.000  H
  H239     1.0000 0.57238  0.71821  0.84022  Biso   1.000  H
  H240     1.0000 0.31529  0.89071  0.89112  Biso   1.000  H
  H241     1.0000 0.32457  0.85719  0.86121  Biso   1.000  H
  C196     1.0000 0.40138  0.89071  0.81341  Biso   1.000  C
  C197     1.0000 0.70920  0.85371  0.88121  Biso   1.000  C
  H242     1.0000 0.37644  0.79830  0.98981  Biso   1.000  H
  H243     1.0000 0.46330  0.77470  0.96459  Biso   1.000  H
  H244     1.0000 0.40950  0.80189  0.92023  Biso   1.000  H
  H245     1.0000 0.38029  0.91121  0.79703  Biso   1.000  H
  H246     1.0000 0.47459  0.89181  0.84022  Biso   1.000  H
  H247     1.0000 0.40753  0.87671  0.77839  Biso   1.000  H
  H248     1.0000 0.70855  0.87529  0.89539  Biso   1.000  H
  H249     1.0000 0.69368  0.85339  0.83482  Biso   1.000  H
  C198     1.0000 0.62103  0.83591  0.90839  Biso   1.000  C
  H250     1.0000 0.63946  0.83529  0.95422  Biso   1.000  H
  H251     1.0000 0.54685  0.84569  0.89731  Biso   1.000  H
  H252     1.0000 0.61841  0.81500  0.89173  Biso   1.000  H
  C199     1.0000 0.18832  0.37917  0.64881  Biso   1.000  C
  O37      1.0000 0.29521  0.38334  0.68496  Biso   1.000  O
  H253     1.0000 0.18484  0.39069  0.60890  Biso   1.000  H
  H254     1.0000 0.17555  0.35720  0.63881  Biso   1.000  H
  C200     1.0000 0.09875  0.39072  0.68660  Biso   1.000  C
  C201     1.0000 0.39056  0.37267  0.66106  Biso   1.000  C
  H255     1.0000 0.11992  0.41120  0.70299  Biso   1.000  H
  H256     1.0000 0.02562  0.39179  0.65979  Biso   1.000  H
  H257     1.0000 0.09267  0.37670  0.72163  Biso   1.000  H
  C202     1.0000 0.38769  0.35255  0.61223  Biso   1.000  C
  C203     1.0000 0.49282  0.38307  0.69219  Biso   1.000  C
  C204     1.0000 0.48554  0.34153  0.59115  Biso   1.000  C
  H258     1.0000 0.31601  0.34591  0.59200  Biso   1.000  H
  C205     1.0000 0.59215  0.37271  0.66984  Biso   1.000  C
  C206     1.0000 0.50006  0.40300  0.74998  Biso   1.000  C
  C207     1.0000 0.48188  0.31778  0.54040  Biso   1.000  C
  C208     1.0000 0.58888  0.35219  0.62111  Biso   1.000  C
  H259     1.0000 0.66372  0.38011  0.68890  Biso   1.000  H
  H260     1.0000 0.56812  0.41631  0.75219  Biso   1.000  H
  H261     1.0000 0.43208  0.41631  0.74782  Biso   1.000  H
  C209     1.0000 0.50738  0.38307  0.80783  Biso   1.000  C
  C210     1.0000 0.49625  0.28518  0.56772  Biso   1.000  C
  H262     1.0000 0.40834  0.31920  0.51289  Biso   1.000  H
  H263     1.0000 0.54318  0.32190  0.51429  Biso   1.000  H
  O38      1.0000 0.68477  0.34053  0.59923  Biso   1.000  O
  C211     1.0000 0.60957  0.37267  0.83896  Biso   1.000  C
  C212     1.0000 0.40798  0.37271  0.83018  Biso   1.000  C
  C213     1.0000 0.40456  0.26942  0.58486  Biso   1.000  C
  C214     1.0000 0.60229  0.27141  0.57636  Biso   1.000  C
  C215     1.0000 0.79100  0.35372  0.61881  Biso   1.000  C
  O39      1.0000 0.70499  0.38334  0.81506  Biso   1.000  O
  C216     1.0000 0.61252  0.35255  0.88778  Biso   1.000  C
  C217     1.0000 0.41133  0.35219  0.87891  Biso   1.000  C
  H264     1.0000 0.33649  0.38011  0.81111  Biso   1.000  H
  O40      1.0000 0.30171  0.28447  0.57223  Biso   1.000  O
  C218     1.0000 0.42064  0.24131  0.61449  Biso   1.000  C
  C219     1.0000 0.61861  0.24246  0.60373  Biso   1.000  C
  H265     1.0000 0.66539  0.28191  0.56340  Biso   1.000  H
  H266     1.0000 0.79166  0.37530  0.60463  Biso   1.000  H
  H267     1.0000 0.80644  0.35340  0.66519  Biso   1.000  H
  C220     1.0000 0.87918  0.33592  0.59162  Biso   1.000  C
  C221     1.0000 0.81188  0.37917  0.85121  Biso   1.000  C
  H268     1.0000 0.68420  0.34591  0.90802  Biso   1.000  H
  C222     1.0000 0.51459  0.34153  0.90886  Biso   1.000  C
  O41      1.0000 0.31543  0.34053  0.90079  Biso   1.000  O
  C223     1.0000 0.19995  0.26724  0.57110  Biso   1.000  C
  H269     1.0000 0.35744  0.23121  0.62810  Biso   1.000  H
  C224     1.0000 0.52670  0.22766  0.62467  Biso   1.000  C
  O42      1.0000 0.72070  0.22770  0.61280  Biso   1.000  O
  H270     1.0000 0.86075  0.33530  0.54580  Biso   1.000  H
  H271     1.0000 0.95336  0.34570  0.60270  Biso   1.000  H
  H272     1.0000 0.88180  0.31501  0.60829  Biso   1.000  H
  H273     1.0000 0.81529  0.39069  0.89112  Biso   1.000  H
  H274     1.0000 0.82457  0.35720  0.86121  Biso   1.000  H
  C225     1.0000 0.90138  0.39072  0.81341  Biso   1.000  C
  C226     1.0000 0.51833  0.31778  0.95962  Biso   1.000  C
  C227     1.0000 0.20920  0.35372  0.88121  Biso   1.000  C
  H275     1.0000 0.20239  0.24910  0.54359  Biso   1.000  H
  H276     1.0000 0.19106  0.26010  0.61392  Biso   1.000  H
  C228     1.0000 0.10493  0.28720  0.54721  Biso   1.000  C
  C229     1.0000 0.54480  0.19744  0.66040  Biso   1.000  C
  C230     1.0000 0.81900  0.24328  0.59979  Biso   1.000  C
  H277     1.0000 0.88029  0.41120  0.79703  Biso   1.000  H
  H278     1.0000 0.97459  0.39179  0.84022  Biso   1.000  H
  H279     1.0000 0.90753  0.37670  0.77839  Biso   1.000  H
  H280     1.0000 0.59187  0.31920  0.98713  Biso   1.000  H
  H281     1.0000 0.45702  0.32190  0.98572  Biso   1.000  H
  C231     1.0000 0.50396  0.28518  0.93229  Biso   1.000  C
  H282     1.0000 0.20855  0.37530  0.89539  Biso   1.000  H
  H283     1.0000 0.19368  0.35340  0.83482  Biso   1.000  H
  C232     1.0000 0.12103  0.33592  0.90839  Biso   1.000  C
  H284     1.0000 0.12377  0.29831  0.51021  Biso   1.000  H
  H285     1.0000 0.03690  0.27469  0.53542  Biso   1.000  H
  H286     1.0000 0.09071  0.30190  0.57979  Biso   1.000  H
  H287     1.0000 0.48431  0.19511  0.68782  Biso   1.000  H
  H288     1.0000 0.61843  0.19829  0.68792  Biso   1.000  H
  C233     1.0000 0.54427  0.16961  0.61838  Biso   1.000  C
  H289     1.0000 0.81126  0.24919  0.55500  Biso   1.000  H
  H290     1.0000 0.83035  0.26209  0.62571  Biso   1.000  H
  C234     1.0000 0.91629  0.22239  0.61463  Biso   1.000  C
  C235     1.0000 0.59565  0.26942  0.91516  Biso   1.000  C
  C236     1.0000 0.39792  0.27141  0.92365  Biso   1.000  C
  H291     1.0000 0.13946  0.33530  0.95422  Biso   1.000  H
  H292     1.0000 0.04685  0.34570  0.89731  Biso   1.000  H
  H293     1.0000 0.11841  0.31501  0.89173  Biso   1.000  H
  C237     1.0000 0.44426  0.15587  0.59439  Biso   1.000  C
  C238     1.0000 0.64519  0.15719  0.60430  Biso   1.000  C
  H294     1.0000 0.90101  0.20310  0.59171  Biso   1.000  H
  H295     1.0000 0.98474  0.23190  0.60218  Biso   1.000  H
  H296     1.0000 0.92774  0.21820  0.65979  Biso   1.000  H
  O43      1.0000 0.69849  0.28447  0.92779  Biso   1.000  O
  C239     1.0000 0.57948  0.24131  0.88553  Biso   1.000  C
  C240     1.0000 0.38160  0.24246  0.89628  Biso   1.000  C
  H297     1.0000 0.33481  0.28191  0.93661  Biso   1.000  H
  O44      1.0000 0.34751  0.16895  0.61045  Biso   1.000  O
  C241     1.0000 0.44439  0.13083  0.55481  Biso   1.000  C
  C242     1.0000 0.64609  0.13131  0.56660  Biso   1.000  C
  H298     1.0000 0.71504  0.16649  0.62068  Biso   1.000  H
  C243     1.0000 0.80025  0.26724  0.92891  Biso   1.000  C
  H299     1.0000 0.64268  0.23121  0.87191  Biso   1.000  H
  C244     1.0000 0.47350  0.22766  0.87534  Biso   1.000  C
  O45      1.0000 0.27951  0.22770  0.88722  Biso   1.000  O
  C245     1.0000 0.24560  0.15165  0.60289  Biso   1.000  C
  H300     1.0000 0.37410  0.12210  0.53730  Biso   1.000  H
  C246     1.0000 0.54398  0.11827  0.54012  Biso   1.000  C
  O46      1.0000 0.74346  0.11745  0.55068  Biso   1.000  O
  H301     1.0000 0.79782  0.24910  0.95642  Biso   1.000  H
  H302     1.0000 0.80915  0.26010  0.88609  Biso   1.000  H
  C247     1.0000 0.89519  0.28720  0.95281  Biso   1.000  C
  C248     1.0000 0.45541  0.19744  0.83961  Biso   1.000  C
  C249     1.0000 0.18121  0.24328  0.90023  Biso   1.000  C
  H303     1.0000 0.21743  0.14881  0.55791  Biso   1.000  H
  H304     1.0000 0.25790  0.13131  0.62280  Biso   1.000  H
  C250     1.0000 0.16138  0.17021  0.63510  Biso   1.000  C
  C251     1.0000 0.54359  0.09092  0.49688  Biso   1.000  C
  C252     1.0000 0.84858  0.13078  0.57129  Biso   1.000  C
  H305     1.0000 0.87644  0.29831  0.98981  Biso   1.000  H
  H306     1.0000 0.96330  0.27469  0.96459  Biso   1.000  H
  H307     1.0000 0.90950  0.30190  0.92023  Biso   1.000  H
  H308     1.0000 0.51590  0.19511  0.81219  Biso   1.000  H
  H309     1.0000 0.38178  0.19829  0.81210  Biso   1.000  H
  C253     1.0000 0.45592  0.16961  0.88159  Biso   1.000  C
  H310     1.0000 0.18895  0.24919  0.94502  Biso   1.000  H
  H311     1.0000 0.16978  0.26209  0.87431  Biso   1.000  H
  C254     1.0000 0.08391  0.22239  0.88539  Biso   1.000  C
  H312     1.0000 0.14544  0.18961  0.61261  Biso   1.000  H
  H313     1.0000 0.09081  0.15859  0.63482  Biso   1.000  H
  H314     1.0000 0.19382  0.17449  0.67853  Biso   1.000  H
  H315     1.0000 0.61143  0.09191  0.47462  Biso   1.000  H
  H316     1.0000 0.47560  0.09200  0.46500  Biso   1.000  H
  C255     1.0000 0.54342  0.06059  0.53087  Biso   1.000  C
  H317     1.0000 0.85080  0.15199  0.55552  Biso   1.000  H
  H318     1.0000 0.86142  0.13131  0.61773  Biso   1.000  H
  C256     1.0000 0.93792  0.11202  0.54692  Biso   1.000  C
  C257     1.0000 0.55595  0.15587  0.90562  Biso   1.000  C
  C258     1.0000 0.35502  0.15719  0.89572  Biso   1.000  C
  H319     1.0000 0.09919  0.20310  0.90830  Biso   1.000  H
  H320     1.0000 0.01538  0.23190  0.89783  Biso   1.000  H
  H321     1.0000 0.07238  0.21820  0.84022  Biso   1.000  H
  C259     1.0000 0.44418  0.04513  0.53622  Biso   1.000  C
  C260     1.0000 0.64436  0.04774  0.55847  Biso   1.000  C
  H322     1.0000 0.92486  0.11179  0.50101  Biso   1.000  H
  H323     1.0000 0.93496  0.09099  0.56279  Biso   1.000  H
  H324     1.0000 0.01271  0.12091  0.56101  Biso   1.000  H
  O47      1.0000 0.65269  0.16895  0.88957  Biso   1.000  O
  C261     1.0000 0.55582  0.13083  0.94520  Biso   1.000  C
  C262     1.0000 0.35412  0.13131  0.93342  Biso   1.000  C
  H325     1.0000 0.28507  0.16649  0.87929  Biso   1.000  H
  O48      1.0000 0.34569  0.05956  0.50899  Biso   1.000  O
  C263     1.0000 0.44418  0.01686  0.56477  Biso   1.000  C
  C264     1.0000 0.64644  0.01979  0.58941  Biso   1.000  C
  H326     1.0000 0.71375  0.05830  0.55622  Biso   1.000  H
  C265     1.0000 0.75461  0.15165  0.89713  Biso   1.000  C
  H327     1.0000 0.62611  0.12210  0.96272  Biso   1.000  H
  C266     1.0000 0.45623  0.11827  0.95990  Biso   1.000  C
  O49      1.0000 0.25675  0.11745  0.94934  Biso   1.000  O
  C267     1.0000 0.24140  0.04426  0.51002  Biso   1.000  C
  H328     1.0000 0.37463  0.00639  0.56669  Biso   1.000  H
  C268     1.0000 0.54686  0.00376  0.59082  Biso   1.000  C
  O50      1.0000 0.74336  0.00635  0.61895  Biso   1.000  O
  H329     1.0000 0.78269  0.14881  0.94210  Biso   1.000  H
  H330     1.0000 0.74230  0.13131  0.87722  Biso   1.000  H
  C269     1.0000 0.83883  0.17021  0.86492  Biso   1.000  C
  C270     1.0000 0.45653  0.09092  0.00314  Biso   1.000  C
  C271     1.0000 0.15163  0.13078  0.92872  Biso   1.000  C
  H331     1.0000 0.24187  0.02431  0.48819  Biso   1.000  H
  H332     1.0000 0.22709  0.04059  0.55383  Biso   1.000  H
  C272     1.0000 0.15272  0.06469  0.47720  Biso   1.000  C
  C273     1.0000 0.54564  0.97203  0.62026  Biso   1.000  C
  C274     1.0000 0.84551  0.02176  0.62031  Biso   1.000  C
  H333     1.0000 0.85468  0.18961  0.88741  Biso   1.000  H
  H334     1.0000 0.90940  0.15859  0.86520  Biso   1.000  H
  H335     1.0000 0.80639  0.17449  0.82149  Biso   1.000  H
  C275     1.0000 0.45670  0.06059  0.96915  Biso   1.000  C
  H336     1.0000 0.38861  0.09191  0.02539  Biso   1.000  H
  H337     1.0000 0.52451  0.09200  0.03497  Biso   1.000  H
  H338     1.0000 0.14941  0.15199  0.94450  Biso   1.000  H
  H339     1.0000 0.13878  0.13131  0.88229  Biso   1.000  H
  C276     1.0000 0.06229  0.11202  0.95309  Biso   1.000  C
  H340     1.0000 0.15324  0.06311  0.43171  Biso   1.000  H
  H341     1.0000 0.07803  0.05869  0.48781  Biso   1.000  H
  H342     1.0000 0.16860  0.08590  0.49040  Biso   1.000  H
  H343     1.0000 0.62022  0.96211  0.61862  Biso   1.000  H
  H344     1.0000 0.48715  0.95941  0.59519  Biso   1.000  H
  C277     1.0000 0.52158  0.97267  0.68693  Biso   1.000  C
  H345     1.0000 0.86687  0.02371  0.57749  Biso   1.000  H
  H346     1.0000 0.84002  0.04249  0.63829  Biso   1.000  H
  C278     1.0000 0.93469  0.00199  0.66252  Biso   1.000  C
  C279     1.0000 0.55602  0.04513  0.96380  Biso   1.000  C
  C280     1.0000 0.35584  0.04774  0.94154  Biso   1.000  C
  H347     1.0000 0.07535  0.11179  0.99901  Biso   1.000  H
  H348     1.0000 0.06525  0.09099  0.93722  Biso   1.000  H
  H349     1.0000 0.98750  0.12091  0.93901  Biso   1.000  H
  C281     1.0000 0.60886  0.97276  0.73543  Biso   1.000  C
  C282     1.0000 0.41170  0.97233  0.70191  Biso   1.000  C
  H350     1.0000 0.99886  0.01489  0.67942  Biso   1.000  H
  H351     1.0000 0.96178  0.98550  0.63740  Biso   1.000  H
  H352     1.0000 0.89932  0.99320  0.69721  Biso   1.000  H
  C283     1.0000 0.55603  0.01686  0.93525  Biso   1.000  C
  O51      1.0000 0.65452  0.05956  0.99103  Biso   1.000  O
  C284     1.0000 0.35369  0.01979  0.91060  Biso   1.000  C
  H353     1.0000 0.28646  0.05830  0.94380  Biso   1.000  H
  H354     1.0000 0.68497  0.97311  0.72623  Biso   1.000  H
  C285     1.0000 0.58851  0.97233  0.79811  Biso   1.000  C
  O52      1.0000 0.32637  0.97155  0.65237  Biso   1.000  O
  C286     1.0000 0.39126  0.97276  0.76459  Biso   1.000  C
  C287     1.0000 0.45334  0.00376  0.90919  Biso   1.000  C
  H355     1.0000 0.62549  0.00639  0.93333  Biso   1.000  H
  C288     1.0000 0.75881  0.04426  0.98999  Biso   1.000  C
  O53      1.0000 0.25685  0.00635  0.88107  Biso   1.000  O
  O54      1.0000 0.67384  0.97155  0.84764  Biso   1.000  O
  C289     1.0000 0.47862  0.97267  0.81309  Biso   1.000  C
  C290     1.0000 0.23177  0.95448  0.65669  Biso   1.000  C
  H356     1.0000 0.31515  0.97311  0.77379  Biso   1.000  H
  C291     1.0000 0.45448  0.97203  0.87975  Biso   1.000  C
  H357     1.0000 0.77311  0.04059  0.94619  Biso   1.000  H
  H358     1.0000 0.75824  0.02431  0.01178  Biso   1.000  H
  C292     1.0000 0.84732  0.06469  0.02281  Biso   1.000  C
  C293     1.0000 0.15469  0.02176  0.87971  Biso   1.000  C
  C294     1.0000 0.76843  0.95448  0.84332  Biso   1.000  C
  H359     1.0000 0.25470  0.93409  0.67449  Biso   1.000  H
  H360     1.0000 0.18532  0.96470  0.68580  Biso   1.000  H
  C295     1.0000 0.16290  0.95038  0.59500  Biso   1.000  C
  H361     1.0000 0.37999  0.96211  0.88140  Biso   1.000  H
  H362     1.0000 0.51306  0.95941  0.90483  Biso   1.000  H
  H363     1.0000 0.84680  0.06311  0.06831  Biso   1.000  H
  H364     1.0000 0.92200  0.05869  0.01220  Biso   1.000  H
  H365     1.0000 0.83152  0.08590  0.00957  Biso   1.000  H
  H366     1.0000 0.13334  0.02371  0.92253  Biso   1.000  H
  H367     1.0000 0.16019  0.04249  0.86173  Biso   1.000  H
  C296     1.0000 0.06551  0.00199  0.83750  Biso   1.000  C
  H368     1.0000 0.74550  0.93409  0.82553  Biso   1.000  H
  H369     1.0000 0.81489  0.96470  0.81421  Biso   1.000  H
  C297     1.0000 0.83731  0.95038  0.90501  Biso   1.000  C
  H370     1.0000 0.19845  0.93490  0.57082  Biso   1.000  H
  H371     1.0000 0.08641  0.94360  0.60110  Biso   1.000  H
  H372     1.0000 0.15817  0.96990  0.57218  Biso   1.000  H
  H373     1.0000 0.00126  0.01489  0.82060  Biso   1.000  H
  H374     1.0000 0.03843  0.98550  0.86262  Biso   1.000  H
  H375     1.0000 0.10089  0.99320  0.80280  Biso   1.000  H
  H376     1.0000 0.80175  0.93490  0.92919  Biso   1.000  H
  H377     1.0000 0.91380  0.94360  0.89891  Biso   1.000  H
  H378     1.0000 0.84202  0.96990  0.92779  Biso   1.000  H
  C298     1.0000 0.20910  0.64628  0.38119  Biso   1.000  C
  O55      1.0000 0.31533  0.65947  0.40077  Biso   1.000  O
  H379     1.0000 0.20846  0.62470  0.39542  Biso   1.000  H
  H380     1.0000 0.19366  0.64660  0.33480  Biso   1.000  H
  C299     1.0000 0.12094  0.66408  0.40842  Biso   1.000  C
  C300     1.0000 0.41123  0.64781  0.37889  Biso   1.000  C
  H381     1.0000 0.13936  0.66470  0.45420  Biso   1.000  H
  H382     1.0000 0.04675  0.65430  0.39729  Biso   1.000  H
  H383     1.0000 0.11831  0.68499  0.39171  Biso   1.000  H
  C301     1.0000 0.40796  0.62729  0.33015  Biso   1.000  C
  C302     1.0000 0.51457  0.65847  0.40884  Biso   1.000  C
  C303     1.0000 0.50738  0.61693  0.30785  Biso   1.000  C
  H384     1.0000 0.33647  0.61989  0.31109  Biso   1.000  H
  C304     1.0000 0.61242  0.64745  0.38776  Biso   1.000  C
  C305     1.0000 0.51823  0.68222  0.45960  Biso   1.000  C
  C306     1.0000 0.50005  0.59700  0.25001  Biso   1.000  C
  C307     1.0000 0.60955  0.62733  0.33893  Biso   1.000  C
  H385     1.0000 0.68418  0.65409  0.40800  Biso   1.000  H
  H386     1.0000 0.59177  0.68080  0.48711  Biso   1.000  H
  H387     1.0000 0.45692  0.67810  0.48570  Biso   1.000  H
  C308     1.0000 0.50386  0.71482  0.43227  Biso   1.000  C
  H388     1.0000 0.43207  0.58369  0.24780  Biso   1.000  H
  H389     1.0000 0.56803  0.58369  0.25222  Biso   1.000  H
  C309     1.0000 0.49272  0.61693  0.19217  Biso   1.000  C
  O56      1.0000 0.70490  0.61666  0.31508  Biso   1.000  O
  C310     1.0000 0.59555  0.73058  0.41513  Biso   1.000  C
  C311     1.0000 0.39782  0.72859  0.42363  Biso   1.000  C
  C312     1.0000 0.39054  0.62733  0.16104  Biso   1.000  C
  C313     1.0000 0.59213  0.62729  0.16982  Biso   1.000  C
  C314     1.0000 0.81187  0.62083  0.35119  Biso   1.000  C
  O57      1.0000 0.69849  0.71553  0.42781  Biso   1.000  O
  C315     1.0000 0.57947  0.75869  0.38551  Biso   1.000  C
  C316     1.0000 0.38159  0.75754  0.39631  Biso   1.000  C
  H390     1.0000 0.33471  0.71809  0.43659  Biso   1.000  H
  O58      1.0000 0.29511  0.61666  0.18494  Biso   1.000  O
  C317     1.0000 0.38760  0.64745  0.11226  Biso   1.000  C
  C318     1.0000 0.58878  0.64781  0.12108  Biso   1.000  C
  H391     1.0000 0.66362  0.61989  0.18888  Biso   1.000  H
  H392     1.0000 0.81527  0.60931  0.39110  Biso   1.000  H
  H393     1.0000 0.82456  0.64280  0.36119  Biso   1.000  H
  C319     1.0000 0.90136  0.60928  0.31339  Biso   1.000  C
  C320     1.0000 0.80015  0.73276  0.42889  Biso   1.000  C
  H394     1.0000 0.64267  0.76879  0.37189  Biso   1.000  H
  C321     1.0000 0.47340  0.77234  0.37532  Biso   1.000  C
  O59      1.0000 0.27949  0.77230  0.38720  Biso   1.000  O
  C322     1.0000 0.18822  0.62083  0.14879  Biso   1.000  C
  H395     1.0000 0.31592  0.65409  0.09202  Biso   1.000  H
  C323     1.0000 0.48552  0.65847  0.09113  Biso   1.000  C
  O60      1.0000 0.68468  0.65947  0.09925  Biso   1.000  O
  H396     1.0000 0.88027  0.58880  0.29701  Biso   1.000  H
  H397     1.0000 0.97457  0.60821  0.34020  Biso   1.000  H
  H398     1.0000 0.90744  0.62330  0.27842  Biso   1.000  H
  H399     1.0000 0.79772  0.75090  0.45640  Biso   1.000  H
  H400     1.0000 0.80906  0.73990  0.38612  Biso   1.000  H
  C324     1.0000 0.89518  0.71280  0.45279  Biso   1.000  C
  C325     1.0000 0.45531  0.80256  0.33959  Biso   1.000  C
  C326     1.0000 0.18119  0.75672  0.40020  Biso   1.000  C
  H401     1.0000 0.18482  0.60931  0.10888  Biso   1.000  H
  H402     1.0000 0.17553  0.64280  0.13879  Biso   1.000  H
  C327     1.0000 0.09873  0.60928  0.18658  Biso   1.000  C
  C328     1.0000 0.48178  0.68222  0.04038  Biso   1.000  C
  C329     1.0000 0.79090  0.64628  0.11878  Biso   1.000  C
  H403     1.0000 0.87634  0.70169  0.48979  Biso   1.000  H
  H404     1.0000 0.96330  0.72531  0.46462  Biso   1.000  H
  H405     1.0000 0.90948  0.69810  0.42021  Biso   1.000  H
  H406     1.0000 0.51581  0.80489  0.31222  Biso   1.000  H
  H407     1.0000 0.38177  0.80171  0.31213  Biso   1.000  H
  C330     1.0000 0.45583  0.83039  0.38161  Biso   1.000  C
  H408     1.0000 0.18885  0.75081  0.44500  Biso   1.000  H
  H409     1.0000 0.16976  0.73791  0.37429  Biso   1.000  H
  C331     1.0000 0.08382  0.77761  0.38542  Biso   1.000  C
  H410     1.0000 0.11983  0.58880  0.20301  Biso   1.000  H
  H411     1.0000 0.02553  0.60821  0.15982  Biso   1.000  H
  H412     1.0000 0.09266  0.62330  0.22161  Biso   1.000  H
  H413     1.0000 0.40833  0.68080  0.01291  Biso   1.000  H
  H414     1.0000 0.54309  0.67810  0.01432  Biso   1.000  H
  C332     1.0000 0.49623  0.71482  0.06770  Biso   1.000  C
  H415     1.0000 0.79164  0.62470  0.10461  Biso   1.000  H
  H416     1.0000 0.80644  0.64660  0.16522  Biso   1.000  H
  C333     1.0000 0.87908  0.66408  0.09160  Biso   1.000  C
  C334     1.0000 0.55585  0.84413  0.40560  Biso   1.000  C
  C335     1.0000 0.35492  0.84281  0.39570  Biso   1.000  C
  H417     1.0000 0.09919  0.79690  0.40833  Biso   1.000  H
  H418     1.0000 0.01537  0.76810  0.39781  Biso   1.000  H
  H419     1.0000 0.07236  0.78180  0.34020  Biso   1.000  H
  C336     1.0000 0.40455  0.73058  0.08489  Biso   1.000  C
  C337     1.0000 0.60219  0.72859  0.07634  Biso   1.000  C
  H420     1.0000 0.86074  0.66470  0.04582  Biso   1.000  H
  H421     1.0000 0.95334  0.65430  0.10268  Biso   1.000  H
  H422     1.0000 0.88171  0.68499  0.10831  Biso   1.000  H
  O61      1.0000 0.65269  0.83105  0.38959  Biso   1.000  O
  C338     1.0000 0.55572  0.86917  0.44518  Biso   1.000  C
  C339     1.0000 0.35402  0.86869  0.43340  Biso   1.000  C
  H423     1.0000 0.28506  0.83351  0.37931  Biso   1.000  H
  O62      1.0000 0.30161  0.71553  0.07221  Biso   1.000  O
  C340     1.0000 0.42063  0.75869  0.11451  Biso   1.000  C
  C341     1.0000 0.61851  0.75754  0.10371  Biso   1.000  C
  H424     1.0000 0.66529  0.71809  0.06338  Biso   1.000  H
  C342     1.0000 0.75459  0.84835  0.39711  Biso   1.000  C
  H425     1.0000 0.62609  0.87790  0.46270  Biso   1.000  H
  C343     1.0000 0.45613  0.88173  0.45988  Biso   1.000  C
  O63      1.0000 0.25665  0.88255  0.44931  Biso   1.000  O
  C344     1.0000 0.19994  0.73276  0.07108  Biso   1.000  C
  H426     1.0000 0.35742  0.76879  0.12808  Biso   1.000  H
  C345     1.0000 0.52660  0.77234  0.12465  Biso   1.000  C
  O64      1.0000 0.72061  0.77230  0.11282  Biso   1.000  O
  H427     1.0000 0.78268  0.85119  0.44208  Biso   1.000  H
  H428     1.0000 0.74229  0.86869  0.37720  Biso   1.000  H
  C346     1.0000 0.83873  0.82979  0.36490  Biso   1.000  C
  C347     1.0000 0.45660  0.90908  0.50312  Biso   1.000  C
  C348     1.0000 0.15153  0.86922  0.42870  Biso   1.000  C
  H429     1.0000 0.20230  0.75090  0.04362  Biso   1.000  H
  H430     1.0000 0.19104  0.73990  0.11390  Biso   1.000  H
  C349     1.0000 0.10491  0.71280  0.04719  Biso   1.000  C
  C350     1.0000 0.54470  0.80256  0.16038  Biso   1.000  C
  C351     1.0000 0.81891  0.75672  0.09982  Biso   1.000  C
  H431     1.0000 0.85467  0.81039  0.38739  Biso   1.000  H
  H432     1.0000 0.90939  0.84141  0.36523  Biso   1.000  H
  H433     1.0000 0.80638  0.82551  0.32152  Biso   1.000  H
  H434     1.0000 0.38868  0.90809  0.52542  Biso   1.000  H
  H435     1.0000 0.52459  0.90800  0.53500  Biso   1.000  H
  C352     1.0000 0.45668  0.93941  0.46913  Biso   1.000  C
  H436     1.0000 0.14940  0.84801  0.44453  Biso   1.000  H
  H437     1.0000 0.13878  0.86869  0.38232  Biso   1.000  H
  C353     1.0000 0.06228  0.88798  0.45312  Biso   1.000  C
  H438     1.0000 0.12367  0.70169  0.01019  Biso   1.000  H
  H439     1.0000 0.03680  0.72531  0.03540  Biso   1.000  H
  H440     1.0000 0.09062  0.69810  0.07982  Biso   1.000  H
  H441     1.0000 0.48421  0.80489  0.18780  Biso   1.000  H
  H442     1.0000 0.61833  0.80171  0.18790  Biso   1.000  H
  C354     1.0000 0.54418  0.83039  0.11841  Biso   1.000  C
  H443     1.0000 0.81124  0.75081  0.05498  Biso   1.000  H
  H444     1.0000 0.83033  0.73791  0.12569  Biso   1.000  H
  C355     1.0000 0.91619  0.77761  0.11461  Biso   1.000  C
  C356     1.0000 0.55592  0.95487  0.46378  Biso   1.000  C
  C357     1.0000 0.35574  0.95226  0.44152  Biso   1.000  C
  H445     1.0000 0.07525  0.88821  0.49899  Biso   1.000  H
  H446     1.0000 0.06515  0.90901  0.43720  Biso   1.000  H
  H447     1.0000 0.98748  0.87909  0.43899  Biso   1.000  H
  C358     1.0000 0.44425  0.84413  0.09442  Biso   1.000  C
  C359     1.0000 0.64510  0.84281  0.10432  Biso   1.000  C
  H448     1.0000 0.90091  0.79690  0.09169  Biso   1.000  H
  H449     1.0000 0.98473  0.76810  0.10221  Biso   1.000  H
  H450     1.0000 0.92774  0.78180  0.15982  Biso   1.000  H
  O65      1.0000 0.65442  0.94044  0.49101  Biso   1.000  O
  C360     1.0000 0.55593  0.98314  0.43523  Biso   1.000  C
  C361     1.0000 0.35367  0.98021  0.41058  Biso   1.000  C
  H451     1.0000 0.28637  0.94170  0.44382  Biso   1.000  H
  O66      1.0000 0.34741  0.83105  0.11043  Biso   1.000  O
  C362     1.0000 0.44429  0.86917  0.05479  Biso   1.000  C
  C363     1.0000 0.64600  0.86869  0.06662  Biso   1.000  C
  H452     1.0000 0.71504  0.83351  0.12071  Biso   1.000  H
  C364     1.0000 0.75880  0.95574  0.49002  Biso   1.000  C
  H453     1.0000 0.62547  0.99361  0.43330  Biso   1.000  H
  C365     1.0000 0.45324  0.99624  0.40917  Biso   1.000  C
  O67      1.0000 0.25676  0.99365  0.38110  Biso   1.000  O
  C366     1.0000 0.24551  0.84835  0.10292  Biso   1.000  C
  H454     1.0000 0.37400  0.87790  0.03728  Biso   1.000  H
  C367     1.0000 0.54389  0.88173  0.04014  Biso   1.000  C
  O68      1.0000 0.74337  0.88255  0.05071  Biso   1.000  O
  H455     1.0000 0.75824  0.97569  0.51181  Biso   1.000  H
  H456     1.0000 0.77303  0.95941  0.44622  Biso   1.000  H
  C368     1.0000 0.84739  0.93531  0.52279  Biso   1.000  C
  C369     1.0000 0.45447  0.02797  0.37973  Biso   1.000  C
  C370     1.0000 0.15468  0.97824  0.37969  Biso   1.000  C
  H457     1.0000 0.21741  0.85119  0.05789  Biso   1.000  H
  H458     1.0000 0.25781  0.86869  0.12282  Biso   1.000  H
  C371     1.0000 0.16129  0.82979  0.13512  Biso   1.000  C
  C372     1.0000 0.54358  0.90908  0.99690  Biso   1.000  C
  C373     1.0000 0.84849  0.86922  0.07132  Biso   1.000  C
  H459     1.0000 0.84687  0.93689  0.56829  Biso   1.000  H
  H460     1.0000 0.92208  0.94131  0.51223  Biso   1.000  H
  H461     1.0000 0.83159  0.91410  0.50960  Biso   1.000  H
  H462     1.0000 0.37998  0.03789  0.38142  Biso   1.000  H
  H463     1.0000 0.51296  0.04059  0.40481  Biso   1.000  H
  C374     1.0000 0.47853  0.02733  0.31311  Biso   1.000  C
  H464     1.0000 0.13324  0.97629  0.42251  Biso   1.000  H
  H465     1.0000 0.16017  0.95751  0.36171  Biso   1.000  H
  C375     1.0000 0.06542  0.99801  0.33753  Biso   1.000  C
  H466     1.0000 0.14542  0.81039  0.11259  Biso   1.000  H
  H467     1.0000 0.09071  0.84141  0.13479  Biso   1.000  H
  H468     1.0000 0.19372  0.82551  0.17851  Biso   1.000  H
  C376     1.0000 0.54342  0.93941  0.03089  Biso   1.000  C
  H469     1.0000 0.61150  0.90809  0.97460  Biso   1.000  H
  H470     1.0000 0.47559  0.90800  0.96502  Biso   1.000  H
  H471     1.0000 0.85070  0.84801  0.05550  Biso   1.000  H
  H472     1.0000 0.86132  0.86869  0.11770  Biso   1.000  H
  C377     1.0000 0.93782  0.88798  0.04690  Biso   1.000  C
  C378     1.0000 0.39126  0.02724  0.26461  Biso   1.000  C
  C379     1.0000 0.58842  0.02767  0.29813  Biso   1.000  C
  H473     1.0000 0.00126  0.98511  0.32062  Biso   1.000  H
  H474     1.0000 0.03833  0.01450  0.36260  Biso   1.000  H
  H475     1.0000 0.10087  0.00680  0.30278  Biso   1.000  H
  C380     1.0000 0.44409  0.95487  0.03625  Biso   1.000  C
  C381     1.0000 0.64427  0.95226  0.05850  Biso   1.000  C
  H476     1.0000 0.92476  0.88821  0.00099  Biso   1.000  H
  H477     1.0000 0.93495  0.90901  0.06282  Biso   1.000  H
  H478     1.0000 0.01261  0.87909  0.06099  Biso   1.000  H
  C382     1.0000 0.41160  0.02767  0.20189  Biso   1.000  C
  H479     1.0000 0.31515  0.02689  0.27381  Biso   1.000  H
  C383     1.0000 0.60884  0.02724  0.23541  Biso   1.000  C
  O69      1.0000 0.67374  0.02845  0.34762  Biso   1.000  O
  O70      1.0000 0.34559  0.94044  0.00897  Biso   1.000  O
  C384     1.0000 0.44408  0.98314  0.06474  Biso   1.000  C
  C385     1.0000 0.64642  0.98021  0.08939  Biso   1.000  C
  H480     1.0000 0.71374  0.94170  0.05620  Biso   1.000  H
  C386     1.0000 0.52148  0.02733  0.18691  Biso   1.000  C
  O71      1.0000 0.32635  0.02845  0.15235  Biso   1.000  O
  H481     1.0000 0.68495  0.02689  0.22621  Biso   1.000  H
  C387     1.0000 0.76833  0.04552  0.34330  Biso   1.000  C
  C388     1.0000 0.24130  0.95574  0.01000  Biso   1.000  C
  H482     1.0000 0.37463  0.99361  0.06672  Biso   1.000  H
  C389     1.0000 0.54677  0.99624  0.09085  Biso   1.000  C
  O72      1.0000 0.74334  0.99365  0.11893  Biso   1.000  O
  C390     1.0000 0.54562  0.02797  0.12024  Biso   1.000  C
  C391     1.0000 0.23177  0.04552  0.15672  Biso   1.000  C
  H483     1.0000 0.74540  0.06591  0.32551  Biso   1.000  H
  H484     1.0000 0.81487  0.03530  0.31419  Biso   1.000  H
  C392     1.0000 0.83729  0.04962  0.40499  Biso   1.000  C
  H485     1.0000 0.22699  0.95941  0.05381  Biso   1.000  H
  H486     1.0000 0.24186  0.97569  0.98822  Biso   1.000  H
  C393     1.0000 0.15280  0.93531  0.97723  Biso   1.000  C
  C394     1.0000 0.84541  0.97824  0.12029  Biso   1.000  C
  H487     1.0000 0.62012  0.03789  0.11860  Biso   1.000  H
  H488     1.0000 0.48715  0.04059  0.09522  Biso   1.000  H
  H489     1.0000 0.25461  0.06591  0.17451  Biso   1.000  H
  H490     1.0000 0.18522  0.03530  0.18578  Biso   1.000  H
  C395     1.0000 0.16280  0.04962  0.09498  Biso   1.000  C
  H491     1.0000 0.80166  0.06510  0.42922  Biso   1.000  H
  H492     1.0000 0.91378  0.05640  0.39889  Biso   1.000  H
  H493     1.0000 0.84193  0.03010  0.42781  Biso   1.000  H
  H494     1.0000 0.15332  0.93689  0.93173  Biso   1.000  H
  H495     1.0000 0.07810  0.94131  0.98779  Biso   1.000  H
  H496     1.0000 0.16859  0.91410  0.99042  Biso   1.000  H
  H497     1.0000 0.86678  0.97629  0.07751  Biso   1.000  H
  H498     1.0000 0.83993  0.95751  0.13832  Biso   1.000  H
  C396     1.0000 0.93459  0.99801  0.16250  Biso   1.000  C
  H499     1.0000 0.19844  0.06510  0.07080  Biso   1.000  H
  H500     1.0000 0.08631  0.05640  0.10108  Biso   1.000  H
  H501     1.0000 0.15808  0.03010  0.07221  Biso   1.000  H
  H502     1.0000 0.99884  0.98511  0.17940  Biso   1.000  H
  H503     1.0000 0.96169  0.01450  0.13742  Biso   1.000  H
  H504     1.0000 0.89922  0.00680  0.19719  Biso   1.000  H
