data_image0
_cell_length_a       57.243
_cell_length_b       13.739
_cell_length_c       36.657
_cell_angle_alpha    90
_cell_angle_beta     113.39
_cell_angle_gamma    90

_symmetry_space_group_name_H-M    "P 1"
_symmetry_int_tables_number       1

loop_
  _symmetry_equiv_pos_as_xyz
  'x, y, z'

loop_
  _atom_site_label
  _atom_site_occupancy
  _atom_site_fract_x
  _atom_site_fract_y
  _atom_site_fract_z
  _atom_site_thermal_displace_type
  _atom_site_B_iso_or_equiv
  _atom_site_type_symbol
  C1       1.0000 0.57817  0.55877  0.47719  Biso   1.000  C
  C2       1.0000 0.57708  0.51357  0.43799  Biso   1.000  C
  O1       1.0000 0.58849  0.65289  0.48121  Biso   1.000  O
  H1       1.0000 0.56088  0.56190  0.47698  Biso   1.000  H
  H2       1.0000 0.58886  0.51801  0.49987  Biso   1.000  H
  O2       1.0000 0.55936  0.56023  0.40758  Biso   1.000  O
  H3       1.0000 0.59379  0.51969  0.43629  Biso   1.000  H
  H4       1.0000 0.57277  0.44363  0.43698  Biso   1.000  H
  C3       1.0000 0.58723  0.70260  0.51420  Biso   1.000  C
  C4       1.0000 0.54969  0.50477  0.37218  Biso   1.000  C
  H5       1.0000 0.59678  0.66591  0.53890  Biso   1.000  H
  H6       1.0000 0.56928  0.70813  0.51108  Biso   1.000  H
  C5       1.0000 0.59847  0.80144  0.51675  Biso   1.000  C
  C6       1.0000 0.56247  0.52879  0.34508  Biso   1.000  C
  H7       1.0000 0.53118  0.51700  0.35839  Biso   1.000  H
  H8       1.0000 0.55209  0.43468  0.37899  Biso   1.000  H
  O3       1.0000 0.62582  0.79162  0.53310  Biso   1.000  O
  H9       1.0000 0.59248  0.83121  0.48997  Biso   1.000  H
  H10      1.0000 0.59328  0.84373  0.53408  Biso   1.000  H
  O4       1.0000 0.58417  0.54203  0.35477  Biso   1.000  O
  H11      1.0000 0.55808  0.47573  0.32519  Biso   1.000  H
  H12      1.0000 0.55398  0.58811  0.33048  Biso   1.000  H
  C7       1.0000 0.63949  0.86971  0.52989  Biso   1.000  C
  C8       1.0000 0.59715  0.55179  0.33084  Biso   1.000  C
  C9       1.0000 0.62963  0.96019  0.51497  Biso   1.000  C
  C10      1.0000 0.66582  0.85399  0.54223  Biso   1.000  C
  C11      1.0000 0.58622  0.58061  0.29143  Biso   1.000  C
  C12      1.0000 0.62298  0.53068  0.34870  Biso   1.000  C
  H13      1.0000 0.61207  0.97292  0.50760  Biso   1.000  H
  C13      1.0000 0.64533  0.03239  0.51069  Biso   1.000  C
  O5       1.0000 0.67428  0.76359  0.55825  Biso   1.000  O
  C14      1.0000 0.68159  0.92641  0.53884  Biso   1.000  C
  C15      1.0000 0.60180  0.59073  0.27065  Biso   1.000  C
  H14      1.0000 0.56848  0.59327  0.27889  Biso   1.000  H
  O6       1.0000 0.63158  0.50120  0.38773  Biso   1.000  O
  C16      1.0000 0.63853  0.54029  0.32766  Biso   1.000  C
  C17      1.0000 0.63672  0.13283  0.49303  Biso   1.000  C
  C18      1.0000 0.67115  0.01572  0.52243  Biso   1.000  C
  C19      1.0000 0.70000  0.73761  0.56681  Biso   1.000  C
  H15      1.0000 0.69938  0.91528  0.54758  Biso   1.000  H
  C20      1.0000 0.59246  0.62210  0.22741  Biso   1.000  C
  C21      1.0000 0.62748  0.57188  0.28828  Biso   1.000  C
  C22      1.0000 0.65562  0.45673  0.40494  Biso   1.000  C
  H16      1.0000 0.65618  0.52573  0.33979  Biso   1.000  H
  C23      1.0000 0.64707  0.14550  0.46028  Biso   1.000  C
  C24      1.0000 0.65221  0.20657  0.52606  Biso   1.000  C
  C25      1.0000 0.60827  0.15088  0.47904  Biso   1.000  C
  C26      1.0000 0.68610  0.10088  0.51658  Biso   1.000  C
  H17      1.0000 0.71167  0.77713  0.58919  Biso   1.000  H
  H18      1.0000 0.70407  0.74962  0.54330  Biso   1.000  H
  C27      1.0000 0.70312  0.63280  0.57742  Biso   1.000  C
  C28      1.0000 0.60923  0.70798  0.22672  Biso   1.000  C
  C29      1.0000 0.59983  0.53672  0.20580  Biso   1.000  C
  C30      1.0000 0.56393  0.64168  0.20773  Biso   1.000  C
  C31      1.0000 0.64168  0.58629  0.26123  Biso   1.000  C
  C32      1.0000 0.65809  0.41837  0.44459  Biso   1.000  C
  H19      1.0000 0.66928  0.50448  0.40830  Biso   1.000  H
  H20      1.0000 0.65698  0.40287  0.38788  Biso   1.000  H
  C33      1.0000 0.63265  0.17621  0.42176  Biso   1.000  C
  C34      1.0000 0.67299  0.13087  0.47318  Biso   1.000  C
  H21      1.0000 0.64837  0.27367  0.51548  Biso   1.000  H
  H22      1.0000 0.64707  0.20060  0.54879  Biso   1.000  H
  C35      1.0000 0.68075  0.18800  0.54032  Biso   1.000  C
  H23      1.0000 0.59899  0.10386  0.45820  Biso   1.000  H
  H24      1.0000 0.60429  0.21712  0.46840  Biso   1.000  H
  H25      1.0000 0.60318  0.14339  0.50148  Biso   1.000  H
  C36      1.0000 0.71448  0.08261  0.53010  Biso   1.000  C
  O7       1.0000 0.69112  0.56889  0.54520  Biso   1.000  O
  H26      1.0000 0.72158  0.61751  0.58948  Biso   1.000  H
  H27      1.0000 0.69617  0.62057  0.59778  Biso   1.000  H
  C37      1.0000 0.60058  0.79889  0.21082  Biso   1.000  C
  C38      1.0000 0.63520  0.68862  0.24476  Biso   1.000  C
  H28      1.0000 0.59038  0.47733  0.20699  Biso   1.000  H
  H29      1.0000 0.59499  0.55368  0.17750  Biso   1.000  H
  C39      1.0000 0.62844  0.51663  0.22524  Biso   1.000  C
  H30      1.0000 0.55958  0.69568  0.22128  Biso   1.000  H
  H31      1.0000 0.55459  0.58323  0.20948  Biso   1.000  H
  H32      1.0000 0.55929  0.65871  0.17979  Biso   1.000  H
  C40      1.0000 0.66996  0.56620  0.28049  Biso   1.000  C
  O8       1.0000 0.65947  0.50098  0.46920  Biso   1.000  O
  H33      1.0000 0.64317  0.37768  0.44159  Biso   1.000  H
  H34      1.0000 0.67358  0.37819  0.45660  Biso   1.000  H
  C41      1.0000 0.64461  0.19310  0.39555  Biso   1.000  C
  H35      1.0000 0.61478  0.18582  0.41320  Biso   1.000  H
  C42      1.0000 0.68476  0.14608  0.44691  Biso   1.000  C
  H36      1.0000 0.68787  0.17243  0.56909  Biso   1.000  H
  H37      1.0000 0.68928  0.24747  0.53649  Biso   1.000  H
  H38      1.0000 0.71717  0.02810  0.51497  Biso   1.000  H
  H39      1.0000 0.72177  0.06660  0.55848  Biso   1.000  H
  H40      1.0000 0.72268  0.14113  0.52549  Biso   1.000  H
  C43      1.0000 0.66451  0.55928  0.53271  Biso   1.000  C
  C44      1.0000 0.61748  0.87241  0.21263  Biso   1.000  C
  H41      1.0000 0.58279  0.81098  0.19849  Biso   1.000  H
  C45      1.0000 0.65226  0.76163  0.24577  Biso   1.000  C
  H42      1.0000 0.63599  0.52602  0.20538  Biso   1.000  H
  H43      1.0000 0.63138  0.44821  0.23448  Biso   1.000  H
  H44      1.0000 0.67799  0.61089  0.30290  Biso   1.000  H
  H45      1.0000 0.67748  0.57588  0.26099  Biso   1.000  H
  H46      1.0000 0.67279  0.49902  0.29009  Biso   1.000  H
  C46      1.0000 0.65677  0.47500  0.50519  Biso   1.000  C
  O9       1.0000 0.63164  0.22629  0.35732  Biso   1.000  O
  C47      1.0000 0.67053  0.17789  0.40839  Biso   1.000  C
  H47      1.0000 0.70247  0.13480  0.45529  Biso   1.000  H
  H48      1.0000 0.65577  0.61911  0.51898  Biso   1.000  H
  H49      1.0000 0.66008  0.54771  0.55578  Biso   1.000  H
  O10      1.0000 0.61095  0.96543  0.19917  Biso   1.000  O
  C48      1.0000 0.64384  0.85312  0.23038  Biso   1.000  C
  H50      1.0000 0.66998  0.74838  0.25719  Biso   1.000  H
  H51      1.0000 0.66768  0.41808  0.51759  Biso   1.000  H
  H52      1.0000 0.63888  0.45738  0.49940  Biso   1.000  H
  C49      1.0000 0.60652  0.25802  0.34716  Biso   1.000  C
  O11      1.0000 0.68135  0.19630  0.38149  Biso   1.000  O
  C50      1.0000 0.58385  0.98588  0.17970  Biso   1.000  C
  O12      1.0000 0.65947  0.93071  0.23178  Biso   1.000  O
  H53      1.0000 0.60628  0.30737  0.36669  Biso   1.000  H
  H54      1.0000 0.59598  0.20220  0.34858  Biso   1.000  H
  C51      1.0000 0.59543  0.30017  0.30697  Biso   1.000  C
  C52      1.0000 0.70782  0.22047  0.39718  Biso   1.000  C
  H55      1.0000 0.57530  0.97089  0.19789  Biso   1.000  H
  H56      1.0000 0.57609  0.94519  0.15560  Biso   1.000  H
  C53      1.0000 0.58070  0.09178  0.16870  Biso   1.000  C
  C54      1.0000 0.68519  0.90931  0.23846  Biso   1.000  C
  O13      1.0000 0.58854  0.22462  0.27814  Biso   1.000  O
  H57      1.0000 0.58018  0.33911  0.30388  Biso   1.000  H
  H58      1.0000 0.60799  0.34391  0.30299  Biso   1.000  H
  H59      1.0000 0.71108  0.27411  0.41659  Biso   1.000  H
  H60      1.0000 0.71788  0.16340  0.41139  Biso   1.000  H
  C55      1.0000 0.71593  0.24944  0.36660  Biso   1.000  C
  O14      1.0000 0.58638  0.15540  0.20190  Biso   1.000  O
  H61      1.0000 0.59198  0.10809  0.15488  Biso   1.000  H
  H62      1.0000 0.56290  0.10328  0.14980  Biso   1.000  H
  H63      1.0000 0.68568  0.86629  0.21718  Biso   1.000  H
  H64      1.0000 0.69358  0.87532  0.26420  Biso   1.000  H
  C56      1.0000 0.69862  0.00131  0.23885  Biso   1.000  C
  C57      1.0000 0.57189  0.25730  0.24016  Biso   1.000  C
  O15      1.0000 0.71407  0.17206  0.34005  Biso   1.000  O
  H65      1.0000 0.70529  0.30453  0.35168  Biso   1.000  H
  H66      1.0000 0.73378  0.27200  0.37890  Biso   1.000  H
  C58      1.0000 0.56524  0.17549  0.21109  Biso   1.000  C
  H67      1.0000 0.71529  0.98653  0.23778  Biso   1.000  H
  O16      1.0000 0.70261  0.05743  0.27345  Biso   1.000  O
  H68      1.0000 0.68849  0.03981  0.21489  Biso   1.000  H
  H69      1.0000 0.58018  0.31007  0.23118  Biso   1.000  H
  H70      1.0000 0.55618  0.28379  0.24158  Biso   1.000  H
  C59      1.0000 0.72965  0.16151  0.32388  Biso   1.000  C
  H71      1.0000 0.56068  0.11711  0.22259  Biso   1.000  H
  H72      1.0000 0.55040  0.19368  0.18660  Biso   1.000  H
  C60      1.0000 0.72674  0.09200  0.29422  Biso   1.000  C
  H73      1.0000 0.74638  0.14892  0.34558  Biso   1.000  H
  H74      1.0000 0.73098  0.22549  0.31250  Biso   1.000  H
  H75      1.0000 0.73299  0.12112  0.27499  Biso   1.000  H
  H76      1.0000 0.73788  0.03603  0.30679  Biso   1.000  H
  C61      1.0000 0.42178  0.44123  0.52279  Biso   1.000  C
  O17      1.0000 0.41146  0.34711  0.51877  Biso   1.000  O
  C62      1.0000 0.42287  0.48643  0.56199  Biso   1.000  C
  H77      1.0000 0.43907  0.43810  0.52300  Biso   1.000  H
  H78      1.0000 0.41108  0.48199  0.50008  Biso   1.000  H
  C63      1.0000 0.41273  0.29740  0.48575  Biso   1.000  C
  O18      1.0000 0.44061  0.43977  0.59240  Biso   1.000  O
  H79      1.0000 0.40618  0.48031  0.56369  Biso   1.000  H
  H80      1.0000 0.42717  0.55637  0.56297  Biso   1.000  H
  C64      1.0000 0.40148  0.19863  0.48323  Biso   1.000  C
  H81      1.0000 0.40317  0.33409  0.46108  Biso   1.000  H
  H82      1.0000 0.43068  0.29187  0.48887  Biso   1.000  H
  C65      1.0000 0.45025  0.49523  0.62777  Biso   1.000  C
  O19      1.0000 0.37413  0.20838  0.46688  Biso   1.000  O
  H83      1.0000 0.40748  0.16879  0.50998  Biso   1.000  H
  H84      1.0000 0.40669  0.15627  0.46590  Biso   1.000  H
  C66      1.0000 0.43747  0.47121  0.65487  Biso   1.000  C
  H85      1.0000 0.46877  0.48300  0.64159  Biso   1.000  H
  H86      1.0000 0.44788  0.56532  0.62099  Biso   1.000  H
  C67      1.0000 0.36047  0.13029  0.47006  Biso   1.000  C
  O20      1.0000 0.41578  0.45804  0.64521  Biso   1.000  O
  H87      1.0000 0.44187  0.52427  0.67479  Biso   1.000  H
  H88      1.0000 0.44596  0.41189  0.66947  Biso   1.000  H
  C68      1.0000 0.33414  0.14601  0.45775  Biso   1.000  C
  C69      1.0000 0.37032  0.03981  0.48501  Biso   1.000  C
  C70      1.0000 0.40280  0.44821  0.66914  Biso   1.000  C
  O21      1.0000 0.32569  0.23641  0.44173  Biso   1.000  O
  C71      1.0000 0.31837  0.07359  0.46114  Biso   1.000  C
  H89      1.0000 0.38788  0.02708  0.49238  Biso   1.000  H
  C72      1.0000 0.35462  0.96761  0.48929  Biso   1.000  C
  C73      1.0000 0.37696  0.46932  0.65125  Biso   1.000  C
  C74      1.0000 0.41372  0.41939  0.70852  Biso   1.000  C
  C75      1.0000 0.29995  0.26239  0.43314  Biso   1.000  C
  H90      1.0000 0.30058  0.08472  0.45237  Biso   1.000  H
  C76      1.0000 0.32882  0.98428  0.47755  Biso   1.000  C
  C77      1.0000 0.36323  0.86724  0.50695  Biso   1.000  C
  O22      1.0000 0.36839  0.49880  0.61225  Biso   1.000  O
  C78      1.0000 0.36142  0.45971  0.67232  Biso   1.000  C
  C79      1.0000 0.39815  0.40927  0.72930  Biso   1.000  C
  H91      1.0000 0.43146  0.40673  0.72107  Biso   1.000  H
  C80      1.0000 0.29683  0.36720  0.42256  Biso   1.000  C
  H92      1.0000 0.28828  0.22287  0.41079  Biso   1.000  H
  H93      1.0000 0.29588  0.25038  0.45668  Biso   1.000  H
  C81      1.0000 0.31387  0.89912  0.48340  Biso   1.000  C
  C82      1.0000 0.35288  0.85450  0.53970  Biso   1.000  C
  C83      1.0000 0.34774  0.79343  0.47392  Biso   1.000  C
  C84      1.0000 0.39167  0.84912  0.52091  Biso   1.000  C
  C85      1.0000 0.34434  0.54327  0.59501  Biso   1.000  C
  H94      1.0000 0.34377  0.47427  0.66019  Biso   1.000  H
  C86      1.0000 0.37246  0.42812  0.71170  Biso   1.000  C
  C87      1.0000 0.40749  0.37790  0.77257  Biso   1.000  C
  O23      1.0000 0.30883  0.43111  0.45478  Biso   1.000  O
  H95      1.0000 0.27839  0.38249  0.41050  Biso   1.000  H
  H96      1.0000 0.30379  0.37943  0.40217  Biso   1.000  H
  C88      1.0000 0.32698  0.86913  0.52680  Biso   1.000  C
  C89      1.0000 0.31921  0.81200  0.45963  Biso   1.000  C
  C90      1.0000 0.28548  0.91739  0.46988  Biso   1.000  C
  C91      1.0000 0.36730  0.82379  0.57822  Biso   1.000  C
  H97      1.0000 0.35158  0.72633  0.48447  Biso   1.000  H
  H98      1.0000 0.35288  0.79940  0.45119  Biso   1.000  H
  H99      1.0000 0.40098  0.89614  0.54178  Biso   1.000  H
  H100     1.0000 0.39568  0.78288  0.53158  Biso   1.000  H
  H101     1.0000 0.39676  0.85661  0.49847  Biso   1.000  H
  C92      1.0000 0.34188  0.58163  0.55539  Biso   1.000  C
  H102     1.0000 0.33067  0.49552  0.59168  Biso   1.000  H
  H103     1.0000 0.34296  0.59713  0.61207  Biso   1.000  H
  C93      1.0000 0.35826  0.41371  0.73872  Biso   1.000  C
  C94      1.0000 0.39073  0.29202  0.77323  Biso   1.000  C
  C95      1.0000 0.40012  0.46328  0.79418  Biso   1.000  C
  C96      1.0000 0.43602  0.35832  0.79225  Biso   1.000  C
  C97      1.0000 0.33546  0.44072  0.46727  Biso   1.000  C
  C98      1.0000 0.31518  0.85392  0.55304  Biso   1.000  C
  H104     1.0000 0.31208  0.82757  0.43089  Biso   1.000  H
  H105     1.0000 0.31067  0.75253  0.46349  Biso   1.000  H
  H106     1.0000 0.28277  0.97190  0.48498  Biso   1.000  H
  H107     1.0000 0.27818  0.93340  0.44150  Biso   1.000  H
  H108     1.0000 0.27727  0.85894  0.47449  Biso   1.000  H
  C99      1.0000 0.35536  0.80690  0.60443  Biso   1.000  C
  H109     1.0000 0.38517  0.81418  0.58678  Biso   1.000  H
  O24      1.0000 0.34048  0.49902  0.53078  Biso   1.000  O
  H110     1.0000 0.35678  0.62232  0.55839  Biso   1.000  H
  H111     1.0000 0.32637  0.62181  0.54338  Biso   1.000  H
  C100     1.0000 0.36476  0.31138  0.75519  Biso   1.000  C
  C101     1.0000 0.37151  0.48337  0.77474  Biso   1.000  C
  C102     1.0000 0.32998  0.43380  0.71949  Biso   1.000  C
  C103     1.0000 0.39939  0.20111  0.78916  Biso   1.000  C
  H112     1.0000 0.40956  0.52267  0.79296  Biso   1.000  H
  H113     1.0000 0.40496  0.44632  0.82248  Biso   1.000  H
  H114     1.0000 0.44036  0.30432  0.77867  Biso   1.000  H
  H115     1.0000 0.44537  0.41677  0.79047  Biso   1.000  H
  H116     1.0000 0.44066  0.34129  0.82019  Biso   1.000  H
  H117     1.0000 0.34418  0.38089  0.48100  Biso   1.000  H
  H118     1.0000 0.33989  0.45229  0.44420  Biso   1.000  H
  C104     1.0000 0.34317  0.52500  0.49479  Biso   1.000  C
  H119     1.0000 0.29748  0.86520  0.54469  Biso   1.000  H
  C105     1.0000 0.32944  0.82211  0.59159  Biso   1.000  C
  O25      1.0000 0.36831  0.77371  0.64266  Biso   1.000  O
  C106     1.0000 0.34768  0.23837  0.75418  Biso   1.000  C
  H120     1.0000 0.36395  0.47398  0.79457  Biso   1.000  H
  H121     1.0000 0.36856  0.55179  0.76547  Biso   1.000  H
  H122     1.0000 0.32196  0.38911  0.69708  Biso   1.000  H
  H123     1.0000 0.32247  0.42412  0.73899  Biso   1.000  H
  H124     1.0000 0.32718  0.50098  0.70989  Biso   1.000  H
  C107     1.0000 0.38246  0.12759  0.78732  Biso   1.000  C
  H125     1.0000 0.41716  0.18902  0.80146  Biso   1.000  H
  H126     1.0000 0.33228  0.58192  0.48239  Biso   1.000  H
  H127     1.0000 0.36107  0.54262  0.50058  Biso   1.000  H
  O26      1.0000 0.31862  0.80370  0.61849  Biso   1.000  O
  C108     1.0000 0.39343  0.74198  0.65282  Biso   1.000  C
  H128     1.0000 0.32997  0.25162  0.74279  Biso   1.000  H
  C109     1.0000 0.35612  0.14688  0.76957  Biso   1.000  C
  O27      1.0000 0.38900  0.03457  0.80081  Biso   1.000  O
  C110     1.0000 0.29212  0.77953  0.60277  Biso   1.000  C
  H129     1.0000 0.39367  0.69263  0.63329  Biso   1.000  H
  H130     1.0000 0.40396  0.79780  0.65137  Biso   1.000  H
  C111     1.0000 0.40451  0.69983  0.69298  Biso   1.000  C
  O28      1.0000 0.34050  0.06929  0.76820  Biso   1.000  O
  C112     1.0000 0.41610  0.01412  0.82028  Biso   1.000  C
  H131     1.0000 0.28887  0.72589  0.58339  Biso   1.000  H
  H132     1.0000 0.28207  0.83660  0.58859  Biso   1.000  H
  C113     1.0000 0.28402  0.75064  0.63338  Biso   1.000  C
  O29      1.0000 0.41141  0.77538  0.72184  Biso   1.000  O
  H133     1.0000 0.41976  0.66089  0.69607  Biso   1.000  H
  H134     1.0000 0.39198  0.65609  0.69699  Biso   1.000  H
  C114     1.0000 0.31476  0.09069  0.76152  Biso   1.000  C
  H135     1.0000 0.42467  0.02911  0.80209  Biso   1.000  H
  H136     1.0000 0.42386  0.05481  0.84438  Biso   1.000  H
  C115     1.0000 0.41925  0.90822  0.83128  Biso   1.000  C
  O30      1.0000 0.28588  0.82794  0.65993  Biso   1.000  O
  H137     1.0000 0.29467  0.69554  0.64828  Biso   1.000  H
  H138     1.0000 0.26617  0.72800  0.62108  Biso   1.000  H
  C116     1.0000 0.42806  0.74270  0.75982  Biso   1.000  C
  H139     1.0000 0.31426  0.13371  0.78277  Biso   1.000  H
  H140     1.0000 0.30637  0.12468  0.73578  Biso   1.000  H
  C117     1.0000 0.30135  0.99869  0.76113  Biso   1.000  C
  O31      1.0000 0.41356  0.84460  0.79805  Biso   1.000  O
  H141     1.0000 0.40796  0.89191  0.84507  Biso   1.000  H
  H142     1.0000 0.43705  0.89672  0.85018  Biso   1.000  H
  C118     1.0000 0.27031  0.83849  0.67607  Biso   1.000  C
  H143     1.0000 0.41976  0.68993  0.76877  Biso   1.000  H
  H144     1.0000 0.44376  0.71621  0.75837  Biso   1.000  H
  C119     1.0000 0.43471  0.82451  0.78889  Biso   1.000  C
  O32      1.0000 0.29736  0.94257  0.72653  Biso   1.000  O
  H145     1.0000 0.28465  0.01347  0.76217  Biso   1.000  H
  H146     1.0000 0.31146  0.96019  0.78509  Biso   1.000  H
  H147     1.0000 0.25356  0.85108  0.65437  Biso   1.000  H
  H148     1.0000 0.26897  0.77451  0.68748  Biso   1.000  H
  C120     1.0000 0.27321  0.90800  0.70576  Biso   1.000  C
  H149     1.0000 0.43927  0.88289  0.77739  Biso   1.000  H
  H150     1.0000 0.44957  0.80632  0.81338  Biso   1.000  H
  H151     1.0000 0.26697  0.87888  0.72499  Biso   1.000  H
  H152     1.0000 0.26207  0.96397  0.69319  Biso   1.000  H
  C121     1.0000 0.56391  0.35832  0.70772  Biso   1.000  C
  C122     1.0000 0.59245  0.37790  0.72740  Biso   1.000  C
  H153     1.0000 0.55957  0.30432  0.72127  Biso   1.000  H
  H154     1.0000 0.55456  0.41677  0.70947  Biso   1.000  H
  H155     1.0000 0.55927  0.34129  0.67978  Biso   1.000  H
  C123     1.0000 0.60920  0.29202  0.72671  Biso   1.000  C
  C124     1.0000 0.60178  0.40927  0.77064  Biso   1.000  C
  C125     1.0000 0.59978  0.46328  0.70576  Biso   1.000  C
  C126     1.0000 0.60054  0.20111  0.71081  Biso   1.000  C
  C127     1.0000 0.63517  0.31138  0.74475  Biso   1.000  C
  C128     1.0000 0.58620  0.41939  0.79142  Biso   1.000  C
  C129     1.0000 0.62747  0.42812  0.78827  Biso   1.000  C
  H156     1.0000 0.59036  0.52267  0.70698  Biso   1.000  H
  H157     1.0000 0.59497  0.44632  0.67749  Biso   1.000  H
  C130     1.0000 0.62842  0.48337  0.72523  Biso   1.000  C
  C131     1.0000 0.61746  0.12759  0.71262  Biso   1.000  C
  H158     1.0000 0.58277  0.18902  0.69848  Biso   1.000  H
  C132     1.0000 0.64166  0.41371  0.76122  Biso   1.000  C
  C133     1.0000 0.65225  0.23837  0.74576  Biso   1.000  C
  H159     1.0000 0.56846  0.40673  0.77888  Biso   1.000  H
  C134     1.0000 0.59712  0.44821  0.83080  Biso   1.000  C
  C135     1.0000 0.63851  0.45971  0.82765  Biso   1.000  C
  H160     1.0000 0.63597  0.47398  0.70537  Biso   1.000  H
  H161     1.0000 0.63137  0.55179  0.73447  Biso   1.000  H
  O33      1.0000 0.61093  0.03457  0.69916  Biso   1.000  O
  C136     1.0000 0.64381  0.14688  0.73037  Biso   1.000  C
  C137     1.0000 0.66995  0.43380  0.78048  Biso   1.000  C
  H162     1.0000 0.66996  0.25162  0.75718  Biso   1.000  H
  O34      1.0000 0.58415  0.45804  0.85476  Biso   1.000  O
  C138     1.0000 0.62297  0.46932  0.84869  Biso   1.000  C
  H163     1.0000 0.65616  0.47427  0.83978  Biso   1.000  H
  C139     1.0000 0.58383  0.01412  0.67969  Biso   1.000  C
  O35      1.0000 0.65943  0.06929  0.73177  Biso   1.000  O
  H164     1.0000 0.67796  0.38911  0.80286  Biso   1.000  H
  H165     1.0000 0.67746  0.42412  0.76098  Biso   1.000  H
  H166     1.0000 0.67276  0.50098  0.79008  Biso   1.000  H
  C140     1.0000 0.56246  0.47121  0.84507  Biso   1.000  C
  O36      1.0000 0.63154  0.49880  0.88772  Biso   1.000  O
  H167     1.0000 0.57526  0.02911  0.69788  Biso   1.000  H
  H168     1.0000 0.57608  0.05481  0.65559  Biso   1.000  H
  C141     1.0000 0.58068  0.90822  0.66869  Biso   1.000  C
  C142     1.0000 0.68517  0.09069  0.73845  Biso   1.000  C
  H169     1.0000 0.55807  0.52427  0.82518  Biso   1.000  H
  H170     1.0000 0.55396  0.41189  0.83047  Biso   1.000  H
  C143     1.0000 0.54968  0.49523  0.87217  Biso   1.000  C
  C144     1.0000 0.65559  0.54327  0.90493  Biso   1.000  C
  O37      1.0000 0.58636  0.84460  0.70189  Biso   1.000  O
  H171     1.0000 0.59197  0.89191  0.65487  Biso   1.000  H
  H172     1.0000 0.56286  0.89672  0.64979  Biso   1.000  H
  H173     1.0000 0.68567  0.13371  0.71717  Biso   1.000  H
  H174     1.0000 0.69356  0.12468  0.76416  Biso   1.000  H
  C145     1.0000 0.69858  0.99869  0.73884  Biso   1.000  C
  O38      1.0000 0.55932  0.43977  0.90757  Biso   1.000  O
  H175     1.0000 0.53117  0.48300  0.85838  Biso   1.000  H
  H176     1.0000 0.55205  0.56532  0.87898  Biso   1.000  H
  C146     1.0000 0.65804  0.58163  0.94455  Biso   1.000  C
  H177     1.0000 0.66926  0.49552  0.90829  Biso   1.000  H
  H178     1.0000 0.65696  0.59713  0.88787  Biso   1.000  H
  C147     1.0000 0.56521  0.82451  0.71105  Biso   1.000  C
  H179     1.0000 0.71525  0.01347  0.73777  Biso   1.000  H
  O39      1.0000 0.70257  0.94257  0.77344  Biso   1.000  O
  H180     1.0000 0.68847  0.96019  0.71488  Biso   1.000  H
  C148     1.0000 0.57706  0.48643  0.93798  Biso   1.000  C
  O40      1.0000 0.65944  0.49902  0.96916  Biso   1.000  O
  H181     1.0000 0.64316  0.62232  0.94158  Biso   1.000  H
  H182     1.0000 0.67356  0.62181  0.95659  Biso   1.000  H
  C149     1.0000 0.57186  0.74270  0.74015  Biso   1.000  C
  H183     1.0000 0.56067  0.88289  0.72258  Biso   1.000  H
  H184     1.0000 0.55036  0.80632  0.68659  Biso   1.000  H
  C150     1.0000 0.72672  0.90800  0.79421  Biso   1.000  C
  H185     1.0000 0.59375  0.48031  0.93628  Biso   1.000  H
  H186     1.0000 0.57275  0.55637  0.93697  Biso   1.000  H
  C151     1.0000 0.57816  0.44123  0.97718  Biso   1.000  C
  C152     1.0000 0.65680  0.52500  0.00521  Biso   1.000  C
  O41      1.0000 0.58852  0.77538  0.77813  Biso   1.000  O
  H187     1.0000 0.58016  0.68993  0.73117  Biso   1.000  H
  H188     1.0000 0.55617  0.71621  0.74157  Biso   1.000  H
  C153     1.0000 0.72961  0.83849  0.82387  Biso   1.000  C
  H189     1.0000 0.73296  0.87888  0.77498  Biso   1.000  H
  H190     1.0000 0.73787  0.96397  0.80678  Biso   1.000  H
  O42      1.0000 0.58846  0.34711  0.98117  Biso   1.000  O
  H191     1.0000 0.56086  0.43810  0.97697  Biso   1.000  H
  H192     1.0000 0.58885  0.48199  0.99986  Biso   1.000  H
  H193     1.0000 0.63886  0.54262  0.99936  Biso   1.000  H
  C154     1.0000 0.66453  0.44072  0.03273  Biso   1.000  C
  H194     1.0000 0.66771  0.58192  0.01761  Biso   1.000  H
  C155     1.0000 0.59541  0.69983  0.80696  Biso   1.000  C
  O43      1.0000 0.71405  0.82794  0.84001  Biso   1.000  O
  H195     1.0000 0.74636  0.85108  0.84557  Biso   1.000  H
  H196     1.0000 0.73096  0.77451  0.81246  Biso   1.000  H
  C156     1.0000 0.58726  0.29740  0.01422  Biso   1.000  C
  O44      1.0000 0.69115  0.43111  0.04522  Biso   1.000  O
  H197     1.0000 0.65580  0.38089  0.01900  Biso   1.000  H
  H198     1.0000 0.66010  0.45229  0.05580  Biso   1.000  H
  C157     1.0000 0.60648  0.74198  0.84715  Biso   1.000  C
  H199     1.0000 0.58016  0.66089  0.80387  Biso   1.000  H
  H200     1.0000 0.60796  0.65609  0.80298  Biso   1.000  H
  C158     1.0000 0.71589  0.75064  0.86659  Biso   1.000  C
  H201     1.0000 0.59680  0.33409  0.03892  Biso   1.000  H
  H202     1.0000 0.56931  0.29187  0.01110  Biso   1.000  H
  C159     1.0000 0.59849  0.19863  0.01677  Biso   1.000  C
  C160     1.0000 0.70316  0.36720  0.07744  Biso   1.000  C
  O45      1.0000 0.63162  0.77371  0.85731  Biso   1.000  O
  H203     1.0000 0.60626  0.69263  0.86668  Biso   1.000  H
  H204     1.0000 0.59596  0.79780  0.84857  Biso   1.000  H
  C161     1.0000 0.70781  0.77953  0.89717  Biso   1.000  C
  H205     1.0000 0.70525  0.69554  0.85167  Biso   1.000  H
  H206     1.0000 0.73376  0.72800  0.87886  Biso   1.000  H
  H207     1.0000 0.59244  0.16879  0.98996  Biso   1.000  H
  O46      1.0000 0.62586  0.20838  0.03312  Biso   1.000  O
  H208     1.0000 0.59331  0.15627  0.03410  Biso   1.000  H
  C162     1.0000 0.70003  0.26239  0.06683  Biso   1.000  C
  H209     1.0000 0.72161  0.38249  0.08950  Biso   1.000  H
  H210     1.0000 0.69620  0.37943  0.09780  Biso   1.000  H
  C163     1.0000 0.64457  0.80690  0.89554  Biso   1.000  C
  O47      1.0000 0.68132  0.80370  0.88148  Biso   1.000  O
  H211     1.0000 0.71106  0.72589  0.91658  Biso   1.000  H
  H212     1.0000 0.71786  0.83660  0.91138  Biso   1.000  H
  C164     1.0000 0.63952  0.13029  0.02994  Biso   1.000  C
  O48      1.0000 0.67431  0.23641  0.05827  Biso   1.000  O
  H213     1.0000 0.71171  0.22287  0.08921  Biso   1.000  H
  H214     1.0000 0.70412  0.25038  0.04332  Biso   1.000  H
  C165     1.0000 0.63263  0.82379  0.92175  Biso   1.000  C
  C166     1.0000 0.67049  0.82211  0.90838  Biso   1.000  C
  C167     1.0000 0.62968  0.03981  0.01499  Biso   1.000  C
  C168     1.0000 0.66585  0.14601  0.04225  Biso   1.000  C
  H215     1.0000 0.61476  0.81418  0.91316  Biso   1.000  H
  C169     1.0000 0.64704  0.85450  0.96024  Biso   1.000  C
  C170     1.0000 0.68474  0.85392  0.94690  Biso   1.000  C
  C171     1.0000 0.64538  0.96761  0.01071  Biso   1.000  C
  H216     1.0000 0.61211  0.02708  0.00762  Biso   1.000  H
  C172     1.0000 0.68162  0.07359  0.03886  Biso   1.000  C
  C173     1.0000 0.63668  0.86724  0.99300  Biso   1.000  C
  C174     1.0000 0.67295  0.86913  0.97314  Biso   1.000  C
  H217     1.0000 0.70245  0.86520  0.95528  Biso   1.000  H
  C175     1.0000 0.67118  0.98428  0.02245  Biso   1.000  C
  H218     1.0000 0.69940  0.08472  0.04760  Biso   1.000  H
  C176     1.0000 0.60825  0.84912  0.97903  Biso   1.000  C
  C177     1.0000 0.65223  0.79343  0.02608  Biso   1.000  C
  C178     1.0000 0.68613  0.89912  0.01659  Biso   1.000  C
  H219     1.0000 0.59895  0.89614  0.95816  Biso   1.000  H
  H220     1.0000 0.60425  0.78288  0.96839  Biso   1.000  H
  H221     1.0000 0.60320  0.85661  0.00150  Biso   1.000  H
  H222     1.0000 0.64841  0.72633  0.01550  Biso   1.000  H
  H223     1.0000 0.64711  0.79940  0.04881  Biso   1.000  H
  C179     1.0000 0.68078  0.81200  0.04037  Biso   1.000  C
  C180     1.0000 0.71451  0.91739  0.03012  Biso   1.000  C
  H224     1.0000 0.68791  0.82757  0.06911  Biso   1.000  H
  H225     1.0000 0.68930  0.75253  0.03651  Biso   1.000  H
  H226     1.0000 0.71720  0.97190  0.01502  Biso   1.000  H
  H227     1.0000 0.72181  0.93340  0.05850  Biso   1.000  H
  H228     1.0000 0.72270  0.85894  0.02551  Biso   1.000  H
  C181     1.0000 0.43604  0.64168  0.29226  Biso   1.000  C
  C182     1.0000 0.40752  0.62210  0.27258  Biso   1.000  C
  H229     1.0000 0.44038  0.69568  0.27868  Biso   1.000  H
  H230     1.0000 0.44538  0.58323  0.29048  Biso   1.000  H
  H231     1.0000 0.44069  0.65871  0.32020  Biso   1.000  H
  C183     1.0000 0.39818  0.59073  0.22931  Biso   1.000  C
  C184     1.0000 0.39074  0.70798  0.27324  Biso   1.000  C
  C185     1.0000 0.40016  0.53672  0.29419  Biso   1.000  C
  C186     1.0000 0.37248  0.57188  0.21171  Biso   1.000  C
  C187     1.0000 0.41374  0.58061  0.20853  Biso   1.000  C
  C188     1.0000 0.36478  0.68862  0.25523  Biso   1.000  C
  C189     1.0000 0.39940  0.79889  0.28917  Biso   1.000  C
  C190     1.0000 0.37154  0.51663  0.27475  Biso   1.000  C
  H232     1.0000 0.40959  0.47733  0.29300  Biso   1.000  H
  H233     1.0000 0.40499  0.55368  0.32249  Biso   1.000  H
  C191     1.0000 0.35828  0.58629  0.23873  Biso   1.000  C
  C192     1.0000 0.36144  0.54029  0.17233  Biso   1.000  C
  H234     1.0000 0.43149  0.59327  0.22110  Biso   1.000  H
  C193     1.0000 0.40284  0.55179  0.16915  Biso   1.000  C
  C194     1.0000 0.34772  0.76163  0.25422  Biso   1.000  C
  C195     1.0000 0.38249  0.87241  0.28736  Biso   1.000  C
  H235     1.0000 0.41720  0.81098  0.30150  Biso   1.000  H
  H236     1.0000 0.36399  0.52602  0.29458  Biso   1.000  H
  H237     1.0000 0.36858  0.44821  0.26548  Biso   1.000  H
  C196     1.0000 0.33002  0.56620  0.21950  Biso   1.000  C
  C197     1.0000 0.37698  0.53068  0.15129  Biso   1.000  C
  H238     1.0000 0.34379  0.52573  0.16020  Biso   1.000  H
  O49      1.0000 0.41581  0.54203  0.14522  Biso   1.000  O
  H239     1.0000 0.32999  0.74838  0.24280  Biso   1.000  H
  C198     1.0000 0.35614  0.85312  0.26961  Biso   1.000  C
  O50      1.0000 0.38902  0.96543  0.30082  Biso   1.000  O
  H240     1.0000 0.32200  0.61089  0.19709  Biso   1.000  H
  H241     1.0000 0.32248  0.57588  0.23900  Biso   1.000  H
  H242     1.0000 0.32719  0.49902  0.20990  Biso   1.000  H
  O51      1.0000 0.36841  0.50120  0.11226  Biso   1.000  O
  C199     1.0000 0.43748  0.52879  0.15488  Biso   1.000  C
  O52      1.0000 0.34052  0.93071  0.26821  Biso   1.000  O
  C200     1.0000 0.41612  0.98588  0.32029  Biso   1.000  C
  C201     1.0000 0.34435  0.45673  0.09502  Biso   1.000  C
  H243     1.0000 0.44190  0.47573  0.17480  Biso   1.000  H
  H244     1.0000 0.44599  0.58811  0.16951  Biso   1.000  H
  C202     1.0000 0.45027  0.50477  0.12781  Biso   1.000  C
  C203     1.0000 0.31480  0.90931  0.26153  Biso   1.000  C
  H245     1.0000 0.42469  0.97089  0.30210  Biso   1.000  H
  H246     1.0000 0.42389  0.94519  0.34439  Biso   1.000  H
  C204     1.0000 0.41928  0.09178  0.33129  Biso   1.000  C
  C205     1.0000 0.34190  0.41837  0.05540  Biso   1.000  C
  H247     1.0000 0.33070  0.50448  0.09169  Biso   1.000  H
  H248     1.0000 0.34300  0.40287  0.11208  Biso   1.000  H
  O53      1.0000 0.44063  0.56023  0.09241  Biso   1.000  O
  H249     1.0000 0.46880  0.51700  0.14160  Biso   1.000  H
  H250     1.0000 0.44789  0.43468  0.12100  Biso   1.000  H
  H251     1.0000 0.31428  0.86629  0.28278  Biso   1.000  H
  H252     1.0000 0.30638  0.87532  0.23579  Biso   1.000  H
  C206     1.0000 0.30137  0.00131  0.26114  Biso   1.000  C
  O54      1.0000 0.41359  0.15540  0.29809  Biso   1.000  O
  H253     1.0000 0.40797  0.10809  0.34508  Biso   1.000  H
  H254     1.0000 0.43709  0.10328  0.35019  Biso   1.000  H
  O55      1.0000 0.34052  0.50098  0.03079  Biso   1.000  O
  H255     1.0000 0.35679  0.37768  0.05840  Biso   1.000  H
  H256     1.0000 0.32639  0.37819  0.04339  Biso   1.000  H
  C207     1.0000 0.42290  0.51357  0.06200  Biso   1.000  C
  H257     1.0000 0.28469  0.98653  0.26218  Biso   1.000  H
  O56      1.0000 0.29738  0.05743  0.22654  Biso   1.000  O
  H258     1.0000 0.31149  0.03981  0.28510  Biso   1.000  H
  C208     1.0000 0.43473  0.17549  0.28890  Biso   1.000  C
  C209     1.0000 0.34314  0.47500  0.99474  Biso   1.000  C
  H259     1.0000 0.40620  0.51969  0.06370  Biso   1.000  H
  H260     1.0000 0.42720  0.44363  0.06301  Biso   1.000  H
  C210     1.0000 0.42179  0.55877  0.02280  Biso   1.000  C
  C211     1.0000 0.27323  0.09200  0.20577  Biso   1.000  C
  C212     1.0000 0.42809  0.25730  0.25983  Biso   1.000  C
  H261     1.0000 0.43928  0.11711  0.27740  Biso   1.000  H
  H262     1.0000 0.44959  0.19368  0.31339  Biso   1.000  H
  H263     1.0000 0.36110  0.45738  0.00059  Biso   1.000  H
  C213     1.0000 0.33542  0.55928  0.96725  Biso   1.000  C
  H264     1.0000 0.33224  0.41808  0.98237  Biso   1.000  H
  O57      1.0000 0.41148  0.65289  0.01878  Biso   1.000  O
  H265     1.0000 0.43911  0.56190  0.02301  Biso   1.000  H
  H266     1.0000 0.41109  0.51801  0.00009  Biso   1.000  H
  C214     1.0000 0.27033  0.16151  0.17611  Biso   1.000  C
  H267     1.0000 0.26699  0.12112  0.22500  Biso   1.000  H
  H268     1.0000 0.26208  0.03603  0.19320  Biso   1.000  H
  O58      1.0000 0.41145  0.22462  0.22185  Biso   1.000  O
  H269     1.0000 0.41978  0.31007  0.26878  Biso   1.000  H
  H270     1.0000 0.44380  0.28379  0.25841  Biso   1.000  H
  O59      1.0000 0.30880  0.56889  0.95476  Biso   1.000  O
  H271     1.0000 0.34414  0.61911  0.98095  Biso   1.000  H
  H272     1.0000 0.33984  0.54771  0.94415  Biso   1.000  H
  C215     1.0000 0.41269  0.70260  0.98573  Biso   1.000  C
  O60      1.0000 0.28589  0.17206  0.15994  Biso   1.000  O
  H273     1.0000 0.25360  0.14892  0.15441  Biso   1.000  H
  H274     1.0000 0.26898  0.22549  0.18749  Biso   1.000  H
  C216     1.0000 0.40454  0.30017  0.19302  Biso   1.000  C
  C217     1.0000 0.29680  0.63280  0.92254  Biso   1.000  C
  H275     1.0000 0.40315  0.66591  0.96106  Biso   1.000  H
  H276     1.0000 0.43063  0.70813  0.98885  Biso   1.000  H
  C218     1.0000 0.40145  0.80144  0.98318  Biso   1.000  C
  C219     1.0000 0.28406  0.24944  0.13339  Biso   1.000  C
  C220     1.0000 0.39346  0.25802  0.15283  Biso   1.000  C
  H277     1.0000 0.41979  0.33911  0.19611  Biso   1.000  H
  H278     1.0000 0.39199  0.34391  0.19700  Biso   1.000  H
  C221     1.0000 0.29991  0.73761  0.93312  Biso   1.000  C
  H279     1.0000 0.27834  0.61751  0.91048  Biso   1.000  H
  H280     1.0000 0.30374  0.62057  0.90215  Biso   1.000  H
  H281     1.0000 0.40750  0.83121  0.00999  Biso   1.000  H
  O61      1.0000 0.37410  0.79162  0.96686  Biso   1.000  O
  H282     1.0000 0.40664  0.84373  0.96585  Biso   1.000  H
  C222     1.0000 0.29214  0.22047  0.10281  Biso   1.000  C
  H283     1.0000 0.29469  0.30453  0.14828  Biso   1.000  H
  H284     1.0000 0.26620  0.27200  0.12109  Biso   1.000  H
  O62      1.0000 0.36833  0.22629  0.14267  Biso   1.000  O
  H285     1.0000 0.39369  0.30737  0.13330  Biso   1.000  H
  H286     1.0000 0.40400  0.20220  0.15141  Biso   1.000  H
  O63      1.0000 0.32564  0.76359  0.94171  Biso   1.000  O
  H287     1.0000 0.28825  0.77713  0.91077  Biso   1.000  H
  H288     1.0000 0.29585  0.74962  0.95666  Biso   1.000  H
  C223     1.0000 0.36043  0.86971  0.97004  Biso   1.000  C
  O64      1.0000 0.31863  0.19630  0.11850  Biso   1.000  O
  H289     1.0000 0.28890  0.27411  0.08340  Biso   1.000  H
  H290     1.0000 0.28210  0.16340  0.08860  Biso   1.000  H
  C224     1.0000 0.35538  0.19310  0.10444  Biso   1.000  C
  C225     1.0000 0.33410  0.85399  0.95773  Biso   1.000  C
  C226     1.0000 0.37029  0.96019  0.98499  Biso   1.000  C
  C227     1.0000 0.32946  0.17789  0.09160  Biso   1.000  C
  C228     1.0000 0.36732  0.17621  0.07823  Biso   1.000  C
  C229     1.0000 0.31833  0.92641  0.96112  Biso   1.000  C
  H291     1.0000 0.38784  0.97292  0.99236  Biso   1.000  H
  C230     1.0000 0.35459  0.03239  0.98927  Biso   1.000  C
  C231     1.0000 0.31522  0.14608  0.05305  Biso   1.000  C
  H292     1.0000 0.38520  0.18582  0.08679  Biso   1.000  H
  C232     1.0000 0.35291  0.14550  0.03971  Biso   1.000  C
  H293     1.0000 0.30054  0.91528  0.95236  Biso   1.000  H
  C233     1.0000 0.32877  0.01572  0.97750  Biso   1.000  C
  C234     1.0000 0.36326  0.13283  0.00696  Biso   1.000  C
  C235     1.0000 0.32699  0.13087  0.02681  Biso   1.000  C
  H294     1.0000 0.29750  0.13480  0.04470  Biso   1.000  H
  C236     1.0000 0.31382  0.10088  0.98339  Biso   1.000  C
  C237     1.0000 0.34771  0.20657  0.97390  Biso   1.000  C
  C238     1.0000 0.39169  0.15088  0.02092  Biso   1.000  C
  C239     1.0000 0.31917  0.18800  0.95961  Biso   1.000  C
  C240     1.0000 0.28544  0.08261  0.96986  Biso   1.000  C
  H295     1.0000 0.35155  0.27367  0.98446  Biso   1.000  H
  H296     1.0000 0.35285  0.20060  0.95117  Biso   1.000  H
  H297     1.0000 0.39674  0.14339  0.99845  Biso   1.000  H
  H298     1.0000 0.40099  0.10386  0.04179  Biso   1.000  H
  H299     1.0000 0.39570  0.21712  0.03159  Biso   1.000  H
  H300     1.0000 0.31205  0.17243  0.93087  Biso   1.000  H
  H301     1.0000 0.31065  0.24747  0.96347  Biso   1.000  H
  H302     1.0000 0.28274  0.02810  0.98496  Biso   1.000  H
  H303     1.0000 0.27815  0.06660  0.94148  Biso   1.000  H
  H304     1.0000 0.27725  0.14113  0.97447  Biso   1.000  H
  C241     1.0000 0.77030  0.33853  0.67607  Biso   1.000  C
  O65      1.0000 0.78587  0.32790  0.65993  Biso   1.000  O
  H305     1.0000 0.75357  0.35112  0.65437  Biso   1.000  H
  H306     1.0000 0.76896  0.27447  0.68748  Biso   1.000  H
  C242     1.0000 0.77320  0.40804  0.70576  Biso   1.000  C
  C243     1.0000 0.78403  0.25060  0.63338  Biso   1.000  C
  O66      1.0000 0.79735  0.44261  0.72653  Biso   1.000  O
  H307     1.0000 0.76696  0.37892  0.72499  Biso   1.000  H
  H308     1.0000 0.76208  0.46401  0.69319  Biso   1.000  H
  C244     1.0000 0.79211  0.27950  0.60277  Biso   1.000  C
  H309     1.0000 0.79466  0.19550  0.64828  Biso   1.000  H
  H310     1.0000 0.76618  0.22804  0.62108  Biso   1.000  H
  C245     1.0000 0.80134  0.49873  0.76113  Biso   1.000  C
  O67      1.0000 0.81861  0.30373  0.61849  Biso   1.000  O
  H311     1.0000 0.78888  0.22593  0.58339  Biso   1.000  H
  H312     1.0000 0.78208  0.33663  0.58859  Biso   1.000  H
  H313     1.0000 0.78466  0.51350  0.76217  Biso   1.000  H
  H314     1.0000 0.81147  0.46022  0.78509  Biso   1.000  H
  C246     1.0000 0.81477  0.59073  0.76152  Biso   1.000  C
  C247     1.0000 0.82943  0.32208  0.59159  Biso   1.000  C
  O68      1.0000 0.84049  0.56933  0.76820  Biso   1.000  O
  H315     1.0000 0.81427  0.63367  0.78277  Biso   1.000  H
  H316     1.0000 0.80636  0.62472  0.73578  Biso   1.000  H
  C248     1.0000 0.85535  0.30694  0.60443  Biso   1.000  C
  C249     1.0000 0.81519  0.35388  0.55304  Biso   1.000  C
  C250     1.0000 0.85611  0.64692  0.76957  Biso   1.000  C
  O69      1.0000 0.86832  0.27367  0.64266  Biso   1.000  O
  C251     1.0000 0.86731  0.32382  0.57822  Biso   1.000  C
  C252     1.0000 0.82697  0.36910  0.52680  Biso   1.000  C
  H317     1.0000 0.79747  0.36524  0.54469  Biso   1.000  H
  C253     1.0000 0.88245  0.62763  0.78732  Biso   1.000  C
  C254     1.0000 0.84769  0.73841  0.75418  Biso   1.000  C
  C255     1.0000 0.89344  0.24201  0.65282  Biso   1.000  C
  H318     1.0000 0.88517  0.31422  0.58678  Biso   1.000  H
  C256     1.0000 0.85289  0.35454  0.53970  Biso   1.000  C
  C257     1.0000 0.81386  0.39908  0.48340  Biso   1.000  C
  O70      1.0000 0.88901  0.53461  0.80081  Biso   1.000  O
  C258     1.0000 0.89938  0.70107  0.78916  Biso   1.000  C
  C259     1.0000 0.86475  0.81141  0.75519  Biso   1.000  C
  H319     1.0000 0.82996  0.75158  0.74279  Biso   1.000  H
  H320     1.0000 0.89368  0.19259  0.63329  Biso   1.000  H
  H321     1.0000 0.90397  0.29784  0.65137  Biso   1.000  H
  C260     1.0000 0.90452  0.19980  0.69298  Biso   1.000  C
  C261     1.0000 0.86324  0.36720  0.50695  Biso   1.000  C
  C262     1.0000 0.82881  0.48431  0.47755  Biso   1.000  C
  C263     1.0000 0.81920  0.31203  0.45963  Biso   1.000  C
  C264     1.0000 0.78547  0.41742  0.46988  Biso   1.000  C
  C265     1.0000 0.91611  0.51408  0.82028  Biso   1.000  C
  H322     1.0000 0.91716  0.68899  0.80146  Biso   1.000  H
  C266     1.0000 0.89072  0.79198  0.77323  Biso   1.000  C
  C267     1.0000 0.85826  0.91368  0.73872  Biso   1.000  C
  O71      1.0000 0.91142  0.27542  0.72184  Biso   1.000  O
  H323     1.0000 0.91977  0.16093  0.69607  Biso   1.000  H
  H324     1.0000 0.89197  0.15612  0.69699  Biso   1.000  H
  C268     1.0000 0.85463  0.46757  0.48929  Biso   1.000  C
  C269     1.0000 0.84775  0.29340  0.47392  Biso   1.000  C
  C270     1.0000 0.89166  0.34908  0.52091  Biso   1.000  C
  C271     1.0000 0.81837  0.57362  0.46114  Biso   1.000  C
  H325     1.0000 0.81207  0.32761  0.43089  Biso   1.000  H
  H326     1.0000 0.81068  0.25249  0.46349  Biso   1.000  H
  H327     1.0000 0.78278  0.47187  0.48498  Biso   1.000  H
  H328     1.0000 0.77819  0.43344  0.44150  Biso   1.000  H
  H329     1.0000 0.77728  0.35891  0.47449  Biso   1.000  H
  C272     1.0000 0.91926  0.40818  0.83128  Biso   1.000  C
  H330     1.0000 0.92466  0.52908  0.80209  Biso   1.000  H
  H331     1.0000 0.92386  0.55477  0.84438  Biso   1.000  H
  C273     1.0000 0.90750  0.87794  0.77257  Biso   1.000  C
  C274     1.0000 0.87247  0.92809  0.71170  Biso   1.000  C
  C275     1.0000 0.87152  0.98340  0.77474  Biso   1.000  C
  C276     1.0000 0.82999  0.93384  0.71949  Biso   1.000  C
  C277     1.0000 0.92807  0.24267  0.75982  Biso   1.000  C
  C278     1.0000 0.87033  0.53978  0.48501  Biso   1.000  C
  H332     1.0000 0.85157  0.22629  0.48447  Biso   1.000  H
  H333     1.0000 0.85287  0.29937  0.45119  Biso   1.000  H
  H334     1.0000 0.90097  0.39610  0.54178  Biso   1.000  H
  H335     1.0000 0.89567  0.28292  0.53158  Biso   1.000  H
  H336     1.0000 0.89677  0.35658  0.49847  Biso   1.000  H
  C279     1.0000 0.83414  0.64597  0.45775  Biso   1.000  C
  H337     1.0000 0.80057  0.58469  0.45237  Biso   1.000  H
  O72      1.0000 0.91355  0.34457  0.79805  Biso   1.000  O
  H338     1.0000 0.90795  0.39188  0.84507  Biso   1.000  H
  H339     1.0000 0.93706  0.39668  0.85018  Biso   1.000  H
  C280     1.0000 0.89815  0.90931  0.72930  Biso   1.000  C
  C281     1.0000 0.90013  0.96332  0.79418  Biso   1.000  C
  C282     1.0000 0.93603  0.85829  0.79225  Biso   1.000  C
  C283     1.0000 0.86141  0.95968  0.67232  Biso   1.000  C
  H340     1.0000 0.86396  0.97402  0.79457  Biso   1.000  H
  H341     1.0000 0.86857  0.05182  0.76547  Biso   1.000  H
  H342     1.0000 0.82197  0.88907  0.69708  Biso   1.000  H
  H343     1.0000 0.82246  0.92408  0.73899  Biso   1.000  H
  H344     1.0000 0.82717  0.00102  0.70989  Biso   1.000  H
  H345     1.0000 0.91975  0.18990  0.76877  Biso   1.000  H
  H346     1.0000 0.94377  0.21617  0.75837  Biso   1.000  H
  C284     1.0000 0.93470  0.32448  0.78889  Biso   1.000  C
  H347     1.0000 0.88787  0.52711  0.49238  Biso   1.000  H
  C285     1.0000 0.86046  0.63032  0.47006  Biso   1.000  C
  O73      1.0000 0.82568  0.73637  0.44173  Biso   1.000  O
  C286     1.0000 0.91373  0.91943  0.70852  Biso   1.000  C
  H348     1.0000 0.90497  0.94628  0.82248  Biso   1.000  H
  H349     1.0000 0.90955  0.02271  0.79296  Biso   1.000  H
  H350     1.0000 0.94037  0.80428  0.77867  Biso   1.000  H
  H351     1.0000 0.94536  0.91681  0.79047  Biso   1.000  H
  H352     1.0000 0.94067  0.84133  0.82019  Biso   1.000  H
  C287     1.0000 0.87695  0.96928  0.65125  Biso   1.000  C
  H353     1.0000 0.84378  0.97431  0.66019  Biso   1.000  H
  H354     1.0000 0.93927  0.38292  0.77739  Biso   1.000  H
  H355     1.0000 0.94956  0.30628  0.81338  Biso   1.000  H
  O74      1.0000 0.87414  0.70842  0.46688  Biso   1.000  O
  C288     1.0000 0.79995  0.76243  0.43314  Biso   1.000  C
  H356     1.0000 0.93145  0.90669  0.72107  Biso   1.000  H
  C289     1.0000 0.90281  0.94818  0.66914  Biso   1.000  C
  O75      1.0000 0.86838  0.99884  0.61225  Biso   1.000  O
  C290     1.0000 0.90149  0.69860  0.48323  Biso   1.000  C
  H357     1.0000 0.78829  0.72291  0.41079  Biso   1.000  H
  H358     1.0000 0.79589  0.75042  0.45668  Biso   1.000  H
  C291     1.0000 0.79684  0.86724  0.42256  Biso   1.000  C
  O76      1.0000 0.91579  0.95800  0.64521  Biso   1.000  O
  C292     1.0000 0.84433  0.04331  0.59501  Biso   1.000  C
  C293     1.0000 0.91272  0.79744  0.48575  Biso   1.000  C
  H359     1.0000 0.90747  0.66883  0.50998  Biso   1.000  H
  H360     1.0000 0.90668  0.65631  0.46590  Biso   1.000  H
  O77      1.0000 0.80884  0.93107  0.45478  Biso   1.000  O
  H361     1.0000 0.77838  0.88252  0.41050  Biso   1.000  H
  H362     1.0000 0.80378  0.87939  0.40217  Biso   1.000  H
  C294     1.0000 0.93746  0.97118  0.65487  Biso   1.000  C
  H363     1.0000 0.83068  0.99549  0.59168  Biso   1.000  H
  C295     1.0000 0.84187  0.08159  0.55539  Biso   1.000  C
  H364     1.0000 0.84297  0.09710  0.61207  Biso   1.000  H
  O78      1.0000 0.91147  0.84708  0.51877  Biso   1.000  O
  H365     1.0000 0.90318  0.83412  0.46108  Biso   1.000  H
  H366     1.0000 0.93067  0.79191  0.48887  Biso   1.000  H
  C296     1.0000 0.83545  0.94068  0.46727  Biso   1.000  C
  H367     1.0000 0.94596  0.91193  0.66947  Biso   1.000  H
  C297     1.0000 0.95024  0.99520  0.62777  Biso   1.000  C
  H368     1.0000 0.94188  0.02431  0.67479  Biso   1.000  H
  O79      1.0000 0.84049  0.99898  0.53078  Biso   1.000  O
  H369     1.0000 0.85677  0.12228  0.55839  Biso   1.000  H
  H370     1.0000 0.82638  0.12177  0.54338  Biso   1.000  H
  C298     1.0000 0.92177  0.94119  0.52279  Biso   1.000  C
  H371     1.0000 0.84418  0.88092  0.48100  Biso   1.000  H
  H372     1.0000 0.83988  0.95233  0.44420  Biso   1.000  H
  C299     1.0000 0.84318  0.02497  0.49479  Biso   1.000  C
  O80      1.0000 0.94060  0.93981  0.59240  Biso   1.000  O
  H373     1.0000 0.96878  0.98304  0.64159  Biso   1.000  H
  H374     1.0000 0.94787  0.06529  0.62099  Biso   1.000  H
  C300     1.0000 0.92288  0.98639  0.56199  Biso   1.000  C
  H375     1.0000 0.93908  0.93813  0.52300  Biso   1.000  H
  H376     1.0000 0.91107  0.98202  0.50008  Biso   1.000  H
  H377     1.0000 0.83228  0.08188  0.48239  Biso   1.000  H
  H378     1.0000 0.86108  0.04258  0.50058  Biso   1.000  H
  H379     1.0000 0.90617  0.98028  0.56369  Biso   1.000  H
  H380     1.0000 0.92716  0.05641  0.56297  Biso   1.000  H
  C301     1.0000 0.22964  0.66147  0.32388  Biso   1.000  C
  C302     1.0000 0.22675  0.59204  0.29422  Biso   1.000  C
  O81      1.0000 0.21408  0.67210  0.34005  Biso   1.000  O
  H381     1.0000 0.24639  0.64888  0.34558  Biso   1.000  H
  H382     1.0000 0.23099  0.72553  0.31250  Biso   1.000  H
  O82      1.0000 0.20260  0.55739  0.27345  Biso   1.000  O
  H383     1.0000 0.23299  0.62108  0.27499  Biso   1.000  H
  H384     1.0000 0.23789  0.53599  0.30679  Biso   1.000  H
  C303     1.0000 0.21592  0.74940  0.36660  Biso   1.000  C
  C304     1.0000 0.19861  0.50127  0.23885  Biso   1.000  C
  C305     1.0000 0.20783  0.72050  0.39718  Biso   1.000  C
  H385     1.0000 0.20528  0.80450  0.35168  Biso   1.000  H
  H386     1.0000 0.23379  0.77204  0.37890  Biso   1.000  H
  C306     1.0000 0.18520  0.40927  0.23846  Biso   1.000  C
  H387     1.0000 0.21528  0.48650  0.23778  Biso   1.000  H
  H388     1.0000 0.18848  0.53978  0.21489  Biso   1.000  H
  O83      1.0000 0.18134  0.69634  0.38149  Biso   1.000  O
  H389     1.0000 0.21107  0.77407  0.41659  Biso   1.000  H
  H390     1.0000 0.21787  0.66344  0.41139  Biso   1.000  H
  O84      1.0000 0.15946  0.43067  0.23178  Biso   1.000  O
  H391     1.0000 0.18569  0.36633  0.21718  Biso   1.000  H
  H392     1.0000 0.19359  0.37528  0.26420  Biso   1.000  H
  C307     1.0000 0.17052  0.67792  0.40839  Biso   1.000  C
  C308     1.0000 0.14384  0.35308  0.23038  Biso   1.000  C
  C309     1.0000 0.14460  0.69314  0.39555  Biso   1.000  C
  C310     1.0000 0.18475  0.64612  0.44691  Biso   1.000  C
  C311     1.0000 0.11749  0.37237  0.21263  Biso   1.000  C
  C312     1.0000 0.15227  0.26159  0.24577  Biso   1.000  C
  O85      1.0000 0.13165  0.72633  0.35732  Biso   1.000  O
  C313     1.0000 0.13266  0.67618  0.42176  Biso   1.000  C
  C314     1.0000 0.17298  0.63090  0.47318  Biso   1.000  C
  H393     1.0000 0.20248  0.63484  0.45529  Biso   1.000  H
  O86      1.0000 0.11095  0.46539  0.19917  Biso   1.000  O
  C315     1.0000 0.10057  0.29893  0.21082  Biso   1.000  C
  C316     1.0000 0.13519  0.18859  0.24476  Biso   1.000  C
  H394     1.0000 0.16999  0.24842  0.25719  Biso   1.000  H
  C317     1.0000 0.10651  0.75799  0.34716  Biso   1.000  C
  H395     1.0000 0.11477  0.68578  0.41320  Biso   1.000  H
  C318     1.0000 0.14708  0.64553  0.46028  Biso   1.000  C
  C319     1.0000 0.18609  0.60092  0.51658  Biso   1.000  C
  C320     1.0000 0.08385  0.48592  0.17970  Biso   1.000  C
  H396     1.0000 0.08280  0.31101  0.19849  Biso   1.000  H
  C321     1.0000 0.10922  0.20802  0.22672  Biso   1.000  C
  C322     1.0000 0.14169  0.08632  0.26123  Biso   1.000  C
  C323     1.0000 0.09544  0.80020  0.30697  Biso   1.000  C
  H397     1.0000 0.10629  0.80741  0.36669  Biso   1.000  H
  H398     1.0000 0.09599  0.70223  0.34858  Biso   1.000  H
  C324     1.0000 0.13671  0.63280  0.49303  Biso   1.000  C
  C325     1.0000 0.17114  0.51569  0.52243  Biso   1.000  C
  C326     1.0000 0.18074  0.68804  0.54032  Biso   1.000  C
  C327     1.0000 0.21448  0.58258  0.53010  Biso   1.000  C
  C328     1.0000 0.08071  0.59182  0.16870  Biso   1.000  C
  H399     1.0000 0.07529  0.47092  0.19789  Biso   1.000  H
  H400     1.0000 0.07608  0.44523  0.15560  Biso   1.000  H
  C329     1.0000 0.09245  0.12213  0.22741  Biso   1.000  C
  C330     1.0000 0.12749  0.07191  0.28828  Biso   1.000  C
  C331     1.0000 0.12845  0.01660  0.22524  Biso   1.000  C
  C332     1.0000 0.16997  0.06623  0.28049  Biso   1.000  C
  O87      1.0000 0.08853  0.72458  0.27814  Biso   1.000  O
  H401     1.0000 0.08019  0.83907  0.30388  Biso   1.000  H
  H402     1.0000 0.10798  0.84388  0.30299  Biso   1.000  H
  C333     1.0000 0.14534  0.53243  0.51069  Biso   1.000  C
  C334     1.0000 0.15220  0.70660  0.52606  Biso   1.000  C
  C335     1.0000 0.10828  0.65092  0.47904  Biso   1.000  C
  C336     1.0000 0.18158  0.42638  0.53884  Biso   1.000  C
  H403     1.0000 0.18788  0.67239  0.56909  Biso   1.000  H
  H404     1.0000 0.18927  0.74751  0.53649  Biso   1.000  H
  H405     1.0000 0.21716  0.52813  0.51497  Biso   1.000  H
  H406     1.0000 0.22178  0.56664  0.55848  Biso   1.000  H
  H407     1.0000 0.22268  0.64109  0.52549  Biso   1.000  H
  O88      1.0000 0.08639  0.65543  0.20190  Biso   1.000  O
  H408     1.0000 0.09199  0.60812  0.15488  Biso   1.000  H
  H409     1.0000 0.06289  0.60332  0.14980  Biso   1.000  H
  C337     1.0000 0.10179  0.09069  0.27065  Biso   1.000  C
  C338     1.0000 0.09982  0.03668  0.20580  Biso   1.000  C
  C339     1.0000 0.06394  0.14171  0.20773  Biso   1.000  C
  C340     1.0000 0.13854  0.04032  0.32766  Biso   1.000  C
  H410     1.0000 0.13600  0.02598  0.20538  Biso   1.000  H
  H411     1.0000 0.13139  0.94818  0.23448  Biso   1.000  H
  H412     1.0000 0.17799  0.11093  0.30290  Biso   1.000  H
  H413     1.0000 0.17749  0.07592  0.26099  Biso   1.000  H
  H414     1.0000 0.17278  0.99898  0.29009  Biso   1.000  H
  C341     1.0000 0.07188  0.75733  0.24016  Biso   1.000  C
  C342     1.0000 0.12964  0.46022  0.51497  Biso   1.000  C
  H415     1.0000 0.14837  0.77371  0.51548  Biso   1.000  H
  H416     1.0000 0.14708  0.70063  0.54879  Biso   1.000  H
  H417     1.0000 0.09898  0.60390  0.45820  Biso   1.000  H
  H418     1.0000 0.10428  0.71708  0.46840  Biso   1.000  H
  H419     1.0000 0.10317  0.64342  0.50148  Biso   1.000  H
  C343     1.0000 0.16581  0.35403  0.54223  Biso   1.000  C
  H420     1.0000 0.19937  0.41531  0.54758  Biso   1.000  H
  C344     1.0000 0.06525  0.67552  0.21109  Biso   1.000  C
  C345     1.0000 0.08623  0.08057  0.29143  Biso   1.000  C
  H421     1.0000 0.09500  0.05372  0.17750  Biso   1.000  H
  H422     1.0000 0.09039  0.97729  0.20699  Biso   1.000  H
  H423     1.0000 0.05959  0.19572  0.22128  Biso   1.000  H
  H424     1.0000 0.05458  0.08319  0.20948  Biso   1.000  H
  H425     1.0000 0.05930  0.15867  0.17979  Biso   1.000  H
  C346     1.0000 0.12299  0.03072  0.34870  Biso   1.000  C
  H426     1.0000 0.15619  0.02569  0.33979  Biso   1.000  H
  H427     1.0000 0.08019  0.81010  0.23118  Biso   1.000  H
  H428     1.0000 0.05619  0.78383  0.24158  Biso   1.000  H
  H429     1.0000 0.11208  0.47289  0.50760  Biso   1.000  H
  C347     1.0000 0.13948  0.36968  0.52989  Biso   1.000  C
  O89      1.0000 0.17427  0.26363  0.55825  Biso   1.000  O
  H430     1.0000 0.06069  0.61708  0.22259  Biso   1.000  H
  H431     1.0000 0.05039  0.69372  0.18660  Biso   1.000  H
  H432     1.0000 0.06849  0.09331  0.27889  Biso   1.000  H
  C348     1.0000 0.09714  0.05182  0.33084  Biso   1.000  C
  O90      1.0000 0.13157  0.00116  0.38773  Biso   1.000  O
  O91      1.0000 0.12583  0.29158  0.53310  Biso   1.000  O
  C349     1.0000 0.20000  0.23757  0.56681  Biso   1.000  C
  O92      1.0000 0.08418  0.04200  0.35477  Biso   1.000  O
  C350     1.0000 0.15561  0.95669  0.40494  Biso   1.000  C
  C351     1.0000 0.09846  0.30140  0.51675  Biso   1.000  C
  C352     1.0000 0.20313  0.13283  0.57742  Biso   1.000  C
  H433     1.0000 0.21168  0.27709  0.58919  Biso   1.000  H
  H434     1.0000 0.20408  0.24958  0.54330  Biso   1.000  H
  C353     1.0000 0.06248  0.02882  0.34508  Biso   1.000  C
  H435     1.0000 0.16929  0.00451  0.40830  Biso   1.000  H
  C354     1.0000 0.15808  0.91841  0.44459  Biso   1.000  C
  H436     1.0000 0.15697  0.90290  0.38788  Biso   1.000  H
  C355     1.0000 0.08722  0.20263  0.51420  Biso   1.000  C
  H437     1.0000 0.09247  0.33117  0.48997  Biso   1.000  H
  H438     1.0000 0.09327  0.34369  0.53408  Biso   1.000  H
  O93      1.0000 0.19113  0.06893  0.54520  Biso   1.000  O
  H439     1.0000 0.22157  0.11748  0.58948  Biso   1.000  H
  H440     1.0000 0.19616  0.12061  0.59778  Biso   1.000  H
  H441     1.0000 0.05399  0.08807  0.33048  Biso   1.000  H
  C356     1.0000 0.04970  0.00480  0.37218  Biso   1.000  C
  H442     1.0000 0.05809  0.97569  0.32519  Biso   1.000  H
  O94      1.0000 0.15948  0.00102  0.46920  Biso   1.000  O
  H443     1.0000 0.14318  0.87772  0.44159  Biso   1.000  H
  H444     1.0000 0.17359  0.87823  0.45660  Biso   1.000  H
  O95      1.0000 0.08849  0.15292  0.48121  Biso   1.000  O
  H445     1.0000 0.09678  0.16588  0.53890  Biso   1.000  H
  H446     1.0000 0.06927  0.20809  0.51108  Biso   1.000  H
  C357     1.0000 0.16450  0.05932  0.53271  Biso   1.000  C
  O96      1.0000 0.05935  0.06019  0.40758  Biso   1.000  O
  H447     1.0000 0.03119  0.01703  0.35839  Biso   1.000  H
  H448     1.0000 0.05208  0.93471  0.37899  Biso   1.000  H
  C358     1.0000 0.15678  0.97503  0.50519  Biso   1.000  C
  C359     1.0000 0.07818  0.05881  0.47719  Biso   1.000  C
  H449     1.0000 0.15578  0.11908  0.51898  Biso   1.000  H
  H450     1.0000 0.16007  0.04767  0.55578  Biso   1.000  H
  C360     1.0000 0.07707  0.01361  0.43799  Biso   1.000  C
  H451     1.0000 0.16767  0.91812  0.51759  Biso   1.000  H
  H452     1.0000 0.13887  0.95742  0.49940  Biso   1.000  H
  H453     1.0000 0.06087  0.06187  0.47698  Biso   1.000  H
  H454     1.0000 0.08887  0.01798  0.49987  Biso   1.000  H
  H455     1.0000 0.09378  0.01972  0.43629  Biso   1.000  H
  H456     1.0000 0.07278  0.94359  0.43698  Biso   1.000  H
  C361     1.0000 0.80136  0.50127  0.26114  Biso   1.000  C
  O97      1.0000 0.79739  0.55739  0.22654  Biso   1.000  O
  H457     1.0000 0.78468  0.48650  0.26218  Biso   1.000  H
  H458     1.0000 0.81149  0.53978  0.28510  Biso   1.000  H
  C362     1.0000 0.81479  0.40927  0.26153  Biso   1.000  C
  C363     1.0000 0.77324  0.59204  0.20577  Biso   1.000  C
  O98      1.0000 0.84052  0.43067  0.26821  Biso   1.000  O
  H459     1.0000 0.81428  0.36633  0.28278  Biso   1.000  H
  H460     1.0000 0.80639  0.37528  0.23579  Biso   1.000  H
  C364     1.0000 0.77033  0.66147  0.17611  Biso   1.000  C
  H461     1.0000 0.76700  0.62108  0.22500  Biso   1.000  H
  H462     1.0000 0.76209  0.53599  0.19320  Biso   1.000  H
  C365     1.0000 0.85613  0.35308  0.26961  Biso   1.000  C
  O99      1.0000 0.78590  0.67210  0.15994  Biso   1.000  O
  H463     1.0000 0.75359  0.64888  0.15441  Biso   1.000  H
  H464     1.0000 0.76899  0.72553  0.18749  Biso   1.000  H
  C366     1.0000 0.88250  0.37237  0.28736  Biso   1.000  C
  C367     1.0000 0.84771  0.26159  0.25422  Biso   1.000  C
  C368     1.0000 0.78405  0.74940  0.13339  Biso   1.000  C
  O100     1.0000 0.88903  0.46539  0.30082  Biso   1.000  O
  C369     1.0000 0.89941  0.29893  0.28917  Biso   1.000  C
  C370     1.0000 0.86479  0.18859  0.25523  Biso   1.000  C
  H465     1.0000 0.82999  0.24842  0.24280  Biso   1.000  H
  C371     1.0000 0.79215  0.72050  0.10281  Biso   1.000  C
  H466     1.0000 0.79470  0.80450  0.14828  Biso   1.000  H
  H467     1.0000 0.76619  0.77204  0.12109  Biso   1.000  H
  C372     1.0000 0.91613  0.48592  0.32029  Biso   1.000  C
  H468     1.0000 0.91719  0.31101  0.30150  Biso   1.000  H
  C373     1.0000 0.89075  0.20802  0.27324  Biso   1.000  C
  C374     1.0000 0.85829  0.08632  0.23873  Biso   1.000  C
  O101     1.0000 0.81864  0.69634  0.11850  Biso   1.000  O
  H469     1.0000 0.78889  0.77407  0.08340  Biso   1.000  H
  H470     1.0000 0.78209  0.66344  0.08860  Biso   1.000  H
  C375     1.0000 0.91927  0.59182  0.33129  Biso   1.000  C
  H471     1.0000 0.92469  0.47092  0.30210  Biso   1.000  H
  H472     1.0000 0.92388  0.44523  0.34439  Biso   1.000  H
  C376     1.0000 0.90751  0.12213  0.27258  Biso   1.000  C
  C377     1.0000 0.87249  0.07191  0.21171  Biso   1.000  C
  C378     1.0000 0.87154  0.01660  0.27475  Biso   1.000  C
  C379     1.0000 0.83001  0.06623  0.21950  Biso   1.000  C
  C380     1.0000 0.82945  0.67792  0.09160  Biso   1.000  C
  O102     1.0000 0.91359  0.65543  0.29809  Biso   1.000  O
  H473     1.0000 0.90798  0.60812  0.34508  Biso   1.000  H
  H474     1.0000 0.93708  0.60332  0.35019  Biso   1.000  H
  C381     1.0000 0.89817  0.09069  0.22931  Biso   1.000  C
  C382     1.0000 0.90015  0.03668  0.29419  Biso   1.000  C
  C383     1.0000 0.93605  0.14171  0.29226  Biso   1.000  C
  C384     1.0000 0.86145  0.04032  0.17233  Biso   1.000  C
  H475     1.0000 0.86398  0.02598  0.29458  Biso   1.000  H
  H476     1.0000 0.86858  0.94818  0.26548  Biso   1.000  H
  H477     1.0000 0.82199  0.11093  0.19709  Biso   1.000  H
  H478     1.0000 0.82249  0.07592  0.23900  Biso   1.000  H
  H479     1.0000 0.82718  0.99898  0.20990  Biso   1.000  H
  C385     1.0000 0.85537  0.69314  0.10444  Biso   1.000  C
  C386     1.0000 0.81521  0.64612  0.05305  Biso   1.000  C
  C387     1.0000 0.93474  0.67552  0.28890  Biso   1.000  C
  C388     1.0000 0.91375  0.08057  0.20853  Biso   1.000  C
  H480     1.0000 0.90498  0.05372  0.32249  Biso   1.000  H
  H481     1.0000 0.90959  0.97729  0.29300  Biso   1.000  H
  H482     1.0000 0.94038  0.19572  0.27868  Biso   1.000  H
  H483     1.0000 0.94538  0.08319  0.29048  Biso   1.000  H
  H484     1.0000 0.94069  0.15867  0.32020  Biso   1.000  H
  C389     1.0000 0.87699  0.03072  0.15129  Biso   1.000  C
  H485     1.0000 0.84379  0.02569  0.16020  Biso   1.000  H
  O103     1.0000 0.86834  0.72633  0.14267  Biso   1.000  O
  C390     1.0000 0.86733  0.67618  0.07823  Biso   1.000  C
  C391     1.0000 0.82700  0.63090  0.02681  Biso   1.000  C
  H486     1.0000 0.79750  0.63484  0.04470  Biso   1.000  H
  C392     1.0000 0.92808  0.75733  0.25983  Biso   1.000  C
  H487     1.0000 0.93929  0.61708  0.27740  Biso   1.000  H
  H488     1.0000 0.94959  0.69372  0.31339  Biso   1.000  H
  H489     1.0000 0.93150  0.09331  0.22110  Biso   1.000  H
  C393     1.0000 0.90283  0.05182  0.16915  Biso   1.000  C
  O104     1.0000 0.86840  0.00116  0.11226  Biso   1.000  O
  C394     1.0000 0.89346  0.75799  0.15283  Biso   1.000  C
  H490     1.0000 0.88519  0.68578  0.08679  Biso   1.000  H
  C395     1.0000 0.85291  0.64553  0.03971  Biso   1.000  C
  C396     1.0000 0.81383  0.60092  0.98339  Biso   1.000  C
  O105     1.0000 0.91144  0.72458  0.22185  Biso   1.000  O
  H491     1.0000 0.91979  0.81010  0.26878  Biso   1.000  H
  H492     1.0000 0.94379  0.78383  0.25841  Biso   1.000  H
  O106     1.0000 0.91580  0.04200  0.14522  Biso   1.000  O
  C397     1.0000 0.84434  0.95669  0.09502  Biso   1.000  C
  H493     1.0000 0.89370  0.80741  0.13330  Biso   1.000  H
  H494     1.0000 0.90399  0.70223  0.15141  Biso   1.000  H
  C398     1.0000 0.90454  0.80020  0.19302  Biso   1.000  C
  C399     1.0000 0.86325  0.63280  0.00696  Biso   1.000  C
  C400     1.0000 0.82878  0.51569  0.97750  Biso   1.000  C
  C401     1.0000 0.81918  0.68804  0.95961  Biso   1.000  C
  C402     1.0000 0.78545  0.58258  0.96986  Biso   1.000  C
  C403     1.0000 0.93749  0.02882  0.15488  Biso   1.000  C
  H495     1.0000 0.83069  0.00451  0.09169  Biso   1.000  H
  C404     1.0000 0.84189  0.91841  0.05540  Biso   1.000  C
  H496     1.0000 0.84299  0.90290  0.11208  Biso   1.000  H
  H497     1.0000 0.91980  0.83907  0.19611  Biso   1.000  H
  H498     1.0000 0.89198  0.84388  0.19700  Biso   1.000  H
  C405     1.0000 0.89170  0.65092  0.02092  Biso   1.000  C
  C406     1.0000 0.85458  0.53243  0.98927  Biso   1.000  C
  C407     1.0000 0.84771  0.70660  0.97390  Biso   1.000  C
  C408     1.0000 0.81834  0.42638  0.96112  Biso   1.000  C
  H499     1.0000 0.81205  0.67239  0.93087  Biso   1.000  H
  H500     1.0000 0.81064  0.74751  0.96347  Biso   1.000  H
  H501     1.0000 0.78274  0.52813  0.98496  Biso   1.000  H
  H502     1.0000 0.77814  0.56664  0.94148  Biso   1.000  H
  H503     1.0000 0.77724  0.64109  0.97447  Biso   1.000  H
  H504     1.0000 0.94600  0.08807  0.16951  Biso   1.000  H
  C409     1.0000 0.95028  0.00480  0.12781  Biso   1.000  C
  H505     1.0000 0.94189  0.97569  0.17480  Biso   1.000  H
  O107     1.0000 0.84051  0.00102  0.03079  Biso   1.000  O
  H506     1.0000 0.85680  0.87772  0.05840  Biso   1.000  H
  H507     1.0000 0.82640  0.87823  0.04339  Biso   1.000  H
  H508     1.0000 0.90100  0.60390  0.04179  Biso   1.000  H
  H509     1.0000 0.89570  0.71708  0.03159  Biso   1.000  H
  H510     1.0000 0.89675  0.64342  0.99845  Biso   1.000  H
  C410     1.0000 0.87028  0.46022  0.98499  Biso   1.000  C
  H511     1.0000 0.85154  0.77371  0.98446  Biso   1.000  H
  H512     1.0000 0.85284  0.70063  0.95117  Biso   1.000  H
  C411     1.0000 0.83411  0.35403  0.95773  Biso   1.000  C
  H513     1.0000 0.80055  0.41531  0.95236  Biso   1.000  H
  O108     1.0000 0.94062  0.06019  0.09241  Biso   1.000  O
  H514     1.0000 0.96879  0.01703  0.14160  Biso   1.000  H
  H515     1.0000 0.94790  0.93471  0.12100  Biso   1.000  H
  C412     1.0000 0.84313  0.97503  0.99474  Biso   1.000  C
  H516     1.0000 0.88784  0.47289  0.99236  Biso   1.000  H
  C413     1.0000 0.86044  0.36968  0.97004  Biso   1.000  C
  O109     1.0000 0.82565  0.26363  0.94171  Biso   1.000  O
  C414     1.0000 0.92289  0.01361  0.06200  Biso   1.000  C
  H517     1.0000 0.83225  0.91812  0.98237  Biso   1.000  H
  H518     1.0000 0.86109  0.95742  0.00059  Biso   1.000  H
  C415     1.0000 0.83543  0.05932  0.96725  Biso   1.000  C
  O110     1.0000 0.87409  0.29158  0.96686  Biso   1.000  O
  C416     1.0000 0.79992  0.23757  0.93312  Biso   1.000  C
  H519     1.0000 0.90619  0.01972  0.06370  Biso   1.000  H
  C417     1.0000 0.92180  0.05881  0.02280  Biso   1.000  C
  H520     1.0000 0.92720  0.94359  0.06301  Biso   1.000  H
  O111     1.0000 0.80879  0.06893  0.95476  Biso   1.000  O
  H521     1.0000 0.84413  0.11908  0.98095  Biso   1.000  H
  H522     1.0000 0.83985  0.04767  0.94415  Biso   1.000  H
  C418     1.0000 0.90144  0.30140  0.98318  Biso   1.000  C
  H523     1.0000 0.78825  0.27709  0.91077  Biso   1.000  H
  H524     1.0000 0.79584  0.24958  0.95666  Biso   1.000  H
  C419     1.0000 0.79679  0.13283  0.92254  Biso   1.000  C
  O112     1.0000 0.91149  0.15292  0.01878  Biso   1.000  O
  H525     1.0000 0.93910  0.06187  0.02301  Biso   1.000  H
  H526     1.0000 0.91110  0.01798  0.00009  Biso   1.000  H
  H527     1.0000 0.90749  0.33117  0.00999  Biso   1.000  H
  C420     1.0000 0.91269  0.20263  0.98573  Biso   1.000  C
  H528     1.0000 0.90664  0.34369  0.96585  Biso   1.000  H
  H529     1.0000 0.77835  0.11748  0.91048  Biso   1.000  H
  H530     1.0000 0.80375  0.12061  0.90215  Biso   1.000  H
  H531     1.0000 0.90314  0.16588  0.96106  Biso   1.000  H
  H532     1.0000 0.93064  0.20809  0.98885  Biso   1.000  H
  C421     1.0000 0.19859  0.49873  0.73884  Biso   1.000  C
  O113     1.0000 0.20258  0.44261  0.77344  Biso   1.000  O
  H533     1.0000 0.21526  0.51350  0.73777  Biso   1.000  H
  H534     1.0000 0.18846  0.46022  0.71488  Biso   1.000  H
  C422     1.0000 0.18516  0.59073  0.73845  Biso   1.000  C
  C423     1.0000 0.22673  0.40804  0.79421  Biso   1.000  C
  O114     1.0000 0.15944  0.56933  0.73177  Biso   1.000  O
  H535     1.0000 0.18566  0.63367  0.71717  Biso   1.000  H
  H536     1.0000 0.19357  0.62472  0.76416  Biso   1.000  H
  C424     1.0000 0.22962  0.33853  0.82387  Biso   1.000  C
  H537     1.0000 0.23297  0.37892  0.77498  Biso   1.000  H
  H538     1.0000 0.23786  0.46401  0.80678  Biso   1.000  H
  C425     1.0000 0.14382  0.64692  0.73037  Biso   1.000  C
  O115     1.0000 0.21404  0.32790  0.84001  Biso   1.000  O
  H539     1.0000 0.24635  0.35112  0.84557  Biso   1.000  H
  H540     1.0000 0.23095  0.27447  0.81246  Biso   1.000  H
  C426     1.0000 0.11747  0.62763  0.71262  Biso   1.000  C
  C427     1.0000 0.15224  0.73841  0.74576  Biso   1.000  C
  C428     1.0000 0.21590  0.25060  0.86659  Biso   1.000  C
  O116     1.0000 0.11092  0.53461  0.69916  Biso   1.000  O
  C429     1.0000 0.10055  0.70107  0.71081  Biso   1.000  C
  C430     1.0000 0.13518  0.81141  0.74475  Biso   1.000  C
  H541     1.0000 0.16996  0.75158  0.75718  Biso   1.000  H
  C431     1.0000 0.20780  0.27950  0.89717  Biso   1.000  C
  H542     1.0000 0.20526  0.19550  0.85167  Biso   1.000  H
  H543     1.0000 0.23375  0.22804  0.87886  Biso   1.000  H
  C432     1.0000 0.08382  0.51408  0.67969  Biso   1.000  C
  H544     1.0000 0.08276  0.68899  0.69848  Biso   1.000  H
  C433     1.0000 0.10921  0.79198  0.72671  Biso   1.000  C
  C434     1.0000 0.14167  0.91368  0.76122  Biso   1.000  C
  O117     1.0000 0.18132  0.30373  0.88148  Biso   1.000  O
  H545     1.0000 0.21105  0.22593  0.91658  Biso   1.000  H
  H546     1.0000 0.21786  0.33663  0.91138  Biso   1.000  H
  C435     1.0000 0.08068  0.40818  0.66869  Biso   1.000  C
  H547     1.0000 0.07527  0.52908  0.69788  Biso   1.000  H
  H548     1.0000 0.07607  0.55477  0.65559  Biso   1.000  H
  C436     1.0000 0.09244  0.87794  0.72740  Biso   1.000  C
  C437     1.0000 0.12746  0.92809  0.78827  Biso   1.000  C
  C438     1.0000 0.12841  0.98340  0.72523  Biso   1.000  C
  C439     1.0000 0.16994  0.93384  0.78048  Biso   1.000  C
  C440     1.0000 0.17050  0.32208  0.90838  Biso   1.000  C
  O118     1.0000 0.08637  0.34457  0.70189  Biso   1.000  O
  H549     1.0000 0.09196  0.39188  0.65487  Biso   1.000  H
  H550     1.0000 0.06287  0.39668  0.64979  Biso   1.000  H
  C441     1.0000 0.10177  0.90931  0.77064  Biso   1.000  C
  C442     1.0000 0.09979  0.96332  0.70576  Biso   1.000  C
  C443     1.0000 0.06390  0.85829  0.70772  Biso   1.000  C
  C444     1.0000 0.13852  0.95968  0.82765  Biso   1.000  C
  H551     1.0000 0.13596  0.97402  0.70537  Biso   1.000  H
  H552     1.0000 0.13136  0.05182  0.73447  Biso   1.000  H
  H553     1.0000 0.17795  0.88907  0.80286  Biso   1.000  H
  H554     1.0000 0.17746  0.92408  0.76098  Biso   1.000  H
  H555     1.0000 0.17276  0.00102  0.79008  Biso   1.000  H
  C445     1.0000 0.14458  0.30694  0.89554  Biso   1.000  C
  C446     1.0000 0.18473  0.35388  0.94690  Biso   1.000  C
  C447     1.0000 0.06522  0.32448  0.71105  Biso   1.000  C
  C448     1.0000 0.08619  0.91943  0.79142  Biso   1.000  C
  H556     1.0000 0.09497  0.94628  0.67749  Biso   1.000  H
  H557     1.0000 0.09037  0.02271  0.70698  Biso   1.000  H
  H558     1.0000 0.05956  0.80428  0.72127  Biso   1.000  H
  H559     1.0000 0.05457  0.91681  0.70947  Biso   1.000  H
  H560     1.0000 0.05926  0.84133  0.67978  Biso   1.000  H
  C449     1.0000 0.12298  0.96928  0.84869  Biso   1.000  C
  H561     1.0000 0.15615  0.97431  0.83978  Biso   1.000  H
  O119     1.0000 0.13161  0.27367  0.85731  Biso   1.000  O
  C450     1.0000 0.13262  0.32382  0.92175  Biso   1.000  C
  C451     1.0000 0.17296  0.36910  0.97314  Biso   1.000  C
  H562     1.0000 0.20246  0.36524  0.95528  Biso   1.000  H
  C452     1.0000 0.07187  0.24267  0.74015  Biso   1.000  C
  H563     1.0000 0.06066  0.38292  0.72258  Biso   1.000  H
  H564     1.0000 0.05037  0.30628  0.68659  Biso   1.000  H
  H565     1.0000 0.06845  0.90669  0.77888  Biso   1.000  H
  C453     1.0000 0.09711  0.94818  0.83080  Biso   1.000  C
  O120     1.0000 0.13155  0.99884  0.88772  Biso   1.000  O
  C454     1.0000 0.10649  0.24201  0.84715  Biso   1.000  C
  H566     1.0000 0.11475  0.31422  0.91316  Biso   1.000  H
  C455     1.0000 0.14704  0.35454  0.96024  Biso   1.000  C
  C456     1.0000 0.18613  0.39908  0.01659  Biso   1.000  C
  O121     1.0000 0.08851  0.27542  0.77813  Biso   1.000  O
  H567     1.0000 0.08015  0.18990  0.73117  Biso   1.000  H
  H568     1.0000 0.05616  0.21617  0.74157  Biso   1.000  H
  O122     1.0000 0.08415  0.95800  0.85476  Biso   1.000  O
  C457     1.0000 0.15560  0.04331  0.90493  Biso   1.000  C
  H569     1.0000 0.10625  0.19259  0.86668  Biso   1.000  H
  H570     1.0000 0.09596  0.29784  0.84857  Biso   1.000  H
  C458     1.0000 0.09540  0.19980  0.80696  Biso   1.000  C
  C459     1.0000 0.13669  0.36720  0.99300  Biso   1.000  C
  C460     1.0000 0.17118  0.48431  0.02245  Biso   1.000  C
  C461     1.0000 0.18079  0.31203  0.04037  Biso   1.000  C
  C462     1.0000 0.21452  0.41742  0.03012  Biso   1.000  C
  C463     1.0000 0.06245  0.97118  0.84507  Biso   1.000  C
  H571     1.0000 0.16926  0.99549  0.90829  Biso   1.000  H
  C464     1.0000 0.15805  0.08159  0.94455  Biso   1.000  C
  H572     1.0000 0.15696  0.09710  0.88787  Biso   1.000  H
  H573     1.0000 0.08015  0.16093  0.80387  Biso   1.000  H
  H574     1.0000 0.10797  0.15612  0.80298  Biso   1.000  H
  C465     1.0000 0.10824  0.34908  0.97903  Biso   1.000  C
  C466     1.0000 0.14537  0.46757  0.01071  Biso   1.000  C
  C467     1.0000 0.15224  0.29340  0.02608  Biso   1.000  C
  C468     1.0000 0.18161  0.57362  0.03886  Biso   1.000  C
  H575     1.0000 0.18790  0.32761  0.06911  Biso   1.000  H
  H576     1.0000 0.18931  0.25249  0.03651  Biso   1.000  H
  H577     1.0000 0.21721  0.47187  0.01502  Biso   1.000  H
  H578     1.0000 0.22180  0.43344  0.05850  Biso   1.000  H
  H579     1.0000 0.22271  0.35891  0.02551  Biso   1.000  H
  H580     1.0000 0.05395  0.91193  0.83047  Biso   1.000  H
  C469     1.0000 0.04967  0.99520  0.87217  Biso   1.000  C
  H581     1.0000 0.05806  0.02431  0.82518  Biso   1.000  H
  O123     1.0000 0.15944  0.99898  0.96916  Biso   1.000  O
  H582     1.0000 0.14315  0.12228  0.94158  Biso   1.000  H
  H583     1.0000 0.17355  0.12177  0.95659  Biso   1.000  H
  H584     1.0000 0.09896  0.39610  0.95816  Biso   1.000  H
  H585     1.0000 0.10426  0.28292  0.96839  Biso   1.000  H
  H586     1.0000 0.10321  0.35658  0.00150  Biso   1.000  H
  C470     1.0000 0.12967  0.53978  0.01499  Biso   1.000  C
  H587     1.0000 0.14840  0.22629  0.01550  Biso   1.000  H
  H588     1.0000 0.14711  0.29937  0.04881  Biso   1.000  H
  C471     1.0000 0.16584  0.64597  0.04225  Biso   1.000  C
  H589     1.0000 0.19940  0.58469  0.04760  Biso   1.000  H
  O124     1.0000 0.05933  0.93981  0.90757  Biso   1.000  O
  H590     1.0000 0.03116  0.98304  0.85838  Biso   1.000  H
  H591     1.0000 0.05206  0.06529  0.87898  Biso   1.000  H
  C472     1.0000 0.15681  0.02497  0.00521  Biso   1.000  C
  H592     1.0000 0.11211  0.52711  0.00762  Biso   1.000  H
  C473     1.0000 0.13951  0.63032  0.02994  Biso   1.000  C
  O125     1.0000 0.17430  0.73637  0.05827  Biso   1.000  O
  C474     1.0000 0.07705  0.98639  0.93798  Biso   1.000  C
  C475     1.0000 0.16452  0.94068  0.03273  Biso   1.000  C
  H593     1.0000 0.13885  0.04258  0.99936  Biso   1.000  H
  H594     1.0000 0.16770  0.08188  0.01761  Biso   1.000  H
  O126     1.0000 0.12586  0.70842  0.03312  Biso   1.000  O
  C476     1.0000 0.20004  0.76243  0.06683  Biso   1.000  C
  H595     1.0000 0.09376  0.98028  0.93628  Biso   1.000  H
  C477     1.0000 0.07816  0.94119  0.97718  Biso   1.000  C
  H596     1.0000 0.07276  0.05641  0.93697  Biso   1.000  H
  O127     1.0000 0.19116  0.93107  0.04522  Biso   1.000  O
  H597     1.0000 0.15581  0.88092  0.01900  Biso   1.000  H
  H598     1.0000 0.16010  0.95233  0.05580  Biso   1.000  H
  C478     1.0000 0.09850  0.69860  0.01677  Biso   1.000  C
  H599     1.0000 0.21170  0.72291  0.08921  Biso   1.000  H
  H600     1.0000 0.20411  0.75042  0.04332  Biso   1.000  H
  C479     1.0000 0.20316  0.86724  0.07744  Biso   1.000  C
  O128     1.0000 0.08845  0.84708  0.98117  Biso   1.000  O
  H601     1.0000 0.06085  0.93813  0.97697  Biso   1.000  H
  H602     1.0000 0.08886  0.98202  0.99986  Biso   1.000  H
  H603     1.0000 0.09245  0.66883  0.98996  Biso   1.000  H
  C480     1.0000 0.08725  0.79744  0.01422  Biso   1.000  C
  H604     1.0000 0.09330  0.65631  0.03410  Biso   1.000  H
  H605     1.0000 0.22160  0.88252  0.08950  Biso   1.000  H
  H606     1.0000 0.19621  0.87939  0.09780  Biso   1.000  H
  H607     1.0000 0.09681  0.83412  0.03892  Biso   1.000  H
  H608     1.0000 0.06930  0.79191  0.01110  Biso   1.000  H
  Ne1      1.0000 0.13732  0.36064  0.37495  Biso   1.000  Ne
  He1      1.0000 0.14143  0.35392  0.38900  Biso   1.000  He
  He2      1.0000 0.12165  0.06249  0.54145  Biso   1.000  He
  He3      1.0000 0.12874  0.37101  0.35043  Biso   1.000  He
  He4      1.0000 0.14144  0.55837  0.29621  Biso   1.000  He
  Ar1      1.0000 0.13731  0.36003  0.37491  Biso   1.000  Ar
  Ne2      1.0000 0.36263  0.13937  0.62502  Biso   1.000  Ne
  He5      1.0000 0.37291  0.12687  0.65176  Biso   1.000  He
  He6      1.0000 0.36166  0.94835  0.70502  Biso   1.000  He
  He7      1.0000 0.34188  0.16002  0.60814  Biso   1.000  He
  He8      1.0000 0.37265  0.34159  0.49082  Biso   1.000  He
  Ar2      1.0000 0.36265  0.14000  0.62506  Biso   1.000  Ar
  Ne3      1.0000 0.36264  0.86063  0.12503  Biso   1.000  Ne
  He9      1.0000 0.38672  0.88432  0.15080  Biso   1.000  He
  He10     1.0000 0.35046  0.21391  0.22824  Biso   1.000  He
  He11     1.0000 0.34339  0.83795  0.10561  Biso   1.000  He
  Ar3      1.0000 0.36266  0.85999  0.12507  Biso   1.000  Ar
  Ne4      1.0000 0.63732  0.86063  0.37495  Biso   1.000  Ne
  He12     1.0000 0.64141  0.85386  0.38908  Biso   1.000  He
  He13     1.0000 0.62166  0.56252  0.54146  Biso   1.000  He
  He14     1.0000 0.62875  0.87096  0.35045  Biso   1.000  He
  He15     1.0000 0.63864  0.05750  0.29360  Biso   1.000  He
  Ar4      1.0000 0.63730  0.86000  0.37491  Biso   1.000  Ar
  Ne5      1.0000 0.63731  0.13937  0.87494  Biso   1.000  Ne
  He16     1.0000 0.64147  0.14620  0.88917  Biso   1.000  He
  He17     1.0000 0.62806  0.36607  0.03448  Biso   1.000  He
  He18     1.0000 0.63001  0.12939  0.85109  Biso   1.000  He
  He19     1.0000 0.64961  0.78018  0.77101  Biso   1.000  He
  Ar5      1.0000 0.63729  0.14001  0.87490  Biso   1.000  Ar
  Ne6      1.0000 0.13731  0.63937  0.87494  Biso   1.000  Ne
  He20     1.0000 0.14147  0.64620  0.88919  Biso   1.000  He
  He21     1.0000 0.12805  0.86610  0.03448  Biso   1.000  He
  He22     1.0000 0.13001  0.62942  0.85113  Biso   1.000  He
  He23     1.0000 0.14960  0.28007  0.77102  Biso   1.000  He
  Ar6      1.0000 0.13729  0.64001  0.87490  Biso   1.000  Ar
  Ne7      1.0000 0.86263  0.63937  0.62502  Biso   1.000  Ne
  He24     1.0000 0.87289  0.62688  0.65179  Biso   1.000  He
  He25     1.0000 0.86165  0.44833  0.70501  Biso   1.000  He
  He26     1.0000 0.84095  0.66709  0.60187  Biso   1.000  He
  He27     1.0000 0.87265  0.84162  0.49082  Biso   1.000  He
  Ar7      1.0000 0.86265  0.64000  0.62506  Biso   1.000  Ar
  Ne8      1.0000 0.86264  0.36064  0.12503  Biso   1.000  Ne
  He28     1.0000 0.88671  0.38440  0.15090  Biso   1.000  He
  He29     1.0000 0.85046  0.71387  0.22826  Biso   1.000  He
  He30     1.0000 0.84338  0.33795  0.10558  Biso   1.000  He
  Ar8      1.0000 0.86266  0.36002  0.12507  Biso   1.000  Ar
