data_image0
_cell_length_a       35.557
_cell_length_b       12.339
_cell_length_c       31.543
_cell_angle_alpha    90
_cell_angle_beta     115.27
_cell_angle_gamma    90

_symmetry_space_group_name_H-M    "P 1"
_symmetry_int_tables_number       1

loop_
  _symmetry_equiv_pos_as_xyz
  'x, y, z'

loop_
  _atom_site_label
  _atom_site_occupancy
  _atom_site_fract_x
  _atom_site_fract_y
  _atom_site_fract_z
  _atom_site_thermal_displace_type
  _atom_site_B_iso_or_equiv
  _atom_site_type_symbol
  C1       1.0000 0.52364  0.33998  0.44485  Biso   1.000  C
  O1       1.0000 0.50454  0.41746  0.41038  Biso   1.000  O
  H1       1.0000 0.50678  0.33131  0.46308  Biso   1.000  H
  O2       1.0000 0.56452  0.37207  0.47647  Biso   1.000  O
  C2       1.0000 0.52660  0.22927  0.42451  Biso   1.000  C
  C3       1.0000 0.52463  0.43480  0.37869  Biso   1.000  C
  C4       1.0000 0.56838  0.41592  0.52008  Biso   1.000  C
  C5       1.0000 0.54463  0.23819  0.38858  Biso   1.000  C
  H2       1.0000 0.49789  0.19856  0.40849  Biso   1.000  H
  O3       1.0000 0.55066  0.15901  0.46185  Biso   1.000  O
  C6       1.0000 0.50282  0.53051  0.34770  Biso   1.000  C
  C7       1.0000 0.52286  0.32782  0.35345  Biso   1.000  C
  H3       1.0000 0.55440  0.45425  0.39790  Biso   1.000  H
  C8       1.0000 0.59492  0.33982  0.55868  Biso   1.000  C
  H4       1.0000 0.54020  0.42102  0.51969  Biso   1.000  H
  C9       1.0000 0.58766  0.52946  0.52716  Biso   1.000  C
  H5       1.0000 0.57459  0.25853  0.40569  Biso   1.000  H
  O4       1.0000 0.54260  0.13721  0.36621  Biso   1.000  O
  H6       1.0000 0.54068  0.09612  0.45599  Biso   1.000  H
  S1       1.0000 0.44656  0.51949  0.32509  Biso   1.000  S
  H7       1.0000 0.51070  0.53432  0.32120  Biso   1.000  H
  H8       1.0000 0.51220  0.59827  0.36600  Biso   1.000  H
  O5       1.0000 0.54595  0.33739  0.32575  Biso   1.000  O
  H9       1.0000 0.49339  0.30732  0.33319  Biso   1.000  H
  C10      1.0000 0.60487  0.38569  0.60692  Biso   1.000  C
  H10      1.0000 0.62158  0.32653  0.55598  Biso   1.000  H
  O6       1.0000 0.57371  0.23851  0.55384  Biso   1.000  O
  O7       1.0000 0.59465  0.56747  0.57340  Biso   1.000  O
  H11      1.0000 0.61469  0.52646  0.52450  Biso   1.000  H
  C11      1.0000 0.55853  0.60945  0.49168  Biso   1.000  C
  H12      1.0000 0.51768  0.11678  0.35278  Biso   1.000  H
  C12      1.0000 0.42879  0.53797  0.26181  Biso   1.000  C
  C13      1.0000 0.52428  0.34136  0.27678  Biso   1.000  C
  C14      1.0000 0.62239  0.50020  0.61004  Biso   1.000  C
  H13      1.0000 0.57847  0.39039  0.61088  Biso   1.000  H
  O8       1.0000 0.63361  0.32077  0.64383  Biso   1.000  O
  H14      1.0000 0.56849  0.21161  0.52741  Biso   1.000  H
  H15      1.0000 0.54387  0.57290  0.46108  Biso   1.000  H
  H16      1.0000 0.53740  0.63441  0.50220  Biso   1.000  H
  O9       1.0000 0.57998  0.69827  0.48639  Biso   1.000  O
  C15      1.0000 0.39254  0.61755  0.24267  Biso   1.000  C
  H17      1.0000 0.45198  0.56569  0.25539  Biso   1.000  H
  H18      1.0000 0.41998  0.46730  0.24568  Biso   1.000  H
  O10      1.0000 0.52845  0.44282  0.25943  Biso   1.000  O
  H19      1.0000 0.49409  0.32750  0.26798  Biso   1.000  H
  C16      1.0000 0.54149  0.24913  0.25620  Biso   1.000  C
  H20      1.0000 0.62707  0.53270  0.64089  Biso   1.000  H
  O11      1.0000 0.66090  0.48878  0.60776  Biso   1.000  O
  H21      1.0000 0.65799  0.33730  0.64849  Biso   1.000  H
  H22      1.0000 0.57878  0.74925  0.50350  Biso   1.000  H
  O12      1.0000 0.36480  0.58700  0.26381  Biso   1.000  O
  C17      1.0000 0.40473  0.73645  0.25273  Biso   1.000  C
  H23      1.0000 0.37750  0.60742  0.20800  Biso   1.000  H
  C18      1.0000 0.57130  0.47419  0.27121  Biso   1.000  C
  H24      1.0000 0.52530  0.24913  0.22139  Biso   1.000  H
  O13      1.0000 0.53626  0.14872  0.27327  Biso   1.000  O
  C19      1.0000 0.58648  0.27531  0.26770  Biso   1.000  C
  C20      1.0000 0.69522  0.55442  0.63847  Biso   1.000  C
  C21      1.0000 0.32849  0.64940  0.24954  Biso   1.000  C
  C22      1.0000 0.36710  0.80987  0.23951  Biso   1.000  C
  O14      1.0000 0.42415  0.77292  0.22374  Biso   1.000  O
  H25      1.0000 0.42408  0.74641  0.28660  Biso   1.000  H
  C23      1.0000 0.57149  0.58676  0.25350  Biso   1.000  C
  C24      1.0000 0.59039  0.38779  0.25098  Biso   1.000  C
  H26      1.0000 0.58718  0.47435  0.30609  Biso   1.000  H
  H27      1.0000 0.51079  0.13307  0.26181  Biso   1.000  H
  H28      1.0000 0.60320  0.27158  0.30241  Biso   1.000  H
  O15      1.0000 0.60184  0.19548  0.24579  Biso   1.000  O
  C25      1.0000 0.73205  0.47751  0.66108  Biso   1.000  C
  H29      1.0000 0.68837  0.58765  0.66329  Biso   1.000  H
  C26      1.0000 0.70343  0.64397  0.60979  Biso   1.000  C
  O16      1.0000 0.30318  0.63700  0.20098  Biso   1.000  O
  H30      1.0000 0.31241  0.62379  0.26700  Biso   1.000  H
  C27      1.0000 0.33837  0.76870  0.26041  Biso   1.000  C
  H31      1.0000 0.35141  0.81020  0.20460  Biso   1.000  H
  O17      1.0000 0.37977  0.91701  0.25462  Biso   1.000  O
  C28      1.0000 0.46768  0.79050  0.24407  Biso   1.000  C
  S2       1.0000 0.54939  0.60280  0.18987  Biso   1.000  S
  H32      1.0000 0.60058  0.61302  0.26689  Biso   1.000  H
  H33      1.0000 0.55580  0.63425  0.26570  Biso   1.000  H
  H34      1.0000 0.57669  0.39047  0.21599  Biso   1.000  H
  O18      1.0000 0.63439  0.40951  0.26794  Biso   1.000  O
  H35      1.0000 0.62579  0.21298  0.24919  Biso   1.000  H
  C29      1.0000 0.77217  0.54121  0.68727  Biso   1.000  C
  H36      1.0000 0.73478  0.43318  0.63598  Biso   1.000  H
  O19      1.0000 0.72258  0.40765  0.69088  Biso   1.000  O
  O20      1.0000 0.74148  0.69925  0.63941  Biso   1.000  O
  H37      1.0000 0.70617  0.61148  0.58220  Biso   1.000  H
  C30      1.0000 0.67058  0.73158  0.59345  Biso   1.000  C
  C31      1.0000 0.26876  0.56269  0.18791  Biso   1.000  C
  H38      1.0000 0.35238  0.77835  0.29518  Biso   1.000  H
  O21      1.0000 0.30098  0.83127  0.24204  Biso   1.000  O
  H39      1.0000 0.40039  0.93298  0.24950  Biso   1.000  H
  O22      1.0000 0.48819  0.70630  0.23145  Biso   1.000  O
  H40      1.0000 0.47838  0.79310  0.27899  Biso   1.000  H
  C32      1.0000 0.47573  0.89788  0.22654  Biso   1.000  C
  C33      1.0000 0.49390  0.59438  0.17220  Biso   1.000  C
  C34      1.0000 0.64938  0.44477  0.23513  Biso   1.000  C
  C35      1.0000 0.77720  0.62979  0.65701  Biso   1.000  C
  H41      1.0000 0.77076  0.57582  0.71517  Biso   1.000  H
  O23      1.0000 0.80791  0.47119  0.70350  Biso   1.000  O
  H42      1.0000 0.70067  0.42888  0.69228  Biso   1.000  H
  H43      1.0000 0.67929  0.79099  0.57848  Biso   1.000  H
  H44      1.0000 0.64399  0.70152  0.57000  Biso   1.000  H
  O24      1.0000 0.66505  0.77219  0.63254  Biso   1.000  O
  C36      1.0000 0.27239  0.47508  0.15569  Biso   1.000  C
  C37      1.0000 0.22951  0.62898  0.16277  Biso   1.000  C
  H45      1.0000 0.26858  0.52857  0.21648  Biso   1.000  H
  H46      1.0000 0.28889  0.82519  0.25971  Biso   1.000  H
  C38      1.0000 0.47307  0.69382  0.18128  Biso   1.000  C
  H47      1.0000 0.50607  0.91507  0.24288  Biso   1.000  H
  O25      1.0000 0.45263  0.97869  0.23832  Biso   1.000  O
  C39      1.0000 0.46268  0.89416  0.17389  Biso   1.000  C
  H48      1.0000 0.48018  0.57849  0.13820  Biso   1.000  H
  H49      1.0000 0.48850  0.53197  0.18861  Biso   1.000  H
  O26      1.0000 0.66044  0.55547  0.24049  Biso   1.000  O
  H50      1.0000 0.62740  0.43237  0.20270  Biso   1.000  H
  C40      1.0000 0.68705  0.37507  0.24274  Biso   1.000  C
  H51      1.0000 0.80258  0.67356  0.67598  Biso   1.000  H
  O27      1.0000 0.78174  0.58246  0.61866  Biso   1.000  O
  H52      1.0000 0.81097  0.44639  0.68040  Biso   1.000  H
  H53      1.0000 0.65968  0.83864  0.62890  Biso   1.000  H
  C41      1.0000 0.30949  0.39647  0.18391  Biso   1.000  C
  O28      1.0000 0.23550  0.40911  0.13914  Biso   1.000  O
  H54      1.0000 0.27610  0.50839  0.12880  Biso   1.000  H
  C42      1.0000 0.19128  0.55677  0.14268  Biso   1.000  C
  H55      1.0000 0.23170  0.67056  0.13669  Biso   1.000  H
  O29      1.0000 0.22467  0.70322  0.19485  Biso   1.000  O
  C43      1.0000 0.48160  0.79642  0.16133  Biso   1.000  C
  H56      1.0000 0.44239  0.68150  0.16740  Biso   1.000  H
  H57      1.0000 0.46690  0.00113  0.26570  Biso   1.000  H
  H58      1.0000 0.43170  0.88929  0.15730  Biso   1.000  H
  O30      1.0000 0.47614  0.99157  0.15969  Biso   1.000  O
  C44      1.0000 0.69070  0.58279  0.28779  Biso   1.000  C
  H59      1.0000 0.69621  0.39209  0.21760  Biso   1.000  H
  O31      1.0000 0.67530  0.26412  0.23895  Biso   1.000  O
  C45      1.0000 0.72287  0.39930  0.29024  Biso   1.000  C
  C46      1.0000 0.81686  0.61042  0.61018  Biso   1.000  C
  H60      1.0000 0.33298  0.43942  0.20659  Biso   1.000  H
  H61      1.0000 0.30060  0.34508  0.20190  Biso   1.000  H
  O32      1.0000 0.32280  0.33998  0.15639  Biso   1.000  O
  C47      1.0000 0.19950  0.46511  0.11418  Biso   1.000  C
  H62      1.0000 0.18651  0.52419  0.16901  Biso   1.000  H
  O33      1.0000 0.15536  0.61966  0.11355  Biso   1.000  O
  H63      1.0000 0.24538  0.74471  0.20579  Biso   1.000  H
  H64      1.0000 0.51229  0.80687  0.17360  Biso   1.000  H
  O34      1.0000 0.46354  0.79310  0.11103  Biso   1.000  O
  H65      1.0000 0.47138  0.98679  0.13129  Biso   1.000  H
  C48      1.0000 0.73123  0.52087  0.29708  Biso   1.000  C
  H66      1.0000 0.68000  0.55969  0.31100  Biso   1.000  H
  C49      1.0000 0.69515  0.70492  0.28884  Biso   1.000  C
  H67      1.0000 0.67720  0.24200  0.26500  Biso   1.000  H
  H68      1.0000 0.71547  0.37159  0.31548  Biso   1.000  H
  O35      1.0000 0.75838  0.34363  0.29266  Biso   1.000  O
  C50      1.0000 0.82743  0.50750  0.59174  Biso   1.000  C
  H69      1.0000 0.84069  0.63198  0.64019  Biso   1.000  H
  C51      1.0000 0.80701  0.70168  0.57428  Biso   1.000  C
  H70      1.0000 0.34851  0.32912  0.17080  Biso   1.000  H
  H71      1.0000 0.17560  0.41316  0.10360  Biso   1.000  H
  O36      1.0000 0.20059  0.51528  0.07355  Biso   1.000  O
  H72      1.0000 0.15382  0.62307  0.08631  Biso   1.000  H
  C52      1.0000 0.49063  0.78669  0.08915  Biso   1.000  C
  O37      1.0000 0.76112  0.53051  0.34528  Biso   1.000  O
  H73      1.0000 0.74339  0.54786  0.27580  Biso   1.000  H
  H74      1.0000 0.66708  0.73742  0.27310  Biso   1.000  H
  H75      1.0000 0.70740  0.72907  0.32200  Biso   1.000  H
  O38      1.0000 0.72014  0.74577  0.26707  Biso   1.000  O
  H76      1.0000 0.76748  0.30343  0.31639  Biso   1.000  H
  C53      1.0000 0.86172  0.52841  0.57543  Biso   1.000  C
  H77      1.0000 0.80197  0.48221  0.56418  Biso   1.000  H
  O39      1.0000 0.83915  0.42613  0.62753  Biso   1.000  O
  O40      1.0000 0.84128  0.71537  0.56169  Biso   1.000  O
  H78      1.0000 0.78179  0.68085  0.54550  Biso   1.000  H
  C54      1.0000 0.79943  0.81238  0.59058  Biso   1.000  C
  C55      1.0000 0.17128  0.48189  0.02801  Biso   1.000  C
  O41      1.0000 0.49239  0.68312  0.07232  Biso   1.000  O
  H79      1.0000 0.51921  0.80687  0.11271  Biso   1.000  H
  C56      1.0000 0.47597  0.87260  0.04894  Biso   1.000  C
  C57      1.0000 0.78974  0.61755  0.35780  Biso   1.000  C
  H80      1.0000 0.70619  0.74577  0.23780  Biso   1.000  H
  C58      1.0000 0.85085  0.62282  0.54227  Biso   1.000  C
  H81      1.0000 0.88788  0.54640  0.60359  Biso   1.000  H
  O42      1.0000 0.86940  0.43496  0.55352  Biso   1.000  O
  H82      1.0000 0.82318  0.37248  0.61757  Biso   1.000  H
  H83      1.0000 0.77958  0.80436  0.60478  Biso   1.000  H
  H84      1.0000 0.82598  0.84002  0.61508  Biso   1.000  H
  O43      1.0000 0.78335  0.88962  0.55338  Biso   1.000  O
  H85      1.0000 0.14529  0.45547  0.02948  Biso   1.000  H
  C59      1.0000 0.18939  0.39201  0.00750  Biso   1.000  C
  C60      1.0000 0.16210  0.58271  0.99797  Biso   1.000  C
  C61      1.0000 0.45304  0.64527  0.03688  Biso   1.000  C
  H86      1.0000 0.49861  0.88265  0.03839  Biso   1.000  H
  O44      1.0000 0.46980  0.97155  0.06742  Biso   1.000  O
  C62      1.0000 0.43694  0.83410  0.00736  Biso   1.000  C
  O45      1.0000 0.77822  0.70160  0.38041  Biso   1.000  O
  H87      1.0000 0.79059  0.64730  0.32870  Biso   1.000  H
  C63      1.0000 0.83283  0.57760  0.39026  Biso   1.000  C
  O46      1.0000 0.81689  0.59121  0.49989  Biso   1.000  O
  H88      1.0000 0.87529  0.63935  0.53550  Biso   1.000  H
  H89      1.0000 0.88789  0.39679  0.57389  Biso   1.000  H
  H90      1.0000 0.75727  0.88848  0.54150  Biso   1.000  H
  H91      1.0000 0.21620  0.41843  0.00820  Biso   1.000  H
  C64      1.0000 0.19701  0.28738  0.03320  Biso   1.000  C
  O47      1.0000 0.16048  0.37483  0.95961  Biso   1.000  O
  H92      1.0000 0.18911  0.61358  0.00091  Biso   1.000  H
  O48      1.0000 0.14247  0.66107  0.01609  Biso   1.000  O
  C65      1.0000 0.13525  0.55750  0.94668  Biso   1.000  C
  H93      1.0000 0.43119  0.65297  0.04869  Biso   1.000  H
  C66      1.0000 0.45841  0.52751  0.02871  Biso   1.000  C
  C67      1.0000 0.44228  0.71959  0.99401  Biso   1.000  C
  H94      1.0000 0.46630  0.02148  0.04799  Biso   1.000  H
  H95      1.0000 0.41289  0.83645  0.01599  Biso   1.000  H
  O49      1.0000 0.42937  0.90737  0.96985  Biso   1.000  O
  C68      1.0000 0.77512  0.66610  0.42227  Biso   1.000  C
  H96      1.0000 0.85259  0.63992  0.39759  Biso   1.000  H
  O50      1.0000 0.84670  0.49339  0.36888  Biso   1.000  O
  C69      1.0000 0.83297  0.53708  0.43601  Biso   1.000  C
  C70      1.0000 0.81849  0.62979  0.45747  Biso   1.000  C
  H97      1.0000 0.21270  0.30132  0.06721  Biso   1.000  H
  H98      1.0000 0.17001  0.25456  0.02801  Biso   1.000  H
  O51      1.0000 0.21969  0.21306  0.01869  Biso   1.000  O
  C71      1.0000 0.15420  0.46519  0.93048  Biso   1.000  C
  H99      1.0000 0.11751  0.64365  0.00789  Biso   1.000  H
  H100     1.0000 0.10706  0.53457  0.94317  Biso   1.000  H
  O52      1.0000 0.13051  0.65094  0.91797  Biso   1.000  O
  H101     1.0000 0.48549  0.51665  0.02731  Biso   1.000  H
  O53      1.0000 0.45700  0.46446  0.06472  Biso   1.000  O
  H102     1.0000 0.43606  0.50450  0.99828  Biso   1.000  H
  O54      1.0000 0.40394  0.68928  0.95604  Biso   1.000  O
  H103     1.0000 0.46525  0.71708  0.98366  Biso   1.000  H
  H104     1.0000 0.41114  0.88159  0.94496  Biso   1.000  H
  H105     1.0000 0.75618  0.60191  0.41420  Biso   1.000  H
  C72      1.0000 0.75515  0.75752  0.43748  Biso   1.000  C
  H106     1.0000 0.83449  0.43521  0.36909  Biso   1.000  H
  H107     1.0000 0.81318  0.47500  0.42921  Biso   1.000  H
  O55      1.0000 0.87368  0.50158  0.46658  Biso   1.000  O
  H108     1.0000 0.83840  0.69179  0.46490  Biso   1.000  H
  H109     1.0000 0.24399  0.23632  0.02678  Biso   1.000  H
  H110     1.0000 0.13416  0.44436  0.89798  Biso   1.000  H
  O56      1.0000 0.19106  0.50182  0.92890  Biso   1.000  O
  H111     1.0000 0.11245  0.69228  0.91975  Biso   1.000  H
  H112     1.0000 0.46899  0.40506  0.06608  Biso   1.000  H
  C73      1.0000 0.40578  0.64422  0.91506  Biso   1.000  C
  H113     1.0000 0.76017  0.74666  0.47058  Biso   1.000  H
  H114     1.0000 0.76790  0.82738  0.43520  Biso   1.000  H
  O57      1.0000 0.71181  0.76076  0.40881  Biso   1.000  O
  H115     1.0000 0.87529  0.49339  0.49368  Biso   1.000  H
  C74      1.0000 0.19822  0.47135  0.88897  Biso   1.000  C
  C75      1.0000 0.37439  0.70330  0.87302  Biso   1.000  C
  O58      1.0000 0.39770  0.53189  0.91260  Biso   1.000  O
  H116     1.0000 0.43416  0.65629  0.91677  Biso   1.000  H
  H117     1.0000 0.70187  0.69819  0.40649  Biso   1.000  H
  C76      1.0000 0.20061  0.57549  0.86447  Biso   1.000  C
  H118     1.0000 0.17427  0.42710  0.86717  Biso   1.000  H
  C77      1.0000 0.23821  0.40368  0.90531  Biso   1.000  C
  C78      1.0000 0.33079  0.67866  0.86885  Biso   1.000  C
  H119     1.0000 0.37664  0.67777  0.84406  Biso   1.000  H
  O59      1.0000 0.38375  0.81571  0.87947  Biso   1.000  O
  C79      1.0000 0.35795  0.50409  0.91211  Biso   1.000  C
  C80      1.0000 0.21268  0.54510  0.82534  Biso   1.000  C
  H120     1.0000 0.22187  0.62542  0.88718  Biso   1.000  H
  O60      1.0000 0.16066  0.62639  0.84491  Biso   1.000  O
  O61      1.0000 0.24924  0.38577  0.86685  Biso   1.000  O
  H121     1.0000 0.26135  0.44290  0.93108  Biso   1.000  H
  C81      1.0000 0.23420  0.29208  0.92154  Biso   1.000  C
  C82      1.0000 0.32305  0.56058  0.87032  Biso   1.000  C
  H122     1.0000 0.32776  0.71416  0.89567  Biso   1.000  H
  O62      1.0000 0.30121  0.72615  0.82615  Biso   1.000  O
  H123     1.0000 0.37715  0.84529  0.85328  Biso   1.000  H
  H124     1.0000 0.35737  0.53035  0.94177  Biso   1.000  H
  C83      1.0000 0.35554  0.38277  0.91095  Biso   1.000  C
  C84      1.0000 0.25285  0.48326  0.84385  Biso   1.000  C
  H125     1.0000 0.19027  0.49842  0.80228  Biso   1.000  H
  O63      1.0000 0.21705  0.63968  0.80161  Biso   1.000  O
  H126     1.0000 0.16336  0.69268  0.85167  Biso   1.000  H
  H127     1.0000 0.26064  0.25253  0.93017  Biso   1.000  H
  H128     1.0000 0.22905  0.29751  0.94997  Biso   1.000  H
  O64      1.0000 0.20142  0.23268  0.88659  Biso   1.000  O
  O65      1.0000 0.28504  0.54996  0.87569  Biso   1.000  O
  H129     1.0000 0.31987  0.52565  0.84038  Biso   1.000  H
  H130     1.0000 0.27785  0.72948  0.82678  Biso   1.000  H
  H131     1.0000 0.37945  0.35246  0.93837  Biso   1.000  H
  H132     1.0000 0.32967  0.35919  0.91267  Biso   1.000  H
  O66      1.0000 0.35620  0.34330  0.86903  Biso   1.000  O
  H133     1.0000 0.25956  0.46357  0.81717  Biso   1.000  H
  H134     1.0000 0.19947  0.63798  0.77346  Biso   1.000  H
  H135     1.0000 0.20816  0.21582  0.86496  Biso   1.000  H
  H136     1.0000 0.35255  0.27587  0.86748  Biso   1.000  H
  C85      1.0000 0.47633  0.33998  0.55514  Biso   1.000  C
  O67      1.0000 0.43545  0.37207  0.52351  Biso   1.000  O
  O68      1.0000 0.49543  0.41746  0.58960  Biso   1.000  O
  H137     1.0000 0.49320  0.33131  0.53691  Biso   1.000  H
  C86      1.0000 0.47338  0.22927  0.57547  Biso   1.000  C
  C87      1.0000 0.43159  0.41592  0.47990  Biso   1.000  C
  C88      1.0000 0.47534  0.43480  0.62129  Biso   1.000  C
  H138     1.0000 0.50208  0.19856  0.59149  Biso   1.000  H
  O69      1.0000 0.44931  0.15901  0.53813  Biso   1.000  O
  C89      1.0000 0.45534  0.23819  0.61140  Biso   1.000  C
  C90      1.0000 0.41231  0.52946  0.47282  Biso   1.000  C
  C91      1.0000 0.40506  0.33982  0.44134  Biso   1.000  C
  H139     1.0000 0.45977  0.42102  0.48029  Biso   1.000  H
  C92      1.0000 0.47711  0.32782  0.64653  Biso   1.000  C
  H140     1.0000 0.44557  0.45425  0.60208  Biso   1.000  H
  C93      1.0000 0.49715  0.53051  0.65228  Biso   1.000  C
  H141     1.0000 0.45929  0.09612  0.54399  Biso   1.000  H
  H142     1.0000 0.42538  0.25853  0.59430  Biso   1.000  H
  O70      1.0000 0.45739  0.13721  0.63381  Biso   1.000  O
  O71      1.0000 0.40529  0.56747  0.42658  Biso   1.000  O
  H143     1.0000 0.38528  0.52646  0.47549  Biso   1.000  H
  C94      1.0000 0.44141  0.60945  0.50830  Biso   1.000  C
  C95      1.0000 0.39510  0.38569  0.39307  Biso   1.000  C
  H144     1.0000 0.37840  0.32653  0.44400  Biso   1.000  H
  O72      1.0000 0.42626  0.23851  0.44614  Biso   1.000  O
  O73      1.0000 0.45402  0.33739  0.67423  Biso   1.000  O
  H145     1.0000 0.50658  0.30732  0.66679  Biso   1.000  H
  S3       1.0000 0.55341  0.51949  0.67489  Biso   1.000  S
  H146     1.0000 0.48927  0.53432  0.67878  Biso   1.000  H
  H147     1.0000 0.48777  0.59827  0.63398  Biso   1.000  H
  H148     1.0000 0.48229  0.11678  0.64720  Biso   1.000  H
  C96      1.0000 0.37758  0.50020  0.38995  Biso   1.000  C
  H149     1.0000 0.45610  0.57290  0.53890  Biso   1.000  H
  H150     1.0000 0.46257  0.63441  0.49778  Biso   1.000  H
  O74      1.0000 0.41999  0.69827  0.51359  Biso   1.000  O
  H151     1.0000 0.42150  0.39039  0.38910  Biso   1.000  H
  O75      1.0000 0.36636  0.32077  0.35615  Biso   1.000  O
  H152     1.0000 0.43149  0.21161  0.47258  Biso   1.000  H
  C97      1.0000 0.47569  0.34136  0.72320  Biso   1.000  C
  C98      1.0000 0.57116  0.53797  0.73817  Biso   1.000  C
  O76      1.0000 0.33907  0.48878  0.39222  Biso   1.000  O
  H153     1.0000 0.37287  0.53270  0.35909  Biso   1.000  H
  H154     1.0000 0.42119  0.74925  0.49648  Biso   1.000  H
  H155     1.0000 0.34198  0.33730  0.35149  Biso   1.000  H
  O77      1.0000 0.47152  0.44282  0.74056  Biso   1.000  O
  H156     1.0000 0.50588  0.32750  0.73200  Biso   1.000  H
  C99      1.0000 0.45848  0.24913  0.74378  Biso   1.000  C
  C100     1.0000 0.60743  0.61755  0.75731  Biso   1.000  C
  H157     1.0000 0.54797  0.56569  0.74459  Biso   1.000  H
  H158     1.0000 0.57996  0.46730  0.75430  Biso   1.000  H
  C101     1.0000 0.30472  0.55442  0.36151  Biso   1.000  C
  C102     1.0000 0.42864  0.47419  0.72878  Biso   1.000  C
  H159     1.0000 0.47467  0.24913  0.77859  Biso   1.000  H
  O78      1.0000 0.46371  0.14872  0.72671  Biso   1.000  O
  C103     1.0000 0.41349  0.27531  0.73228  Biso   1.000  C
  O79      1.0000 0.63517  0.58700  0.73617  Biso   1.000  O
  C104     1.0000 0.59524  0.73645  0.74725  Biso   1.000  C
  H160     1.0000 0.62247  0.60742  0.79198  Biso   1.000  H
  C105     1.0000 0.26789  0.47751  0.33890  Biso   1.000  C
  H161     1.0000 0.31157  0.58765  0.33669  Biso   1.000  H
  C106     1.0000 0.29654  0.64397  0.39019  Biso   1.000  C
  C107     1.0000 0.40958  0.38779  0.74900  Biso   1.000  C
  H162     1.0000 0.41279  0.47435  0.69389  Biso   1.000  H
  C108     1.0000 0.42848  0.58676  0.74648  Biso   1.000  C
  H163     1.0000 0.48918  0.13307  0.73817  Biso   1.000  H
  H164     1.0000 0.39677  0.27158  0.69758  Biso   1.000  H
  O80      1.0000 0.39813  0.19548  0.75419  Biso   1.000  O
  C109     1.0000 0.67148  0.64940  0.75044  Biso   1.000  C
  O81      1.0000 0.57579  0.77292  0.77624  Biso   1.000  O
  C110     1.0000 0.63284  0.80987  0.76047  Biso   1.000  C
  H165     1.0000 0.57586  0.74641  0.71339  Biso   1.000  H
  O82      1.0000 0.27739  0.40765  0.30910  Biso   1.000  O
  C111     1.0000 0.22777  0.54121  0.31271  Biso   1.000  C
  H166     1.0000 0.26519  0.43318  0.36400  Biso   1.000  H
  O83      1.0000 0.25849  0.69925  0.36057  Biso   1.000  O
  H167     1.0000 0.29377  0.61148  0.41778  Biso   1.000  H
  C112     1.0000 0.32939  0.73158  0.40653  Biso   1.000  C
  H168     1.0000 0.42328  0.39047  0.78399  Biso   1.000  H
  O84      1.0000 0.36558  0.40951  0.73204  Biso   1.000  O
  S4       1.0000 0.45058  0.60280  0.81011  Biso   1.000  S
  H169     1.0000 0.39936  0.61302  0.73309  Biso   1.000  H
  H170     1.0000 0.44417  0.63425  0.73428  Biso   1.000  H
  H171     1.0000 0.37418  0.21298  0.75079  Biso   1.000  H
  H172     1.0000 0.68757  0.62379  0.73298  Biso   1.000  H
  O85      1.0000 0.69679  0.63700  0.79900  Biso   1.000  O
  C113     1.0000 0.66160  0.76870  0.73957  Biso   1.000  C
  C114     1.0000 0.53229  0.79050  0.75591  Biso   1.000  C
  H173     1.0000 0.64857  0.81020  0.79539  Biso   1.000  H
  O86      1.0000 0.62020  0.91701  0.74536  Biso   1.000  O
  H174     1.0000 0.29930  0.42888  0.30770  Biso   1.000  H
  C115     1.0000 0.22277  0.62979  0.34297  Biso   1.000  C
  H175     1.0000 0.22918  0.57582  0.28481  Biso   1.000  H
  O87      1.0000 0.19204  0.47119  0.29648  Biso   1.000  O
  H176     1.0000 0.32068  0.79099  0.42150  Biso   1.000  H
  H177     1.0000 0.35599  0.70152  0.42998  Biso   1.000  H
  O88      1.0000 0.33489  0.77219  0.36744  Biso   1.000  O
  C116     1.0000 0.35056  0.44477  0.76485  Biso   1.000  C
  C117     1.0000 0.50607  0.59438  0.82778  Biso   1.000  C
  C118     1.0000 0.73118  0.56269  0.81207  Biso   1.000  C
  H178     1.0000 0.64759  0.77835  0.70480  Biso   1.000  H
  O89      1.0000 0.69899  0.83127  0.75794  Biso   1.000  O
  O90      1.0000 0.51178  0.70630  0.76853  Biso   1.000  O
  H179     1.0000 0.52157  0.79310  0.72099  Biso   1.000  H
  C119     1.0000 0.52424  0.89788  0.77344  Biso   1.000  C
  H180     1.0000 0.59958  0.93298  0.75048  Biso   1.000  H
  H181     1.0000 0.19739  0.67356  0.32400  Biso   1.000  H
  O91      1.0000 0.21823  0.58246  0.38132  Biso   1.000  O
  H182     1.0000 0.18897  0.44639  0.31958  Biso   1.000  H
  H183     1.0000 0.34029  0.83864  0.37108  Biso   1.000  H
  C120     1.0000 0.31292  0.37507  0.75724  Biso   1.000  C
  O92      1.0000 0.33953  0.55547  0.75949  Biso   1.000  O
  H184     1.0000 0.37257  0.43237  0.79728  Biso   1.000  H
  C121     1.0000 0.52687  0.69382  0.81870  Biso   1.000  C
  H185     1.0000 0.51976  0.57849  0.86178  Biso   1.000  H
  H186     1.0000 0.51147  0.53197  0.81137  Biso   1.000  H
  C122     1.0000 0.77043  0.62898  0.83721  Biso   1.000  C
  H187     1.0000 0.73139  0.52857  0.78350  Biso   1.000  H
  C123     1.0000 0.72758  0.47508  0.84429  Biso   1.000  C
  H188     1.0000 0.71108  0.82519  0.74028  Biso   1.000  H
  H189     1.0000 0.49387  0.91507  0.75710  Biso   1.000  H
  O93      1.0000 0.54734  0.97869  0.76166  Biso   1.000  O
  C124     1.0000 0.53729  0.89416  0.82610  Biso   1.000  C
  C125     1.0000 0.18311  0.61042  0.38980  Biso   1.000  C
  C126     1.0000 0.27711  0.39930  0.70978  Biso   1.000  C
  H190     1.0000 0.30376  0.39209  0.78238  Biso   1.000  H
  O94      1.0000 0.32467  0.26412  0.76103  Biso   1.000  O
  C127     1.0000 0.30927  0.58279  0.71219  Biso   1.000  C
  C128     1.0000 0.51837  0.79642  0.83865  Biso   1.000  C
  H191     1.0000 0.55758  0.68150  0.83258  Biso   1.000  H
  C129     1.0000 0.80866  0.55677  0.85730  Biso   1.000  C
  H192     1.0000 0.76827  0.67056  0.86329  Biso   1.000  H
  O95      1.0000 0.77527  0.70322  0.80513  Biso   1.000  O
  O96      1.0000 0.76447  0.40911  0.86084  Biso   1.000  O
  H193     1.0000 0.72387  0.50839  0.87118  Biso   1.000  H
  C130     1.0000 0.69046  0.39647  0.81607  Biso   1.000  C
  H194     1.0000 0.53307  0.00113  0.73428  Biso   1.000  H
  H195     1.0000 0.56827  0.88929  0.84268  Biso   1.000  H
  O97      1.0000 0.52383  0.99157  0.84029  Biso   1.000  O
  C131     1.0000 0.17251  0.50750  0.40825  Biso   1.000  C
  H196     1.0000 0.15929  0.63198  0.35980  Biso   1.000  H
  C132     1.0000 0.19298  0.70168  0.42574  Biso   1.000  C
  C133     1.0000 0.26874  0.52087  0.70290  Biso   1.000  C
  H197     1.0000 0.28447  0.37159  0.68450  Biso   1.000  H
  O98      1.0000 0.24159  0.34363  0.70732  Biso   1.000  O
  H198     1.0000 0.32277  0.24200  0.73498  Biso   1.000  H
  H199     1.0000 0.31997  0.55969  0.68899  Biso   1.000  H
  C134     1.0000 0.30480  0.70492  0.71114  Biso   1.000  C
  H200     1.0000 0.48768  0.80687  0.82638  Biso   1.000  H
  O99      1.0000 0.53643  0.79310  0.88895  Biso   1.000  O
  C135     1.0000 0.80047  0.46511  0.88580  Biso   1.000  C
  H201     1.0000 0.81346  0.52419  0.83097  Biso   1.000  H
  O100     1.0000 0.84461  0.61966  0.88643  Biso   1.000  O
  H202     1.0000 0.75456  0.74471  0.79419  Biso   1.000  H
  H203     1.0000 0.66696  0.43942  0.79339  Biso   1.000  H
  H204     1.0000 0.69937  0.34508  0.79809  Biso   1.000  H
  O101     1.0000 0.67717  0.33998  0.84359  Biso   1.000  O
  H205     1.0000 0.52856  0.98679  0.86869  Biso   1.000  H
  C136     1.0000 0.13825  0.52841  0.42455  Biso   1.000  C
  H206     1.0000 0.19800  0.48221  0.43580  Biso   1.000  H
  O102     1.0000 0.16082  0.42613  0.37245  Biso   1.000  O
  O103     1.0000 0.15867  0.71537  0.43829  Biso   1.000  O
  H207     1.0000 0.21818  0.68085  0.45449  Biso   1.000  H
  C137     1.0000 0.20054  0.81238  0.40940  Biso   1.000  C
  O104     1.0000 0.23885  0.53051  0.65470  Biso   1.000  O
  H208     1.0000 0.25658  0.54786  0.72418  Biso   1.000  H
  H209     1.0000 0.23249  0.30343  0.68359  Biso   1.000  H
  H210     1.0000 0.33286  0.73742  0.72688  Biso   1.000  H
  H211     1.0000 0.29258  0.72907  0.67798  Biso   1.000  H
  O105     1.0000 0.27983  0.74577  0.73291  Biso   1.000  O
  C138     1.0000 0.50931  0.78669  0.91083  Biso   1.000  C
  H212     1.0000 0.82437  0.41316  0.89639  Biso   1.000  H
  O106     1.0000 0.79935  0.51528  0.92643  Biso   1.000  O
  H213     1.0000 0.84616  0.62307  0.91367  Biso   1.000  H
  H214     1.0000 0.65146  0.32912  0.82918  Biso   1.000  H
  C139     1.0000 0.14912  0.62282  0.45771  Biso   1.000  C
  H215     1.0000 0.11209  0.54640  0.39640  Biso   1.000  H
  O107     1.0000 0.13057  0.43496  0.44646  Biso   1.000  O
  H216     1.0000 0.17679  0.37248  0.38241  Biso   1.000  H
  H217     1.0000 0.22039  0.80436  0.39520  Biso   1.000  H
  H218     1.0000 0.17399  0.84002  0.38490  Biso   1.000  H
  O108     1.0000 0.21660  0.88962  0.44660  Biso   1.000  O
  C140     1.0000 0.21023  0.61755  0.64218  Biso   1.000  C
  H219     1.0000 0.29378  0.74577  0.76219  Biso   1.000  H
  O109     1.0000 0.50758  0.68312  0.92766  Biso   1.000  O
  H220     1.0000 0.48076  0.80687  0.88727  Biso   1.000  H
  C141     1.0000 0.52397  0.87260  0.95104  Biso   1.000  C
  C142     1.0000 0.82869  0.48189  0.97197  Biso   1.000  C
  O110     1.0000 0.18308  0.59121  0.50010  Biso   1.000  O
  H221     1.0000 0.12468  0.63935  0.46448  Biso   1.000  H
  H222     1.0000 0.11208  0.39679  0.42609  Biso   1.000  H
  H223     1.0000 0.24267  0.88848  0.45848  Biso   1.000  H
  C143     1.0000 0.16715  0.57760  0.60976  Biso   1.000  C
  O111     1.0000 0.22175  0.70160  0.61957  Biso   1.000  O
  H224     1.0000 0.20938  0.64730  0.67128  Biso   1.000  H
  C144     1.0000 0.54691  0.64527  0.96310  Biso   1.000  C
  H225     1.0000 0.50137  0.88265  0.96159  Biso   1.000  H
  O112     1.0000 0.53017  0.97155  0.93257  Biso   1.000  O
  C145     1.0000 0.56301  0.83410  0.99262  Biso   1.000  C
  H226     1.0000 0.85468  0.45547  0.97050  Biso   1.000  H
  C146     1.0000 0.81058  0.39201  0.99248  Biso   1.000  C
  C147     1.0000 0.83788  0.58271  0.00201  Biso   1.000  C
  C148     1.0000 0.18146  0.62979  0.54252  Biso   1.000  C
  C149     1.0000 0.16697  0.53708  0.56397  Biso   1.000  C
  H227     1.0000 0.14738  0.63992  0.60239  Biso   1.000  H
  O113     1.0000 0.15327  0.49339  0.63111  Biso   1.000  O
  C150     1.0000 0.22485  0.66610  0.57771  Biso   1.000  C
  H228     1.0000 0.56876  0.65297  0.95129  Biso   1.000  H
  C151     1.0000 0.54156  0.52751  0.97127  Biso   1.000  C
  C152     1.0000 0.55769  0.71959  0.00598  Biso   1.000  C
  H229     1.0000 0.53367  0.02148  0.95199  Biso   1.000  H
  H230     1.0000 0.58708  0.83645  0.98400  Biso   1.000  H
  O114     1.0000 0.57057  0.90737  0.03013  Biso   1.000  O
  H231     1.0000 0.78377  0.41843  0.99178  Biso   1.000  H
  C153     1.0000 0.80296  0.28738  0.96678  Biso   1.000  C
  O115     1.0000 0.83948  0.37483  0.04040  Biso   1.000  O
  H232     1.0000 0.81086  0.61358  0.99907  Biso   1.000  H
  O116     1.0000 0.85750  0.66107  0.98389  Biso   1.000  O
  C154     1.0000 0.86470  0.55750  0.05330  Biso   1.000  C
  H233     1.0000 0.16157  0.69179  0.53508  Biso   1.000  H
  H234     1.0000 0.18680  0.47500  0.57081  Biso   1.000  H
  O117     1.0000 0.12629  0.50158  0.53340  Biso   1.000  O
  H235     1.0000 0.16548  0.43521  0.63090  Biso   1.000  H
  H236     1.0000 0.24377  0.60191  0.58578  Biso   1.000  H
  C155     1.0000 0.24479  0.75752  0.56250  Biso   1.000  C
  H237     1.0000 0.51445  0.51665  0.97267  Biso   1.000  H
  O118     1.0000 0.54299  0.46446  0.93530  Biso   1.000  O
  H238     1.0000 0.56391  0.50450  0.00170  Biso   1.000  H
  O119     1.0000 0.59603  0.68928  0.04394  Biso   1.000  O
  H239     1.0000 0.53472  0.71708  0.01632  Biso   1.000  H
  H240     1.0000 0.58880  0.88159  0.05502  Biso   1.000  H
  H241     1.0000 0.78727  0.30132  0.93278  Biso   1.000  H
  H242     1.0000 0.82996  0.25456  0.97197  Biso   1.000  H
  O120     1.0000 0.78028  0.21306  0.98130  Biso   1.000  O
  C156     1.0000 0.84574  0.46519  0.06950  Biso   1.000  C
  H243     1.0000 0.88246  0.64365  0.99209  Biso   1.000  H
  H244     1.0000 0.89291  0.53457  0.05681  Biso   1.000  H
  O121     1.0000 0.86947  0.65094  0.08202  Biso   1.000  O
  H245     1.0000 0.12469  0.49339  0.50630  Biso   1.000  H
  H246     1.0000 0.23980  0.74666  0.52940  Biso   1.000  H
  H247     1.0000 0.23207  0.82738  0.56478  Biso   1.000  H
  O122     1.0000 0.28817  0.76076  0.59118  Biso   1.000  O
  H248     1.0000 0.53098  0.40506  0.93390  Biso   1.000  H
  C157     1.0000 0.59419  0.64422  0.08493  Biso   1.000  C
  H249     1.0000 0.75598  0.23632  0.97320  Biso   1.000  H
  H250     1.0000 0.86581  0.44436  0.10200  Biso   1.000  H
  O123     1.0000 0.80888  0.50182  0.07108  Biso   1.000  O
  H251     1.0000 0.88752  0.69228  0.08023  Biso   1.000  H
  H252     1.0000 0.29807  0.69819  0.59349  Biso   1.000  H
  O124     1.0000 0.60224  0.53189  0.08738  Biso   1.000  O
  H253     1.0000 0.56581  0.65629  0.08321  Biso   1.000  H
  C158     1.0000 0.62558  0.70330  0.12696  Biso   1.000  C
  C159     1.0000 0.80175  0.47135  0.11101  Biso   1.000  C
  C160     1.0000 0.64202  0.50409  0.08787  Biso   1.000  C
  H254     1.0000 0.62330  0.67777  0.15592  Biso   1.000  H
  O125     1.0000 0.61619  0.81571  0.12051  Biso   1.000  O
  C161     1.0000 0.66915  0.67866  0.13113  Biso   1.000  C
  C162     1.0000 0.79936  0.57549  0.13551  Biso   1.000  C
  H255     1.0000 0.82570  0.42710  0.13281  Biso   1.000  H
  C163     1.0000 0.76176  0.40368  0.09467  Biso   1.000  C
  C164     1.0000 0.67692  0.56058  0.12966  Biso   1.000  C
  H256     1.0000 0.64260  0.53035  0.05821  Biso   1.000  H
  C165     1.0000 0.64440  0.38277  0.08903  Biso   1.000  C
  H257     1.0000 0.62279  0.84529  0.14670  Biso   1.000  H
  H258     1.0000 0.67221  0.71416  0.10431  Biso   1.000  H
  O126     1.0000 0.69876  0.72615  0.17383  Biso   1.000  O
  C166     1.0000 0.78729  0.54510  0.17464  Biso   1.000  C
  H259     1.0000 0.77812  0.62542  0.11283  Biso   1.000  H
  O127     1.0000 0.83931  0.62639  0.15508  Biso   1.000  O
  O128     1.0000 0.75071  0.38577  0.13313  Biso   1.000  O
  H260     1.0000 0.73862  0.44290  0.06890  Biso   1.000  H
  C167     1.0000 0.76577  0.29208  0.07844  Biso   1.000  C
  O129     1.0000 0.71493  0.54996  0.12430  Biso   1.000  O
  H261     1.0000 0.68010  0.52565  0.15960  Biso   1.000  H
  H262     1.0000 0.62052  0.35246  0.06161  Biso   1.000  H
  H263     1.0000 0.67030  0.35919  0.08731  Biso   1.000  H
  O130     1.0000 0.64377  0.34330  0.13096  Biso   1.000  O
  H264     1.0000 0.72209  0.72948  0.17320  Biso   1.000  H
  C168     1.0000 0.74712  0.48326  0.15613  Biso   1.000  C
  H265     1.0000 0.80970  0.49842  0.19771  Biso   1.000  H
  O131     1.0000 0.78292  0.63968  0.19837  Biso   1.000  O
  H266     1.0000 0.83661  0.69268  0.14831  Biso   1.000  H
  H267     1.0000 0.73930  0.25253  0.06982  Biso   1.000  H
  H268     1.0000 0.77092  0.29751  0.05001  Biso   1.000  H
  O132     1.0000 0.79855  0.23268  0.11339  Biso   1.000  O
  H269     1.0000 0.64739  0.27587  0.13250  Biso   1.000  H
  H270     1.0000 0.74041  0.46357  0.18281  Biso   1.000  H
  H271     1.0000 0.80050  0.63798  0.22652  Biso   1.000  H
  H272     1.0000 0.79181  0.21582  0.13502  Biso   1.000  H
  O133     1.0000 0.37370  0.00162  0.46658  Biso   1.000  O
  C169     1.0000 0.33299  0.03712  0.43601  Biso   1.000  C
  H273     1.0000 0.37527  0.99335  0.49368  Biso   1.000  H
  C170     1.0000 0.33284  0.07756  0.39026  Biso   1.000  C
  C171     1.0000 0.31850  0.12983  0.45747  Biso   1.000  C
  H274     1.0000 0.31320  0.97496  0.42921  Biso   1.000  H
  C172     1.0000 0.28973  0.11759  0.35780  Biso   1.000  C
  H275     1.0000 0.35258  0.13988  0.39759  Biso   1.000  H
  O134     1.0000 0.34668  0.99335  0.36888  Biso   1.000  O
  C173     1.0000 0.27511  0.16606  0.42227  Biso   1.000  C
  O135     1.0000 0.31687  0.09117  0.49989  Biso   1.000  O
  H276     1.0000 0.33838  0.19183  0.46490  Biso   1.000  H
  O136     1.0000 0.26111  0.03047  0.34528  Biso   1.000  O
  O137     1.0000 0.27824  0.20156  0.38041  Biso   1.000  O
  H277     1.0000 0.29060  0.14726  0.32870  Biso   1.000  H
  H278     1.0000 0.33447  0.93516  0.36909  Biso   1.000  H
  H279     1.0000 0.25619  0.10187  0.41420  Biso   1.000  H
  C174     1.0000 0.25516  0.25748  0.43748  Biso   1.000  C
  C175     1.0000 0.35087  0.12278  0.54227  Biso   1.000  C
  C176     1.0000 0.23121  0.02091  0.29708  Biso   1.000  C
  H280     1.0000 0.26019  0.24670  0.47058  Biso   1.000  H
  H281     1.0000 0.26788  0.32742  0.43520  Biso   1.000  H
  O138     1.0000 0.21179  0.26080  0.40881  Biso   1.000  O
  O139     1.0000 0.34129  0.21541  0.56169  Biso   1.000  O
  H282     1.0000 0.37528  0.13940  0.53550  Biso   1.000  H
  C177     1.0000 0.36171  0.02837  0.57543  Biso   1.000  C
  C178     1.0000 0.19071  0.08283  0.28779  Biso   1.000  C
  H283     1.0000 0.24340  0.04790  0.27580  Biso   1.000  H
  C179     1.0000 0.22286  0.89926  0.29024  Biso   1.000  C
  H284     1.0000 0.20189  0.19823  0.40649  Biso   1.000  H
  C180     1.0000 0.30699  0.20172  0.57428  Biso   1.000  C
  H285     1.0000 0.38787  0.04644  0.60359  Biso   1.000  H
  C181     1.0000 0.32744  0.00754  0.59174  Biso   1.000  C
  O140     1.0000 0.36942  0.93500  0.55352  Biso   1.000  O
  C182     1.0000 0.19516  0.20488  0.28884  Biso   1.000  C
  O141     1.0000 0.16043  0.05552  0.24049  Biso   1.000  O
  H286     1.0000 0.17998  0.05973  0.31100  Biso   1.000  H
  C183     1.0000 0.18704  0.87511  0.24274  Biso   1.000  C
  H287     1.0000 0.21549  0.87155  0.31548  Biso   1.000  H
  O142     1.0000 0.25837  0.84359  0.29266  Biso   1.000  O
  C184     1.0000 0.31685  0.11038  0.61018  Biso   1.000  C
  H288     1.0000 0.28178  0.18089  0.54550  Biso   1.000  H
  C185     1.0000 0.29944  0.31242  0.59058  Biso   1.000  C
  H289     1.0000 0.30199  0.98217  0.56418  Biso   1.000  H
  O143     1.0000 0.33914  0.92609  0.62753  Biso   1.000  O
  H290     1.0000 0.38787  0.89675  0.57389  Biso   1.000  H
  O144     1.0000 0.22013  0.24581  0.26707  Biso   1.000  O
  H291     1.0000 0.16709  0.23738  0.27310  Biso   1.000  H
  H292     1.0000 0.20738  0.22911  0.32200  Biso   1.000  H
  C186     1.0000 0.14940  0.94481  0.23513  Biso   1.000  C
  H293     1.0000 0.19619  0.89205  0.21760  Biso   1.000  H
  O145     1.0000 0.17528  0.76408  0.23895  Biso   1.000  O
  H294     1.0000 0.26749  0.80339  0.31639  Biso   1.000  H
  O146     1.0000 0.28173  0.08250  0.61866  Biso   1.000  O
  H295     1.0000 0.34067  0.13202  0.64019  Biso   1.000  H
  H296     1.0000 0.27956  0.30440  0.60478  Biso   1.000  H
  H297     1.0000 0.32599  0.33998  0.61508  Biso   1.000  H
  O147     1.0000 0.28336  0.38958  0.55338  Biso   1.000  O
  H298     1.0000 0.32316  0.87252  0.61757  Biso   1.000  H
  H299     1.0000 0.20620  0.24581  0.23780  Biso   1.000  H
  H300     1.0000 0.12739  0.93241  0.20270  Biso   1.000  H
  O148     1.0000 0.13440  0.90947  0.26794  Biso   1.000  O
  H301     1.0000 0.17719  0.74196  0.26500  Biso   1.000  H
  C187     1.0000 0.27721  0.12983  0.65701  Biso   1.000  C
  H302     1.0000 0.25729  0.38852  0.54150  Biso   1.000  H
  C188     1.0000 0.09037  0.88775  0.25098  Biso   1.000  C
  O149     1.0000 0.24147  0.19929  0.63941  Biso   1.000  O
  H303     1.0000 0.30256  0.17360  0.67598  Biso   1.000  H
  C189     1.0000 0.27219  0.04117  0.68727  Biso   1.000  C
  C190     1.0000 0.08650  0.77527  0.26770  Biso   1.000  C
  H304     1.0000 0.07670  0.89051  0.21599  Biso   1.000  H
  C191     1.0000 0.07132  0.97415  0.27121  Biso   1.000  C
  C192     1.0000 0.20345  0.14401  0.60979  Biso   1.000  C
  H305     1.0000 0.27078  0.07578  0.71517  Biso   1.000  H
  O150     1.0000 0.30792  0.97115  0.70350  Biso   1.000  O
  C193     1.0000 0.23207  0.97747  0.66108  Biso   1.000  C
  C194     1.0000 0.04151  0.74909  0.25620  Biso   1.000  C
  H306     1.0000 0.10319  0.77162  0.30241  Biso   1.000  H
  O151     1.0000 0.10185  0.69552  0.24579  Biso   1.000  O
  C195     1.0000 0.07150  0.08680  0.25350  Biso   1.000  C
  O152     1.0000 0.02847  0.94278  0.25943  Biso   1.000  O
  H307     1.0000 0.08720  0.97439  0.30609  Biso   1.000  H
  C196     1.0000 0.19524  0.05438  0.63847  Biso   1.000  C
  H308     1.0000 0.20619  0.11152  0.58220  Biso   1.000  H
  C197     1.0000 0.17060  0.23162  0.59345  Biso   1.000  C
  H309     1.0000 0.31098  0.94635  0.68040  Biso   1.000  H
  H310     1.0000 0.23477  0.93314  0.63598  Biso   1.000  H
  O153     1.0000 0.22260  0.90769  0.69088  Biso   1.000  O
  C198     1.0000 0.02427  0.84140  0.27678  Biso   1.000  C
  H311     1.0000 0.02528  0.74909  0.22139  Biso   1.000  H
  O154     1.0000 0.03624  0.64867  0.27327  Biso   1.000  O
  H312     1.0000 0.12578  0.71294  0.24919  Biso   1.000  H
  S5       1.0000 0.04940  0.10276  0.18987  Biso   1.000  S
  H313     1.0000 0.10059  0.11298  0.26689  Biso   1.000  H
  H314     1.0000 0.05579  0.13429  0.26570  Biso   1.000  H
  H315     1.0000 0.18838  0.08769  0.66329  Biso   1.000  H
  O155     1.0000 0.16091  0.98882  0.60776  Biso   1.000  O
  H316     1.0000 0.17927  0.29103  0.57848  Biso   1.000  H
  H317     1.0000 0.14397  0.20147  0.57000  Biso   1.000  H
  O156     1.0000 0.16507  0.27223  0.63254  Biso   1.000  O
  H318     1.0000 0.20068  0.92884  0.69228  Biso   1.000  H
  H319     1.0000 0.99408  0.82746  0.26798  Biso   1.000  H
  O157     1.0000 0.04596  0.83735  0.32575  Biso   1.000  O
  H320     1.0000 0.01081  0.63311  0.26181  Biso   1.000  H
  C199     1.0000 0.99389  0.09442  0.17220  Biso   1.000  C
  C200     1.0000 0.12240  0.00016  0.61004  Biso   1.000  C
  H321     1.0000 0.15969  0.33868  0.62890  Biso   1.000  H
  C201     1.0000 0.02287  0.82778  0.35345  Biso   1.000  C
  C202     1.0000 0.97309  0.19378  0.18128  Biso   1.000  C
  H322     1.0000 0.98020  0.07853  0.13820  Biso   1.000  H
  H323     1.0000 0.98849  0.03201  0.18861  Biso   1.000  H
  O158     1.0000 0.09466  0.06751  0.57340  Biso   1.000  O
  C203     1.0000 0.10485  0.88565  0.60692  Biso   1.000  C
  H324     1.0000 0.12708  0.03266  0.64089  Biso   1.000  H
  H325     1.0000 0.99337  0.80728  0.33319  Biso   1.000  H
  C204     1.0000 0.04464  0.73815  0.38858  Biso   1.000  C
  C205     1.0000 0.02461  0.93476  0.37869  Biso   1.000  C
  O159     1.0000 0.98817  0.20626  0.23145  Biso   1.000  O
  C206     1.0000 0.98159  0.29638  0.16133  Biso   1.000  C
  H326     1.0000 0.94240  0.18146  0.16740  Biso   1.000  H
  C207     1.0000 0.08767  0.02950  0.52716  Biso   1.000  C
  C208     1.0000 0.09494  0.83978  0.55868  Biso   1.000  C
  H327     1.0000 0.07848  0.89035  0.61088  Biso   1.000  H
  O160     1.0000 0.13363  0.82081  0.64383  Biso   1.000  O
  C209     1.0000 0.02658  0.72931  0.42451  Biso   1.000  C
  H328     1.0000 0.07457  0.75849  0.40569  Biso   1.000  H
  O161     1.0000 0.04258  0.63717  0.36621  Biso   1.000  O
  C210     1.0000 0.00281  0.03047  0.34770  Biso   1.000  C
  O162     1.0000 0.00455  0.91750  0.41038  Biso   1.000  O
  H329     1.0000 0.05439  0.95429  0.39790  Biso   1.000  H
  C211     1.0000 0.96767  0.29046  0.24407  Biso   1.000  C
  H330     1.0000 0.01231  0.30691  0.17360  Biso   1.000  H
  C212     1.0000 0.96266  0.39420  0.17389  Biso   1.000  C
  O163     1.0000 0.96352  0.29305  0.11103  Biso   1.000  O
  C213     1.0000 0.06840  0.91588  0.52008  Biso   1.000  C
  H331     1.0000 0.11467  0.02650  0.52450  Biso   1.000  H
  C214     1.0000 0.05854  0.10949  0.49168  Biso   1.000  C
  H332     1.0000 0.12159  0.82649  0.55598  Biso   1.000  H
  O164     1.0000 0.07373  0.73847  0.55384  Biso   1.000  O
  H333     1.0000 0.15798  0.83726  0.64849  Biso   1.000  H
  H334     1.0000 0.99787  0.69860  0.40849  Biso   1.000  H
  C215     1.0000 0.02365  0.84002  0.44485  Biso   1.000  C
  O165     1.0000 0.05068  0.65897  0.46185  Biso   1.000  O
  H335     1.0000 0.01767  0.61682  0.35278  Biso   1.000  H
  H336     1.0000 0.01069  0.03428  0.32120  Biso   1.000  H
  H337     1.0000 0.01219  0.09831  0.36600  Biso   1.000  H
  S6       1.0000 0.94655  0.01953  0.32509  Biso   1.000  S
  H338     1.0000 0.97839  0.29305  0.27899  Biso   1.000  H
  O166     1.0000 0.92417  0.27287  0.22374  Biso   1.000  O
  C216     1.0000 0.97571  0.39793  0.22654  Biso   1.000  C
  H339     1.0000 0.93169  0.38925  0.15730  Biso   1.000  H
  O167     1.0000 0.97616  0.49161  0.15969  Biso   1.000  O
  C217     1.0000 0.99065  0.28673  0.08915  Biso   1.000  C
  O168     1.0000 0.06454  0.87211  0.47647  Biso   1.000  O
  H340     1.0000 0.04018  0.92098  0.51969  Biso   1.000  H
  H341     1.0000 0.04389  0.07286  0.46108  Biso   1.000  H
  H342     1.0000 0.03738  0.13437  0.50220  Biso   1.000  H
  O169     1.0000 0.07999  0.19831  0.48639  Biso   1.000  O
  H343     1.0000 0.06850  0.71156  0.52741  Biso   1.000  H
  H344     1.0000 0.00679  0.83127  0.46308  Biso   1.000  H
  H345     1.0000 0.04070  0.59608  0.45599  Biso   1.000  H
  C218     1.0000 0.92880  0.03801  0.26181  Biso   1.000  C
  C219     1.0000 0.90475  0.23649  0.25273  Biso   1.000  C
  H346     1.0000 0.00609  0.41511  0.24288  Biso   1.000  H
  O170     1.0000 0.95261  0.47873  0.23832  Biso   1.000  O
  H347     1.0000 0.97139  0.48675  0.13129  Biso   1.000  H
  H348     1.0000 0.01920  0.30691  0.11271  Biso   1.000  H
  O171     1.0000 0.99240  0.18308  0.07232  Biso   1.000  O
  C220     1.0000 0.97598  0.37256  0.04894  Biso   1.000  C
  H349     1.0000 0.07879  0.24929  0.50350  Biso   1.000  H
  H350     1.0000 0.91999  0.96726  0.24568  Biso   1.000  H
  C221     1.0000 0.89256  0.11759  0.24267  Biso   1.000  C
  H351     1.0000 0.95199  0.06573  0.25539  Biso   1.000  H
  C222     1.0000 0.86712  0.30991  0.23951  Biso   1.000  C
  H352     1.0000 0.92410  0.24637  0.28660  Biso   1.000  H
  H353     1.0000 0.96689  0.50109  0.26570  Biso   1.000  H
  C223     1.0000 0.95305  0.14531  0.03688  Biso   1.000  C
  H354     1.0000 0.99859  0.38269  0.03839  Biso   1.000  H
  O172     1.0000 0.96979  0.47159  0.06742  Biso   1.000  O
  C224     1.0000 0.93695  0.33406  0.00736  Biso   1.000  C
  O173     1.0000 0.86482  0.08696  0.26381  Biso   1.000  O
  H355     1.0000 0.87748  0.10738  0.20800  Biso   1.000  H
  C225     1.0000 0.83838  0.26866  0.26041  Biso   1.000  C
  H356     1.0000 0.85139  0.31015  0.20460  Biso   1.000  H
  O174     1.0000 0.87979  0.41697  0.25462  Biso   1.000  O
  C226     1.0000 0.94227  0.21963  0.99401  Biso   1.000  C
  H357     1.0000 0.93120  0.15301  0.04869  Biso   1.000  H
  C227     1.0000 0.95839  0.02747  0.02871  Biso   1.000  C
  H358     1.0000 0.96629  0.52152  0.04799  Biso   1.000  H
  O175     1.0000 0.92938  0.40741  0.96985  Biso   1.000  O
  H359     1.0000 0.91291  0.33649  0.01599  Biso   1.000  H
  C228     1.0000 0.82850  0.14936  0.24954  Biso   1.000  C
  H360     1.0000 0.85240  0.27839  0.29518  Biso   1.000  H
  O176     1.0000 0.80100  0.33131  0.24204  Biso   1.000  O
  H361     1.0000 0.90040  0.43302  0.24950  Biso   1.000  H
  O177     1.0000 0.90393  0.18932  0.95604  Biso   1.000  O
  H362     1.0000 0.96524  0.21712  0.98366  Biso   1.000  H
  O178     1.0000 0.95701  0.96450  0.06472  Biso   1.000  O
  H363     1.0000 0.93607  0.00454  0.99828  Biso   1.000  H
  H364     1.0000 0.98551  0.01670  0.02731  Biso   1.000  H
  H365     1.0000 0.91115  0.38155  0.94496  Biso   1.000  H
  H366     1.0000 0.81239  0.12383  0.26700  Biso   1.000  H
  O179     1.0000 0.80317  0.13696  0.20098  Biso   1.000  O
  H367     1.0000 0.78890  0.32523  0.25971  Biso   1.000  H
  C229     1.0000 0.90576  0.14418  0.91506  Biso   1.000  C
  H368     1.0000 0.96900  0.90510  0.06608  Biso   1.000  H
  C230     1.0000 0.76877  0.06273  0.18791  Biso   1.000  C
  O180     1.0000 0.89772  0.03193  0.91260  Biso   1.000  O
  H369     1.0000 0.93417  0.15633  0.91677  Biso   1.000  H
  C231     1.0000 0.87438  0.20326  0.87302  Biso   1.000  C
  C232     1.0000 0.77241  0.97504  0.15569  Biso   1.000  C
  C233     1.0000 0.72953  0.12902  0.16277  Biso   1.000  C
  H370     1.0000 0.76860  0.02861  0.21648  Biso   1.000  H
  C234     1.0000 0.85793  0.00413  0.91211  Biso   1.000  C
  H371     1.0000 0.87666  0.17781  0.84406  Biso   1.000  H
  O181     1.0000 0.88377  0.31567  0.87947  Biso   1.000  O
  C235     1.0000 0.83081  0.17870  0.86885  Biso   1.000  C
  O182     1.0000 0.73551  0.90907  0.13914  Biso   1.000  O
  C236     1.0000 0.80950  0.89651  0.18391  Biso   1.000  C
  H372     1.0000 0.77609  0.00843  0.12880  Biso   1.000  H
  C237     1.0000 0.69129  0.05681  0.14268  Biso   1.000  C
  H373     1.0000 0.73169  0.17060  0.13669  Biso   1.000  H
  O183     1.0000 0.72469  0.20318  0.19485  Biso   1.000  O
  C238     1.0000 0.85556  0.88281  0.91095  Biso   1.000  C
  C239     1.0000 0.82304  0.06062  0.87032  Biso   1.000  C
  H374     1.0000 0.85735  0.03039  0.94177  Biso   1.000  H
  H375     1.0000 0.87717  0.34533  0.85328  Biso   1.000  H
  H376     1.0000 0.82775  0.21420  0.89567  Biso   1.000  H
  O184     1.0000 0.80119  0.22619  0.82615  Biso   1.000  O
  C240     1.0000 0.69948  0.96507  0.11418  Biso   1.000  C
  H377     1.0000 0.83300  0.93938  0.20659  Biso   1.000  H
  H378     1.0000 0.80059  0.84504  0.20190  Biso   1.000  H
  O185     1.0000 0.82279  0.84002  0.15639  Biso   1.000  O
  H379     1.0000 0.68650  0.02423  0.16901  Biso   1.000  H
  O186     1.0000 0.65537  0.11970  0.11355  Biso   1.000  O
  H380     1.0000 0.74539  0.24467  0.20579  Biso   1.000  H
  H381     1.0000 0.87946  0.85250  0.93837  Biso   1.000  H
  H382     1.0000 0.82966  0.85915  0.91267  Biso   1.000  H
  O187     1.0000 0.85619  0.84326  0.86903  Biso   1.000  O
  O188     1.0000 0.78502  0.05000  0.87569  Biso   1.000  O
  H383     1.0000 0.81986  0.02569  0.84038  Biso   1.000  H
  H384     1.0000 0.77787  0.22952  0.82678  Biso   1.000  H
  H385     1.0000 0.67559  0.91320  0.10360  Biso   1.000  H
  O189     1.0000 0.70060  0.01532  0.07355  Biso   1.000  O
  H386     1.0000 0.84849  0.82908  0.17080  Biso   1.000  H
  H387     1.0000 0.65380  0.12311  0.08631  Biso   1.000  H
  H388     1.0000 0.85256  0.77591  0.86748  Biso   1.000  H
  C241     1.0000 0.75286  0.98330  0.84385  Biso   1.000  C
  C242     1.0000 0.67127  0.98185  0.02801  Biso   1.000  C
  O190     1.0000 0.74925  0.88581  0.86685  Biso   1.000  O
  H389     1.0000 0.75958  0.96361  0.81717  Biso   1.000  H
  C243     1.0000 0.71266  0.04506  0.82534  Biso   1.000  C
  H390     1.0000 0.64530  0.95551  0.02948  Biso   1.000  H
  C244     1.0000 0.68937  0.89197  0.00750  Biso   1.000  C
  C245     1.0000 0.66208  0.08266  0.99797  Biso   1.000  C
  C246     1.0000 0.73822  0.90364  0.90531  Biso   1.000  C
  H391     1.0000 0.69026  0.99838  0.80228  Biso   1.000  H
  O191     1.0000 0.71706  0.13972  0.80161  Biso   1.000  O
  C247     1.0000 0.70059  0.07553  0.86447  Biso   1.000  C
  O192     1.0000 0.66049  0.87479  0.95961  Biso   1.000  O
  H392     1.0000 0.71622  0.91839  0.00820  Biso   1.000  H
  C248     1.0000 0.69699  0.78734  0.03320  Biso   1.000  C
  C249     1.0000 0.63526  0.05746  0.94668  Biso   1.000  C
  H393     1.0000 0.68910  0.11362  0.00091  Biso   1.000  H
  O193     1.0000 0.64248  0.16112  0.01609  Biso   1.000  O
  C250     1.0000 0.69820  0.97139  0.88897  Biso   1.000  C
  H394     1.0000 0.76137  0.94286  0.93108  Biso   1.000  H
  C251     1.0000 0.73419  0.79204  0.92154  Biso   1.000  C
  H395     1.0000 0.69946  0.13802  0.77346  Biso   1.000  H
  H396     1.0000 0.72185  0.12537  0.88718  Biso   1.000  H
  O194     1.0000 0.66065  0.12643  0.84491  Biso   1.000  O
  C252     1.0000 0.65421  0.96515  0.93048  Biso   1.000  C
  H397     1.0000 0.71271  0.80128  0.06721  Biso   1.000  H
  H398     1.0000 0.67000  0.75460  0.02801  Biso   1.000  H
  O195     1.0000 0.71971  0.71310  0.01869  Biso   1.000  O
  H399     1.0000 0.60705  0.03461  0.94317  Biso   1.000  H
  O196     1.0000 0.63049  0.15098  0.91797  Biso   1.000  O
  H400     1.0000 0.61749  0.14369  0.00789  Biso   1.000  H
  H401     1.0000 0.67425  0.92706  0.86717  Biso   1.000  H
  O197     1.0000 0.69108  0.00178  0.92890  Biso   1.000  O
  H402     1.0000 0.76066  0.75249  0.93017  Biso   1.000  H
  H403     1.0000 0.72907  0.79747  0.94997  Biso   1.000  H
  O198     1.0000 0.70141  0.73272  0.88659  Biso   1.000  O
  H404     1.0000 0.66335  0.19272  0.85167  Biso   1.000  H
  H405     1.0000 0.63417  0.94440  0.89798  Biso   1.000  H
  H406     1.0000 0.74401  0.73628  0.02678  Biso   1.000  H
  H407     1.0000 0.61244  0.19232  0.91975  Biso   1.000  H
  H408     1.0000 0.70815  0.71578  0.86496  Biso   1.000  H
  O199     1.0000 0.62627  0.00162  0.53340  Biso   1.000  O
  C253     1.0000 0.66699  0.03712  0.56397  Biso   1.000  C
  H409     1.0000 0.62470  0.99335  0.50630  Biso   1.000  H
  C254     1.0000 0.68147  0.12983  0.54252  Biso   1.000  C
  C255     1.0000 0.66714  0.07756  0.60976  Biso   1.000  C
  H410     1.0000 0.68679  0.97496  0.57081  Biso   1.000  H
  O200     1.0000 0.68310  0.09117  0.50010  Biso   1.000  O
  H411     1.0000 0.66159  0.19183  0.53508  Biso   1.000  H
  C256     1.0000 0.72484  0.16606  0.57771  Biso   1.000  C
  C257     1.0000 0.71022  0.11759  0.64218  Biso   1.000  C
  H412     1.0000 0.64739  0.13988  0.60239  Biso   1.000  H
  O201     1.0000 0.65326  0.99335  0.63111  Biso   1.000  O
  C258     1.0000 0.64910  0.12278  0.45771  Biso   1.000  C
  O202     1.0000 0.72173  0.20156  0.61957  Biso   1.000  O
  H413     1.0000 0.74378  0.10187  0.58578  Biso   1.000  H
  C259     1.0000 0.74481  0.25748  0.56250  Biso   1.000  C
  H414     1.0000 0.70937  0.14726  0.67128  Biso   1.000  H
  O203     1.0000 0.73886  0.03047  0.65470  Biso   1.000  O
  H415     1.0000 0.66547  0.93516  0.63090  Biso   1.000  H
  C260     1.0000 0.63826  0.02837  0.42455  Biso   1.000  C
  O204     1.0000 0.65868  0.21541  0.43829  Biso   1.000  O
  H416     1.0000 0.62467  0.13940  0.46448  Biso   1.000  H
  H417     1.0000 0.73979  0.24670  0.52940  Biso   1.000  H
  H418     1.0000 0.73209  0.32742  0.56478  Biso   1.000  H
  O205     1.0000 0.78815  0.26080  0.59118  Biso   1.000  O
  C261     1.0000 0.76876  0.02091  0.70290  Biso   1.000  C
  H419     1.0000 0.61208  0.04644  0.39640  Biso   1.000  H
  C262     1.0000 0.67253  0.00754  0.40825  Biso   1.000  C
  O206     1.0000 0.63056  0.93500  0.44646  Biso   1.000  O
  C263     1.0000 0.69299  0.20172  0.42574  Biso   1.000  C
  H420     1.0000 0.79808  0.19823  0.59349  Biso   1.000  H
  H421     1.0000 0.75657  0.04790  0.72418  Biso   1.000  H
  C264     1.0000 0.80926  0.08283  0.71219  Biso   1.000  C
  C265     1.0000 0.77710  0.89926  0.70978  Biso   1.000  C
  C266     1.0000 0.68309  0.11038  0.38980  Biso   1.000  C
  H422     1.0000 0.69798  0.98217  0.43580  Biso   1.000  H
  O207     1.0000 0.66083  0.92609  0.37245  Biso   1.000  O
  H423     1.0000 0.61207  0.89675  0.42609  Biso   1.000  H
  H424     1.0000 0.71819  0.18089  0.45449  Biso   1.000  H
  C267     1.0000 0.70053  0.31242  0.40940  Biso   1.000  C
  O208     1.0000 0.83954  0.05552  0.75949  Biso   1.000  O
  H425     1.0000 0.81999  0.05973  0.68899  Biso   1.000  H
  C268     1.0000 0.80481  0.20488  0.71114  Biso   1.000  C
  C269     1.0000 0.81293  0.87511  0.75724  Biso   1.000  C
  H426     1.0000 0.78448  0.87155  0.68450  Biso   1.000  H
  O209     1.0000 0.74158  0.84359  0.70732  Biso   1.000  O
  O210     1.0000 0.71824  0.08250  0.38132  Biso   1.000  O
  H427     1.0000 0.65930  0.13202  0.35980  Biso   1.000  H
  H428     1.0000 0.67678  0.87252  0.38241  Biso   1.000  H
  H429     1.0000 0.72038  0.30440  0.39520  Biso   1.000  H
  H430     1.0000 0.67398  0.33998  0.38490  Biso   1.000  H
  O211     1.0000 0.71661  0.38958  0.44660  Biso   1.000  O
  C270     1.0000 0.85057  0.94481  0.76485  Biso   1.000  C
  H431     1.0000 0.83288  0.23738  0.72688  Biso   1.000  H
  H432     1.0000 0.79256  0.22911  0.67798  Biso   1.000  H
  O212     1.0000 0.77984  0.24581  0.73291  Biso   1.000  O
  H433     1.0000 0.80378  0.89205  0.78238  Biso   1.000  H
  O213     1.0000 0.82469  0.76408  0.76103  Biso   1.000  O
  H434     1.0000 0.73248  0.80339  0.68359  Biso   1.000  H
  C271     1.0000 0.72276  0.12983  0.34297  Biso   1.000  C
  H435     1.0000 0.74268  0.38852  0.45848  Biso   1.000  H
  H436     1.0000 0.87256  0.93241  0.79728  Biso   1.000  H
  O214     1.0000 0.86557  0.90947  0.73204  Biso   1.000  O
  H437     1.0000 0.79377  0.24581  0.76219  Biso   1.000  H
  H438     1.0000 0.82278  0.74196  0.73498  Biso   1.000  H
  O215     1.0000 0.75850  0.19929  0.36057  Biso   1.000  O
  H439     1.0000 0.69738  0.17360  0.32400  Biso   1.000  H
  C272     1.0000 0.72778  0.04117  0.31271  Biso   1.000  C
  C273     1.0000 0.90960  0.88775  0.74900  Biso   1.000  C
  C274     1.0000 0.79652  0.14401  0.39019  Biso   1.000  C
  H440     1.0000 0.72920  0.07578  0.28481  Biso   1.000  H
  O216     1.0000 0.69205  0.97115  0.29648  Biso   1.000  O
  C275     1.0000 0.76790  0.97747  0.33890  Biso   1.000  C
  C276     1.0000 0.91347  0.77527  0.73228  Biso   1.000  C
  H441     1.0000 0.92327  0.89051  0.78399  Biso   1.000  H
  C277     1.0000 0.92865  0.97415  0.72878  Biso   1.000  C
  C278     1.0000 0.80473  0.05438  0.36151  Biso   1.000  C
  H442     1.0000 0.79378  0.11152  0.41778  Biso   1.000  H
  C279     1.0000 0.82937  0.23162  0.40653  Biso   1.000  C
  H443     1.0000 0.68899  0.94635  0.31958  Biso   1.000  H
  H444     1.0000 0.76520  0.93314  0.36400  Biso   1.000  H
  O217     1.0000 0.77738  0.90769  0.30910  Biso   1.000  O
  C280     1.0000 0.95847  0.74909  0.74378  Biso   1.000  C
  H445     1.0000 0.89676  0.77162  0.69758  Biso   1.000  H
  O218     1.0000 0.89812  0.69552  0.75419  Biso   1.000  O
  C281     1.0000 0.92847  0.08680  0.74648  Biso   1.000  C
  O219     1.0000 0.97150  0.94278  0.74056  Biso   1.000  O
  H446     1.0000 0.91277  0.97439  0.69389  Biso   1.000  H
  H447     1.0000 0.81159  0.08769  0.33669  Biso   1.000  H
  O220     1.0000 0.83906  0.98882  0.39222  Biso   1.000  O
  H448     1.0000 0.82070  0.29103  0.42150  Biso   1.000  H
  H449     1.0000 0.85597  0.20147  0.42998  Biso   1.000  H
  O221     1.0000 0.83490  0.27223  0.36744  Biso   1.000  O
  H450     1.0000 0.79929  0.92884  0.30770  Biso   1.000  H
  C282     1.0000 0.97570  0.84140  0.72320  Biso   1.000  C
  H451     1.0000 0.97469  0.74909  0.77859  Biso   1.000  H
  O222     1.0000 0.96370  0.64867  0.72671  Biso   1.000  O
  H452     1.0000 0.87416  0.71294  0.75079  Biso   1.000  H
  S7       1.0000 0.95057  0.10276  0.81011  Biso   1.000  S
  H453     1.0000 0.89938  0.11298  0.73309  Biso   1.000  H
  H454     1.0000 0.94418  0.13429  0.73428  Biso   1.000  H
  C283     1.0000 0.87757  0.00016  0.38995  Biso   1.000  C
  H455     1.0000 0.84028  0.33868  0.37108  Biso   1.000  H
  O223     1.0000 0.95401  0.83735  0.67423  Biso   1.000  O
  H456     1.0000 0.00589  0.82746  0.73200  Biso   1.000  H
  H457     1.0000 0.98916  0.63311  0.73817  Biso   1.000  H
  C284     1.0000 0.00608  0.09442  0.82778  Biso   1.000  C
  O224     1.0000 0.90531  0.06751  0.42658  Biso   1.000  O
  H458     1.0000 0.87289  0.03266  0.35909  Biso   1.000  H
  C285     1.0000 0.89512  0.88565  0.39307  Biso   1.000  C
  C286     1.0000 0.97710  0.82778  0.64653  Biso   1.000  C
  C287     1.0000 0.02689  0.19378  0.81870  Biso   1.000  C
  H459     1.0000 0.01977  0.07853  0.86178  Biso   1.000  H
  H460     1.0000 0.01145  0.03201  0.81137  Biso   1.000  H
  C288     1.0000 0.91230  0.02950  0.47282  Biso   1.000  C
  H461     1.0000 0.92149  0.89035  0.38910  Biso   1.000  H
  O225     1.0000 0.86635  0.82081  0.35615  Biso   1.000  O
  C289     1.0000 0.90505  0.83978  0.44134  Biso   1.000  C
  C290     1.0000 0.97536  0.93476  0.62129  Biso   1.000  C
  C291     1.0000 0.95533  0.73815  0.61140  Biso   1.000  C
  H462     1.0000 0.00657  0.80728  0.66679  Biso   1.000  H
  O226     1.0000 0.01180  0.20626  0.76853  Biso   1.000  O
  C292     1.0000 0.01838  0.29638  0.83865  Biso   1.000  C
  H463     1.0000 0.05757  0.18146  0.83258  Biso   1.000  H
  H464     1.0000 0.88527  0.02650  0.47549  Biso   1.000  H
  C293     1.0000 0.94143  0.10949  0.50830  Biso   1.000  C
  C294     1.0000 0.93157  0.91588  0.47990  Biso   1.000  C
  H465     1.0000 0.84200  0.83726  0.35149  Biso   1.000  H
  H466     1.0000 0.87838  0.82649  0.44400  Biso   1.000  H
  O227     1.0000 0.92624  0.73847  0.44614  Biso   1.000  O
  O228     1.0000 0.99542  0.91750  0.58960  Biso   1.000  O
  C295     1.0000 0.99713  0.03047  0.65228  Biso   1.000  C
  H467     1.0000 0.94558  0.95429  0.60208  Biso   1.000  H
  C296     1.0000 0.97339  0.72931  0.57547  Biso   1.000  C
  H468     1.0000 0.92537  0.75849  0.59430  Biso   1.000  H
  O229     1.0000 0.95740  0.63717  0.63381  Biso   1.000  O
  C297     1.0000 0.03227  0.29046  0.75591  Biso   1.000  C
  H469     1.0000 0.98766  0.30691  0.82638  Biso   1.000  H
  C298     1.0000 0.03728  0.39420  0.82610  Biso   1.000  C
  O230     1.0000 0.03645  0.29305  0.88895  Biso   1.000  O
  H470     1.0000 0.95608  0.07286  0.53890  Biso   1.000  H
  H471     1.0000 0.96259  0.13437  0.49778  Biso   1.000  H
  O231     1.0000 0.91998  0.19831  0.51359  Biso   1.000  O
  O232     1.0000 0.93543  0.87211  0.52351  Biso   1.000  O
  H472     1.0000 0.95979  0.92098  0.48029  Biso   1.000  H
  H473     1.0000 0.93147  0.71156  0.47258  Biso   1.000  H
  C299     1.0000 0.97632  0.84002  0.55514  Biso   1.000  C
  H474     1.0000 0.98928  0.03428  0.67878  Biso   1.000  H
  H475     1.0000 0.98779  0.09831  0.63398  Biso   1.000  H
  S8       1.0000 0.05342  0.01953  0.67489  Biso   1.000  S
  O233     1.0000 0.94929  0.65897  0.53813  Biso   1.000  O
  H476     1.0000 0.00207  0.69860  0.59149  Biso   1.000  H
  H477     1.0000 0.98227  0.61682  0.64720  Biso   1.000  H
  H478     1.0000 0.02158  0.29305  0.72099  Biso   1.000  H
  O234     1.0000 0.07580  0.27287  0.77624  Biso   1.000  O
  C300     1.0000 0.02423  0.39793  0.77344  Biso   1.000  C
  H479     1.0000 0.06828  0.38925  0.84268  Biso   1.000  H
  O235     1.0000 0.02381  0.49161  0.84029  Biso   1.000  O
  C301     1.0000 0.00932  0.28673  0.91083  Biso   1.000  C
  H480     1.0000 0.92118  0.24929  0.49648  Biso   1.000  H
  H481     1.0000 0.99318  0.83127  0.53691  Biso   1.000  H
  C302     1.0000 0.07117  0.03801  0.73817  Biso   1.000  C
  H482     1.0000 0.95927  0.59608  0.54399  Biso   1.000  H
  C303     1.0000 0.09522  0.23649  0.74725  Biso   1.000  C
  H483     1.0000 0.99388  0.41511  0.75710  Biso   1.000  H
  O236     1.0000 0.04733  0.47873  0.76166  Biso   1.000  O
  H484     1.0000 0.02858  0.48675  0.86869  Biso   1.000  H
  H485     1.0000 0.98077  0.30691  0.88727  Biso   1.000  H
  O237     1.0000 0.00757  0.18308  0.92766  Biso   1.000  O
  C304     1.0000 0.02399  0.37256  0.95104  Biso   1.000  C
  H486     1.0000 0.07998  0.96726  0.75430  Biso   1.000  H
  C305     1.0000 0.10742  0.11759  0.75731  Biso   1.000  C
  H487     1.0000 0.04798  0.06573  0.74459  Biso   1.000  H
  C306     1.0000 0.13285  0.30991  0.76047  Biso   1.000  C
  H488     1.0000 0.07588  0.24637  0.71339  Biso   1.000  H
  H489     1.0000 0.03308  0.50109  0.73428  Biso   1.000  H
  C307     1.0000 0.04692  0.14531  0.96310  Biso   1.000  C
  H490     1.0000 0.00138  0.38269  0.96159  Biso   1.000  H
  O238     1.0000 0.03018  0.47159  0.93257  Biso   1.000  O
  C308     1.0000 0.06302  0.33406  0.99262  Biso   1.000  C
  O239     1.0000 0.13516  0.08696  0.73617  Biso   1.000  O
  H491     1.0000 0.12246  0.10738  0.79198  Biso   1.000  H
  C309     1.0000 0.16159  0.26866  0.73957  Biso   1.000  C
  H492     1.0000 0.14858  0.31015  0.79539  Biso   1.000  H
  O240     1.0000 0.12018  0.41697  0.74536  Biso   1.000  O
  H493     1.0000 0.06877  0.15301  0.95129  Biso   1.000  H
  C310     1.0000 0.04155  0.02747  0.97127  Biso   1.000  C
  C311     1.0000 0.05767  0.21963  0.00598  Biso   1.000  C
  H494     1.0000 0.03366  0.52152  0.95199  Biso   1.000  H
  H495     1.0000 0.08706  0.33649  0.98400  Biso   1.000  H
  O241     1.0000 0.07059  0.40741  0.03013  Biso   1.000  O
  C312     1.0000 0.17147  0.14936  0.75044  Biso   1.000  C
  H496     1.0000 0.14757  0.27839  0.70480  Biso   1.000  H
  O242     1.0000 0.19897  0.33131  0.75794  Biso   1.000  O
  H497     1.0000 0.09957  0.43302  0.75048  Biso   1.000  H
  O243     1.0000 0.04297  0.96450  0.93530  Biso   1.000  O
  H498     1.0000 0.01446  0.01670  0.97267  Biso   1.000  H
  H499     1.0000 0.06390  0.00454  0.00170  Biso   1.000  H
  O244     1.0000 0.09604  0.18932  0.04394  Biso   1.000  O
  H500     1.0000 0.03470  0.21712  0.01632  Biso   1.000  H
  H501     1.0000 0.08882  0.38155  0.05502  Biso   1.000  H
  H502     1.0000 0.18758  0.12383  0.73298  Biso   1.000  H
  O245     1.0000 0.19677  0.13696  0.79900  Biso   1.000  O
  H503     1.0000 0.21107  0.32523  0.74028  Biso   1.000  H
  H504     1.0000 0.03097  0.90510  0.93390  Biso   1.000  H
  C313     1.0000 0.09421  0.14418  0.08493  Biso   1.000  C
  C314     1.0000 0.23120  0.06273  0.81207  Biso   1.000  C
  O246     1.0000 0.10225  0.03193  0.08738  Biso   1.000  O
  H505     1.0000 0.06580  0.15633  0.08321  Biso   1.000  H
  C315     1.0000 0.12557  0.20326  0.12696  Biso   1.000  C
  C316     1.0000 0.22757  0.97504  0.84429  Biso   1.000  C
  C317     1.0000 0.27044  0.12902  0.83721  Biso   1.000  C
  H506     1.0000 0.23138  0.02861  0.78350  Biso   1.000  H
  C318     1.0000 0.14204  0.00413  0.08787  Biso   1.000  C
  H507     1.0000 0.12331  0.17781  0.15592  Biso   1.000  H
  O247     1.0000 0.11620  0.31567  0.12051  Biso   1.000  O
  C319     1.0000 0.16916  0.17870  0.13113  Biso   1.000  C
  O248     1.0000 0.26446  0.90907  0.86084  Biso   1.000  O
  C320     1.0000 0.19047  0.89651  0.81607  Biso   1.000  C
  H508     1.0000 0.22386  0.00843  0.87118  Biso   1.000  H
  C321     1.0000 0.30868  0.05681  0.85730  Biso   1.000  C
  H509     1.0000 0.26829  0.17060  0.86329  Biso   1.000  H
  O249     1.0000 0.27528  0.20318  0.80513  Biso   1.000  O
  C322     1.0000 0.14442  0.88281  0.08903  Biso   1.000  C
  C323     1.0000 0.17693  0.06062  0.12966  Biso   1.000  C
  H510     1.0000 0.14262  0.03039  0.05821  Biso   1.000  H
  H511     1.0000 0.12280  0.34533  0.14670  Biso   1.000  H
  H512     1.0000 0.17220  0.21420  0.10431  Biso   1.000  H
  O250     1.0000 0.19878  0.22619  0.17383  Biso   1.000  O
  C324     1.0000 0.30049  0.96507  0.88580  Biso   1.000  C
  H513     1.0000 0.16698  0.93938  0.79339  Biso   1.000  H
  H514     1.0000 0.19938  0.84504  0.79809  Biso   1.000  H
  O251     1.0000 0.17718  0.84002  0.84359  Biso   1.000  O
  H515     1.0000 0.31347  0.02423  0.83097  Biso   1.000  H
  O252     1.0000 0.34460  0.11970  0.88643  Biso   1.000  O
  H516     1.0000 0.25458  0.24467  0.79419  Biso   1.000  H
  H517     1.0000 0.12051  0.85250  0.06161  Biso   1.000  H
  H518     1.0000 0.17031  0.85915  0.08731  Biso   1.000  H
  O253     1.0000 0.14379  0.84326  0.13096  Biso   1.000  O
  O254     1.0000 0.21495  0.05000  0.12430  Biso   1.000  O
  H519     1.0000 0.18011  0.02569  0.15960  Biso   1.000  H
  H520     1.0000 0.22211  0.22952  0.17320  Biso   1.000  H
  H521     1.0000 0.32438  0.91320  0.89639  Biso   1.000  H
  O255     1.0000 0.29937  0.01532  0.92643  Biso   1.000  O
  H522     1.0000 0.15148  0.82908  0.82918  Biso   1.000  H
  H523     1.0000 0.34617  0.12311  0.91367  Biso   1.000  H
  H524     1.0000 0.14741  0.77591  0.13250  Biso   1.000  H
  C325     1.0000 0.24711  0.98330  0.15613  Biso   1.000  C
  C326     1.0000 0.32868  0.98185  0.97197  Biso   1.000  C
  O256     1.0000 0.25072  0.88581  0.13313  Biso   1.000  O
  H525     1.0000 0.24040  0.96361  0.18281  Biso   1.000  H
  C327     1.0000 0.28731  0.04506  0.17464  Biso   1.000  C
  H526     1.0000 0.35467  0.95551  0.97050  Biso   1.000  H
  C328     1.0000 0.31060  0.89197  0.99248  Biso   1.000  C
  C329     1.0000 0.33789  0.08266  0.00201  Biso   1.000  C
  C330     1.0000 0.26175  0.90364  0.09467  Biso   1.000  C
  H527     1.0000 0.30971  0.99838  0.19771  Biso   1.000  H
  O257     1.0000 0.28291  0.13972  0.19837  Biso   1.000  O
  C331     1.0000 0.29935  0.07553  0.13551  Biso   1.000  C
  H528     1.0000 0.28376  0.91839  0.99178  Biso   1.000  H
  C332     1.0000 0.30298  0.78734  0.96678  Biso   1.000  C
  O258     1.0000 0.33949  0.87479  0.04040  Biso   1.000  O
  H529     1.0000 0.31087  0.11362  0.99907  Biso   1.000  H
  O259     1.0000 0.35749  0.16112  0.98389  Biso   1.000  O
  C333     1.0000 0.36471  0.05746  0.05330  Biso   1.000  C
  C334     1.0000 0.30177  0.97139  0.11101  Biso   1.000  C
  H530     1.0000 0.23860  0.94286  0.06890  Biso   1.000  H
  C335     1.0000 0.26575  0.79204  0.07844  Biso   1.000  C
  H531     1.0000 0.30051  0.13802  0.22652  Biso   1.000  H
  H532     1.0000 0.27810  0.12537  0.11283  Biso   1.000  H
  O260     1.0000 0.33932  0.12643  0.15508  Biso   1.000  O
  H533     1.0000 0.28726  0.80128  0.93278  Biso   1.000  H
  H534     1.0000 0.32997  0.75460  0.97197  Biso   1.000  H
  O261     1.0000 0.28026  0.71310  0.98130  Biso   1.000  O
  C336     1.0000 0.34576  0.96515  0.06950  Biso   1.000  C
  H535     1.0000 0.38248  0.14369  0.99209  Biso   1.000  H
  H536     1.0000 0.39290  0.03461  0.05681  Biso   1.000  H
  O262     1.0000 0.36948  0.15098  0.08202  Biso   1.000  O
  O263     1.0000 0.30889  0.00178  0.07108  Biso   1.000  O
  H537     1.0000 0.32572  0.92706  0.13281  Biso   1.000  H
  H538     1.0000 0.23931  0.75249  0.06982  Biso   1.000  H
  H539     1.0000 0.27091  0.79747  0.05001  Biso   1.000  H
  O264     1.0000 0.29856  0.73272  0.11339  Biso   1.000  O
  H540     1.0000 0.33659  0.19272  0.14831  Biso   1.000  H
  H541     1.0000 0.25596  0.73628  0.97320  Biso   1.000  H
  H542     1.0000 0.36580  0.94440  0.10200  Biso   1.000  H
  H543     1.0000 0.38750  0.19232  0.08023  Biso   1.000  H
  H544     1.0000 0.29182  0.71578  0.13502  Biso   1.000  H
