data_image0
_cell_length_a       32.861
_cell_length_b       19.752
_cell_length_c       15.548
_cell_angle_alpha    90
_cell_angle_beta     96.45
_cell_angle_gamma    90

_symmetry_space_group_name_H-M    "P 1"
_symmetry_int_tables_number       1

loop_
  _symmetry_equiv_pos_as_xyz
  'x, y, z'

loop_
  _atom_site_label
  _atom_site_occupancy
  _atom_site_fract_x
  _atom_site_fract_y
  _atom_site_fract_z
  _atom_site_thermal_displace_type
  _atom_site_B_iso_or_equiv
  _atom_site_type_symbol
  C1       1.0000 0.50766  0.40598  0.45710  Biso   1.000  C
  C2       1.0000 0.51443  0.34326  0.49736  Biso   1.000  C
  C3       1.0000 0.53130  0.42917  0.39444  Biso   1.000  C
  H1       1.0000 0.48611  0.43378  0.47302  Biso   1.000  H
  C4       1.0000 0.48634  0.31830  0.56260  Biso   1.000  C
  C5       1.0000 0.54640  0.30367  0.47186  Biso   1.000  C
  C6       1.0000 0.56281  0.38897  0.37075  Biso   1.000  C
  H2       1.0000 0.52592  0.47210  0.36823  Biso   1.000  H
  C7       1.0000 0.44467  0.29992  0.51425  Biso   1.000  C
  C8       1.0000 0.47975  0.37449  0.62817  Biso   1.000  C
  C9       1.0000 0.50370  0.25638  0.61270  Biso   1.000  C
  H3       1.0000 0.55171  0.26058  0.49801  Biso   1.000  H
  C10      1.0000 0.57051  0.32544  0.40959  Biso   1.000  C
  O1       1.0000 0.58840  0.40528  0.31004  Biso   1.000  O
  H4       1.0000 0.42691  0.28139  0.55523  Biso   1.000  H
  H5       1.0000 0.43192  0.34052  0.48681  Biso   1.000  H
  H6       1.0000 0.44833  0.26600  0.46972  Biso   1.000  H
  H7       1.0000 0.50634  0.38948  0.65659  Biso   1.000  H
  H8       1.0000 0.46561  0.41282  0.59801  Biso   1.000  H
  H9       1.0000 0.46311  0.35688  0.67180  Biso   1.000  H
  H10      1.0000 0.53061  0.26752  0.64319  Biso   1.000  H
  H11      1.0000 0.48512  0.24291  0.65471  Biso   1.000  H
  H12      1.0000 0.50652  0.21902  0.57231  Biso   1.000  H
  C11      1.0000 0.60395  0.28650  0.37418  Biso   1.000  C
  C12      1.0000 0.57995  0.45945  0.25120  Biso   1.000  C
  C13      1.0000 0.59265  0.24220  0.30577  Biso   1.000  C
  C14      1.0000 0.64454  0.30716  0.39917  Biso   1.000  C
  C15      1.0000 0.60518  0.44608  0.17677  Biso   1.000  C
  H13      1.0000 0.55040  0.46092  0.22997  Biso   1.000  H
  H14      1.0000 0.58781  0.50319  0.27942  Biso   1.000  H
  N1       1.0000 0.61790  0.22200  0.24616  Biso   1.000  N
  C16      1.0000 0.55488  0.20616  0.28674  Biso   1.000  C
  N2       1.0000 0.67624  0.30225  0.34985  Biso   1.000  N
  C17      1.0000 0.65787  0.33667  0.48280  Biso   1.000  C
  C18      1.0000 0.60734  0.50699  0.11735  Biso   1.000  C
  H15      1.0000 0.63332  0.43322  0.20072  Biso   1.000  H
  H16      1.0000 0.59310  0.40740  0.14240  Biso   1.000  H
  H17      1.0000 0.64101  0.24322  0.23709  Biso   1.000  H
  C19      1.0000 0.59805  0.17705  0.18933  Biso   1.000  C
  C20      1.0000 0.55882  0.16439  0.21832  Biso   1.000  C
  H18      1.0000 0.53132  0.21061  0.31638  Biso   1.000  H
  C21      1.0000 0.70917  0.33070  0.39846  Biso   1.000  C
  H19      1.0000 0.64143  0.34579  0.52798  Biso   1.000  H
  C22      1.0000 0.69847  0.34872  0.48351  Biso   1.000  C
  C23      1.0000 0.62256  0.49068  0.03146  Biso   1.000  C
  H20      1.0000 0.62572  0.54131  0.14751  Biso   1.000  H
  H21      1.0000 0.57970  0.52729  0.10628  Biso   1.000  H
  C24      1.0000 0.61114  0.15897  0.10978  Biso   1.000  C
  H22      1.0000 0.53909  0.13249  0.19418  Biso   1.000  H
  C25      1.0000 0.74527  0.35283  0.36596  Biso   1.000  C
  H23      1.0000 0.71653  0.36568  0.53069  Biso   1.000  H
  O2       1.0000 0.66112  0.45595  0.04576  Biso   1.000  O
  H24      1.0000 0.62595  0.53311  0.99903  Biso   1.000  H
  H25      1.0000 0.60236  0.46188  0.99657  Biso   1.000  H
  C26      1.0000 0.64023  0.19720  0.07010  Biso   1.000  C
  C27      1.0000 0.59019  0.10024  0.06421  Biso   1.000  C
  C28      1.0000 0.74886  0.35758  0.27729  Biso   1.000  C
  C29      1.0000 0.77769  0.38305  0.42920  Biso   1.000  C
  C30      1.0000 0.68068  0.44163  0.97366  Biso   1.000  C
  N3       1.0000 0.66100  0.25152  0.10881  Biso   1.000  N
  C31      1.0000 0.64812  0.19142  0.98045  Biso   1.000  C
  C32      1.0000 0.59220  0.03716  0.10557  Biso   1.000  C
  C33      1.0000 0.56834  0.10581  0.98239  Biso   1.000  C
  N4       1.0000 0.71900  0.33632  0.21418  Biso   1.000  N
  C34      1.0000 0.77940  0.39075  0.23353  Biso   1.000  C
  C35      1.0000 0.79884  0.34346  0.49399  Biso   1.000  C
  C36      1.0000 0.78580  0.45241  0.42720  Biso   1.000  C
  C37      1.0000 0.70698  0.38477  0.97825  Biso   1.000  C
  C38      1.0000 0.67570  0.48026  0.89883  Biso   1.000  C
  C39      1.0000 0.67882  0.28301  0.04453  Biso   1.000  C
  C40      1.0000 0.67012  0.24681  0.96324  Biso   1.000  C
  H26      1.0000 0.63957  0.15578  0.94149  Biso   1.000  H
  H27      1.0000 0.60620  0.03301  0.16221  Biso   1.000  H
  C41      1.0000 0.57392  0.98051  0.06453  Biso   1.000  C
  H28      1.0000 0.56607  0.14869  0.95463  Biso   1.000  H
  C42      1.0000 0.54989  0.05002  0.94103  Biso   1.000  C
  H29      1.0000 0.69582  0.31602  0.22460  Biso   1.000  H
  C43      1.0000 0.72763  0.35693  0.13444  Biso   1.000  C
  H30      1.0000 0.80472  0.40841  0.25981  Biso   1.000  H
  C44      1.0000 0.76572  0.39237  0.14680  Biso   1.000  C
  H31      1.0000 0.79353  0.29632  0.49594  Biso   1.000  H
  C45      1.0000 0.82753  0.37227  0.55561  Biso   1.000  C
  C46      1.0000 0.81357  0.48263  0.48933  Biso   1.000  C
  H32      1.0000 0.77201  0.47939  0.38241  Biso   1.000  H
  C47      1.0000 0.70534  0.33946  0.05515  Biso   1.000  C
  C48      1.0000 0.72835  0.37024  0.90809  Biso   1.000  C
  C49      1.0000 0.69648  0.46299  0.82886  Biso   1.000  C
  H33      1.0000 0.65805  0.51848  0.89527  Biso   1.000  H
  H34      1.0000 0.67814  0.25952  0.90867  Biso   1.000  H
  C50      1.0000 0.55332  0.98815  0.98317  Biso   1.000  C
  H35      1.0000 0.57572  0.93753  0.09198  Biso   1.000  H
  H36      1.0000 0.53514  0.05402  0.88511  Biso   1.000  H
  H37      1.0000 0.77921  0.41333  0.10292  Biso   1.000  H
  H38      1.0000 0.84253  0.34508  0.59859  Biso   1.000  H
  C51      1.0000 0.83377  0.44168  0.55277  Biso   1.000  C
  H39      1.0000 0.81863  0.53002  0.48843  Biso   1.000  H
  H40      1.0000 0.74686  0.33308  0.91210  Biso   1.000  H
  C52      1.0000 0.72356  0.40867  0.83165  Biso   1.000  C
  H41      1.0000 0.69204  0.48922  0.77741  Biso   1.000  H
  N5       1.0000 0.53379  0.92841  0.93922  Biso   1.000  N
  N6       1.0000 0.86147  0.47362  0.62163  Biso   1.000  N
  C53      1.0000 0.74668  0.38948  0.75533  Biso   1.000  C
  O3       1.0000 0.53833  0.87348  0.97482  Biso   1.000  O
  O4       1.0000 0.51394  0.93717  0.86873  Biso   1.000  O
  O5       1.0000 0.88598  0.43763  0.66539  Biso   1.000  O
  O6       1.0000 0.85833  0.53488  0.63238  Biso   1.000  O
  C54      1.0000 0.73510  0.31703  0.72582  Biso   1.000  C
  C55      1.0000 0.73697  0.43732  0.67857  Biso   1.000  C
  C56      1.0000 0.79317  0.39328  0.78317  Biso   1.000  C
  H42      1.0000 0.70566  0.31480  0.70731  Biso   1.000  H
  H43      1.0000 0.75024  0.30448  0.67740  Biso   1.000  H
  H44      1.0000 0.74204  0.28559  0.77397  Biso   1.000  H
  H45      1.0000 0.74334  0.48390  0.69708  Biso   1.000  H
  H46      1.0000 0.75353  0.42482  0.63229  Biso   1.000  H
  H47      1.0000 0.70783  0.43388  0.65708  Biso   1.000  H
  H48      1.0000 0.79986  0.36700  0.83631  Biso   1.000  H
  H49      1.0000 0.80795  0.37470  0.73721  Biso   1.000  H
  H50      1.0000 0.80115  0.44061  0.79372  Biso   1.000  H
  C57      1.0000 0.49239  0.59402  0.54293  Biso   1.000  C
  C58      1.0000 0.46875  0.57083  0.60552  Biso   1.000  C
  C59      1.0000 0.48559  0.65674  0.50267  Biso   1.000  C
  H51      1.0000 0.51394  0.56622  0.52700  Biso   1.000  H
  C60      1.0000 0.43723  0.61103  0.62921  Biso   1.000  C
  H52      1.0000 0.47413  0.52790  0.63180  Biso   1.000  H
  C61      1.0000 0.45365  0.69633  0.52817  Biso   1.000  C
  C62      1.0000 0.51371  0.68170  0.43742  Biso   1.000  C
  C63      1.0000 0.42954  0.67456  0.59037  Biso   1.000  C
  O7       1.0000 0.41165  0.59472  0.68999  Biso   1.000  O
  H53      1.0000 0.44831  0.73942  0.50202  Biso   1.000  H
  C64      1.0000 0.55538  0.70008  0.48577  Biso   1.000  C
  C65      1.0000 0.52026  0.62551  0.37179  Biso   1.000  C
  C66      1.0000 0.49635  0.74362  0.38732  Biso   1.000  C
  C67      1.0000 0.39610  0.71350  0.62584  Biso   1.000  C
  C68      1.0000 0.42010  0.54055  0.74882  Biso   1.000  C
  H54      1.0000 0.57311  0.71861  0.44480  Biso   1.000  H
  H55      1.0000 0.56813  0.65948  0.51322  Biso   1.000  H
  H56      1.0000 0.55172  0.73400  0.53031  Biso   1.000  H
  H57      1.0000 0.49371  0.61052  0.34337  Biso   1.000  H
  H58      1.0000 0.53441  0.58718  0.40202  Biso   1.000  H
  H59      1.0000 0.53691  0.64312  0.32823  Biso   1.000  H
  H60      1.0000 0.46941  0.73248  0.35677  Biso   1.000  H
  H61      1.0000 0.51490  0.75709  0.34532  Biso   1.000  H
  H62      1.0000 0.49350  0.78098  0.42771  Biso   1.000  H
  C69      1.0000 0.35548  0.69284  0.60086  Biso   1.000  C
  C70      1.0000 0.40740  0.75780  0.69426  Biso   1.000  C
  C71      1.0000 0.39484  0.55392  0.82326  Biso   1.000  C
  H63      1.0000 0.44962  0.53908  0.76999  Biso   1.000  H
  H64      1.0000 0.41224  0.49681  0.72060  Biso   1.000  H
  N7       1.0000 0.32378  0.69775  0.65018  Biso   1.000  N
  C72      1.0000 0.34215  0.66333  0.51717  Biso   1.000  C
  N8       1.0000 0.38214  0.77800  0.75381  Biso   1.000  N
  C73      1.0000 0.44517  0.79384  0.71329  Biso   1.000  C
  C74      1.0000 0.39271  0.49301  0.88268  Biso   1.000  C
  H65      1.0000 0.36673  0.56678  0.79931  Biso   1.000  H
  H66      1.0000 0.40692  0.59260  0.85763  Biso   1.000  H
  C75      1.0000 0.29085  0.66930  0.60157  Biso   1.000  C
  C76      1.0000 0.30157  0.65128  0.51645  Biso   1.000  C
  H67      1.0000 0.35861  0.65421  0.47199  Biso   1.000  H
  H68      1.0000 0.35904  0.75678  0.76293  Biso   1.000  H
  C77      1.0000 0.40200  0.82295  0.81070  Biso   1.000  C
  C78      1.0000 0.44120  0.83561  0.78164  Biso   1.000  C
  H69      1.0000 0.46873  0.78939  0.68358  Biso   1.000  H
  C79      1.0000 0.37749  0.50932  0.96850  Biso   1.000  C
  H70      1.0000 0.37433  0.45869  0.85251  Biso   1.000  H
  H71      1.0000 0.42034  0.47271  0.89368  Biso   1.000  H
  C80      1.0000 0.25478  0.64717  0.63400  Biso   1.000  C
  H72      1.0000 0.28352  0.63432  0.46933  Biso   1.000  H
  C81      1.0000 0.38891  0.84103  0.89025  Biso   1.000  C
  H73      1.0000 0.46092  0.86751  0.80578  Biso   1.000  H
  O8       1.0000 0.33893  0.54405  0.95427  Biso   1.000  O
  H74      1.0000 0.37407  0.46689  0.00100  Biso   1.000  H
  H75      1.0000 0.39769  0.53812  0.00339  Biso   1.000  H
  C82      1.0000 0.22233  0.61695  0.57082  Biso   1.000  C
  C83      1.0000 0.25116  0.64242  0.72274  Biso   1.000  C
  C84      1.0000 0.35983  0.80280  0.92993  Biso   1.000  C
  C85      1.0000 0.40986  0.89976  0.93575  Biso   1.000  C
  C86      1.0000 0.31937  0.55837  0.02637  Biso   1.000  C
  C87      1.0000 0.20121  0.65654  0.50603  Biso   1.000  C
  C88      1.0000 0.21422  0.54759  0.57283  Biso   1.000  C
  N9       1.0000 0.28105  0.66368  0.78585  Biso   1.000  N
  C89      1.0000 0.22062  0.60925  0.76649  Biso   1.000  C
  N10      1.0000 0.33905  0.74848  0.89122  Biso   1.000  N
  C90      1.0000 0.35190  0.80858  0.01951  Biso   1.000  C
  C91      1.0000 0.40785  0.96284  0.89446  Biso   1.000  C
  C92      1.0000 0.43168  0.89419  0.01763  Biso   1.000  C
  C93      1.0000 0.29307  0.61523  0.02171  Biso   1.000  C
  C94      1.0000 0.32432  0.51974  0.10119  Biso   1.000  C
  C95      1.0000 0.17252  0.62773  0.44435  Biso   1.000  C
  H76      1.0000 0.20652  0.70368  0.50409  Biso   1.000  H
  C96      1.0000 0.18645  0.51737  0.51069  Biso   1.000  C
  H77      1.0000 0.22801  0.52061  0.61762  Biso   1.000  H
  H78      1.0000 0.30423  0.68398  0.77543  Biso   1.000  H
  C97      1.0000 0.27242  0.64307  0.86559  Biso   1.000  C
  H79      1.0000 0.19533  0.59159  0.74021  Biso   1.000  H
  C98      1.0000 0.23432  0.60763  0.85316  Biso   1.000  C
  C99      1.0000 0.32123  0.71699  0.95549  Biso   1.000  C
  C100     1.0000 0.32993  0.75319  0.03679  Biso   1.000  C
  H80      1.0000 0.36048  0.84422  0.05854  Biso   1.000  H
  H81      1.0000 0.39382  0.96699  0.83782  Biso   1.000  H
  C101     1.0000 0.42613  0.01949  0.93549  Biso   1.000  C
  H82      1.0000 0.43398  0.85131  0.04540  Biso   1.000  H
  C102     1.0000 0.45015  0.94998  0.05893  Biso   1.000  C
  C103     1.0000 0.29470  0.66054  0.94482  Biso   1.000  C
  C104     1.0000 0.27170  0.62976  0.09194  Biso   1.000  C
  C105     1.0000 0.30357  0.53701  0.17116  Biso   1.000  C
  H83      1.0000 0.34197  0.48152  0.10469  Biso   1.000  H
  C106     1.0000 0.16628  0.55832  0.44726  Biso   1.000  C
  H84      1.0000 0.15752  0.65492  0.40143  Biso   1.000  H
  H85      1.0000 0.18142  0.46998  0.51160  Biso   1.000  H
  H86      1.0000 0.22084  0.58667  0.89711  Biso   1.000  H
  H87      1.0000 0.32187  0.74048  0.09129  Biso   1.000  H
  H88      1.0000 0.42433  0.06247  0.90799  Biso   1.000  H
  C107     1.0000 0.44670  0.01185  0.01686  Biso   1.000  C
  H89      1.0000 0.46488  0.94598  0.11492  Biso   1.000  H
  H90      1.0000 0.25319  0.66692  0.08793  Biso   1.000  H
  C108     1.0000 0.27649  0.59133  0.16838  Biso   1.000  C
  H91      1.0000 0.30798  0.51078  0.22262  Biso   1.000  H
  N11      1.0000 0.13858  0.52638  0.37833  Biso   1.000  N
  N12      1.0000 0.46623  0.07159  0.06081  Biso   1.000  N
  C109     1.0000 0.25334  0.61052  0.24469  Biso   1.000  C
  O9       1.0000 0.14169  0.46512  0.36765  Biso   1.000  O
  O10      1.0000 0.11404  0.56237  0.33464  Biso   1.000  O
  O11      1.0000 0.46169  0.12652  0.02521  Biso   1.000  O
  O12      1.0000 0.48611  0.06283  0.13129  Biso   1.000  O
  C110     1.0000 0.26492  0.68297  0.27414  Biso   1.000  C
  C111     1.0000 0.26308  0.56268  0.32139  Biso   1.000  C
  C112     1.0000 0.20688  0.60672  0.21686  Biso   1.000  C
  H92      1.0000 0.29439  0.68520  0.29272  Biso   1.000  H
  H93      1.0000 0.24978  0.69552  0.32262  Biso   1.000  H
  H94      1.0000 0.25797  0.71441  0.22599  Biso   1.000  H
  H95      1.0000 0.25671  0.51610  0.30288  Biso   1.000  H
  H96      1.0000 0.24649  0.57518  0.36774  Biso   1.000  H
  H97      1.0000 0.29218  0.56612  0.34288  Biso   1.000  H
  H98      1.0000 0.20019  0.63300  0.16372  Biso   1.000  H
  H99      1.0000 0.19210  0.62530  0.26282  Biso   1.000  H
  H100     1.0000 0.19890  0.55939  0.20631  Biso   1.000  H
  C113     1.0000 0.60735  0.49301  0.61736  Biso   1.000  C
  C114     1.0000 0.62257  0.50932  0.53147  Biso   1.000  C
  H101     1.0000 0.62573  0.45869  0.64753  Biso   1.000  H
  H102     1.0000 0.57971  0.47271  0.60629  Biso   1.000  H
  C115     1.0000 0.60522  0.55392  0.67678  Biso   1.000  C
  O13      1.0000 0.66113  0.54405  0.54578  Biso   1.000  O
  H103     1.0000 0.62592  0.46689  0.49898  Biso   1.000  H
  H104     1.0000 0.60230  0.53812  0.49658  Biso   1.000  H
  H105     1.0000 0.63333  0.56678  0.70073  Biso   1.000  H
  H106     1.0000 0.59314  0.59260  0.64241  Biso   1.000  H
  C116     1.0000 0.57996  0.54055  0.75115  Biso   1.000  C
  C117     1.0000 0.68063  0.55837  0.47367  Biso   1.000  C
  O14      1.0000 0.58841  0.59472  0.81005  Biso   1.000  O
  H107     1.0000 0.55044  0.53908  0.72999  Biso   1.000  H
  H108     1.0000 0.58782  0.49681  0.77944  Biso   1.000  H
  C118     1.0000 0.70693  0.61523  0.47827  Biso   1.000  C
  C119     1.0000 0.67568  0.51974  0.39885  Biso   1.000  C
  C120     1.0000 0.56282  0.61103  0.87077  Biso   1.000  C
  C121     1.0000 0.70535  0.66054  0.55516  Biso   1.000  C
  C122     1.0000 0.72830  0.62976  0.40810  Biso   1.000  C
  C123     1.0000 0.69643  0.53701  0.32888  Biso   1.000  C
  H109     1.0000 0.65803  0.48152  0.39529  Biso   1.000  H
  C124     1.0000 0.53131  0.57083  0.89446  Biso   1.000  C
  C125     1.0000 0.57052  0.67456  0.90960  Biso   1.000  C
  C126     1.0000 0.72764  0.64307  0.63445  Biso   1.000  C
  C127     1.0000 0.67883  0.71699  0.54455  Biso   1.000  C
  H110     1.0000 0.74681  0.66692  0.41211  Biso   1.000  H
  C128     1.0000 0.72351  0.59133  0.33159  Biso   1.000  C
  H111     1.0000 0.69202  0.51078  0.27742  Biso   1.000  H
  H112     1.0000 0.52592  0.52790  0.86818  Biso   1.000  H
  C129     1.0000 0.50767  0.59402  0.95705  Biso   1.000  C
  C130     1.0000 0.60396  0.71350  0.87420  Biso   1.000  C
  C131     1.0000 0.54641  0.69633  0.97187  Biso   1.000  C
  N13      1.0000 0.71901  0.66368  0.71419  Biso   1.000  N
  C132     1.0000 0.76573  0.60763  0.64681  Biso   1.000  C
  N14      1.0000 0.66100  0.74848  0.60875  Biso   1.000  N
  C133     1.0000 0.67007  0.75319  0.46325  Biso   1.000  C
  C134     1.0000 0.74666  0.61052  0.25535  Biso   1.000  C
  H113     1.0000 0.48615  0.56622  0.97304  Biso   1.000  H
  C135     1.0000 0.51447  0.65674  0.99737  Biso   1.000  C
  C136     1.0000 0.59266  0.75780  0.80578  Biso   1.000  C
  C137     1.0000 0.64458  0.69284  0.89918  Biso   1.000  C
  H114     1.0000 0.55175  0.73942  0.99802  Biso   1.000  H
  H115     1.0000 0.69583  0.68398  0.72461  Biso   1.000  H
  C138     1.0000 0.74890  0.64242  0.77724  Biso   1.000  C
  C139     1.0000 0.77944  0.60925  0.73348  Biso   1.000  C
  H116     1.0000 0.77922  0.58667  0.60293  Biso   1.000  H
  C140     1.0000 0.64023  0.80280  0.57011  Biso   1.000  C
  H117     1.0000 0.67812  0.74048  0.40868  Biso   1.000  H
  C141     1.0000 0.64810  0.80858  0.48047  Biso   1.000  C
  C142     1.0000 0.73508  0.68297  0.22583  Biso   1.000  C
  C143     1.0000 0.73695  0.56268  0.17858  Biso   1.000  C
  C144     1.0000 0.79312  0.60672  0.28318  Biso   1.000  C
  C145     1.0000 0.48629  0.68170  0.06262  Biso   1.000  C
  N15      1.0000 0.61791  0.77800  0.74617  Biso   1.000  N
  C146     1.0000 0.55488  0.79384  0.78669  Biso   1.000  C
  N16      1.0000 0.67628  0.69775  0.84980  Biso   1.000  N
  C147     1.0000 0.65791  0.66333  0.98281  Biso   1.000  C
  C148     1.0000 0.74528  0.64717  0.86598  Biso   1.000  C
  H118     1.0000 0.80473  0.59159  0.75983  Biso   1.000  H
  C149     1.0000 0.61115  0.84103  0.60979  Biso   1.000  C
  H119     1.0000 0.63952  0.84422  0.44150  Biso   1.000  H
  H120     1.0000 0.70561  0.68520  0.20732  Biso   1.000  H
  H121     1.0000 0.75022  0.69552  0.17742  Biso   1.000  H
  H122     1.0000 0.74202  0.71441  0.27399  Biso   1.000  H
  H123     1.0000 0.74332  0.51610  0.19709  Biso   1.000  H
  H124     1.0000 0.75351  0.57518  0.13230  Biso   1.000  H
  H125     1.0000 0.70781  0.56612  0.15709  Biso   1.000  H
  H126     1.0000 0.79981  0.63300  0.33632  Biso   1.000  H
  H127     1.0000 0.80790  0.62530  0.23722  Biso   1.000  H
  H128     1.0000 0.80110  0.55939  0.29373  Biso   1.000  H
  C150     1.0000 0.44462  0.70008  0.01427  Biso   1.000  C
  C151     1.0000 0.47973  0.62551  0.12819  Biso   1.000  C
  C152     1.0000 0.50368  0.74362  0.11272  Biso   1.000  C
  H129     1.0000 0.64102  0.75678  0.73711  Biso   1.000  H
  C153     1.0000 0.59806  0.82295  0.68934  Biso   1.000  C
  C154     1.0000 0.55886  0.83561  0.71834  Biso   1.000  C
  H130     1.0000 0.53133  0.78939  0.81640  Biso   1.000  H
  C155     1.0000 0.70921  0.66930  0.89847  Biso   1.000  C
  C156     1.0000 0.69851  0.65128  0.98352  Biso   1.000  C
  H131     1.0000 0.64138  0.65421  0.02799  Biso   1.000  H
  C157     1.0000 0.77773  0.61695  0.92915  Biso   1.000  C
  C158     1.0000 0.59020  0.89976  0.56422  Biso   1.000  C
  H132     1.0000 0.43193  0.65948  0.98682  Biso   1.000  H
  H133     1.0000 0.44834  0.73400  0.96973  Biso   1.000  H
  H134     1.0000 0.42689  0.71861  0.05524  Biso   1.000  H
  H135     1.0000 0.50629  0.61052  0.15660  Biso   1.000  H
  H136     1.0000 0.46559  0.58718  0.09802  Biso   1.000  H
  H137     1.0000 0.46309  0.64312  0.17181  Biso   1.000  H
  H138     1.0000 0.53059  0.73248  0.14320  Biso   1.000  H
  H139     1.0000 0.48510  0.75709  0.15472  Biso   1.000  H
  H140     1.0000 0.50649  0.78098  0.07233  Biso   1.000  H
  H141     1.0000 0.53913  0.86751  0.69419  Biso   1.000  H
  H142     1.0000 0.71648  0.63432  0.03071  Biso   1.000  H
  C159     1.0000 0.79888  0.65654  0.99401  Biso   1.000  C
  C160     1.0000 0.78584  0.54759  0.92721  Biso   1.000  C
  C161     1.0000 0.56832  0.89419  0.48234  Biso   1.000  C
  C162     1.0000 0.59221  0.96284  0.60552  Biso   1.000  C
  H143     1.0000 0.79354  0.70368  0.99588  Biso   1.000  H
  C163     1.0000 0.82748  0.62773  0.05563  Biso   1.000  C
  C164     1.0000 0.81361  0.51737  0.98935  Biso   1.000  C
  H144     1.0000 0.77205  0.52061  0.88242  Biso   1.000  H
  H145     1.0000 0.56602  0.85131  0.45458  Biso   1.000  H
  C165     1.0000 0.54984  0.94998  0.44105  Biso   1.000  C
  H146     1.0000 0.60624  0.96699  0.66222  Biso   1.000  H
  C166     1.0000 0.57393  0.01949  0.56448  Biso   1.000  C
  H147     1.0000 0.84248  0.65492  0.09861  Biso   1.000  H
  C167     1.0000 0.83372  0.55832  0.05278  Biso   1.000  C
  H148     1.0000 0.81864  0.46998  0.98844  Biso   1.000  H
  H149     1.0000 0.53512  0.94598  0.38512  Biso   1.000  H
  C168     1.0000 0.55330  0.01185  0.48318  Biso   1.000  C
  H150     1.0000 0.57573  0.06247  0.59199  Biso   1.000  H
  N17      1.0000 0.86142  0.52638  0.12165  Biso   1.000  N
  N18      1.0000 0.53377  0.07159  0.43924  Biso   1.000  N
  O15      1.0000 0.88596  0.56237  0.16540  Biso   1.000  O
  O16      1.0000 0.85831  0.46512  0.13239  Biso   1.000  O
  O17      1.0000 0.53831  0.12652  0.47483  Biso   1.000  O
  O18      1.0000 0.51389  0.06283  0.36868  Biso   1.000  O
  C169     1.0000 0.39266  0.50699  0.38266  Biso   1.000  C
  C170     1.0000 0.37748  0.49068  0.46856  Biso   1.000  C
  H151     1.0000 0.37432  0.54131  0.35250  Biso   1.000  H
  H152     1.0000 0.42031  0.52729  0.39373  Biso   1.000  H
  C171     1.0000 0.39483  0.44608  0.32324  Biso   1.000  C
  O19      1.0000 0.33889  0.45595  0.45425  Biso   1.000  O
  H153     1.0000 0.37412  0.53311  0.50098  Biso   1.000  H
  H154     1.0000 0.39771  0.46188  0.50338  Biso   1.000  H
  H155     1.0000 0.36672  0.43322  0.29930  Biso   1.000  H
  H156     1.0000 0.40691  0.40740  0.35761  Biso   1.000  H
  C172     1.0000 0.42006  0.45945  0.24881  Biso   1.000  C
  C173     1.0000 0.31942  0.44163  0.52636  Biso   1.000  C
  O20      1.0000 0.41161  0.40528  0.18997  Biso   1.000  O
  H157     1.0000 0.44961  0.46092  0.26997  Biso   1.000  H
  H158     1.0000 0.41220  0.50319  0.22059  Biso   1.000  H
  C174     1.0000 0.29309  0.38477  0.52176  Biso   1.000  C
  C175     1.0000 0.32437  0.48026  0.60118  Biso   1.000  C
  C176     1.0000 0.43723  0.38897  0.12926  Biso   1.000  C
  C177     1.0000 0.29470  0.33946  0.44487  Biso   1.000  C
  C178     1.0000 0.27172  0.37024  0.59193  Biso   1.000  C
  C179     1.0000 0.30359  0.46299  0.67115  Biso   1.000  C
  H159     1.0000 0.34202  0.51848  0.60468  Biso   1.000  H
  C180     1.0000 0.42950  0.32544  0.09042  Biso   1.000  C
  C181     1.0000 0.46874  0.42917  0.10550  Biso   1.000  C
  C182     1.0000 0.27241  0.35693  0.36558  Biso   1.000  C
  C183     1.0000 0.32119  0.28301  0.45548  Biso   1.000  C
  H160     1.0000 0.25321  0.33308  0.58791  Biso   1.000  H
  C184     1.0000 0.27654  0.40867  0.66837  Biso   1.000  C
  H161     1.0000 0.30803  0.48922  0.72261  Biso   1.000  H
  C185     1.0000 0.39609  0.28650  0.12583  Biso   1.000  C
  C186     1.0000 0.45361  0.30367  0.02816  Biso   1.000  C
  H162     1.0000 0.47409  0.47210  0.13178  Biso   1.000  H
  C187     1.0000 0.49238  0.40598  0.04291  Biso   1.000  C
  N19      1.0000 0.28104  0.33632  0.28583  Biso   1.000  N
  C188     1.0000 0.23431  0.39237  0.35315  Biso   1.000  C
  N20      1.0000 0.33904  0.25152  0.39121  Biso   1.000  N
  C189     1.0000 0.32998  0.24681  0.53678  Biso   1.000  C
  C190     1.0000 0.25339  0.38948  0.74468  Biso   1.000  C
  C191     1.0000 0.35547  0.30716  0.10084  Biso   1.000  C
  C192     1.0000 0.40739  0.24220  0.19424  Biso   1.000  C
  C193     1.0000 0.48558  0.34326  0.00265  Biso   1.000  C
  H163     1.0000 0.44830  0.26058  0.00201  Biso   1.000  H
  H164     1.0000 0.51390  0.43378  0.02699  Biso   1.000  H
  H165     1.0000 0.30422  0.31602  0.27541  Biso   1.000  H
  C194     1.0000 0.25115  0.35758  0.22272  Biso   1.000  C
  C195     1.0000 0.22061  0.39075  0.26648  Biso   1.000  C
  H166     1.0000 0.22083  0.41333  0.39710  Biso   1.000  H
  C196     1.0000 0.35978  0.19720  0.42991  Biso   1.000  C
  H167     1.0000 0.32192  0.25952  0.59128  Biso   1.000  H
  C197     1.0000 0.35195  0.19142  0.51956  Biso   1.000  C
  C198     1.0000 0.26497  0.31703  0.77413  Biso   1.000  C
  C199     1.0000 0.26310  0.43732  0.82145  Biso   1.000  C
  C200     1.0000 0.20693  0.39328  0.71685  Biso   1.000  C
  N21      1.0000 0.32377  0.30225  0.15017  Biso   1.000  N
  C201     1.0000 0.34214  0.33667  0.01722  Biso   1.000  C
  N22      1.0000 0.38213  0.22200  0.25379  Biso   1.000  N
  C202     1.0000 0.44516  0.20616  0.21327  Biso   1.000  C
  C203     1.0000 0.51376  0.31830  0.93741  Biso   1.000  C
  C204     1.0000 0.25474  0.35283  0.13398  Biso   1.000  C
  H168     1.0000 0.19532  0.40841  0.24020  Biso   1.000  H
  C205     1.0000 0.38890  0.15897  0.39024  Biso   1.000  C
  H169     1.0000 0.36053  0.15578  0.55853  Biso   1.000  H
  H170     1.0000 0.29444  0.31480  0.79271  Biso   1.000  H
  H171     1.0000 0.24983  0.30448  0.82261  Biso   1.000  H
  H172     1.0000 0.25803  0.28559  0.72604  Biso   1.000  H
  H173     1.0000 0.25673  0.48390  0.80293  Biso   1.000  H
  H174     1.0000 0.24654  0.42482  0.86773  Biso   1.000  H
  H175     1.0000 0.29224  0.43388  0.84294  Biso   1.000  H
  H176     1.0000 0.20021  0.36700  0.66371  Biso   1.000  H
  H177     1.0000 0.19212  0.37470  0.76280  Biso   1.000  H
  H178     1.0000 0.19892  0.44061  0.70630  Biso   1.000  H
  C206     1.0000 0.29084  0.33070  0.10156  Biso   1.000  C
  C207     1.0000 0.30153  0.34872  0.01644  Biso   1.000  C
  H179     1.0000 0.35866  0.34579  0.97197  Biso   1.000  H
  C208     1.0000 0.40196  0.17705  0.31069  Biso   1.000  C
  H180     1.0000 0.35900  0.24322  0.26292  Biso   1.000  H
  C209     1.0000 0.44119  0.16439  0.28163  Biso   1.000  C
  H181     1.0000 0.46872  0.21061  0.18363  Biso   1.000  H
  C210     1.0000 0.55543  0.29992  0.98576  Biso   1.000  C
  C211     1.0000 0.52031  0.37449  0.87178  Biso   1.000  C
  C212     1.0000 0.49637  0.25638  0.88731  Biso   1.000  C
  C213     1.0000 0.22232  0.38305  0.07081  Biso   1.000  C
  C214     1.0000 0.40985  0.10024  0.43574  Biso   1.000  C
  H182     1.0000 0.28357  0.36568  0.96932  Biso   1.000  H
  H183     1.0000 0.46092  0.13249  0.30583  Biso   1.000  H
  H184     1.0000 0.56809  0.34052  0.01320  Biso   1.000  H
  H185     1.0000 0.55172  0.26600  0.03029  Biso   1.000  H
  H186     1.0000 0.57316  0.28139  0.94479  Biso   1.000  H
  H187     1.0000 0.49376  0.38948  0.84343  Biso   1.000  H
  H188     1.0000 0.53446  0.41282  0.90200  Biso   1.000  H
  H189     1.0000 0.53696  0.35688  0.82822  Biso   1.000  H
  H190     1.0000 0.46946  0.26752  0.85682  Biso   1.000  H
  H191     1.0000 0.51495  0.24291  0.84530  Biso   1.000  H
  H192     1.0000 0.49356  0.21902  0.92770  Biso   1.000  H
  C215     1.0000 0.20117  0.34346  0.00602  Biso   1.000  C
  C216     1.0000 0.21421  0.45241  0.07282  Biso   1.000  C
  C217     1.0000 0.43173  0.10581  0.51762  Biso   1.000  C
  C218     1.0000 0.40784  0.03716  0.39444  Biso   1.000  C
  H193     1.0000 0.20651  0.29632  0.00408  Biso   1.000  H
  C219     1.0000 0.17254  0.37227  0.94440  Biso   1.000  C
  C220     1.0000 0.18644  0.48263  0.01068  Biso   1.000  C
  H194     1.0000 0.22800  0.47939  0.11761  Biso   1.000  H
  H195     1.0000 0.43403  0.14869  0.54539  Biso   1.000  H
  C221     1.0000 0.45021  0.05002  0.55891  Biso   1.000  C
  H196     1.0000 0.39381  0.03301  0.33781  Biso   1.000  H
  C222     1.0000 0.42612  0.98051  0.43548  Biso   1.000  C
  H197     1.0000 0.15757  0.34508  0.90142  Biso   1.000  H
  C223     1.0000 0.16633  0.44168  0.94725  Biso   1.000  C
  H198     1.0000 0.18141  0.53002  0.01159  Biso   1.000  H
  H199     1.0000 0.46493  0.05402  0.61490  Biso   1.000  H
  C224     1.0000 0.44675  0.98815  0.51684  Biso   1.000  C
  H200     1.0000 0.42432  0.93753  0.40797  Biso   1.000  H
  N23      1.0000 0.13863  0.47362  0.87831  Biso   1.000  N
  N24      1.0000 0.46628  0.92841  0.56079  Biso   1.000  N
  O21      1.0000 0.11409  0.43763  0.83462  Biso   1.000  O
  O22      1.0000 0.14174  0.53488  0.86763  Biso   1.000  O
  O23      1.0000 0.46174  0.87348  0.52519  Biso   1.000  O
  O24      1.0000 0.48616  0.93717  0.63128  Biso   1.000  O
  C225     1.0000 0.67250  0.12773  0.44435  Biso   1.000  C
  C226     1.0000 0.66627  0.05832  0.44726  Biso   1.000  C
  C227     1.0000 0.70119  0.15654  0.50603  Biso   1.000  C
  H201     1.0000 0.65753  0.15492  0.40143  Biso   1.000  H
  N25      1.0000 0.63856  0.02638  0.37833  Biso   1.000  N
  C228     1.0000 0.68647  0.01737  0.51069  Biso   1.000  C
  C229     1.0000 0.72235  0.11695  0.57082  Biso   1.000  C
  H202     1.0000 0.70654  0.20368  0.50409  Biso   1.000  H
  O25      1.0000 0.61406  0.06237  0.33464  Biso   1.000  O
  O26      1.0000 0.64171  0.96512  0.36765  Biso   1.000  O
  C230     1.0000 0.71424  0.04759  0.57283  Biso   1.000  C
  H203     1.0000 0.68143  0.96998  0.51160  Biso   1.000  H
  C231     1.0000 0.75477  0.14717  0.63400  Biso   1.000  C
  H204     1.0000 0.72803  0.02061  0.61762  Biso   1.000  H
  C232     1.0000 0.75117  0.14242  0.72274  Biso   1.000  C
  C233     1.0000 0.79087  0.16930  0.60157  Biso   1.000  C
  N26      1.0000 0.78106  0.16368  0.78585  Biso   1.000  N
  C234     1.0000 0.72063  0.10925  0.76649  Biso   1.000  C
  N27      1.0000 0.82379  0.19775  0.65018  Biso   1.000  N
  C235     1.0000 0.80156  0.15128  0.51645  Biso   1.000  C
  H205     1.0000 0.80425  0.18398  0.77543  Biso   1.000  H
  C236     1.0000 0.77243  0.14307  0.86559  Biso   1.000  C
  H206     1.0000 0.69532  0.09159  0.74021  Biso   1.000  H
  C237     1.0000 0.73434  0.10763  0.85316  Biso   1.000  C
  C238     1.0000 0.85550  0.19284  0.60086  Biso   1.000  C
  C239     1.0000 0.84216  0.16333  0.51717  Biso   1.000  C
  H207     1.0000 0.78353  0.13432  0.46933  Biso   1.000  H
  C240     1.0000 0.79472  0.16054  0.94482  Biso   1.000  C
  H208     1.0000 0.72085  0.08667  0.89711  Biso   1.000  H
  C241     1.0000 0.89611  0.21350  0.62584  Biso   1.000  C
  H209     1.0000 0.85863  0.15421  0.47199  Biso   1.000  H
  C242     1.0000 0.82121  0.21699  0.95549  Biso   1.000  C
  C243     1.0000 0.79305  0.11523  0.02171  Biso   1.000  C
  C244     1.0000 0.90739  0.25780  0.69426  Biso   1.000  C
  C245     1.0000 0.92953  0.17456  0.59037  Biso   1.000  C
  N28      1.0000 0.83907  0.24848  0.89122  Biso   1.000  N
  C246     1.0000 0.82995  0.25319  0.03679  Biso   1.000  C
  C247     1.0000 0.77168  0.12976  0.09194  Biso   1.000  C
  C248     1.0000 0.81935  0.05837  0.02637  Biso   1.000  C
  N29      1.0000 0.88216  0.27800  0.75381  Biso   1.000  N
  C249     1.0000 0.94516  0.29384  0.71329  Biso   1.000  C
  C250     1.0000 0.93722  0.11103  0.62921  Biso   1.000  C
  C251     1.0000 0.95364  0.19633  0.52817  Biso   1.000  C
  C252     1.0000 0.85981  0.30280  0.92993  Biso   1.000  C
  H210     1.0000 0.82189  0.24048  0.09129  Biso   1.000  H
  C253     1.0000 0.85191  0.30858  0.01951  Biso   1.000  C
  H211     1.0000 0.75318  0.16692  0.08793  Biso   1.000  H
  C254     1.0000 0.77647  0.09133  0.16838  Biso   1.000  C
  O27      1.0000 0.83892  0.04405  0.95427  Biso   1.000  O
  C255     1.0000 0.82433  0.01974  0.10119  Biso   1.000  C
  H212     1.0000 0.85903  0.25678  0.76293  Biso   1.000  H
  C256     1.0000 0.90198  0.32295  0.81070  Biso   1.000  C
  C257     1.0000 0.94121  0.33561  0.78164  Biso   1.000  C
  H213     1.0000 0.96871  0.28939  0.68358  Biso   1.000  H
  O28      1.0000 0.91163  0.09472  0.68999  Biso   1.000  O
  C258     1.0000 0.96877  0.07083  0.60552  Biso   1.000  C
  C259     1.0000 0.98560  0.15674  0.50267  Biso   1.000  C
  H214     1.0000 0.94832  0.23942  0.50202  Biso   1.000  H
  C260     1.0000 0.88889  0.34103  0.89025  Biso   1.000  C
  H215     1.0000 0.86050  0.34422  0.05854  Biso   1.000  H
  C261     1.0000 0.80355  0.03701  0.17116  Biso   1.000  C
  C262     1.0000 0.75335  0.11052  0.24469  Biso   1.000  C
  C263     1.0000 0.87750  0.00932  0.96850  Biso   1.000  C
  H216     1.0000 0.84198  0.98152  0.10469  Biso   1.000  H
  H217     1.0000 0.96094  0.36751  0.80578  Biso   1.000  H
  C264     1.0000 0.92008  0.04055  0.74882  Biso   1.000  C
  H218     1.0000 0.97412  0.02790  0.63180  Biso   1.000  H
  C265     1.0000 0.99240  0.09402  0.54293  Biso   1.000  C
  C266     1.0000 0.01372  0.18170  0.43742  Biso   1.000  C
  C267     1.0000 0.90984  0.39976  0.93575  Biso   1.000  C
  H219     1.0000 0.80799  0.01078  0.22262  Biso   1.000  H
  C268     1.0000 0.76493  0.18297  0.27414  Biso   1.000  C
  C269     1.0000 0.76306  0.06268  0.32139  Biso   1.000  C
  C270     1.0000 0.70687  0.10672  0.21686  Biso   1.000  C
  C271     1.0000 0.89269  0.99301  0.88268  Biso   1.000  C
  H220     1.0000 0.87409  0.96689  0.00100  Biso   1.000  H
  H221     1.0000 0.89768  0.03812  0.00339  Biso   1.000  H
  C272     1.0000 0.89486  0.05392  0.82326  Biso   1.000  C
  H222     1.0000 0.94963  0.03908  0.76999  Biso   1.000  H
  H223     1.0000 0.91222  0.99681  0.72060  Biso   1.000  H
  H224     1.0000 0.01392  0.06622  0.52700  Biso   1.000  H
  C273     1.0000 0.99633  0.24362  0.38732  Biso   1.000  C
  C274     1.0000 0.05540  0.20008  0.48577  Biso   1.000  C
  C275     1.0000 0.02028  0.12551  0.37179  Biso   1.000  C
  C276     1.0000 0.90783  0.46284  0.89446  Biso   1.000  C
  C277     1.0000 0.93169  0.39419  0.01763  Biso   1.000  C
  H225     1.0000 0.79440  0.18520  0.29272  Biso   1.000  H
  H226     1.0000 0.74980  0.19552  0.32262  Biso   1.000  H
  H227     1.0000 0.75799  0.21441  0.22599  Biso   1.000  H
  H228     1.0000 0.75669  0.01610  0.30288  Biso   1.000  H
  H229     1.0000 0.74650  0.07518  0.36774  Biso   1.000  H
  H230     1.0000 0.79220  0.06612  0.34288  Biso   1.000  H
  H231     1.0000 0.70018  0.13300  0.16372  Biso   1.000  H
  H232     1.0000 0.69209  0.12530  0.26282  Biso   1.000  H
  H233     1.0000 0.69888  0.05939  0.20631  Biso   1.000  H
  H234     1.0000 0.87435  0.95869  0.85251  Biso   1.000  H
  H235     1.0000 0.92033  0.97271  0.89368  Biso   1.000  H
  H236     1.0000 0.86674  0.06678  0.79931  Biso   1.000  H
  H237     1.0000 0.90694  0.09260  0.85763  Biso   1.000  H
  H238     1.0000 0.96942  0.23248  0.35677  Biso   1.000  H
  H239     1.0000 0.99352  0.28098  0.42771  Biso   1.000  H
  H240     1.0000 0.01492  0.25709  0.34532  Biso   1.000  H
  H241     1.0000 0.07312  0.21861  0.44480  Biso   1.000  H
  H242     1.0000 0.06812  0.15948  0.51322  Biso   1.000  H
  H243     1.0000 0.05171  0.23400  0.53031  Biso   1.000  H
  H244     1.0000 0.99372  0.11052  0.34337  Biso   1.000  H
  H245     1.0000 0.03442  0.08718  0.40202  Biso   1.000  H
  H246     1.0000 0.03692  0.14312  0.32823  Biso   1.000  H
  C278     1.0000 0.92614  0.51949  0.93549  Biso   1.000  C
  H247     1.0000 0.89384  0.46699  0.83782  Biso   1.000  H
  H248     1.0000 0.93399  0.35131  0.04540  Biso   1.000  H
  C279     1.0000 0.95017  0.44998  0.05893  Biso   1.000  C
  H249     1.0000 0.92434  0.56253  0.90799  Biso   1.000  H
  C280     1.0000 0.94672  0.51185  0.01686  Biso   1.000  C
  H250     1.0000 0.96489  0.44598  0.11492  Biso   1.000  H
  N30      1.0000 0.96625  0.57159  0.06081  Biso   1.000  N
  O29      1.0000 0.96171  0.62652  0.02521  Biso   1.000  O
  O30      1.0000 0.98612  0.56283  0.13129  Biso   1.000  O
  C281     1.0000 0.32754  0.87227  0.55561  Biso   1.000  C
  C282     1.0000 0.29886  0.84346  0.49399  Biso   1.000  C
  H251     1.0000 0.34252  0.84508  0.59859  Biso   1.000  H
  C283     1.0000 0.33375  0.94168  0.55277  Biso   1.000  C
  C284     1.0000 0.27770  0.88305  0.42920  Biso   1.000  C
  H252     1.0000 0.29352  0.79632  0.49594  Biso   1.000  H
  C285     1.0000 0.31358  0.98263  0.48933  Biso   1.000  C
  N31      1.0000 0.36145  0.97362  0.62163  Biso   1.000  N
  C286     1.0000 0.24525  0.85283  0.36596  Biso   1.000  C
  C287     1.0000 0.28581  0.95241  0.42720  Biso   1.000  C
  H253     1.0000 0.31862  0.03002  0.48843  Biso   1.000  H
  O31      1.0000 0.38599  0.93763  0.66539  Biso   1.000  O
  O32      1.0000 0.35834  0.03488  0.63238  Biso   1.000  O
  C288     1.0000 0.24888  0.85758  0.27729  Biso   1.000  C
  C289     1.0000 0.20918  0.83070  0.39846  Biso   1.000  C
  H254     1.0000 0.27202  0.97939  0.38241  Biso   1.000  H
  N32      1.0000 0.21899  0.83632  0.21418  Biso   1.000  N
  C290     1.0000 0.27942  0.89075  0.23353  Biso   1.000  C
  N33      1.0000 0.17626  0.80225  0.34985  Biso   1.000  N
  C291     1.0000 0.19849  0.84872  0.48351  Biso   1.000  C
  C292     1.0000 0.22762  0.85693  0.13444  Biso   1.000  C
  H255     1.0000 0.19580  0.81602  0.22460  Biso   1.000  H
  C293     1.0000 0.26571  0.89237  0.14680  Biso   1.000  C
  H256     1.0000 0.30470  0.90841  0.25981  Biso   1.000  H
  C294     1.0000 0.14455  0.80716  0.39917  Biso   1.000  C
  C295     1.0000 0.15788  0.83667  0.48280  Biso   1.000  C
  H257     1.0000 0.21652  0.86568  0.53069  Biso   1.000  H
  C296     1.0000 0.20533  0.83946  0.05515  Biso   1.000  C
  H258     1.0000 0.27920  0.91333  0.10292  Biso   1.000  H
  C297     1.0000 0.10394  0.78650  0.37418  Biso   1.000  C
  H259     1.0000 0.14142  0.84579  0.52798  Biso   1.000  H
  C298     1.0000 0.17881  0.78301  0.04453  Biso   1.000  C
  C299     1.0000 0.20699  0.88477  0.97825  Biso   1.000  C
  C300     1.0000 0.09263  0.74220  0.30577  Biso   1.000  C
  C301     1.0000 0.07049  0.82544  0.40959  Biso   1.000  C
  N34      1.0000 0.16098  0.75152  0.10881  Biso   1.000  N
  C302     1.0000 0.17010  0.74681  0.96324  Biso   1.000  C
  C303     1.0000 0.22837  0.87024  0.90809  Biso   1.000  C
  C304     1.0000 0.18067  0.94163  0.97366  Biso   1.000  C
  N35      1.0000 0.11789  0.72200  0.24616  Biso   1.000  N
  C305     1.0000 0.05486  0.70616  0.28674  Biso   1.000  C
  C306     1.0000 0.06280  0.88897  0.37075  Biso   1.000  C
  C307     1.0000 0.04641  0.80367  0.47186  Biso   1.000  C
  C308     1.0000 0.14021  0.69720  0.07010  Biso   1.000  C
  C309     1.0000 0.14813  0.69142  0.98045  Biso   1.000  C
  H260     1.0000 0.17816  0.75952  0.90867  Biso   1.000  H
  H261     1.0000 0.24687  0.83308  0.91210  Biso   1.000  H
  C310     1.0000 0.22355  0.90867  0.83165  Biso   1.000  C
  O33      1.0000 0.16110  0.95595  0.04576  Biso   1.000  O
  C311     1.0000 0.17572  0.98026  0.89883  Biso   1.000  C
  C312     1.0000 0.09807  0.67705  0.18933  Biso   1.000  C
  H262     1.0000 0.14102  0.74322  0.23709  Biso   1.000  H
  C313     1.0000 0.05883  0.66439  0.21832  Biso   1.000  C
  H263     1.0000 0.03130  0.71061  0.31638  Biso   1.000  H
  O34      1.0000 0.08842  0.90528  0.31004  Biso   1.000  O
  C314     1.0000 0.03128  0.92917  0.39444  Biso   1.000  C
  C315     1.0000 0.01445  0.84326  0.49736  Biso   1.000  C
  H264     1.0000 0.05173  0.76058  0.49801  Biso   1.000  H
  C316     1.0000 0.11113  0.65897  0.10978  Biso   1.000  C
  H265     1.0000 0.13955  0.65578  0.94149  Biso   1.000  H
  C317     1.0000 0.19650  0.96299  0.82886  Biso   1.000  C
  C318     1.0000 0.24670  0.88948  0.75533  Biso   1.000  C
  C319     1.0000 0.12254  0.99068  0.03146  Biso   1.000  C
  H266     1.0000 0.15806  0.01848  0.89527  Biso   1.000  H
  H267     1.0000 0.03911  0.63249  0.19418  Biso   1.000  H
  C320     1.0000 0.07997  0.95945  0.25120  Biso   1.000  C
  H268     1.0000 0.02590  0.97210  0.36823  Biso   1.000  H
  C321     1.0000 0.00765  0.90598  0.45710  Biso   1.000  C
  C322     1.0000 0.98633  0.81830  0.56260  Biso   1.000  C
  C323     1.0000 0.09017  0.60024  0.06421  Biso   1.000  C
  H269     1.0000 0.19206  0.98922  0.77741  Biso   1.000  H
  C324     1.0000 0.23511  0.81703  0.72582  Biso   1.000  C
  C325     1.0000 0.23699  0.93732  0.67857  Biso   1.000  C
  C326     1.0000 0.29315  0.89328  0.78317  Biso   1.000  C
  H270     1.0000 0.10237  0.96188  0.99657  Biso   1.000  H
  H271     1.0000 0.12596  0.03311  0.99903  Biso   1.000  H
  C327     1.0000 0.10736  0.00699  0.11735  Biso   1.000  C
  C328     1.0000 0.10519  0.94608  0.17677  Biso   1.000  C
  H272     1.0000 0.05041  0.96092  0.22997  Biso   1.000  H
  H273     1.0000 0.08783  0.00319  0.27942  Biso   1.000  H
  H274     1.0000 0.98613  0.93378  0.47302  Biso   1.000  H
  C329     1.0000 0.00372  0.75638  0.61270  Biso   1.000  C
  C330     1.0000 0.94465  0.79992  0.51425  Biso   1.000  C
  C331     1.0000 0.97977  0.87449  0.62817  Biso   1.000  C
  C332     1.0000 0.09219  0.53716  0.10557  Biso   1.000  C
  C333     1.0000 0.06836  0.60581  0.98239  Biso   1.000  C
  H275     1.0000 0.20565  0.81480  0.70731  Biso   1.000  H
  H276     1.0000 0.25025  0.80448  0.67740  Biso   1.000  H
  H277     1.0000 0.24206  0.78559  0.77397  Biso   1.000  H
  H278     1.0000 0.24336  0.98390  0.69708  Biso   1.000  H
  H279     1.0000 0.25355  0.92482  0.63229  Biso   1.000  H
  H280     1.0000 0.20785  0.93388  0.65708  Biso   1.000  H
  H281     1.0000 0.29984  0.86700  0.83631  Biso   1.000  H
  H282     1.0000 0.30796  0.87470  0.73721  Biso   1.000  H
  H283     1.0000 0.30114  0.94061  0.79372  Biso   1.000  H
  H284     1.0000 0.12570  0.04131  0.14751  Biso   1.000  H
  H285     1.0000 0.07972  0.02729  0.10628  Biso   1.000  H
  H286     1.0000 0.13331  0.93322  0.20072  Biso   1.000  H
  H287     1.0000 0.09311  0.90740  0.14240  Biso   1.000  H
  H288     1.0000 0.03063  0.76752  0.64319  Biso   1.000  H
  H289     1.0000 0.00653  0.71902  0.57231  Biso   1.000  H
  H290     1.0000 0.98513  0.74291  0.65471  Biso   1.000  H
  H291     1.0000 0.92693  0.78139  0.55523  Biso   1.000  H
  H292     1.0000 0.93193  0.84052  0.48681  Biso   1.000  H
  H293     1.0000 0.94831  0.76600  0.46972  Biso   1.000  H
  H294     1.0000 0.00632  0.88948  0.65659  Biso   1.000  H
  H295     1.0000 0.96563  0.91282  0.59801  Biso   1.000  H
  H296     1.0000 0.96313  0.85688  0.67180  Biso   1.000  H
  C334     1.0000 0.07391  0.48051  0.06453  Biso   1.000  C
  H297     1.0000 0.10621  0.53301  0.16221  Biso   1.000  H
  C335     1.0000 0.04988  0.55002  0.94103  Biso   1.000  C
  H298     1.0000 0.06606  0.64869  0.95463  Biso   1.000  H
  H299     1.0000 0.07570  0.43747  0.09198  Biso   1.000  H
  C336     1.0000 0.05333  0.48815  0.98317  Biso   1.000  C
  H300     1.0000 0.03516  0.55402  0.88511  Biso   1.000  H
  N36      1.0000 0.03380  0.42841  0.93922  Biso   1.000  N
  O35      1.0000 0.03834  0.37348  0.97482  Biso   1.000  O
  O36      1.0000 0.01393  0.43717  0.86873  Biso   1.000  O
  C337     1.0000 0.70692  0.89328  0.71685  Biso   1.000  C
  C338     1.0000 0.75341  0.88948  0.74468  Biso   1.000  C
  H301     1.0000 0.70023  0.86700  0.66371  Biso   1.000  H
  H302     1.0000 0.69214  0.87470  0.76280  Biso   1.000  H
  H303     1.0000 0.69893  0.94061  0.70630  Biso   1.000  H
  C339     1.0000 0.77652  0.90867  0.66837  Biso   1.000  C
  C340     1.0000 0.76498  0.81703  0.77413  Biso   1.000  C
  C341     1.0000 0.76312  0.93732  0.82145  Biso   1.000  C
  C342     1.0000 0.77173  0.87024  0.59193  Biso   1.000  C
  C343     1.0000 0.80360  0.96299  0.67115  Biso   1.000  C
  H304     1.0000 0.79442  0.81480  0.79271  Biso   1.000  H
  H305     1.0000 0.74985  0.80448  0.82261  Biso   1.000  H
  H306     1.0000 0.75804  0.78559  0.72604  Biso   1.000  H
  H307     1.0000 0.75675  0.98390  0.80293  Biso   1.000  H
  H308     1.0000 0.74653  0.92482  0.86773  Biso   1.000  H
  H309     1.0000 0.79222  0.93388  0.84294  Biso   1.000  H
  C344     1.0000 0.79311  0.88477  0.52176  Biso   1.000  C
  H310     1.0000 0.75323  0.83308  0.58791  Biso   1.000  H
  C345     1.0000 0.82435  0.98026  0.60118  Biso   1.000  C
  H311     1.0000 0.80804  0.98922  0.72261  Biso   1.000  H
  C346     1.0000 0.79468  0.83946  0.44487  Biso   1.000  C
  C347     1.0000 0.81940  0.94163  0.52636  Biso   1.000  C
  H312     1.0000 0.84204  0.01848  0.60468  Biso   1.000  H
  C348     1.0000 0.77239  0.85693  0.36558  Biso   1.000  C
  C349     1.0000 0.82120  0.78301  0.45548  Biso   1.000  C
  O37      1.0000 0.83891  0.95595  0.45425  Biso   1.000  O
  N37      1.0000 0.78102  0.83632  0.28583  Biso   1.000  N
  C350     1.0000 0.73430  0.89237  0.35315  Biso   1.000  C
  N38      1.0000 0.83903  0.75152  0.39121  Biso   1.000  N
  C351     1.0000 0.82997  0.74681  0.53678  Biso   1.000  C
  C352     1.0000 0.87747  0.99068  0.46856  Biso   1.000  C
  C353     1.0000 0.75113  0.85758  0.22272  Biso   1.000  C
  H313     1.0000 0.80421  0.81602  0.27541  Biso   1.000  H
  C354     1.0000 0.72062  0.89075  0.26648  Biso   1.000  C
  H314     1.0000 0.72081  0.91333  0.39710  Biso   1.000  H
  C355     1.0000 0.85980  0.69720  0.42991  Biso   1.000  C
  H315     1.0000 0.82191  0.75952  0.59128  Biso   1.000  H
  C356     1.0000 0.85197  0.69142  0.51956  Biso   1.000  C
  H316     1.0000 0.89773  0.96188  0.50338  Biso   1.000  H
  H317     1.0000 0.87411  0.03311  0.50098  Biso   1.000  H
  C357     1.0000 0.89268  0.00699  0.38266  Biso   1.000  C
  C358     1.0000 0.75476  0.85283  0.13398  Biso   1.000  C
  H318     1.0000 0.69531  0.90841  0.24020  Biso   1.000  H
  C359     1.0000 0.88888  0.65897  0.39024  Biso   1.000  C
  H319     1.0000 0.86052  0.65578  0.55853  Biso   1.000  H
  C360     1.0000 0.89485  0.94608  0.32324  Biso   1.000  C
  H320     1.0000 0.87431  0.04131  0.35250  Biso   1.000  H
  H321     1.0000 0.92032  0.02729  0.39373  Biso   1.000  H
  C361     1.0000 0.72234  0.88305  0.07081  Biso   1.000  C
  C362     1.0000 0.79086  0.83070  0.10156  Biso   1.000  C
  C363     1.0000 0.90197  0.67705  0.31069  Biso   1.000  C
  C364     1.0000 0.90983  0.60024  0.43574  Biso   1.000  C
  C365     1.0000 0.92007  0.95945  0.24881  Biso   1.000  C
  H322     1.0000 0.86670  0.93322  0.29930  Biso   1.000  H
  H323     1.0000 0.90693  0.90740  0.35761  Biso   1.000  H
  C366     1.0000 0.70118  0.84346  0.00602  Biso   1.000  C
  C367     1.0000 0.71423  0.95241  0.07282  Biso   1.000  C
  N39      1.0000 0.82375  0.80225  0.15017  Biso   1.000  N
  C368     1.0000 0.80155  0.84872  0.01644  Biso   1.000  C
  N40      1.0000 0.88212  0.72200  0.25379  Biso   1.000  N
  C369     1.0000 0.94120  0.66439  0.28163  Biso   1.000  C
  C370     1.0000 0.93175  0.60581  0.51762  Biso   1.000  C
  C371     1.0000 0.90782  0.53716  0.39444  Biso   1.000  C
  O38      1.0000 0.91162  0.90528  0.18997  Biso   1.000  O
  H324     1.0000 0.94962  0.96092  0.26997  Biso   1.000  H
  H325     1.0000 0.91221  0.00319  0.22059  Biso   1.000  H
  H326     1.0000 0.70649  0.79632  0.00408  Biso   1.000  H
  C372     1.0000 0.67256  0.87227  0.94440  Biso   1.000  C
  C373     1.0000 0.68643  0.98263  0.01068  Biso   1.000  C
  H327     1.0000 0.72802  0.97939  0.11761  Biso   1.000  H
  C374     1.0000 0.85549  0.80716  0.10084  Biso   1.000  C
  C375     1.0000 0.84216  0.83667  0.01722  Biso   1.000  C
  H328     1.0000 0.78356  0.86568  0.96932  Biso   1.000  H
  C376     1.0000 0.90738  0.74220  0.19424  Biso   1.000  C
  H329     1.0000 0.85902  0.74322  0.26292  Biso   1.000  H
  C377     1.0000 0.94515  0.70616  0.21327  Biso   1.000  C
  H330     1.0000 0.96090  0.63249  0.30583  Biso   1.000  H
  H331     1.0000 0.93401  0.64869  0.54539  Biso   1.000  H
  C378     1.0000 0.95019  0.55002  0.55891  Biso   1.000  C
  C379     1.0000 0.92610  0.48051  0.43548  Biso   1.000  C
  H332     1.0000 0.89383  0.53301  0.33781  Biso   1.000  H
  C380     1.0000 0.93721  0.88897  0.12926  Biso   1.000  C
  H333     1.0000 0.65755  0.84508  0.90142  Biso   1.000  H
  C381     1.0000 0.66632  0.94168  0.94725  Biso   1.000  C
  H334     1.0000 0.68139  0.03002  0.01159  Biso   1.000  H
  C382     1.0000 0.89607  0.78650  0.12583  Biso   1.000  C
  H335     1.0000 0.85865  0.84579  0.97197  Biso   1.000  H
  H336     1.0000 0.96871  0.71061  0.18363  Biso   1.000  H
  H337     1.0000 0.96491  0.55402  0.61490  Biso   1.000  H
  C383     1.0000 0.94677  0.48815  0.51684  Biso   1.000  C
  H338     1.0000 0.92430  0.43747  0.40797  Biso   1.000  H
  C384     1.0000 0.92952  0.82544  0.09042  Biso   1.000  C
  C385     1.0000 0.96873  0.92917  0.10550  Biso   1.000  C
  N41      1.0000 0.63861  0.97362  0.87831  Biso   1.000  N
  N42      1.0000 0.96630  0.42841  0.56079  Biso   1.000  N
  C386     1.0000 0.95363  0.80367  0.02816  Biso   1.000  C
  H339     1.0000 0.97411  0.97210  0.13178  Biso   1.000  H
  C387     1.0000 0.99236  0.90598  0.04291  Biso   1.000  C
  O39      1.0000 0.61411  0.93763  0.83462  Biso   1.000  O
  O40      1.0000 0.64176  0.03488  0.86763  Biso   1.000  O
  O41      1.0000 0.96176  0.37348  0.52519  Biso   1.000  O
  O42      1.0000 0.98614  0.43717  0.63128  Biso   1.000  O
  C388     1.0000 0.98559  0.84326  0.00265  Biso   1.000  C
  H340     1.0000 0.94831  0.76058  0.00201  Biso   1.000  H
  H341     1.0000 0.01391  0.93378  0.02699  Biso   1.000  H
  C389     1.0000 0.01375  0.81830  0.93741  Biso   1.000  C
  C390     1.0000 0.99638  0.75638  0.88731  Biso   1.000  C
  C391     1.0000 0.05542  0.79992  0.98576  Biso   1.000  C
  C392     1.0000 0.02030  0.87449  0.87178  Biso   1.000  C
  H342     1.0000 0.96944  0.76752  0.85682  Biso   1.000  H
  H343     1.0000 0.99357  0.71902  0.92770  Biso   1.000  H
  H344     1.0000 0.01497  0.74291  0.84530  Biso   1.000  H
  H345     1.0000 0.07314  0.78139  0.94479  Biso   1.000  H
  H346     1.0000 0.06811  0.84052  0.01320  Biso   1.000  H
  H347     1.0000 0.05170  0.76600  0.03029  Biso   1.000  H
  H348     1.0000 0.99375  0.88948  0.84343  Biso   1.000  H
  H349     1.0000 0.03444  0.91282  0.90200  Biso   1.000  H
  H350     1.0000 0.03694  0.85688  0.82822  Biso   1.000  H
  C393     1.0000 0.29313  0.10672  0.28318  Biso   1.000  C
  C394     1.0000 0.24664  0.11052  0.25535  Biso   1.000  C
  H351     1.0000 0.29982  0.13300  0.33632  Biso   1.000  H
  H352     1.0000 0.30791  0.12530  0.23722  Biso   1.000  H
  H353     1.0000 0.30112  0.05939  0.29373  Biso   1.000  H
  C395     1.0000 0.23506  0.18297  0.22583  Biso   1.000  C
  C396     1.0000 0.22352  0.09133  0.33159  Biso   1.000  C
  C397     1.0000 0.23693  0.06268  0.17858  Biso   1.000  C
  H354     1.0000 0.20560  0.18520  0.20732  Biso   1.000  H
  H355     1.0000 0.25020  0.19552  0.17742  Biso   1.000  H
  H356     1.0000 0.24201  0.21441  0.27399  Biso   1.000  H
  C398     1.0000 0.22832  0.12976  0.40810  Biso   1.000  C
  C399     1.0000 0.19645  0.03701  0.32888  Biso   1.000  C
  H357     1.0000 0.24330  0.01610  0.19709  Biso   1.000  H
  H358     1.0000 0.25349  0.07518  0.13230  Biso   1.000  H
  H359     1.0000 0.20780  0.06612  0.15709  Biso   1.000  H
  C400     1.0000 0.20694  0.11523  0.47827  Biso   1.000  C
  H360     1.0000 0.24682  0.16692  0.41211  Biso   1.000  H
  H361     1.0000 0.19201  0.01078  0.27742  Biso   1.000  H
  C401     1.0000 0.17567  0.01974  0.39885  Biso   1.000  C
  C402     1.0000 0.20534  0.16054  0.55516  Biso   1.000  C
  C403     1.0000 0.18065  0.05837  0.47367  Biso   1.000  C
  H362     1.0000 0.15801  0.98152  0.39529  Biso   1.000  H
  C404     1.0000 0.22766  0.14307  0.63445  Biso   1.000  C
  C405     1.0000 0.17885  0.21699  0.54455  Biso   1.000  C
  O43      1.0000 0.16114  0.04405  0.54578  Biso   1.000  O
  N43      1.0000 0.21900  0.16368  0.71419  Biso   1.000  N
  C406     1.0000 0.26575  0.10763  0.64681  Biso   1.000  C
  N44      1.0000 0.16099  0.24848  0.60875  Biso   1.000  N
  C407     1.0000 0.17008  0.25319  0.46325  Biso   1.000  C
  C408     1.0000 0.12259  0.00932  0.53147  Biso   1.000  C
  H363     1.0000 0.19584  0.18398  0.72461  Biso   1.000  H
  C409     1.0000 0.24888  0.14242  0.77724  Biso   1.000  C
  C410     1.0000 0.27942  0.10925  0.73348  Biso   1.000  C
  H364     1.0000 0.27924  0.08667  0.60293  Biso   1.000  H
  C411     1.0000 0.14025  0.30280  0.57011  Biso   1.000  C
  H365     1.0000 0.17811  0.24048  0.40868  Biso   1.000  H
  C412     1.0000 0.14808  0.30858  0.48047  Biso   1.000  C
  H366     1.0000 0.10232  0.03812  0.49658  Biso   1.000  H
  H367     1.0000 0.12591  0.96689  0.49898  Biso   1.000  H
  C413     1.0000 0.10737  0.99301  0.61736  Biso   1.000  C
  C414     1.0000 0.24529  0.14717  0.86598  Biso   1.000  C
  H368     1.0000 0.30474  0.09159  0.75983  Biso   1.000  H
  C415     1.0000 0.11117  0.34103  0.60979  Biso   1.000  C
  H369     1.0000 0.13953  0.34422  0.44150  Biso   1.000  H
  C416     1.0000 0.10520  0.05392  0.67678  Biso   1.000  C
  H370     1.0000 0.12574  0.95869  0.64753  Biso   1.000  H
  H371     1.0000 0.07973  0.97271  0.60629  Biso   1.000  H
  C417     1.0000 0.20919  0.16930  0.89847  Biso   1.000  C
  C418     1.0000 0.27771  0.11695  0.92915  Biso   1.000  C
  C419     1.0000 0.09808  0.32295  0.68934  Biso   1.000  C
  C420     1.0000 0.09021  0.39976  0.56422  Biso   1.000  C
  H372     1.0000 0.13332  0.06678  0.70073  Biso   1.000  H
  H373     1.0000 0.09312  0.09260  0.64241  Biso   1.000  H
  C421     1.0000 0.07997  0.04055  0.75115  Biso   1.000  C
  N45      1.0000 0.17627  0.19775  0.84980  Biso   1.000  N
  C422     1.0000 0.19850  0.15128  0.98352  Biso   1.000  C
  C423     1.0000 0.29887  0.15654  0.99401  Biso   1.000  C
  C424     1.0000 0.28582  0.04759  0.92721  Biso   1.000  C
  N46      1.0000 0.11790  0.27800  0.74617  Biso   1.000  N
  C425     1.0000 0.05884  0.33561  0.71834  Biso   1.000  C
  C426     1.0000 0.06830  0.39419  0.48234  Biso   1.000  C
  C427     1.0000 0.09222  0.46284  0.60552  Biso   1.000  C
  O44      1.0000 0.08843  0.09472  0.81005  Biso   1.000  O
  H374     1.0000 0.05042  0.03908  0.72999  Biso   1.000  H
  H375     1.0000 0.08784  0.99681  0.77944  Biso   1.000  H
  C428     1.0000 0.14456  0.19284  0.89918  Biso   1.000  C
  C429     1.0000 0.15789  0.16333  0.98281  Biso   1.000  C
  H376     1.0000 0.21649  0.13432  0.03071  Biso   1.000  H
  H377     1.0000 0.29355  0.20368  0.99588  Biso   1.000  H
  C430     1.0000 0.32749  0.12773  0.05563  Biso   1.000  C
  C431     1.0000 0.31359  0.01737  0.98935  Biso   1.000  C
  H378     1.0000 0.27203  0.02061  0.88242  Biso   1.000  H
  H379     1.0000 0.14103  0.25678  0.73711  Biso   1.000  H
  C432     1.0000 0.09267  0.25780  0.80578  Biso   1.000  C
  H380     1.0000 0.03912  0.36751  0.69419  Biso   1.000  H
  C433     1.0000 0.05490  0.29384  0.78669  Biso   1.000  C
  H381     1.0000 0.06600  0.35131  0.45458  Biso   1.000  H
  C434     1.0000 0.04983  0.44998  0.44105  Biso   1.000  C
  C435     1.0000 0.07395  0.51949  0.56448  Biso   1.000  C
  H382     1.0000 0.10622  0.46699  0.66222  Biso   1.000  H
  C436     1.0000 0.06284  0.11103  0.87077  Biso   1.000  C
  C437     1.0000 0.10398  0.21350  0.87420  Biso   1.000  C
  H383     1.0000 0.14137  0.15421  0.02799  Biso   1.000  H
  H384     1.0000 0.34250  0.15492  0.09861  Biso   1.000  H
  C438     1.0000 0.33373  0.05832  0.05278  Biso   1.000  C
  H385     1.0000 0.31866  0.96998  0.98844  Biso   1.000  H
  H386     1.0000 0.03134  0.28939  0.81640  Biso   1.000  H
  H387     1.0000 0.03511  0.44598  0.38512  Biso   1.000  H
  C439     1.0000 0.05328  0.51185  0.48318  Biso   1.000  C
  H388     1.0000 0.07571  0.56253  0.59199  Biso   1.000  H
  C440     1.0000 0.03129  0.07083  0.89446  Biso   1.000  C
  C441     1.0000 0.07053  0.17456  0.90960  Biso   1.000  C
  N47      1.0000 0.36143  0.02638  0.12165  Biso   1.000  N
  N48      1.0000 0.03375  0.57159  0.43924  Biso   1.000  N
  H389     1.0000 0.02594  0.02790  0.86818  Biso   1.000  H
  C442     1.0000 0.00766  0.09402  0.95705  Biso   1.000  C
  C443     1.0000 0.04642  0.19633  0.97187  Biso   1.000  C
  O45      1.0000 0.35829  0.96512  0.13239  Biso   1.000  O
  O46      1.0000 0.38594  0.06237  0.16540  Biso   1.000  O
  O47      1.0000 0.03829  0.62652  0.47483  Biso   1.000  O
  O48      1.0000 0.01391  0.56283  0.36868  Biso   1.000  O
  C444     1.0000 0.01446  0.15674  0.99737  Biso   1.000  C
  H390     1.0000 0.98614  0.06622  0.97304  Biso   1.000  H
  H391     1.0000 0.05174  0.23942  0.99802  Biso   1.000  H
  C445     1.0000 0.98631  0.18170  0.06262  Biso   1.000  C
  C446     1.0000 0.94460  0.20008  0.01427  Biso   1.000  C
  C447     1.0000 0.97972  0.12551  0.12819  Biso   1.000  C
  C448     1.0000 0.00367  0.24362  0.11272  Biso   1.000  C
  H392     1.0000 0.93194  0.15948  0.98682  Biso   1.000  H
  H393     1.0000 0.94835  0.23400  0.96973  Biso   1.000  H
  H394     1.0000 0.92688  0.21861  0.05524  Biso   1.000  H
  H395     1.0000 0.96558  0.08718  0.09802  Biso   1.000  H
  H396     1.0000 0.96308  0.14312  0.17181  Biso   1.000  H
  H397     1.0000 0.00627  0.11052  0.15660  Biso   1.000  H
  H398     1.0000 0.98508  0.25709  0.15472  Biso   1.000  H
  H399     1.0000 0.03057  0.23248  0.14320  Biso   1.000  H
  H400     1.0000 0.00648  0.28098  0.07233  Biso   1.000  H
