data_image0
_cell_length_a       18.418
_cell_length_b       21.412
_cell_length_c       39.655
_cell_angle_alpha    90
_cell_angle_beta     99.28
_cell_angle_gamma    90

_symmetry_space_group_name_H-M    "P 1"
_symmetry_int_tables_number       1

loop_
  _symmetry_equiv_pos_as_xyz
  'x, y, z'

loop_
  _atom_site_label
  _atom_site_occupancy
  _atom_site_fract_x
  _atom_site_fract_y
  _atom_site_fract_z
  _atom_site_thermal_displace_type
  _atom_site_B_iso_or_equiv
  _atom_site_type_symbol
  O1       1.0000 0.51801  0.40613  0.37510  Biso   1.000  O
  C1       1.0000 0.48022  0.45269  0.36790  Biso   1.000  C
  N1       1.0000 0.40472  0.45288  0.35906  Biso   1.000  N
  N2       1.0000 0.50407  0.51214  0.36718  Biso   1.000  N
  C2       1.0000 0.36269  0.39562  0.35200  Biso   1.000  C
  C3       1.0000 0.37680  0.51392  0.34700  Biso   1.000  C
  C4       1.0000 0.44597  0.55511  0.35356  Biso   1.000  C
  C5       1.0000 0.58001  0.52522  0.36289  Biso   1.000  C
  N3       1.0000 0.31039  0.38558  0.37495  Biso   1.000  N
  H1       1.0000 0.33599  0.39702  0.32829  Biso   1.000  H
  H2       1.0000 0.39708  0.35980  0.35379  Biso   1.000  H
  N4       1.0000 0.32681  0.54124  0.36705  Biso   1.000  N
  H3       1.0000 0.35522  0.51289  0.32221  Biso   1.000  H
  N5       1.0000 0.42832  0.59985  0.37873  Biso   1.000  N
  H4       1.0000 0.45602  0.57608  0.33230  Biso   1.000  H
  N6       1.0000 0.61599  0.56805  0.38834  Biso   1.000  N
  H5       1.0000 0.60800  0.48552  0.36440  Biso   1.000  H
  H6       1.0000 0.58022  0.54311  0.33989  Biso   1.000  H
  C6       1.0000 0.23619  0.41131  0.36767  Biso   1.000  C
  C7       1.0000 0.31300  0.33192  0.39327  Biso   1.000  C
  C8       1.0000 0.35668  0.59481  0.38366  Biso   1.000  C
  C9       1.0000 0.24909  0.52882  0.36120  Biso   1.000  C
  C10      1.0000 0.46570  0.65958  0.38394  Biso   1.000  C
  C11      1.0000 0.60000  0.63520  0.38622  Biso   1.000  C
  C12      1.0000 0.68410  0.55642  0.40686  Biso   1.000  C
  N7       1.0000 0.22967  0.47487  0.37924  Biso   1.000  N
  H7       1.0000 0.21438  0.40631  0.34301  Biso   1.000  H
  C13      1.0000 0.19408  0.37278  0.39120  Biso   1.000  C
  O2       1.0000 0.36439  0.29465  0.39881  Biso   1.000  O
  N8       1.0000 0.24681  0.32500  0.40451  Biso   1.000  N
  O3       1.0000 0.32430  0.62969  0.40032  Biso   1.000  O
  H8       1.0000 0.23250  0.52260  0.33639  Biso   1.000  H
  H9       1.0000 0.22282  0.56562  0.36841  Biso   1.000  H
  N9       1.0000 0.54022  0.65412  0.40341  Biso   1.000  N
  H10      1.0000 0.43638  0.68789  0.39631  Biso   1.000  H
  H11      1.0000 0.46851  0.67859  0.36141  Biso   1.000  H
  C14      1.0000 0.66832  0.66458  0.40737  Biso   1.000  C
  H12      1.0000 0.59262  0.65029  0.36199  Biso   1.000  H
  O4       1.0000 0.71290  0.50495  0.41052  Biso   1.000  O
  N10      1.0000 0.71380  0.61190  0.41969  Biso   1.000  N
  C15      1.0000 0.19308  0.47819  0.40676  Biso   1.000  C
  N11      1.0000 0.17891  0.41860  0.41629  Biso   1.000  N
  H13      1.0000 0.14790  0.35438  0.37830  Biso   1.000  H
  C16      1.0000 0.22899  0.27181  0.42373  Biso   1.000  C
  C17      1.0000 0.56222  0.69639  0.42848  Biso   1.000  C
  N12      1.0000 0.63880  0.69942  0.43354  Biso   1.000  N
  H14      1.0000 0.69409  0.69288  0.39309  Biso   1.000  H
  C18      1.0000 0.78840  0.61690  0.43750  Biso   1.000  C
  O5       1.0000 0.17760  0.52569  0.42081  Biso   1.000  O
  C19      1.0000 0.12989  0.40631  0.44011  Biso   1.000  C
  N13      1.0000 0.23382  0.28330  0.46014  Biso   1.000  N
  H15      1.0000 0.26270  0.23720  0.42041  Biso   1.000  H
  H16      1.0000 0.17828  0.25808  0.41450  Biso   1.000  H
  O6       1.0000 0.52292  0.72684  0.44460  Biso   1.000  O
  C20      1.0000 0.67790  0.74780  0.45342  Biso   1.000  C
  N14      1.0000 0.79440  0.63362  0.47261  Biso   1.000  N
  H17      1.0000 0.81341  0.57631  0.43589  Biso   1.000  H
  H18      1.0000 0.81468  0.64851  0.42580  Biso   1.000  H
  N15      1.0000 0.16679  0.37661  0.47164  Biso   1.000  N
  H19      1.0000 0.08978  0.37871  0.42920  Biso   1.000  H
  H20      1.0000 0.10751  0.44601  0.44601  Biso   1.000  H
  C21      1.0000 0.17620  0.31011  0.47557  Biso   1.000  C
  C22      1.0000 0.29110  0.25999  0.48375  Biso   1.000  C
  N16      1.0000 0.72410  0.72581  0.48439  Biso   1.000  N
  H21      1.0000 0.64200  0.77830  0.45981  Biso   1.000  H
  H22      1.0000 0.70912  0.76999  0.43921  Biso   1.000  H
  C23      1.0000 0.82051  0.59149  0.49793  Biso   1.000  C
  C24      1.0000 0.79589  0.69671  0.48503  Biso   1.000  C
  C25      1.0000 0.17948  0.40851  0.50207  Biso   1.000  C
  H23      1.0000 0.12867  0.28750  0.46849  Biso   1.000  H
  C26      1.0000 0.20410  0.30329  0.51497  Biso   1.000  C
  O7       1.0000 0.34338  0.22992  0.47716  Biso   1.000  O
  N17      1.0000 0.27588  0.27419  0.51561  Biso   1.000  N
  C27      1.0000 0.70889  0.74001  0.51625  Biso   1.000  C
  O8       1.0000 0.83059  0.53652  0.49412  Biso   1.000  O
  N18      1.0000 0.83319  0.62339  0.52836  Biso   1.000  N
  C28      1.0000 0.82379  0.68989  0.52443  Biso   1.000  C
  H24      1.0000 0.82951  0.72361  0.47381  Biso   1.000  H
  O9       1.0000 0.16940  0.46348  0.50588  Biso   1.000  O
  N19      1.0000 0.20559  0.36638  0.52739  Biso   1.000  N
  H25      1.0000 0.17048  0.27639  0.52619  Biso   1.000  H
  C29      1.0000 0.32209  0.25220  0.54658  Biso   1.000  C
  O10      1.0000 0.65661  0.77008  0.52284  Biso   1.000  O
  N20      1.0000 0.76622  0.71670  0.53986  Biso   1.000  N
  C30      1.0000 0.87009  0.59369  0.55989  Biso   1.000  C
  H26      1.0000 0.87131  0.71250  0.53151  Biso   1.000  H
  C31      1.0000 0.21159  0.38310  0.56250  Biso   1.000  C
  N21      1.0000 0.36119  0.30058  0.56646  Biso   1.000  N
  H27      1.0000 0.35799  0.22170  0.54019  Biso   1.000  H
  H28      1.0000 0.29092  0.23001  0.56079  Biso   1.000  H
  C32      1.0000 0.77099  0.72819  0.57627  Biso   1.000  C
  N22      1.0000 0.82108  0.58140  0.58371  Biso   1.000  N
  H29      1.0000 0.91020  0.62129  0.57080  Biso   1.000  H
  H30      1.0000 0.89248  0.55399  0.55399  Biso   1.000  H
  N23      1.0000 0.28618  0.38810  0.58031  Biso   1.000  N
  H31      1.0000 0.18663  0.42369  0.56411  Biso   1.000  H
  H32      1.0000 0.18530  0.35149  0.57420  Biso   1.000  H
  C33      1.0000 0.43782  0.30361  0.57152  Biso   1.000  C
  C34      1.0000 0.33172  0.33542  0.59263  Biso   1.000  C
  N24      1.0000 0.75318  0.67500  0.59549  Biso   1.000  N
  H33      1.0000 0.73729  0.76280  0.57959  Biso   1.000  H
  H34      1.0000 0.82170  0.74192  0.58550  Biso   1.000  H
  C35      1.0000 0.80691  0.52181  0.59324  Biso   1.000  C
  C36      1.0000 0.80590  0.62722  0.60880  Biso   1.000  C
  C37      1.0000 0.31588  0.44358  0.59314  Biso   1.000  C
  O11      1.0000 0.47712  0.27316  0.55540  Biso   1.000  O
  N25      1.0000 0.45982  0.34588  0.59659  Biso   1.000  N
  H35      1.0000 0.30590  0.30712  0.60691  Biso   1.000  H
  C38      1.0000 0.39999  0.36480  0.61378  Biso   1.000  C
  C39      1.0000 0.68698  0.66808  0.60673  Biso   1.000  C
  O12      1.0000 0.82239  0.47431  0.57919  Biso   1.000  O
  N26      1.0000 0.77031  0.52513  0.62076  Biso   1.000  N
  C40      1.0000 0.76380  0.58869  0.63233  Biso   1.000  C
  H36      1.0000 0.85208  0.64562  0.62170  Biso   1.000  H
  O13      1.0000 0.28709  0.49505  0.58948  Biso   1.000  O
  N27      1.0000 0.38399  0.43195  0.61166  Biso   1.000  N
  C41      1.0000 0.53429  0.34042  0.61606  Biso   1.000  C
  H37      1.0000 0.40742  0.34971  0.63801  Biso   1.000  H
  O14      1.0000 0.63560  0.70535  0.60119  Biso   1.000  O
  N28      1.0000 0.68960  0.61442  0.62505  Biso   1.000  N
  C42      1.0000 0.75089  0.47118  0.63880  Biso   1.000  C
  H38      1.0000 0.78561  0.59369  0.65699  Biso   1.000  H
  C43      1.0000 0.41998  0.47478  0.63711  Biso   1.000  C
  N29      1.0000 0.57172  0.40015  0.62127  Biso   1.000  N
  H39      1.0000 0.56360  0.31211  0.60369  Biso   1.000  H
  H40      1.0000 0.53147  0.32141  0.63859  Biso   1.000  H
  C44      1.0000 0.63730  0.60438  0.64800  Biso   1.000  C
  N30      1.0000 0.67323  0.45876  0.63295  Biso   1.000  N
  H41      1.0000 0.76749  0.47740  0.66361  Biso   1.000  H
  H42      1.0000 0.77722  0.43438  0.63159  Biso   1.000  H
  N31      1.0000 0.49591  0.48786  0.63282  Biso   1.000  N
  H43      1.0000 0.39198  0.51448  0.63560  Biso   1.000  H
  H44      1.0000 0.41982  0.45689  0.66011  Biso   1.000  H
  C45      1.0000 0.64330  0.40519  0.61634  Biso   1.000  C
  C46      1.0000 0.55401  0.44489  0.64644  Biso   1.000  C
  N32      1.0000 0.59532  0.54712  0.64094  Biso   1.000  N
  H45      1.0000 0.66399  0.60298  0.67171  Biso   1.000  H
  H46      1.0000 0.60291  0.64020  0.64621  Biso   1.000  H
  C47      1.0000 0.62318  0.48608  0.65300  Biso   1.000  C
  C48      1.0000 0.51977  0.54731  0.63210  Biso   1.000  C
  O15      1.0000 0.67569  0.37031  0.59968  Biso   1.000  O
  H47      1.0000 0.54402  0.42392  0.66770  Biso   1.000  H
  H48      1.0000 0.64482  0.48711  0.67779  Biso   1.000  H
  O16      1.0000 0.48198  0.59387  0.62490  Biso   1.000  O
  O17      1.0000 0.43659  0.34948  0.29168  Biso   1.000  O
  C49      1.0000 0.44228  0.30231  0.27412  Biso   1.000  C
  N33      1.0000 0.40629  0.24743  0.27680  Biso   1.000  N
  N34      1.0000 0.48362  0.29694  0.24870  Biso   1.000  N
  C50      1.0000 0.37263  0.23272  0.30683  Biso   1.000  C
  C51      1.0000 0.43147  0.19900  0.25659  Biso   1.000  C
  C52      1.0000 0.48719  0.23221  0.23771  Biso   1.000  C
  C53      1.0000 0.54209  0.34112  0.24522  Biso   1.000  C
  N35      1.0000 0.29551  0.21441  0.29817  Biso   1.000  N
  H49      1.0000 0.37622  0.26971  0.32201  Biso   1.000  H
  H50      1.0000 0.40041  0.19830  0.31960  Biso   1.000  H
  N36      1.0000 0.37521  0.17621  0.22902  Biso   1.000  N
  H51      1.0000 0.45479  0.16402  0.27121  Biso   1.000  H
  N37      1.0000 0.45697  0.22151  0.20166  Biso   1.000  N
  H52      1.0000 0.53782  0.21451  0.24389  Biso   1.000  H
  N38      1.0000 0.53560  0.36718  0.21091  Biso   1.000  N
  H53      1.0000 0.54100  0.37558  0.26181  Biso   1.000  H
  H54      1.0000 0.59021  0.31968  0.25089  Biso   1.000  H
  C54      1.0000 0.24122  0.24860  0.30928  Biso   1.000  C
  C55      1.0000 0.27203  0.15220  0.28761  Biso   1.000  C
  C56      1.0000 0.32910  0.12278  0.23526  Biso   1.000  C
  C57      1.0000 0.39578  0.18429  0.19790  Biso   1.000  C
  C58      1.0000 0.50301  0.22702  0.17567  Biso   1.000  C
  C59      1.0000 0.53048  0.42990  0.20475  Biso   1.000  C
  C60      1.0000 0.56400  0.33332  0.18369  Biso   1.000  C
  O18      1.0000 0.24798  0.29993  0.32203  Biso   1.000  O
  N39      1.0000 0.17688  0.21479  0.30241  Biso   1.000  N
  N40      1.0000 0.26579  0.14109  0.25072  Biso   1.000  N
  C61      1.0000 0.19131  0.15001  0.29328  Biso   1.000  C
  H55      1.0000 0.30259  0.11961  0.30121  Biso   1.000  H
  H56      1.0000 0.31171  0.10139  0.21331  Biso   1.000  H
  H57      1.0000 0.35932  0.09271  0.25051  Biso   1.000  H
  O19      1.0000 0.36350  0.16341  0.17076  Biso   1.000  O
  N41      1.0000 0.51232  0.29138  0.16496  Biso   1.000  N
  H58      1.0000 0.48113  0.20222  0.15551  Biso   1.000  H
  H59      1.0000 0.55190  0.20909  0.18451  Biso   1.000  H
  O20      1.0000 0.51543  0.47016  0.22442  Biso   1.000  O
  N42      1.0000 0.54490  0.44050  0.17217  Biso   1.000  N
  H60      1.0000 0.61201  0.31230  0.19220  Biso   1.000  H
  C62      1.0000 0.57220  0.38502  0.15745  Biso   1.000  C
  C63      1.0000 0.11630  0.22968  0.32027  Biso   1.000  C
  C64      1.0000 0.19652  0.12381  0.23605  Biso   1.000  C
  N43      1.0000 0.15188  0.13030  0.26089  Biso   1.000  N
  H61      1.0000 0.18428  0.12031  0.31199  Biso   1.000  H
  C65      1.0000 0.49490  0.30651  0.13075  Biso   1.000  C
  C66      1.0000 0.55188  0.50252  0.15865  Biso   1.000  C
  N44      1.0000 0.52829  0.36321  0.12651  Biso   1.000  N
  H62      1.0000 0.62472  0.39020  0.15451  Biso   1.000  H
  N45      1.0000 0.04987  0.24738  0.29783  Biso   1.000  N
  H63      1.0000 0.10580  0.19288  0.33381  Biso   1.000  H
  H64      1.0000 0.13140  0.26429  0.33639  Biso   1.000  H
  O21      1.0000 0.17632  0.10802  0.20679  Biso   1.000  O
  C67      1.0000 0.07411  0.11690  0.25552  Biso   1.000  C
  O22      1.0000 0.45902  0.27634  0.10872  Biso   1.000  O
  N46      1.0000 0.49362  0.51681  0.13034  Biso   1.000  N
  H65      1.0000 0.60010  0.50612  0.15071  Biso   1.000  H
  H66      1.0000 0.55090  0.53349  0.17710  Biso   1.000  H
  C68      1.0000 0.53320  0.38749  0.09329  Biso   1.000  C
  C69      1.0000 0.02910  0.30758  0.29132  Biso   1.000  C
  C70      1.0000 0.99989  0.20241  0.27928  Biso   1.000  C
  N47      1.0000 0.02812  0.17219  0.25097  Biso   1.000  N
  H67      1.0000 0.06250  0.09308  0.27540  Biso   1.000  H
  H68      1.0000 0.06203  0.09009  0.23510  Biso   1.000  H
  C71      1.0000 0.44489  0.56501  0.13228  Biso   1.000  C
  C72      1.0000 0.50159  0.50392  0.09480  Biso   1.000  C
  N48      1.0000 0.48342  0.44031  0.08391  Biso   1.000  N
  H69      1.0000 0.52130  0.35391  0.07620  Biso   1.000  H
  H70      1.0000 0.58440  0.40108  0.09280  Biso   1.000  H
  O23      1.0000 0.06118  0.35345  0.30445  Biso   1.000  O
  N49      1.0000 0.96538  0.30749  0.26809  Biso   1.000  N
  C73      1.0000 0.93722  0.24491  0.26081  Biso   1.000  C
  H71      1.0000 0.98160  0.17149  0.29479  Biso   1.000  H
  C74      1.0000 0.98433  0.18350  0.22008  Biso   1.000  C
  O24      1.0000 0.43549  0.59158  0.15824  Biso   1.000  O
  N50      1.0000 0.40918  0.57701  0.09981  Biso   1.000  N
  H72      1.0000 0.55079  0.51709  0.08969  Biso   1.000  H
  C75      1.0000 0.43790  0.54180  0.07400  Biso   1.000  C
  C76      1.0000 0.41981  0.43480  0.06224  Biso   1.000  C
  C77      1.0000 0.92178  0.36330  0.26073  Biso   1.000  C
  N51      1.0000 0.93182  0.22632  0.22537  Biso   1.000  N
  H73      1.0000 0.88989  0.23809  0.26960  Biso   1.000  H
  O25      1.0000 0.99050  0.16033  0.19281  Biso   1.000  O
  C78      1.0000 0.36002  0.62969  0.09209  Biso   1.000  C
  N52      1.0000 0.38892  0.49370  0.05788  Biso   1.000  N
  H74      1.0000 0.45560  0.56959  0.05680  Biso   1.000  H
  O26      1.0000 0.39439  0.38726  0.04799  Biso   1.000  O
  N53      1.0000 0.92418  0.38782  0.22682  Biso   1.000  N
  H75      1.0000 0.93990  0.39562  0.27790  Biso   1.000  H
  H76      1.0000 0.87008  0.35391  0.26290  Biso   1.000  H
  C79      1.0000 0.87603  0.24799  0.19762  Biso   1.000  C
  N54      1.0000 0.28249  0.61251  0.08491  Biso   1.000  N
  H77      1.0000 0.37298  0.65202  0.07201  Biso   1.000  H
  H78      1.0000 0.36748  0.65888  0.11169  Biso   1.000  H
  C80      1.0000 0.32629  0.50621  0.03168  Biso   1.000  C
  C81      1.0000 0.95629  0.44382  0.22095  Biso   1.000  C
  C82      1.0000 0.87440  0.36699  0.19683  Biso   1.000  C
  N55      1.0000 0.89528  0.30749  0.18346  Biso   1.000  N
  H79      1.0000 0.86920  0.21619  0.17920  Biso   1.000  H
  H80      1.0000 0.82859  0.25262  0.20610  Biso   1.000  H
  C83      1.0000 0.23452  0.62530  0.10701  Biso   1.000  C
  C84      1.0000 0.24702  0.58878  0.05233  Biso   1.000  C
  N56      1.0000 0.26158  0.52499  0.04515  Biso   1.000  N
  H81      1.0000 0.31478  0.46820  0.01761  Biso   1.000  H
  H82      1.0000 0.33959  0.53960  0.01651  Biso   1.000  H
  O27      1.0000 0.99502  0.47520  0.24290  Biso   1.000  O
  N57      1.0000 0.93892  0.45750  0.18704  Biso   1.000  N
  C85      1.0000 0.88640  0.41439  0.16900  Biso   1.000  C
  H83      1.0000 0.82219  0.36671  0.20081  Biso   1.000  H
  C86      1.0000 0.91309  0.31342  0.15142  Biso   1.000  C
  N58      1.0000 0.16600  0.60798  0.09122  Biso   1.000  N
  O28      1.0000 0.25042  0.64805  0.13530  Biso   1.000  O
  H84      1.0000 0.25580  0.61680  0.03319  Biso   1.000  H
  C87      1.0000 0.16447  0.58841  0.05634  Biso   1.000  C
  C88      1.0000 0.19899  0.48809  0.04129  Biso   1.000  C
  C89      1.0000 0.94571  0.52078  0.17455  Biso   1.000  C
  N59      1.0000 0.91588  0.37568  0.14381  Biso   1.000  N
  H85      1.0000 0.83962  0.43569  0.15891  Biso   1.000  H
  O29      1.0000 0.92671  0.27032  0.13310  Biso   1.000  O
  C90      1.0000 0.10067  0.62661  0.10558  Biso   1.000  C
  N60      1.0000 0.14290  0.52382  0.04972  Biso   1.000  N
  H86      1.0000 0.13483  0.61750  0.03991  Biso   1.000  H
  O30      1.0000 0.19488  0.43434  0.03179  Biso   1.000  O
  N61      1.0000 0.98733  0.52438  0.14646  Biso   1.000  N
  H87      1.0000 0.97009  0.54712  0.19361  Biso   1.000  H
  H88      1.0000 0.89588  0.53802  0.16691  Biso   1.000  H
  C91      1.0000 0.91049  0.39539  0.10844  Biso   1.000  C
  N62      1.0000 0.05720  0.57370  0.11424  Biso   1.000  N
  H89      1.0000 0.06931  0.65342  0.08890  Biso   1.000  H
  H90      1.0000 0.11643  0.65178  0.12641  Biso   1.000  H
  C92      1.0000 0.06762  0.50490  0.04088  Biso   1.000  C
  C93      1.0000 0.04518  0.56510  0.14703  Biso   1.000  C
  C94      1.0000 0.95430  0.50799  0.11187  Biso   1.000  C
  N63      1.0000 0.96442  0.44302  0.10331  Biso   1.000  N
  H91      1.0000 0.86048  0.41211  0.10060  Biso   1.000  H
  H92      1.0000 0.91728  0.35858  0.09421  Biso   1.000  H
  C95      1.0000 0.00248  0.54311  0.08971  Biso   1.000  C
  N64      1.0000 0.03028  0.49379  0.07032  Biso   1.000  N
  H93      1.0000 0.06558  0.46609  0.02719  Biso   1.000  H
  H94      1.0000 0.04051  0.53760  0.02629  Biso   1.000  H
  O31      1.0000 0.07850  0.58911  0.17309  Biso   1.000  O
  H95      1.0000 0.90149  0.52102  0.10660  Biso   1.000  H
  C96      1.0000 0.00632  0.43630  0.07778  Biso   1.000  C
  H96      1.0000 0.97292  0.57412  0.07430  Biso   1.000  H
  O32      1.0000 0.01930  0.38628  0.06449  Biso   1.000  O
  O33      1.0000 0.32370  0.60802  0.29321  Biso   1.000  O
  C97      1.0000 0.30350  0.62381  0.26395  Biso   1.000  C
  N65      1.0000 0.34809  0.63030  0.23911  Biso   1.000  N
  N66      1.0000 0.23418  0.64109  0.24928  Biso   1.000  N
  C98      1.0000 0.42591  0.61690  0.24448  Biso   1.000  C
  C99      1.0000 0.30871  0.65001  0.20672  Biso   1.000  C
  C100     1.0000 0.22799  0.65220  0.21239  Biso   1.000  C
  C101     1.0000 0.17092  0.62278  0.26474  Biso   1.000  C
  N67      1.0000 0.47190  0.67219  0.24903  Biso   1.000  N
  H97      1.0000 0.43752  0.59308  0.22460  Biso   1.000  H
  H98      1.0000 0.43799  0.59009  0.26490  Biso   1.000  H
  N68      1.0000 0.32308  0.71479  0.19759  Biso   1.000  N
  H99      1.0000 0.31568  0.62031  0.18801  Biso   1.000  H
  N69      1.0000 0.20451  0.71441  0.20183  Biso   1.000  N
  H100     1.0000 0.19737  0.61961  0.19879  Biso   1.000  H
  N70      1.0000 0.12481  0.67621  0.27098  Biso   1.000  N
  H101     1.0000 0.18831  0.60139  0.28669  Biso   1.000  H
  H102     1.0000 0.14070  0.59271  0.24949  Biso   1.000  H
  C102     1.0000 0.50008  0.70241  0.22072  Biso   1.000  C
  C103     1.0000 0.51569  0.68350  0.27992  Biso   1.000  C
  C104     1.0000 0.38372  0.72968  0.17973  Biso   1.000  C
  C105     1.0000 0.25880  0.74860  0.19072  Biso   1.000  C
  C106     1.0000 0.12739  0.73272  0.19317  Biso   1.000  C
  C107     1.0000 0.06849  0.69900  0.24341  Biso   1.000  C
  C108     1.0000 0.10418  0.68429  0.30210  Biso   1.000  C
  N71      1.0000 0.45009  0.74738  0.20217  Biso   1.000  N
  C109     1.0000 0.56280  0.74491  0.23919  Biso   1.000  C
  H103     1.0000 0.51842  0.67149  0.20521  Biso   1.000  H
  O34      1.0000 0.50952  0.66033  0.30719  Biso   1.000  O
  N72      1.0000 0.56821  0.72632  0.27463  Biso   1.000  N
  H104     1.0000 0.39422  0.69288  0.16619  Biso   1.000  H
  H105     1.0000 0.36862  0.76429  0.16361  Biso   1.000  H
  O35      1.0000 0.25199  0.79993  0.17797  Biso   1.000  O
  N73      1.0000 0.09367  0.74743  0.22320  Biso   1.000  N
  H106     1.0000 0.12380  0.76971  0.17799  Biso   1.000  H
  H107     1.0000 0.09961  0.69830  0.18040  Biso   1.000  H
  H108     1.0000 0.04518  0.66402  0.22879  Biso   1.000  H
  C110     1.0000 0.01277  0.73221  0.26229  Biso   1.000  C
  O36      1.0000 0.13652  0.66341  0.32924  Biso   1.000  O
  N74      1.0000 0.04299  0.72151  0.29834  Biso   1.000  N
  C111     1.0000 0.47092  0.80758  0.20868  Biso   1.000  C
  N75      1.0000 0.53459  0.80749  0.23191  Biso   1.000  N
  H109     1.0000 0.61007  0.73809  0.23040  Biso   1.000  H
  C112     1.0000 0.62399  0.74799  0.30238  Biso   1.000  C
  C113     1.0000 0.05768  0.80231  0.22588  Biso   1.000  C
  N76      1.0000 0.01640  0.79694  0.25130  Biso   1.000  N
  H110     1.0000 0.96220  0.71451  0.25611  Biso   1.000  H
  C114     1.0000 0.99701  0.72702  0.32433  Biso   1.000  C
  O37      1.0000 0.43878  0.85345  0.19555  Biso   1.000  O
  C115     1.0000 0.57819  0.86330  0.23927  Biso   1.000  C
  N77      1.0000 0.60469  0.80749  0.31654  Biso   1.000  N
  H111     1.0000 0.63082  0.71619  0.32080  Biso   1.000  H
  H112     1.0000 0.67138  0.75262  0.29390  Biso   1.000  H
  O38      1.0000 0.06343  0.84948  0.20832  Biso   1.000  O
  C116     1.0000 0.95788  0.84112  0.25478  Biso   1.000  C
  H113     1.0000 0.01889  0.70222  0.34449  Biso   1.000  H
  N78      1.0000 0.98770  0.79138  0.33504  Biso   1.000  N
  H114     1.0000 0.94812  0.70909  0.31549  Biso   1.000  H
  N79      1.0000 0.57579  0.88782  0.27318  Biso   1.000  N
  H115     1.0000 0.56012  0.89562  0.22210  Biso   1.000  H
  H116     1.0000 0.62988  0.85391  0.23710  Biso   1.000  H
  C117     1.0000 0.62562  0.86699  0.30317  Biso   1.000  C
  C118     1.0000 0.58688  0.81342  0.34858  Biso   1.000  C
  N80      1.0000 0.96442  0.86718  0.28909  Biso   1.000  N
  H117     1.0000 0.95902  0.87558  0.23820  Biso   1.000  H
  H118     1.0000 0.90981  0.81968  0.24911  Biso   1.000  H
  C119     1.0000 0.00512  0.80651  0.36925  Biso   1.000  C
  C120     1.0000 0.93602  0.83332  0.31631  Biso   1.000  C
  C121     1.0000 0.54368  0.94382  0.27905  Biso   1.000  C
  C122     1.0000 0.61362  0.91439  0.33100  Biso   1.000  C
  H119     1.0000 0.67777  0.86671  0.29919  Biso   1.000  H
  O39      1.0000 0.57331  0.77032  0.36690  Biso   1.000  O
  N81      1.0000 0.58409  0.87568  0.35619  Biso   1.000  N
  C123     1.0000 0.96949  0.92990  0.29525  Biso   1.000  C
  O40      1.0000 0.04100  0.77634  0.39128  Biso   1.000  O
  N82      1.0000 0.97168  0.86321  0.37349  Biso   1.000  N
  H120     1.0000 0.88801  0.81230  0.30780  Biso   1.000  H
  C124     1.0000 0.92782  0.88502  0.34255  Biso   1.000  C
  O41      1.0000 0.50500  0.97520  0.25710  Biso   1.000  O
  N83      1.0000 0.56110  0.95750  0.31296  Biso   1.000  N
  H121     1.0000 0.66040  0.93569  0.34109  Biso   1.000  H
  C125     1.0000 0.58953  0.89539  0.39156  Biso   1.000  C
  O42      1.0000 0.98459  0.97016  0.27558  Biso   1.000  O
  N84      1.0000 0.95512  0.94050  0.32783  Biso   1.000  N
  C126     1.0000 0.96682  0.88749  0.40671  Biso   1.000  C
  H122     1.0000 0.87530  0.89020  0.34549  Biso   1.000  H
  C127     1.0000 0.55431  0.02078  0.32545  Biso   1.000  C
  N85      1.0000 0.53560  0.94302  0.39669  Biso   1.000  N
  H123     1.0000 0.63949  0.91211  0.39940  Biso   1.000  H
  H124     1.0000 0.58269  0.85858  0.40579  Biso   1.000  H
  C128     1.0000 0.94809  0.00252  0.34135  Biso   1.000  C
  N86      1.0000 0.01660  0.94031  0.41609  Biso   1.000  N
  H125     1.0000 0.97872  0.85391  0.42380  Biso   1.000  H
  H126     1.0000 0.91562  0.90108  0.40720  Biso   1.000  H
  N87      1.0000 0.51269  0.02438  0.35354  Biso   1.000  N
  H127     1.0000 0.52988  0.04712  0.30639  Biso   1.000  H
  H128     1.0000 0.60409  0.03802  0.33309  Biso   1.000  H
  C129     1.0000 0.49370  0.93630  0.42222  Biso   1.000  C
  C130     1.0000 0.54572  0.00799  0.38813  Biso   1.000  C
  H129     1.0000 0.89992  0.00612  0.34929  Biso   1.000  H
  H130     1.0000 0.94912  0.03349  0.32290  Biso   1.000  H
  N88      1.0000 0.00640  0.01681  0.36966  Biso   1.000  N
  C131     1.0000 0.08021  0.93480  0.43776  Biso   1.000  C
  C132     1.0000 0.99838  0.00392  0.40520  Biso   1.000  C
  C133     1.0000 0.45478  0.06510  0.35297  Biso   1.000  C
  O43      1.0000 0.48072  0.88628  0.43551  Biso   1.000  O
  N89      1.0000 0.46969  0.99379  0.42968  Biso   1.000  N
  C134     1.0000 0.49749  0.04311  0.41029  Biso   1.000  C
  H131     1.0000 0.59847  0.02102  0.39340  Biso   1.000  H
  C135     1.0000 0.05508  0.06501  0.36772  Biso   1.000  C
  O44      1.0000 0.10558  0.88726  0.45201  Biso   1.000  O
  N90      1.0000 0.11110  0.99370  0.44212  Biso   1.000  N
  H132     1.0000 0.94922  0.01709  0.41029  Biso   1.000  H
  C136     1.0000 0.06212  0.04180  0.42600  Biso   1.000  C
  O45      1.0000 0.42152  0.08911  0.32691  Biso   1.000  O
  N91      1.0000 0.44282  0.07370  0.38576  Biso   1.000  N
  C137     1.0000 0.43240  0.00490  0.45912  Biso   1.000  C
  H133     1.0000 0.52710  0.07412  0.42570  Biso   1.000  H
  O46      1.0000 0.06447  0.09158  0.34176  Biso   1.000  O
  N92      1.0000 0.09079  0.07701  0.40019  Biso   1.000  N
  C138     1.0000 0.17368  0.00621  0.46832  Biso   1.000  C
  H134     1.0000 0.04442  0.06959  0.44320  Biso   1.000  H
  C139     1.0000 0.39929  0.12661  0.39442  Biso   1.000  C
  H135     1.0000 0.43438  0.96609  0.47279  Biso   1.000  H
  N93      1.0000 0.35712  0.02382  0.45028  Biso   1.000  N
  H136     1.0000 0.45951  0.03760  0.47371  Biso   1.000  H
  C140     1.0000 0.14000  0.12969  0.40791  Biso   1.000  C
  H137     1.0000 0.18519  0.96820  0.48239  Biso   1.000  H
  N94      1.0000 0.23839  0.02499  0.45485  Biso   1.000  N
  H138     1.0000 0.16038  0.03960  0.48349  Biso   1.000  H
  N95      1.0000 0.33402  0.10798  0.40878  Biso   1.000  N
  H139     1.0000 0.43071  0.15342  0.41110  Biso   1.000  H
  H140     1.0000 0.38359  0.15178  0.37359  Biso   1.000  H
  C141     1.0000 0.30097  0.98809  0.45871  Biso   1.000  C
  C142     1.0000 0.33549  0.08841  0.44366  Biso   1.000  C
  N96      1.0000 0.21753  0.11251  0.41509  Biso   1.000  N
  H141     1.0000 0.12699  0.15202  0.42799  Biso   1.000  H
  H142     1.0000 0.13249  0.15888  0.38831  Biso   1.000  H
  C143     1.0000 0.25300  0.08878  0.44767  Biso   1.000  C
  C144     1.0000 0.26550  0.12530  0.39299  Biso   1.000  C
  O47      1.0000 0.30509  0.93434  0.46821  Biso   1.000  O
  H143     1.0000 0.36519  0.11750  0.46009  Biso   1.000  H
  H144     1.0000 0.24422  0.11680  0.46681  Biso   1.000  H
  O48      1.0000 0.24960  0.14805  0.36470  Biso   1.000  O
  O49      1.0000 0.51932  0.11372  0.56449  Biso   1.000  O
  C145     1.0000 0.50628  0.06370  0.57778  Biso   1.000  C
  N97      1.0000 0.53030  0.00621  0.57032  Biso   1.000  N
  N98      1.0000 0.46438  0.05698  0.60331  Biso   1.000  N
  C146     1.0000 0.56759  0.99510  0.54088  Biso   1.000  C
  C147     1.0000 0.50250  0.95689  0.58971  Biso   1.000  C
  C148     1.0000 0.41051  0.10461  0.60844  Biso   1.000  C
  C149     1.0000 0.45432  0.99201  0.61187  Biso   1.000  C
  H145     1.0000 0.56560  0.03391  0.52719  Biso   1.000  H
  N99      1.0000 0.64292  0.97618  0.54972  Biso   1.000  N
  H146     1.0000 0.54048  0.96240  0.52629  Biso   1.000  H
  N100     1.0000 0.55722  0.92630  0.61424  Biso   1.000  N
  H147     1.0000 0.47288  0.92588  0.57431  Biso   1.000  H
  N101     1.0000 0.41590  0.12432  0.64381  Biso   1.000  N
  H148     1.0000 0.36050  0.08789  0.60060  Biso   1.000  H
  H149     1.0000 0.41730  0.14142  0.59421  Biso   1.000  H
  N102     1.0000 0.48729  0.97562  0.64646  Biso   1.000  N
  H150     1.0000 0.40151  0.97898  0.60660  Biso   1.000  H
  C150     1.0000 0.69901  0.01191  0.54129  Biso   1.000  C
  C151     1.0000 0.66449  0.91159  0.55634  Biso   1.000  C
  C152     1.0000 0.60069  0.87339  0.60558  Biso   1.000  C
  C153     1.0000 0.54520  0.93490  0.64703  Biso   1.000  C
  C154     1.0000 0.38642  0.08561  0.66900  Biso   1.000  C
  C155     1.0000 0.41311  0.18658  0.65142  Biso   1.000  C
  C156     1.0000 0.44568  0.97922  0.67455  Biso   1.000  C
  O50      1.0000 0.69490  0.06566  0.53179  Biso   1.000  O
  N103     1.0000 0.76160  0.97501  0.54515  Biso   1.000  N
  N104     1.0000 0.66602  0.89202  0.59122  Biso   1.000  N
  C157     1.0000 0.74699  0.91122  0.55233  Biso   1.000  C
  H151     1.0000 0.63479  0.88250  0.53991  Biso   1.000  H
  H152     1.0000 0.56933  0.84658  0.58890  Biso   1.000  H
  H153     1.0000 0.61639  0.84822  0.62641  Biso   1.000  H
  O51      1.0000 0.57852  0.91089  0.67309  Biso   1.000  O
  N105     1.0000 0.43889  0.04250  0.68704  Biso   1.000  N
  H154     1.0000 0.33959  0.06431  0.65891  Biso   1.000  H
  C158     1.0000 0.37442  0.13301  0.69683  Biso   1.000  C
  O52      1.0000 0.42673  0.22968  0.63310  Biso   1.000  O
  N106     1.0000 0.39530  0.19251  0.68346  Biso   1.000  N
  H155     1.0000 0.47011  0.95288  0.69361  Biso   1.000  H
  H156     1.0000 0.39590  0.96198  0.66691  Biso   1.000  H
  C159     1.0000 0.82631  0.99379  0.53168  Biso   1.000  C
  C160     1.0000 0.73448  0.87470  0.60701  Biso   1.000  C
  N107     1.0000 0.78251  0.88749  0.58491  Biso   1.000  N
  H157     1.0000 0.75582  0.88320  0.53319  Biso   1.000  H
  C161     1.0000 0.45631  0.05618  0.72095  Biso   1.000  C
  N108     1.0000 0.42420  0.11218  0.72682  Biso   1.000  N
  H158     1.0000 0.32221  0.13329  0.70081  Biso   1.000  H
  C162     1.0000 0.37600  0.25201  0.69762  Biso   1.000  C
  N109     1.0000 0.88888  0.00630  0.55788  Biso   1.000  N
  H159     1.0000 0.81480  0.03180  0.51761  Biso   1.000  H
  H160     1.0000 0.83961  0.96040  0.51651  Biso   1.000  H
  O53      1.0000 0.75038  0.85195  0.63530  Biso   1.000  O
  C163     1.0000 0.85999  0.87031  0.59209  Biso   1.000  C
  O54      1.0000 0.49498  0.02480  0.74290  Biso   1.000  O
  C164     1.0000 0.42180  0.13670  0.76073  Biso   1.000  C
  N110     1.0000 0.43178  0.27368  0.72537  Biso   1.000  N
  H161     1.0000 0.36922  0.28381  0.67920  Biso   1.000  H
  H162     1.0000 0.32861  0.24738  0.70610  Biso   1.000  H
  C165     1.0000 0.91977  0.06520  0.56224  Biso   1.000  C
  C166     1.0000 0.93792  0.95820  0.57400  Biso   1.000  C
  N111     1.0000 0.90920  0.92299  0.59981  Biso   1.000  N
  H163     1.0000 0.87300  0.84798  0.57201  Biso   1.000  H
  H164     1.0000 0.86750  0.84112  0.61169  Biso   1.000  H
  N112     1.0000 0.46540  0.19251  0.76809  Biso   1.000  N
  H165     1.0000 0.43992  0.10438  0.77790  Biso   1.000  H
  H166     1.0000 0.37010  0.14609  0.76290  Biso   1.000  H
  C167     1.0000 0.43719  0.25509  0.76081  Biso   1.000  C
  C168     1.0000 0.48429  0.31650  0.72008  Biso   1.000  C
  O55      1.0000 0.89441  0.11274  0.54799  Biso   1.000  O
  N113     1.0000 0.98338  0.05969  0.58391  Biso   1.000  N
  H167     1.0000 0.95562  0.93041  0.55680  Biso   1.000  H
  C169     1.0000 0.00161  0.99608  0.59480  Biso   1.000  C
  C170     1.0000 0.94491  0.93499  0.63228  Biso   1.000  C
  C171     1.0000 0.52912  0.19242  0.79132  Biso   1.000  C
  H168     1.0000 0.38991  0.26191  0.76960  Biso   1.000  H
  C172     1.0000 0.49991  0.29759  0.77928  Biso   1.000  C
  O56      1.0000 0.49052  0.33967  0.69281  Biso   1.000  O
  N114     1.0000 0.52808  0.32781  0.75097  Biso   1.000  N
  C173     1.0000 0.03317  0.11251  0.59329  Biso   1.000  C
  N115     1.0000 0.99359  0.98319  0.63034  Biso   1.000  N
  H169     1.0000 0.05081  0.98291  0.58969  Biso   1.000  H
  O57      1.0000 0.93551  0.90842  0.65824  Biso   1.000  O
  O58      1.0000 0.56120  0.14655  0.80445  Biso   1.000  O
  N116     1.0000 0.54989  0.25262  0.79783  Biso   1.000  N
  H170     1.0000 0.48162  0.32851  0.79479  Biso   1.000  H
  C174     1.0000 0.57408  0.38310  0.75552  Biso   1.000  C
  N117     1.0000 0.02831  0.13679  0.62651  Biso   1.000  N
  H171     1.0000 0.02132  0.14609  0.57620  Biso   1.000  H
  H172     1.0000 0.08442  0.09892  0.59280  Biso   1.000  H
  C175     1.0000 0.05190  0.99748  0.65865  Biso   1.000  C
  C176     1.0000 0.61632  0.27032  0.82027  Biso   1.000  C
  N118     1.0000 0.65190  0.36970  0.76089  Biso   1.000  N
  H173     1.0000 0.56252  0.40692  0.77540  Biso   1.000  H
  H174     1.0000 0.56199  0.40991  0.73510  Biso   1.000  H
  C177     1.0000 0.99492  0.19349  0.63075  Biso   1.000  C
  C178     1.0000 0.07217  0.11498  0.65745  Biso   1.000  C
  H175     1.0000 0.10012  0.99388  0.65071  Biso   1.000  H
  H176     1.0000 0.05092  0.96651  0.67710  Biso   1.000  H
  N119     1.0000 0.04492  0.05950  0.67217  Biso   1.000  N
  N120     1.0000 0.67690  0.28521  0.80241  Biso   1.000  N
  H177     1.0000 0.60582  0.30712  0.83381  Biso   1.000  H
  H178     1.0000 0.63142  0.23571  0.83639  Biso   1.000  H
  C179     1.0000 0.69127  0.34999  0.79328  Biso   1.000  C
  C180     1.0000 0.69648  0.37619  0.73605  Biso   1.000  C
  O59      1.0000 0.95899  0.22366  0.60872  Biso   1.000  O
  N121     1.0000 0.01229  0.20862  0.66496  Biso   1.000  N
  C181     1.0000 0.06402  0.16668  0.68369  Biso   1.000  C
  H179     1.0000 0.12468  0.10980  0.65451  Biso   1.000  H
  C182     1.0000 0.03050  0.07010  0.70475  Biso   1.000  C
  C183     1.0000 0.74118  0.25140  0.80928  Biso   1.000  C
  H180     1.0000 0.68430  0.37969  0.81199  Biso   1.000  H
  C184     1.0000 0.77199  0.34780  0.78761  Biso   1.000  C
  O60      1.0000 0.67628  0.39198  0.70679  Biso   1.000  O
  N122     1.0000 0.76581  0.35891  0.75072  Biso   1.000  N
  C185     1.0000 0.00297  0.27298  0.67567  Biso   1.000  C
  N123     1.0000 0.03562  0.13282  0.71091  Biso   1.000  N
  H181     1.0000 0.11198  0.18770  0.69220  Biso   1.000  H
  O61      1.0000 0.01539  0.02984  0.72442  Biso   1.000  O
  O62      1.0000 0.74800  0.20007  0.82203  Biso   1.000  O
  N124     1.0000 0.79548  0.28559  0.79817  Biso   1.000  N
  H182     1.0000 0.80261  0.38039  0.80121  Biso   1.000  H
  C186     1.0000 0.82912  0.37722  0.73526  Biso   1.000  C
  N125     1.0000 0.95699  0.27849  0.70166  Biso   1.000  N
  H183     1.0000 0.98110  0.29778  0.65551  Biso   1.000  H
  H184     1.0000 0.05192  0.29091  0.68451  Biso   1.000  H
  C187     1.0000 0.04211  0.15888  0.74522  Biso   1.000  C
  C188     1.0000 0.87259  0.26728  0.80683  Biso   1.000  C
  N126     1.0000 0.87523  0.32379  0.72902  Biso   1.000  N
  H185     1.0000 0.81173  0.39861  0.71331  Biso   1.000  H
  H186     1.0000 0.85929  0.40729  0.75051  Biso   1.000  H
  C189     1.0000 0.98721  0.26779  0.73771  Biso   1.000  C
  C190     1.0000 0.89580  0.31571  0.69790  Biso   1.000  C
  N127     1.0000 0.98359  0.20306  0.74870  Biso   1.000  N
  H187     1.0000 0.04102  0.12442  0.76181  Biso   1.000  H
  H188     1.0000 0.09017  0.18032  0.75089  Biso   1.000  H
  N128     1.0000 0.90631  0.25257  0.77680  Biso   1.000  N
  H189     1.0000 0.87618  0.23029  0.82201  Biso   1.000  H
  H190     1.0000 0.90038  0.30170  0.81960  Biso   1.000  H
  C191     1.0000 0.93149  0.30100  0.75659  Biso   1.000  C
  H191     1.0000 0.03779  0.28549  0.74389  Biso   1.000  H
  O63      1.0000 0.86352  0.33659  0.67076  Biso   1.000  O
  C192     1.0000 0.94230  0.19769  0.77412  Biso   1.000  C
  H192     1.0000 0.95481  0.33598  0.77121  Biso   1.000  H
  O64      1.0000 0.93661  0.15052  0.79168  Biso   1.000  O
  O65      1.0000 0.75201  0.70007  0.67797  Biso   1.000  O
  C193     1.0000 0.75882  0.75140  0.69072  Biso   1.000  C
  N129     1.0000 0.70448  0.78559  0.70183  Biso   1.000  N
  N130     1.0000 0.82310  0.78521  0.69759  Biso   1.000  N
  C194     1.0000 0.62741  0.76728  0.69317  Biso   1.000  C
  C195     1.0000 0.72801  0.84780  0.71239  Biso   1.000  C
  C196     1.0000 0.80868  0.84999  0.70672  Biso   1.000  C
  C197     1.0000 0.88368  0.77032  0.67973  Biso   1.000  C
  N131     1.0000 0.59369  0.75257  0.72320  Biso   1.000  N
  H193     1.0000 0.62382  0.73029  0.67799  Biso   1.000  H
  H194     1.0000 0.59957  0.80170  0.68040  Biso   1.000  H
  N132     1.0000 0.73420  0.85891  0.74928  Biso   1.000  N
  H195     1.0000 0.69739  0.88039  0.69879  Biso   1.000  H
  N133     1.0000 0.84811  0.86970  0.73911  Biso   1.000  N
  H196     1.0000 0.81570  0.87969  0.68801  Biso   1.000  H
  N134     1.0000 0.95011  0.75262  0.70217  Biso   1.000  N
  H197     1.0000 0.89419  0.80712  0.66619  Biso   1.000  H
  H198     1.0000 0.86859  0.73571  0.66361  Biso   1.000  H
  C198     1.0000 0.55770  0.69769  0.72588  Biso   1.000  C
  C199     1.0000 0.56851  0.80100  0.74341  Biso   1.000  C
  C200     1.0000 0.67088  0.87722  0.76474  Biso   1.000  C
  C201     1.0000 0.80352  0.87619  0.76395  Biso   1.000  C
  C202     1.0000 0.92587  0.88310  0.74448  Biso   1.000  C
  C203     1.0000 0.97089  0.69242  0.70868  Biso   1.000  C
  C204     1.0000 0.00010  0.79759  0.72072  Biso   1.000  C
  O66      1.0000 0.56339  0.65052  0.70832  Biso   1.000  O
  N135     1.0000 0.51642  0.70306  0.75130  Biso   1.000  N
  C205     1.0000 0.51279  0.76779  0.76229  Biso   1.000  C
  N136     1.0000 0.62478  0.82379  0.77098  Biso   1.000  N
  H199     1.0000 0.54520  0.83598  0.72879  Biso   1.000  H
  H200     1.0000 0.68828  0.89861  0.78669  Biso   1.000  H
  H201     1.0000 0.64072  0.90729  0.74949  Biso   1.000  H
  O67      1.0000 0.82367  0.89198  0.79321  Biso   1.000  O
  N137     1.0000 0.97192  0.82781  0.74903  Biso   1.000  N
  H202     1.0000 0.93749  0.90692  0.72460  Biso   1.000  H
  H203     1.0000 0.93801  0.90991  0.76490  Biso   1.000  H
  O68      1.0000 0.93880  0.64655  0.69555  Biso   1.000  O
  N138     1.0000 0.03461  0.69251  0.73191  Biso   1.000  N
  C206     1.0000 0.06282  0.75509  0.73919  Biso   1.000  C
  H204     1.0000 0.01839  0.82851  0.70521  Biso   1.000  H
  C207     1.0000 0.45790  0.65888  0.75478  Biso   1.000  C
  N139     1.0000 0.54301  0.77849  0.79834  Biso   1.000  N
  H205     1.0000 0.46222  0.78549  0.75611  Biso   1.000  H
  C208     1.0000 0.60420  0.81571  0.80210  Biso   1.000  C
  C209     1.0000 0.01571  0.81650  0.77992  Biso   1.000  C
  C210     1.0000 0.07821  0.63670  0.73927  Biso   1.000  C
  N140     1.0000 0.06817  0.77368  0.77463  Biso   1.000  N
  H206     1.0000 0.11009  0.76191  0.73040  Biso   1.000  H
  N141     1.0000 0.46439  0.63282  0.78909  Biso   1.000  N
  H207     1.0000 0.45898  0.62442  0.73820  Biso   1.000  H
  H208     1.0000 0.40978  0.68032  0.74911  Biso   1.000  H
  C211     1.0000 0.49698  0.77298  0.82433  Biso   1.000  C
  O69      1.0000 0.63648  0.83659  0.82924  Biso   1.000  O
  O70      1.0000 0.00949  0.83967  0.80719  Biso   1.000  O
  N142     1.0000 0.07581  0.61218  0.77318  Biso   1.000  N
  H209     1.0000 0.06008  0.60438  0.72210  Biso   1.000  H
  H210     1.0000 0.12990  0.64609  0.73710  Biso   1.000  H
  C212     1.0000 0.12401  0.75201  0.80238  Biso   1.000  C
  C213     1.0000 0.46951  0.57010  0.79525  Biso   1.000  C
  C214     1.0000 0.43599  0.66668  0.81631  Biso   1.000  C
  N143     1.0000 0.48772  0.70862  0.83504  Biso   1.000  N
  H211     1.0000 0.51891  0.79778  0.84449  Biso   1.000  H
  H212     1.0000 0.44809  0.79091  0.81549  Biso   1.000  H
  C215     1.0000 0.04370  0.55618  0.77905  Biso   1.000  C
  C216     1.0000 0.12559  0.63301  0.80317  Biso   1.000  C
  N144     1.0000 0.10471  0.69251  0.81654  Biso   1.000  N
  H213     1.0000 0.13079  0.78381  0.82080  Biso   1.000  H
  H214     1.0000 0.17140  0.74738  0.79390  Biso   1.000  H
  O71      1.0000 0.48461  0.52984  0.77558  Biso   1.000  O
  N145     1.0000 0.45509  0.55950  0.82783  Biso   1.000  N
  H215     1.0000 0.38803  0.68770  0.80780  Biso   1.000  H
  C217     1.0000 0.42778  0.61498  0.84255  Biso   1.000  C
  C218     1.0000 0.50508  0.69349  0.86925  Biso   1.000  C
  O72      1.0000 0.00502  0.52480  0.75710  Biso   1.000  O
  N146     1.0000 0.06112  0.54250  0.81296  Biso   1.000  N
  C219     1.0000 0.11359  0.58561  0.83100  Biso   1.000  C
  H216     1.0000 0.17779  0.63329  0.79919  Biso   1.000  H
  C220     1.0000 0.08690  0.68658  0.84858  Biso   1.000  C
  C221     1.0000 0.44811  0.49748  0.84135  Biso   1.000  C
  N147     1.0000 0.47170  0.63679  0.87349  Biso   1.000  N
  H217     1.0000 0.37532  0.60980  0.84549  Biso   1.000  H
  O73      1.0000 0.54102  0.72366  0.89128  Biso   1.000  O
  C222     1.0000 0.05427  0.47922  0.82545  Biso   1.000  C
  N148     1.0000 0.08411  0.62432  0.85619  Biso   1.000  N
  H218     1.0000 0.16042  0.56431  0.84109  Biso   1.000  H
  O74      1.0000 0.07328  0.72968  0.86690  Biso   1.000  O
  N149     1.0000 0.50642  0.48319  0.86966  Biso   1.000  N
  H219     1.0000 0.39988  0.49388  0.84929  Biso   1.000  H
  H220     1.0000 0.44908  0.46651  0.82290  Biso   1.000  H
  C223     1.0000 0.46678  0.61251  0.90671  Biso   1.000  C
  N150     1.0000 0.01271  0.47562  0.85354  Biso   1.000  N
  H221     1.0000 0.02990  0.45288  0.80639  Biso   1.000  H
  H222     1.0000 0.10411  0.46198  0.83309  Biso   1.000  H
  C224     1.0000 0.08949  0.60461  0.89156  Biso   1.000  C
  C225     1.0000 0.55510  0.43499  0.86772  Biso   1.000  C
  C226     1.0000 0.49840  0.49608  0.90520  Biso   1.000  C
  N151     1.0000 0.51662  0.55969  0.91609  Biso   1.000  N
  H223     1.0000 0.47869  0.64609  0.92380  Biso   1.000  H
  H224     1.0000 0.41559  0.59892  0.90720  Biso   1.000  H
  C227     1.0000 0.95480  0.43490  0.85297  Biso   1.000  C
  C228     1.0000 0.04568  0.49201  0.88813  Biso   1.000  C
  N152     1.0000 0.03562  0.55698  0.89669  Biso   1.000  N
  H225     1.0000 0.13951  0.58789  0.89940  Biso   1.000  H
  H226     1.0000 0.08271  0.64142  0.90579  Biso   1.000  H
  O75      1.0000 0.56449  0.40842  0.84176  Biso   1.000  O
  N153     1.0000 0.59081  0.42299  0.90019  Biso   1.000  N
  H227     1.0000 0.44918  0.48291  0.91029  Biso   1.000  H
  C229     1.0000 0.56209  0.45820  0.92600  Biso   1.000  C
  C230     1.0000 0.58018  0.56520  0.93776  Biso   1.000  C
  N154     1.0000 0.94278  0.42630  0.88576  Biso   1.000  N
  O76      1.0000 0.92148  0.41089  0.82691  Biso   1.000  O
  C231     1.0000 0.99751  0.45689  0.91029  Biso   1.000  C
  H228     1.0000 0.09849  0.47898  0.89340  Biso   1.000  H
  C232     1.0000 0.99372  0.56370  0.92222  Biso   1.000  C
  C233     1.0000 0.64002  0.37031  0.90791  Biso   1.000  C
  N155     1.0000 0.61112  0.50630  0.94212  Biso   1.000  N
  H229     1.0000 0.54439  0.43041  0.94320  Biso   1.000  H
  O77      1.0000 0.60560  0.61274  0.95201  Biso   1.000  O
  C234     1.0000 0.89931  0.37339  0.89442  Biso   1.000  C
  N156     1.0000 0.96971  0.50621  0.92968  Biso   1.000  N
  H230     1.0000 0.02712  0.42588  0.92570  Biso   1.000  H
  O78      1.0000 0.98069  0.61372  0.93551  Biso   1.000  O
  N157     1.0000 0.71749  0.38749  0.91509  Biso   1.000  N
  H231     1.0000 0.62701  0.34798  0.92799  Biso   1.000  H
  H232     1.0000 0.63251  0.34112  0.88831  Biso   1.000  H
  C235     1.0000 0.67370  0.49379  0.96832  Biso   1.000  C
  N158     1.0000 0.83399  0.39202  0.90878  Biso   1.000  N
  H233     1.0000 0.93068  0.34658  0.91110  Biso   1.000  H
  H234     1.0000 0.88361  0.34822  0.87359  Biso   1.000  H
  C236     1.0000 0.93242  0.49510  0.95912  Biso   1.000  C
  C237     1.0000 0.76547  0.37470  0.89299  Biso   1.000  C
  C238     1.0000 0.75302  0.41122  0.94767  Biso   1.000  C
  N159     1.0000 0.73841  0.47501  0.95485  Biso   1.000  N
  H235     1.0000 0.68521  0.53180  0.98239  Biso   1.000  H
  H236     1.0000 0.66040  0.46040  0.98349  Biso   1.000  H
  C239     1.0000 0.83551  0.41159  0.94366  Biso   1.000  C
  N160     1.0000 0.85708  0.47618  0.95028  Biso   1.000  N
  H237     1.0000 0.93440  0.53391  0.97279  Biso   1.000  H
  H238     1.0000 0.95953  0.46240  0.97371  Biso   1.000  H
  O79      1.0000 0.74962  0.35195  0.86470  Biso   1.000  O
  H239     1.0000 0.74419  0.38320  0.96681  Biso   1.000  H
  C240     1.0000 0.80099  0.51191  0.95871  Biso   1.000  C
  H240     1.0000 0.86521  0.38250  0.96009  Biso   1.000  H
  O80      1.0000 0.80511  0.56566  0.96821  Biso   1.000  O
  C241     1.0000 0.25093  0.02882  0.13880  Biso   1.000  C
  N161     1.0000 0.17321  0.04124  0.13295  Biso   1.000  N
  H241     1.0000 0.26752  0.02260  0.16361  Biso   1.000  H
  H242     1.0000 0.27720  0.06562  0.13159  Biso   1.000  H
  N162     1.0000 0.27029  0.97487  0.12076  Biso   1.000  N
  C242     1.0000 0.14328  0.09481  0.11634  Biso   1.000  C
  C243     1.0000 0.12322  0.01392  0.15300  Biso   1.000  C
  C244     1.0000 0.30689  0.97819  0.09324  Biso   1.000  C
  C245     1.0000 0.26378  0.91131  0.13233  Biso   1.000  C
  O81      1.0000 0.17572  0.12969  0.09968  Biso   1.000  O
  N163     1.0000 0.07170  0.09985  0.12127  Biso   1.000  N
  C246     1.0000 0.05399  0.05511  0.14644  Biso   1.000  C
  H243     1.0000 0.14480  0.01289  0.17779  Biso   1.000  H
  N164     1.0000 0.09530  0.95288  0.14094  Biso   1.000  N
  O82      1.0000 0.32242  0.02569  0.07919  Biso   1.000  O
  N165     1.0000 0.32111  0.91860  0.08371  Biso   1.000  N
  N166     1.0000 0.18958  0.88558  0.12505  Biso   1.000  N
  H244     1.0000 0.28559  0.90631  0.15699  Biso   1.000  H
  C247     1.0000 0.30588  0.87278  0.10880  Biso   1.000  C
  C248     1.0000 0.03432  0.15958  0.11606  Biso   1.000  C
  H245     1.0000 0.04400  0.07608  0.16770  Biso   1.000  H
  N167     1.0000 0.99589  0.01214  0.13282  Biso   1.000  N
  C249     1.0000 0.01980  0.95269  0.13210  Biso   1.000  C
  C250     1.0000 0.13728  0.89562  0.14800  Biso   1.000  C
  C251     1.0000 0.37013  0.90631  0.05989  Biso   1.000  C
  C252     1.0000 0.18702  0.83192  0.10673  Biso   1.000  C
  N168     1.0000 0.25321  0.82500  0.09549  Biso   1.000  N
  H246     1.0000 0.35212  0.85438  0.12170  Biso   1.000  H
  H247     1.0000 0.06358  0.18789  0.10369  Biso   1.000  H
  H248     1.0000 0.03151  0.17859  0.13859  Biso   1.000  H
  N169     1.0000 0.95980  0.15412  0.09659  Biso   1.000  N
  C253     1.0000 0.92001  0.02522  0.13711  Biso   1.000  C
  O83      1.0000 0.98201  0.90613  0.12490  Biso   1.000  O
  H249     1.0000 0.16403  0.89702  0.17171  Biso   1.000  H
  H250     1.0000 0.10289  0.85980  0.14621  Biso   1.000  H
  N170     1.0000 0.33323  0.87661  0.02836  Biso   1.000  N
  H251     1.0000 0.41018  0.87871  0.07080  Biso   1.000  H
  H252     1.0000 0.39251  0.94601  0.05399  Biso   1.000  H
  O84      1.0000 0.13558  0.79465  0.10119  Biso   1.000  O
  C254     1.0000 0.27103  0.77181  0.07627  Biso   1.000  C
  C255     1.0000 0.93780  0.19639  0.07152  Biso   1.000  C
  C256     1.0000 0.90002  0.13520  0.11378  Biso   1.000  C
  N171     1.0000 0.88397  0.06805  0.11166  Biso   1.000  N
  H253     1.0000 0.89202  0.98552  0.13560  Biso   1.000  H
  H254     1.0000 0.91980  0.04311  0.16011  Biso   1.000  H
  C257     1.0000 0.32049  0.90851  0.99793  Biso   1.000  C
  C258     1.0000 0.32382  0.81011  0.02443  Biso   1.000  C
  N172     1.0000 0.26620  0.78330  0.03986  Biso   1.000  N
  H255     1.0000 0.23732  0.73720  0.07959  Biso   1.000  H
  H256     1.0000 0.32168  0.75808  0.08550  Biso   1.000  H
  O85      1.0000 0.97710  0.22684  0.05540  Biso   1.000  O
  N173     1.0000 0.86122  0.19942  0.06646  Biso   1.000  N
  C259     1.0000 0.83170  0.16458  0.09263  Biso   1.000  C
  H257     1.0000 0.90740  0.15029  0.13801  Biso   1.000  H
  C260     1.0000 0.81592  0.05642  0.09314  Biso   1.000  C
  O86      1.0000 0.33062  0.96348  0.99412  Biso   1.000  O
  N174     1.0000 0.29443  0.86638  0.97261  Biso   1.000  N
  C261     1.0000 0.29592  0.80329  0.98503  Biso   1.000  C
  H258     1.0000 0.37129  0.78750  0.03151  Biso   1.000  H
  C262     1.0000 0.20892  0.75999  0.01625  Biso   1.000  C
  C263     1.0000 0.82212  0.24780  0.04658  Biso   1.000  C
  N175     1.0000 0.78622  0.11190  0.08031  Biso   1.000  N
  H259     1.0000 0.80588  0.19288  0.10691  Biso   1.000  H
  O87      1.0000 0.78712  0.00495  0.08948  Biso   1.000  O
  C264     1.0000 0.28843  0.88310  0.93750  Biso   1.000  C
  N176     1.0000 0.22414  0.77419  0.98439  Biso   1.000  N
  H260     1.0000 0.32954  0.77639  0.97381  Biso   1.000  H
  O88      1.0000 0.15659  0.72992  0.02284  Biso   1.000  O
  N177     1.0000 0.77592  0.22581  0.01561  Biso   1.000  N
  H261     1.0000 0.85802  0.27830  0.04019  Biso   1.000  H
  H262     1.0000 0.79090  0.26999  0.06079  Biso   1.000  H
  C265     1.0000 0.71162  0.11690  0.06250  Biso   1.000  C
  N178     1.0000 0.21384  0.88810  0.91969  Biso   1.000  N
  H263     1.0000 0.31339  0.92369  0.93589  Biso   1.000  H
  H264     1.0000 0.31472  0.85149  0.92580  Biso   1.000  H
  C266     1.0000 0.17793  0.75220  0.95342  Biso   1.000  C
  C267     1.0000 0.79113  0.24001  0.98375  Biso   1.000  C
  C268     1.0000 0.70408  0.19671  0.01497  Biso   1.000  C
  N179     1.0000 0.70562  0.13362  0.02739  Biso   1.000  N
  H265     1.0000 0.68661  0.07631  0.06411  Biso   1.000  H
  H266     1.0000 0.68528  0.14851  0.07420  Biso   1.000  H
  C269     1.0000 0.16830  0.83542  0.90737  Biso   1.000  C
  C270     1.0000 0.18414  0.94358  0.90686  Biso   1.000  C
  N180     1.0000 0.13883  0.80058  0.93354  Biso   1.000  N
  H267     1.0000 0.14203  0.72170  0.95981  Biso   1.000  H
  H268     1.0000 0.20910  0.73001  0.93921  Biso   1.000  H
  O89      1.0000 0.84341  0.27008  0.97716  Biso   1.000  O
  N181     1.0000 0.73380  0.21670  0.96014  Biso   1.000  N
  C271     1.0000 0.67623  0.18989  0.97557  Biso   1.000  C
  H269     1.0000 0.67051  0.22361  0.02619  Biso   1.000  H
  C272     1.0000 0.67951  0.09149  0.00207  Biso   1.000  C
  H270     1.0000 0.19412  0.80712  0.89309  Biso   1.000  H
  C273     1.0000 0.10003  0.86480  0.88622  Biso   1.000  C
  O90      1.0000 0.21293  0.99505  0.91052  Biso   1.000  O
  N182     1.0000 0.11603  0.93195  0.88834  Biso   1.000  N
  C274     1.0000 0.06220  0.80361  0.92848  Biso   1.000  C
  C275     1.0000 0.72903  0.22819  0.92373  Biso   1.000  C
  N183     1.0000 0.66683  0.12339  0.97164  Biso   1.000  N
  H271     1.0000 0.62871  0.21250  0.96849  Biso   1.000  H
  O91      1.0000 0.66938  0.03652  0.00588  Biso   1.000  O
  N184     1.0000 0.04020  0.84588  0.90341  Biso   1.000  N
  H272     1.0000 0.09260  0.84971  0.86199  Biso   1.000  H
  C276     1.0000 0.08004  0.97478  0.86289  Biso   1.000  C
  O92      1.0000 0.02290  0.77316  0.94460  Biso   1.000  O
  N185     1.0000 0.74684  0.17500  0.90451  Biso   1.000  N
  H273     1.0000 0.76273  0.26280  0.92041  Biso   1.000  H
  H274     1.0000 0.67832  0.24192  0.91450  Biso   1.000  H
  C277     1.0000 0.62993  0.09369  0.94011  Biso   1.000  C
  C278     1.0000 0.96573  0.84042  0.88394  Biso   1.000  C
  N186     1.0000 0.00411  0.98786  0.86718  Biso   1.000  N
  H275     1.0000 0.08020  0.95689  0.83989  Biso   1.000  H
  H276     1.0000 0.10804  0.01448  0.86440  Biso   1.000  H
  C279     1.0000 0.69412  0.12722  0.89120  Biso   1.000  C
  C280     1.0000 0.81304  0.16808  0.89327  Biso   1.000  C
  N187     1.0000 0.67894  0.08140  0.91629  Biso   1.000  N
  H277     1.0000 0.58982  0.12129  0.92920  Biso   1.000  H
  H278     1.0000 0.60754  0.05399  0.94601  Biso   1.000  H
  N188     1.0000 0.92830  0.90015  0.87873  Biso   1.000  N
  H279     1.0000 0.93642  0.81211  0.89631  Biso   1.000  H
  H280     1.0000 0.96849  0.82141  0.86141  Biso   1.000  H
  C281     1.0000 0.98020  0.04731  0.86790  Biso   1.000  C
  C282     1.0000 0.94601  0.94489  0.85356  Biso   1.000  C
  C283     1.0000 0.73622  0.08869  0.86767  Biso   1.000  C
  H281     1.0000 0.64794  0.14562  0.87830  Biso   1.000  H
  O93      1.0000 0.86442  0.20535  0.89881  Biso   1.000  O
  N189     1.0000 0.81042  0.11442  0.87495  Biso   1.000  N
  C284     1.0000 0.69311  0.02181  0.90676  Biso   1.000  C
  C285     1.0000 0.85672  0.90519  0.88366  Biso   1.000  C
  N190     1.0000 0.90470  0.04712  0.85906  Biso   1.000  N
  O94      1.0000 0.01799  0.09387  0.87510  Biso   1.000  O
  C286     1.0000 0.87684  0.98608  0.84700  Biso   1.000  C
  H282     1.0000 0.95600  0.92392  0.83230  Biso   1.000  H
  N191     1.0000 0.72971  0.02513  0.87924  Biso   1.000  N
  H283     1.0000 0.71441  0.09369  0.84301  Biso   1.000  H
  C287     1.0000 0.86272  0.10438  0.85200  Biso   1.000  C
  O95      1.0000 0.67763  0.97431  0.92081  Biso   1.000  O
  N192     1.0000 0.82679  0.95876  0.86705  Biso   1.000  N
  O96      1.0000 0.82433  0.87031  0.90032  Biso   1.000  O
  H284     1.0000 0.85520  0.98711  0.82221  Biso   1.000  H
  C288     1.0000 0.74913  0.97118  0.86120  Biso   1.000  C
  H285     1.0000 0.83603  0.10298  0.82829  Biso   1.000  H
  H286     1.0000 0.89711  0.14020  0.85379  Biso   1.000  H
  H287     1.0000 0.73253  0.97740  0.83639  Biso   1.000  H
  H288     1.0000 0.72280  0.93438  0.86841  Biso   1.000  H
  Ne1      1.0000 0.22069  0.37240  0.17521  Biso   1.000  Ne
  He1      1.0000 0.24341  0.47164  0.24470  Biso   1.000  He
  He2      1.0000 0.16171  0.26240  0.13203  Biso   1.000  He
  Ar1      1.0000 0.21895  0.37426  0.17499  Biso   1.000  Ar
  Ne2      1.0000 0.50000  0.50000  0.50000  Biso   1.000  Ne
  He3      1.0000 0.38802  0.60732  0.51361  Biso   1.000  He
  He4      1.0000 0.61375  0.39044  0.48613  Biso   1.000  He
  Ar2      1.0000 0.50000  0.50000  0.50000  Biso   1.000  Ar
  Ne3      1.0000 0.00001  0.00000  0.00000  Biso   1.000  Ne
  He5      1.0000 0.89450  0.88965  0.01324  Biso   1.000  He
  He6      1.0000 0.11405  0.10992  0.98609  Biso   1.000  He
  Ar3      1.0000 0.00001  1.00000  0.00000  Biso   1.000  Ar
  Ne4      1.0000 0.27931  0.87240  0.32479  Biso   1.000  Ne
  He7      1.0000 0.34016  0.75644  0.37125  Biso   1.000  He
  He8      1.0000 0.23200  0.96718  0.27703  Biso   1.000  He
  Ar4      1.0000 0.28104  0.87425  0.32501  Biso   1.000  Ar
  Ne5      1.0000 0.72069  0.12760  0.67521  Biso   1.000  Ne
  He9      1.0000 0.76822  0.03198  0.72348  Biso   1.000  He
  He10     1.0000 0.66067  0.24101  0.63016  Biso   1.000  He
  Ar5      1.0000 0.71896  0.12574  0.67499  Biso   1.000  Ar
  Ne6      1.0000 0.77931  0.62760  0.82479  Biso   1.000  Ne
  He11     1.0000 0.83824  0.73750  0.86791  Biso   1.000  He
  He12     1.0000 0.72529  0.50779  0.76294  Biso   1.000  He
  Ar6      1.0000 0.78104  0.62574  0.82501  Biso   1.000  Ar
