data_image0
_cell_length_a       27.898
_cell_length_b       27.898
_cell_length_c       20.519
_cell_angle_alpha    90
_cell_angle_beta     90
_cell_angle_gamma    90

_symmetry_space_group_name_H-M    "P 1"
_symmetry_int_tables_number       1

loop_
  _symmetry_equiv_pos_as_xyz
  'x, y, z'

loop_
  _atom_site_label
  _atom_site_occupancy
  _atom_site_fract_x
  _atom_site_fract_y
  _atom_site_fract_z
  _atom_site_thermal_displace_type
  _atom_site_B_iso_or_equiv
  _atom_site_type_symbol
  C1       1.0000 0.54456  0.45147  0.64053  Biso   1.000  C
  N1       1.0000 0.51287  0.41691  0.67211  Biso   1.000  N
  N2       1.0000 0.58115  0.42942  0.60159  Biso   1.000  N
  H1       1.0000 0.52509  0.47279  0.61251  Biso   1.000  H
  H2       1.0000 0.56000  0.47150  0.67440  Biso   1.000  H
  C2       1.0000 0.46695  0.41229  0.65510  Biso   1.000  C
  C3       1.0000 0.52595  0.38996  0.73083  Biso   1.000  C
  C4       1.0000 0.58363  0.43831  0.53580  Biso   1.000  C
  C5       1.0000 0.62754  0.41533  0.62791  Biso   1.000  C
  N3       1.0000 0.44587  0.38092  0.69823  Biso   1.000  N
  O1       1.0000 0.44627  0.43240  0.61051  Biso   1.000  O
  C6       1.0000 0.47824  0.36626  0.74940  Biso   1.000  C
  N4       1.0000 0.55760  0.34942  0.71782  Biso   1.000  N
  H3       1.0000 0.53850  0.41121  0.76622  Biso   1.000  H
  N5       1.0000 0.62800  0.42512  0.51362  Biso   1.000  N
  O2       1.0000 0.55101  0.45415  0.50193  Biso   1.000  O
  C7       1.0000 0.65983  0.41114  0.56679  Biso   1.000  C
  N6       1.0000 0.62847  0.36719  0.65422  Biso   1.000  N
  H4       1.0000 0.64012  0.43939  0.65973  Biso   1.000  H
  C8       1.0000 0.39494  0.37053  0.69804  Biso   1.000  C
  N7       1.0000 0.49000  0.31475  0.74853  Biso   1.000  N
  H5       1.0000 0.46681  0.37691  0.79331  Biso   1.000  H
  C9       1.0000 0.53678  0.30690  0.73391  Biso   1.000  C
  C10      1.0000 0.60961  0.35526  0.71802  Biso   1.000  C
  C11      1.0000 0.64499  0.43559  0.44910  Biso   1.000  C
  N8       1.0000 0.67381  0.36135  0.56591  Biso   1.000  N
  H6       1.0000 0.68829  0.43279  0.56972  Biso   1.000  H
  C12      1.0000 0.65718  0.33687  0.61913  Biso   1.000  C
  N9       1.0000 0.38379  0.32242  0.67513  Biso   1.000  N
  H7       1.0000 0.37841  0.39411  0.66982  Biso   1.000  H
  H8       1.0000 0.38229  0.37440  0.74282  Biso   1.000  H
  C13      1.0000 0.45885  0.27934  0.77860  Biso   1.000  C
  O3       1.0000 0.55653  0.26762  0.73464  Biso   1.000  O
  H9       1.0000 0.61840  0.38089  0.74911  Biso   1.000  H
  H10      1.0000 0.62460  0.32511  0.73322  Biso   1.000  H
  N10      1.0000 0.65098  0.39437  0.40840  Biso   1.000  N
  H11      1.0000 0.62209  0.45770  0.42780  Biso   1.000  H
  H12      1.0000 0.67611  0.45240  0.45251  Biso   1.000  H
  C14      1.0000 0.71181  0.34203  0.52561  Biso   1.000  C
  O4       1.0000 0.66732  0.29565  0.63468  Biso   1.000  O
  C15      1.0000 0.36436  0.31336  0.61480  Biso   1.000  C
  C16      1.0000 0.37895  0.28142  0.71821  Biso   1.000  C
  N11      1.0000 0.42412  0.25887  0.73522  Biso   1.000  N
  H13      1.0000 0.47889  0.25321  0.79663  Biso   1.000  H
  H14      1.0000 0.44179  0.29450  0.81554  Biso   1.000  H
  C17      1.0000 0.62503  0.38738  0.35382  Biso   1.000  C
  C18      1.0000 0.69553  0.36694  0.40879  Biso   1.000  C
  N12      1.0000 0.69733  0.33164  0.46011  Biso   1.000  N
  H15      1.0000 0.73862  0.36530  0.52439  Biso   1.000  H
  H16      1.0000 0.72399  0.31221  0.54593  Biso   1.000  H
  N13      1.0000 0.34744  0.26773  0.61431  Biso   1.000  N
  O5       1.0000 0.36207  0.34225  0.56928  Biso   1.000  O
  C19      1.0000 0.35379  0.24342  0.67630  Biso   1.000  C
  H17      1.0000 0.35970  0.28952  0.75783  Biso   1.000  H
  C20      1.0000 0.42756  0.21242  0.71193  Biso   1.000  C
  N14      1.0000 0.64797  0.35411  0.31580  Biso   1.000  N
  O6       1.0000 0.58707  0.40774  0.34037  Biso   1.000  O
  C21      1.0000 0.69191  0.33716  0.34602  Biso   1.000  C
  H18      1.0000 0.72439  0.38820  0.40889  Biso   1.000  H
  C22      1.0000 0.69435  0.28590  0.43540  Biso   1.000  C
  C23      1.0000 0.31486  0.25099  0.56431  Biso   1.000  C
  N15      1.0000 0.38831  0.20435  0.67391  Biso   1.000  N
  H19      1.0000 0.32250  0.23310  0.69560  Biso   1.000  H
  O7       1.0000 0.46014  0.18489  0.72250  Biso   1.000  O
  C24      1.0000 0.63223  0.34013  0.25201  Biso   1.000  C
  N16      1.0000 0.68930  0.28812  0.36980  Biso   1.000  N
  H20      1.0000 0.72030  0.34221  0.31712  Biso   1.000  H
  O8       1.0000 0.69600  0.24873  0.46825  Biso   1.000  O
  N17      1.0000 0.33762  0.21858  0.51840  Biso   1.000  N
  H21      1.0000 0.30189  0.27891  0.54043  Biso   1.000  H
  H22      1.0000 0.28762  0.23432  0.58531  Biso   1.000  H
  C25      1.0000 0.37820  0.15757  0.64550  Biso   1.000  C
  N18      1.0000 0.60585  0.29601  0.24918  Biso   1.000  N
  H23      1.0000 0.66069  0.33719  0.22350  Biso   1.000  H
  H24      1.0000 0.61180  0.36601  0.23412  Biso   1.000  H
  C26      1.0000 0.69385  0.24658  0.32921  Biso   1.000  C
  C27      1.0000 0.34142  0.22891  0.45299  Biso   1.000  C
  C28      1.0000 0.34307  0.16783  0.53243  Biso   1.000  C
  N19      1.0000 0.38261  0.15714  0.57620  Biso   1.000  N
  H25      1.0000 0.40060  0.13370  0.66421  Biso   1.000  H
  H26      1.0000 0.34529  0.14779  0.65763  Biso   1.000  H
  C29      1.0000 0.55775  0.29361  0.24392  Biso   1.000  C
  C30      1.0000 0.62800  0.24858  0.24402  Biso   1.000  C
  N20      1.0000 0.64847  0.23045  0.30382  Biso   1.000  N
  H27      1.0000 0.70862  0.22030  0.35470  Biso   1.000  H
  H28      1.0000 0.71550  0.25410  0.29241  Biso   1.000  H
  N21      1.0000 0.35565  0.18844  0.42249  Biso   1.000  N
  O9       1.0000 0.33314  0.26730  0.42702  Biso   1.000  O
  C31      1.0000 0.35967  0.14822  0.46630  Biso   1.000  C
  H29      1.0000 0.31239  0.15281  0.54720  Biso   1.000  H
  C32      1.0000 0.41777  0.13331  0.54223  Biso   1.000  C
  N22      1.0000 0.54366  0.24651  0.24129  Biso   1.000  N
  O10      1.0000 0.53072  0.32820  0.24119  Biso   1.000  O
  C33      1.0000 0.58527  0.21543  0.23281  Biso   1.000  C
  H30      1.0000 0.65141  0.24711  0.20713  Biso   1.000  H
  C34      1.0000 0.62901  0.18621  0.31941  Biso   1.000  C
  C35      1.0000 0.35788  0.18431  0.35221  Biso   1.000  C
  N23      1.0000 0.40795  0.13166  0.47873  Biso   1.000  N
  H31      1.0000 0.33870  0.12119  0.45183  Biso   1.000  H
  O11      1.0000 0.45498  0.11678  0.56981  Biso   1.000  O
  C36      1.0000 0.49620  0.23260  0.21999  Biso   1.000  C
  N24      1.0000 0.59119  0.17801  0.28101  Biso   1.000  N
  H32      1.0000 0.58599  0.20181  0.18768  Biso   1.000  H
  O12      1.0000 0.64546  0.15915  0.36123  Biso   1.000  O
  N25      1.0000 0.40562  0.18299  0.32550  Biso   1.000  N
  H33      1.0000 0.34088  0.15471  0.33900  Biso   1.000  H
  H34      1.0000 0.34060  0.21181  0.33272  Biso   1.000  H
  C37      1.0000 0.43311  0.10047  0.43409  Biso   1.000  C
  N26      1.0000 0.47025  0.20536  0.26941  Biso   1.000  N
  H35      1.0000 0.49900  0.21299  0.17998  Biso   1.000  H
  H36      1.0000 0.47770  0.26181  0.20903  Biso   1.000  H
  C38      1.0000 0.56391  0.13413  0.28379  Biso   1.000  C
  C39      1.0000 0.42788  0.22005  0.29431  Biso   1.000  C
  C40      1.0000 0.43351  0.13886  0.32170  Biso   1.000  C
  N27      1.0000 0.45717  0.12531  0.38170  Biso   1.000  N
  H37      1.0000 0.40989  0.07750  0.41522  Biso   1.000  H
  H38      1.0000 0.45709  0.08180  0.45889  Biso   1.000  H
  C41      1.0000 0.47552  0.15360  0.27682  Biso   1.000  C
  N28      1.0000 0.51724  0.13847  0.31171  Biso   1.000  N
  H39      1.0000 0.56051  0.12141  0.23900  Biso   1.000  H
  H40      1.0000 0.58230  0.11029  0.30932  Biso   1.000  H
  O13      1.0000 0.41139  0.26120  0.29071  Biso   1.000  O
  H41      1.0000 0.41440  0.11180  0.30289  Biso   1.000  H
  C42      1.0000 0.50624  0.12291  0.37239  Biso   1.000  C
  H42      1.0000 0.47319  0.13711  0.23369  Biso   1.000  H
  O14      1.0000 0.53534  0.10786  0.41323  Biso   1.000  O
  C43      1.0000 0.45544  0.54853  0.64053  Biso   1.000  C
  N29      1.0000 0.41885  0.57058  0.60159  Biso   1.000  N
  N30      1.0000 0.48713  0.58309  0.67211  Biso   1.000  N
  H43      1.0000 0.47491  0.52721  0.61251  Biso   1.000  H
  H44      1.0000 0.44000  0.52850  0.67440  Biso   1.000  H
  C44      1.0000 0.41641  0.56169  0.53580  Biso   1.000  C
  C45      1.0000 0.37250  0.58467  0.62791  Biso   1.000  C
  C46      1.0000 0.53305  0.58771  0.65510  Biso   1.000  C
  C47      1.0000 0.47408  0.61004  0.73083  Biso   1.000  C
  N31      1.0000 0.37200  0.57488  0.51362  Biso   1.000  N
  O15      1.0000 0.44899  0.54585  0.50193  Biso   1.000  O
  C48      1.0000 0.34020  0.58886  0.56679  Biso   1.000  C
  N32      1.0000 0.37153  0.63284  0.65422  Biso   1.000  N
  H45      1.0000 0.35992  0.56061  0.65973  Biso   1.000  H
  O16      1.0000 0.55373  0.56760  0.61051  Biso   1.000  O
  N33      1.0000 0.55416  0.61908  0.69823  Biso   1.000  N
  N34      1.0000 0.44240  0.65058  0.71782  Biso   1.000  N
  C49      1.0000 0.52176  0.63374  0.74940  Biso   1.000  C
  H46      1.0000 0.46150  0.58879  0.76622  Biso   1.000  H
  C50      1.0000 0.35501  0.56441  0.44910  Biso   1.000  C
  N35      1.0000 0.32619  0.63865  0.56591  Biso   1.000  N
  H47      1.0000 0.31171  0.56721  0.56972  Biso   1.000  H
  C51      1.0000 0.34286  0.66313  0.61913  Biso   1.000  C
  C52      1.0000 0.39039  0.64474  0.71802  Biso   1.000  C
  C53      1.0000 0.60506  0.62947  0.69804  Biso   1.000  C
  C54      1.0000 0.46326  0.69310  0.73391  Biso   1.000  C
  N36      1.0000 0.51000  0.68525  0.74853  Biso   1.000  N
  H48      1.0000 0.53319  0.62309  0.79331  Biso   1.000  H
  N37      1.0000 0.34902  0.60567  0.40840  Biso   1.000  N
  H49      1.0000 0.37791  0.54230  0.42780  Biso   1.000  H
  H50      1.0000 0.32389  0.54760  0.45251  Biso   1.000  H
  C55      1.0000 0.28819  0.65797  0.52561  Biso   1.000  C
  O17      1.0000 0.33268  0.70435  0.63468  Biso   1.000  O
  H51      1.0000 0.38160  0.61911  0.74911  Biso   1.000  H
  H52      1.0000 0.37540  0.67489  0.73322  Biso   1.000  H
  N38      1.0000 0.61621  0.67758  0.67513  Biso   1.000  N
  H53      1.0000 0.62162  0.60592  0.66982  Biso   1.000  H
  H54      1.0000 0.61771  0.62560  0.74282  Biso   1.000  H
  O18      1.0000 0.44347  0.73238  0.73464  Biso   1.000  O
  C56      1.0000 0.54115  0.72066  0.77860  Biso   1.000  C
  C57      1.0000 0.37497  0.61262  0.35382  Biso   1.000  C
  C58      1.0000 0.30447  0.63306  0.40879  Biso   1.000  C
  N39      1.0000 0.30271  0.66840  0.46011  Biso   1.000  N
  H55      1.0000 0.26142  0.63470  0.52439  Biso   1.000  H
  H56      1.0000 0.27601  0.68779  0.54593  Biso   1.000  H
  C59      1.0000 0.63564  0.68664  0.61480  Biso   1.000  C
  C60      1.0000 0.62105  0.71862  0.71821  Biso   1.000  C
  N40      1.0000 0.57588  0.74113  0.73522  Biso   1.000  N
  H57      1.0000 0.52111  0.74679  0.79663  Biso   1.000  H
  H58      1.0000 0.55821  0.70550  0.81554  Biso   1.000  H
  O19      1.0000 0.41293  0.59226  0.34037  Biso   1.000  O
  N41      1.0000 0.35203  0.64589  0.31580  Biso   1.000  N
  H59      1.0000 0.27561  0.61180  0.40889  Biso   1.000  H
  C61      1.0000 0.30809  0.66284  0.34602  Biso   1.000  C
  C62      1.0000 0.30565  0.71410  0.43540  Biso   1.000  C
  O20      1.0000 0.63793  0.65779  0.56928  Biso   1.000  O
  N42      1.0000 0.65259  0.73227  0.61431  Biso   1.000  N
  C63      1.0000 0.64621  0.75658  0.67630  Biso   1.000  C
  H60      1.0000 0.64030  0.71052  0.75783  Biso   1.000  H
  C64      1.0000 0.57244  0.78758  0.71193  Biso   1.000  C
  C65      1.0000 0.36780  0.65987  0.25201  Biso   1.000  C
  N43      1.0000 0.31070  0.71188  0.36980  Biso   1.000  N
  H61      1.0000 0.27970  0.65779  0.31712  Biso   1.000  H
  O21      1.0000 0.30400  0.75127  0.46825  Biso   1.000  O
  C66      1.0000 0.68514  0.74901  0.56431  Biso   1.000  C
  N44      1.0000 0.61169  0.79565  0.67391  Biso   1.000  N
  H62      1.0000 0.67750  0.76690  0.69560  Biso   1.000  H
  O22      1.0000 0.53986  0.81511  0.72250  Biso   1.000  O
  N45      1.0000 0.39419  0.70399  0.24918  Biso   1.000  N
  H63      1.0000 0.33931  0.66281  0.22350  Biso   1.000  H
  H64      1.0000 0.38820  0.63399  0.23412  Biso   1.000  H
  C67      1.0000 0.30615  0.75346  0.32921  Biso   1.000  C
  N46      1.0000 0.66238  0.78142  0.51840  Biso   1.000  N
  H65      1.0000 0.69811  0.72109  0.54043  Biso   1.000  H
  H66      1.0000 0.71242  0.76572  0.58531  Biso   1.000  H
  C68      1.0000 0.62180  0.84243  0.64550  Biso   1.000  C
  C69      1.0000 0.44229  0.70639  0.24392  Biso   1.000  C
  C70      1.0000 0.37200  0.75142  0.24402  Biso   1.000  C
  N47      1.0000 0.35153  0.76955  0.30382  Biso   1.000  N
  H67      1.0000 0.29142  0.77970  0.35470  Biso   1.000  H
  H68      1.0000 0.28450  0.74590  0.29241  Biso   1.000  H
  C71      1.0000 0.65858  0.77109  0.45299  Biso   1.000  C
  C72      1.0000 0.65693  0.83217  0.53243  Biso   1.000  C
  N48      1.0000 0.61739  0.84286  0.57620  Biso   1.000  N
  H69      1.0000 0.59940  0.86630  0.66421  Biso   1.000  H
  H70      1.0000 0.65471  0.85221  0.65763  Biso   1.000  H
  O23      1.0000 0.46928  0.67180  0.24119  Biso   1.000  O
  N49      1.0000 0.45634  0.75349  0.24129  Biso   1.000  N
  H71      1.0000 0.34859  0.75292  0.20713  Biso   1.000  H
  C73      1.0000 0.41473  0.78457  0.23281  Biso   1.000  C
  C74      1.0000 0.37103  0.81382  0.31941  Biso   1.000  C
  N50      1.0000 0.64435  0.81156  0.42249  Biso   1.000  N
  O24      1.0000 0.66686  0.73270  0.42702  Biso   1.000  O
  C75      1.0000 0.64033  0.85178  0.46630  Biso   1.000  C
  H72      1.0000 0.68761  0.84719  0.54720  Biso   1.000  H
  C76      1.0000 0.58223  0.86669  0.54223  Biso   1.000  C
  C77      1.0000 0.50380  0.76740  0.21999  Biso   1.000  C
  N51      1.0000 0.40885  0.82203  0.28101  Biso   1.000  N
  H73      1.0000 0.41401  0.79819  0.18768  Biso   1.000  H
  O25      1.0000 0.35458  0.84085  0.36123  Biso   1.000  O
  C78      1.0000 0.64212  0.81572  0.35221  Biso   1.000  C
  N52      1.0000 0.59205  0.86834  0.47873  Biso   1.000  N
  H74      1.0000 0.66130  0.87881  0.45183  Biso   1.000  H
  O26      1.0000 0.54502  0.88322  0.56981  Biso   1.000  O
  N53      1.0000 0.52979  0.79464  0.26941  Biso   1.000  N
  H75      1.0000 0.50100  0.78701  0.17998  Biso   1.000  H
  H76      1.0000 0.52230  0.73819  0.20903  Biso   1.000  H
  C79      1.0000 0.43612  0.86587  0.28379  Biso   1.000  C
  N54      1.0000 0.59438  0.81705  0.32550  Biso   1.000  N
  H77      1.0000 0.65912  0.84529  0.33900  Biso   1.000  H
  H78      1.0000 0.65940  0.78819  0.33272  Biso   1.000  H
  C80      1.0000 0.56689  0.89953  0.43409  Biso   1.000  C
  C81      1.0000 0.57216  0.77995  0.29431  Biso   1.000  C
  C82      1.0000 0.52452  0.84640  0.27682  Biso   1.000  C
  N55      1.0000 0.48276  0.86157  0.31171  Biso   1.000  N
  H79      1.0000 0.43949  0.87859  0.23900  Biso   1.000  H
  H80      1.0000 0.41770  0.88971  0.30932  Biso   1.000  H
  C83      1.0000 0.56649  0.86114  0.32170  Biso   1.000  C
  N56      1.0000 0.54283  0.87469  0.38170  Biso   1.000  N
  H81      1.0000 0.59011  0.92250  0.41522  Biso   1.000  H
  H82      1.0000 0.54291  0.91820  0.45889  Biso   1.000  H
  O27      1.0000 0.58861  0.73880  0.29071  Biso   1.000  O
  H83      1.0000 0.52681  0.86289  0.23369  Biso   1.000  H
  C84      1.0000 0.49376  0.87709  0.37239  Biso   1.000  C
  H84      1.0000 0.58560  0.88820  0.30289  Biso   1.000  H
  O28      1.0000 0.46466  0.89214  0.41323  Biso   1.000  O
  O29      1.0000 0.31511  0.46014  0.47249  Biso   1.000  O
  C85      1.0000 0.28758  0.42756  0.46191  Biso   1.000  C
  N57      1.0000 0.29565  0.38831  0.42390  Biso   1.000  N
  N58      1.0000 0.24113  0.42412  0.48521  Biso   1.000  N
  C86      1.0000 0.25658  0.35379  0.42629  Biso   1.000  C
  C87      1.0000 0.34243  0.37820  0.39549  Biso   1.000  C
  C88      1.0000 0.21862  0.37895  0.46820  Biso   1.000  C
  C89      1.0000 0.22066  0.45885  0.52863  Biso   1.000  C
  N59      1.0000 0.23227  0.34744  0.36430  Biso   1.000  N
  H85      1.0000 0.26690  0.32250  0.44559  Biso   1.000  H
  N60      1.0000 0.34286  0.38261  0.32619  Biso   1.000  N
  H86      1.0000 0.36630  0.40060  0.41420  Biso   1.000  H
  H87      1.0000 0.35221  0.34529  0.40762  Biso   1.000  H
  N61      1.0000 0.17758  0.38379  0.42512  Biso   1.000  N
  H88      1.0000 0.21052  0.35970  0.50782  Biso   1.000  H
  N62      1.0000 0.18525  0.49000  0.49851  Biso   1.000  N
  H89      1.0000 0.24679  0.47889  0.54662  Biso   1.000  H
  H90      1.0000 0.20550  0.44179  0.56552  Biso   1.000  H
  C90      1.0000 0.24901  0.31486  0.31429  Biso   1.000  C
  C91      1.0000 0.18664  0.36436  0.36478  Biso   1.000  C
  C92      1.0000 0.33217  0.34307  0.28242  Biso   1.000  C
  C93      1.0000 0.36669  0.41777  0.29222  Biso   1.000  C
  C94      1.0000 0.12947  0.39494  0.44802  Biso   1.000  C
  C95      1.0000 0.13374  0.47824  0.49939  Biso   1.000  C
  C96      1.0000 0.19310  0.53678  0.48389  Biso   1.000  C
  N63      1.0000 0.28142  0.33762  0.26839  Biso   1.000  N
  H91      1.0000 0.22109  0.30189  0.29041  Biso   1.000  H
  H92      1.0000 0.26572  0.28762  0.33530  Biso   1.000  H
  O30      1.0000 0.15775  0.36207  0.31927  Biso   1.000  O
  C97      1.0000 0.35178  0.35967  0.21629  Biso   1.000  C
  H93      1.0000 0.34719  0.31239  0.29719  Biso   1.000  H
  N64      1.0000 0.36834  0.40795  0.22871  Biso   1.000  N
  O31      1.0000 0.38322  0.45498  0.31980  Biso   1.000  O
  N65      1.0000 0.11908  0.44587  0.44822  Biso   1.000  N
  H94      1.0000 0.10589  0.37841  0.41981  Biso   1.000  H
  H95      1.0000 0.12560  0.38229  0.49281  Biso   1.000  H
  H96      1.0000 0.12309  0.46681  0.54330  Biso   1.000  H
  C98      1.0000 0.11004  0.52595  0.48082  Biso   1.000  C
  N66      1.0000 0.15058  0.55760  0.46781  Biso   1.000  N
  O32      1.0000 0.23238  0.55653  0.48467  Biso   1.000  O
  C99      1.0000 0.27109  0.34142  0.20298  Biso   1.000  C
  N67      1.0000 0.31156  0.35565  0.17252  Biso   1.000  N
  H97      1.0000 0.37881  0.33870  0.20181  Biso   1.000  H
  C100     1.0000 0.39953  0.43311  0.18412  Biso   1.000  C
  C101     1.0000 0.08771  0.46695  0.40509  Biso   1.000  C
  N68      1.0000 0.08309  0.51287  0.42210  Biso   1.000  N
  H98      1.0000 0.08879  0.53850  0.51620  Biso   1.000  H
  C102     1.0000 0.14474  0.60961  0.46801  Biso   1.000  C
  O33      1.0000 0.23270  0.33314  0.17701  Biso   1.000  O
  C103     1.0000 0.31569  0.35788  0.10220  Biso   1.000  C
  N69      1.0000 0.37469  0.45717  0.13168  Biso   1.000  N
  H99      1.0000 0.42250  0.40989  0.16521  Biso   1.000  H
  H100     1.0000 0.41820  0.45709  0.20893  Biso   1.000  H
  O34      1.0000 0.06760  0.44627  0.36050  Biso   1.000  O
  C104     1.0000 0.04853  0.54456  0.39052  Biso   1.000  C
  N70      1.0000 0.13281  0.62847  0.40421  Biso   1.000  N
  H101     1.0000 0.11911  0.61840  0.49910  Biso   1.000  H
  H102     1.0000 0.17489  0.62460  0.48321  Biso   1.000  H
  N71      1.0000 0.31705  0.40562  0.07549  Biso   1.000  N
  H103     1.0000 0.34529  0.34088  0.08899  Biso   1.000  H
  H104     1.0000 0.28819  0.34060  0.08270  Biso   1.000  H
  C105     1.0000 0.36114  0.43351  0.07169  Biso   1.000  C
  C106     1.0000 0.37709  0.50624  0.12242  Biso   1.000  C
  N72      1.0000 0.07058  0.58115  0.35163  Biso   1.000  N
  H105     1.0000 0.02721  0.52509  0.36249  Biso   1.000  H
  H106     1.0000 0.02850  0.56000  0.42439  Biso   1.000  H
  C107     1.0000 0.08467  0.62754  0.37789  Biso   1.000  C
  C108     1.0000 0.16313  0.65718  0.36912  Biso   1.000  C
  C109     1.0000 0.27995  0.42788  0.04430  Biso   1.000  C
  C110     1.0000 0.34640  0.47552  0.02680  Biso   1.000  C
  H107     1.0000 0.38820  0.41440  0.05288  Biso   1.000  H
  N73      1.0000 0.36157  0.51724  0.06170  Biso   1.000  N
  O35      1.0000 0.39214  0.53534  0.16321  Biso   1.000  O
  C111     1.0000 0.06169  0.58363  0.28578  Biso   1.000  C
  H108     1.0000 0.06061  0.64012  0.40972  Biso   1.000  H
  C112     1.0000 0.08886  0.65983  0.31683  Biso   1.000  C
  N74      1.0000 0.13865  0.67381  0.31590  Biso   1.000  N
  O36      1.0000 0.20435  0.66732  0.38467  Biso   1.000  O
  O37      1.0000 0.23880  0.41139  0.04069  Biso   1.000  O
  N75      1.0000 0.29464  0.47025  0.01940  Biso   1.000  N
  H109     1.0000 0.36289  0.47319  0.98372  Biso   1.000  H
  C113     1.0000 0.36587  0.56391  0.03382  Biso   1.000  C
  O38      1.0000 0.04585  0.55101  0.25191  Biso   1.000  O
  N76      1.0000 0.07488  0.62800  0.26361  Biso   1.000  N
  H110     1.0000 0.06721  0.68829  0.31970  Biso   1.000  H
  C114     1.0000 0.15797  0.71181  0.27560  Biso   1.000  C
  C115     1.0000 0.26740  0.49620  0.97003  Biso   1.000  C
  N77      1.0000 0.32199  0.59119  0.03100  Biso   1.000  N
  H111     1.0000 0.38971  0.58230  0.05931  Biso   1.000  H
  H112     1.0000 0.37859  0.56051  0.98903  Biso   1.000  H
  C116     1.0000 0.06441  0.64499  0.19908  Biso   1.000  C
  N78      1.0000 0.16836  0.69733  0.21010  Biso   1.000  N
  H113     1.0000 0.13470  0.73862  0.27443  Biso   1.000  H
  H114     1.0000 0.18779  0.72399  0.29592  Biso   1.000  H
  N79      1.0000 0.25349  0.54366  0.99133  Biso   1.000  N
  H115     1.0000 0.28701  0.49900  0.93002  Biso   1.000  H
  H116     1.0000 0.23819  0.47770  0.95901  Biso   1.000  H
  C117     1.0000 0.28457  0.58527  0.98280  Biso   1.000  C
  C118     1.0000 0.31379  0.62901  0.06940  Biso   1.000  C
  N80      1.0000 0.10563  0.65098  0.15839  Biso   1.000  N
  H117     1.0000 0.04230  0.62209  0.17779  Biso   1.000  H
  H118     1.0000 0.04760  0.67611  0.20250  Biso   1.000  H
  C119     1.0000 0.13306  0.69553  0.15878  Biso   1.000  C
  C120     1.0000 0.21410  0.69435  0.18539  Biso   1.000  C
  C121     1.0000 0.20639  0.55775  0.99391  Biso   1.000  C
  C122     1.0000 0.25142  0.62800  0.99401  Biso   1.000  C
  H119     1.0000 0.29819  0.58599  0.93772  Biso   1.000  H
  N81      1.0000 0.26955  0.64847  0.05380  Biso   1.000  N
  O39      1.0000 0.34085  0.64546  0.11121  Biso   1.000  O
  C123     1.0000 0.11262  0.62503  0.10381  Biso   1.000  C
  C124     1.0000 0.16284  0.69191  0.09601  Biso   1.000  C
  H120     1.0000 0.11180  0.72439  0.15893  Biso   1.000  H
  N82      1.0000 0.21188  0.68930  0.11979  Biso   1.000  N
  O40      1.0000 0.25127  0.69600  0.21824  Biso   1.000  O
  O41      1.0000 0.17180  0.53072  0.99118  Biso   1.000  O
  N83      1.0000 0.20399  0.60585  0.99922  Biso   1.000  N
  H121     1.0000 0.25289  0.65141  0.95711  Biso   1.000  H
  C125     1.0000 0.25346  0.69385  0.07919  Biso   1.000  C
  N84      1.0000 0.14589  0.64797  0.06579  Biso   1.000  N
  O42      1.0000 0.09226  0.58707  0.09040  Biso   1.000  O
  H122     1.0000 0.15779  0.72030  0.06711  Biso   1.000  H
  C126     1.0000 0.15987  0.63223  0.00200  Biso   1.000  C
  H123     1.0000 0.27970  0.70862  0.10468  Biso   1.000  H
  H124     1.0000 0.24590  0.71550  0.04240  Biso   1.000  H
  H125     1.0000 0.16281  0.66069  0.97354  Biso   1.000  H
  H126     1.0000 0.13399  0.61180  0.98411  Biso   1.000  H
  O43      1.0000 0.68489  0.53986  0.47249  Biso   1.000  O
  C127     1.0000 0.71245  0.57244  0.46191  Biso   1.000  C
  N85      1.0000 0.70435  0.61169  0.42390  Biso   1.000  N
  N86      1.0000 0.75887  0.57588  0.48521  Biso   1.000  N
  C128     1.0000 0.65757  0.62180  0.39549  Biso   1.000  C
  C129     1.0000 0.74342  0.64621  0.42629  Biso   1.000  C
  C130     1.0000 0.78142  0.62105  0.46820  Biso   1.000  C
  C131     1.0000 0.77934  0.54115  0.52863  Biso   1.000  C
  N87      1.0000 0.65718  0.61739  0.32619  Biso   1.000  N
  H127     1.0000 0.63370  0.59940  0.41420  Biso   1.000  H
  H128     1.0000 0.64779  0.65471  0.40762  Biso   1.000  H
  N88      1.0000 0.76776  0.65259  0.36430  Biso   1.000  N
  H129     1.0000 0.73310  0.67750  0.44559  Biso   1.000  H
  N89      1.0000 0.82246  0.61621  0.42512  Biso   1.000  N
  H130     1.0000 0.78952  0.64030  0.50782  Biso   1.000  H
  N90      1.0000 0.81475  0.51000  0.49851  Biso   1.000  N
  H131     1.0000 0.75321  0.52111  0.54662  Biso   1.000  H
  H132     1.0000 0.79450  0.55821  0.56552  Biso   1.000  H
  C132     1.0000 0.63331  0.58223  0.29222  Biso   1.000  C
  C133     1.0000 0.66783  0.65693  0.28242  Biso   1.000  C
  C134     1.0000 0.75099  0.68514  0.31429  Biso   1.000  C
  C135     1.0000 0.81336  0.63564  0.36478  Biso   1.000  C
  C136     1.0000 0.87053  0.60506  0.44802  Biso   1.000  C
  C137     1.0000 0.80690  0.46326  0.48389  Biso   1.000  C
  C138     1.0000 0.86626  0.52176  0.49939  Biso   1.000  C
  N91      1.0000 0.63166  0.59205  0.22871  Biso   1.000  N
  O44      1.0000 0.61678  0.54502  0.31980  Biso   1.000  O
  C139     1.0000 0.64822  0.64033  0.21629  Biso   1.000  C
  N92      1.0000 0.71858  0.66238  0.26839  Biso   1.000  N
  H133     1.0000 0.65281  0.68761  0.29719  Biso   1.000  H
  H134     1.0000 0.77891  0.69811  0.29041  Biso   1.000  H
  H135     1.0000 0.73432  0.71242  0.33530  Biso   1.000  H
  O45      1.0000 0.84225  0.63793  0.31927  Biso   1.000  O
  N93      1.0000 0.88092  0.55416  0.44822  Biso   1.000  N
  H136     1.0000 0.89411  0.62162  0.41981  Biso   1.000  H
  H137     1.0000 0.87440  0.61771  0.49281  Biso   1.000  H
  O46      1.0000 0.76762  0.44347  0.48467  Biso   1.000  O
  N94      1.0000 0.84942  0.44240  0.46781  Biso   1.000  N
  H138     1.0000 0.87691  0.53319  0.54330  Biso   1.000  H
  C140     1.0000 0.88996  0.47408  0.48082  Biso   1.000  C
  C141     1.0000 0.60051  0.56689  0.18412  Biso   1.000  C
  N95      1.0000 0.68844  0.64435  0.17252  Biso   1.000  N
  H139     1.0000 0.62119  0.66130  0.20181  Biso   1.000  H
  C142     1.0000 0.72891  0.65858  0.20298  Biso   1.000  C
  C143     1.0000 0.91229  0.53305  0.40509  Biso   1.000  C
  C144     1.0000 0.85526  0.39039  0.46801  Biso   1.000  C
  N96      1.0000 0.91691  0.48713  0.42210  Biso   1.000  N
  H140     1.0000 0.91121  0.46150  0.51620  Biso   1.000  H
  N97      1.0000 0.62531  0.54283  0.13168  Biso   1.000  N
  H141     1.0000 0.57750  0.59011  0.16521  Biso   1.000  H
  H142     1.0000 0.58180  0.54291  0.20893  Biso   1.000  H
  C145     1.0000 0.68431  0.64212  0.10220  Biso   1.000  C
  O47      1.0000 0.76730  0.66686  0.17701  Biso   1.000  O
  O48      1.0000 0.93240  0.55373  0.36050  Biso   1.000  O
  N98      1.0000 0.86719  0.37153  0.40421  Biso   1.000  N
  H143     1.0000 0.88092  0.38160  0.49910  Biso   1.000  H
  H144     1.0000 0.82511  0.37540  0.48321  Biso   1.000  H
  C146     1.0000 0.95147  0.45544  0.39052  Biso   1.000  C
  C147     1.0000 0.62291  0.49376  0.12242  Biso   1.000  C
  C148     1.0000 0.63886  0.56649  0.07169  Biso   1.000  C
  N99      1.0000 0.68299  0.59438  0.07549  Biso   1.000  N
  H145     1.0000 0.65471  0.65912  0.08899  Biso   1.000  H
  H146     1.0000 0.71181  0.65940  0.08270  Biso   1.000  H
  C149     1.0000 0.83687  0.34286  0.36912  Biso   1.000  C
  C150     1.0000 0.91533  0.37250  0.37789  Biso   1.000  C
  N100     1.0000 0.92942  0.41885  0.35163  Biso   1.000  N
  H147     1.0000 0.97279  0.47491  0.36249  Biso   1.000  H
  H148     1.0000 0.97150  0.44000  0.42439  Biso   1.000  H
  O49      1.0000 0.60786  0.46466  0.16321  Biso   1.000  O
  N101     1.0000 0.63847  0.48276  0.06170  Biso   1.000  N
  C151     1.0000 0.65360  0.52452  0.02680  Biso   1.000  C
  H149     1.0000 0.61180  0.58560  0.05288  Biso   1.000  H
  C152     1.0000 0.72005  0.57216  0.04430  Biso   1.000  C
  N102     1.0000 0.86135  0.32619  0.31590  Biso   1.000  N
  O50      1.0000 0.79565  0.33268  0.38467  Biso   1.000  O
  C153     1.0000 0.91114  0.34020  0.31683  Biso   1.000  C
  H150     1.0000 0.93942  0.35992  0.40972  Biso   1.000  H
  C154     1.0000 0.93831  0.41641  0.28578  Biso   1.000  C
  C155     1.0000 0.63413  0.43612  0.03382  Biso   1.000  C
  N103     1.0000 0.70539  0.52979  0.01940  Biso   1.000  N
  H151     1.0000 0.63711  0.52681  0.98372  Biso   1.000  H
  O51      1.0000 0.76120  0.58861  0.04069  Biso   1.000  O
  C156     1.0000 0.84203  0.28819  0.27560  Biso   1.000  C
  N104     1.0000 0.92512  0.37200  0.26361  Biso   1.000  N
  H152     1.0000 0.93279  0.31171  0.31970  Biso   1.000  H
  O52      1.0000 0.95415  0.44899  0.25191  Biso   1.000  O
  N105     1.0000 0.67801  0.40885  0.03100  Biso   1.000  N
  H153     1.0000 0.61029  0.41770  0.05931  Biso   1.000  H
  H154     1.0000 0.62141  0.43949  0.98903  Biso   1.000  H
  C157     1.0000 0.73260  0.50380  0.97003  Biso   1.000  C
  N106     1.0000 0.83164  0.30271  0.21010  Biso   1.000  N
  H155     1.0000 0.86530  0.26142  0.27443  Biso   1.000  H
  H156     1.0000 0.81221  0.27601  0.29592  Biso   1.000  H
  C158     1.0000 0.93559  0.35501  0.19908  Biso   1.000  C
  C159     1.0000 0.68621  0.37103  0.06940  Biso   1.000  C
  C160     1.0000 0.71543  0.41473  0.98280  Biso   1.000  C
  N107     1.0000 0.74651  0.45634  0.99133  Biso   1.000  N
  H157     1.0000 0.71299  0.50100  0.93002  Biso   1.000  H
  H158     1.0000 0.76181  0.52230  0.95901  Biso   1.000  H
  C161     1.0000 0.78590  0.30565  0.18539  Biso   1.000  C
  C162     1.0000 0.86694  0.30447  0.15878  Biso   1.000  C
  N108     1.0000 0.89437  0.34902  0.15839  Biso   1.000  N
  H159     1.0000 0.95770  0.37791  0.17779  Biso   1.000  H
  H160     1.0000 0.95240  0.32389  0.20250  Biso   1.000  H
  O53      1.0000 0.65915  0.35458  0.11121  Biso   1.000  O
  N109     1.0000 0.73045  0.35153  0.05380  Biso   1.000  N
  C163     1.0000 0.74862  0.37200  0.99401  Biso   1.000  C
  H161     1.0000 0.70181  0.41401  0.93772  Biso   1.000  H
  C164     1.0000 0.79361  0.44229  0.99391  Biso   1.000  C
  N110     1.0000 0.78812  0.31070  0.11979  Biso   1.000  N
  O54      1.0000 0.74873  0.30400  0.21824  Biso   1.000  O
  C165     1.0000 0.83719  0.30809  0.09601  Biso   1.000  C
  H162     1.0000 0.88820  0.27561  0.15893  Biso   1.000  H
  C166     1.0000 0.88738  0.37497  0.10381  Biso   1.000  C
  C167     1.0000 0.74658  0.30615  0.07919  Biso   1.000  C
  N111     1.0000 0.79601  0.39419  0.99922  Biso   1.000  N
  H163     1.0000 0.74711  0.34859  0.95711  Biso   1.000  H
  O55      1.0000 0.82823  0.46928  0.99118  Biso   1.000  O
  N112     1.0000 0.85411  0.35203  0.06579  Biso   1.000  N
  H164     1.0000 0.84221  0.27970  0.06711  Biso   1.000  H
  O56      1.0000 0.90774  0.41293  0.09040  Biso   1.000  O
  H165     1.0000 0.72030  0.29142  0.10468  Biso   1.000  H
  H166     1.0000 0.75410  0.28450  0.04240  Biso   1.000  H
  C168     1.0000 0.84013  0.36780  0.00200  Biso   1.000  C
  H167     1.0000 0.83719  0.33931  0.97354  Biso   1.000  H
  H168     1.0000 0.86601  0.38820  0.98411  Biso   1.000  H
  C169     1.0000 0.63306  0.19553  0.65880  Biso   1.000  C
  N113     1.0000 0.60567  0.15098  0.65841  Biso   1.000  N
  C170     1.0000 0.66284  0.19191  0.59603  Biso   1.000  C
  N114     1.0000 0.66840  0.19733  0.71012  Biso   1.000  N
  H169     1.0000 0.61180  0.22439  0.65890  Biso   1.000  H
  C171     1.0000 0.61262  0.12503  0.60383  Biso   1.000  C
  C172     1.0000 0.56441  0.14499  0.69911  Biso   1.000  C
  N115     1.0000 0.64589  0.14797  0.56582  Biso   1.000  N
  N116     1.0000 0.71188  0.18930  0.61982  Biso   1.000  N
  H170     1.0000 0.65779  0.22030  0.56713  Biso   1.000  H
  C173     1.0000 0.65797  0.21181  0.77562  Biso   1.000  C
  C174     1.0000 0.71410  0.19435  0.68541  Biso   1.000  C
  O57      1.0000 0.59226  0.08707  0.59038  Biso   1.000  O
  N117     1.0000 0.57488  0.12800  0.76363  Biso   1.000  N
  H171     1.0000 0.54230  0.12209  0.67781  Biso   1.000  H
  H172     1.0000 0.54760  0.17611  0.70252  Biso   1.000  H
  C175     1.0000 0.65987  0.13220  0.50202  Biso   1.000  C
  C176     1.0000 0.75346  0.19385  0.57922  Biso   1.000  C
  N118     1.0000 0.63865  0.17381  0.81593  Biso   1.000  N
  H173     1.0000 0.63470  0.23862  0.77440  Biso   1.000  H
  H174     1.0000 0.68779  0.22399  0.79590  Biso   1.000  H
  O58      1.0000 0.75127  0.19600  0.71821  Biso   1.000  O
  C177     1.0000 0.56169  0.08363  0.78581  Biso   1.000  C
  C178     1.0000 0.58886  0.15980  0.81680  Biso   1.000  C
  N119     1.0000 0.70399  0.10581  0.49920  Biso   1.000  N
  H175     1.0000 0.66281  0.16069  0.47351  Biso   1.000  H
  H176     1.0000 0.63399  0.11180  0.48409  Biso   1.000  H
  N120     1.0000 0.76955  0.14847  0.55378  Biso   1.000  N
  H177     1.0000 0.77970  0.20862  0.60471  Biso   1.000  H
  H178     1.0000 0.74590  0.21550  0.54242  Biso   1.000  H
  C179     1.0000 0.66313  0.15714  0.86910  Biso   1.000  C
  O59      1.0000 0.54585  0.05101  0.75194  Biso   1.000  O
  N121     1.0000 0.57058  0.08115  0.85160  Biso   1.000  N
  C180     1.0000 0.58467  0.12754  0.87792  Biso   1.000  C
  H179     1.0000 0.56721  0.18829  0.81973  Biso   1.000  H
  C181     1.0000 0.70639  0.05775  0.49393  Biso   1.000  C
  C182     1.0000 0.75142  0.12800  0.49403  Biso   1.000  C
  C183     1.0000 0.81382  0.12901  0.56942  Biso   1.000  C
  N122     1.0000 0.63284  0.12847  0.90424  Biso   1.000  N
  O60      1.0000 0.70435  0.16732  0.88469  Biso   1.000  O
  C184     1.0000 0.54853  0.04456  0.89054  Biso   1.000  C
  H180     1.0000 0.56061  0.14012  0.90969  Biso   1.000  H
  O61      1.0000 0.67180  0.03072  0.49120  Biso   1.000  O
  N123     1.0000 0.75349  0.04366  0.49130  Biso   1.000  N
  H181     1.0000 0.75292  0.15141  0.45709  Biso   1.000  H
  C185     1.0000 0.78457  0.08527  0.48282  Biso   1.000  C
  N124     1.0000 0.82203  0.09115  0.53102  Biso   1.000  N
  O62      1.0000 0.84085  0.14546  0.61119  Biso   1.000  O
  C186     1.0000 0.64474  0.10961  0.96803  Biso   1.000  C
  N125     1.0000 0.58309  0.01287  0.92212  Biso   1.000  N
  H182     1.0000 0.52721  0.02509  0.86252  Biso   1.000  H
  H183     1.0000 0.52850  0.06000  0.92441  Biso   1.000  H
  C187     1.0000 0.76740  0.99620  0.47000  Biso   1.000  C
  H184     1.0000 0.79819  0.08599  0.43769  Biso   1.000  H
  C188     1.0000 0.86587  0.06388  0.53380  Biso   1.000  C
  N126     1.0000 0.65058  0.05760  0.96783  Biso   1.000  N
  H185     1.0000 0.61911  0.11840  0.99912  Biso   1.000  H
  H186     1.0000 0.67489  0.12460  0.98324  Biso   1.000  H
  C189     1.0000 0.61004  0.02592  0.98080  Biso   1.000  C
  C190     1.0000 0.58771  0.96695  0.90511  Biso   1.000  C
  N127     1.0000 0.79464  0.97025  0.51942  Biso   1.000  N
  H187     1.0000 0.78701  0.99900  0.42999  Biso   1.000  H
  H188     1.0000 0.73819  0.97770  0.45899  Biso   1.000  H
  N128     1.0000 0.86157  0.01724  0.56172  Biso   1.000  N
  H189     1.0000 0.87859  0.06051  0.48901  Biso   1.000  H
  H190     1.0000 0.88971  0.08230  0.55934  Biso   1.000  H
  C191     1.0000 0.69310  0.03678  0.98392  Biso   1.000  C
  C192     1.0000 0.63374  0.97824  0.99942  Biso   1.000  C
  H191     1.0000 0.58879  0.03850  0.01618  Biso   1.000  H
  O63      1.0000 0.56760  0.94627  0.86052  Biso   1.000  O
  N129     1.0000 0.61908  0.94587  0.94819  Biso   1.000  N
  C193     1.0000 0.77995  0.92788  0.54432  Biso   1.000  C
  C194     1.0000 0.84640  0.97552  0.52683  Biso   1.000  C
  C195     1.0000 0.87709  0.00624  0.62240  Biso   1.000  C
  N130     1.0000 0.68525  0.99000  0.99854  Biso   1.000  N
  O64      1.0000 0.73238  0.05653  0.98465  Biso   1.000  O
  H192     1.0000 0.62309  0.96681  0.04328  Biso   1.000  H
  C196     1.0000 0.62947  0.89494  0.94800  Biso   1.000  C
  O65      1.0000 0.73880  0.91139  0.54072  Biso   1.000  O
  N131     1.0000 0.81705  0.90562  0.57552  Biso   1.000  N
  H193     1.0000 0.86289  0.97322  0.48370  Biso   1.000  H
  C197     1.0000 0.86114  0.93351  0.57171  Biso   1.000  C
  N132     1.0000 0.87469  0.95717  0.63171  Biso   1.000  N
  O66      1.0000 0.89214  0.03534  0.66319  Biso   1.000  O
  C198     1.0000 0.72066  0.95885  0.02861  Biso   1.000  C
  N133     1.0000 0.67758  0.88379  0.92509  Biso   1.000  N
  H194     1.0000 0.60592  0.87841  0.91983  Biso   1.000  H
  H195     1.0000 0.62560  0.88232  0.99284  Biso   1.000  H
  C199     1.0000 0.81572  0.85788  0.60222  Biso   1.000  C
  H196     1.0000 0.88820  0.91440  0.55290  Biso   1.000  H
  C200     1.0000 0.89953  0.93311  0.68410  Biso   1.000  C
  N134     1.0000 0.74113  0.92412  0.98523  Biso   1.000  N
  H197     1.0000 0.74679  0.97892  0.04659  Biso   1.000  H
  H198     1.0000 0.70550  0.94182  0.06550  Biso   1.000  H
  C201     1.0000 0.68664  0.86436  0.86481  Biso   1.000  C
  C202     1.0000 0.71862  0.87895  0.96822  Biso   1.000  C
  N135     1.0000 0.81156  0.85565  0.67250  Biso   1.000  N
  H199     1.0000 0.84529  0.84092  0.58902  Biso   1.000  H
  H200     1.0000 0.78819  0.84060  0.58273  Biso   1.000  H
  N136     1.0000 0.86834  0.90795  0.72869  Biso   1.000  N
  H201     1.0000 0.92250  0.90992  0.66524  Biso   1.000  H
  H202     1.0000 0.91820  0.95709  0.70890  Biso   1.000  H
  C203     1.0000 0.78758  0.92756  0.96194  Biso   1.000  C
  O67      1.0000 0.65779  0.86207  0.81929  Biso   1.000  O
  N137     1.0000 0.73227  0.84744  0.86432  Biso   1.000  N
  C204     1.0000 0.75658  0.85379  0.92631  Biso   1.000  C
  H203     1.0000 0.71052  0.85970  0.00780  Biso   1.000  H
  C205     1.0000 0.77109  0.84142  0.70301  Biso   1.000  C
  C206     1.0000 0.85178  0.85967  0.71631  Biso   1.000  C
  C207     1.0000 0.86669  0.91777  0.79219  Biso   1.000  C
  O68      1.0000 0.81511  0.96014  0.97251  Biso   1.000  O
  N138     1.0000 0.79565  0.88831  0.92392  Biso   1.000  N
  C208     1.0000 0.74901  0.81486  0.81432  Biso   1.000  C
  H204     1.0000 0.76690  0.82250  0.94561  Biso   1.000  H
  O69      1.0000 0.73270  0.83314  0.67703  Biso   1.000  O
  N139     1.0000 0.78142  0.83762  0.76841  Biso   1.000  N
  H205     1.0000 0.87881  0.83870  0.70184  Biso   1.000  H
  C209     1.0000 0.83217  0.84307  0.78240  Biso   1.000  C
  N140     1.0000 0.84286  0.88261  0.82621  Biso   1.000  N
  O70      1.0000 0.88322  0.95501  0.81983  Biso   1.000  O
  C210     1.0000 0.84243  0.87820  0.89551  Biso   1.000  C
  H206     1.0000 0.72109  0.80192  0.79044  Biso   1.000  H
  H207     1.0000 0.76572  0.78762  0.83532  Biso   1.000  H
  H208     1.0000 0.84719  0.81239  0.79721  Biso   1.000  H
  H209     1.0000 0.86630  0.90060  0.91423  Biso   1.000  H
  H210     1.0000 0.85221  0.84529  0.90760  Biso   1.000  H
  C211     1.0000 0.36694  0.80450  0.65880  Biso   1.000  C
  C212     1.0000 0.33716  0.80809  0.59603  Biso   1.000  C
  N141     1.0000 0.33164  0.80271  0.71012  Biso   1.000  N
  N142     1.0000 0.39437  0.84902  0.65841  Biso   1.000  N
  H211     1.0000 0.38820  0.77561  0.65890  Biso   1.000  H
  N143     1.0000 0.28812  0.81070  0.61982  Biso   1.000  N
  N144     1.0000 0.35411  0.85203  0.56582  Biso   1.000  N
  H212     1.0000 0.34221  0.77970  0.56713  Biso   1.000  H
  C213     1.0000 0.28590  0.80565  0.68541  Biso   1.000  C
  C214     1.0000 0.34203  0.78819  0.77562  Biso   1.000  C
  C215     1.0000 0.38738  0.87497  0.60383  Biso   1.000  C
  C216     1.0000 0.43559  0.85504  0.69911  Biso   1.000  C
  C217     1.0000 0.24658  0.80615  0.57922  Biso   1.000  C
  C218     1.0000 0.34013  0.86780  0.50202  Biso   1.000  C
  O71      1.0000 0.24873  0.80400  0.71821  Biso   1.000  O
  N145     1.0000 0.36135  0.82619  0.81593  Biso   1.000  N
  H213     1.0000 0.36530  0.76142  0.77440  Biso   1.000  H
  H214     1.0000 0.31221  0.77601  0.79590  Biso   1.000  H
  O72      1.0000 0.40774  0.91293  0.59038  Biso   1.000  O
  N146     1.0000 0.42512  0.87200  0.76363  Biso   1.000  N
  H215     1.0000 0.45770  0.87791  0.67781  Biso   1.000  H
  H216     1.0000 0.45240  0.82389  0.70252  Biso   1.000  H
  N147     1.0000 0.23045  0.85153  0.55378  Biso   1.000  N
  H217     1.0000 0.22030  0.79142  0.60471  Biso   1.000  H
  H218     1.0000 0.25410  0.78450  0.54242  Biso   1.000  H
  N148     1.0000 0.29601  0.89419  0.49920  Biso   1.000  N
  H219     1.0000 0.33719  0.83931  0.47351  Biso   1.000  H
  H220     1.0000 0.36601  0.88820  0.48409  Biso   1.000  H
  C219     1.0000 0.33687  0.84286  0.86910  Biso   1.000  C
  C220     1.0000 0.41114  0.84020  0.81680  Biso   1.000  C
  C221     1.0000 0.43831  0.91641  0.78581  Biso   1.000  C
  C222     1.0000 0.18621  0.87103  0.56942  Biso   1.000  C
  C223     1.0000 0.24858  0.87200  0.49403  Biso   1.000  C
  C224     1.0000 0.29361  0.94229  0.49393  Biso   1.000  C
  O73      1.0000 0.29565  0.83268  0.88469  Biso   1.000  O
  N149     1.0000 0.36719  0.87153  0.90424  Biso   1.000  N
  C225     1.0000 0.41533  0.87250  0.87792  Biso   1.000  C
  H221     1.0000 0.43279  0.81171  0.81973  Biso   1.000  H
  N150     1.0000 0.42942  0.91888  0.85160  Biso   1.000  N
  O74      1.0000 0.45415  0.94899  0.75194  Biso   1.000  O
  O75      1.0000 0.15915  0.85458  0.61119  Biso   1.000  O
  N151     1.0000 0.17801  0.90885  0.53102  Biso   1.000  N
  H222     1.0000 0.24711  0.84859  0.45709  Biso   1.000  H
  C226     1.0000 0.21543  0.91473  0.48282  Biso   1.000  C
  N152     1.0000 0.24651  0.95634  0.49130  Biso   1.000  N
  O76      1.0000 0.32820  0.96928  0.49120  Biso   1.000  O
  C227     1.0000 0.35526  0.89039  0.96803  Biso   1.000  C
  H223     1.0000 0.43939  0.85992  0.90969  Biso   1.000  H
  C228     1.0000 0.45147  0.95544  0.89054  Biso   1.000  C
  C229     1.0000 0.13413  0.93612  0.53380  Biso   1.000  C
  H224     1.0000 0.20181  0.91401  0.43769  Biso   1.000  H
  C230     1.0000 0.23260  0.00380  0.47000  Biso   1.000  C
  N153     1.0000 0.34942  0.94243  0.96783  Biso   1.000  N
  H225     1.0000 0.38089  0.88160  0.99912  Biso   1.000  H
  H226     1.0000 0.32511  0.87540  0.98324  Biso   1.000  H
  N154     1.0000 0.41691  0.98713  0.92212  Biso   1.000  N
  H227     1.0000 0.47279  0.97491  0.86252  Biso   1.000  H
  H228     1.0000 0.47150  0.94000  0.92441  Biso   1.000  H
  N155     1.0000 0.13847  0.98276  0.56172  Biso   1.000  N
  H229     1.0000 0.12141  0.93949  0.48901  Biso   1.000  H
  H230     1.0000 0.11029  0.91770  0.55934  Biso   1.000  H
  N156     1.0000 0.20536  0.02979  0.51942  Biso   1.000  N
  H231     1.0000 0.21299  0.00100  0.42999  Biso   1.000  H
  H232     1.0000 0.26181  0.02230  0.45899  Biso   1.000  H
  C231     1.0000 0.30690  0.96326  0.98392  Biso   1.000  C
  C232     1.0000 0.38996  0.97408  0.98080  Biso   1.000  C
  C233     1.0000 0.41229  0.03305  0.90511  Biso   1.000  C
  C234     1.0000 0.12291  0.99376  0.62240  Biso   1.000  C
  C235     1.0000 0.15360  0.02452  0.52683  Biso   1.000  C
  C236     1.0000 0.22005  0.07216  0.54432  Biso   1.000  C
  O77      1.0000 0.26762  0.94347  0.98465  Biso   1.000  O
  N157     1.0000 0.31475  0.01000  0.99854  Biso   1.000  N
  H233     1.0000 0.41121  0.96150  0.01618  Biso   1.000  H
  C237     1.0000 0.36626  0.02176  0.99942  Biso   1.000  C
  N158     1.0000 0.38092  0.05413  0.94819  Biso   1.000  N
  O78      1.0000 0.43240  0.05373  0.86052  Biso   1.000  O
  O79      1.0000 0.10786  0.96466  0.66319  Biso   1.000  O
  N159     1.0000 0.12531  0.04283  0.63171  Biso   1.000  N
  H234     1.0000 0.13711  0.02681  0.48370  Biso   1.000  H
  C238     1.0000 0.13886  0.06649  0.57171  Biso   1.000  C
  N160     1.0000 0.18299  0.09438  0.57552  Biso   1.000  N
  O80      1.0000 0.26120  0.08861  0.54072  Biso   1.000  O
  C239     1.0000 0.27934  0.04115  0.02861  Biso   1.000  C
  H235     1.0000 0.37691  0.03319  0.04328  Biso   1.000  H
  C240     1.0000 0.37053  0.10506  0.94800  Biso   1.000  C
  C241     1.0000 0.10047  0.06689  0.68410  Biso   1.000  C
  H236     1.0000 0.11180  0.08560  0.55290  Biso   1.000  H
  C242     1.0000 0.18431  0.14212  0.60222  Biso   1.000  C
  N161     1.0000 0.25887  0.07588  0.98523  Biso   1.000  N
  H237     1.0000 0.25321  0.02111  0.04659  Biso   1.000  H
  H238     1.0000 0.29450  0.05821  0.06550  Biso   1.000  H
  N162     1.0000 0.32242  0.11621  0.92509  Biso   1.000  N
  H239     1.0000 0.39411  0.12159  0.91983  Biso   1.000  H
  H240     1.0000 0.37440  0.11771  0.99284  Biso   1.000  H
  N163     1.0000 0.13166  0.09205  0.72869  Biso   1.000  N
  H241     1.0000 0.07750  0.09011  0.66524  Biso   1.000  H
  H242     1.0000 0.08180  0.04291  0.70890  Biso   1.000  H
  N164     1.0000 0.18844  0.14435  0.67250  Biso   1.000  N
  H243     1.0000 0.15471  0.15912  0.58902  Biso   1.000  H
  H244     1.0000 0.21181  0.15940  0.58273  Biso   1.000  H
  C243     1.0000 0.21242  0.07244  0.96194  Biso   1.000  C
  C244     1.0000 0.28142  0.12105  0.96822  Biso   1.000  C
  C245     1.0000 0.31336  0.13564  0.86481  Biso   1.000  C
  C246     1.0000 0.13331  0.08223  0.79219  Biso   1.000  C
  C247     1.0000 0.14822  0.14033  0.71631  Biso   1.000  C
  C248     1.0000 0.22891  0.15858  0.70301  Biso   1.000  C
  N165     1.0000 0.20435  0.11169  0.92392  Biso   1.000  N
  O81      1.0000 0.18489  0.03986  0.97251  Biso   1.000  O
  C249     1.0000 0.24342  0.14621  0.92631  Biso   1.000  C
  H245     1.0000 0.28952  0.14030  0.00780  Biso   1.000  H
  N166     1.0000 0.26773  0.15256  0.86432  Biso   1.000  N
  O82      1.0000 0.34225  0.13793  0.81929  Biso   1.000  O
  O83      1.0000 0.11678  0.04502  0.81983  Biso   1.000  O
  N167     1.0000 0.15714  0.11739  0.82621  Biso   1.000  N
  H246     1.0000 0.12119  0.16130  0.70184  Biso   1.000  H
  C250     1.0000 0.16783  0.15693  0.78240  Biso   1.000  C
  N168     1.0000 0.21858  0.16238  0.76841  Biso   1.000  N
  O84      1.0000 0.26730  0.16686  0.67703  Biso   1.000  O
  C251     1.0000 0.15757  0.12180  0.89551  Biso   1.000  C
  H247     1.0000 0.23310  0.17750  0.94561  Biso   1.000  H
  C252     1.0000 0.25099  0.18514  0.81432  Biso   1.000  C
  H248     1.0000 0.15281  0.18761  0.79721  Biso   1.000  H
  H249     1.0000 0.13370  0.09940  0.91423  Biso   1.000  H
  H250     1.0000 0.14779  0.15471  0.90760  Biso   1.000  H
  H251     1.0000 0.27891  0.19811  0.79044  Biso   1.000  H
  H252     1.0000 0.23432  0.21242  0.83532  Biso   1.000  H
  C253     1.0000 0.19385  0.74658  0.82923  Biso   1.000  C
  N169     1.0000 0.14847  0.73045  0.80379  Biso   1.000  N
  N170     1.0000 0.18930  0.78812  0.86983  Biso   1.000  N
  H253     1.0000 0.20862  0.72030  0.85472  Biso   1.000  H
  H254     1.0000 0.21550  0.75410  0.79244  Biso   1.000  H
  C254     1.0000 0.12901  0.68621  0.81944  Biso   1.000  C
  C255     1.0000 0.12800  0.74862  0.74399  Biso   1.000  C
  C256     1.0000 0.19435  0.78590  0.93543  Biso   1.000  C
  C257     1.0000 0.19191  0.83719  0.84600  Biso   1.000  C
  N171     1.0000 0.09115  0.67801  0.78103  Biso   1.000  N
  O85      1.0000 0.14546  0.65915  0.86120  Biso   1.000  O
  C258     1.0000 0.08527  0.71543  0.73283  Biso   1.000  C
  N172     1.0000 0.10581  0.79601  0.74921  Biso   1.000  N
  H255     1.0000 0.15141  0.74711  0.70710  Biso   1.000  H
  O86      1.0000 0.19600  0.74873  0.96822  Biso   1.000  O
  N173     1.0000 0.19733  0.83164  0.96013  Biso   1.000  N
  N174     1.0000 0.14797  0.85411  0.81583  Biso   1.000  N
  C259     1.0000 0.19553  0.86694  0.90882  Biso   1.000  C
  H256     1.0000 0.22030  0.84221  0.81710  Biso   1.000  H
  C260     1.0000 0.06388  0.63413  0.78381  Biso   1.000  C
  N175     1.0000 0.04366  0.74651  0.74131  Biso   1.000  N
  H257     1.0000 0.08599  0.70181  0.68770  Biso   1.000  H
  C261     1.0000 0.05775  0.79361  0.74390  Biso   1.000  C
  C262     1.0000 0.13220  0.84013  0.75203  Biso   1.000  C
  C263     1.0000 0.21181  0.84203  0.02559  Biso   1.000  C
  C264     1.0000 0.12503  0.88738  0.85379  Biso   1.000  C
  N176     1.0000 0.15098  0.89437  0.90843  Biso   1.000  N
  H258     1.0000 0.22439  0.88820  0.90891  Biso   1.000  H
  N177     1.0000 0.01724  0.63847  0.81174  Biso   1.000  N
  H259     1.0000 0.06051  0.62141  0.73902  Biso   1.000  H
  H260     1.0000 0.08230  0.61029  0.80930  Biso   1.000  H
  C265     1.0000 0.99620  0.73260  0.72002  Biso   1.000  C
  O87      1.0000 0.03072  0.82823  0.74122  Biso   1.000  O
  H261     1.0000 0.16069  0.83719  0.72352  Biso   1.000  H
  H262     1.0000 0.11180  0.86601  0.73410  Biso   1.000  H
  N178     1.0000 0.17381  0.86135  0.06589  Biso   1.000  N
  H263     1.0000 0.23862  0.86530  0.02442  Biso   1.000  H
  H264     1.0000 0.22399  0.81221  0.04591  Biso   1.000  H
  O88      1.0000 0.08707  0.90774  0.84039  Biso   1.000  O
  C266     1.0000 0.14499  0.93559  0.94912  Biso   1.000  C
  C267     1.0000 0.00624  0.62291  0.87241  Biso   1.000  C
  C268     1.0000 0.97552  0.65360  0.77679  Biso   1.000  C
  N179     1.0000 0.97025  0.70539  0.76943  Biso   1.000  N
  H265     1.0000 0.99900  0.71299  0.68000  Biso   1.000  H
  H266     1.0000 0.97770  0.76181  0.70900  Biso   1.000  H
  C269     1.0000 0.15714  0.83687  0.11911  Biso   1.000  C
  C270     1.0000 0.15980  0.91114  0.06682  Biso   1.000  C
  H267     1.0000 0.12209  0.95770  0.92782  Biso   1.000  H
  H268     1.0000 0.17611  0.95240  0.95253  Biso   1.000  H
  N180     1.0000 0.12800  0.92512  0.01360  Biso   1.000  N
  O89      1.0000 0.03534  0.60786  0.91320  Biso   1.000  O
  N181     1.0000 0.95717  0.62531  0.88172  Biso   1.000  N
  H269     1.0000 0.97322  0.63711  0.73371  Biso   1.000  H
  C271     1.0000 0.93351  0.63886  0.82173  Biso   1.000  C
  C272     1.0000 0.92788  0.72005  0.79434  Biso   1.000  C
  O90      1.0000 0.16732  0.79565  0.13470  Biso   1.000  O
  N182     1.0000 0.12847  0.86719  0.15420  Biso   1.000  N
  C273     1.0000 0.12754  0.91533  0.12788  Biso   1.000  C
  H270     1.0000 0.18829  0.93279  0.06969  Biso   1.000  H
  C274     1.0000 0.08363  0.93831  0.03582  Biso   1.000  C
  C275     1.0000 0.93311  0.60051  0.93411  Biso   1.000  C
  N183     1.0000 0.90562  0.68299  0.82553  Biso   1.000  N
  H271     1.0000 0.91440  0.61180  0.80291  Biso   1.000  H
  O91      1.0000 0.91139  0.76120  0.79073  Biso   1.000  O
  C276     1.0000 0.10961  0.85526  0.21799  Biso   1.000  C
  N184     1.0000 0.08115  0.92942  0.10161  Biso   1.000  N
  H272     1.0000 0.14012  0.93942  0.15971  Biso   1.000  H
  O92      1.0000 0.05101  0.95415  0.00190  Biso   1.000  O
  N185     1.0000 0.90795  0.63166  0.97870  Biso   1.000  N
  H273     1.0000 0.90992  0.57750  0.91520  Biso   1.000  H
  H274     1.0000 0.95709  0.58180  0.95892  Biso   1.000  H
  C277     1.0000 0.85788  0.68431  0.85223  Biso   1.000  C
  N186     1.0000 0.05760  0.84942  0.21780  Biso   1.000  N
  H275     1.0000 0.11840  0.88092  0.24909  Biso   1.000  H
  H276     1.0000 0.12460  0.82511  0.23320  Biso   1.000  H
  C278     1.0000 0.04456  0.95147  0.14050  Biso   1.000  C
  C279     1.0000 0.85967  0.64822  0.96632  Biso   1.000  C
  C280     1.0000 0.91777  0.63331  0.04220  Biso   1.000  C
  N187     1.0000 0.85565  0.68844  0.92251  Biso   1.000  N
  H277     1.0000 0.84092  0.65471  0.83903  Biso   1.000  H
  H278     1.0000 0.84060  0.71181  0.83274  Biso   1.000  H
  C281     1.0000 0.03678  0.80690  0.23388  Biso   1.000  C
  C282     1.0000 0.02592  0.88996  0.23081  Biso   1.000  C
  N188     1.0000 0.01287  0.91691  0.17208  Biso   1.000  N
  H279     1.0000 0.02509  0.97279  0.11248  Biso   1.000  H
  H280     1.0000 0.06000  0.97150  0.17442  Biso   1.000  H
  H281     1.0000 0.83870  0.62119  0.95180  Biso   1.000  H
  C283     1.0000 0.84307  0.66783  0.03241  Biso   1.000  C
  O93      1.0000 0.95501  0.61678  0.06979  Biso   1.000  O
  N189     1.0000 0.88261  0.65718  0.07622  Biso   1.000  N
  C284     1.0000 0.84142  0.72891  0.95302  Biso   1.000  C
  N190     1.0000 0.99000  0.81475  0.24850  Biso   1.000  N
  O94      1.0000 0.05653  0.76762  0.23466  Biso   1.000  O
  C285     1.0000 0.97824  0.86626  0.24943  Biso   1.000  C
  H282     1.0000 0.03850  0.91121  0.26619  Biso   1.000  H
  C286     1.0000 0.96695  0.91229  0.15512  Biso   1.000  C
  N191     1.0000 0.83762  0.71858  0.01842  Biso   1.000  N
  H283     1.0000 0.81239  0.65281  0.04722  Biso   1.000  H
  C287     1.0000 0.87820  0.65757  0.14552  Biso   1.000  C
  O95      1.0000 0.83314  0.76730  0.92699  Biso   1.000  O
  C288     1.0000 0.95885  0.77934  0.27862  Biso   1.000  C
  N192     1.0000 0.94587  0.88092  0.19821  Biso   1.000  N
  H284     1.0000 0.96681  0.87691  0.29329  Biso   1.000  H
  O96      1.0000 0.94627  0.93240  0.11048  Biso   1.000  O
  C289     1.0000 0.81486  0.75099  0.06428  Biso   1.000  C
  N193     1.0000 0.88831  0.70435  0.17389  Biso   1.000  N
  H285     1.0000 0.90060  0.63370  0.16419  Biso   1.000  H
  H286     1.0000 0.84529  0.64779  0.15761  Biso   1.000  H
  N194     1.0000 0.92412  0.75887  0.23520  Biso   1.000  N
  H287     1.0000 0.97892  0.75321  0.29660  Biso   1.000  H
  H288     1.0000 0.94182  0.79450  0.31551  Biso   1.000  H
  C290     1.0000 0.89494  0.87053  0.19801  Biso   1.000  C
  N195     1.0000 0.84744  0.76776  0.11428  Biso   1.000  N
  H289     1.0000 0.80192  0.77891  0.04040  Biso   1.000  H
  H290     1.0000 0.78762  0.73432  0.08529  Biso   1.000  H
  C291     1.0000 0.92756  0.71245  0.21190  Biso   1.000  C
  C292     1.0000 0.85379  0.74342  0.17632  Biso   1.000  C
  C293     1.0000 0.87895  0.78142  0.21819  Biso   1.000  C
  N196     1.0000 0.88379  0.82246  0.17511  Biso   1.000  N
  H291     1.0000 0.87841  0.89411  0.16979  Biso   1.000  H
  H292     1.0000 0.88232  0.87440  0.24280  Biso   1.000  H
  C294     1.0000 0.86436  0.81336  0.11482  Biso   1.000  C
  O97      1.0000 0.96014  0.68489  0.22248  Biso   1.000  O
  H293     1.0000 0.82250  0.73310  0.19562  Biso   1.000  H
  H294     1.0000 0.85970  0.78952  0.25781  Biso   1.000  H
  O98      1.0000 0.86207  0.84225  0.06930  Biso   1.000  O
  C295     1.0000 0.80615  0.25346  0.82923  Biso   1.000  C
  N197     1.0000 0.81070  0.21188  0.86983  Biso   1.000  N
  N198     1.0000 0.85153  0.26955  0.80379  Biso   1.000  N
  H295     1.0000 0.79142  0.27970  0.85472  Biso   1.000  H
  H296     1.0000 0.78450  0.24590  0.79244  Biso   1.000  H
  C296     1.0000 0.80565  0.21410  0.93543  Biso   1.000  C
  C297     1.0000 0.80809  0.16284  0.84600  Biso   1.000  C
  C298     1.0000 0.87103  0.31379  0.81944  Biso   1.000  C
  C299     1.0000 0.87200  0.25142  0.74399  Biso   1.000  C
  O99      1.0000 0.80400  0.25127  0.96822  Biso   1.000  O
  N199     1.0000 0.80271  0.16836  0.96013  Biso   1.000  N
  N200     1.0000 0.85203  0.14589  0.81583  Biso   1.000  N
  C300     1.0000 0.80450  0.13306  0.90882  Biso   1.000  C
  H297     1.0000 0.77970  0.15779  0.81710  Biso   1.000  H
  O100     1.0000 0.85458  0.34085  0.86120  Biso   1.000  O
  N201     1.0000 0.90885  0.32199  0.78103  Biso   1.000  N
  N202     1.0000 0.89419  0.20399  0.74921  Biso   1.000  N
  H298     1.0000 0.84859  0.25289  0.70710  Biso   1.000  H
  C301     1.0000 0.91473  0.28457  0.73283  Biso   1.000  C
  C302     1.0000 0.78819  0.15797  0.02559  Biso   1.000  C
  C303     1.0000 0.87497  0.11262  0.85379  Biso   1.000  C
  C304     1.0000 0.86780  0.15987  0.75203  Biso   1.000  C
  N203     1.0000 0.84902  0.10563  0.90843  Biso   1.000  N
  H299     1.0000 0.77561  0.11180  0.90891  Biso   1.000  H
  C305     1.0000 0.93612  0.36587  0.78381  Biso   1.000  C
  C306     1.0000 0.94229  0.20639  0.74390  Biso   1.000  C
  N204     1.0000 0.95634  0.25349  0.74131  Biso   1.000  N
  H300     1.0000 0.91401  0.29819  0.68770  Biso   1.000  H
  N205     1.0000 0.82619  0.13865  0.06589  Biso   1.000  N
  H301     1.0000 0.76142  0.13470  0.02442  Biso   1.000  H
  H302     1.0000 0.77601  0.18779  0.04591  Biso   1.000  H
  O101     1.0000 0.91293  0.09226  0.84039  Biso   1.000  O
  H303     1.0000 0.83931  0.16281  0.72352  Biso   1.000  H
  H304     1.0000 0.88820  0.13399  0.73410  Biso   1.000  H
  C307     1.0000 0.85504  0.06441  0.94912  Biso   1.000  C
  N206     1.0000 0.98276  0.36157  0.81174  Biso   1.000  N
  H305     1.0000 0.93949  0.37859  0.73902  Biso   1.000  H
  H306     1.0000 0.91770  0.38971  0.80930  Biso   1.000  H
  O102     1.0000 0.96928  0.17180  0.74122  Biso   1.000  O
  C308     1.0000 0.00380  0.26740  0.72002  Biso   1.000  C
  C309     1.0000 0.84286  0.16313  0.11911  Biso   1.000  C
  C310     1.0000 0.84020  0.08886  0.06682  Biso   1.000  C
  H307     1.0000 0.87791  0.04230  0.92782  Biso   1.000  H
  H308     1.0000 0.82389  0.04760  0.95253  Biso   1.000  H
  N207     1.0000 0.87200  0.07488  0.01360  Biso   1.000  N
  C311     1.0000 0.99376  0.37709  0.87241  Biso   1.000  C
  C312     1.0000 0.02452  0.34640  0.77679  Biso   1.000  C
  N208     1.0000 0.02979  0.29464  0.76943  Biso   1.000  N
  H309     1.0000 0.00100  0.28701  0.68000  Biso   1.000  H
  H310     1.0000 0.02230  0.23819  0.70900  Biso   1.000  H
  O103     1.0000 0.83268  0.20435  0.13470  Biso   1.000  O
  N209     1.0000 0.87153  0.13281  0.15420  Biso   1.000  N
  C313     1.0000 0.87250  0.08467  0.12788  Biso   1.000  C
  H311     1.0000 0.81171  0.06721  0.06969  Biso   1.000  H
  C314     1.0000 0.91641  0.06169  0.03582  Biso   1.000  C
  O104     1.0000 0.96466  0.39214  0.91320  Biso   1.000  O
  N210     1.0000 0.04283  0.37469  0.88172  Biso   1.000  N
  H312     1.0000 0.02681  0.36289  0.73371  Biso   1.000  H
  C315     1.0000 0.06649  0.36114  0.82173  Biso   1.000  C
  C316     1.0000 0.07216  0.27995  0.79434  Biso   1.000  C
  C317     1.0000 0.89039  0.14474  0.21799  Biso   1.000  C
  N211     1.0000 0.91888  0.07058  0.10161  Biso   1.000  N
  H313     1.0000 0.85992  0.06061  0.15971  Biso   1.000  H
  O105     1.0000 0.94899  0.04585  0.00190  Biso   1.000  O
  C318     1.0000 0.06689  0.39953  0.93411  Biso   1.000  C
  N212     1.0000 0.09438  0.31705  0.82553  Biso   1.000  N
  H314     1.0000 0.08560  0.38820  0.80291  Biso   1.000  H
  O106     1.0000 0.08861  0.23880  0.79073  Biso   1.000  O
  N213     1.0000 0.94243  0.15058  0.21780  Biso   1.000  N
  H315     1.0000 0.88160  0.11911  0.24909  Biso   1.000  H
  H316     1.0000 0.87540  0.17489  0.23320  Biso   1.000  H
  C319     1.0000 0.95544  0.04853  0.14050  Biso   1.000  C
  N214     1.0000 0.09205  0.36834  0.97870  Biso   1.000  N
  H317     1.0000 0.09011  0.42250  0.91520  Biso   1.000  H
  H318     1.0000 0.04291  0.41820  0.95892  Biso   1.000  H
  C320     1.0000 0.14212  0.31569  0.85223  Biso   1.000  C
  C321     1.0000 0.96326  0.19310  0.23388  Biso   1.000  C
  C322     1.0000 0.97408  0.11004  0.23081  Biso   1.000  C
  N215     1.0000 0.98713  0.08309  0.17208  Biso   1.000  N
  H319     1.0000 0.97491  0.02721  0.11248  Biso   1.000  H
  H320     1.0000 0.94000  0.02850  0.17442  Biso   1.000  H
  C323     1.0000 0.14033  0.35178  0.96632  Biso   1.000  C
  C324     1.0000 0.08223  0.36669  0.04220  Biso   1.000  C
  N216     1.0000 0.14435  0.31156  0.92251  Biso   1.000  N
  H321     1.0000 0.15912  0.34529  0.83903  Biso   1.000  H
  H322     1.0000 0.15940  0.28819  0.83274  Biso   1.000  H
  O107     1.0000 0.94347  0.23238  0.23466  Biso   1.000  O
  N217     1.0000 0.01000  0.18525  0.24850  Biso   1.000  N
  H323     1.0000 0.96150  0.08879  0.26619  Biso   1.000  H
  C325     1.0000 0.02176  0.13374  0.24943  Biso   1.000  C
  C326     1.0000 0.03305  0.08771  0.15512  Biso   1.000  C
  H324     1.0000 0.16130  0.37881  0.95180  Biso   1.000  H
  C327     1.0000 0.15693  0.33217  0.03241  Biso   1.000  C
  O108     1.0000 0.04502  0.38322  0.06979  Biso   1.000  O
  N218     1.0000 0.11739  0.34286  0.07622  Biso   1.000  N
  C328     1.0000 0.15858  0.27109  0.95302  Biso   1.000  C
  C329     1.0000 0.04115  0.22066  0.27862  Biso   1.000  C
  N219     1.0000 0.05413  0.11908  0.19821  Biso   1.000  N
  H325     1.0000 0.03319  0.12309  0.29329  Biso   1.000  H
  O109     1.0000 0.05373  0.06760  0.11048  Biso   1.000  O
  N220     1.0000 0.16238  0.28142  0.01842  Biso   1.000  N
  H326     1.0000 0.18761  0.34719  0.04722  Biso   1.000  H
  C330     1.0000 0.12180  0.34243  0.14552  Biso   1.000  C
  O110     1.0000 0.16686  0.23270  0.92699  Biso   1.000  O
  N221     1.0000 0.07588  0.24113  0.23520  Biso   1.000  N
  H327     1.0000 0.02111  0.24679  0.29660  Biso   1.000  H
  H328     1.0000 0.05821  0.20550  0.31551  Biso   1.000  H
  C331     1.0000 0.10506  0.12947  0.19801  Biso   1.000  C
  C332     1.0000 0.18514  0.24901  0.06428  Biso   1.000  C
  N222     1.0000 0.11169  0.29565  0.17389  Biso   1.000  N
  H329     1.0000 0.09940  0.36630  0.16419  Biso   1.000  H
  H330     1.0000 0.15471  0.35221  0.15761  Biso   1.000  H
  C333     1.0000 0.07244  0.28758  0.21190  Biso   1.000  C
  C334     1.0000 0.12105  0.21862  0.21819  Biso   1.000  C
  N223     1.0000 0.11621  0.17758  0.17511  Biso   1.000  N
  H331     1.0000 0.12159  0.10589  0.16979  Biso   1.000  H
  H332     1.0000 0.11771  0.12560  0.24280  Biso   1.000  H
  N224     1.0000 0.15256  0.23227  0.11428  Biso   1.000  N
  H333     1.0000 0.19811  0.22109  0.04040  Biso   1.000  H
  H334     1.0000 0.21242  0.26572  0.08529  Biso   1.000  H
  C335     1.0000 0.14621  0.25658  0.17632  Biso   1.000  C
  O111     1.0000 0.03986  0.31511  0.22248  Biso   1.000  O
  H335     1.0000 0.14030  0.21052  0.25781  Biso   1.000  H
  C336     1.0000 0.13564  0.18664  0.11482  Biso   1.000  C
  H336     1.0000 0.17750  0.26690  0.19562  Biso   1.000  H
  O112     1.0000 0.13793  0.15775  0.06930  Biso   1.000  O
  Ne1      1.0000 0.22284  0.51685  0.24218  Biso   1.000  Ne
  He1      1.0000 0.30575  0.57797  0.31144  Biso   1.000  He
  He2      1.0000 0.14006  0.45725  0.17174  Biso   1.000  He
  Ar1      1.0000 0.22318  0.51625  0.24275  Biso   1.000  Ar
  Ne2      1.0000 0.51685  0.27717  0.49218  Biso   1.000  Ne
  He3      1.0000 0.57989  0.19156  0.56355  Biso   1.000  He
  He4      1.0000 0.45741  0.35971  0.42194  Biso   1.000  He
  Ar2      1.0000 0.51626  0.27682  0.49274  Biso   1.000  Ar
  Ne3      1.0000 0.48316  0.72284  0.49218  Biso   1.000  Ne
  He5      1.0000 0.42148  0.80652  0.56206  Biso   1.000  He
  He6      1.0000 0.54397  0.63843  0.42049  Biso   1.000  He
  Ar3      1.0000 0.48375  0.72318  0.49275  Biso   1.000  Ar
  Ne4      1.0000 0.77717  0.48316  0.24218  Biso   1.000  Ne
  He7      1.0000 0.69607  0.42333  0.31002  Biso   1.000  He
  He8      1.0000 0.85892  0.54199  0.17254  Biso   1.000  He
  Ar4      1.0000 0.77682  0.48375  0.24274  Biso   1.000  Ar
  Ne5      1.0000 0.72284  0.01685  0.74219  Biso   1.000  Ne
  He9      1.0000 0.80575  0.07800  0.81140  Biso   1.000  He
  He10     1.0000 0.64006  0.95724  0.67178  Biso   1.000  He
  Ar5      1.0000 0.72318  0.01626  0.74275  Biso   1.000  Ar
  Ne6      1.0000 0.01685  0.77717  0.99218  Biso   1.000  Ne
  He11     1.0000 0.07993  0.69156  0.06352  Biso   1.000  He
  He12     1.0000 0.95741  0.85971  0.92196  Biso   1.000  He
  Ar6      1.0000 0.01626  0.77682  0.99273  Biso   1.000  Ar
  Ne7      1.0000 0.27717  0.98316  0.74219  Biso   1.000  Ne
  He13     1.0000 0.19608  0.92332  0.81000  Biso   1.000  He
  He14     1.0000 0.35892  0.04199  0.67257  Biso   1.000  He
  Ar7      1.0000 0.27681  0.98374  0.74273  Biso   1.000  Ar
  Ne8      1.0000 0.98316  0.22284  0.99218  Biso   1.000  Ne
  He15     1.0000 0.92147  0.30652  0.06204  Biso   1.000  He
  He16     1.0000 0.04397  0.13843  0.92051  Biso   1.000  He
  Ar8      1.0000 0.98374  0.22318  0.99273  Biso   1.000  Ar
