data_image0
_cell_length_a       24.992
_cell_length_b       24.992
_cell_length_c       24.992
_cell_angle_alpha    90
_cell_angle_beta     90
_cell_angle_gamma    90

_symmetry_space_group_name_H-M    "P 1"
_symmetry_int_tables_number       1

loop_
  _symmetry_equiv_pos_as_xyz
  'x, y, z'

loop_
  _atom_site_label
  _atom_site_occupancy
  _atom_site_fract_x
  _atom_site_fract_y
  _atom_site_fract_z
  _atom_site_thermal_displace_type
  _atom_site_B_iso_or_equiv
  _atom_site_type_symbol
  C1       1.0000 0.50808  0.36980  0.47179  Biso   1.000  C
  C2       1.0000 0.54189  0.31970  0.46019  Biso   1.000  C
  C3       1.0000 0.49192  0.36980  0.52821  Biso   1.000  C
  H1       1.0000 0.52881  0.40169  0.46399  Biso   1.000  H
  H2       1.0000 0.47659  0.37000  0.44910  Biso   1.000  H
  C4       1.0000 0.51020  0.26901  0.47159  Biso   1.000  C
  H3       1.0000 0.55302  0.31990  0.42302  Biso   1.000  H
  H4       1.0000 0.57378  0.32018  0.48219  Biso   1.000  H
  C5       1.0000 0.45811  0.31970  0.53981  Biso   1.000  C
  H5       1.0000 0.47119  0.40169  0.53601  Biso   1.000  H
  H6       1.0000 0.52341  0.37000  0.55090  Biso   1.000  H
  N1       1.0000 0.54541  0.22291  0.46311  Biso   1.000  N
  C6       1.0000 0.48980  0.26901  0.52841  Biso   1.000  C
  H7       1.0000 0.47979  0.26681  0.44698  Biso   1.000  H
  H8       1.0000 0.44698  0.31990  0.57698  Biso   1.000  H
  H9       1.0000 0.42622  0.32018  0.51781  Biso   1.000  H
  C7       1.0000 0.53441  0.18998  0.42770  Biso   1.000  C
  N2       1.0000 0.45459  0.22291  0.53689  Biso   1.000  N
  H10      1.0000 0.52021  0.26681  0.55302  Biso   1.000  H
  C8       1.0000 0.56778  0.14361  0.41381  Biso   1.000  C
  H11      1.0000 0.50280  0.19490  0.40861  Biso   1.000  H
  C9       1.0000 0.46559  0.18998  0.57230  Biso   1.000  C
  C10      1.0000 0.61212  0.13028  0.44478  Biso   1.000  C
  C11      1.0000 0.55522  0.11212  0.36972  Biso   1.000  C
  C12      1.0000 0.43222  0.14361  0.58619  Biso   1.000  C
  H12      1.0000 0.49720  0.19490  0.59139  Biso   1.000  H
  H13      1.0000 0.62072  0.15109  0.47439  Biso   1.000  H
  C13      1.0000 0.64361  0.08619  0.43222  Biso   1.000  C
  H14      1.0000 0.52561  0.12072  0.34891  Biso   1.000  H
  C14      1.0000 0.58619  0.06778  0.35639  Biso   1.000  C
  C15      1.0000 0.44478  0.11212  0.63028  Biso   1.000  C
  C16      1.0000 0.38788  0.13028  0.55522  Biso   1.000  C
  C17      1.0000 0.63028  0.05522  0.38788  Biso   1.000  C
  C18      1.0000 0.68998  0.07230  0.46559  Biso   1.000  C
  C19      1.0000 0.57230  0.03441  0.31002  Biso   1.000  C
  H15      1.0000 0.47439  0.12072  0.65109  Biso   1.000  H
  C20      1.0000 0.41381  0.06778  0.64361  Biso   1.000  C
  H16      1.0000 0.37928  0.15109  0.52561  Biso   1.000  H
  C21      1.0000 0.35639  0.08619  0.56778  Biso   1.000  C
  H17      1.0000 0.65109  0.02561  0.37928  Biso   1.000  H
  N3       1.0000 0.72291  0.03689  0.45459  Biso   1.000  N
  H18      1.0000 0.69490  0.09139  0.49720  Biso   1.000  H
  N4       1.0000 0.53689  0.04541  0.27709  Biso   1.000  N
  H19      1.0000 0.59139  0.00280  0.30510  Biso   1.000  H
  C22      1.0000 0.36972  0.05522  0.61212  Biso   1.000  C
  C23      1.0000 0.42770  0.03441  0.68998  Biso   1.000  C
  C24      1.0000 0.31002  0.07230  0.53441  Biso   1.000  C
  C25      1.0000 0.76901  0.02841  0.48980  Biso   1.000  C
  C26      1.0000 0.52841  0.01020  0.23099  Biso   1.000  C
  H20      1.0000 0.34891  0.02561  0.62072  Biso   1.000  H
  N5       1.0000 0.46311  0.04541  0.72291  Biso   1.000  N
  H21      1.0000 0.40861  0.00280  0.69490  Biso   1.000  H
  N6       1.0000 0.27709  0.03689  0.54541  Biso   1.000  N
  H22      1.0000 0.30510  0.09139  0.50280  Biso   1.000  H
  H23      1.0000 0.76681  0.05302  0.52021  Biso   1.000  H
  C27      1.0000 0.81970  0.03981  0.45811  Biso   1.000  C
  C28      1.0000 0.76901  0.97159  0.51020  Biso   1.000  C
  C29      1.0000 0.53981  0.04189  0.18030  Biso   1.000  C
  C30      1.0000 0.47159  0.98980  0.23099  Biso   1.000  C
  H24      1.0000 0.55302  0.97979  0.23319  Biso   1.000  H
  C31      1.0000 0.47159  0.01020  0.76901  Biso   1.000  C
  C32      1.0000 0.23099  0.02841  0.51020  Biso   1.000  C
  H25      1.0000 0.81990  0.07698  0.44698  Biso   1.000  H
  H26      1.0000 0.82018  0.01781  0.42622  Biso   1.000  H
  C33      1.0000 0.86980  0.02821  0.49192  Biso   1.000  C
  N7       1.0000 0.72291  0.96311  0.54541  Biso   1.000  N
  H27      1.0000 0.76681  0.94698  0.47979  Biso   1.000  H
  C34      1.0000 0.81970  0.96019  0.54189  Biso   1.000  C
  H28      1.0000 0.57698  0.05302  0.18010  Biso   1.000  H
  H29      1.0000 0.51781  0.07378  0.17982  Biso   1.000  H
  C35      1.0000 0.52821  0.00808  0.13020  Biso   1.000  C
  H30      1.0000 0.44698  0.02021  0.23319  Biso   1.000  H
  N8       1.0000 0.46311  0.95459  0.27709  Biso   1.000  N
  C36      1.0000 0.46019  0.95811  0.18030  Biso   1.000  C
  C37      1.0000 0.46019  0.04189  0.81970  Biso   1.000  C
  C38      1.0000 0.52841  0.98980  0.76901  Biso   1.000  C
  H31      1.0000 0.44698  0.97979  0.76681  Biso   1.000  H
  H32      1.0000 0.23319  0.05302  0.47979  Biso   1.000  H
  C39      1.0000 0.18030  0.03981  0.54189  Biso   1.000  C
  C40      1.0000 0.23099  0.97159  0.48980  Biso   1.000  C
  H33      1.0000 0.90169  0.03601  0.47119  Biso   1.000  H
  H34      1.0000 0.87000  0.05090  0.52341  Biso   1.000  H
  C41      1.0000 0.86980  0.97179  0.50808  Biso   1.000  C
  C42      1.0000 0.68998  0.92770  0.53441  Biso   1.000  C
  H35      1.0000 0.81990  0.92302  0.55302  Biso   1.000  H
  H36      1.0000 0.82018  0.98219  0.57378  Biso   1.000  H
  H37      1.0000 0.53601  0.02881  0.09831  Biso   1.000  H
  C43      1.0000 0.47179  0.99192  0.13020  Biso   1.000  C
  H38      1.0000 0.55090  0.97659  0.13000  Biso   1.000  H
  C44      1.0000 0.42770  0.96559  0.31002  Biso   1.000  C
  H39      1.0000 0.42302  0.94698  0.18010  Biso   1.000  H
  H40      1.0000 0.48219  0.92622  0.17982  Biso   1.000  H
  H41      1.0000 0.42302  0.05302  0.81990  Biso   1.000  H
  H42      1.0000 0.48219  0.07378  0.82018  Biso   1.000  H
  C45      1.0000 0.47179  0.00808  0.86980  Biso   1.000  C
  H43      1.0000 0.55302  0.02021  0.76681  Biso   1.000  H
  N9       1.0000 0.53689  0.95459  0.72291  Biso   1.000  N
  C46      1.0000 0.53981  0.95811  0.81970  Biso   1.000  C
  H44      1.0000 0.18010  0.07698  0.55302  Biso   1.000  H
  H45      1.0000 0.17982  0.01781  0.57378  Biso   1.000  H
  C47      1.0000 0.13020  0.02821  0.50808  Biso   1.000  C
  N10      1.0000 0.27709  0.96311  0.45459  Biso   1.000  N
  H46      1.0000 0.23319  0.94698  0.52021  Biso   1.000  H
  C48      1.0000 0.18030  0.96019  0.45811  Biso   1.000  C
  H47      1.0000 0.90169  0.96399  0.52881  Biso   1.000  H
  H48      1.0000 0.87000  0.94910  0.47659  Biso   1.000  H
  C49      1.0000 0.64361  0.91381  0.56778  Biso   1.000  C
  H49      1.0000 0.69490  0.90861  0.50280  Biso   1.000  H
  H50      1.0000 0.44910  0.02341  0.13000  Biso   1.000  H
  H51      1.0000 0.46399  0.97119  0.09831  Biso   1.000  H
  C50      1.0000 0.41381  0.93222  0.35639  Biso   1.000  C
  H52      1.0000 0.40861  0.99720  0.30510  Biso   1.000  H
  H53      1.0000 0.46399  0.02881  0.90169  Biso   1.000  H
  C51      1.0000 0.52821  0.99192  0.86980  Biso   1.000  C
  H54      1.0000 0.44910  0.97659  0.87000  Biso   1.000  H
  C52      1.0000 0.57230  0.96559  0.68998  Biso   1.000  C
  H55      1.0000 0.57698  0.94698  0.81990  Biso   1.000  H
  H56      1.0000 0.51781  0.92622  0.82018  Biso   1.000  H
  H57      1.0000 0.09831  0.03601  0.52881  Biso   1.000  H
  H58      1.0000 0.13000  0.05090  0.47659  Biso   1.000  H
  C53      1.0000 0.13020  0.97179  0.49192  Biso   1.000  C
  C54      1.0000 0.31002  0.92770  0.46559  Biso   1.000  C
  H59      1.0000 0.18010  0.92302  0.44698  Biso   1.000  H
  H60      1.0000 0.17982  0.98219  0.42622  Biso   1.000  H
  C55      1.0000 0.61212  0.86972  0.55522  Biso   1.000  C
  C56      1.0000 0.63028  0.94478  0.61212  Biso   1.000  C
  C57      1.0000 0.36972  0.94478  0.38788  Biso   1.000  C
  C58      1.0000 0.44478  0.88788  0.36972  Biso   1.000  C
  H61      1.0000 0.55090  0.02341  0.87000  Biso   1.000  H
  H62      1.0000 0.53601  0.97119  0.90169  Biso   1.000  H
  C59      1.0000 0.58619  0.93222  0.64361  Biso   1.000  C
  H63      1.0000 0.59139  0.99720  0.69490  Biso   1.000  H
  H64      1.0000 0.09831  0.96399  0.47119  Biso   1.000  H
  H65      1.0000 0.13000  0.94910  0.52341  Biso   1.000  H
  C60      1.0000 0.35639  0.91381  0.43222  Biso   1.000  C
  H66      1.0000 0.30510  0.90861  0.49720  Biso   1.000  H
  H67      1.0000 0.62072  0.84891  0.52561  Biso   1.000  H
  C61      1.0000 0.56778  0.85639  0.58619  Biso   1.000  C
  H68      1.0000 0.65109  0.97439  0.62072  Biso   1.000  H
  H69      1.0000 0.34891  0.97439  0.37928  Biso   1.000  H
  H70      1.0000 0.47439  0.87928  0.34891  Biso   1.000  H
  C62      1.0000 0.43222  0.85639  0.41381  Biso   1.000  C
  C63      1.0000 0.55522  0.88788  0.63028  Biso   1.000  C
  C64      1.0000 0.38788  0.86972  0.44478  Biso   1.000  C
  C65      1.0000 0.53441  0.81002  0.57230  Biso   1.000  C
  C66      1.0000 0.46559  0.81002  0.42770  Biso   1.000  C
  H71      1.0000 0.52561  0.87928  0.65109  Biso   1.000  H
  H72      1.0000 0.37928  0.84891  0.47439  Biso   1.000  H
  N11      1.0000 0.54541  0.77709  0.53689  Biso   1.000  N
  H73      1.0000 0.50280  0.80510  0.59139  Biso   1.000  H
  N12      1.0000 0.45459  0.77709  0.46311  Biso   1.000  N
  H74      1.0000 0.49720  0.80510  0.40861  Biso   1.000  H
  C67      1.0000 0.51020  0.73099  0.52841  Biso   1.000  C
  C68      1.0000 0.48980  0.73099  0.47159  Biso   1.000  C
  H75      1.0000 0.47979  0.73319  0.55302  Biso   1.000  H
  C69      1.0000 0.54189  0.68030  0.53981  Biso   1.000  C
  H76      1.0000 0.52021  0.73319  0.44698  Biso   1.000  H
  C70      1.0000 0.45811  0.68030  0.46019  Biso   1.000  C
  H77      1.0000 0.55302  0.68010  0.57698  Biso   1.000  H
  H78      1.0000 0.57378  0.67982  0.51781  Biso   1.000  H
  C71      1.0000 0.50808  0.63020  0.52821  Biso   1.000  C
  H79      1.0000 0.44698  0.68010  0.42302  Biso   1.000  H
  H80      1.0000 0.42622  0.67982  0.48219  Biso   1.000  H
  C72      1.0000 0.49192  0.63020  0.47179  Biso   1.000  C
  H81      1.0000 0.52881  0.59831  0.53601  Biso   1.000  H
  H82      1.0000 0.47659  0.63000  0.55090  Biso   1.000  H
  H83      1.0000 0.47119  0.59831  0.46399  Biso   1.000  H
  H84      1.0000 0.52341  0.63000  0.44910  Biso   1.000  H
  C73      1.0000 0.47179  0.50808  0.36980  Biso   1.000  C
  C74      1.0000 0.46019  0.54189  0.31970  Biso   1.000  C
  C75      1.0000 0.52821  0.49192  0.36980  Biso   1.000  C
  H85      1.0000 0.46399  0.52881  0.40169  Biso   1.000  H
  H86      1.0000 0.44910  0.47659  0.37000  Biso   1.000  H
  C76      1.0000 0.47159  0.51020  0.26901  Biso   1.000  C
  H87      1.0000 0.42302  0.55302  0.31990  Biso   1.000  H
  H88      1.0000 0.48219  0.57378  0.32018  Biso   1.000  H
  C77      1.0000 0.53981  0.45811  0.31970  Biso   1.000  C
  H89      1.0000 0.53601  0.47119  0.40169  Biso   1.000  H
  H90      1.0000 0.55090  0.52341  0.37000  Biso   1.000  H
  C78      1.0000 0.52841  0.48980  0.26901  Biso   1.000  C
  N13      1.0000 0.46311  0.54541  0.22291  Biso   1.000  N
  H91      1.0000 0.44698  0.47979  0.26681  Biso   1.000  H
  H92      1.0000 0.57698  0.44698  0.31990  Biso   1.000  H
  H93      1.0000 0.51781  0.42622  0.32018  Biso   1.000  H
  N14      1.0000 0.53689  0.45459  0.22291  Biso   1.000  N
  H94      1.0000 0.55302  0.52021  0.26681  Biso   1.000  H
  C79      1.0000 0.42770  0.53441  0.18998  Biso   1.000  C
  C80      1.0000 0.57230  0.46559  0.18998  Biso   1.000  C
  C81      1.0000 0.41381  0.56778  0.14361  Biso   1.000  C
  H95      1.0000 0.40861  0.50280  0.19490  Biso   1.000  H
  C82      1.0000 0.58619  0.43222  0.14361  Biso   1.000  C
  H96      1.0000 0.59139  0.49720  0.19490  Biso   1.000  H
  C83      1.0000 0.44478  0.61212  0.13028  Biso   1.000  C
  C84      1.0000 0.36972  0.55522  0.11212  Biso   1.000  C
  C85      1.0000 0.55522  0.38788  0.13028  Biso   1.000  C
  C86      1.0000 0.63028  0.44478  0.11212  Biso   1.000  C
  H97      1.0000 0.47439  0.62072  0.15109  Biso   1.000  H
  C87      1.0000 0.43222  0.64361  0.08619  Biso   1.000  C
  H98      1.0000 0.34891  0.52561  0.12072  Biso   1.000  H
  C88      1.0000 0.35639  0.58619  0.06778  Biso   1.000  C
  C89      1.0000 0.56778  0.35639  0.08619  Biso   1.000  C
  H99      1.0000 0.52561  0.37928  0.15109  Biso   1.000  H
  C90      1.0000 0.64361  0.41381  0.06778  Biso   1.000  C
  H100     1.0000 0.65109  0.47439  0.12072  Biso   1.000  H
  C91      1.0000 0.38788  0.63028  0.05522  Biso   1.000  C
  C92      1.0000 0.46559  0.68998  0.07230  Biso   1.000  C
  C93      1.0000 0.31002  0.57230  0.03441  Biso   1.000  C
  C94      1.0000 0.53441  0.31002  0.07230  Biso   1.000  C
  C95      1.0000 0.61212  0.36972  0.05522  Biso   1.000  C
  C96      1.0000 0.68998  0.42770  0.03441  Biso   1.000  C
  H101     1.0000 0.37928  0.65109  0.02561  Biso   1.000  H
  N15      1.0000 0.45459  0.72291  0.03689  Biso   1.000  N
  H102     1.0000 0.49720  0.69490  0.09139  Biso   1.000  H
  N16      1.0000 0.27709  0.53689  0.04541  Biso   1.000  N
  H103     1.0000 0.30510  0.59139  0.00280  Biso   1.000  H
  N17      1.0000 0.54541  0.27709  0.03689  Biso   1.000  N
  H104     1.0000 0.50280  0.30510  0.09139  Biso   1.000  H
  H105     1.0000 0.62072  0.34891  0.02561  Biso   1.000  H
  N18      1.0000 0.72291  0.46311  0.04541  Biso   1.000  N
  H106     1.0000 0.69490  0.40861  0.00280  Biso   1.000  H
  C97      1.0000 0.48980  0.76901  0.02841  Biso   1.000  C
  C98      1.0000 0.23099  0.52841  0.01020  Biso   1.000  C
  C99      1.0000 0.51020  0.23099  0.02841  Biso   1.000  C
  C100     1.0000 0.76901  0.47159  0.01020  Biso   1.000  C
  C101     1.0000 0.51020  0.76901  0.97159  Biso   1.000  C
  H107     1.0000 0.52021  0.76681  0.05302  Biso   1.000  H
  C102     1.0000 0.45811  0.81970  0.03981  Biso   1.000  C
  C103     1.0000 0.23099  0.47159  0.98980  Biso   1.000  C
  C104     1.0000 0.18030  0.53981  0.04189  Biso   1.000  C
  H108     1.0000 0.23319  0.55302  0.97979  Biso   1.000  H
  H109     1.0000 0.47979  0.23319  0.05302  Biso   1.000  H
  C105     1.0000 0.54189  0.18030  0.03981  Biso   1.000  C
  C106     1.0000 0.48980  0.23099  0.97159  Biso   1.000  C
  C107     1.0000 0.81970  0.46019  0.04189  Biso   1.000  C
  C108     1.0000 0.76901  0.52841  0.98980  Biso   1.000  C
  H110     1.0000 0.76681  0.44698  0.97979  Biso   1.000  H
  N19      1.0000 0.54541  0.72291  0.96311  Biso   1.000  N
  H111     1.0000 0.47979  0.76681  0.94698  Biso   1.000  H
  C109     1.0000 0.54189  0.81970  0.96019  Biso   1.000  C
  H112     1.0000 0.44698  0.81990  0.07698  Biso   1.000  H
  H113     1.0000 0.42622  0.82018  0.01781  Biso   1.000  H
  C110     1.0000 0.49192  0.86980  0.02821  Biso   1.000  C
  N20      1.0000 0.27709  0.46311  0.95459  Biso   1.000  N
  H114     1.0000 0.23319  0.44698  0.02021  Biso   1.000  H
  C111     1.0000 0.18030  0.46019  0.95811  Biso   1.000  C
  H115     1.0000 0.18010  0.57698  0.05302  Biso   1.000  H
  H116     1.0000 0.17982  0.51781  0.07378  Biso   1.000  H
  C112     1.0000 0.13020  0.52821  0.00808  Biso   1.000  C
  H117     1.0000 0.55302  0.18010  0.07698  Biso   1.000  H
  H118     1.0000 0.57378  0.17982  0.01781  Biso   1.000  H
  C113     1.0000 0.50808  0.13020  0.02821  Biso   1.000  C
  N21      1.0000 0.45459  0.27709  0.96311  Biso   1.000  N
  H119     1.0000 0.52021  0.23319  0.94698  Biso   1.000  H
  C114     1.0000 0.45811  0.18030  0.96019  Biso   1.000  C
  H120     1.0000 0.81990  0.42302  0.05302  Biso   1.000  H
  H121     1.0000 0.82018  0.48219  0.07378  Biso   1.000  H
  C115     1.0000 0.86980  0.47179  0.00808  Biso   1.000  C
  H122     1.0000 0.76681  0.55302  0.02021  Biso   1.000  H
  N22      1.0000 0.72291  0.53689  0.95459  Biso   1.000  N
  C116     1.0000 0.81970  0.53981  0.95811  Biso   1.000  C
  C117     1.0000 0.53441  0.68998  0.92770  Biso   1.000  C
  H123     1.0000 0.55302  0.81990  0.92302  Biso   1.000  H
  H124     1.0000 0.57378  0.82018  0.98219  Biso   1.000  H
  C118     1.0000 0.50808  0.86980  0.97179  Biso   1.000  C
  H125     1.0000 0.47119  0.90169  0.03601  Biso   1.000  H
  H126     1.0000 0.52341  0.87000  0.05090  Biso   1.000  H
  C119     1.0000 0.31002  0.42770  0.96559  Biso   1.000  C
  H127     1.0000 0.18010  0.42302  0.94698  Biso   1.000  H
  H128     1.0000 0.17982  0.48219  0.92622  Biso   1.000  H
  C120     1.0000 0.13020  0.47179  0.99192  Biso   1.000  C
  H129     1.0000 0.09831  0.53601  0.02881  Biso   1.000  H
  H130     1.0000 0.13000  0.55090  0.97659  Biso   1.000  H
  H131     1.0000 0.52881  0.09831  0.03601  Biso   1.000  H
  H132     1.0000 0.47659  0.13000  0.05090  Biso   1.000  H
  C121     1.0000 0.49192  0.13020  0.97179  Biso   1.000  C
  C122     1.0000 0.46559  0.31002  0.92770  Biso   1.000  C
  H133     1.0000 0.44698  0.18010  0.92302  Biso   1.000  H
  H134     1.0000 0.42622  0.17982  0.98219  Biso   1.000  H
  H135     1.0000 0.90169  0.46399  0.02881  Biso   1.000  H
  C123     1.0000 0.86980  0.52821  0.99192  Biso   1.000  C
  H136     1.0000 0.87000  0.44910  0.97659  Biso   1.000  H
  C124     1.0000 0.68998  0.57230  0.96559  Biso   1.000  C
  H137     1.0000 0.81990  0.57698  0.94698  Biso   1.000  H
  H138     1.0000 0.82018  0.51781  0.92622  Biso   1.000  H
  C125     1.0000 0.56778  0.64361  0.91381  Biso   1.000  C
  H139     1.0000 0.50280  0.69490  0.90861  Biso   1.000  H
  H140     1.0000 0.52881  0.90169  0.96399  Biso   1.000  H
  H141     1.0000 0.47659  0.87000  0.94910  Biso   1.000  H
  C126     1.0000 0.35639  0.41381  0.93222  Biso   1.000  C
  H142     1.0000 0.30510  0.40861  0.99720  Biso   1.000  H
  H143     1.0000 0.13000  0.44910  0.02341  Biso   1.000  H
  H144     1.0000 0.09831  0.46399  0.97119  Biso   1.000  H
  H145     1.0000 0.47119  0.09831  0.96399  Biso   1.000  H
  H146     1.0000 0.52341  0.13000  0.94910  Biso   1.000  H
  C127     1.0000 0.43222  0.35639  0.91381  Biso   1.000  C
  H147     1.0000 0.49720  0.30510  0.90861  Biso   1.000  H
  H148     1.0000 0.87000  0.55090  0.02341  Biso   1.000  H
  H149     1.0000 0.90169  0.53601  0.97119  Biso   1.000  H
  C128     1.0000 0.64361  0.58619  0.93222  Biso   1.000  C
  H150     1.0000 0.69490  0.59139  0.99720  Biso   1.000  H
  C129     1.0000 0.61212  0.63028  0.94478  Biso   1.000  C
  C130     1.0000 0.55522  0.61212  0.86972  Biso   1.000  C
  C131     1.0000 0.38788  0.36972  0.94478  Biso   1.000  C
  C132     1.0000 0.36972  0.44478  0.88788  Biso   1.000  C
  C133     1.0000 0.44478  0.38788  0.86972  Biso   1.000  C
  C134     1.0000 0.63028  0.55522  0.88788  Biso   1.000  C
  H151     1.0000 0.62072  0.65109  0.97439  Biso   1.000  H
  C135     1.0000 0.58619  0.56778  0.85639  Biso   1.000  C
  H152     1.0000 0.52561  0.62072  0.84891  Biso   1.000  H
  H153     1.0000 0.37928  0.34891  0.97439  Biso   1.000  H
  C136     1.0000 0.41381  0.43222  0.85639  Biso   1.000  C
  H154     1.0000 0.34891  0.47439  0.87928  Biso   1.000  H
  H155     1.0000 0.47439  0.37928  0.84891  Biso   1.000  H
  H156     1.0000 0.65109  0.52561  0.87928  Biso   1.000  H
  C137     1.0000 0.57230  0.53441  0.81002  Biso   1.000  C
  C138     1.0000 0.42770  0.46559  0.81002  Biso   1.000  C
  N23      1.0000 0.53689  0.54541  0.77709  Biso   1.000  N
  H157     1.0000 0.59139  0.50280  0.80510  Biso   1.000  H
  N24      1.0000 0.46311  0.45459  0.77709  Biso   1.000  N
  H158     1.0000 0.40861  0.49720  0.80510  Biso   1.000  H
  C139     1.0000 0.52841  0.51020  0.73099  Biso   1.000  C
  C140     1.0000 0.47159  0.48980  0.73099  Biso   1.000  C
  H159     1.0000 0.55302  0.47979  0.73319  Biso   1.000  H
  C141     1.0000 0.53981  0.54189  0.68030  Biso   1.000  C
  H160     1.0000 0.44698  0.52021  0.73319  Biso   1.000  H
  C142     1.0000 0.46019  0.45811  0.68030  Biso   1.000  C
  H161     1.0000 0.57698  0.55302  0.68010  Biso   1.000  H
  H162     1.0000 0.51781  0.57378  0.67982  Biso   1.000  H
  C143     1.0000 0.52821  0.50808  0.63020  Biso   1.000  C
  H163     1.0000 0.42302  0.44698  0.68010  Biso   1.000  H
  H164     1.0000 0.48219  0.42622  0.67982  Biso   1.000  H
  C144     1.0000 0.47179  0.49192  0.63020  Biso   1.000  C
  H165     1.0000 0.53601  0.52881  0.59831  Biso   1.000  H
  H166     1.0000 0.55090  0.47659  0.63000  Biso   1.000  H
  H167     1.0000 0.46399  0.47119  0.59831  Biso   1.000  H
  H168     1.0000 0.44910  0.52341  0.63000  Biso   1.000  H
  C145     1.0000 0.36980  0.47179  0.50808  Biso   1.000  C
  C146     1.0000 0.31970  0.46019  0.54189  Biso   1.000  C
  C147     1.0000 0.36980  0.52821  0.49192  Biso   1.000  C
  H169     1.0000 0.40169  0.46399  0.52881  Biso   1.000  H
  H170     1.0000 0.37000  0.44910  0.47659  Biso   1.000  H
  C148     1.0000 0.26901  0.47159  0.51020  Biso   1.000  C
  H171     1.0000 0.31990  0.42302  0.55302  Biso   1.000  H
  H172     1.0000 0.32018  0.48219  0.57378  Biso   1.000  H
  C149     1.0000 0.31970  0.53981  0.45811  Biso   1.000  C
  H173     1.0000 0.40169  0.53601  0.47119  Biso   1.000  H
  H174     1.0000 0.37000  0.55090  0.52341  Biso   1.000  H
  N25      1.0000 0.22291  0.46311  0.54541  Biso   1.000  N
  C150     1.0000 0.26901  0.52841  0.48980  Biso   1.000  C
  H175     1.0000 0.26681  0.44698  0.47979  Biso   1.000  H
  H176     1.0000 0.31990  0.57698  0.44698  Biso   1.000  H
  H177     1.0000 0.32018  0.51781  0.42622  Biso   1.000  H
  C151     1.0000 0.18998  0.42770  0.53441  Biso   1.000  C
  N26      1.0000 0.22291  0.53689  0.45459  Biso   1.000  N
  H178     1.0000 0.26681  0.55302  0.52021  Biso   1.000  H
  C152     1.0000 0.14361  0.41381  0.56778  Biso   1.000  C
  H179     1.0000 0.19490  0.40861  0.50280  Biso   1.000  H
  C153     1.0000 0.18998  0.57230  0.46559  Biso   1.000  C
  C154     1.0000 0.13028  0.44478  0.61212  Biso   1.000  C
  C155     1.0000 0.11212  0.36972  0.55522  Biso   1.000  C
  C156     1.0000 0.14361  0.58619  0.43222  Biso   1.000  C
  H180     1.0000 0.19490  0.59139  0.49720  Biso   1.000  H
  H181     1.0000 0.15109  0.47439  0.62072  Biso   1.000  H
  C157     1.0000 0.08619  0.43222  0.64361  Biso   1.000  C
  H182     1.0000 0.12072  0.34891  0.52561  Biso   1.000  H
  C158     1.0000 0.06778  0.35639  0.58619  Biso   1.000  C
  C159     1.0000 0.13028  0.55522  0.38788  Biso   1.000  C
  C160     1.0000 0.11212  0.63028  0.44478  Biso   1.000  C
  C161     1.0000 0.05522  0.38788  0.63028  Biso   1.000  C
  C162     1.0000 0.07230  0.46559  0.68998  Biso   1.000  C
  C163     1.0000 0.03441  0.31002  0.57230  Biso   1.000  C
  H183     1.0000 0.15109  0.52561  0.37928  Biso   1.000  H
  C164     1.0000 0.08619  0.56778  0.35639  Biso   1.000  C
  H184     1.0000 0.12072  0.65109  0.47439  Biso   1.000  H
  C165     1.0000 0.06778  0.64361  0.41381  Biso   1.000  C
  H185     1.0000 0.02561  0.37928  0.65109  Biso   1.000  H
  N27      1.0000 0.03689  0.45459  0.72291  Biso   1.000  N
  H186     1.0000 0.09139  0.49720  0.69490  Biso   1.000  H
  N28      1.0000 0.04541  0.27709  0.53689  Biso   1.000  N
  H187     1.0000 0.00280  0.30510  0.59139  Biso   1.000  H
  C166     1.0000 0.05522  0.61212  0.36972  Biso   1.000  C
  C167     1.0000 0.07230  0.53441  0.31002  Biso   1.000  C
  C168     1.0000 0.03441  0.68998  0.42770  Biso   1.000  C
  C169     1.0000 0.02841  0.48980  0.76901  Biso   1.000  C
  C170     1.0000 0.01020  0.23099  0.52841  Biso   1.000  C
  H188     1.0000 0.02561  0.62072  0.34891  Biso   1.000  H
  N29      1.0000 0.03689  0.54541  0.27709  Biso   1.000  N
  H189     1.0000 0.09139  0.50280  0.30510  Biso   1.000  H
  N30      1.0000 0.04541  0.72291  0.46311  Biso   1.000  N
  H190     1.0000 0.00280  0.69490  0.40861  Biso   1.000  H
  H191     1.0000 0.05302  0.52021  0.76681  Biso   1.000  H
  C171     1.0000 0.03981  0.45811  0.81970  Biso   1.000  C
  C172     1.0000 0.97159  0.51020  0.76901  Biso   1.000  C
  C173     1.0000 0.04189  0.18030  0.53981  Biso   1.000  C
  C174     1.0000 0.98980  0.23099  0.47159  Biso   1.000  C
  H192     1.0000 0.97979  0.23319  0.55302  Biso   1.000  H
  C175     1.0000 0.02841  0.51020  0.23099  Biso   1.000  C
  C176     1.0000 0.01020  0.76901  0.47159  Biso   1.000  C
  H193     1.0000 0.07698  0.44698  0.81990  Biso   1.000  H
  H194     1.0000 0.01781  0.42622  0.82018  Biso   1.000  H
  C177     1.0000 0.02821  0.49192  0.86980  Biso   1.000  C
  N31      1.0000 0.96311  0.54541  0.72291  Biso   1.000  N
  H195     1.0000 0.94698  0.47979  0.76681  Biso   1.000  H
  C178     1.0000 0.96019  0.54189  0.81970  Biso   1.000  C
  H196     1.0000 0.05302  0.18010  0.57698  Biso   1.000  H
  H197     1.0000 0.07378  0.17982  0.51781  Biso   1.000  H
  C179     1.0000 0.00808  0.13020  0.52821  Biso   1.000  C
  H198     1.0000 0.02021  0.23319  0.44698  Biso   1.000  H
  N32      1.0000 0.95459  0.27709  0.46311  Biso   1.000  N
  C180     1.0000 0.95811  0.18030  0.46019  Biso   1.000  C
  H199     1.0000 0.05302  0.47979  0.23319  Biso   1.000  H
  C181     1.0000 0.03981  0.54189  0.18030  Biso   1.000  C
  C182     1.0000 0.97159  0.48980  0.23099  Biso   1.000  C
  C183     1.0000 0.04189  0.81970  0.46019  Biso   1.000  C
  C184     1.0000 0.98980  0.76901  0.52841  Biso   1.000  C
  H200     1.0000 0.97979  0.76681  0.44698  Biso   1.000  H
  H201     1.0000 0.03601  0.47119  0.90169  Biso   1.000  H
  H202     1.0000 0.05090  0.52341  0.87000  Biso   1.000  H
  C185     1.0000 0.97179  0.50808  0.86980  Biso   1.000  C
  C186     1.0000 0.92770  0.53441  0.68998  Biso   1.000  C
  H203     1.0000 0.92302  0.55302  0.81990  Biso   1.000  H
  H204     1.0000 0.98219  0.57378  0.82018  Biso   1.000  H
  H205     1.0000 0.02881  0.09831  0.53601  Biso   1.000  H
  C187     1.0000 0.99192  0.13020  0.47179  Biso   1.000  C
  H206     1.0000 0.97659  0.13000  0.55090  Biso   1.000  H
  C188     1.0000 0.96559  0.31002  0.42770  Biso   1.000  C
  H207     1.0000 0.94698  0.18010  0.42302  Biso   1.000  H
  H208     1.0000 0.92622  0.17982  0.48219  Biso   1.000  H
  H209     1.0000 0.07698  0.55302  0.18010  Biso   1.000  H
  H210     1.0000 0.01781  0.57378  0.17982  Biso   1.000  H
  C189     1.0000 0.02821  0.50808  0.13020  Biso   1.000  C
  N33      1.0000 0.96311  0.45459  0.27709  Biso   1.000  N
  H211     1.0000 0.94698  0.52021  0.23319  Biso   1.000  H
  C190     1.0000 0.96019  0.45811  0.18030  Biso   1.000  C
  H212     1.0000 0.05302  0.81990  0.42302  Biso   1.000  H
  H213     1.0000 0.07378  0.82018  0.48219  Biso   1.000  H
  C191     1.0000 0.00808  0.86980  0.47179  Biso   1.000  C
  H214     1.0000 0.02021  0.76681  0.55302  Biso   1.000  H
  N34      1.0000 0.95459  0.72291  0.53689  Biso   1.000  N
  C192     1.0000 0.95811  0.81970  0.53981  Biso   1.000  C
  H215     1.0000 0.96399  0.52881  0.90169  Biso   1.000  H
  H216     1.0000 0.94910  0.47659  0.87000  Biso   1.000  H
  C193     1.0000 0.91381  0.56778  0.64361  Biso   1.000  C
  H217     1.0000 0.90861  0.50280  0.69490  Biso   1.000  H
  H218     1.0000 0.02341  0.13000  0.44910  Biso   1.000  H
  H219     1.0000 0.97119  0.09831  0.46399  Biso   1.000  H
  C194     1.0000 0.93222  0.35639  0.41381  Biso   1.000  C
  H220     1.0000 0.99720  0.30510  0.40861  Biso   1.000  H
  H221     1.0000 0.03601  0.52881  0.09831  Biso   1.000  H
  H222     1.0000 0.05090  0.47659  0.13000  Biso   1.000  H
  C195     1.0000 0.97179  0.49192  0.13020  Biso   1.000  C
  C196     1.0000 0.92770  0.46559  0.31002  Biso   1.000  C
  H223     1.0000 0.92302  0.44698  0.18010  Biso   1.000  H
  H224     1.0000 0.98219  0.42622  0.17982  Biso   1.000  H
  H225     1.0000 0.02881  0.90169  0.46399  Biso   1.000  H
  C197     1.0000 0.99192  0.86980  0.52821  Biso   1.000  C
  H226     1.0000 0.97659  0.87000  0.44910  Biso   1.000  H
  C198     1.0000 0.96559  0.68998  0.57230  Biso   1.000  C
  H227     1.0000 0.94698  0.81990  0.57698  Biso   1.000  H
  H228     1.0000 0.92622  0.82018  0.51781  Biso   1.000  H
  C199     1.0000 0.86972  0.55522  0.61212  Biso   1.000  C
  C200     1.0000 0.94478  0.61212  0.63028  Biso   1.000  C
  C201     1.0000 0.94478  0.38788  0.36972  Biso   1.000  C
  C202     1.0000 0.88788  0.36972  0.44478  Biso   1.000  C
  H229     1.0000 0.96399  0.47119  0.09831  Biso   1.000  H
  H230     1.0000 0.94910  0.52341  0.13000  Biso   1.000  H
  C203     1.0000 0.91381  0.43222  0.35639  Biso   1.000  C
  H231     1.0000 0.90861  0.49720  0.30510  Biso   1.000  H
  H232     1.0000 0.02341  0.87000  0.55090  Biso   1.000  H
  H233     1.0000 0.97119  0.90169  0.53601  Biso   1.000  H
  C204     1.0000 0.93222  0.64361  0.58619  Biso   1.000  C
  H234     1.0000 0.99720  0.69490  0.59139  Biso   1.000  H
  H235     1.0000 0.84891  0.52561  0.62072  Biso   1.000  H
  C205     1.0000 0.85639  0.58619  0.56778  Biso   1.000  C
  H236     1.0000 0.97439  0.62072  0.65109  Biso   1.000  H
  H237     1.0000 0.97439  0.37928  0.34891  Biso   1.000  H
  H238     1.0000 0.87928  0.34891  0.47439  Biso   1.000  H
  C206     1.0000 0.85639  0.41381  0.43222  Biso   1.000  C
  C207     1.0000 0.86972  0.44478  0.38788  Biso   1.000  C
  C208     1.0000 0.88788  0.63028  0.55522  Biso   1.000  C
  C209     1.0000 0.81002  0.57230  0.53441  Biso   1.000  C
  C210     1.0000 0.81002  0.42770  0.46559  Biso   1.000  C
  H239     1.0000 0.84891  0.47439  0.37928  Biso   1.000  H
  H240     1.0000 0.87928  0.65109  0.52561  Biso   1.000  H
  N35      1.0000 0.77709  0.53689  0.54541  Biso   1.000  N
  H241     1.0000 0.80510  0.59139  0.50280  Biso   1.000  H
  N36      1.0000 0.77709  0.46311  0.45459  Biso   1.000  N
  H242     1.0000 0.80510  0.40861  0.49720  Biso   1.000  H
  C211     1.0000 0.73099  0.52841  0.51020  Biso   1.000  C
  C212     1.0000 0.73099  0.47159  0.48980  Biso   1.000  C
  H243     1.0000 0.73319  0.55302  0.47979  Biso   1.000  H
  C213     1.0000 0.68030  0.53981  0.54189  Biso   1.000  C
  H244     1.0000 0.73319  0.44698  0.52021  Biso   1.000  H
  C214     1.0000 0.68030  0.46019  0.45811  Biso   1.000  C
  H245     1.0000 0.68010  0.57698  0.55302  Biso   1.000  H
  H246     1.0000 0.67982  0.51781  0.57378  Biso   1.000  H
  C215     1.0000 0.63020  0.52821  0.50808  Biso   1.000  C
  H247     1.0000 0.68010  0.42302  0.44698  Biso   1.000  H
  H248     1.0000 0.67982  0.48219  0.42622  Biso   1.000  H
  C216     1.0000 0.63020  0.47179  0.49192  Biso   1.000  C
  H249     1.0000 0.59831  0.53601  0.52881  Biso   1.000  H
  H250     1.0000 0.63000  0.55090  0.47659  Biso   1.000  H
  H251     1.0000 0.59831  0.46399  0.47119  Biso   1.000  H
  H252     1.0000 0.63000  0.44910  0.52341  Biso   1.000  H
  C217     1.0000 0.38028  0.36212  0.30522  Biso   1.000  C
  C218     1.0000 0.39361  0.31778  0.33619  Biso   1.000  C
  H253     1.0000 0.40109  0.37072  0.27561  Biso   1.000  H
  C219     1.0000 0.33619  0.39361  0.31778  Biso   1.000  C
  C220     1.0000 0.36212  0.30522  0.38028  Biso   1.000  C
  C221     1.0000 0.43998  0.28441  0.32230  Biso   1.000  C
  C222     1.0000 0.30522  0.38028  0.36212  Biso   1.000  C
  C223     1.0000 0.32230  0.43998  0.28441  Biso   1.000  C
  H254     1.0000 0.37072  0.27561  0.40109  Biso   1.000  H
  C224     1.0000 0.31778  0.33619  0.39361  Biso   1.000  C
  N37      1.0000 0.47291  0.29541  0.28689  Biso   1.000  N
  H255     1.0000 0.44490  0.25280  0.34139  Biso   1.000  H
  H256     1.0000 0.27561  0.40109  0.37072  Biso   1.000  H
  N38      1.0000 0.28689  0.47291  0.29541  Biso   1.000  N
  H257     1.0000 0.34139  0.44490  0.25280  Biso   1.000  H
  C225     1.0000 0.28441  0.32230  0.43998  Biso   1.000  C
  C226     1.0000 0.51901  0.26020  0.27841  Biso   1.000  C
  C227     1.0000 0.27841  0.51901  0.26020  Biso   1.000  C
  N39      1.0000 0.29541  0.28689  0.47291  Biso   1.000  N
  H258     1.0000 0.25280  0.34139  0.44490  Biso   1.000  H
  C228     1.0000 0.51901  0.23980  0.22159  Biso   1.000  C
  H259     1.0000 0.51681  0.22979  0.30302  Biso   1.000  H
  C229     1.0000 0.56970  0.29189  0.28981  Biso   1.000  C
  C230     1.0000 0.22159  0.51901  0.23980  Biso   1.000  C
  H260     1.0000 0.30302  0.51681  0.22979  Biso   1.000  H
  C231     1.0000 0.28981  0.56970  0.29189  Biso   1.000  C
  C232     1.0000 0.26020  0.27841  0.51901  Biso   1.000  C
  N40      1.0000 0.47291  0.20459  0.21311  Biso   1.000  N
  H261     1.0000 0.51681  0.27021  0.19698  Biso   1.000  H
  C233     1.0000 0.56970  0.20811  0.21019  Biso   1.000  C
  H262     1.0000 0.56990  0.30302  0.32698  Biso   1.000  H
  H263     1.0000 0.57018  0.32378  0.26781  Biso   1.000  H
  C234     1.0000 0.61980  0.25808  0.27821  Biso   1.000  C
  N41      1.0000 0.21311  0.47291  0.20459  Biso   1.000  N
  H264     1.0000 0.19698  0.51681  0.27021  Biso   1.000  H
  C235     1.0000 0.21019  0.56970  0.20811  Biso   1.000  C
  H265     1.0000 0.32698  0.56990  0.30302  Biso   1.000  H
  H266     1.0000 0.26781  0.57018  0.32378  Biso   1.000  H
  C236     1.0000 0.27821  0.61980  0.25808  Biso   1.000  C
  C237     1.0000 0.23980  0.22159  0.51901  Biso   1.000  C
  H267     1.0000 0.22979  0.30302  0.51681  Biso   1.000  H
  C238     1.0000 0.29189  0.28981  0.56970  Biso   1.000  C
  C239     1.0000 0.43998  0.21559  0.17770  Biso   1.000  C
  H268     1.0000 0.56990  0.19698  0.17302  Biso   1.000  H
  H269     1.0000 0.57018  0.17622  0.23219  Biso   1.000  H
  C240     1.0000 0.61980  0.24192  0.22179  Biso   1.000  C
  H270     1.0000 0.65169  0.27881  0.28601  Biso   1.000  H
  H271     1.0000 0.62000  0.22659  0.30090  Biso   1.000  H
  C241     1.0000 0.17770  0.43998  0.21559  Biso   1.000  C
  H272     1.0000 0.17302  0.56990  0.19698  Biso   1.000  H
  H273     1.0000 0.23219  0.57018  0.17622  Biso   1.000  H
  C242     1.0000 0.22179  0.61980  0.24192  Biso   1.000  C
  H274     1.0000 0.28601  0.65169  0.27881  Biso   1.000  H
  H275     1.0000 0.30090  0.62000  0.22659  Biso   1.000  H
  N42      1.0000 0.20459  0.21311  0.47291  Biso   1.000  N
  H276     1.0000 0.27021  0.19698  0.51681  Biso   1.000  H
  C243     1.0000 0.20811  0.21019  0.56970  Biso   1.000  C
  H277     1.0000 0.30302  0.32698  0.56990  Biso   1.000  H
  H278     1.0000 0.32378  0.26781  0.57018  Biso   1.000  H
  C244     1.0000 0.25808  0.27821  0.61980  Biso   1.000  C
  C245     1.0000 0.39361  0.18222  0.16381  Biso   1.000  C
  H279     1.0000 0.44490  0.24720  0.15861  Biso   1.000  H
  H280     1.0000 0.65169  0.22119  0.21399  Biso   1.000  H
  H281     1.0000 0.62000  0.27341  0.19910  Biso   1.000  H
  C246     1.0000 0.16381  0.39361  0.18222  Biso   1.000  C
  H282     1.0000 0.15861  0.44490  0.24720  Biso   1.000  H
  H283     1.0000 0.21399  0.65169  0.22119  Biso   1.000  H
  H284     1.0000 0.19910  0.62000  0.27341  Biso   1.000  H
  C247     1.0000 0.21559  0.17770  0.43998  Biso   1.000  C
  H285     1.0000 0.19698  0.17302  0.56990  Biso   1.000  H
  H286     1.0000 0.17622  0.23219  0.57018  Biso   1.000  H
  C248     1.0000 0.24192  0.22179  0.61980  Biso   1.000  C
  H287     1.0000 0.27881  0.28601  0.65169  Biso   1.000  H
  H288     1.0000 0.22659  0.30090  0.62000  Biso   1.000  H
  C249     1.0000 0.38028  0.13788  0.19478  Biso   1.000  C
  C250     1.0000 0.36212  0.19478  0.11972  Biso   1.000  C
  C251     1.0000 0.19478  0.38028  0.13788  Biso   1.000  C
  C252     1.0000 0.11972  0.36212  0.19478  Biso   1.000  C
  C253     1.0000 0.18222  0.16381  0.39361  Biso   1.000  C
  H289     1.0000 0.24720  0.15861  0.44490  Biso   1.000  H
  H290     1.0000 0.22119  0.21399  0.65169  Biso   1.000  H
  H291     1.0000 0.27341  0.19910  0.62000  Biso   1.000  H
  H292     1.0000 0.40109  0.12928  0.22439  Biso   1.000  H
  C254     1.0000 0.33619  0.10639  0.18222  Biso   1.000  C
  H293     1.0000 0.37072  0.22439  0.09891  Biso   1.000  H
  C255     1.0000 0.31778  0.16381  0.10639  Biso   1.000  C
  H294     1.0000 0.22439  0.40109  0.12928  Biso   1.000  H
  C256     1.0000 0.18222  0.33619  0.10639  Biso   1.000  C
  H295     1.0000 0.09891  0.37072  0.22439  Biso   1.000  H
  C257     1.0000 0.10639  0.31778  0.16381  Biso   1.000  C
  C258     1.0000 0.13788  0.19478  0.38028  Biso   1.000  C
  C259     1.0000 0.19478  0.11972  0.36212  Biso   1.000  C
  C260     1.0000 0.30522  0.11972  0.13788  Biso   1.000  C
  C261     1.0000 0.32230  0.06002  0.21559  Biso   1.000  C
  C262     1.0000 0.28441  0.17770  0.06002  Biso   1.000  C
  C263     1.0000 0.13788  0.30522  0.11972  Biso   1.000  C
  C264     1.0000 0.21559  0.32230  0.06002  Biso   1.000  C
  C265     1.0000 0.06002  0.28441  0.17770  Biso   1.000  C
  H296     1.0000 0.12928  0.22439  0.40109  Biso   1.000  H
  C266     1.0000 0.10639  0.18222  0.33619  Biso   1.000  C
  H297     1.0000 0.22439  0.09891  0.37072  Biso   1.000  H
  C267     1.0000 0.16381  0.10639  0.31778  Biso   1.000  C
  H298     1.0000 0.27561  0.09891  0.12928  Biso   1.000  H
  N43      1.0000 0.28689  0.02709  0.20459  Biso   1.000  N
  H299     1.0000 0.34139  0.05510  0.24720  Biso   1.000  H
  N44      1.0000 0.29541  0.21311  0.02709  Biso   1.000  N
  H300     1.0000 0.25280  0.15861  0.05510  Biso   1.000  H
  H301     1.0000 0.12928  0.27561  0.09891  Biso   1.000  H
  N45      1.0000 0.20459  0.28689  0.02709  Biso   1.000  N
  H302     1.0000 0.24720  0.34139  0.05510  Biso   1.000  H
  N46      1.0000 0.02709  0.29541  0.21311  Biso   1.000  N
  H303     1.0000 0.05510  0.25280  0.15861  Biso   1.000  H
  C268     1.0000 0.11972  0.13788  0.30522  Biso   1.000  C
  C269     1.0000 0.06002  0.21559  0.32230  Biso   1.000  C
  C270     1.0000 0.17770  0.06002  0.28441  Biso   1.000  C
  C271     1.0000 0.27841  0.98099  0.23980  Biso   1.000  C
  C272     1.0000 0.26020  0.22159  0.98099  Biso   1.000  C
  C273     1.0000 0.23980  0.27841  0.98099  Biso   1.000  C
  C274     1.0000 0.98099  0.26020  0.22159  Biso   1.000  C
  H304     1.0000 0.09891  0.12928  0.27561  Biso   1.000  H
  N47      1.0000 0.02709  0.20459  0.28689  Biso   1.000  N
  H305     1.0000 0.05510  0.24720  0.34139  Biso   1.000  H
  N48      1.0000 0.21311  0.02709  0.29541  Biso   1.000  N
  H306     1.0000 0.15861  0.05510  0.25280  Biso   1.000  H
  C275     1.0000 0.22159  0.98099  0.26020  Biso   1.000  C
  H307     1.0000 0.30302  0.98319  0.27021  Biso   1.000  H
  C276     1.0000 0.28981  0.93030  0.20811  Biso   1.000  C
  H308     1.0000 0.22979  0.19698  0.98319  Biso   1.000  H
  C277     1.0000 0.29189  0.21019  0.93030  Biso   1.000  C
  H309     1.0000 0.27021  0.30302  0.98319  Biso   1.000  H
  C278     1.0000 0.20811  0.28981  0.93030  Biso   1.000  C
  C279     1.0000 0.98099  0.23980  0.27841  Biso   1.000  C
  H310     1.0000 0.98319  0.22979  0.19698  Biso   1.000  H
  C280     1.0000 0.93030  0.29189  0.21019  Biso   1.000  C
  H311     1.0000 0.19698  0.98319  0.22979  Biso   1.000  H
  C281     1.0000 0.21019  0.93030  0.29189  Biso   1.000  C
  H312     1.0000 0.32698  0.93010  0.19698  Biso   1.000  H
  H313     1.0000 0.26781  0.92982  0.17622  Biso   1.000  H
  C282     1.0000 0.27821  0.88020  0.24192  Biso   1.000  C
  H314     1.0000 0.30302  0.17302  0.93010  Biso   1.000  H
  H315     1.0000 0.32378  0.23219  0.92982  Biso   1.000  H
  C283     1.0000 0.25808  0.22179  0.88020  Biso   1.000  C
  H316     1.0000 0.19698  0.32698  0.93010  Biso   1.000  H
  H317     1.0000 0.17622  0.26781  0.92982  Biso   1.000  H
  C284     1.0000 0.24192  0.27821  0.88020  Biso   1.000  C
  H318     1.0000 0.98319  0.27021  0.30302  Biso   1.000  H
  C285     1.0000 0.93030  0.20811  0.28981  Biso   1.000  C
  H319     1.0000 0.93010  0.30302  0.17302  Biso   1.000  H
  H320     1.0000 0.92982  0.32378  0.23219  Biso   1.000  H
  C286     1.0000 0.88020  0.25808  0.22179  Biso   1.000  C
  H321     1.0000 0.17302  0.93010  0.30302  Biso   1.000  H
  H322     1.0000 0.23219  0.92982  0.32378  Biso   1.000  H
  C287     1.0000 0.22179  0.88020  0.25808  Biso   1.000  C
  H323     1.0000 0.28601  0.84831  0.22119  Biso   1.000  H
  H324     1.0000 0.30090  0.88000  0.27341  Biso   1.000  H
  H325     1.0000 0.27881  0.21399  0.84831  Biso   1.000  H
  H326     1.0000 0.22659  0.19910  0.88000  Biso   1.000  H
  H327     1.0000 0.22119  0.28601  0.84831  Biso   1.000  H
  H328     1.0000 0.27341  0.30090  0.88000  Biso   1.000  H
  H329     1.0000 0.93010  0.19698  0.32698  Biso   1.000  H
  H330     1.0000 0.92982  0.17622  0.26781  Biso   1.000  H
  C288     1.0000 0.88020  0.24192  0.27821  Biso   1.000  C
  H331     1.0000 0.84831  0.27881  0.21399  Biso   1.000  H
  H332     1.0000 0.88000  0.22659  0.19910  Biso   1.000  H
  H333     1.0000 0.21399  0.84831  0.27881  Biso   1.000  H
  H334     1.0000 0.19910  0.88000  0.22659  Biso   1.000  H
  H335     1.0000 0.84831  0.22119  0.28601  Biso   1.000  H
  H336     1.0000 0.88000  0.27341  0.30090  Biso   1.000  H
  C289     1.0000 0.63788  0.30522  0.61972  Biso   1.000  C
  C290     1.0000 0.68222  0.33619  0.60639  Biso   1.000  C
  H337     1.0000 0.62928  0.27561  0.59891  Biso   1.000  H
  C291     1.0000 0.60639  0.31778  0.66381  Biso   1.000  C
  C292     1.0000 0.71559  0.32230  0.56002  Biso   1.000  C
  C293     1.0000 0.69478  0.38028  0.63788  Biso   1.000  C
  C294     1.0000 0.61972  0.36212  0.69478  Biso   1.000  C
  C295     1.0000 0.56002  0.28441  0.67770  Biso   1.000  C
  N49      1.0000 0.70459  0.28689  0.52709  Biso   1.000  N
  H338     1.0000 0.74720  0.34139  0.55510  Biso   1.000  H
  H339     1.0000 0.72439  0.40109  0.62928  Biso   1.000  H
  C296     1.0000 0.66381  0.39361  0.68222  Biso   1.000  C
  H340     1.0000 0.59891  0.37072  0.72439  Biso   1.000  H
  N50      1.0000 0.52709  0.29541  0.71311  Biso   1.000  N
  H341     1.0000 0.55510  0.25280  0.65861  Biso   1.000  H
  C297     1.0000 0.73980  0.27841  0.48099  Biso   1.000  C
  C298     1.0000 0.67770  0.43998  0.71559  Biso   1.000  C
  C299     1.0000 0.48099  0.26020  0.72159  Biso   1.000  C
  C300     1.0000 0.70811  0.28981  0.43030  Biso   1.000  C
  C301     1.0000 0.76020  0.22159  0.48099  Biso   1.000  C
  H342     1.0000 0.77021  0.30302  0.48319  Biso   1.000  H
  N51      1.0000 0.71311  0.47291  0.70459  Biso   1.000  N
  H343     1.0000 0.65861  0.44490  0.74720  Biso   1.000  H
  C302     1.0000 0.48099  0.23980  0.77841  Biso   1.000  C
  H344     1.0000 0.48319  0.22979  0.69698  Biso   1.000  H
  C303     1.0000 0.43030  0.29189  0.71019  Biso   1.000  C
  H345     1.0000 0.69698  0.32698  0.43010  Biso   1.000  H
  H346     1.0000 0.67622  0.26781  0.42982  Biso   1.000  H
  C304     1.0000 0.74192  0.27821  0.38020  Biso   1.000  C
  N52      1.0000 0.79541  0.21311  0.52709  Biso   1.000  N
  H347     1.0000 0.72979  0.19698  0.48319  Biso   1.000  H
  C305     1.0000 0.79189  0.21019  0.43030  Biso   1.000  C
  C306     1.0000 0.72159  0.51901  0.73980  Biso   1.000  C
  N53      1.0000 0.52709  0.20459  0.78689  Biso   1.000  N
  H348     1.0000 0.48319  0.27021  0.80302  Biso   1.000  H
  C307     1.0000 0.43030  0.20811  0.78981  Biso   1.000  C
  H349     1.0000 0.43010  0.30302  0.67302  Biso   1.000  H
  H350     1.0000 0.42982  0.32378  0.73219  Biso   1.000  H
  C308     1.0000 0.38020  0.25808  0.72179  Biso   1.000  C
  C309     1.0000 0.75808  0.22179  0.38020  Biso   1.000  C
  H351     1.0000 0.72119  0.28601  0.34831  Biso   1.000  H
  H352     1.0000 0.77341  0.30090  0.38000  Biso   1.000  H
  C310     1.0000 0.78441  0.17770  0.56002  Biso   1.000  C
  H353     1.0000 0.80302  0.17302  0.43010  Biso   1.000  H
  H354     1.0000 0.82378  0.23219  0.42982  Biso   1.000  H
  C311     1.0000 0.77841  0.51901  0.76020  Biso   1.000  C
  H355     1.0000 0.69698  0.51681  0.77021  Biso   1.000  H
  C312     1.0000 0.71019  0.56970  0.70811  Biso   1.000  C
  C313     1.0000 0.56002  0.21559  0.82230  Biso   1.000  C
  H356     1.0000 0.43010  0.19698  0.82698  Biso   1.000  H
  H357     1.0000 0.42982  0.17622  0.76781  Biso   1.000  H
  C314     1.0000 0.38020  0.24192  0.77821  Biso   1.000  C
  H358     1.0000 0.34831  0.27881  0.71399  Biso   1.000  H
  H359     1.0000 0.38000  0.22659  0.69910  Biso   1.000  H
  H360     1.0000 0.77881  0.21399  0.34831  Biso   1.000  H
  H361     1.0000 0.72659  0.19910  0.38000  Biso   1.000  H
  C315     1.0000 0.81778  0.16381  0.60639  Biso   1.000  C
  H362     1.0000 0.75280  0.15861  0.55510  Biso   1.000  H
  N54      1.0000 0.78689  0.47291  0.79541  Biso   1.000  N
  H363     1.0000 0.80302  0.51681  0.72979  Biso   1.000  H
  C316     1.0000 0.78981  0.56970  0.79189  Biso   1.000  C
  H364     1.0000 0.67302  0.56990  0.69698  Biso   1.000  H
  H365     1.0000 0.73219  0.57018  0.67622  Biso   1.000  H
  C317     1.0000 0.72179  0.61980  0.74192  Biso   1.000  C
  C318     1.0000 0.60639  0.18222  0.83619  Biso   1.000  C
  H366     1.0000 0.55510  0.24720  0.84139  Biso   1.000  H
  H367     1.0000 0.34831  0.22119  0.78601  Biso   1.000  H
  H368     1.0000 0.38000  0.27341  0.80090  Biso   1.000  H
  C319     1.0000 0.80522  0.11972  0.63788  Biso   1.000  C
  C320     1.0000 0.86212  0.19478  0.61972  Biso   1.000  C
  C321     1.0000 0.82230  0.43998  0.78441  Biso   1.000  C
  H369     1.0000 0.82698  0.56990  0.80302  Biso   1.000  H
  H370     1.0000 0.76781  0.57018  0.82378  Biso   1.000  H
  C322     1.0000 0.77821  0.61980  0.75808  Biso   1.000  C
  H371     1.0000 0.71399  0.65169  0.72119  Biso   1.000  H
  H372     1.0000 0.69910  0.62000  0.77341  Biso   1.000  H
  C323     1.0000 0.63788  0.19478  0.88028  Biso   1.000  C
  C324     1.0000 0.61972  0.13788  0.80522  Biso   1.000  C
  H373     1.0000 0.77561  0.09891  0.62928  Biso   1.000  H
  C325     1.0000 0.83619  0.10639  0.68222  Biso   1.000  C
  H374     1.0000 0.87072  0.22439  0.59891  Biso   1.000  H
  C326     1.0000 0.89361  0.18222  0.66381  Biso   1.000  C
  C327     1.0000 0.83619  0.39361  0.81778  Biso   1.000  C
  H375     1.0000 0.84139  0.44490  0.75280  Biso   1.000  H
  H376     1.0000 0.78601  0.65169  0.77881  Biso   1.000  H
  H377     1.0000 0.80090  0.62000  0.72659  Biso   1.000  H
  H378     1.0000 0.62928  0.22439  0.90109  Biso   1.000  H
  C328     1.0000 0.68222  0.16381  0.89361  Biso   1.000  C
  C329     1.0000 0.66381  0.10639  0.81778  Biso   1.000  C
  H379     1.0000 0.59891  0.12928  0.77561  Biso   1.000  H
  C330     1.0000 0.88028  0.13788  0.69478  Biso   1.000  C
  C331     1.0000 0.82230  0.06002  0.71559  Biso   1.000  C
  C332     1.0000 0.93998  0.21559  0.67770  Biso   1.000  C
  C333     1.0000 0.88028  0.36212  0.80522  Biso   1.000  C
  C334     1.0000 0.80522  0.38028  0.86212  Biso   1.000  C
  C335     1.0000 0.69478  0.11972  0.86212  Biso   1.000  C
  C336     1.0000 0.71559  0.17770  0.93998  Biso   1.000  C
  C337     1.0000 0.67770  0.06002  0.78441  Biso   1.000  C
  H380     1.0000 0.90109  0.12928  0.72439  Biso   1.000  H
  N55      1.0000 0.78689  0.02709  0.70459  Biso   1.000  N
  H381     1.0000 0.84139  0.05510  0.74720  Biso   1.000  H
  N56      1.0000 0.97291  0.20459  0.71311  Biso   1.000  N
  H382     1.0000 0.94490  0.24720  0.65861  Biso   1.000  H
  C338     1.0000 0.89361  0.31778  0.83619  Biso   1.000  C
  H383     1.0000 0.90109  0.37072  0.77561  Biso   1.000  H
  H384     1.0000 0.77561  0.40109  0.87072  Biso   1.000  H
  C339     1.0000 0.81778  0.33619  0.89361  Biso   1.000  C
  H385     1.0000 0.72439  0.09891  0.87072  Biso   1.000  H
  N57      1.0000 0.70459  0.21311  0.97291  Biso   1.000  N
  H386     1.0000 0.74720  0.15861  0.94490  Biso   1.000  H
  N58      1.0000 0.71311  0.02709  0.79541  Biso   1.000  N
  H387     1.0000 0.65861  0.05510  0.75280  Biso   1.000  H
  C340     1.0000 0.77841  0.98099  0.73980  Biso   1.000  C
  C341     1.0000 0.01901  0.23980  0.72159  Biso   1.000  C
  C342     1.0000 0.93998  0.28441  0.82230  Biso   1.000  C
  C343     1.0000 0.86212  0.30522  0.88028  Biso   1.000  C
  C344     1.0000 0.78441  0.32230  0.93998  Biso   1.000  C
  C345     1.0000 0.73980  0.22159  0.01901  Biso   1.000  C
  C346     1.0000 0.72159  0.98099  0.76020  Biso   1.000  C
  H388     1.0000 0.80302  0.98319  0.77021  Biso   1.000  H
  C347     1.0000 0.78981  0.93030  0.70811  Biso   1.000  C
  C348     1.0000 0.01901  0.26020  0.77841  Biso   1.000  C
  H389     1.0000 0.01681  0.27021  0.69698  Biso   1.000  H
  C349     1.0000 0.06970  0.20811  0.71019  Biso   1.000  C
  N59      1.0000 0.97291  0.29541  0.78689  Biso   1.000  N
  H390     1.0000 0.94490  0.25280  0.84139  Biso   1.000  H
  H391     1.0000 0.87072  0.27561  0.90109  Biso   1.000  H
  N60      1.0000 0.79541  0.28689  0.97291  Biso   1.000  N
  H392     1.0000 0.75280  0.34139  0.94490  Biso   1.000  H
  C350     1.0000 0.76020  0.27841  0.01901  Biso   1.000  C
  H393     1.0000 0.77021  0.19698  0.01681  Biso   1.000  H
  C351     1.0000 0.70811  0.21019  0.06970  Biso   1.000  C
  H394     1.0000 0.69698  0.98319  0.72979  Biso   1.000  H
  C352     1.0000 0.71019  0.93030  0.79189  Biso   1.000  C
  H395     1.0000 0.82698  0.93010  0.69698  Biso   1.000  H
  H396     1.0000 0.76781  0.92982  0.67622  Biso   1.000  H
  C353     1.0000 0.77821  0.88020  0.74192  Biso   1.000  C
  H397     1.0000 0.01681  0.22979  0.80302  Biso   1.000  H
  C354     1.0000 0.06970  0.29189  0.78981  Biso   1.000  C
  H398     1.0000 0.06990  0.19698  0.67302  Biso   1.000  H
  H399     1.0000 0.07018  0.17622  0.73219  Biso   1.000  H
  C355     1.0000 0.11980  0.24192  0.72179  Biso   1.000  C
  H400     1.0000 0.72979  0.30302  0.01681  Biso   1.000  H
  C356     1.0000 0.79189  0.28981  0.06970  Biso   1.000  C
  H401     1.0000 0.69698  0.17302  0.06990  Biso   1.000  H
  H402     1.0000 0.67622  0.23219  0.07018  Biso   1.000  H
  C357     1.0000 0.74192  0.22179  0.11980  Biso   1.000  C
  H403     1.0000 0.67302  0.93010  0.80302  Biso   1.000  H
  H404     1.0000 0.73219  0.92982  0.82378  Biso   1.000  H
  C358     1.0000 0.72179  0.88020  0.75808  Biso   1.000  C
  H405     1.0000 0.78601  0.84831  0.72119  Biso   1.000  H
  H406     1.0000 0.80090  0.88000  0.77341  Biso   1.000  H
  H407     1.0000 0.06990  0.30302  0.82698  Biso   1.000  H
  H408     1.0000 0.07018  0.32378  0.76781  Biso   1.000  H
  C359     1.0000 0.11980  0.25808  0.77821  Biso   1.000  C
  H409     1.0000 0.15169  0.22119  0.71399  Biso   1.000  H
  H410     1.0000 0.12000  0.27341  0.69910  Biso   1.000  H
  H411     1.0000 0.80302  0.32698  0.06990  Biso   1.000  H
  H412     1.0000 0.82378  0.26781  0.07018  Biso   1.000  H
  C360     1.0000 0.75808  0.27821  0.11980  Biso   1.000  C
  H413     1.0000 0.72119  0.21399  0.15169  Biso   1.000  H
  H414     1.0000 0.77341  0.19910  0.12000  Biso   1.000  H
  H415     1.0000 0.71399  0.84831  0.77881  Biso   1.000  H
  H416     1.0000 0.69910  0.88000  0.72659  Biso   1.000  H
  H417     1.0000 0.15169  0.27881  0.78601  Biso   1.000  H
  H418     1.0000 0.12000  0.22659  0.80090  Biso   1.000  H
  H419     1.0000 0.77881  0.28601  0.15169  Biso   1.000  H
  H420     1.0000 0.72659  0.30090  0.12000  Biso   1.000  H
  C361     1.0000 0.61972  0.63788  0.30522  Biso   1.000  C
  C362     1.0000 0.66381  0.60639  0.31778  Biso   1.000  C
  H421     1.0000 0.59891  0.62928  0.27561  Biso   1.000  H
  C363     1.0000 0.60639  0.68222  0.33619  Biso   1.000  C
  C364     1.0000 0.67770  0.56002  0.28441  Biso   1.000  C
  C365     1.0000 0.69478  0.61972  0.36212  Biso   1.000  C
  C366     1.0000 0.63788  0.69478  0.38028  Biso   1.000  C
  C367     1.0000 0.56002  0.71559  0.32230  Biso   1.000  C
  N61      1.0000 0.71311  0.52709  0.29541  Biso   1.000  N
  H422     1.0000 0.65861  0.55510  0.25280  Biso   1.000  H
  H423     1.0000 0.72439  0.59891  0.37072  Biso   1.000  H
  C368     1.0000 0.68222  0.66381  0.39361  Biso   1.000  C
  H424     1.0000 0.62928  0.72439  0.40109  Biso   1.000  H
  N62      1.0000 0.52709  0.70459  0.28689  Biso   1.000  N
  H425     1.0000 0.55510  0.74720  0.34139  Biso   1.000  H
  C369     1.0000 0.72159  0.48099  0.26020  Biso   1.000  C
  C370     1.0000 0.71559  0.67770  0.43998  Biso   1.000  C
  C371     1.0000 0.48099  0.73980  0.27841  Biso   1.000  C
  C372     1.0000 0.71019  0.43030  0.29189  Biso   1.000  C
  C373     1.0000 0.77841  0.48099  0.23980  Biso   1.000  C
  H426     1.0000 0.69698  0.48319  0.22979  Biso   1.000  H
  N63      1.0000 0.70459  0.71311  0.47291  Biso   1.000  N
  H427     1.0000 0.74720  0.65861  0.44490  Biso   1.000  H
  C374     1.0000 0.48099  0.76020  0.22159  Biso   1.000  C
  H428     1.0000 0.48319  0.77021  0.30302  Biso   1.000  H
  C375     1.0000 0.43030  0.70811  0.28981  Biso   1.000  C
  C376     1.0000 0.72179  0.38020  0.25808  Biso   1.000  C
  H429     1.0000 0.67302  0.43010  0.30302  Biso   1.000  H
  H430     1.0000 0.73219  0.42982  0.32378  Biso   1.000  H
  C377     1.0000 0.78981  0.43030  0.20811  Biso   1.000  C
  N64      1.0000 0.78689  0.52709  0.20459  Biso   1.000  N
  H431     1.0000 0.80302  0.48319  0.27021  Biso   1.000  H
  C378     1.0000 0.73980  0.72159  0.51901  Biso   1.000  C
  N65      1.0000 0.52709  0.79541  0.21311  Biso   1.000  N
  H432     1.0000 0.48319  0.72979  0.19698  Biso   1.000  H
  C379     1.0000 0.43030  0.79189  0.21019  Biso   1.000  C
  H433     1.0000 0.43010  0.69698  0.32698  Biso   1.000  H
  H434     1.0000 0.42982  0.67622  0.26781  Biso   1.000  H
  C380     1.0000 0.38020  0.74192  0.27821  Biso   1.000  C
  C381     1.0000 0.77821  0.38020  0.24192  Biso   1.000  C
  H435     1.0000 0.71399  0.34831  0.27881  Biso   1.000  H
  H436     1.0000 0.69910  0.38000  0.22659  Biso   1.000  H
  H437     1.0000 0.82698  0.43010  0.19698  Biso   1.000  H
  H438     1.0000 0.76781  0.42982  0.17622  Biso   1.000  H
  C382     1.0000 0.82230  0.56002  0.21559  Biso   1.000  C
  C383     1.0000 0.76020  0.77841  0.51901  Biso   1.000  C
  H439     1.0000 0.77021  0.69698  0.51681  Biso   1.000  H
  C384     1.0000 0.70811  0.71019  0.56970  Biso   1.000  C
  C385     1.0000 0.56002  0.78441  0.17770  Biso   1.000  C
  H440     1.0000 0.43010  0.80302  0.17302  Biso   1.000  H
  H441     1.0000 0.42982  0.82378  0.23219  Biso   1.000  H
  C386     1.0000 0.38020  0.75808  0.22179  Biso   1.000  C
  H442     1.0000 0.34831  0.72119  0.28601  Biso   1.000  H
  H443     1.0000 0.38000  0.77341  0.30090  Biso   1.000  H
  H444     1.0000 0.78601  0.34831  0.22119  Biso   1.000  H
  H445     1.0000 0.80090  0.38000  0.27341  Biso   1.000  H
  C387     1.0000 0.83619  0.60639  0.18222  Biso   1.000  C
  H446     1.0000 0.84139  0.55510  0.24720  Biso   1.000  H
  N66      1.0000 0.79541  0.78689  0.47291  Biso   1.000  N
  H447     1.0000 0.72979  0.80302  0.51681  Biso   1.000  H
  C388     1.0000 0.79189  0.78981  0.56970  Biso   1.000  C
  H448     1.0000 0.69698  0.67302  0.56990  Biso   1.000  H
  H449     1.0000 0.67622  0.73219  0.57018  Biso   1.000  H
  C389     1.0000 0.74192  0.72179  0.61980  Biso   1.000  C
  C390     1.0000 0.60639  0.81778  0.16381  Biso   1.000  C
  H450     1.0000 0.55510  0.75280  0.15861  Biso   1.000  H
  H451     1.0000 0.34831  0.77881  0.21399  Biso   1.000  H
  H452     1.0000 0.38000  0.72659  0.19910  Biso   1.000  H
  C391     1.0000 0.80522  0.61972  0.13788  Biso   1.000  C
  C392     1.0000 0.88028  0.63788  0.19478  Biso   1.000  C
  C393     1.0000 0.78441  0.82230  0.43998  Biso   1.000  C
  H453     1.0000 0.80302  0.82698  0.56990  Biso   1.000  H
  H454     1.0000 0.82378  0.76781  0.57018  Biso   1.000  H
  C394     1.0000 0.75808  0.77821  0.61980  Biso   1.000  C
  H455     1.0000 0.72119  0.71399  0.65169  Biso   1.000  H
  H456     1.0000 0.77341  0.69910  0.62000  Biso   1.000  H
  C395     1.0000 0.63788  0.80522  0.11972  Biso   1.000  C
  C396     1.0000 0.61972  0.86212  0.19478  Biso   1.000  C
  H457     1.0000 0.77561  0.59891  0.12928  Biso   1.000  H
  C397     1.0000 0.81778  0.66381  0.10639  Biso   1.000  C
  H458     1.0000 0.90109  0.62928  0.22439  Biso   1.000  H
  C398     1.0000 0.89361  0.68222  0.16381  Biso   1.000  C
  C399     1.0000 0.81778  0.83619  0.39361  Biso   1.000  C
  H459     1.0000 0.75280  0.84139  0.44490  Biso   1.000  H
  H460     1.0000 0.77881  0.78601  0.65169  Biso   1.000  H
  H461     1.0000 0.72659  0.80090  0.62000  Biso   1.000  H
  C400     1.0000 0.68222  0.83619  0.10639  Biso   1.000  C
  H462     1.0000 0.62928  0.77561  0.09891  Biso   1.000  H
  H463     1.0000 0.59891  0.87072  0.22439  Biso   1.000  H
  C401     1.0000 0.66381  0.89361  0.18222  Biso   1.000  C
  C402     1.0000 0.86212  0.69478  0.11972  Biso   1.000  C
  C403     1.0000 0.78441  0.67770  0.06002  Biso   1.000  C
  C404     1.0000 0.93998  0.71559  0.17770  Biso   1.000  C
  C405     1.0000 0.86212  0.80522  0.38028  Biso   1.000  C
  C406     1.0000 0.80522  0.88028  0.36212  Biso   1.000  C
  C407     1.0000 0.71559  0.82230  0.06002  Biso   1.000  C
  C408     1.0000 0.69478  0.88028  0.13788  Biso   1.000  C
  C409     1.0000 0.67770  0.93998  0.21559  Biso   1.000  C
  H464     1.0000 0.87072  0.72439  0.09891  Biso   1.000  H
  N67      1.0000 0.79541  0.71311  0.02709  Biso   1.000  N
  H465     1.0000 0.75280  0.65861  0.05510  Biso   1.000  H
  N68      1.0000 0.97291  0.70459  0.21311  Biso   1.000  N
  H466     1.0000 0.94490  0.74720  0.15861  Biso   1.000  H
  C410     1.0000 0.89361  0.81778  0.33619  Biso   1.000  C
  H467     1.0000 0.87072  0.77561  0.40109  Biso   1.000  H
  H468     1.0000 0.77561  0.90109  0.37072  Biso   1.000  H
  C411     1.0000 0.83619  0.89361  0.31778  Biso   1.000  C
  N69      1.0000 0.70459  0.78689  0.02709  Biso   1.000  N
  H469     1.0000 0.74720  0.84139  0.05510  Biso   1.000  H
  H470     1.0000 0.72439  0.90109  0.12928  Biso   1.000  H
  N70      1.0000 0.71311  0.97291  0.20459  Biso   1.000  N
  H471     1.0000 0.65861  0.94490  0.24720  Biso   1.000  H
  C412     1.0000 0.76020  0.72159  0.98099  Biso   1.000  C
  C413     1.0000 0.01901  0.73980  0.22159  Biso   1.000  C
  C414     1.0000 0.93998  0.78441  0.32230  Biso   1.000  C
  C415     1.0000 0.88028  0.86212  0.30522  Biso   1.000  C
  C416     1.0000 0.82230  0.93998  0.28441  Biso   1.000  C
  C417     1.0000 0.73980  0.77841  0.98099  Biso   1.000  C
  C418     1.0000 0.72159  0.01901  0.23980  Biso   1.000  C
  H472     1.0000 0.72979  0.69698  0.98319  Biso   1.000  H
  C419     1.0000 0.79189  0.71019  0.93030  Biso   1.000  C
  C420     1.0000 0.01901  0.76020  0.27841  Biso   1.000  C
  H473     1.0000 0.01681  0.77021  0.19698  Biso   1.000  H
  C421     1.0000 0.06970  0.70811  0.21019  Biso   1.000  C
  N71      1.0000 0.97291  0.79541  0.28689  Biso   1.000  N
  H474     1.0000 0.94490  0.75280  0.34139  Biso   1.000  H
  H475     1.0000 0.90109  0.87072  0.27561  Biso   1.000  H
  N72      1.0000 0.78689  0.97291  0.29541  Biso   1.000  N
  H476     1.0000 0.84139  0.94490  0.25280  Biso   1.000  H
  H477     1.0000 0.77021  0.80302  0.98319  Biso   1.000  H
  C422     1.0000 0.70811  0.78981  0.93030  Biso   1.000  C
  C423     1.0000 0.77841  0.01901  0.26020  Biso   1.000  C
  H478     1.0000 0.69698  0.01681  0.27021  Biso   1.000  H
  C424     1.0000 0.71019  0.06970  0.20811  Biso   1.000  C
  H479     1.0000 0.80302  0.67302  0.93010  Biso   1.000  H
  H480     1.0000 0.82378  0.73219  0.92982  Biso   1.000  H
  C425     1.0000 0.75808  0.72179  0.88020  Biso   1.000  C
  H481     1.0000 0.01681  0.72979  0.30302  Biso   1.000  H
  C426     1.0000 0.06970  0.79189  0.28981  Biso   1.000  C
  H482     1.0000 0.06990  0.69698  0.17302  Biso   1.000  H
  H483     1.0000 0.07018  0.67622  0.23219  Biso   1.000  H
  C427     1.0000 0.11980  0.74192  0.22179  Biso   1.000  C
  H484     1.0000 0.69698  0.82698  0.93010  Biso   1.000  H
  H485     1.0000 0.67622  0.76781  0.92982  Biso   1.000  H
  C428     1.0000 0.74192  0.77821  0.88020  Biso   1.000  C
  H486     1.0000 0.80302  0.01681  0.22979  Biso   1.000  H
  C429     1.0000 0.78981  0.06970  0.29189  Biso   1.000  C
  H487     1.0000 0.67302  0.06990  0.19698  Biso   1.000  H
  H488     1.0000 0.73219  0.07018  0.17622  Biso   1.000  H
  C430     1.0000 0.72179  0.11980  0.24192  Biso   1.000  C
  H489     1.0000 0.77881  0.71399  0.84831  Biso   1.000  H
  H490     1.0000 0.72659  0.69910  0.88000  Biso   1.000  H
  H491     1.0000 0.06990  0.80302  0.32698  Biso   1.000  H
  H492     1.0000 0.07018  0.82378  0.26781  Biso   1.000  H
  C431     1.0000 0.11980  0.75808  0.27821  Biso   1.000  C
  H493     1.0000 0.15169  0.72119  0.21399  Biso   1.000  H
  H494     1.0000 0.12000  0.77341  0.19910  Biso   1.000  H
  H495     1.0000 0.72119  0.78601  0.84831  Biso   1.000  H
  H496     1.0000 0.77341  0.80090  0.88000  Biso   1.000  H
  H497     1.0000 0.82698  0.06990  0.30302  Biso   1.000  H
  H498     1.0000 0.76781  0.07018  0.32378  Biso   1.000  H
  C432     1.0000 0.77821  0.11980  0.25808  Biso   1.000  C
  H499     1.0000 0.71399  0.15169  0.22119  Biso   1.000  H
  H500     1.0000 0.69910  0.12000  0.27341  Biso   1.000  H
  H501     1.0000 0.15169  0.77881  0.28601  Biso   1.000  H
  H502     1.0000 0.12000  0.72659  0.30090  Biso   1.000  H
  H503     1.0000 0.78601  0.15169  0.27881  Biso   1.000  H
  H504     1.0000 0.80090  0.12000  0.22659  Biso   1.000  H
  C433     1.0000 0.30522  0.61972  0.63788  Biso   1.000  C
  C434     1.0000 0.31778  0.66381  0.60639  Biso   1.000  C
  H505     1.0000 0.27561  0.59891  0.62928  Biso   1.000  H
  C435     1.0000 0.33619  0.60639  0.68222  Biso   1.000  C
  C436     1.0000 0.28441  0.67770  0.56002  Biso   1.000  C
  C437     1.0000 0.36212  0.69478  0.61972  Biso   1.000  C
  C438     1.0000 0.38028  0.63788  0.69478  Biso   1.000  C
  C439     1.0000 0.32230  0.56002  0.71559  Biso   1.000  C
  N73      1.0000 0.29541  0.71311  0.52709  Biso   1.000  N
  H506     1.0000 0.25280  0.65861  0.55510  Biso   1.000  H
  H507     1.0000 0.37072  0.72439  0.59891  Biso   1.000  H
  C440     1.0000 0.39361  0.68222  0.66381  Biso   1.000  C
  H508     1.0000 0.40109  0.62928  0.72439  Biso   1.000  H
  N74      1.0000 0.28689  0.52709  0.70459  Biso   1.000  N
  H509     1.0000 0.34139  0.55510  0.74720  Biso   1.000  H
  C441     1.0000 0.26020  0.72159  0.48099  Biso   1.000  C
  C442     1.0000 0.43998  0.71559  0.67770  Biso   1.000  C
  C443     1.0000 0.27841  0.48099  0.73980  Biso   1.000  C
  C444     1.0000 0.29189  0.71019  0.43030  Biso   1.000  C
  C445     1.0000 0.23980  0.77841  0.48099  Biso   1.000  C
  H510     1.0000 0.22979  0.69698  0.48319  Biso   1.000  H
  N75      1.0000 0.47291  0.70459  0.71311  Biso   1.000  N
  H511     1.0000 0.44490  0.74720  0.65861  Biso   1.000  H
  C446     1.0000 0.22159  0.48099  0.76020  Biso   1.000  C
  H512     1.0000 0.30302  0.48319  0.77021  Biso   1.000  H
  C447     1.0000 0.28981  0.43030  0.70811  Biso   1.000  C
  C448     1.0000 0.25808  0.72179  0.38020  Biso   1.000  C
  H513     1.0000 0.30302  0.67302  0.43010  Biso   1.000  H
  H514     1.0000 0.32378  0.73219  0.42982  Biso   1.000  H
  C449     1.0000 0.20811  0.78981  0.43030  Biso   1.000  C
  N76      1.0000 0.20459  0.78689  0.52709  Biso   1.000  N
  H515     1.0000 0.27021  0.80302  0.48319  Biso   1.000  H
  C450     1.0000 0.51901  0.73980  0.72159  Biso   1.000  C
  N77      1.0000 0.21311  0.52709  0.79541  Biso   1.000  N
  H516     1.0000 0.19698  0.48319  0.72979  Biso   1.000  H
  C451     1.0000 0.21019  0.43030  0.79189  Biso   1.000  C
  H517     1.0000 0.32698  0.43010  0.69698  Biso   1.000  H
  H518     1.0000 0.26781  0.42982  0.67622  Biso   1.000  H
  C452     1.0000 0.27821  0.38020  0.74192  Biso   1.000  C
  C453     1.0000 0.24192  0.77821  0.38020  Biso   1.000  C
  H519     1.0000 0.27881  0.71399  0.34831  Biso   1.000  H
  H520     1.0000 0.22659  0.69910  0.38000  Biso   1.000  H
  H521     1.0000 0.19698  0.82698  0.43010  Biso   1.000  H
  H522     1.0000 0.17622  0.76781  0.42982  Biso   1.000  H
  C454     1.0000 0.21559  0.82230  0.56002  Biso   1.000  C
  C455     1.0000 0.51901  0.76020  0.77841  Biso   1.000  C
  H523     1.0000 0.51681  0.77021  0.69698  Biso   1.000  H
  C456     1.0000 0.56970  0.70811  0.71019  Biso   1.000  C
  C457     1.0000 0.17770  0.56002  0.78441  Biso   1.000  C
  H524     1.0000 0.17302  0.43010  0.80302  Biso   1.000  H
  H525     1.0000 0.23219  0.42982  0.82378  Biso   1.000  H
  C458     1.0000 0.22179  0.38020  0.75808  Biso   1.000  C
  H526     1.0000 0.28601  0.34831  0.72119  Biso   1.000  H
  H527     1.0000 0.30090  0.38000  0.77341  Biso   1.000  H
  H528     1.0000 0.22119  0.78601  0.34831  Biso   1.000  H
  H529     1.0000 0.27341  0.80090  0.38000  Biso   1.000  H
  C459     1.0000 0.18222  0.83619  0.60639  Biso   1.000  C
  H530     1.0000 0.24720  0.84139  0.55510  Biso   1.000  H
  N78      1.0000 0.47291  0.79541  0.78689  Biso   1.000  N
  H531     1.0000 0.51681  0.72979  0.80302  Biso   1.000  H
  C460     1.0000 0.56970  0.79189  0.78981  Biso   1.000  C
  H532     1.0000 0.56990  0.69698  0.67302  Biso   1.000  H
  H533     1.0000 0.57018  0.67622  0.73219  Biso   1.000  H
  C461     1.0000 0.61980  0.74192  0.72179  Biso   1.000  C
  C462     1.0000 0.16381  0.60639  0.81778  Biso   1.000  C
  H534     1.0000 0.15861  0.55510  0.75280  Biso   1.000  H
  H535     1.0000 0.21399  0.34831  0.77881  Biso   1.000  H
  H536     1.0000 0.19910  0.38000  0.72659  Biso   1.000  H
  C463     1.0000 0.19478  0.88028  0.63788  Biso   1.000  C
  C464     1.0000 0.13788  0.80522  0.61972  Biso   1.000  C
  C465     1.0000 0.43998  0.78441  0.82230  Biso   1.000  C
  H537     1.0000 0.56990  0.80302  0.82698  Biso   1.000  H
  H538     1.0000 0.57018  0.82378  0.76781  Biso   1.000  H
  C466     1.0000 0.61980  0.75808  0.77821  Biso   1.000  C
  H539     1.0000 0.65169  0.72119  0.71399  Biso   1.000  H
  H540     1.0000 0.62000  0.77341  0.69910  Biso   1.000  H
  C467     1.0000 0.11972  0.63788  0.80522  Biso   1.000  C
  C468     1.0000 0.19478  0.61972  0.86212  Biso   1.000  C
  H541     1.0000 0.22439  0.90109  0.62928  Biso   1.000  H
  C469     1.0000 0.16381  0.89361  0.68222  Biso   1.000  C
  H542     1.0000 0.12928  0.77561  0.59891  Biso   1.000  H
  C470     1.0000 0.10639  0.81778  0.66381  Biso   1.000  C
  C471     1.0000 0.39361  0.81778  0.83619  Biso   1.000  C
  H543     1.0000 0.44490  0.75280  0.84139  Biso   1.000  H
  H544     1.0000 0.65169  0.77881  0.78601  Biso   1.000  H
  H545     1.0000 0.62000  0.72659  0.80090  Biso   1.000  H
  C472     1.0000 0.10639  0.68222  0.83619  Biso   1.000  C
  H546     1.0000 0.09891  0.62928  0.77561  Biso   1.000  H
  H547     1.0000 0.22439  0.59891  0.87072  Biso   1.000  H
  C473     1.0000 0.18222  0.66381  0.89361  Biso   1.000  C
  C474     1.0000 0.11972  0.86212  0.69478  Biso   1.000  C
  C475     1.0000 0.17770  0.93998  0.71559  Biso   1.000  C
  C476     1.0000 0.06002  0.78441  0.67770  Biso   1.000  C
  C477     1.0000 0.38028  0.86212  0.80522  Biso   1.000  C
  C478     1.0000 0.36212  0.80522  0.88028  Biso   1.000  C
  C479     1.0000 0.06002  0.71559  0.82230  Biso   1.000  C
  C480     1.0000 0.13788  0.69478  0.88028  Biso   1.000  C
  C481     1.0000 0.21559  0.67770  0.93998  Biso   1.000  C
  H548     1.0000 0.09891  0.87072  0.72439  Biso   1.000  H
  N79      1.0000 0.21311  0.97291  0.70459  Biso   1.000  N
  H549     1.0000 0.15861  0.94490  0.74720  Biso   1.000  H
  N80      1.0000 0.02709  0.79541  0.71311  Biso   1.000  N
  H550     1.0000 0.05510  0.75280  0.65861  Biso   1.000  H
  C482     1.0000 0.33619  0.89361  0.81778  Biso   1.000  C
  H551     1.0000 0.40109  0.87072  0.77561  Biso   1.000  H
  H552     1.0000 0.37072  0.77561  0.90109  Biso   1.000  H
  C483     1.0000 0.31778  0.83619  0.89361  Biso   1.000  C
  N81      1.0000 0.02709  0.70459  0.78689  Biso   1.000  N
  H553     1.0000 0.05510  0.74720  0.84139  Biso   1.000  H
  H554     1.0000 0.12928  0.72439  0.90109  Biso   1.000  H
  N82      1.0000 0.20459  0.71311  0.97291  Biso   1.000  N
  H555     1.0000 0.24720  0.65861  0.94490  Biso   1.000  H
  C484     1.0000 0.22159  0.01901  0.73980  Biso   1.000  C
  C485     1.0000 0.98099  0.76020  0.72159  Biso   1.000  C
  C486     1.0000 0.32230  0.93998  0.78441  Biso   1.000  C
  C487     1.0000 0.30522  0.88028  0.86212  Biso   1.000  C
  C488     1.0000 0.28441  0.82230  0.93998  Biso   1.000  C
  C489     1.0000 0.98099  0.73980  0.77841  Biso   1.000  C
  C490     1.0000 0.23980  0.72159  0.01901  Biso   1.000  C
  C491     1.0000 0.27841  0.01901  0.76020  Biso   1.000  C
  H556     1.0000 0.19698  0.01681  0.77021  Biso   1.000  H
  C492     1.0000 0.21019  0.06970  0.70811  Biso   1.000  C
  H557     1.0000 0.98319  0.72979  0.69698  Biso   1.000  H
  C493     1.0000 0.93030  0.79189  0.71019  Biso   1.000  C
  N83      1.0000 0.28689  0.97291  0.79541  Biso   1.000  N
  H558     1.0000 0.34139  0.94490  0.75280  Biso   1.000  H
  H559     1.0000 0.27561  0.90109  0.87072  Biso   1.000  H
  N84      1.0000 0.29541  0.78689  0.97291  Biso   1.000  N
  H560     1.0000 0.25280  0.84139  0.94490  Biso   1.000  H
  H561     1.0000 0.98319  0.77021  0.80302  Biso   1.000  H
  C494     1.0000 0.93030  0.70811  0.78981  Biso   1.000  C
  C495     1.0000 0.26020  0.77841  0.01901  Biso   1.000  C
  H562     1.0000 0.27021  0.69698  0.01681  Biso   1.000  H
  C496     1.0000 0.20811  0.71019  0.06970  Biso   1.000  C
  H563     1.0000 0.30302  0.01681  0.72979  Biso   1.000  H
  C497     1.0000 0.28981  0.06970  0.79189  Biso   1.000  C
  H564     1.0000 0.17302  0.06990  0.69698  Biso   1.000  H
  H565     1.0000 0.23219  0.07018  0.67622  Biso   1.000  H
  C498     1.0000 0.22179  0.11980  0.74192  Biso   1.000  C
  H566     1.0000 0.93010  0.80302  0.67302  Biso   1.000  H
  H567     1.0000 0.92982  0.82378  0.73219  Biso   1.000  H
  C499     1.0000 0.88020  0.75808  0.72179  Biso   1.000  C
  H568     1.0000 0.93010  0.69698  0.82698  Biso   1.000  H
  H569     1.0000 0.92982  0.67622  0.76781  Biso   1.000  H
  C500     1.0000 0.88020  0.74192  0.77821  Biso   1.000  C
  H570     1.0000 0.22979  0.80302  0.01681  Biso   1.000  H
  C501     1.0000 0.29189  0.78981  0.06970  Biso   1.000  C
  H571     1.0000 0.19698  0.67302  0.06990  Biso   1.000  H
  H572     1.0000 0.17622  0.73219  0.07018  Biso   1.000  H
  C502     1.0000 0.24192  0.72179  0.11980  Biso   1.000  C
  H573     1.0000 0.32698  0.06990  0.80302  Biso   1.000  H
  H574     1.0000 0.26781  0.07018  0.82378  Biso   1.000  H
  C503     1.0000 0.27821  0.11980  0.75808  Biso   1.000  C
  H575     1.0000 0.21399  0.15169  0.72119  Biso   1.000  H
  H576     1.0000 0.19910  0.12000  0.77341  Biso   1.000  H
  H577     1.0000 0.84831  0.77881  0.71399  Biso   1.000  H
  H578     1.0000 0.88000  0.72659  0.69910  Biso   1.000  H
  H579     1.0000 0.84831  0.72119  0.78601  Biso   1.000  H
  H580     1.0000 0.88000  0.77341  0.80090  Biso   1.000  H
  H581     1.0000 0.30302  0.82698  0.06990  Biso   1.000  H
  H582     1.0000 0.32378  0.76781  0.07018  Biso   1.000  H
  C504     1.0000 0.25808  0.77821  0.11980  Biso   1.000  C
  H583     1.0000 0.22119  0.71399  0.15169  Biso   1.000  H
  H584     1.0000 0.27341  0.69910  0.12000  Biso   1.000  H
  H585     1.0000 0.28601  0.15169  0.77881  Biso   1.000  H
  H586     1.0000 0.30090  0.12000  0.72659  Biso   1.000  H
  H587     1.0000 0.27881  0.78601  0.15169  Biso   1.000  H
  H588     1.0000 0.22659  0.80090  0.12000  Biso   1.000  H
