data_image0
_cell_length_a       24.933
_cell_length_b       24.933
_cell_length_c       24.933
_cell_angle_alpha    90
_cell_angle_beta     90
_cell_angle_gamma    90

_symmetry_space_group_name_H-M    "P 1"
_symmetry_int_tables_number       1

loop_
  _symmetry_equiv_pos_as_xyz
  'x, y, z'

loop_
  _atom_site_label
  _atom_site_occupancy
  _atom_site_fract_x
  _atom_site_fract_y
  _atom_site_fract_z
  _atom_site_thermal_displace_type
  _atom_site_B_iso_or_equiv
  _atom_site_type_symbol
  C1       1.0000 0.50660  0.36959  0.47198  Biso   1.000  C
  C2       1.0000 0.54269  0.31990  0.46071  Biso   1.000  C
  C3       1.0000 0.49340  0.36959  0.52802  Biso   1.000  C
  H1       1.0000 0.52549  0.40232  0.46268  Biso   1.000  H
  H2       1.0000 0.47411  0.36771  0.45069  Biso   1.000  H
  C4       1.0000 0.50969  0.26852  0.47130  Biso   1.000  C
  H3       1.0000 0.55481  0.32042  0.42370  Biso   1.000  H
  H4       1.0000 0.57390  0.32062  0.48390  Biso   1.000  H
  C5       1.0000 0.45731  0.31990  0.53929  Biso   1.000  C
  H5       1.0000 0.47451  0.40232  0.53732  Biso   1.000  H
  H6       1.0000 0.52589  0.36771  0.54931  Biso   1.000  H
  N1       1.0000 0.54462  0.22252  0.46360  Biso   1.000  N
  C6       1.0000 0.49031  0.26852  0.52870  Biso   1.000  C
  H7       1.0000 0.47920  0.26659  0.44660  Biso   1.000  H
  H8       1.0000 0.44519  0.32042  0.57630  Biso   1.000  H
  H9       1.0000 0.42610  0.32062  0.51610  Biso   1.000  H
  C7       1.0000 0.53271  0.18851  0.42891  Biso   1.000  C
  N2       1.0000 0.45538  0.22252  0.53640  Biso   1.000  N
  H10      1.0000 0.52080  0.26659  0.55340  Biso   1.000  H
  C8       1.0000 0.56600  0.14178  0.41551  Biso   1.000  C
  H11      1.0000 0.50058  0.19300  0.41042  Biso   1.000  H
  C9       1.0000 0.46729  0.18851  0.57109  Biso   1.000  C
  C10      1.0000 0.55380  0.11010  0.37200  Biso   1.000  C
  C11      1.0000 0.61012  0.12798  0.44620  Biso   1.000  C
  C12      1.0000 0.43400  0.14178  0.58449  Biso   1.000  C
  H12      1.0000 0.49942  0.19300  0.58958  Biso   1.000  H
  H13      1.0000 0.52400  0.11860  0.35118  Biso   1.000  H
  C13      1.0000 0.58449  0.06602  0.35820  Biso   1.000  C
  H14      1.0000 0.61862  0.14880  0.47600  Biso   1.000  H
  C14      1.0000 0.64180  0.08451  0.43400  Biso   1.000  C
  C15      1.0000 0.38988  0.12798  0.55380  Biso   1.000  C
  C16      1.0000 0.44620  0.11010  0.62800  Biso   1.000  C
  C17      1.0000 0.62800  0.05378  0.38988  Biso   1.000  C
  C18      1.0000 0.57109  0.03269  0.31151  Biso   1.000  C
  C19      1.0000 0.68849  0.07111  0.46729  Biso   1.000  C
  H15      1.0000 0.38138  0.14880  0.52400  Biso   1.000  H
  C20      1.0000 0.35820  0.08451  0.56600  Biso   1.000  C
  H16      1.0000 0.47600  0.11860  0.64882  Biso   1.000  H
  C21      1.0000 0.41551  0.06602  0.64180  Biso   1.000  C
  H17      1.0000 0.64882  0.02398  0.38138  Biso   1.000  H
  N3       1.0000 0.53640  0.04460  0.27750  Biso   1.000  N
  H18      1.0000 0.58958  0.00060  0.30698  Biso   1.000  H
  N4       1.0000 0.72250  0.03642  0.45538  Biso   1.000  N
  H19      1.0000 0.69302  0.08960  0.49942  Biso   1.000  H
  C22      1.0000 0.37200  0.05378  0.61012  Biso   1.000  C
  C23      1.0000 0.31151  0.07111  0.53271  Biso   1.000  C
  C24      1.0000 0.42891  0.03269  0.68849  Biso   1.000  C
  C25      1.0000 0.52870  0.00971  0.23150  Biso   1.000  C
  C26      1.0000 0.76850  0.02868  0.49031  Biso   1.000  C
  H20      1.0000 0.35118  0.02398  0.61862  Biso   1.000  H
  N5       1.0000 0.27750  0.03642  0.54462  Biso   1.000  N
  H21      1.0000 0.30698  0.08960  0.50058  Biso   1.000  H
  N6       1.0000 0.46360  0.04460  0.72250  Biso   1.000  N
  H22      1.0000 0.41042  0.00060  0.69302  Biso   1.000  H
  C27      1.0000 0.53929  0.04271  0.18008  Biso   1.000  C
  C28      1.0000 0.47130  0.99029  0.23150  Biso   1.000  C
  H23      1.0000 0.55340  0.97918  0.23339  Biso   1.000  H
  H24      1.0000 0.76661  0.05338  0.52080  Biso   1.000  H
  C29      1.0000 0.81992  0.03931  0.45731  Biso   1.000  C
  C30      1.0000 0.76850  0.97132  0.50969  Biso   1.000  C
  C31      1.0000 0.23150  0.02868  0.50969  Biso   1.000  C
  C32      1.0000 0.47130  0.00971  0.76850  Biso   1.000  C
  H25      1.0000 0.57630  0.05479  0.17960  Biso   1.000  H
  H26      1.0000 0.51610  0.07392  0.17940  Biso   1.000  H
  C33      1.0000 0.52802  0.00662  0.13039  Biso   1.000  C
  H27      1.0000 0.44660  0.02082  0.23339  Biso   1.000  H
  N7       1.0000 0.46360  0.95540  0.27750  Biso   1.000  N
  C34      1.0000 0.46071  0.95729  0.18008  Biso   1.000  C
  H28      1.0000 0.82040  0.07628  0.44519  Biso   1.000  H
  H29      1.0000 0.82060  0.01608  0.42610  Biso   1.000  H
  C35      1.0000 0.86961  0.02800  0.49340  Biso   1.000  C
  N8       1.0000 0.72250  0.96358  0.54462  Biso   1.000  N
  H30      1.0000 0.76661  0.94662  0.47920  Biso   1.000  H
  C36      1.0000 0.81992  0.96069  0.54269  Biso   1.000  C
  H31      1.0000 0.23339  0.05338  0.47920  Biso   1.000  H
  C37      1.0000 0.18008  0.03931  0.54269  Biso   1.000  C
  C38      1.0000 0.23150  0.97132  0.49031  Biso   1.000  C
  C39      1.0000 0.46071  0.04271  0.81992  Biso   1.000  C
  C40      1.0000 0.52870  0.99029  0.76850  Biso   1.000  C
  H32      1.0000 0.44660  0.97918  0.76661  Biso   1.000  H
  H33      1.0000 0.53732  0.02551  0.09770  Biso   1.000  H
  C41      1.0000 0.47198  0.99338  0.13039  Biso   1.000  C
  H34      1.0000 0.54931  0.97409  0.13231  Biso   1.000  H
  C42      1.0000 0.42891  0.96731  0.31151  Biso   1.000  C
  H35      1.0000 0.42370  0.94521  0.17960  Biso   1.000  H
  H36      1.0000 0.48390  0.92608  0.17940  Biso   1.000  H
  H37      1.0000 0.90230  0.03730  0.47451  Biso   1.000  H
  H38      1.0000 0.86769  0.04929  0.52589  Biso   1.000  H
  C43      1.0000 0.86961  0.97200  0.50660  Biso   1.000  C
  C44      1.0000 0.68849  0.92889  0.53271  Biso   1.000  C
  H39      1.0000 0.82040  0.92372  0.55481  Biso   1.000  H
  H40      1.0000 0.82060  0.98392  0.57390  Biso   1.000  H
  H41      1.0000 0.17960  0.07628  0.55481  Biso   1.000  H
  H42      1.0000 0.17940  0.01608  0.57390  Biso   1.000  H
  C45      1.0000 0.13039  0.02800  0.50660  Biso   1.000  C
  N9       1.0000 0.27750  0.96358  0.45538  Biso   1.000  N
  H43      1.0000 0.23339  0.94662  0.52080  Biso   1.000  H
  C46      1.0000 0.18008  0.96069  0.45731  Biso   1.000  C
  H44      1.0000 0.42370  0.05479  0.82040  Biso   1.000  H
  H45      1.0000 0.48390  0.07392  0.82060  Biso   1.000  H
  C47      1.0000 0.47198  0.00662  0.86961  Biso   1.000  C
  H46      1.0000 0.55340  0.02082  0.76661  Biso   1.000  H
  N10      1.0000 0.53640  0.95540  0.72250  Biso   1.000  N
  C48      1.0000 0.53929  0.95729  0.81992  Biso   1.000  C
  H47      1.0000 0.45069  0.02591  0.13231  Biso   1.000  H
  H48      1.0000 0.46268  0.97449  0.09770  Biso   1.000  H
  C49      1.0000 0.41551  0.93398  0.35820  Biso   1.000  C
  H49      1.0000 0.41042  0.99940  0.30698  Biso   1.000  H
  H50      1.0000 0.90230  0.96270  0.52549  Biso   1.000  H
  H51      1.0000 0.86769  0.95071  0.47411  Biso   1.000  H
  C50      1.0000 0.64180  0.91549  0.56600  Biso   1.000  C
  H52      1.0000 0.69302  0.91040  0.50058  Biso   1.000  H
  H53      1.0000 0.09770  0.03730  0.52549  Biso   1.000  H
  H54      1.0000 0.13231  0.04929  0.47411  Biso   1.000  H
  C51      1.0000 0.13039  0.97200  0.49340  Biso   1.000  C
  C52      1.0000 0.31151  0.92889  0.46729  Biso   1.000  C
  H55      1.0000 0.17960  0.92372  0.44519  Biso   1.000  H
  H56      1.0000 0.17940  0.98392  0.42610  Biso   1.000  H
  H57      1.0000 0.46268  0.02551  0.90230  Biso   1.000  H
  C53      1.0000 0.52802  0.99338  0.86961  Biso   1.000  C
  H58      1.0000 0.45069  0.97409  0.86769  Biso   1.000  H
  C54      1.0000 0.57109  0.96731  0.68849  Biso   1.000  C
  H59      1.0000 0.57630  0.94521  0.82040  Biso   1.000  H
  H60      1.0000 0.51610  0.92608  0.82060  Biso   1.000  H
  C55      1.0000 0.44620  0.88990  0.37200  Biso   1.000  C
  C56      1.0000 0.37200  0.94622  0.38988  Biso   1.000  C
  C57      1.0000 0.61012  0.87202  0.55380  Biso   1.000  C
  C58      1.0000 0.62800  0.94622  0.61012  Biso   1.000  C
  H61      1.0000 0.09770  0.96270  0.47451  Biso   1.000  H
  H62      1.0000 0.13231  0.95071  0.52589  Biso   1.000  H
  C59      1.0000 0.35820  0.91549  0.43400  Biso   1.000  C
  H63      1.0000 0.30698  0.91040  0.49942  Biso   1.000  H
  H64      1.0000 0.54931  0.02591  0.86769  Biso   1.000  H
  H65      1.0000 0.53732  0.97449  0.90230  Biso   1.000  H
  C60      1.0000 0.58449  0.93398  0.64180  Biso   1.000  C
  H66      1.0000 0.58958  0.99940  0.69302  Biso   1.000  H
  H67      1.0000 0.47600  0.88140  0.35118  Biso   1.000  H
  C61      1.0000 0.43400  0.85822  0.41551  Biso   1.000  C
  H68      1.0000 0.35118  0.97602  0.38138  Biso   1.000  H
  H69      1.0000 0.61862  0.85120  0.52400  Biso   1.000  H
  C62      1.0000 0.56600  0.85822  0.58449  Biso   1.000  C
  H70      1.0000 0.64882  0.97602  0.61862  Biso   1.000  H
  C63      1.0000 0.38988  0.87202  0.44620  Biso   1.000  C
  C64      1.0000 0.55380  0.88990  0.62800  Biso   1.000  C
  C65      1.0000 0.46729  0.81149  0.42891  Biso   1.000  C
  C66      1.0000 0.53271  0.81149  0.57109  Biso   1.000  C
  H71      1.0000 0.38138  0.85120  0.47600  Biso   1.000  H
  H72      1.0000 0.52400  0.88140  0.64882  Biso   1.000  H
  N11      1.0000 0.45538  0.77748  0.46360  Biso   1.000  N
  H73      1.0000 0.49942  0.80700  0.41042  Biso   1.000  H
  N12      1.0000 0.54462  0.77748  0.53640  Biso   1.000  N
  H74      1.0000 0.50058  0.80700  0.58958  Biso   1.000  H
  C67      1.0000 0.49031  0.73148  0.47130  Biso   1.000  C
  C68      1.0000 0.50969  0.73148  0.52870  Biso   1.000  C
  H75      1.0000 0.52080  0.73341  0.44660  Biso   1.000  H
  C69      1.0000 0.45731  0.68010  0.46071  Biso   1.000  C
  H76      1.0000 0.47920  0.73341  0.55340  Biso   1.000  H
  C70      1.0000 0.54269  0.68010  0.53929  Biso   1.000  C
  H77      1.0000 0.44519  0.67958  0.42370  Biso   1.000  H
  H78      1.0000 0.42610  0.67938  0.48390  Biso   1.000  H
  C71      1.0000 0.49340  0.63041  0.47198  Biso   1.000  C
  H79      1.0000 0.55481  0.67958  0.57630  Biso   1.000  H
  H80      1.0000 0.57390  0.67938  0.51610  Biso   1.000  H
  C72      1.0000 0.50660  0.63041  0.52802  Biso   1.000  C
  H81      1.0000 0.47451  0.59768  0.46268  Biso   1.000  H
  H82      1.0000 0.52589  0.63229  0.45069  Biso   1.000  H
  H83      1.0000 0.52549  0.59768  0.53732  Biso   1.000  H
  H84      1.0000 0.47411  0.63229  0.54931  Biso   1.000  H
  C73      1.0000 0.47198  0.50660  0.36959  Biso   1.000  C
  C74      1.0000 0.46071  0.54269  0.31990  Biso   1.000  C
  C75      1.0000 0.52802  0.49340  0.36959  Biso   1.000  C
  H85      1.0000 0.46268  0.52549  0.40232  Biso   1.000  H
  H86      1.0000 0.45069  0.47411  0.36771  Biso   1.000  H
  C76      1.0000 0.47130  0.50969  0.26852  Biso   1.000  C
  H87      1.0000 0.42370  0.55481  0.32042  Biso   1.000  H
  H88      1.0000 0.48390  0.57390  0.32062  Biso   1.000  H
  C77      1.0000 0.53929  0.45731  0.31990  Biso   1.000  C
  H89      1.0000 0.53732  0.47451  0.40232  Biso   1.000  H
  H90      1.0000 0.54931  0.52589  0.36771  Biso   1.000  H
  C78      1.0000 0.52870  0.49031  0.26852  Biso   1.000  C
  N13      1.0000 0.46360  0.54462  0.22252  Biso   1.000  N
  H91      1.0000 0.44660  0.47920  0.26659  Biso   1.000  H
  H92      1.0000 0.57630  0.44519  0.32042  Biso   1.000  H
  H93      1.0000 0.51610  0.42610  0.32062  Biso   1.000  H
  N14      1.0000 0.53640  0.45538  0.22252  Biso   1.000  N
  H94      1.0000 0.55340  0.52080  0.26659  Biso   1.000  H
  C79      1.0000 0.42891  0.53271  0.18851  Biso   1.000  C
  C80      1.0000 0.57109  0.46729  0.18851  Biso   1.000  C
  C81      1.0000 0.41551  0.56600  0.14178  Biso   1.000  C
  H95      1.0000 0.41042  0.50058  0.19300  Biso   1.000  H
  C82      1.0000 0.58449  0.43400  0.14178  Biso   1.000  C
  H96      1.0000 0.58958  0.49942  0.19300  Biso   1.000  H
  C83      1.0000 0.37200  0.55380  0.11010  Biso   1.000  C
  C84      1.0000 0.44620  0.61012  0.12798  Biso   1.000  C
  C85      1.0000 0.55380  0.38988  0.12798  Biso   1.000  C
  C86      1.0000 0.62800  0.44620  0.11010  Biso   1.000  C
  H97      1.0000 0.35118  0.52400  0.11860  Biso   1.000  H
  C87      1.0000 0.35820  0.58449  0.06602  Biso   1.000  C
  H98      1.0000 0.47600  0.61862  0.14880  Biso   1.000  H
  C88      1.0000 0.43400  0.64180  0.08451  Biso   1.000  C
  C89      1.0000 0.56600  0.35820  0.08451  Biso   1.000  C
  H99      1.0000 0.52400  0.38138  0.14880  Biso   1.000  H
  C90      1.0000 0.64180  0.41551  0.06602  Biso   1.000  C
  H100     1.0000 0.64882  0.47600  0.11860  Biso   1.000  H
  C91      1.0000 0.38988  0.62800  0.05378  Biso   1.000  C
  C92      1.0000 0.31151  0.57109  0.03269  Biso   1.000  C
  C93      1.0000 0.46729  0.68849  0.07111  Biso   1.000  C
  C94      1.0000 0.53271  0.31151  0.07111  Biso   1.000  C
  C95      1.0000 0.61012  0.37200  0.05378  Biso   1.000  C
  C96      1.0000 0.68849  0.42891  0.03269  Biso   1.000  C
  H101     1.0000 0.38138  0.64882  0.02398  Biso   1.000  H
  N15      1.0000 0.27750  0.53640  0.04460  Biso   1.000  N
  H102     1.0000 0.30698  0.58958  0.00060  Biso   1.000  H
  N16      1.0000 0.45538  0.72250  0.03642  Biso   1.000  N
  H103     1.0000 0.49942  0.69302  0.08960  Biso   1.000  H
  N17      1.0000 0.54462  0.27750  0.03642  Biso   1.000  N
  H104     1.0000 0.50058  0.30698  0.08960  Biso   1.000  H
  H105     1.0000 0.61862  0.35118  0.02398  Biso   1.000  H
  N18      1.0000 0.72250  0.46360  0.04460  Biso   1.000  N
  H106     1.0000 0.69302  0.41042  0.00060  Biso   1.000  H
  C97      1.0000 0.23150  0.52870  0.00971  Biso   1.000  C
  C98      1.0000 0.49031  0.76850  0.02868  Biso   1.000  C
  C99      1.0000 0.50969  0.23150  0.02868  Biso   1.000  C
  C100     1.0000 0.76850  0.47130  0.00971  Biso   1.000  C
  C101     1.0000 0.23150  0.47130  0.99029  Biso   1.000  C
  C102     1.0000 0.18008  0.53929  0.04271  Biso   1.000  C
  H107     1.0000 0.23339  0.55340  0.97918  Biso   1.000  H
  C103     1.0000 0.50969  0.76850  0.97132  Biso   1.000  C
  H108     1.0000 0.52080  0.76661  0.05338  Biso   1.000  H
  C104     1.0000 0.45731  0.81992  0.03931  Biso   1.000  C
  H109     1.0000 0.47920  0.23339  0.05338  Biso   1.000  H
  C105     1.0000 0.54269  0.18008  0.03931  Biso   1.000  C
  C106     1.0000 0.49031  0.23150  0.97132  Biso   1.000  C
  C107     1.0000 0.81992  0.46071  0.04271  Biso   1.000  C
  C108     1.0000 0.76850  0.52870  0.99029  Biso   1.000  C
  H110     1.0000 0.76661  0.44660  0.97918  Biso   1.000  H
  N19      1.0000 0.27750  0.46360  0.95540  Biso   1.000  N
  H111     1.0000 0.23339  0.44660  0.02082  Biso   1.000  H
  C109     1.0000 0.18008  0.46071  0.95729  Biso   1.000  C
  H112     1.0000 0.17960  0.57630  0.05479  Biso   1.000  H
  H113     1.0000 0.17940  0.51610  0.07392  Biso   1.000  H
  C110     1.0000 0.13039  0.52802  0.00662  Biso   1.000  C
  N20      1.0000 0.54462  0.72250  0.96358  Biso   1.000  N
  H114     1.0000 0.47920  0.76661  0.94662  Biso   1.000  H
  C111     1.0000 0.54269  0.81992  0.96069  Biso   1.000  C
  H115     1.0000 0.44519  0.82040  0.07628  Biso   1.000  H
  H116     1.0000 0.42610  0.82060  0.01608  Biso   1.000  H
  C112     1.0000 0.49340  0.86961  0.02800  Biso   1.000  C
  H117     1.0000 0.55481  0.17960  0.07628  Biso   1.000  H
  H118     1.0000 0.57390  0.17940  0.01608  Biso   1.000  H
  C113     1.0000 0.50660  0.13039  0.02800  Biso   1.000  C
  N21      1.0000 0.45538  0.27750  0.96358  Biso   1.000  N
  H119     1.0000 0.52080  0.23339  0.94662  Biso   1.000  H
  C114     1.0000 0.45731  0.18008  0.96069  Biso   1.000  C
  H120     1.0000 0.82040  0.42370  0.05479  Biso   1.000  H
  H121     1.0000 0.82060  0.48390  0.07392  Biso   1.000  H
  C115     1.0000 0.86961  0.47198  0.00662  Biso   1.000  C
  H122     1.0000 0.76661  0.55340  0.02082  Biso   1.000  H
  N22      1.0000 0.72250  0.53640  0.95540  Biso   1.000  N
  C116     1.0000 0.81992  0.53929  0.95729  Biso   1.000  C
  C117     1.0000 0.31151  0.42891  0.96731  Biso   1.000  C
  H123     1.0000 0.17960  0.42370  0.94521  Biso   1.000  H
  H124     1.0000 0.17940  0.48390  0.92608  Biso   1.000  H
  C118     1.0000 0.13039  0.47198  0.99338  Biso   1.000  C
  H125     1.0000 0.09770  0.53732  0.02551  Biso   1.000  H
  H126     1.0000 0.13231  0.54931  0.97409  Biso   1.000  H
  C119     1.0000 0.53271  0.68849  0.92889  Biso   1.000  C
  H127     1.0000 0.55481  0.82040  0.92372  Biso   1.000  H
  H128     1.0000 0.57390  0.82060  0.98392  Biso   1.000  H
  C120     1.0000 0.50660  0.86961  0.97200  Biso   1.000  C
  H129     1.0000 0.47451  0.90230  0.03730  Biso   1.000  H
  H130     1.0000 0.52589  0.86769  0.04929  Biso   1.000  H
  H131     1.0000 0.52549  0.09770  0.03730  Biso   1.000  H
  H132     1.0000 0.47411  0.13231  0.04929  Biso   1.000  H
  C121     1.0000 0.49340  0.13039  0.97200  Biso   1.000  C
  C122     1.0000 0.46729  0.31151  0.92889  Biso   1.000  C
  H133     1.0000 0.44519  0.17960  0.92372  Biso   1.000  H
  H134     1.0000 0.42610  0.17940  0.98392  Biso   1.000  H
  H135     1.0000 0.90230  0.46268  0.02551  Biso   1.000  H
  C123     1.0000 0.86961  0.52802  0.99338  Biso   1.000  C
  H136     1.0000 0.86769  0.45069  0.97409  Biso   1.000  H
  C124     1.0000 0.68849  0.57109  0.96731  Biso   1.000  C
  H137     1.0000 0.82040  0.57630  0.94521  Biso   1.000  H
  H138     1.0000 0.82060  0.51610  0.92608  Biso   1.000  H
  C125     1.0000 0.35820  0.41551  0.93398  Biso   1.000  C
  H139     1.0000 0.30698  0.41042  0.99940  Biso   1.000  H
  H140     1.0000 0.13231  0.45069  0.02591  Biso   1.000  H
  H141     1.0000 0.09770  0.46268  0.97449  Biso   1.000  H
  C126     1.0000 0.56600  0.64180  0.91549  Biso   1.000  C
  H142     1.0000 0.50058  0.69302  0.91040  Biso   1.000  H
  H143     1.0000 0.52549  0.90230  0.96270  Biso   1.000  H
  H144     1.0000 0.47411  0.86769  0.95071  Biso   1.000  H
  H145     1.0000 0.47451  0.09770  0.96270  Biso   1.000  H
  H146     1.0000 0.52589  0.13231  0.95071  Biso   1.000  H
  C127     1.0000 0.43400  0.35820  0.91549  Biso   1.000  C
  H147     1.0000 0.49942  0.30698  0.91040  Biso   1.000  H
  H148     1.0000 0.86769  0.54931  0.02591  Biso   1.000  H
  H149     1.0000 0.90230  0.53732  0.97449  Biso   1.000  H
  C128     1.0000 0.64180  0.58449  0.93398  Biso   1.000  C
  H150     1.0000 0.69302  0.58958  0.99940  Biso   1.000  H
  C129     1.0000 0.38988  0.37200  0.94622  Biso   1.000  C
  C130     1.0000 0.37200  0.44620  0.88990  Biso   1.000  C
  C131     1.0000 0.61012  0.62800  0.94622  Biso   1.000  C
  C132     1.0000 0.55380  0.61012  0.87202  Biso   1.000  C
  C133     1.0000 0.44620  0.38988  0.87202  Biso   1.000  C
  C134     1.0000 0.62800  0.55380  0.88990  Biso   1.000  C
  H151     1.0000 0.38138  0.35118  0.97602  Biso   1.000  H
  C135     1.0000 0.41551  0.43400  0.85822  Biso   1.000  C
  H152     1.0000 0.35118  0.47600  0.88140  Biso   1.000  H
  H153     1.0000 0.61862  0.64882  0.97602  Biso   1.000  H
  C136     1.0000 0.58449  0.56600  0.85822  Biso   1.000  C
  H154     1.0000 0.52400  0.61862  0.85120  Biso   1.000  H
  H155     1.0000 0.47600  0.38138  0.85120  Biso   1.000  H
  H156     1.0000 0.64882  0.52400  0.88140  Biso   1.000  H
  C137     1.0000 0.42891  0.46729  0.81149  Biso   1.000  C
  C138     1.0000 0.57109  0.53271  0.81149  Biso   1.000  C
  N23      1.0000 0.46360  0.45538  0.77748  Biso   1.000  N
  H157     1.0000 0.41042  0.49942  0.80700  Biso   1.000  H
  N24      1.0000 0.53640  0.54462  0.77748  Biso   1.000  N
  H158     1.0000 0.58958  0.50058  0.80700  Biso   1.000  H
  C139     1.0000 0.47130  0.49031  0.73148  Biso   1.000  C
  C140     1.0000 0.52870  0.50969  0.73148  Biso   1.000  C
  H159     1.0000 0.44660  0.52080  0.73341  Biso   1.000  H
  C141     1.0000 0.46071  0.45731  0.68010  Biso   1.000  C
  H160     1.0000 0.55340  0.47920  0.73341  Biso   1.000  H
  C142     1.0000 0.53929  0.54269  0.68010  Biso   1.000  C
  H161     1.0000 0.42370  0.44519  0.67958  Biso   1.000  H
  H162     1.0000 0.48390  0.42610  0.67938  Biso   1.000  H
  C143     1.0000 0.47198  0.49340  0.63041  Biso   1.000  C
  H163     1.0000 0.57630  0.55481  0.67958  Biso   1.000  H
  H164     1.0000 0.51610  0.57390  0.67938  Biso   1.000  H
  C144     1.0000 0.52802  0.50660  0.63041  Biso   1.000  C
  H165     1.0000 0.46268  0.47451  0.59768  Biso   1.000  H
  H166     1.0000 0.45069  0.52589  0.63229  Biso   1.000  H
  H167     1.0000 0.53732  0.52549  0.59768  Biso   1.000  H
  H168     1.0000 0.54931  0.47411  0.63229  Biso   1.000  H
  C145     1.0000 0.36959  0.47198  0.50660  Biso   1.000  C
  C146     1.0000 0.31990  0.46071  0.54269  Biso   1.000  C
  C147     1.0000 0.36959  0.52802  0.49340  Biso   1.000  C
  H169     1.0000 0.40232  0.46268  0.52549  Biso   1.000  H
  H170     1.0000 0.36771  0.45069  0.47411  Biso   1.000  H
  C148     1.0000 0.26852  0.47130  0.50969  Biso   1.000  C
  H171     1.0000 0.32042  0.42370  0.55481  Biso   1.000  H
  H172     1.0000 0.32062  0.48390  0.57390  Biso   1.000  H
  C149     1.0000 0.31990  0.53929  0.45731  Biso   1.000  C
  H173     1.0000 0.40232  0.53732  0.47451  Biso   1.000  H
  H174     1.0000 0.36771  0.54931  0.52589  Biso   1.000  H
  N25      1.0000 0.22252  0.46360  0.54462  Biso   1.000  N
  C150     1.0000 0.26852  0.52870  0.49031  Biso   1.000  C
  H175     1.0000 0.26659  0.44660  0.47920  Biso   1.000  H
  H176     1.0000 0.32042  0.57630  0.44519  Biso   1.000  H
  H177     1.0000 0.32062  0.51610  0.42610  Biso   1.000  H
  C151     1.0000 0.18851  0.42891  0.53271  Biso   1.000  C
  N26      1.0000 0.22252  0.53640  0.45538  Biso   1.000  N
  H178     1.0000 0.26659  0.55340  0.52080  Biso   1.000  H
  C152     1.0000 0.14178  0.41551  0.56600  Biso   1.000  C
  H179     1.0000 0.19300  0.41042  0.50058  Biso   1.000  H
  C153     1.0000 0.18851  0.57109  0.46729  Biso   1.000  C
  C154     1.0000 0.12798  0.44620  0.61012  Biso   1.000  C
  C155     1.0000 0.11010  0.37200  0.55380  Biso   1.000  C
  C156     1.0000 0.14178  0.58449  0.43400  Biso   1.000  C
  H180     1.0000 0.19300  0.58958  0.49942  Biso   1.000  H
  H181     1.0000 0.14880  0.47600  0.61862  Biso   1.000  H
  C157     1.0000 0.08451  0.43400  0.64180  Biso   1.000  C
  H182     1.0000 0.11860  0.35118  0.52400  Biso   1.000  H
  C158     1.0000 0.06602  0.35820  0.58449  Biso   1.000  C
  C159     1.0000 0.11010  0.62800  0.44620  Biso   1.000  C
  C160     1.0000 0.12798  0.55380  0.38988  Biso   1.000  C
  C161     1.0000 0.05378  0.38988  0.62800  Biso   1.000  C
  C162     1.0000 0.07111  0.46729  0.68849  Biso   1.000  C
  C163     1.0000 0.03269  0.31151  0.57109  Biso   1.000  C
  H183     1.0000 0.11860  0.64882  0.47600  Biso   1.000  H
  C164     1.0000 0.06602  0.64180  0.41551  Biso   1.000  C
  H184     1.0000 0.14880  0.52400  0.38138  Biso   1.000  H
  C165     1.0000 0.08451  0.56600  0.35820  Biso   1.000  C
  H185     1.0000 0.02398  0.38138  0.64882  Biso   1.000  H
  N27      1.0000 0.03642  0.45538  0.72250  Biso   1.000  N
  H186     1.0000 0.08960  0.49942  0.69302  Biso   1.000  H
  N28      1.0000 0.04460  0.27750  0.53640  Biso   1.000  N
  H187     1.0000 0.00060  0.30698  0.58958  Biso   1.000  H
  C166     1.0000 0.05378  0.61012  0.37200  Biso   1.000  C
  C167     1.0000 0.03269  0.68849  0.42891  Biso   1.000  C
  C168     1.0000 0.07111  0.53271  0.31151  Biso   1.000  C
  C169     1.0000 0.02868  0.49031  0.76850  Biso   1.000  C
  C170     1.0000 0.00971  0.23150  0.52870  Biso   1.000  C
  H188     1.0000 0.02398  0.61862  0.35118  Biso   1.000  H
  N29      1.0000 0.04460  0.72250  0.46360  Biso   1.000  N
  H189     1.0000 0.00060  0.69302  0.41042  Biso   1.000  H
  N30      1.0000 0.03642  0.54462  0.27750  Biso   1.000  N
  H190     1.0000 0.08960  0.50058  0.30698  Biso   1.000  H
  H191     1.0000 0.05338  0.52080  0.76661  Biso   1.000  H
  C171     1.0000 0.03931  0.45731  0.81992  Biso   1.000  C
  C172     1.0000 0.97132  0.50969  0.76850  Biso   1.000  C
  C173     1.0000 0.04271  0.18008  0.53929  Biso   1.000  C
  C174     1.0000 0.99029  0.23150  0.47130  Biso   1.000  C
  H192     1.0000 0.97918  0.23339  0.55340  Biso   1.000  H
  C175     1.0000 0.00971  0.76850  0.47130  Biso   1.000  C
  C176     1.0000 0.02868  0.50969  0.23150  Biso   1.000  C
  H193     1.0000 0.07628  0.44519  0.82040  Biso   1.000  H
  H194     1.0000 0.01608  0.42610  0.82060  Biso   1.000  H
  C177     1.0000 0.02800  0.49340  0.86961  Biso   1.000  C
  N31      1.0000 0.96358  0.54462  0.72250  Biso   1.000  N
  H195     1.0000 0.94662  0.47920  0.76661  Biso   1.000  H
  C178     1.0000 0.96069  0.54269  0.81992  Biso   1.000  C
  H196     1.0000 0.05479  0.17960  0.57630  Biso   1.000  H
  H197     1.0000 0.07392  0.17940  0.51610  Biso   1.000  H
  C179     1.0000 0.00662  0.13039  0.52802  Biso   1.000  C
  H198     1.0000 0.02082  0.23339  0.44660  Biso   1.000  H
  N32      1.0000 0.95540  0.27750  0.46360  Biso   1.000  N
  C180     1.0000 0.95729  0.18008  0.46071  Biso   1.000  C
  C181     1.0000 0.04271  0.81992  0.46071  Biso   1.000  C
  C182     1.0000 0.99029  0.76850  0.52870  Biso   1.000  C
  H199     1.0000 0.97918  0.76661  0.44660  Biso   1.000  H
  H200     1.0000 0.05338  0.47920  0.23339  Biso   1.000  H
  C183     1.0000 0.03931  0.54269  0.18008  Biso   1.000  C
  C184     1.0000 0.97132  0.49031  0.23150  Biso   1.000  C
  H201     1.0000 0.03730  0.47451  0.90230  Biso   1.000  H
  H202     1.0000 0.04929  0.52589  0.86769  Biso   1.000  H
  C185     1.0000 0.97200  0.50660  0.86961  Biso   1.000  C
  C186     1.0000 0.92889  0.53271  0.68849  Biso   1.000  C
  H203     1.0000 0.92372  0.55481  0.82040  Biso   1.000  H
  H204     1.0000 0.98392  0.57390  0.82060  Biso   1.000  H
  H205     1.0000 0.02551  0.09770  0.53732  Biso   1.000  H
  C187     1.0000 0.99338  0.13039  0.47198  Biso   1.000  C
  H206     1.0000 0.97409  0.13231  0.54931  Biso   1.000  H
  C188     1.0000 0.96731  0.31151  0.42891  Biso   1.000  C
  H207     1.0000 0.94521  0.17960  0.42370  Biso   1.000  H
  H208     1.0000 0.92608  0.17940  0.48390  Biso   1.000  H
  H209     1.0000 0.05479  0.82040  0.42370  Biso   1.000  H
  H210     1.0000 0.07392  0.82060  0.48390  Biso   1.000  H
  C189     1.0000 0.00662  0.86961  0.47198  Biso   1.000  C
  H211     1.0000 0.02082  0.76661  0.55340  Biso   1.000  H
  N33      1.0000 0.95540  0.72250  0.53640  Biso   1.000  N
  C190     1.0000 0.95729  0.81992  0.53929  Biso   1.000  C
  H212     1.0000 0.07628  0.55481  0.17960  Biso   1.000  H
  H213     1.0000 0.01608  0.57390  0.17940  Biso   1.000  H
  C191     1.0000 0.02800  0.50660  0.13039  Biso   1.000  C
  N34      1.0000 0.96358  0.45538  0.27750  Biso   1.000  N
  H214     1.0000 0.94662  0.52080  0.23339  Biso   1.000  H
  C192     1.0000 0.96069  0.45731  0.18008  Biso   1.000  C
  H215     1.0000 0.96270  0.52549  0.90230  Biso   1.000  H
  H216     1.0000 0.95071  0.47411  0.86769  Biso   1.000  H
  C193     1.0000 0.91549  0.56600  0.64180  Biso   1.000  C
  H217     1.0000 0.91040  0.50058  0.69302  Biso   1.000  H
  H218     1.0000 0.02591  0.13231  0.45069  Biso   1.000  H
  H219     1.0000 0.97449  0.09770  0.46268  Biso   1.000  H
  C194     1.0000 0.93398  0.35820  0.41551  Biso   1.000  C
  H220     1.0000 0.99940  0.30698  0.41042  Biso   1.000  H
  H221     1.0000 0.02551  0.90230  0.46268  Biso   1.000  H
  C195     1.0000 0.99338  0.86961  0.52802  Biso   1.000  C
  H222     1.0000 0.97409  0.86769  0.45069  Biso   1.000  H
  C196     1.0000 0.96731  0.68849  0.57109  Biso   1.000  C
  H223     1.0000 0.94521  0.82040  0.57630  Biso   1.000  H
  H224     1.0000 0.92608  0.82060  0.51610  Biso   1.000  H
  H225     1.0000 0.03730  0.52549  0.09770  Biso   1.000  H
  H226     1.0000 0.04929  0.47411  0.13231  Biso   1.000  H
  C197     1.0000 0.97200  0.49340  0.13039  Biso   1.000  C
  C198     1.0000 0.92889  0.46729  0.31151  Biso   1.000  C
  H227     1.0000 0.92372  0.44519  0.17960  Biso   1.000  H
  H228     1.0000 0.98392  0.42610  0.17940  Biso   1.000  H
  C199     1.0000 0.87202  0.55380  0.61012  Biso   1.000  C
  C200     1.0000 0.94622  0.61012  0.62800  Biso   1.000  C
  C201     1.0000 0.88990  0.37200  0.44620  Biso   1.000  C
  C202     1.0000 0.94622  0.38988  0.37200  Biso   1.000  C
  H229     1.0000 0.02591  0.86769  0.54931  Biso   1.000  H
  H230     1.0000 0.97449  0.90230  0.53732  Biso   1.000  H
  C203     1.0000 0.93398  0.64180  0.58449  Biso   1.000  C
  H231     1.0000 0.99940  0.69302  0.58958  Biso   1.000  H
  H232     1.0000 0.96270  0.47451  0.09770  Biso   1.000  H
  H233     1.0000 0.95071  0.52589  0.13231  Biso   1.000  H
  C204     1.0000 0.91549  0.43400  0.35820  Biso   1.000  C
  H234     1.0000 0.91040  0.49942  0.30698  Biso   1.000  H
  H235     1.0000 0.85120  0.52400  0.61862  Biso   1.000  H
  C205     1.0000 0.85822  0.58449  0.56600  Biso   1.000  C
  H236     1.0000 0.97602  0.61862  0.64882  Biso   1.000  H
  H237     1.0000 0.88140  0.35118  0.47600  Biso   1.000  H
  C206     1.0000 0.85822  0.41551  0.43400  Biso   1.000  C
  H238     1.0000 0.97602  0.38138  0.35118  Biso   1.000  H
  C207     1.0000 0.88990  0.62800  0.55380  Biso   1.000  C
  C208     1.0000 0.87202  0.44620  0.38988  Biso   1.000  C
  C209     1.0000 0.81149  0.57109  0.53271  Biso   1.000  C
  C210     1.0000 0.81149  0.42891  0.46729  Biso   1.000  C
  H239     1.0000 0.88140  0.64882  0.52400  Biso   1.000  H
  H240     1.0000 0.85120  0.47600  0.38138  Biso   1.000  H
  N35      1.0000 0.77748  0.53640  0.54462  Biso   1.000  N
  H241     1.0000 0.80700  0.58958  0.50058  Biso   1.000  H
  N36      1.0000 0.77748  0.46360  0.45538  Biso   1.000  N
  H242     1.0000 0.80700  0.41042  0.49942  Biso   1.000  H
  C211     1.0000 0.73148  0.52870  0.50969  Biso   1.000  C
  C212     1.0000 0.73148  0.47130  0.49031  Biso   1.000  C
  H243     1.0000 0.73341  0.55340  0.47920  Biso   1.000  H
  C213     1.0000 0.68010  0.53929  0.54269  Biso   1.000  C
  H244     1.0000 0.73341  0.44660  0.52080  Biso   1.000  H
  C214     1.0000 0.68010  0.46071  0.45731  Biso   1.000  C
  H245     1.0000 0.67958  0.57630  0.55481  Biso   1.000  H
  H246     1.0000 0.67938  0.51610  0.57390  Biso   1.000  H
  C215     1.0000 0.63041  0.52802  0.50660  Biso   1.000  C
  H247     1.0000 0.67958  0.42370  0.44519  Biso   1.000  H
  H248     1.0000 0.67938  0.48390  0.42610  Biso   1.000  H
  C216     1.0000 0.63041  0.47198  0.49340  Biso   1.000  C
  H249     1.0000 0.59768  0.53732  0.52549  Biso   1.000  H
  H250     1.0000 0.63229  0.54931  0.47411  Biso   1.000  H
  H251     1.0000 0.59768  0.46268  0.47451  Biso   1.000  H
  H252     1.0000 0.63229  0.45069  0.52589  Biso   1.000  H
  C217     1.0000 0.39181  0.31601  0.33450  Biso   1.000  C
  C218     1.0000 0.36009  0.30381  0.37801  Biso   1.000  C
  C219     1.0000 0.37801  0.36009  0.30381  Biso   1.000  C
  C220     1.0000 0.43850  0.28272  0.32110  Biso   1.000  C
  H253     1.0000 0.36859  0.27401  0.39879  Biso   1.000  H
  C221     1.0000 0.31601  0.33450  0.39181  Biso   1.000  C
  H254     1.0000 0.39879  0.36859  0.27401  Biso   1.000  H
  C222     1.0000 0.33450  0.39181  0.31601  Biso   1.000  C
  N37      1.0000 0.47251  0.29459  0.28641  Biso   1.000  N
  H255     1.0000 0.44299  0.25059  0.33959  Biso   1.000  H
  C223     1.0000 0.30381  0.37801  0.36009  Biso   1.000  C
  C224     1.0000 0.28272  0.32110  0.43850  Biso   1.000  C
  C225     1.0000 0.32110  0.43850  0.28272  Biso   1.000  C
  C226     1.0000 0.51851  0.25970  0.27871  Biso   1.000  C
  H256     1.0000 0.27401  0.39879  0.36859  Biso   1.000  H
  N38      1.0000 0.29459  0.28641  0.47251  Biso   1.000  N
  H257     1.0000 0.25059  0.33959  0.44299  Biso   1.000  H
  N39      1.0000 0.28641  0.47251  0.29459  Biso   1.000  N
  H258     1.0000 0.33959  0.44299  0.25059  Biso   1.000  H
  C227     1.0000 0.51851  0.24028  0.22131  Biso   1.000  C
  H259     1.0000 0.51658  0.22921  0.30341  Biso   1.000  H
  C228     1.0000 0.56989  0.29270  0.28930  Biso   1.000  C
  C229     1.0000 0.25970  0.27871  0.51851  Biso   1.000  C
  C230     1.0000 0.27871  0.51851  0.25970  Biso   1.000  C
  N40      1.0000 0.47251  0.20539  0.21361  Biso   1.000  N
  H260     1.0000 0.51658  0.27081  0.19661  Biso   1.000  H
  C231     1.0000 0.56989  0.20732  0.21068  Biso   1.000  C
  H261     1.0000 0.57041  0.30482  0.32631  Biso   1.000  H
  H262     1.0000 0.57061  0.32391  0.26611  Biso   1.000  H
  C232     1.0000 0.61958  0.25661  0.27798  Biso   1.000  C
  C233     1.0000 0.24028  0.22131  0.51851  Biso   1.000  C
  H263     1.0000 0.22921  0.30341  0.51658  Biso   1.000  H
  C234     1.0000 0.29270  0.28930  0.56989  Biso   1.000  C
  C235     1.0000 0.22131  0.51851  0.24028  Biso   1.000  C
  H264     1.0000 0.30341  0.51658  0.22921  Biso   1.000  H
  C236     1.0000 0.28930  0.56989  0.29270  Biso   1.000  C
  C237     1.0000 0.43850  0.21730  0.17892  Biso   1.000  C
  H265     1.0000 0.57041  0.19520  0.17371  Biso   1.000  H
  H266     1.0000 0.57061  0.17611  0.23391  Biso   1.000  H
  C238     1.0000 0.61958  0.24341  0.22199  Biso   1.000  C
  H267     1.0000 0.65231  0.27550  0.28729  Biso   1.000  H
  H268     1.0000 0.61770  0.22408  0.29928  Biso   1.000  H
  N41      1.0000 0.20539  0.21361  0.47251  Biso   1.000  N
  H269     1.0000 0.27081  0.19661  0.51658  Biso   1.000  H
  C239     1.0000 0.20732  0.21068  0.56989  Biso   1.000  C
  H270     1.0000 0.30482  0.32631  0.57041  Biso   1.000  H
  H271     1.0000 0.32391  0.26611  0.57061  Biso   1.000  H
  C240     1.0000 0.25661  0.27798  0.61958  Biso   1.000  C
  N42      1.0000 0.21361  0.47251  0.20539  Biso   1.000  N
  H272     1.0000 0.19661  0.51658  0.27081  Biso   1.000  H
  C241     1.0000 0.21068  0.56989  0.20732  Biso   1.000  C
  H273     1.0000 0.32631  0.57041  0.30482  Biso   1.000  H
  H274     1.0000 0.26611  0.57061  0.32391  Biso   1.000  H
  C242     1.0000 0.27798  0.61958  0.25661  Biso   1.000  C
  C243     1.0000 0.39181  0.18401  0.16548  Biso   1.000  C
  H275     1.0000 0.44299  0.24939  0.16039  Biso   1.000  H
  H276     1.0000 0.65231  0.22448  0.21269  Biso   1.000  H
  H277     1.0000 0.61770  0.27590  0.20070  Biso   1.000  H
  C244     1.0000 0.21730  0.17892  0.43850  Biso   1.000  C
  H278     1.0000 0.19520  0.17371  0.57041  Biso   1.000  H
  H279     1.0000 0.17611  0.23391  0.57061  Biso   1.000  H
  C245     1.0000 0.24341  0.22199  0.61958  Biso   1.000  C
  H280     1.0000 0.27550  0.28729  0.65231  Biso   1.000  H
  H281     1.0000 0.22408  0.29928  0.61770  Biso   1.000  H
  C246     1.0000 0.17892  0.43850  0.21730  Biso   1.000  C
  H282     1.0000 0.17371  0.57041  0.19520  Biso   1.000  H
  H283     1.0000 0.23391  0.57061  0.17611  Biso   1.000  H
  C247     1.0000 0.22199  0.61958  0.24341  Biso   1.000  C
  H284     1.0000 0.28729  0.65231  0.27550  Biso   1.000  H
  H285     1.0000 0.29928  0.61770  0.22408  Biso   1.000  H
  C248     1.0000 0.37801  0.13989  0.19621  Biso   1.000  C
  C249     1.0000 0.36009  0.19621  0.12201  Biso   1.000  C
  C250     1.0000 0.18401  0.16548  0.39181  Biso   1.000  C
  H286     1.0000 0.24939  0.16039  0.44299  Biso   1.000  H
  H287     1.0000 0.22448  0.21269  0.65231  Biso   1.000  H
  H288     1.0000 0.27590  0.20070  0.61770  Biso   1.000  H
  C251     1.0000 0.16548  0.39181  0.18401  Biso   1.000  C
  H289     1.0000 0.16039  0.44299  0.24939  Biso   1.000  H
  H290     1.0000 0.21269  0.65231  0.22448  Biso   1.000  H
  H291     1.0000 0.20070  0.61770  0.27590  Biso   1.000  H
  H292     1.0000 0.39879  0.13139  0.22601  Biso   1.000  H
  C252     1.0000 0.33450  0.10821  0.18401  Biso   1.000  C
  H293     1.0000 0.36859  0.22601  0.10119  Biso   1.000  H
  C253     1.0000 0.31601  0.16548  0.10821  Biso   1.000  C
  C254     1.0000 0.19621  0.12201  0.36009  Biso   1.000  C
  C255     1.0000 0.13989  0.19621  0.37801  Biso   1.000  C
  C256     1.0000 0.19621  0.37801  0.13989  Biso   1.000  C
  C257     1.0000 0.12201  0.36009  0.19621  Biso   1.000  C
  C258     1.0000 0.30381  0.12201  0.13989  Biso   1.000  C
  C259     1.0000 0.32110  0.06148  0.21730  Biso   1.000  C
  C260     1.0000 0.28272  0.17892  0.06148  Biso   1.000  C
  H294     1.0000 0.22601  0.10119  0.36859  Biso   1.000  H
  C261     1.0000 0.16548  0.10821  0.31601  Biso   1.000  C
  H295     1.0000 0.13139  0.22601  0.39879  Biso   1.000  H
  C262     1.0000 0.10821  0.18401  0.33450  Biso   1.000  C
  H296     1.0000 0.22601  0.39879  0.13139  Biso   1.000  H
  C263     1.0000 0.18401  0.33450  0.10821  Biso   1.000  C
  H297     1.0000 0.10119  0.36859  0.22601  Biso   1.000  H
  C264     1.0000 0.10821  0.31601  0.16548  Biso   1.000  C
  H298     1.0000 0.27401  0.10119  0.13139  Biso   1.000  H
  N43      1.0000 0.28641  0.02751  0.20539  Biso   1.000  N
  H299     1.0000 0.33959  0.05699  0.24939  Biso   1.000  H
  N44      1.0000 0.29459  0.21361  0.02751  Biso   1.000  N
  H300     1.0000 0.25059  0.16039  0.05699  Biso   1.000  H
  C265     1.0000 0.12201  0.13989  0.30381  Biso   1.000  C
  C266     1.0000 0.17892  0.06148  0.28272  Biso   1.000  C
  C267     1.0000 0.06148  0.21730  0.32110  Biso   1.000  C
  C268     1.0000 0.13989  0.30381  0.12201  Biso   1.000  C
  C269     1.0000 0.21730  0.32110  0.06148  Biso   1.000  C
  C270     1.0000 0.06148  0.28272  0.17892  Biso   1.000  C
  C271     1.0000 0.27871  0.98151  0.24028  Biso   1.000  C
  C272     1.0000 0.25970  0.22131  0.98151  Biso   1.000  C
  H301     1.0000 0.10119  0.13139  0.27401  Biso   1.000  H
  N45      1.0000 0.21361  0.02751  0.29459  Biso   1.000  N
  H302     1.0000 0.16039  0.05699  0.25059  Biso   1.000  H
  N46      1.0000 0.02751  0.20539  0.28641  Biso   1.000  N
  H303     1.0000 0.05699  0.24939  0.33959  Biso   1.000  H
  H304     1.0000 0.13139  0.27401  0.10119  Biso   1.000  H
  N47      1.0000 0.20539  0.28641  0.02751  Biso   1.000  N
  H305     1.0000 0.24939  0.33959  0.05699  Biso   1.000  H
  N48      1.0000 0.02751  0.29459  0.21361  Biso   1.000  N
  H306     1.0000 0.05699  0.25059  0.16039  Biso   1.000  H
  C273     1.0000 0.22131  0.98151  0.25970  Biso   1.000  C
  H307     1.0000 0.30341  0.98340  0.27081  Biso   1.000  H
  C274     1.0000 0.28930  0.93009  0.20732  Biso   1.000  C
  C275     1.0000 0.24028  0.27871  0.98151  Biso   1.000  C
  H308     1.0000 0.22921  0.19661  0.98340  Biso   1.000  H
  C276     1.0000 0.29270  0.21068  0.93009  Biso   1.000  C
  C277     1.0000 0.98151  0.24028  0.27871  Biso   1.000  C
  C278     1.0000 0.98151  0.25970  0.22131  Biso   1.000  C
  H309     1.0000 0.19661  0.98340  0.22921  Biso   1.000  H
  C279     1.0000 0.21068  0.93009  0.29270  Biso   1.000  C
  H310     1.0000 0.32631  0.92961  0.19520  Biso   1.000  H
  H311     1.0000 0.26611  0.92941  0.17611  Biso   1.000  H
  C280     1.0000 0.27798  0.88040  0.24341  Biso   1.000  C
  H312     1.0000 0.27081  0.30341  0.98340  Biso   1.000  H
  C281     1.0000 0.20732  0.28930  0.93009  Biso   1.000  C
  H313     1.0000 0.30482  0.17371  0.92961  Biso   1.000  H
  H314     1.0000 0.32391  0.23391  0.92941  Biso   1.000  H
  C282     1.0000 0.25661  0.22199  0.88040  Biso   1.000  C
  H315     1.0000 0.98340  0.27081  0.30341  Biso   1.000  H
  C283     1.0000 0.93009  0.20732  0.28930  Biso   1.000  C
  H316     1.0000 0.98340  0.22921  0.19661  Biso   1.000  H
  C284     1.0000 0.93009  0.29270  0.21068  Biso   1.000  C
  H317     1.0000 0.17371  0.92961  0.30482  Biso   1.000  H
  H318     1.0000 0.23391  0.92941  0.32391  Biso   1.000  H
  C285     1.0000 0.22199  0.88040  0.25661  Biso   1.000  C
  H319     1.0000 0.28729  0.84771  0.22448  Biso   1.000  H
  H320     1.0000 0.29928  0.88228  0.27590  Biso   1.000  H
  H321     1.0000 0.19520  0.32631  0.92961  Biso   1.000  H
  H322     1.0000 0.17611  0.26611  0.92941  Biso   1.000  H
  C286     1.0000 0.24341  0.27798  0.88040  Biso   1.000  C
  H323     1.0000 0.27550  0.21269  0.84771  Biso   1.000  H
  H324     1.0000 0.22408  0.20070  0.88228  Biso   1.000  H
  H325     1.0000 0.92961  0.19520  0.32631  Biso   1.000  H
  H326     1.0000 0.92941  0.17611  0.26611  Biso   1.000  H
  C287     1.0000 0.88040  0.24341  0.27798  Biso   1.000  C
  H327     1.0000 0.92961  0.30482  0.17371  Biso   1.000  H
  H328     1.0000 0.92941  0.32391  0.23391  Biso   1.000  H
  C288     1.0000 0.88040  0.25661  0.22199  Biso   1.000  C
  H329     1.0000 0.21269  0.84771  0.27550  Biso   1.000  H
  H330     1.0000 0.20070  0.88228  0.22408  Biso   1.000  H
  H331     1.0000 0.22448  0.28729  0.84771  Biso   1.000  H
  H332     1.0000 0.27590  0.29928  0.88228  Biso   1.000  H
  H333     1.0000 0.84771  0.22448  0.28729  Biso   1.000  H
  H334     1.0000 0.88228  0.27590  0.29928  Biso   1.000  H
  H335     1.0000 0.84771  0.27550  0.21269  Biso   1.000  H
  H336     1.0000 0.88228  0.22408  0.20070  Biso   1.000  H
  C289     1.0000 0.63991  0.30381  0.62199  Biso   1.000  C
  C290     1.0000 0.68399  0.33450  0.60819  Biso   1.000  C
  H337     1.0000 0.63141  0.27401  0.60121  Biso   1.000  H
  C291     1.0000 0.60819  0.31601  0.66550  Biso   1.000  C
  C292     1.0000 0.71728  0.32110  0.56150  Biso   1.000  C
  C293     1.0000 0.69619  0.37801  0.63991  Biso   1.000  C
  C294     1.0000 0.62199  0.36009  0.69619  Biso   1.000  C
  C295     1.0000 0.56150  0.28272  0.67890  Biso   1.000  C
  N49      1.0000 0.70541  0.28641  0.52749  Biso   1.000  N
  H338     1.0000 0.74941  0.33959  0.55701  Biso   1.000  H
  H339     1.0000 0.72599  0.39879  0.63141  Biso   1.000  H
  C296     1.0000 0.66550  0.39181  0.68399  Biso   1.000  C
  H340     1.0000 0.60121  0.36859  0.72599  Biso   1.000  H
  N50      1.0000 0.52749  0.29459  0.71359  Biso   1.000  N
  H341     1.0000 0.55701  0.25059  0.66041  Biso   1.000  H
  C297     1.0000 0.74030  0.27871  0.48149  Biso   1.000  C
  C298     1.0000 0.67890  0.43850  0.71728  Biso   1.000  C
  C299     1.0000 0.48149  0.25970  0.72129  Biso   1.000  C
  C300     1.0000 0.70730  0.28930  0.43011  Biso   1.000  C
  C301     1.0000 0.75972  0.22131  0.48149  Biso   1.000  C
  H342     1.0000 0.77079  0.30341  0.48342  Biso   1.000  H
  N51      1.0000 0.71359  0.47251  0.70541  Biso   1.000  N
  H343     1.0000 0.66041  0.44299  0.74941  Biso   1.000  H
  C302     1.0000 0.48149  0.24028  0.77869  Biso   1.000  C
  H344     1.0000 0.48342  0.22921  0.69659  Biso   1.000  H
  C303     1.0000 0.43011  0.29270  0.71070  Biso   1.000  C
  H345     1.0000 0.69518  0.32631  0.42959  Biso   1.000  H
  H346     1.0000 0.67609  0.26611  0.42939  Biso   1.000  H
  C304     1.0000 0.74339  0.27798  0.38042  Biso   1.000  C
  N52      1.0000 0.79461  0.21361  0.52749  Biso   1.000  N
  H347     1.0000 0.72919  0.19661  0.48342  Biso   1.000  H
  C305     1.0000 0.79268  0.21068  0.43011  Biso   1.000  C
  C306     1.0000 0.72129  0.51851  0.74030  Biso   1.000  C
  N53      1.0000 0.52749  0.20539  0.78639  Biso   1.000  N
  H348     1.0000 0.48342  0.27081  0.80339  Biso   1.000  H
  C307     1.0000 0.43011  0.20732  0.78932  Biso   1.000  C
  H349     1.0000 0.42959  0.30482  0.67369  Biso   1.000  H
  H350     1.0000 0.42939  0.32391  0.73389  Biso   1.000  H
  C308     1.0000 0.38042  0.25661  0.72202  Biso   1.000  C
  C309     1.0000 0.75659  0.22199  0.38042  Biso   1.000  C
  H351     1.0000 0.72450  0.28729  0.34769  Biso   1.000  H
  H352     1.0000 0.77592  0.29928  0.38230  Biso   1.000  H
  C310     1.0000 0.78270  0.17892  0.56150  Biso   1.000  C
  H353     1.0000 0.80480  0.17371  0.42959  Biso   1.000  H
  H354     1.0000 0.82389  0.23391  0.42939  Biso   1.000  H
  C311     1.0000 0.77869  0.51851  0.75972  Biso   1.000  C
  H355     1.0000 0.69659  0.51658  0.77079  Biso   1.000  H
  C312     1.0000 0.71070  0.56989  0.70730  Biso   1.000  C
  C313     1.0000 0.56150  0.21730  0.82108  Biso   1.000  C
  H356     1.0000 0.42959  0.19520  0.82629  Biso   1.000  H
  H357     1.0000 0.42939  0.17611  0.76609  Biso   1.000  H
  C314     1.0000 0.38042  0.24341  0.77801  Biso   1.000  C
  H358     1.0000 0.34769  0.27550  0.71271  Biso   1.000  H
  H359     1.0000 0.38230  0.22408  0.70072  Biso   1.000  H
  H360     1.0000 0.77552  0.21269  0.34769  Biso   1.000  H
  H361     1.0000 0.72410  0.20070  0.38230  Biso   1.000  H
  C315     1.0000 0.81599  0.16548  0.60819  Biso   1.000  C
  H362     1.0000 0.75061  0.16039  0.55701  Biso   1.000  H
  N54      1.0000 0.78639  0.47251  0.79461  Biso   1.000  N
  H363     1.0000 0.80339  0.51658  0.72919  Biso   1.000  H
  C316     1.0000 0.78932  0.56989  0.79268  Biso   1.000  C
  H364     1.0000 0.67369  0.57041  0.69518  Biso   1.000  H
  H365     1.0000 0.73389  0.57061  0.67609  Biso   1.000  H
  C317     1.0000 0.72202  0.61958  0.74339  Biso   1.000  C
  C318     1.0000 0.60819  0.18401  0.83452  Biso   1.000  C
  H366     1.0000 0.55701  0.24939  0.83961  Biso   1.000  H
  H367     1.0000 0.34769  0.22448  0.78731  Biso   1.000  H
  H368     1.0000 0.38230  0.27590  0.79930  Biso   1.000  H
  C319     1.0000 0.86011  0.19621  0.62199  Biso   1.000  C
  C320     1.0000 0.80379  0.12201  0.63991  Biso   1.000  C
  C321     1.0000 0.82108  0.43850  0.78270  Biso   1.000  C
  H369     1.0000 0.82629  0.57041  0.80480  Biso   1.000  H
  H370     1.0000 0.76609  0.57061  0.82389  Biso   1.000  H
  C322     1.0000 0.77801  0.61958  0.75659  Biso   1.000  C
  H371     1.0000 0.71271  0.65231  0.72450  Biso   1.000  H
  H372     1.0000 0.70072  0.61770  0.77592  Biso   1.000  H
  C323     1.0000 0.63991  0.19621  0.87799  Biso   1.000  C
  C324     1.0000 0.62199  0.13989  0.80379  Biso   1.000  C
  H373     1.0000 0.86861  0.22601  0.60121  Biso   1.000  H
  C325     1.0000 0.89179  0.18401  0.66550  Biso   1.000  C
  H374     1.0000 0.77399  0.10119  0.63141  Biso   1.000  H
  C326     1.0000 0.83452  0.10821  0.68399  Biso   1.000  C
  C327     1.0000 0.83452  0.39181  0.81599  Biso   1.000  C
  H375     1.0000 0.83961  0.44299  0.75061  Biso   1.000  H
  H376     1.0000 0.78731  0.65231  0.77552  Biso   1.000  H
  H377     1.0000 0.79930  0.61770  0.72410  Biso   1.000  H
  H378     1.0000 0.63141  0.22601  0.89881  Biso   1.000  H
  C328     1.0000 0.68399  0.16548  0.89179  Biso   1.000  C
  C329     1.0000 0.66550  0.10821  0.81599  Biso   1.000  C
  H379     1.0000 0.60121  0.13139  0.77399  Biso   1.000  H
  C330     1.0000 0.87799  0.13989  0.69619  Biso   1.000  C
  C331     1.0000 0.93852  0.21730  0.67890  Biso   1.000  C
  C332     1.0000 0.82108  0.06148  0.71728  Biso   1.000  C
  C333     1.0000 0.87799  0.36009  0.80379  Biso   1.000  C
  C334     1.0000 0.80379  0.37801  0.86011  Biso   1.000  C
  C335     1.0000 0.69619  0.12201  0.86011  Biso   1.000  C
  C336     1.0000 0.71728  0.17892  0.93852  Biso   1.000  C
  C337     1.0000 0.67890  0.06148  0.78270  Biso   1.000  C
  H380     1.0000 0.89881  0.13139  0.72599  Biso   1.000  H
  N55      1.0000 0.97249  0.20539  0.71359  Biso   1.000  N
  H381     1.0000 0.94301  0.24939  0.66041  Biso   1.000  H
  N56      1.0000 0.78639  0.02751  0.70541  Biso   1.000  N
  H382     1.0000 0.83961  0.05699  0.74941  Biso   1.000  H
  C338     1.0000 0.89179  0.31601  0.83452  Biso   1.000  C
  H383     1.0000 0.89881  0.36859  0.77399  Biso   1.000  H
  H384     1.0000 0.77399  0.39879  0.86861  Biso   1.000  H
  C339     1.0000 0.81599  0.33450  0.89179  Biso   1.000  C
  H385     1.0000 0.72599  0.10119  0.86861  Biso   1.000  H
  N57      1.0000 0.70541  0.21361  0.97249  Biso   1.000  N
  H386     1.0000 0.74941  0.16039  0.94301  Biso   1.000  H
  N58      1.0000 0.71359  0.02751  0.79461  Biso   1.000  N
  H387     1.0000 0.66041  0.05699  0.75061  Biso   1.000  H
  C340     1.0000 0.01849  0.24028  0.72129  Biso   1.000  C
  C341     1.0000 0.77869  0.98151  0.74030  Biso   1.000  C
  C342     1.0000 0.93852  0.28272  0.82108  Biso   1.000  C
  C343     1.0000 0.86011  0.30381  0.87799  Biso   1.000  C
  C344     1.0000 0.78270  0.32110  0.93852  Biso   1.000  C
  C345     1.0000 0.74030  0.22131  0.01849  Biso   1.000  C
  C346     1.0000 0.72129  0.98151  0.75972  Biso   1.000  C
  C347     1.0000 0.01849  0.25970  0.77869  Biso   1.000  C
  H388     1.0000 0.01660  0.27081  0.69659  Biso   1.000  H
  C348     1.0000 0.06991  0.20732  0.71070  Biso   1.000  C
  H389     1.0000 0.80339  0.98340  0.77079  Biso   1.000  H
  C349     1.0000 0.78932  0.93009  0.70730  Biso   1.000  C
  N59      1.0000 0.97249  0.29459  0.78639  Biso   1.000  N
  H390     1.0000 0.94301  0.25059  0.83961  Biso   1.000  H
  H391     1.0000 0.86861  0.27401  0.89881  Biso   1.000  H
  N60      1.0000 0.79461  0.28641  0.97249  Biso   1.000  N
  H392     1.0000 0.75061  0.33959  0.94301  Biso   1.000  H
  C350     1.0000 0.75972  0.27871  0.01849  Biso   1.000  C
  H393     1.0000 0.77079  0.19661  0.01660  Biso   1.000  H
  C351     1.0000 0.70730  0.21068  0.06991  Biso   1.000  C
  H394     1.0000 0.69659  0.98340  0.72919  Biso   1.000  H
  C352     1.0000 0.71070  0.93009  0.79268  Biso   1.000  C
  H395     1.0000 0.01660  0.22921  0.80339  Biso   1.000  H
  C353     1.0000 0.06991  0.29270  0.78932  Biso   1.000  C
  H396     1.0000 0.07039  0.19520  0.67369  Biso   1.000  H
  H397     1.0000 0.07059  0.17611  0.73389  Biso   1.000  H
  C354     1.0000 0.11960  0.24341  0.72202  Biso   1.000  C
  H398     1.0000 0.82629  0.92961  0.69518  Biso   1.000  H
  H399     1.0000 0.76609  0.92941  0.67609  Biso   1.000  H
  C355     1.0000 0.77801  0.88040  0.74339  Biso   1.000  C
  H400     1.0000 0.72919  0.30341  0.01660  Biso   1.000  H
  C356     1.0000 0.79268  0.28930  0.06991  Biso   1.000  C
  H401     1.0000 0.69518  0.17371  0.07039  Biso   1.000  H
  H402     1.0000 0.67609  0.23391  0.07059  Biso   1.000  H
  C357     1.0000 0.74339  0.22199  0.11960  Biso   1.000  C
  H403     1.0000 0.67369  0.92961  0.80480  Biso   1.000  H
  H404     1.0000 0.73389  0.92941  0.82389  Biso   1.000  H
  C358     1.0000 0.72202  0.88040  0.75659  Biso   1.000  C
  H405     1.0000 0.07039  0.30482  0.82629  Biso   1.000  H
  H406     1.0000 0.07059  0.32391  0.76609  Biso   1.000  H
  C359     1.0000 0.11960  0.25661  0.77801  Biso   1.000  C
  H407     1.0000 0.15229  0.22448  0.71271  Biso   1.000  H
  H408     1.0000 0.11772  0.27590  0.70072  Biso   1.000  H
  H409     1.0000 0.78731  0.84771  0.72450  Biso   1.000  H
  H410     1.0000 0.79930  0.88228  0.77592  Biso   1.000  H
  H411     1.0000 0.80480  0.32631  0.07039  Biso   1.000  H
  H412     1.0000 0.82389  0.26611  0.07059  Biso   1.000  H
  C360     1.0000 0.75659  0.27798  0.11960  Biso   1.000  C
  H413     1.0000 0.72450  0.21269  0.15229  Biso   1.000  H
  H414     1.0000 0.77592  0.20070  0.11772  Biso   1.000  H
  H415     1.0000 0.71271  0.84771  0.77552  Biso   1.000  H
  H416     1.0000 0.70072  0.88228  0.72410  Biso   1.000  H
  H417     1.0000 0.15229  0.27550  0.78731  Biso   1.000  H
  H418     1.0000 0.11772  0.22408  0.79930  Biso   1.000  H
  H419     1.0000 0.77552  0.28729  0.15229  Biso   1.000  H
  H420     1.0000 0.72410  0.29928  0.11772  Biso   1.000  H
  C361     1.0000 0.62199  0.63991  0.30381  Biso   1.000  C
  C362     1.0000 0.66550  0.60819  0.31601  Biso   1.000  C
  H421     1.0000 0.60121  0.63141  0.27401  Biso   1.000  H
  C363     1.0000 0.60819  0.68399  0.33450  Biso   1.000  C
  C364     1.0000 0.67890  0.56150  0.28272  Biso   1.000  C
  C365     1.0000 0.69619  0.62199  0.36009  Biso   1.000  C
  C366     1.0000 0.63991  0.69619  0.37801  Biso   1.000  C
  C367     1.0000 0.56150  0.71728  0.32110  Biso   1.000  C
  N61      1.0000 0.71359  0.52749  0.29459  Biso   1.000  N
  H422     1.0000 0.66041  0.55701  0.25059  Biso   1.000  H
  H423     1.0000 0.72599  0.60121  0.36859  Biso   1.000  H
  C368     1.0000 0.68399  0.66550  0.39181  Biso   1.000  C
  H424     1.0000 0.63141  0.72599  0.39879  Biso   1.000  H
  N62      1.0000 0.52749  0.70541  0.28641  Biso   1.000  N
  H425     1.0000 0.55701  0.74941  0.33959  Biso   1.000  H
  C369     1.0000 0.72129  0.48149  0.25970  Biso   1.000  C
  C370     1.0000 0.71728  0.67890  0.43850  Biso   1.000  C
  C371     1.0000 0.48149  0.74030  0.27871  Biso   1.000  C
  C372     1.0000 0.71070  0.43011  0.29270  Biso   1.000  C
  C373     1.0000 0.77869  0.48149  0.24028  Biso   1.000  C
  H426     1.0000 0.69659  0.48342  0.22921  Biso   1.000  H
  N63      1.0000 0.70541  0.71359  0.47251  Biso   1.000  N
  H427     1.0000 0.74941  0.66041  0.44299  Biso   1.000  H
  C374     1.0000 0.48149  0.75972  0.22131  Biso   1.000  C
  H428     1.0000 0.48342  0.77079  0.30341  Biso   1.000  H
  C375     1.0000 0.43011  0.70730  0.28930  Biso   1.000  C
  C376     1.0000 0.72202  0.38042  0.25661  Biso   1.000  C
  H429     1.0000 0.67369  0.42959  0.30482  Biso   1.000  H
  H430     1.0000 0.73389  0.42939  0.32391  Biso   1.000  H
  C377     1.0000 0.78932  0.43011  0.20732  Biso   1.000  C
  N64      1.0000 0.78639  0.52749  0.20539  Biso   1.000  N
  H431     1.0000 0.80339  0.48342  0.27081  Biso   1.000  H
  C378     1.0000 0.74030  0.72129  0.51851  Biso   1.000  C
  N65      1.0000 0.52749  0.79461  0.21361  Biso   1.000  N
  H432     1.0000 0.48342  0.72919  0.19661  Biso   1.000  H
  C379     1.0000 0.43011  0.79268  0.21068  Biso   1.000  C
  H433     1.0000 0.42959  0.69518  0.32631  Biso   1.000  H
  H434     1.0000 0.42939  0.67609  0.26611  Biso   1.000  H
  C380     1.0000 0.38042  0.74339  0.27798  Biso   1.000  C
  C381     1.0000 0.77801  0.38042  0.24341  Biso   1.000  C
  H435     1.0000 0.71271  0.34769  0.27550  Biso   1.000  H
  H436     1.0000 0.70072  0.38230  0.22408  Biso   1.000  H
  H437     1.0000 0.82629  0.42959  0.19520  Biso   1.000  H
  H438     1.0000 0.76609  0.42939  0.17611  Biso   1.000  H
  C382     1.0000 0.82108  0.56150  0.21730  Biso   1.000  C
  C383     1.0000 0.75972  0.77869  0.51851  Biso   1.000  C
  H439     1.0000 0.77079  0.69659  0.51658  Biso   1.000  H
  C384     1.0000 0.70730  0.71070  0.56989  Biso   1.000  C
  C385     1.0000 0.56150  0.78270  0.17892  Biso   1.000  C
  H440     1.0000 0.42959  0.80480  0.17371  Biso   1.000  H
  H441     1.0000 0.42939  0.82389  0.23391  Biso   1.000  H
  C386     1.0000 0.38042  0.75659  0.22199  Biso   1.000  C
  H442     1.0000 0.34769  0.72450  0.28729  Biso   1.000  H
  H443     1.0000 0.38230  0.77592  0.29928  Biso   1.000  H
  H444     1.0000 0.78731  0.34769  0.22448  Biso   1.000  H
  H445     1.0000 0.79930  0.38230  0.27590  Biso   1.000  H
  C387     1.0000 0.83452  0.60819  0.18401  Biso   1.000  C
  H446     1.0000 0.83961  0.55701  0.24939  Biso   1.000  H
  N66      1.0000 0.79461  0.78639  0.47251  Biso   1.000  N
  H447     1.0000 0.72919  0.80339  0.51658  Biso   1.000  H
  C388     1.0000 0.79268  0.78932  0.56989  Biso   1.000  C
  H448     1.0000 0.69518  0.67369  0.57041  Biso   1.000  H
  H449     1.0000 0.67609  0.73389  0.57061  Biso   1.000  H
  C389     1.0000 0.74339  0.72202  0.61958  Biso   1.000  C
  C390     1.0000 0.60819  0.81599  0.16548  Biso   1.000  C
  H450     1.0000 0.55701  0.75061  0.16039  Biso   1.000  H
  H451     1.0000 0.34769  0.77552  0.21269  Biso   1.000  H
  H452     1.0000 0.38230  0.72410  0.20070  Biso   1.000  H
  C391     1.0000 0.87799  0.63991  0.19621  Biso   1.000  C
  C392     1.0000 0.80379  0.62199  0.13989  Biso   1.000  C
  C393     1.0000 0.78270  0.82108  0.43850  Biso   1.000  C
  H453     1.0000 0.80480  0.82629  0.57041  Biso   1.000  H
  H454     1.0000 0.82389  0.76609  0.57061  Biso   1.000  H
  C394     1.0000 0.75659  0.77801  0.61958  Biso   1.000  C
  H455     1.0000 0.72450  0.71271  0.65231  Biso   1.000  H
  H456     1.0000 0.77592  0.70072  0.61770  Biso   1.000  H
  C395     1.0000 0.62199  0.86011  0.19621  Biso   1.000  C
  C396     1.0000 0.63991  0.80379  0.12201  Biso   1.000  C
  H457     1.0000 0.89881  0.63141  0.22601  Biso   1.000  H
  C397     1.0000 0.89179  0.68399  0.16548  Biso   1.000  C
  H458     1.0000 0.77399  0.60121  0.13139  Biso   1.000  H
  C398     1.0000 0.81599  0.66550  0.10821  Biso   1.000  C
  C399     1.0000 0.81599  0.83452  0.39181  Biso   1.000  C
  H459     1.0000 0.75061  0.83961  0.44299  Biso   1.000  H
  H460     1.0000 0.77552  0.78731  0.65231  Biso   1.000  H
  H461     1.0000 0.72410  0.79930  0.61770  Biso   1.000  H
  H462     1.0000 0.60121  0.86861  0.22601  Biso   1.000  H
  C400     1.0000 0.66550  0.89179  0.18401  Biso   1.000  C
  C401     1.0000 0.68399  0.83452  0.10821  Biso   1.000  C
  H463     1.0000 0.63141  0.77399  0.10119  Biso   1.000  H
  C402     1.0000 0.86011  0.69619  0.12201  Biso   1.000  C
  C403     1.0000 0.93852  0.71728  0.17892  Biso   1.000  C
  C404     1.0000 0.78270  0.67890  0.06148  Biso   1.000  C
  C405     1.0000 0.80379  0.87799  0.36009  Biso   1.000  C
  C406     1.0000 0.86011  0.80379  0.37801  Biso   1.000  C
  C407     1.0000 0.69619  0.87799  0.13989  Biso   1.000  C
  C408     1.0000 0.67890  0.93852  0.21730  Biso   1.000  C
  C409     1.0000 0.71728  0.82108  0.06148  Biso   1.000  C
  H464     1.0000 0.86861  0.72599  0.10119  Biso   1.000  H
  N67      1.0000 0.97249  0.70541  0.21361  Biso   1.000  N
  H465     1.0000 0.94301  0.74941  0.16039  Biso   1.000  H
  N68      1.0000 0.79461  0.71359  0.02751  Biso   1.000  N
  H466     1.0000 0.75061  0.66041  0.05699  Biso   1.000  H
  H467     1.0000 0.77399  0.89881  0.36859  Biso   1.000  H
  C410     1.0000 0.83452  0.89179  0.31601  Biso   1.000  C
  C411     1.0000 0.89179  0.81599  0.33450  Biso   1.000  C
  H468     1.0000 0.86861  0.77399  0.39879  Biso   1.000  H
  H469     1.0000 0.72599  0.89881  0.13139  Biso   1.000  H
  N69      1.0000 0.71359  0.97249  0.20539  Biso   1.000  N
  H470     1.0000 0.66041  0.94301  0.24939  Biso   1.000  H
  N70      1.0000 0.70541  0.78639  0.02751  Biso   1.000  N
  H471     1.0000 0.74941  0.83961  0.05699  Biso   1.000  H
  C412     1.0000 0.01849  0.74030  0.22131  Biso   1.000  C
  C413     1.0000 0.75972  0.72129  0.98151  Biso   1.000  C
  C414     1.0000 0.87799  0.86011  0.30381  Biso   1.000  C
  C415     1.0000 0.82108  0.93852  0.28272  Biso   1.000  C
  C416     1.0000 0.93852  0.78270  0.32110  Biso   1.000  C
  C417     1.0000 0.72129  0.01849  0.24028  Biso   1.000  C
  C418     1.0000 0.74030  0.77869  0.98151  Biso   1.000  C
  C419     1.0000 0.01849  0.75972  0.27871  Biso   1.000  C
  H472     1.0000 0.01660  0.77079  0.19661  Biso   1.000  H
  C420     1.0000 0.06991  0.70730  0.21068  Biso   1.000  C
  H473     1.0000 0.72919  0.69659  0.98340  Biso   1.000  H
  C421     1.0000 0.79268  0.71070  0.93009  Biso   1.000  C
  H474     1.0000 0.89881  0.86861  0.27401  Biso   1.000  H
  N71      1.0000 0.78639  0.97249  0.29459  Biso   1.000  N
  H475     1.0000 0.83961  0.94301  0.25059  Biso   1.000  H
  N72      1.0000 0.97249  0.79461  0.28641  Biso   1.000  N
  H476     1.0000 0.94301  0.75061  0.33959  Biso   1.000  H
  C422     1.0000 0.77869  0.01849  0.25970  Biso   1.000  C
  H477     1.0000 0.69659  0.01660  0.27081  Biso   1.000  H
  C423     1.0000 0.71070  0.06991  0.20732  Biso   1.000  C
  H478     1.0000 0.77079  0.80339  0.98340  Biso   1.000  H
  C424     1.0000 0.70730  0.78932  0.93009  Biso   1.000  C
  H479     1.0000 0.01660  0.72919  0.30341  Biso   1.000  H
  C425     1.0000 0.06991  0.79268  0.28930  Biso   1.000  C
  H480     1.0000 0.07039  0.69518  0.17371  Biso   1.000  H
  H481     1.0000 0.07059  0.67609  0.23391  Biso   1.000  H
  C426     1.0000 0.11960  0.74339  0.22199  Biso   1.000  C
  H482     1.0000 0.80480  0.67369  0.92961  Biso   1.000  H
  H483     1.0000 0.82389  0.73389  0.92941  Biso   1.000  H
  C427     1.0000 0.75659  0.72202  0.88040  Biso   1.000  C
  H484     1.0000 0.80339  0.01660  0.22921  Biso   1.000  H
  C428     1.0000 0.78932  0.06991  0.29270  Biso   1.000  C
  H485     1.0000 0.67369  0.07039  0.19520  Biso   1.000  H
  H486     1.0000 0.73389  0.07059  0.17611  Biso   1.000  H
  C429     1.0000 0.72202  0.11960  0.24341  Biso   1.000  C
  H487     1.0000 0.69518  0.82629  0.92961  Biso   1.000  H
  H488     1.0000 0.67609  0.76609  0.92941  Biso   1.000  H
  C430     1.0000 0.74339  0.77801  0.88040  Biso   1.000  C
  H489     1.0000 0.07039  0.80480  0.32631  Biso   1.000  H
  H490     1.0000 0.07059  0.82389  0.26611  Biso   1.000  H
  C431     1.0000 0.11960  0.75659  0.27798  Biso   1.000  C
  H491     1.0000 0.15229  0.72450  0.21269  Biso   1.000  H
  H492     1.0000 0.11772  0.77592  0.20070  Biso   1.000  H
  H493     1.0000 0.77552  0.71271  0.84771  Biso   1.000  H
  H494     1.0000 0.72410  0.70072  0.88228  Biso   1.000  H
  H495     1.0000 0.82629  0.07039  0.30482  Biso   1.000  H
  H496     1.0000 0.76609  0.07059  0.32391  Biso   1.000  H
  C432     1.0000 0.77801  0.11960  0.25661  Biso   1.000  C
  H497     1.0000 0.71271  0.15229  0.22448  Biso   1.000  H
  H498     1.0000 0.70072  0.11772  0.27590  Biso   1.000  H
  H499     1.0000 0.72450  0.78731  0.84771  Biso   1.000  H
  H500     1.0000 0.77592  0.79930  0.88228  Biso   1.000  H
  H501     1.0000 0.15229  0.77552  0.28729  Biso   1.000  H
  H502     1.0000 0.11772  0.72410  0.29928  Biso   1.000  H
  H503     1.0000 0.78731  0.15229  0.27550  Biso   1.000  H
  H504     1.0000 0.79930  0.11772  0.22408  Biso   1.000  H
  C433     1.0000 0.30381  0.62199  0.63991  Biso   1.000  C
  C434     1.0000 0.31601  0.66550  0.60819  Biso   1.000  C
  H505     1.0000 0.27401  0.60121  0.63141  Biso   1.000  H
  C435     1.0000 0.33450  0.60819  0.68399  Biso   1.000  C
  C436     1.0000 0.28272  0.67890  0.56150  Biso   1.000  C
  C437     1.0000 0.36009  0.69619  0.62199  Biso   1.000  C
  C438     1.0000 0.37801  0.63991  0.69619  Biso   1.000  C
  C439     1.0000 0.32110  0.56150  0.71728  Biso   1.000  C
  N73      1.0000 0.29459  0.71359  0.52749  Biso   1.000  N
  H506     1.0000 0.25059  0.66041  0.55701  Biso   1.000  H
  H507     1.0000 0.36859  0.72599  0.60121  Biso   1.000  H
  C440     1.0000 0.39181  0.68399  0.66550  Biso   1.000  C
  H508     1.0000 0.39879  0.63141  0.72599  Biso   1.000  H
  N74      1.0000 0.28641  0.52749  0.70541  Biso   1.000  N
  H509     1.0000 0.33959  0.55701  0.74941  Biso   1.000  H
  C441     1.0000 0.25970  0.72129  0.48149  Biso   1.000  C
  C442     1.0000 0.43850  0.71728  0.67890  Biso   1.000  C
  C443     1.0000 0.27871  0.48149  0.74030  Biso   1.000  C
  C444     1.0000 0.29270  0.71070  0.43011  Biso   1.000  C
  C445     1.0000 0.24028  0.77869  0.48149  Biso   1.000  C
  H510     1.0000 0.22921  0.69659  0.48342  Biso   1.000  H
  N75      1.0000 0.47251  0.70541  0.71359  Biso   1.000  N
  H511     1.0000 0.44299  0.74941  0.66041  Biso   1.000  H
  C446     1.0000 0.22131  0.48149  0.75972  Biso   1.000  C
  H512     1.0000 0.30341  0.48342  0.77079  Biso   1.000  H
  C447     1.0000 0.28930  0.43011  0.70730  Biso   1.000  C
  C448     1.0000 0.25661  0.72202  0.38042  Biso   1.000  C
  H513     1.0000 0.30482  0.67369  0.42959  Biso   1.000  H
  H514     1.0000 0.32391  0.73389  0.42939  Biso   1.000  H
  C449     1.0000 0.20732  0.78932  0.43011  Biso   1.000  C
  N76      1.0000 0.20539  0.78639  0.52749  Biso   1.000  N
  H515     1.0000 0.27081  0.80339  0.48342  Biso   1.000  H
  C450     1.0000 0.51851  0.74030  0.72129  Biso   1.000  C
  N77      1.0000 0.21361  0.52749  0.79461  Biso   1.000  N
  H516     1.0000 0.19661  0.48342  0.72919  Biso   1.000  H
  C451     1.0000 0.21068  0.43011  0.79268  Biso   1.000  C
  H517     1.0000 0.32631  0.42959  0.69518  Biso   1.000  H
  H518     1.0000 0.26611  0.42939  0.67609  Biso   1.000  H
  C452     1.0000 0.27798  0.38042  0.74339  Biso   1.000  C
  C453     1.0000 0.24341  0.77801  0.38042  Biso   1.000  C
  H519     1.0000 0.27550  0.71271  0.34769  Biso   1.000  H
  H520     1.0000 0.22408  0.70072  0.38230  Biso   1.000  H
  H521     1.0000 0.19520  0.82629  0.42959  Biso   1.000  H
  H522     1.0000 0.17611  0.76609  0.42939  Biso   1.000  H
  C454     1.0000 0.21730  0.82108  0.56150  Biso   1.000  C
  C455     1.0000 0.51851  0.75972  0.77869  Biso   1.000  C
  H523     1.0000 0.51658  0.77079  0.69659  Biso   1.000  H
  C456     1.0000 0.56989  0.70730  0.71070  Biso   1.000  C
  C457     1.0000 0.17892  0.56150  0.78270  Biso   1.000  C
  H524     1.0000 0.17371  0.42959  0.80480  Biso   1.000  H
  H525     1.0000 0.23391  0.42939  0.82389  Biso   1.000  H
  C458     1.0000 0.22199  0.38042  0.75659  Biso   1.000  C
  H526     1.0000 0.28729  0.34769  0.72450  Biso   1.000  H
  H527     1.0000 0.29928  0.38230  0.77592  Biso   1.000  H
  H528     1.0000 0.22448  0.78731  0.34769  Biso   1.000  H
  H529     1.0000 0.27590  0.79930  0.38230  Biso   1.000  H
  C459     1.0000 0.18401  0.83452  0.60819  Biso   1.000  C
  H530     1.0000 0.24939  0.83961  0.55701  Biso   1.000  H
  N78      1.0000 0.47251  0.79461  0.78639  Biso   1.000  N
  H531     1.0000 0.51658  0.72919  0.80339  Biso   1.000  H
  C460     1.0000 0.56989  0.79268  0.78932  Biso   1.000  C
  H532     1.0000 0.57041  0.69518  0.67369  Biso   1.000  H
  H533     1.0000 0.57061  0.67609  0.73389  Biso   1.000  H
  C461     1.0000 0.61958  0.74339  0.72202  Biso   1.000  C
  C462     1.0000 0.16548  0.60819  0.81599  Biso   1.000  C
  H534     1.0000 0.16039  0.55701  0.75061  Biso   1.000  H
  H535     1.0000 0.21269  0.34769  0.77552  Biso   1.000  H
  H536     1.0000 0.20070  0.38230  0.72410  Biso   1.000  H
  C463     1.0000 0.13989  0.80379  0.62199  Biso   1.000  C
  C464     1.0000 0.19621  0.87799  0.63991  Biso   1.000  C
  C465     1.0000 0.43850  0.78270  0.82108  Biso   1.000  C
  H537     1.0000 0.57041  0.80480  0.82629  Biso   1.000  H
  H538     1.0000 0.57061  0.82389  0.76609  Biso   1.000  H
  C466     1.0000 0.61958  0.75659  0.77801  Biso   1.000  C
  H539     1.0000 0.65231  0.72450  0.71271  Biso   1.000  H
  H540     1.0000 0.61770  0.77592  0.70072  Biso   1.000  H
  C467     1.0000 0.19621  0.62199  0.86011  Biso   1.000  C
  C468     1.0000 0.12201  0.63991  0.80379  Biso   1.000  C
  H541     1.0000 0.13139  0.77399  0.60121  Biso   1.000  H
  C469     1.0000 0.10821  0.81599  0.66550  Biso   1.000  C
  H542     1.0000 0.22601  0.89881  0.63141  Biso   1.000  H
  C470     1.0000 0.16548  0.89179  0.68399  Biso   1.000  C
  C471     1.0000 0.39181  0.81599  0.83452  Biso   1.000  C
  H543     1.0000 0.44299  0.75061  0.83961  Biso   1.000  H
  H544     1.0000 0.65231  0.77552  0.78731  Biso   1.000  H
  H545     1.0000 0.61770  0.72410  0.79930  Biso   1.000  H
  H546     1.0000 0.22601  0.60121  0.86861  Biso   1.000  H
  C472     1.0000 0.18401  0.66550  0.89179  Biso   1.000  C
  C473     1.0000 0.10821  0.68399  0.83452  Biso   1.000  C
  H547     1.0000 0.10119  0.63141  0.77399  Biso   1.000  H
  C474     1.0000 0.12201  0.86011  0.69619  Biso   1.000  C
  C475     1.0000 0.06148  0.78270  0.67890  Biso   1.000  C
  C476     1.0000 0.17892  0.93852  0.71728  Biso   1.000  C
  C477     1.0000 0.36009  0.80379  0.87799  Biso   1.000  C
  C478     1.0000 0.37801  0.86011  0.80379  Biso   1.000  C
  C479     1.0000 0.13989  0.69619  0.87799  Biso   1.000  C
  C480     1.0000 0.21730  0.67890  0.93852  Biso   1.000  C
  C481     1.0000 0.06148  0.71728  0.82108  Biso   1.000  C
  H548     1.0000 0.10119  0.86861  0.72599  Biso   1.000  H
  N79      1.0000 0.02751  0.79461  0.71359  Biso   1.000  N
  H549     1.0000 0.05699  0.75061  0.66041  Biso   1.000  H
  N80      1.0000 0.21361  0.97249  0.70541  Biso   1.000  N
  H550     1.0000 0.16039  0.94301  0.74941  Biso   1.000  H
  H551     1.0000 0.36859  0.77399  0.89881  Biso   1.000  H
  C482     1.0000 0.31601  0.83452  0.89179  Biso   1.000  C
  C483     1.0000 0.33450  0.89179  0.81599  Biso   1.000  C
  H552     1.0000 0.39879  0.86861  0.77399  Biso   1.000  H
  H553     1.0000 0.13139  0.72599  0.89881  Biso   1.000  H
  N81      1.0000 0.20539  0.71359  0.97249  Biso   1.000  N
  H554     1.0000 0.24939  0.66041  0.94301  Biso   1.000  H
  N82      1.0000 0.02751  0.70541  0.78639  Biso   1.000  N
  H555     1.0000 0.05699  0.74941  0.83961  Biso   1.000  H
  C484     1.0000 0.98151  0.75972  0.72129  Biso   1.000  C
  C485     1.0000 0.22131  0.01849  0.74030  Biso   1.000  C
  C486     1.0000 0.30381  0.87799  0.86011  Biso   1.000  C
  C487     1.0000 0.28272  0.82108  0.93852  Biso   1.000  C
  C488     1.0000 0.32110  0.93852  0.78270  Biso   1.000  C
  C489     1.0000 0.24028  0.72129  0.01849  Biso   1.000  C
  C490     1.0000 0.98151  0.74030  0.77869  Biso   1.000  C
  H556     1.0000 0.98340  0.72919  0.69659  Biso   1.000  H
  C491     1.0000 0.93009  0.79268  0.71070  Biso   1.000  C
  C492     1.0000 0.27871  0.01849  0.75972  Biso   1.000  C
  H557     1.0000 0.19661  0.01660  0.77079  Biso   1.000  H
  C493     1.0000 0.21068  0.06991  0.70730  Biso   1.000  C
  H558     1.0000 0.27401  0.89881  0.86861  Biso   1.000  H
  N83      1.0000 0.29459  0.78639  0.97249  Biso   1.000  N
  H559     1.0000 0.25059  0.83961  0.94301  Biso   1.000  H
  N84      1.0000 0.28641  0.97249  0.79461  Biso   1.000  N
  H560     1.0000 0.33959  0.94301  0.75061  Biso   1.000  H
  C494     1.0000 0.25970  0.77869  0.01849  Biso   1.000  C
  H561     1.0000 0.27081  0.69659  0.01660  Biso   1.000  H
  C495     1.0000 0.20732  0.71070  0.06991  Biso   1.000  C
  H562     1.0000 0.98340  0.77079  0.80339  Biso   1.000  H
  C496     1.0000 0.93009  0.70730  0.78932  Biso   1.000  C
  H563     1.0000 0.92961  0.80480  0.67369  Biso   1.000  H
  H564     1.0000 0.92941  0.82389  0.73389  Biso   1.000  H
  C497     1.0000 0.88040  0.75659  0.72202  Biso   1.000  C
  H565     1.0000 0.30341  0.01660  0.72919  Biso   1.000  H
  C498     1.0000 0.28930  0.06991  0.79268  Biso   1.000  C
  H566     1.0000 0.17371  0.07039  0.69518  Biso   1.000  H
  H567     1.0000 0.23391  0.07059  0.67609  Biso   1.000  H
  C499     1.0000 0.22199  0.11960  0.74339  Biso   1.000  C
  H568     1.0000 0.22921  0.80339  0.01660  Biso   1.000  H
  C500     1.0000 0.29270  0.78932  0.06991  Biso   1.000  C
  H569     1.0000 0.19520  0.67369  0.07039  Biso   1.000  H
  H570     1.0000 0.17611  0.73389  0.07059  Biso   1.000  H
  C501     1.0000 0.24341  0.72202  0.11960  Biso   1.000  C
  H571     1.0000 0.92961  0.69518  0.82629  Biso   1.000  H
  H572     1.0000 0.92941  0.67609  0.76609  Biso   1.000  H
  C502     1.0000 0.88040  0.74339  0.77801  Biso   1.000  C
  H573     1.0000 0.84771  0.77552  0.71271  Biso   1.000  H
  H574     1.0000 0.88228  0.72410  0.70072  Biso   1.000  H
  H575     1.0000 0.32631  0.07039  0.80480  Biso   1.000  H
  H576     1.0000 0.26611  0.07059  0.82389  Biso   1.000  H
  C503     1.0000 0.27798  0.11960  0.75659  Biso   1.000  C
  H577     1.0000 0.21269  0.15229  0.72450  Biso   1.000  H
  H578     1.0000 0.20070  0.11772  0.77592  Biso   1.000  H
  H579     1.0000 0.30482  0.82629  0.07039  Biso   1.000  H
  H580     1.0000 0.32391  0.76609  0.07059  Biso   1.000  H
  C504     1.0000 0.25661  0.77801  0.11960  Biso   1.000  C
  H581     1.0000 0.22448  0.71271  0.15229  Biso   1.000  H
  H582     1.0000 0.27590  0.70072  0.11772  Biso   1.000  H
  H583     1.0000 0.84771  0.72450  0.78731  Biso   1.000  H
  H584     1.0000 0.88228  0.77592  0.79930  Biso   1.000  H
  H585     1.0000 0.28729  0.15229  0.77552  Biso   1.000  H
  H586     1.0000 0.29928  0.11772  0.72410  Biso   1.000  H
  H587     1.0000 0.27550  0.78731  0.15229  Biso   1.000  H
  H588     1.0000 0.22408  0.79930  0.11772  Biso   1.000  H
  Ne1      1.0000 0.25000  0.25000  0.25000  Biso   1.000  Ne
  He1      1.0000 0.18602  0.31399  0.31400  Biso   1.000  He
  He2      1.0000 0.31352  0.18650  0.31351  Biso   1.000  He
  He3      1.0000 0.18339  0.18339  0.18339  Biso   1.000  He
  He4      1.0000 0.31598  0.31599  0.18403  Biso   1.000  He
  Ar1      1.0000 0.25000  0.25000  0.25000  Biso   1.000  Ar
  Ne2      1.0000 0.50000  0.50000  0.00000  Biso   1.000  Ne
  He5      1.0000 0.43444  0.43444  0.06557  Biso   1.000  He
  He6      1.0000 0.56495  0.56495  0.06496  Biso   1.000  He
  He7      1.0000 0.56167  0.43833  0.93832  Biso   1.000  He
  He8      1.0000 0.43444  0.56556  0.93443  Biso   1.000  He
  Ar2      1.0000 0.50000  0.50000  1.00000  Biso   1.000  Ar
  Ne3      1.0000 0.50000  0.00000  0.50000  Biso   1.000  Ne
  He9      1.0000 0.43443  0.93441  0.56558  Biso   1.000  He
  He10     1.0000 0.56493  0.06494  0.56494  Biso   1.000  He
  He11     1.0000 0.56166  0.93834  0.43834  Biso   1.000  He
  He12     1.0000 0.43445  0.06556  0.43445  Biso   1.000  He
  Ar3      1.0000 0.50000  0.00000  0.50000  Biso   1.000  Ar
  Ne4      1.0000 0.00000  0.50000  0.50000  Biso   1.000  Ne
  He13     1.0000 0.93443  0.43444  0.56556  Biso   1.000  He
  He14     1.0000 0.06495  0.56494  0.56493  Biso   1.000  He
  He15     1.0000 0.06166  0.43834  0.43834  Biso   1.000  He
  He16     1.0000 0.93444  0.56555  0.43446  Biso   1.000  He
  Ar4      1.0000 0.00000  0.50000  0.50000  Biso   1.000  Ar
  Ne5      1.0000 0.75000  0.75000  0.25000  Biso   1.000  Ne
  He17     1.0000 0.68599  0.81399  0.31400  Biso   1.000  He
  He18     1.0000 0.81351  0.68648  0.31353  Biso   1.000  He
  He19     1.0000 0.68339  0.68338  0.18340  Biso   1.000  He
  He20     1.0000 0.81597  0.81597  0.18403  Biso   1.000  He
  Ar5      1.0000 0.75000  0.75000  0.25000  Biso   1.000  Ar
  Ne6      1.0000 0.75000  0.25000  0.75000  Biso   1.000  Ne
  He21     1.0000 0.68601  0.31400  0.81398  Biso   1.000  He
  He22     1.0000 0.81351  0.18649  0.81351  Biso   1.000  He
  He23     1.0000 0.68337  0.18340  0.68339  Biso   1.000  He
  He24     1.0000 0.81595  0.31596  0.68402  Biso   1.000  He
  Ar6      1.0000 0.75000  0.25000  0.75000  Biso   1.000  Ar
  Ne7      1.0000 0.25000  0.75000  0.75000  Biso   1.000  Ne
  He25     1.0000 0.18601  0.81399  0.81399  Biso   1.000  He
  He26     1.0000 0.31351  0.68648  0.81350  Biso   1.000  He
  He27     1.0000 0.18338  0.68337  0.68336  Biso   1.000  He
  He28     1.0000 0.31598  0.81595  0.68404  Biso   1.000  He
  Ar7      1.0000 0.25000  0.75000  0.75000  Biso   1.000  Ar
