data_image0
_cell_length_a       24.876
_cell_length_b       24.876
_cell_length_c       24.876
_cell_angle_alpha    90
_cell_angle_beta     90
_cell_angle_gamma    90

_symmetry_space_group_name_H-M    "P 1"
_symmetry_int_tables_number       1

loop_
  _symmetry_equiv_pos_as_xyz
  'x, y, z'

loop_
  _atom_site_label
  _atom_site_occupancy
  _atom_site_fract_x
  _atom_site_fract_y
  _atom_site_fract_z
  _atom_site_thermal_displace_type
  _atom_site_B_iso_or_equiv
  _atom_site_type_symbol
  C1       1.0000 0.50619  0.37000  0.47130  Biso   1.000  C
  C2       1.0000 0.54289  0.31999  0.46068  Biso   1.000  C
  C3       1.0000 0.49381  0.37000  0.52870  Biso   1.000  C
  H1       1.0000 0.52480  0.40280  0.46141  Biso   1.000  H
  H2       1.0000 0.47351  0.36750  0.45031  Biso   1.000  H
  C4       1.0000 0.50969  0.26821  0.47110  Biso   1.000  C
  H3       1.0000 0.55572  0.32039  0.42390  Biso   1.000  H
  H4       1.0000 0.57381  0.32091  0.48448  Biso   1.000  H
  C5       1.0000 0.45711  0.31999  0.53932  Biso   1.000  C
  H5       1.0000 0.47520  0.40280  0.53859  Biso   1.000  H
  H6       1.0000 0.52649  0.36750  0.54969  Biso   1.000  H
  N1       1.0000 0.54438  0.22238  0.46322  Biso   1.000  N
  C6       1.0000 0.49031  0.26821  0.52890  Biso   1.000  C
  H7       1.0000 0.47902  0.26640  0.44641  Biso   1.000  H
  H8       1.0000 0.44428  0.32039  0.57610  Biso   1.000  H
  H9       1.0000 0.42619  0.32091  0.51552  Biso   1.000  H
  C7       1.0000 0.53212  0.18809  0.42840  Biso   1.000  C
  N2       1.0000 0.45562  0.22238  0.53678  Biso   1.000  N
  H10      1.0000 0.52098  0.26640  0.55359  Biso   1.000  H
  C8       1.0000 0.56601  0.14170  0.41538  Biso   1.000  C
  H11      1.0000 0.49980  0.19231  0.40999  Biso   1.000  H
  C9       1.0000 0.46788  0.18809  0.57160  Biso   1.000  C
  C10      1.0000 0.55359  0.10950  0.37188  Biso   1.000  C
  C11      1.0000 0.60950  0.12812  0.44641  Biso   1.000  C
  C12      1.0000 0.43399  0.14170  0.58462  Biso   1.000  C
  H12      1.0000 0.50020  0.19231  0.59001  Biso   1.000  H
  H13      1.0000 0.52352  0.11758  0.35118  Biso   1.000  H
  C13      1.0000 0.58462  0.06601  0.35830  Biso   1.000  C
  H14      1.0000 0.61758  0.14882  0.47648  Biso   1.000  H
  C14      1.0000 0.64170  0.08462  0.43399  Biso   1.000  C
  C15      1.0000 0.39050  0.12812  0.55359  Biso   1.000  C
  C16      1.0000 0.44641  0.10950  0.62812  Biso   1.000  C
  C17      1.0000 0.62812  0.05359  0.39050  Biso   1.000  C
  C18      1.0000 0.57160  0.03212  0.31191  Biso   1.000  C
  C19      1.0000 0.68809  0.07160  0.46788  Biso   1.000  C
  H15      1.0000 0.38242  0.14882  0.52352  Biso   1.000  H
  C20      1.0000 0.35830  0.08462  0.56601  Biso   1.000  C
  H16      1.0000 0.47648  0.11758  0.64882  Biso   1.000  H
  C21      1.0000 0.41538  0.06601  0.64170  Biso   1.000  C
  H17      1.0000 0.64882  0.02352  0.38242  Biso   1.000  H
  N3       1.0000 0.53678  0.04438  0.27762  Biso   1.000  N
  H18      1.0000 0.59001  0.99980  0.30769  Biso   1.000  H
  N4       1.0000 0.72238  0.03678  0.45562  Biso   1.000  N
  H19      1.0000 0.69231  0.09001  0.50020  Biso   1.000  H
  C22      1.0000 0.37188  0.05359  0.60950  Biso   1.000  C
  C23      1.0000 0.31191  0.07160  0.53212  Biso   1.000  C
  C24      1.0000 0.42840  0.03212  0.68809  Biso   1.000  C
  C25      1.0000 0.52890  0.00969  0.23179  Biso   1.000  C
  C26      1.0000 0.76821  0.02890  0.49031  Biso   1.000  C
  H20      1.0000 0.35118  0.02352  0.61758  Biso   1.000  H
  N5       1.0000 0.27762  0.03678  0.54438  Biso   1.000  N
  H21      1.0000 0.30769  0.09001  0.49980  Biso   1.000  H
  N6       1.0000 0.46322  0.04438  0.72238  Biso   1.000  N
  H22      1.0000 0.40999  0.99980  0.69231  Biso   1.000  H
  C27      1.0000 0.53932  0.04289  0.18001  Biso   1.000  C
  C28      1.0000 0.47110  0.99031  0.23179  Biso   1.000  C
  H23      1.0000 0.55359  0.97902  0.23360  Biso   1.000  H
  H24      1.0000 0.76640  0.05359  0.52098  Biso   1.000  H
  C29      1.0000 0.81999  0.03932  0.45711  Biso   1.000  C
  C30      1.0000 0.76821  0.97110  0.50969  Biso   1.000  C
  C31      1.0000 0.23179  0.02890  0.50969  Biso   1.000  C
  C32      1.0000 0.47110  0.00969  0.76821  Biso   1.000  C
  H25      1.0000 0.57610  0.05572  0.17961  Biso   1.000  H
  H26      1.0000 0.51552  0.07381  0.17909  Biso   1.000  H
  C33      1.0000 0.52870  0.00619  0.13000  Biso   1.000  C
  H27      1.0000 0.44641  0.02098  0.23360  Biso   1.000  H
  N7       1.0000 0.46322  0.95562  0.27762  Biso   1.000  N
  C34      1.0000 0.46068  0.95711  0.18001  Biso   1.000  C
  H28      1.0000 0.82039  0.07610  0.44428  Biso   1.000  H
  H29      1.0000 0.82091  0.01552  0.42619  Biso   1.000  H
  C35      1.0000 0.87000  0.02870  0.49381  Biso   1.000  C
  N8       1.0000 0.72238  0.96322  0.54438  Biso   1.000  N
  H30      1.0000 0.76640  0.94641  0.47902  Biso   1.000  H
  C36      1.0000 0.81999  0.96068  0.54289  Biso   1.000  C
  H31      1.0000 0.23360  0.05359  0.47902  Biso   1.000  H
  C37      1.0000 0.18001  0.03932  0.54289  Biso   1.000  C
  C38      1.0000 0.23179  0.97110  0.49031  Biso   1.000  C
  C39      1.0000 0.46068  0.04289  0.81999  Biso   1.000  C
  C40      1.0000 0.52890  0.99031  0.76821  Biso   1.000  C
  H32      1.0000 0.44641  0.97902  0.76640  Biso   1.000  H
  H33      1.0000 0.53859  0.02480  0.09720  Biso   1.000  H
  C41      1.0000 0.47130  0.99381  0.13000  Biso   1.000  C
  H34      1.0000 0.54969  0.97351  0.13250  Biso   1.000  H
  C42      1.0000 0.42840  0.96788  0.31191  Biso   1.000  C
  H35      1.0000 0.42390  0.94428  0.17961  Biso   1.000  H
  H36      1.0000 0.48448  0.92619  0.17909  Biso   1.000  H
  H37      1.0000 0.90280  0.03859  0.47520  Biso   1.000  H
  H38      1.0000 0.86750  0.04969  0.52649  Biso   1.000  H
  C43      1.0000 0.87000  0.97130  0.50619  Biso   1.000  C
  C44      1.0000 0.68809  0.92840  0.53212  Biso   1.000  C
  H39      1.0000 0.82039  0.92390  0.55572  Biso   1.000  H
  H40      1.0000 0.82091  0.98448  0.57381  Biso   1.000  H
  H41      1.0000 0.17961  0.07610  0.55572  Biso   1.000  H
  H42      1.0000 0.17909  0.01552  0.57381  Biso   1.000  H
  C45      1.0000 0.13000  0.02870  0.50619  Biso   1.000  C
  N9       1.0000 0.27762  0.96322  0.45562  Biso   1.000  N
  H43      1.0000 0.23360  0.94641  0.52098  Biso   1.000  H
  C46      1.0000 0.18001  0.96068  0.45711  Biso   1.000  C
  H44      1.0000 0.42390  0.05572  0.82039  Biso   1.000  H
  H45      1.0000 0.48448  0.07381  0.82091  Biso   1.000  H
  C47      1.0000 0.47130  0.00619  0.87000  Biso   1.000  C
  H46      1.0000 0.55359  0.02098  0.76640  Biso   1.000  H
  N10      1.0000 0.53678  0.95562  0.72238  Biso   1.000  N
  C48      1.0000 0.53932  0.95711  0.81999  Biso   1.000  C
  H47      1.0000 0.45031  0.02649  0.13250  Biso   1.000  H
  H48      1.0000 0.46141  0.97520  0.09720  Biso   1.000  H
  H49      1.0000 0.40999  0.00020  0.30769  Biso   1.000  H
  C49      1.0000 0.41538  0.93399  0.35830  Biso   1.000  C
  H50      1.0000 0.90280  0.96141  0.52480  Biso   1.000  H
  H51      1.0000 0.86750  0.95031  0.47351  Biso   1.000  H
  C50      1.0000 0.64170  0.91538  0.56601  Biso   1.000  C
  H52      1.0000 0.69231  0.90999  0.49980  Biso   1.000  H
  H53      1.0000 0.09720  0.03859  0.52480  Biso   1.000  H
  H54      1.0000 0.13250  0.04969  0.47351  Biso   1.000  H
  C51      1.0000 0.13000  0.97130  0.49381  Biso   1.000  C
  C52      1.0000 0.31191  0.92840  0.46788  Biso   1.000  C
  H55      1.0000 0.17961  0.92390  0.44428  Biso   1.000  H
  H56      1.0000 0.17909  0.98448  0.42619  Biso   1.000  H
  H57      1.0000 0.46141  0.02480  0.90280  Biso   1.000  H
  C53      1.0000 0.52870  0.99381  0.87000  Biso   1.000  C
  H58      1.0000 0.45031  0.97351  0.86750  Biso   1.000  H
  C54      1.0000 0.57160  0.96788  0.68809  Biso   1.000  C
  H59      1.0000 0.57610  0.94428  0.82039  Biso   1.000  H
  H60      1.0000 0.51552  0.92619  0.82091  Biso   1.000  H
  C55      1.0000 0.44641  0.89050  0.37188  Biso   1.000  C
  C56      1.0000 0.37188  0.94641  0.39050  Biso   1.000  C
  C57      1.0000 0.60950  0.87188  0.55359  Biso   1.000  C
  C58      1.0000 0.62812  0.94641  0.60950  Biso   1.000  C
  H61      1.0000 0.09720  0.96141  0.47520  Biso   1.000  H
  H62      1.0000 0.13250  0.95031  0.52649  Biso   1.000  H
  C59      1.0000 0.35830  0.91538  0.43399  Biso   1.000  C
  H63      1.0000 0.30769  0.90999  0.50020  Biso   1.000  H
  H64      1.0000 0.54969  0.02649  0.86750  Biso   1.000  H
  H65      1.0000 0.53859  0.97520  0.90280  Biso   1.000  H
  C60      1.0000 0.58462  0.93399  0.64170  Biso   1.000  C
  H66      1.0000 0.59001  0.00020  0.69231  Biso   1.000  H
  H67      1.0000 0.47648  0.88242  0.35118  Biso   1.000  H
  C61      1.0000 0.43399  0.85830  0.41538  Biso   1.000  C
  H68      1.0000 0.35118  0.97648  0.38242  Biso   1.000  H
  H69      1.0000 0.61758  0.85118  0.52352  Biso   1.000  H
  C62      1.0000 0.56601  0.85830  0.58462  Biso   1.000  C
  H70      1.0000 0.64882  0.97648  0.61758  Biso   1.000  H
  C63      1.0000 0.39050  0.87188  0.44641  Biso   1.000  C
  C64      1.0000 0.55359  0.89050  0.62812  Biso   1.000  C
  C65      1.0000 0.46788  0.81191  0.42840  Biso   1.000  C
  C66      1.0000 0.53212  0.81191  0.57160  Biso   1.000  C
  H71      1.0000 0.38242  0.85118  0.47648  Biso   1.000  H
  H72      1.0000 0.52352  0.88242  0.64882  Biso   1.000  H
  N11      1.0000 0.45562  0.77762  0.46322  Biso   1.000  N
  H73      1.0000 0.50020  0.80769  0.40999  Biso   1.000  H
  N12      1.0000 0.54438  0.77762  0.53678  Biso   1.000  N
  H74      1.0000 0.49980  0.80769  0.59001  Biso   1.000  H
  C67      1.0000 0.49031  0.73179  0.47110  Biso   1.000  C
  C68      1.0000 0.50969  0.73179  0.52890  Biso   1.000  C
  H75      1.0000 0.52098  0.73360  0.44641  Biso   1.000  H
  C69      1.0000 0.45711  0.68001  0.46068  Biso   1.000  C
  H76      1.0000 0.47902  0.73360  0.55359  Biso   1.000  H
  C70      1.0000 0.54289  0.68001  0.53932  Biso   1.000  C
  H77      1.0000 0.44428  0.67961  0.42390  Biso   1.000  H
  H78      1.0000 0.42619  0.67909  0.48448  Biso   1.000  H
  C71      1.0000 0.49381  0.63000  0.47130  Biso   1.000  C
  H79      1.0000 0.55572  0.67961  0.57610  Biso   1.000  H
  H80      1.0000 0.57381  0.67909  0.51552  Biso   1.000  H
  C72      1.0000 0.50619  0.63000  0.52870  Biso   1.000  C
  H81      1.0000 0.47520  0.59720  0.46141  Biso   1.000  H
  H82      1.0000 0.52649  0.63250  0.45031  Biso   1.000  H
  H83      1.0000 0.52480  0.59720  0.53859  Biso   1.000  H
  H84      1.0000 0.47351  0.63250  0.54969  Biso   1.000  H
  C73      1.0000 0.47130  0.50619  0.37000  Biso   1.000  C
  C74      1.0000 0.46068  0.54289  0.31999  Biso   1.000  C
  C75      1.0000 0.52870  0.49381  0.37000  Biso   1.000  C
  H85      1.0000 0.46141  0.52480  0.40280  Biso   1.000  H
  H86      1.0000 0.45031  0.47351  0.36750  Biso   1.000  H
  C76      1.0000 0.47110  0.50969  0.26821  Biso   1.000  C
  H87      1.0000 0.42390  0.55572  0.32039  Biso   1.000  H
  H88      1.0000 0.48448  0.57381  0.32091  Biso   1.000  H
  C77      1.0000 0.53932  0.45711  0.31999  Biso   1.000  C
  H89      1.0000 0.53859  0.47520  0.40280  Biso   1.000  H
  H90      1.0000 0.54969  0.52649  0.36750  Biso   1.000  H
  C78      1.0000 0.52890  0.49031  0.26821  Biso   1.000  C
  N13      1.0000 0.46322  0.54438  0.22238  Biso   1.000  N
  H91      1.0000 0.44641  0.47902  0.26640  Biso   1.000  H
  H92      1.0000 0.57610  0.44428  0.32039  Biso   1.000  H
  H93      1.0000 0.51552  0.42619  0.32091  Biso   1.000  H
  N14      1.0000 0.53678  0.45562  0.22238  Biso   1.000  N
  H94      1.0000 0.55359  0.52098  0.26640  Biso   1.000  H
  C79      1.0000 0.42840  0.53212  0.18809  Biso   1.000  C
  C80      1.0000 0.57160  0.46788  0.18809  Biso   1.000  C
  C81      1.0000 0.41538  0.56601  0.14170  Biso   1.000  C
  H95      1.0000 0.40999  0.49980  0.19231  Biso   1.000  H
  C82      1.0000 0.58462  0.43399  0.14170  Biso   1.000  C
  H96      1.0000 0.59001  0.50020  0.19231  Biso   1.000  H
  C83      1.0000 0.37188  0.55359  0.10950  Biso   1.000  C
  C84      1.0000 0.44641  0.60950  0.12812  Biso   1.000  C
  C85      1.0000 0.55359  0.39050  0.12812  Biso   1.000  C
  C86      1.0000 0.62812  0.44641  0.10950  Biso   1.000  C
  H97      1.0000 0.35118  0.52352  0.11758  Biso   1.000  H
  C87      1.0000 0.35830  0.58462  0.06601  Biso   1.000  C
  H98      1.0000 0.47648  0.61758  0.14882  Biso   1.000  H
  C88      1.0000 0.43399  0.64170  0.08462  Biso   1.000  C
  C89      1.0000 0.56601  0.35830  0.08462  Biso   1.000  C
  H99      1.0000 0.52352  0.38242  0.14882  Biso   1.000  H
  C90      1.0000 0.64170  0.41538  0.06601  Biso   1.000  C
  H100     1.0000 0.64882  0.47648  0.11758  Biso   1.000  H
  C91      1.0000 0.39050  0.62812  0.05359  Biso   1.000  C
  C92      1.0000 0.31191  0.57160  0.03212  Biso   1.000  C
  C93      1.0000 0.46788  0.68809  0.07160  Biso   1.000  C
  C94      1.0000 0.53212  0.31191  0.07160  Biso   1.000  C
  C95      1.0000 0.60950  0.37188  0.05359  Biso   1.000  C
  C96      1.0000 0.68809  0.42840  0.03212  Biso   1.000  C
  H101     1.0000 0.38242  0.64882  0.02352  Biso   1.000  H
  N15      1.0000 0.27762  0.53678  0.04438  Biso   1.000  N
  H102     1.0000 0.30769  0.59001  0.99980  Biso   1.000  H
  N16      1.0000 0.45562  0.72238  0.03678  Biso   1.000  N
  H103     1.0000 0.50020  0.69231  0.09001  Biso   1.000  H
  N17      1.0000 0.54438  0.27762  0.03678  Biso   1.000  N
  H104     1.0000 0.49980  0.30769  0.09001  Biso   1.000  H
  H105     1.0000 0.61758  0.35118  0.02352  Biso   1.000  H
  N18      1.0000 0.72238  0.46322  0.04438  Biso   1.000  N
  H106     1.0000 0.69231  0.40999  0.99980  Biso   1.000  H
  C97      1.0000 0.23179  0.52890  0.00969  Biso   1.000  C
  C98      1.0000 0.49031  0.76821  0.02890  Biso   1.000  C
  C99      1.0000 0.50969  0.23179  0.02890  Biso   1.000  C
  C100     1.0000 0.76821  0.47110  0.00969  Biso   1.000  C
  C101     1.0000 0.23179  0.47110  0.99031  Biso   1.000  C
  C102     1.0000 0.18001  0.53932  0.04289  Biso   1.000  C
  H107     1.0000 0.23360  0.55359  0.97902  Biso   1.000  H
  C103     1.0000 0.50969  0.76821  0.97110  Biso   1.000  C
  H108     1.0000 0.52098  0.76640  0.05359  Biso   1.000  H
  C104     1.0000 0.45711  0.81999  0.03932  Biso   1.000  C
  H109     1.0000 0.47902  0.23360  0.05359  Biso   1.000  H
  C105     1.0000 0.54289  0.18001  0.03932  Biso   1.000  C
  C106     1.0000 0.49031  0.23179  0.97110  Biso   1.000  C
  C107     1.0000 0.81999  0.46068  0.04289  Biso   1.000  C
  C108     1.0000 0.76821  0.52890  0.99031  Biso   1.000  C
  H110     1.0000 0.76640  0.44641  0.97902  Biso   1.000  H
  N19      1.0000 0.27762  0.46322  0.95562  Biso   1.000  N
  H111     1.0000 0.23360  0.44641  0.02098  Biso   1.000  H
  C109     1.0000 0.18001  0.46068  0.95711  Biso   1.000  C
  H112     1.0000 0.17961  0.57610  0.05572  Biso   1.000  H
  H113     1.0000 0.17909  0.51552  0.07381  Biso   1.000  H
  C110     1.0000 0.13000  0.52870  0.00619  Biso   1.000  C
  N20      1.0000 0.54438  0.72238  0.96322  Biso   1.000  N
  H114     1.0000 0.47902  0.76640  0.94641  Biso   1.000  H
  C111     1.0000 0.54289  0.81999  0.96068  Biso   1.000  C
  H115     1.0000 0.44428  0.82039  0.07610  Biso   1.000  H
  H116     1.0000 0.42619  0.82091  0.01552  Biso   1.000  H
  C112     1.0000 0.49381  0.87000  0.02870  Biso   1.000  C
  H117     1.0000 0.55572  0.17961  0.07610  Biso   1.000  H
  H118     1.0000 0.57381  0.17909  0.01552  Biso   1.000  H
  C113     1.0000 0.50619  0.13000  0.02870  Biso   1.000  C
  N21      1.0000 0.45562  0.27762  0.96322  Biso   1.000  N
  H119     1.0000 0.52098  0.23360  0.94641  Biso   1.000  H
  C114     1.0000 0.45711  0.18001  0.96068  Biso   1.000  C
  H120     1.0000 0.82039  0.42390  0.05572  Biso   1.000  H
  H121     1.0000 0.82091  0.48448  0.07381  Biso   1.000  H
  C115     1.0000 0.87000  0.47130  0.00619  Biso   1.000  C
  H122     1.0000 0.76640  0.55359  0.02098  Biso   1.000  H
  N22      1.0000 0.72238  0.53678  0.95562  Biso   1.000  N
  C116     1.0000 0.81999  0.53932  0.95711  Biso   1.000  C
  C117     1.0000 0.31191  0.42840  0.96788  Biso   1.000  C
  H123     1.0000 0.17961  0.42390  0.94428  Biso   1.000  H
  H124     1.0000 0.17909  0.48448  0.92619  Biso   1.000  H
  C118     1.0000 0.13000  0.47130  0.99381  Biso   1.000  C
  H125     1.0000 0.09720  0.53859  0.02480  Biso   1.000  H
  H126     1.0000 0.13250  0.54969  0.97351  Biso   1.000  H
  C119     1.0000 0.53212  0.68809  0.92840  Biso   1.000  C
  H127     1.0000 0.55572  0.82039  0.92390  Biso   1.000  H
  H128     1.0000 0.57381  0.82091  0.98448  Biso   1.000  H
  C120     1.0000 0.50619  0.87000  0.97130  Biso   1.000  C
  H129     1.0000 0.47520  0.90280  0.03859  Biso   1.000  H
  H130     1.0000 0.52649  0.86750  0.04969  Biso   1.000  H
  H131     1.0000 0.52480  0.09720  0.03859  Biso   1.000  H
  H132     1.0000 0.47351  0.13250  0.04969  Biso   1.000  H
  C121     1.0000 0.49381  0.13000  0.97130  Biso   1.000  C
  C122     1.0000 0.46788  0.31191  0.92840  Biso   1.000  C
  H133     1.0000 0.44428  0.17961  0.92390  Biso   1.000  H
  H134     1.0000 0.42619  0.17909  0.98448  Biso   1.000  H
  H135     1.0000 0.90280  0.46141  0.02480  Biso   1.000  H
  C123     1.0000 0.87000  0.52870  0.99381  Biso   1.000  C
  H136     1.0000 0.86750  0.45031  0.97351  Biso   1.000  H
  C124     1.0000 0.68809  0.57160  0.96788  Biso   1.000  C
  H137     1.0000 0.82039  0.57610  0.94428  Biso   1.000  H
  H138     1.0000 0.82091  0.51552  0.92619  Biso   1.000  H
  C125     1.0000 0.35830  0.41538  0.93399  Biso   1.000  C
  H139     1.0000 0.30769  0.40999  0.00020  Biso   1.000  H
  H140     1.0000 0.13250  0.45031  0.02649  Biso   1.000  H
  H141     1.0000 0.09720  0.46141  0.97520  Biso   1.000  H
  C126     1.0000 0.56601  0.64170  0.91538  Biso   1.000  C
  H142     1.0000 0.49980  0.69231  0.90999  Biso   1.000  H
  H143     1.0000 0.52480  0.90280  0.96141  Biso   1.000  H
  H144     1.0000 0.47351  0.86750  0.95031  Biso   1.000  H
  H145     1.0000 0.47520  0.09720  0.96141  Biso   1.000  H
  H146     1.0000 0.52649  0.13250  0.95031  Biso   1.000  H
  C127     1.0000 0.43399  0.35830  0.91538  Biso   1.000  C
  H147     1.0000 0.50020  0.30769  0.90999  Biso   1.000  H
  H148     1.0000 0.86750  0.54969  0.02649  Biso   1.000  H
  H149     1.0000 0.90280  0.53859  0.97520  Biso   1.000  H
  H150     1.0000 0.69231  0.59001  0.00020  Biso   1.000  H
  C128     1.0000 0.64170  0.58462  0.93399  Biso   1.000  C
  C129     1.0000 0.39050  0.37188  0.94641  Biso   1.000  C
  C130     1.0000 0.37188  0.44641  0.89050  Biso   1.000  C
  C131     1.0000 0.60950  0.62812  0.94641  Biso   1.000  C
  C132     1.0000 0.55359  0.60950  0.87188  Biso   1.000  C
  C133     1.0000 0.44641  0.39050  0.87188  Biso   1.000  C
  C134     1.0000 0.62812  0.55359  0.89050  Biso   1.000  C
  H151     1.0000 0.38242  0.35118  0.97648  Biso   1.000  H
  C135     1.0000 0.41538  0.43399  0.85830  Biso   1.000  C
  H152     1.0000 0.35118  0.47648  0.88242  Biso   1.000  H
  H153     1.0000 0.61758  0.64882  0.97648  Biso   1.000  H
  C136     1.0000 0.58462  0.56601  0.85830  Biso   1.000  C
  H154     1.0000 0.52352  0.61758  0.85118  Biso   1.000  H
  H155     1.0000 0.47648  0.38242  0.85118  Biso   1.000  H
  H156     1.0000 0.64882  0.52352  0.88242  Biso   1.000  H
  C137     1.0000 0.42840  0.46788  0.81191  Biso   1.000  C
  C138     1.0000 0.57160  0.53212  0.81191  Biso   1.000  C
  N23      1.0000 0.46322  0.45562  0.77762  Biso   1.000  N
  H157     1.0000 0.40999  0.50020  0.80769  Biso   1.000  H
  N24      1.0000 0.53678  0.54438  0.77762  Biso   1.000  N
  H158     1.0000 0.59001  0.49980  0.80769  Biso   1.000  H
  C139     1.0000 0.47110  0.49031  0.73179  Biso   1.000  C
  C140     1.0000 0.52890  0.50969  0.73179  Biso   1.000  C
  H159     1.0000 0.44641  0.52098  0.73360  Biso   1.000  H
  C141     1.0000 0.46068  0.45711  0.68001  Biso   1.000  C
  H160     1.0000 0.55359  0.47902  0.73360  Biso   1.000  H
  C142     1.0000 0.53932  0.54289  0.68001  Biso   1.000  C
  H161     1.0000 0.42390  0.44428  0.67961  Biso   1.000  H
  H162     1.0000 0.48448  0.42619  0.67909  Biso   1.000  H
  C143     1.0000 0.47130  0.49381  0.63000  Biso   1.000  C
  H163     1.0000 0.57610  0.55572  0.67961  Biso   1.000  H
  H164     1.0000 0.51552  0.57381  0.67909  Biso   1.000  H
  C144     1.0000 0.52870  0.50619  0.63000  Biso   1.000  C
  H165     1.0000 0.46141  0.47520  0.59720  Biso   1.000  H
  H166     1.0000 0.45031  0.52649  0.63250  Biso   1.000  H
  H167     1.0000 0.53859  0.52480  0.59720  Biso   1.000  H
  H168     1.0000 0.54969  0.47351  0.63250  Biso   1.000  H
  C145     1.0000 0.37000  0.47130  0.50619  Biso   1.000  C
  C146     1.0000 0.31999  0.46068  0.54289  Biso   1.000  C
  C147     1.0000 0.37000  0.52870  0.49381  Biso   1.000  C
  H169     1.0000 0.40280  0.46141  0.52480  Biso   1.000  H
  H170     1.0000 0.36750  0.45031  0.47351  Biso   1.000  H
  C148     1.0000 0.26821  0.47110  0.50969  Biso   1.000  C
  H171     1.0000 0.32039  0.42390  0.55572  Biso   1.000  H
  H172     1.0000 0.32091  0.48448  0.57381  Biso   1.000  H
  C149     1.0000 0.31999  0.53932  0.45711  Biso   1.000  C
  H173     1.0000 0.40280  0.53859  0.47520  Biso   1.000  H
  H174     1.0000 0.36750  0.54969  0.52649  Biso   1.000  H
  N25      1.0000 0.22238  0.46322  0.54438  Biso   1.000  N
  C150     1.0000 0.26821  0.52890  0.49031  Biso   1.000  C
  H175     1.0000 0.26640  0.44641  0.47902  Biso   1.000  H
  H176     1.0000 0.32039  0.57610  0.44428  Biso   1.000  H
  H177     1.0000 0.32091  0.51552  0.42619  Biso   1.000  H
  C151     1.0000 0.18809  0.42840  0.53212  Biso   1.000  C
  N26      1.0000 0.22238  0.53678  0.45562  Biso   1.000  N
  H178     1.0000 0.26640  0.55359  0.52098  Biso   1.000  H
  C152     1.0000 0.14170  0.41538  0.56601  Biso   1.000  C
  H179     1.0000 0.19231  0.40999  0.49980  Biso   1.000  H
  C153     1.0000 0.18809  0.57160  0.46788  Biso   1.000  C
  C154     1.0000 0.12812  0.44641  0.60950  Biso   1.000  C
  C155     1.0000 0.10950  0.37188  0.55359  Biso   1.000  C
  C156     1.0000 0.14170  0.58462  0.43399  Biso   1.000  C
  H180     1.0000 0.19231  0.59001  0.50020  Biso   1.000  H
  H181     1.0000 0.14882  0.47648  0.61758  Biso   1.000  H
  C157     1.0000 0.08462  0.43399  0.64170  Biso   1.000  C
  H182     1.0000 0.11758  0.35118  0.52352  Biso   1.000  H
  C158     1.0000 0.06601  0.35830  0.58462  Biso   1.000  C
  C159     1.0000 0.10950  0.62812  0.44641  Biso   1.000  C
  C160     1.0000 0.12812  0.55359  0.39050  Biso   1.000  C
  C161     1.0000 0.05359  0.39050  0.62812  Biso   1.000  C
  C162     1.0000 0.07160  0.46788  0.68809  Biso   1.000  C
  C163     1.0000 0.03212  0.31191  0.57160  Biso   1.000  C
  H183     1.0000 0.11758  0.64882  0.47648  Biso   1.000  H
  C164     1.0000 0.06601  0.64170  0.41538  Biso   1.000  C
  H184     1.0000 0.14882  0.52352  0.38242  Biso   1.000  H
  C165     1.0000 0.08462  0.56601  0.35830  Biso   1.000  C
  H185     1.0000 0.02352  0.38242  0.64882  Biso   1.000  H
  N27      1.0000 0.03678  0.45562  0.72238  Biso   1.000  N
  H186     1.0000 0.09001  0.50020  0.69231  Biso   1.000  H
  N28      1.0000 0.04438  0.27762  0.53678  Biso   1.000  N
  H187     1.0000 0.99980  0.30769  0.59001  Biso   1.000  H
  C166     1.0000 0.05359  0.60950  0.37188  Biso   1.000  C
  C167     1.0000 0.03212  0.68809  0.42840  Biso   1.000  C
  C168     1.0000 0.07160  0.53212  0.31191  Biso   1.000  C
  C169     1.0000 0.02890  0.49031  0.76821  Biso   1.000  C
  C170     1.0000 0.00969  0.23179  0.52890  Biso   1.000  C
  H188     1.0000 0.02352  0.61758  0.35118  Biso   1.000  H
  N29      1.0000 0.04438  0.72238  0.46322  Biso   1.000  N
  H189     1.0000 0.99980  0.69231  0.40999  Biso   1.000  H
  N30      1.0000 0.03678  0.54438  0.27762  Biso   1.000  N
  H190     1.0000 0.09001  0.49980  0.30769  Biso   1.000  H
  H191     1.0000 0.05359  0.52098  0.76640  Biso   1.000  H
  C171     1.0000 0.03932  0.45711  0.81999  Biso   1.000  C
  C172     1.0000 0.97110  0.50969  0.76821  Biso   1.000  C
  C173     1.0000 0.04289  0.18001  0.53932  Biso   1.000  C
  C174     1.0000 0.99031  0.23179  0.47110  Biso   1.000  C
  H192     1.0000 0.97902  0.23360  0.55359  Biso   1.000  H
  C175     1.0000 0.00969  0.76821  0.47110  Biso   1.000  C
  C176     1.0000 0.02890  0.50969  0.23179  Biso   1.000  C
  H193     1.0000 0.07610  0.44428  0.82039  Biso   1.000  H
  H194     1.0000 0.01552  0.42619  0.82091  Biso   1.000  H
  C177     1.0000 0.02870  0.49381  0.87000  Biso   1.000  C
  N31      1.0000 0.96322  0.54438  0.72238  Biso   1.000  N
  H195     1.0000 0.94641  0.47902  0.76640  Biso   1.000  H
  C178     1.0000 0.96068  0.54289  0.81999  Biso   1.000  C
  H196     1.0000 0.05572  0.17961  0.57610  Biso   1.000  H
  H197     1.0000 0.07381  0.17909  0.51552  Biso   1.000  H
  C179     1.0000 0.00619  0.13000  0.52870  Biso   1.000  C
  H198     1.0000 0.02098  0.23360  0.44641  Biso   1.000  H
  N32      1.0000 0.95562  0.27762  0.46322  Biso   1.000  N
  C180     1.0000 0.95711  0.18001  0.46068  Biso   1.000  C
  C181     1.0000 0.04289  0.81999  0.46068  Biso   1.000  C
  C182     1.0000 0.99031  0.76821  0.52890  Biso   1.000  C
  H199     1.0000 0.97902  0.76640  0.44641  Biso   1.000  H
  H200     1.0000 0.05359  0.47902  0.23360  Biso   1.000  H
  C183     1.0000 0.03932  0.54289  0.18001  Biso   1.000  C
  C184     1.0000 0.97110  0.49031  0.23179  Biso   1.000  C
  H201     1.0000 0.03859  0.47520  0.90280  Biso   1.000  H
  H202     1.0000 0.04969  0.52649  0.86750  Biso   1.000  H
  C185     1.0000 0.97130  0.50619  0.87000  Biso   1.000  C
  C186     1.0000 0.92840  0.53212  0.68809  Biso   1.000  C
  H203     1.0000 0.92390  0.55572  0.82039  Biso   1.000  H
  H204     1.0000 0.98448  0.57381  0.82091  Biso   1.000  H
  H205     1.0000 0.02480  0.09720  0.53859  Biso   1.000  H
  C187     1.0000 0.99381  0.13000  0.47130  Biso   1.000  C
  H206     1.0000 0.97351  0.13250  0.54969  Biso   1.000  H
  C188     1.0000 0.96788  0.31191  0.42840  Biso   1.000  C
  H207     1.0000 0.94428  0.17961  0.42390  Biso   1.000  H
  H208     1.0000 0.92619  0.17909  0.48448  Biso   1.000  H
  H209     1.0000 0.05572  0.82039  0.42390  Biso   1.000  H
  H210     1.0000 0.07381  0.82091  0.48448  Biso   1.000  H
  C189     1.0000 0.00619  0.87000  0.47130  Biso   1.000  C
  H211     1.0000 0.02098  0.76640  0.55359  Biso   1.000  H
  N33      1.0000 0.95562  0.72238  0.53678  Biso   1.000  N
  C190     1.0000 0.95711  0.81999  0.53932  Biso   1.000  C
  H212     1.0000 0.07610  0.55572  0.17961  Biso   1.000  H
  H213     1.0000 0.01552  0.57381  0.17909  Biso   1.000  H
  C191     1.0000 0.02870  0.50619  0.13000  Biso   1.000  C
  N34      1.0000 0.96322  0.45562  0.27762  Biso   1.000  N
  H214     1.0000 0.94641  0.52098  0.23360  Biso   1.000  H
  C192     1.0000 0.96068  0.45711  0.18001  Biso   1.000  C
  H215     1.0000 0.96141  0.52480  0.90280  Biso   1.000  H
  H216     1.0000 0.95031  0.47351  0.86750  Biso   1.000  H
  C193     1.0000 0.91538  0.56601  0.64170  Biso   1.000  C
  H217     1.0000 0.90999  0.49980  0.69231  Biso   1.000  H
  H218     1.0000 0.02649  0.13250  0.45031  Biso   1.000  H
  H219     1.0000 0.97520  0.09720  0.46141  Biso   1.000  H
  H220     1.0000 0.00020  0.30769  0.40999  Biso   1.000  H
  C194     1.0000 0.93399  0.35830  0.41538  Biso   1.000  C
  H221     1.0000 0.02480  0.90280  0.46141  Biso   1.000  H
  C195     1.0000 0.99381  0.87000  0.52870  Biso   1.000  C
  H222     1.0000 0.97351  0.86750  0.45031  Biso   1.000  H
  C196     1.0000 0.96788  0.68809  0.57160  Biso   1.000  C
  H223     1.0000 0.94428  0.82039  0.57610  Biso   1.000  H
  H224     1.0000 0.92619  0.82091  0.51552  Biso   1.000  H
  H225     1.0000 0.03859  0.52480  0.09720  Biso   1.000  H
  H226     1.0000 0.04969  0.47351  0.13250  Biso   1.000  H
  C197     1.0000 0.97130  0.49381  0.13000  Biso   1.000  C
  C198     1.0000 0.92840  0.46788  0.31191  Biso   1.000  C
  H227     1.0000 0.92390  0.44428  0.17961  Biso   1.000  H
  H228     1.0000 0.98448  0.42619  0.17909  Biso   1.000  H
  C199     1.0000 0.87188  0.55359  0.60950  Biso   1.000  C
  C200     1.0000 0.94641  0.60950  0.62812  Biso   1.000  C
  C201     1.0000 0.89050  0.37188  0.44641  Biso   1.000  C
  C202     1.0000 0.94641  0.39050  0.37188  Biso   1.000  C
  H229     1.0000 0.02649  0.86750  0.54969  Biso   1.000  H
  H230     1.0000 0.97520  0.90280  0.53859  Biso   1.000  H
  H231     1.0000 0.00020  0.69231  0.59001  Biso   1.000  H
  C203     1.0000 0.93399  0.64170  0.58462  Biso   1.000  C
  H232     1.0000 0.96141  0.47520  0.09720  Biso   1.000  H
  H233     1.0000 0.95031  0.52649  0.13250  Biso   1.000  H
  C204     1.0000 0.91538  0.43399  0.35830  Biso   1.000  C
  H234     1.0000 0.90999  0.50020  0.30769  Biso   1.000  H
  H235     1.0000 0.85118  0.52352  0.61758  Biso   1.000  H
  C205     1.0000 0.85830  0.58462  0.56601  Biso   1.000  C
  H236     1.0000 0.97648  0.61758  0.64882  Biso   1.000  H
  H237     1.0000 0.88242  0.35118  0.47648  Biso   1.000  H
  C206     1.0000 0.85830  0.41538  0.43399  Biso   1.000  C
  H238     1.0000 0.97648  0.38242  0.35118  Biso   1.000  H
  C207     1.0000 0.89050  0.62812  0.55359  Biso   1.000  C
  C208     1.0000 0.87188  0.44641  0.39050  Biso   1.000  C
  C209     1.0000 0.81191  0.57160  0.53212  Biso   1.000  C
  C210     1.0000 0.81191  0.42840  0.46788  Biso   1.000  C
  H239     1.0000 0.88242  0.64882  0.52352  Biso   1.000  H
  H240     1.0000 0.85118  0.47648  0.38242  Biso   1.000  H
  N35      1.0000 0.77762  0.53678  0.54438  Biso   1.000  N
  H241     1.0000 0.80769  0.59001  0.49980  Biso   1.000  H
  N36      1.0000 0.77762  0.46322  0.45562  Biso   1.000  N
  H242     1.0000 0.80769  0.40999  0.50020  Biso   1.000  H
  C211     1.0000 0.73179  0.52890  0.50969  Biso   1.000  C
  C212     1.0000 0.73179  0.47110  0.49031  Biso   1.000  C
  H243     1.0000 0.73360  0.55359  0.47902  Biso   1.000  H
  C213     1.0000 0.68001  0.53932  0.54289  Biso   1.000  C
  H244     1.0000 0.73360  0.44641  0.52098  Biso   1.000  H
  C214     1.0000 0.68001  0.46068  0.45711  Biso   1.000  C
  H245     1.0000 0.67961  0.57610  0.55572  Biso   1.000  H
  H246     1.0000 0.67909  0.51552  0.57381  Biso   1.000  H
  C215     1.0000 0.63000  0.52870  0.50619  Biso   1.000  C
  H247     1.0000 0.67961  0.42390  0.44428  Biso   1.000  H
  H248     1.0000 0.67909  0.48448  0.42619  Biso   1.000  H
  C216     1.0000 0.63000  0.47130  0.49381  Biso   1.000  C
  H249     1.0000 0.59720  0.53859  0.52480  Biso   1.000  H
  H250     1.0000 0.63250  0.54969  0.47351  Biso   1.000  H
  H251     1.0000 0.59720  0.46141  0.47520  Biso   1.000  H
  H252     1.0000 0.63250  0.45031  0.52649  Biso   1.000  H
  C217     1.0000 0.39170  0.31601  0.33462  Biso   1.000  C
  C218     1.0000 0.43809  0.28212  0.32160  Biso   1.000  C
  C219     1.0000 0.35950  0.30359  0.37812  Biso   1.000  C
  C220     1.0000 0.37812  0.35950  0.30359  Biso   1.000  C
  N37      1.0000 0.47238  0.29438  0.28678  Biso   1.000  N
  H253     1.0000 0.44231  0.24980  0.34001  Biso   1.000  H
  H254     1.0000 0.36758  0.27352  0.39882  Biso   1.000  H
  C221     1.0000 0.31601  0.33462  0.39170  Biso   1.000  C
  H255     1.0000 0.39882  0.36758  0.27352  Biso   1.000  H
  C222     1.0000 0.33462  0.39170  0.31601  Biso   1.000  C
  C223     1.0000 0.51821  0.25969  0.27890  Biso   1.000  C
  C224     1.0000 0.30359  0.37812  0.35950  Biso   1.000  C
  C225     1.0000 0.28212  0.32160  0.43809  Biso   1.000  C
  C226     1.0000 0.32160  0.43809  0.28212  Biso   1.000  C
  C227     1.0000 0.51821  0.24031  0.22110  Biso   1.000  C
  H256     1.0000 0.51640  0.22902  0.30359  Biso   1.000  H
  C228     1.0000 0.56999  0.29289  0.28932  Biso   1.000  C
  H257     1.0000 0.27352  0.39882  0.36758  Biso   1.000  H
  N38      1.0000 0.29438  0.28678  0.47238  Biso   1.000  N
  H258     1.0000 0.24980  0.34001  0.44231  Biso   1.000  H
  N39      1.0000 0.28678  0.47238  0.29438  Biso   1.000  N
  H259     1.0000 0.34001  0.44231  0.24980  Biso   1.000  H
  N40      1.0000 0.47238  0.20562  0.21322  Biso   1.000  N
  H260     1.0000 0.51640  0.27098  0.19641  Biso   1.000  H
  C229     1.0000 0.56999  0.20711  0.21068  Biso   1.000  C
  H261     1.0000 0.57039  0.30572  0.32610  Biso   1.000  H
  H262     1.0000 0.57091  0.32381  0.26552  Biso   1.000  H
  C230     1.0000 0.62000  0.25619  0.27870  Biso   1.000  C
  C231     1.0000 0.25969  0.27890  0.51821  Biso   1.000  C
  C232     1.0000 0.27890  0.51821  0.25969  Biso   1.000  C
  C233     1.0000 0.43809  0.21788  0.17840  Biso   1.000  C
  H263     1.0000 0.57039  0.19428  0.17390  Biso   1.000  H
  H264     1.0000 0.57091  0.17619  0.23448  Biso   1.000  H
  C234     1.0000 0.62000  0.24381  0.22130  Biso   1.000  C
  H265     1.0000 0.65280  0.27480  0.28859  Biso   1.000  H
  H266     1.0000 0.61750  0.22351  0.29969  Biso   1.000  H
  C235     1.0000 0.24031  0.22110  0.51821  Biso   1.000  C
  H267     1.0000 0.22902  0.30359  0.51640  Biso   1.000  H
  C236     1.0000 0.29289  0.28932  0.56999  Biso   1.000  C
  C237     1.0000 0.22110  0.51821  0.24031  Biso   1.000  C
  H268     1.0000 0.30359  0.51640  0.22902  Biso   1.000  H
  C238     1.0000 0.28932  0.56999  0.29289  Biso   1.000  C
  C239     1.0000 0.39170  0.18399  0.16538  Biso   1.000  C
  H269     1.0000 0.44231  0.25020  0.15999  Biso   1.000  H
  H270     1.0000 0.65280  0.22520  0.21141  Biso   1.000  H
  H271     1.0000 0.61750  0.27649  0.20031  Biso   1.000  H
  N41      1.0000 0.20562  0.21322  0.47238  Biso   1.000  N
  H272     1.0000 0.27098  0.19641  0.51640  Biso   1.000  H
  C240     1.0000 0.20711  0.21068  0.56999  Biso   1.000  C
  H273     1.0000 0.30572  0.32610  0.57039  Biso   1.000  H
  H274     1.0000 0.32381  0.26552  0.57091  Biso   1.000  H
  C241     1.0000 0.25619  0.27870  0.62000  Biso   1.000  C
  N42      1.0000 0.21322  0.47238  0.20562  Biso   1.000  N
  H275     1.0000 0.19641  0.51640  0.27098  Biso   1.000  H
  C242     1.0000 0.21068  0.56999  0.20711  Biso   1.000  C
  H276     1.0000 0.32610  0.57039  0.30572  Biso   1.000  H
  H277     1.0000 0.26552  0.57091  0.32381  Biso   1.000  H
  C243     1.0000 0.27870  0.62000  0.25619  Biso   1.000  C
  C244     1.0000 0.37812  0.14050  0.19641  Biso   1.000  C
  C245     1.0000 0.35950  0.19641  0.12188  Biso   1.000  C
  C246     1.0000 0.21788  0.17840  0.43809  Biso   1.000  C
  H278     1.0000 0.19428  0.17390  0.57039  Biso   1.000  H
  H279     1.0000 0.17619  0.23448  0.57091  Biso   1.000  H
  C247     1.0000 0.24381  0.22130  0.62000  Biso   1.000  C
  H280     1.0000 0.27480  0.28859  0.65280  Biso   1.000  H
  H281     1.0000 0.22351  0.29969  0.61750  Biso   1.000  H
  C248     1.0000 0.17840  0.43809  0.21788  Biso   1.000  C
  H282     1.0000 0.17390  0.57039  0.19428  Biso   1.000  H
  H283     1.0000 0.23448  0.57091  0.17619  Biso   1.000  H
  C249     1.0000 0.22130  0.62000  0.24381  Biso   1.000  C
  H284     1.0000 0.28859  0.65280  0.27480  Biso   1.000  H
  H285     1.0000 0.29969  0.61750  0.22351  Biso   1.000  H
  H286     1.0000 0.39882  0.13242  0.22648  Biso   1.000  H
  C250     1.0000 0.33462  0.10830  0.18399  Biso   1.000  C
  C251     1.0000 0.31601  0.16538  0.10830  Biso   1.000  C
  H287     1.0000 0.36758  0.22648  0.10118  Biso   1.000  H
  C252     1.0000 0.18399  0.16538  0.39170  Biso   1.000  C
  H288     1.0000 0.25020  0.15999  0.44231  Biso   1.000  H
  H289     1.0000 0.22520  0.21141  0.65280  Biso   1.000  H
  H290     1.0000 0.27649  0.20031  0.61750  Biso   1.000  H
  C253     1.0000 0.16538  0.39170  0.18399  Biso   1.000  C
  H291     1.0000 0.15999  0.44231  0.25020  Biso   1.000  H
  H292     1.0000 0.21141  0.65280  0.22520  Biso   1.000  H
  H293     1.0000 0.20031  0.61750  0.27649  Biso   1.000  H
  C254     1.0000 0.30359  0.12188  0.14050  Biso   1.000  C
  C255     1.0000 0.32160  0.06191  0.21788  Biso   1.000  C
  C256     1.0000 0.28212  0.17840  0.06191  Biso   1.000  C
  C257     1.0000 0.19641  0.12188  0.35950  Biso   1.000  C
  C258     1.0000 0.14050  0.19641  0.37812  Biso   1.000  C
  C259     1.0000 0.19641  0.37812  0.14050  Biso   1.000  C
  C260     1.0000 0.12188  0.35950  0.19641  Biso   1.000  C
  H294     1.0000 0.27352  0.10118  0.13242  Biso   1.000  H
  N43      1.0000 0.28678  0.02762  0.20562  Biso   1.000  N
  H295     1.0000 0.34001  0.05769  0.25020  Biso   1.000  H
  N44      1.0000 0.29438  0.21322  0.02762  Biso   1.000  N
  H296     1.0000 0.24980  0.15999  0.05769  Biso   1.000  H
  C261     1.0000 0.16538  0.10830  0.31601  Biso   1.000  C
  H297     1.0000 0.22648  0.10118  0.36758  Biso   1.000  H
  C262     1.0000 0.10830  0.18399  0.33462  Biso   1.000  C
  H298     1.0000 0.13242  0.22648  0.39882  Biso   1.000  H
  C263     1.0000 0.18399  0.33462  0.10830  Biso   1.000  C
  H299     1.0000 0.22648  0.39882  0.13242  Biso   1.000  H
  C264     1.0000 0.10830  0.31601  0.16538  Biso   1.000  C
  H300     1.0000 0.10118  0.36758  0.22648  Biso   1.000  H
  C265     1.0000 0.27890  0.98179  0.24031  Biso   1.000  C
  C266     1.0000 0.25969  0.22110  0.98179  Biso   1.000  C
  C267     1.0000 0.17840  0.06191  0.28212  Biso   1.000  C
  C268     1.0000 0.12188  0.14050  0.30359  Biso   1.000  C
  C269     1.0000 0.06191  0.21788  0.32160  Biso   1.000  C
  C270     1.0000 0.21788  0.32160  0.06191  Biso   1.000  C
  C271     1.0000 0.14050  0.30359  0.12188  Biso   1.000  C
  C272     1.0000 0.06191  0.28212  0.17840  Biso   1.000  C
  C273     1.0000 0.22110  0.98179  0.25969  Biso   1.000  C
  H301     1.0000 0.30359  0.98360  0.27098  Biso   1.000  H
  C274     1.0000 0.28932  0.93001  0.20711  Biso   1.000  C
  C275     1.0000 0.24031  0.27890  0.98179  Biso   1.000  C
  H302     1.0000 0.22902  0.19641  0.98360  Biso   1.000  H
  C276     1.0000 0.29289  0.21068  0.93001  Biso   1.000  C
  N45      1.0000 0.21322  0.02762  0.29438  Biso   1.000  N
  H303     1.0000 0.15999  0.05769  0.24980  Biso   1.000  H
  H304     1.0000 0.10118  0.13242  0.27352  Biso   1.000  H
  N46      1.0000 0.02762  0.20562  0.28678  Biso   1.000  N
  H305     1.0000 0.05769  0.25020  0.34001  Biso   1.000  H
  N47      1.0000 0.20562  0.28678  0.02762  Biso   1.000  N
  H306     1.0000 0.25020  0.34001  0.05769  Biso   1.000  H
  H307     1.0000 0.13242  0.27352  0.10118  Biso   1.000  H
  N48      1.0000 0.02762  0.29438  0.21322  Biso   1.000  N
  H308     1.0000 0.05769  0.24980  0.15999  Biso   1.000  H
  H309     1.0000 0.19641  0.98360  0.22902  Biso   1.000  H
  C277     1.0000 0.21068  0.93001  0.29289  Biso   1.000  C
  H310     1.0000 0.32610  0.92961  0.19428  Biso   1.000  H
  H311     1.0000 0.26552  0.92909  0.17619  Biso   1.000  H
  C278     1.0000 0.27870  0.88000  0.24381  Biso   1.000  C
  H312     1.0000 0.27098  0.30359  0.98360  Biso   1.000  H
  C279     1.0000 0.20711  0.28932  0.93001  Biso   1.000  C
  H313     1.0000 0.30572  0.17390  0.92961  Biso   1.000  H
  H314     1.0000 0.32381  0.23448  0.92909  Biso   1.000  H
  C280     1.0000 0.25619  0.22130  0.88000  Biso   1.000  C
  C281     1.0000 0.98179  0.24031  0.27890  Biso   1.000  C
  C282     1.0000 0.98179  0.25969  0.22110  Biso   1.000  C
  H315     1.0000 0.17390  0.92961  0.30572  Biso   1.000  H
  H316     1.0000 0.23448  0.92909  0.32381  Biso   1.000  H
  C283     1.0000 0.22130  0.88000  0.25619  Biso   1.000  C
  H317     1.0000 0.28859  0.84720  0.22520  Biso   1.000  H
  H318     1.0000 0.29969  0.88250  0.27649  Biso   1.000  H
  H319     1.0000 0.19428  0.32610  0.92961  Biso   1.000  H
  H320     1.0000 0.17619  0.26552  0.92909  Biso   1.000  H
  C284     1.0000 0.24381  0.27870  0.88000  Biso   1.000  C
  H321     1.0000 0.27480  0.21141  0.84720  Biso   1.000  H
  H322     1.0000 0.22351  0.20031  0.88250  Biso   1.000  H
  H323     1.0000 0.98360  0.27098  0.30359  Biso   1.000  H
  C285     1.0000 0.93001  0.20711  0.28932  Biso   1.000  C
  H324     1.0000 0.98360  0.22902  0.19641  Biso   1.000  H
  C286     1.0000 0.93001  0.29289  0.21068  Biso   1.000  C
  H325     1.0000 0.21141  0.84720  0.27480  Biso   1.000  H
  H326     1.0000 0.20031  0.88250  0.22351  Biso   1.000  H
  H327     1.0000 0.22520  0.28859  0.84720  Biso   1.000  H
  H328     1.0000 0.27649  0.29969  0.88250  Biso   1.000  H
  H329     1.0000 0.92961  0.19428  0.32610  Biso   1.000  H
  H330     1.0000 0.92909  0.17619  0.26552  Biso   1.000  H
  C287     1.0000 0.88000  0.24381  0.27870  Biso   1.000  C
  H331     1.0000 0.92961  0.30572  0.17390  Biso   1.000  H
  H332     1.0000 0.92909  0.32381  0.23448  Biso   1.000  H
  C288     1.0000 0.88000  0.25619  0.22130  Biso   1.000  C
  H333     1.0000 0.84720  0.22520  0.28859  Biso   1.000  H
  H334     1.0000 0.88250  0.27649  0.29969  Biso   1.000  H
  H335     1.0000 0.84720  0.27480  0.21141  Biso   1.000  H
  H336     1.0000 0.88250  0.22351  0.20031  Biso   1.000  H
  C289     1.0000 0.66538  0.60830  0.31601  Biso   1.000  C
  C290     1.0000 0.67840  0.56191  0.28212  Biso   1.000  C
  C291     1.0000 0.69641  0.62188  0.35950  Biso   1.000  C
  C292     1.0000 0.62188  0.64050  0.30359  Biso   1.000  C
  N49      1.0000 0.71322  0.52762  0.29438  Biso   1.000  N
  H337     1.0000 0.65999  0.55769  0.24980  Biso   1.000  H
  H338     1.0000 0.72648  0.60118  0.36758  Biso   1.000  H
  C293     1.0000 0.68399  0.66538  0.39170  Biso   1.000  C
  H339     1.0000 0.60118  0.63242  0.27352  Biso   1.000  H
  C294     1.0000 0.60830  0.68399  0.33462  Biso   1.000  C
  C295     1.0000 0.72110  0.48179  0.25969  Biso   1.000  C
  C296     1.0000 0.64050  0.69641  0.37812  Biso   1.000  C
  C297     1.0000 0.71788  0.67840  0.43809  Biso   1.000  C
  C298     1.0000 0.56191  0.71788  0.32160  Biso   1.000  C
  C299     1.0000 0.71068  0.43001  0.29289  Biso   1.000  C
  C300     1.0000 0.77890  0.48179  0.24031  Biso   1.000  C
  H340     1.0000 0.69641  0.48360  0.22902  Biso   1.000  H
  H341     1.0000 0.63242  0.72648  0.39882  Biso   1.000  H
  N50      1.0000 0.70562  0.71322  0.47238  Biso   1.000  N
  H342     1.0000 0.75020  0.65999  0.44231  Biso   1.000  H
  N51      1.0000 0.52762  0.70562  0.28678  Biso   1.000  N
  H343     1.0000 0.55769  0.75020  0.34001  Biso   1.000  H
  C301     1.0000 0.72130  0.38000  0.25619  Biso   1.000  C
  H344     1.0000 0.67390  0.42961  0.30572  Biso   1.000  H
  H345     1.0000 0.73448  0.42909  0.32381  Biso   1.000  H
  C302     1.0000 0.78932  0.43001  0.20711  Biso   1.000  C
  N52      1.0000 0.78678  0.52762  0.20562  Biso   1.000  N
  H346     1.0000 0.80359  0.48360  0.27098  Biso   1.000  H
  C303     1.0000 0.74031  0.72110  0.51821  Biso   1.000  C
  C304     1.0000 0.48179  0.74031  0.27890  Biso   1.000  C
  C305     1.0000 0.77870  0.38000  0.24381  Biso   1.000  C
  H347     1.0000 0.71141  0.34720  0.27480  Biso   1.000  H
  H348     1.0000 0.70031  0.38250  0.22351  Biso   1.000  H
  H349     1.0000 0.82610  0.42961  0.19428  Biso   1.000  H
  H350     1.0000 0.76552  0.42909  0.17619  Biso   1.000  H
  C306     1.0000 0.82160  0.56191  0.21788  Biso   1.000  C
  C307     1.0000 0.75969  0.77890  0.51821  Biso   1.000  C
  H351     1.0000 0.77098  0.69641  0.51640  Biso   1.000  H
  C308     1.0000 0.70711  0.71068  0.56999  Biso   1.000  C
  C309     1.0000 0.48179  0.75969  0.22110  Biso   1.000  C
  H352     1.0000 0.48360  0.77098  0.30359  Biso   1.000  H
  C310     1.0000 0.43001  0.70711  0.28932  Biso   1.000  C
  H353     1.0000 0.78859  0.34720  0.22520  Biso   1.000  H
  H354     1.0000 0.79969  0.38250  0.27649  Biso   1.000  H
  C311     1.0000 0.83462  0.60830  0.18399  Biso   1.000  C
  H355     1.0000 0.84001  0.55769  0.25020  Biso   1.000  H
  N53      1.0000 0.79438  0.78678  0.47238  Biso   1.000  N
  H356     1.0000 0.72902  0.80359  0.51640  Biso   1.000  H
  C312     1.0000 0.79289  0.78932  0.56999  Biso   1.000  C
  H357     1.0000 0.69428  0.67390  0.57039  Biso   1.000  H
  H358     1.0000 0.67619  0.73448  0.57091  Biso   1.000  H
  C313     1.0000 0.74381  0.72130  0.62000  Biso   1.000  C
  N54      1.0000 0.52762  0.79438  0.21322  Biso   1.000  N
  H359     1.0000 0.48360  0.72902  0.19641  Biso   1.000  H
  C314     1.0000 0.43001  0.79289  0.21068  Biso   1.000  C
  H360     1.0000 0.42961  0.69428  0.32610  Biso   1.000  H
  H361     1.0000 0.42909  0.67619  0.26552  Biso   1.000  H
  C315     1.0000 0.38000  0.74381  0.27870  Biso   1.000  C
  C316     1.0000 0.87812  0.64050  0.19641  Biso   1.000  C
  C317     1.0000 0.80359  0.62188  0.14050  Biso   1.000  C
  C318     1.0000 0.78212  0.82160  0.43809  Biso   1.000  C
  H362     1.0000 0.80572  0.82610  0.57039  Biso   1.000  H
  H363     1.0000 0.82381  0.76552  0.57091  Biso   1.000  H
  C319     1.0000 0.75619  0.77870  0.62000  Biso   1.000  C
  H364     1.0000 0.72520  0.71141  0.65280  Biso   1.000  H
  H365     1.0000 0.77649  0.70031  0.61750  Biso   1.000  H
  C320     1.0000 0.56191  0.78212  0.17840  Biso   1.000  C
  H366     1.0000 0.42961  0.80572  0.17390  Biso   1.000  H
  H367     1.0000 0.42909  0.82381  0.23448  Biso   1.000  H
  C321     1.0000 0.38000  0.75619  0.22130  Biso   1.000  C
  H368     1.0000 0.34720  0.72520  0.28859  Biso   1.000  H
  H369     1.0000 0.38250  0.77649  0.29969  Biso   1.000  H
  H370     1.0000 0.89882  0.63242  0.22648  Biso   1.000  H
  C322     1.0000 0.89170  0.68399  0.16538  Biso   1.000  C
  H371     1.0000 0.77352  0.60118  0.13242  Biso   1.000  H
  C323     1.0000 0.81601  0.66538  0.10830  Biso   1.000  C
  C324     1.0000 0.81601  0.83462  0.39170  Biso   1.000  C
  H372     1.0000 0.74980  0.84001  0.44231  Biso   1.000  H
  H373     1.0000 0.77480  0.78859  0.65280  Biso   1.000  H
  H374     1.0000 0.72351  0.79969  0.61750  Biso   1.000  H
  C325     1.0000 0.60830  0.81601  0.16538  Biso   1.000  C
  H375     1.0000 0.55769  0.74980  0.15999  Biso   1.000  H
  H376     1.0000 0.34720  0.77480  0.21141  Biso   1.000  H
  H377     1.0000 0.38250  0.72351  0.20031  Biso   1.000  H
  C326     1.0000 0.85950  0.69641  0.12188  Biso   1.000  C
  C327     1.0000 0.93809  0.71788  0.17840  Biso   1.000  C
  C328     1.0000 0.78212  0.67840  0.06191  Biso   1.000  C
  C329     1.0000 0.80359  0.87812  0.35950  Biso   1.000  C
  C330     1.0000 0.85950  0.80359  0.37812  Biso   1.000  C
  C331     1.0000 0.62188  0.85950  0.19641  Biso   1.000  C
  C332     1.0000 0.64050  0.80359  0.12188  Biso   1.000  C
  H378     1.0000 0.86758  0.72648  0.10118  Biso   1.000  H
  N55      1.0000 0.97238  0.70562  0.21322  Biso   1.000  N
  H379     1.0000 0.94231  0.75020  0.15999  Biso   1.000  H
  N56      1.0000 0.79438  0.71322  0.02762  Biso   1.000  N
  H380     1.0000 0.74980  0.65999  0.05769  Biso   1.000  H
  H381     1.0000 0.77352  0.89882  0.36758  Biso   1.000  H
  C333     1.0000 0.83462  0.89170  0.31601  Biso   1.000  C
  C334     1.0000 0.89170  0.81601  0.33462  Biso   1.000  C
  H382     1.0000 0.86758  0.77352  0.39882  Biso   1.000  H
  H383     1.0000 0.60118  0.86758  0.22648  Biso   1.000  H
  C335     1.0000 0.66538  0.89170  0.18399  Biso   1.000  C
  C336     1.0000 0.68399  0.83462  0.10830  Biso   1.000  C
  H384     1.0000 0.63242  0.77352  0.10118  Biso   1.000  H
  C337     1.0000 0.01821  0.74031  0.22110  Biso   1.000  C
  C338     1.0000 0.75969  0.72110  0.98179  Biso   1.000  C
  C339     1.0000 0.87812  0.85950  0.30359  Biso   1.000  C
  C340     1.0000 0.82160  0.93809  0.28212  Biso   1.000  C
  C341     1.0000 0.93809  0.78212  0.32160  Biso   1.000  C
  C342     1.0000 0.69641  0.87812  0.14050  Biso   1.000  C
  C343     1.0000 0.67840  0.93809  0.21788  Biso   1.000  C
  C344     1.0000 0.71788  0.82160  0.06191  Biso   1.000  C
  C345     1.0000 0.01821  0.75969  0.27890  Biso   1.000  C
  H385     1.0000 0.01640  0.77098  0.19641  Biso   1.000  H
  C346     1.0000 0.06999  0.70711  0.21068  Biso   1.000  C
  C347     1.0000 0.74031  0.77890  0.98179  Biso   1.000  C
  H386     1.0000 0.72902  0.69641  0.98360  Biso   1.000  H
  C348     1.0000 0.79289  0.71068  0.93001  Biso   1.000  C
  H387     1.0000 0.89882  0.86758  0.27352  Biso   1.000  H
  N57      1.0000 0.78678  0.97238  0.29438  Biso   1.000  N
  H388     1.0000 0.84001  0.94231  0.24980  Biso   1.000  H
  N58      1.0000 0.97238  0.79438  0.28678  Biso   1.000  N
  H389     1.0000 0.94231  0.74980  0.34001  Biso   1.000  H
  H390     1.0000 0.72648  0.89882  0.13242  Biso   1.000  H
  N59      1.0000 0.71322  0.97238  0.20562  Biso   1.000  N
  H391     1.0000 0.65999  0.94231  0.25020  Biso   1.000  H
  N60      1.0000 0.70562  0.78678  0.02762  Biso   1.000  N
  H392     1.0000 0.75020  0.84001  0.05769  Biso   1.000  H
  H393     1.0000 0.01640  0.72902  0.30359  Biso   1.000  H
  C349     1.0000 0.06999  0.79289  0.28932  Biso   1.000  C
  H394     1.0000 0.07039  0.69428  0.17390  Biso   1.000  H
  H395     1.0000 0.07091  0.67619  0.23448  Biso   1.000  H
  C350     1.0000 0.12000  0.74381  0.22130  Biso   1.000  C
  H396     1.0000 0.77098  0.80359  0.98360  Biso   1.000  H
  C351     1.0000 0.70711  0.78932  0.93001  Biso   1.000  C
  H397     1.0000 0.80572  0.67390  0.92961  Biso   1.000  H
  H398     1.0000 0.82381  0.73448  0.92909  Biso   1.000  H
  C352     1.0000 0.75619  0.72130  0.88000  Biso   1.000  C
  C353     1.0000 0.77890  0.01821  0.25969  Biso   1.000  C
  C354     1.0000 0.72110  0.01821  0.24031  Biso   1.000  C
  H399     1.0000 0.07039  0.80572  0.32610  Biso   1.000  H
  H400     1.0000 0.07091  0.82381  0.26552  Biso   1.000  H
  C355     1.0000 0.12000  0.75619  0.27870  Biso   1.000  C
  H401     1.0000 0.15280  0.72520  0.21141  Biso   1.000  H
  H402     1.0000 0.11750  0.77649  0.20031  Biso   1.000  H
  H403     1.0000 0.69428  0.82610  0.92961  Biso   1.000  H
  H404     1.0000 0.67619  0.76552  0.92909  Biso   1.000  H
  C356     1.0000 0.74381  0.77870  0.88000  Biso   1.000  C
  H405     1.0000 0.77480  0.71141  0.84720  Biso   1.000  H
  H406     1.0000 0.72351  0.70031  0.88250  Biso   1.000  H
  H407     1.0000 0.80359  0.01640  0.22902  Biso   1.000  H
  C357     1.0000 0.78932  0.06999  0.29289  Biso   1.000  C
  H408     1.0000 0.69641  0.01640  0.27098  Biso   1.000  H
  C358     1.0000 0.71068  0.06999  0.20711  Biso   1.000  C
  H409     1.0000 0.15280  0.77480  0.28859  Biso   1.000  H
  H410     1.0000 0.11750  0.72351  0.29969  Biso   1.000  H
  H411     1.0000 0.72520  0.78859  0.84720  Biso   1.000  H
  H412     1.0000 0.77649  0.79969  0.88250  Biso   1.000  H
  H413     1.0000 0.82610  0.07039  0.30572  Biso   1.000  H
  H414     1.0000 0.76552  0.07091  0.32381  Biso   1.000  H
  C359     1.0000 0.77870  0.12000  0.25619  Biso   1.000  C
  H415     1.0000 0.67390  0.07039  0.19428  Biso   1.000  H
  H416     1.0000 0.73448  0.07091  0.17619  Biso   1.000  H
  C360     1.0000 0.72130  0.12000  0.24381  Biso   1.000  C
  H417     1.0000 0.78859  0.15280  0.27480  Biso   1.000  H
  H418     1.0000 0.79969  0.11750  0.22351  Biso   1.000  H
  H419     1.0000 0.71141  0.15280  0.22520  Biso   1.000  H
  H420     1.0000 0.70031  0.11750  0.27649  Biso   1.000  H
  C361     1.0000 0.60830  0.31601  0.66538  Biso   1.000  C
  C362     1.0000 0.64050  0.30359  0.62188  Biso   1.000  C
  C363     1.0000 0.62188  0.35950  0.69641  Biso   1.000  C
  C364     1.0000 0.56191  0.28212  0.67840  Biso   1.000  C
  C365     1.0000 0.68399  0.33462  0.60830  Biso   1.000  C
  H421     1.0000 0.63242  0.27352  0.60118  Biso   1.000  H
  C366     1.0000 0.66538  0.39170  0.68399  Biso   1.000  C
  H422     1.0000 0.60118  0.36758  0.72648  Biso   1.000  H
  N61      1.0000 0.52762  0.29438  0.71322  Biso   1.000  N
  H423     1.0000 0.55769  0.24980  0.65999  Biso   1.000  H
  C367     1.0000 0.71788  0.32160  0.56191  Biso   1.000  C
  C368     1.0000 0.69641  0.37812  0.64050  Biso   1.000  C
  C369     1.0000 0.67840  0.43809  0.71788  Biso   1.000  C
  C370     1.0000 0.48179  0.25969  0.72110  Biso   1.000  C
  N62      1.0000 0.70562  0.28678  0.52762  Biso   1.000  N
  H424     1.0000 0.75020  0.34001  0.55769  Biso   1.000  H
  H425     1.0000 0.72648  0.39882  0.63242  Biso   1.000  H
  N63      1.0000 0.71322  0.47238  0.70562  Biso   1.000  N
  H426     1.0000 0.65999  0.44231  0.75020  Biso   1.000  H
  C371     1.0000 0.48179  0.24031  0.77890  Biso   1.000  C
  H427     1.0000 0.48360  0.22902  0.69641  Biso   1.000  H
  C372     1.0000 0.43001  0.29289  0.71068  Biso   1.000  C
  C373     1.0000 0.74031  0.27890  0.48179  Biso   1.000  C
  C374     1.0000 0.72110  0.51821  0.74031  Biso   1.000  C
  N64      1.0000 0.52762  0.20562  0.78678  Biso   1.000  N
  H428     1.0000 0.48360  0.27098  0.80359  Biso   1.000  H
  C375     1.0000 0.43001  0.20711  0.78932  Biso   1.000  C
  H429     1.0000 0.42961  0.30572  0.67390  Biso   1.000  H
  H430     1.0000 0.42909  0.32381  0.73448  Biso   1.000  H
  C376     1.0000 0.38000  0.25619  0.72130  Biso   1.000  C
  C377     1.0000 0.70711  0.28932  0.43001  Biso   1.000  C
  C378     1.0000 0.75969  0.22110  0.48179  Biso   1.000  C
  H431     1.0000 0.77098  0.30359  0.48360  Biso   1.000  H
  C379     1.0000 0.77890  0.51821  0.75969  Biso   1.000  C
  H432     1.0000 0.69641  0.51640  0.77098  Biso   1.000  H
  C380     1.0000 0.71068  0.56999  0.70711  Biso   1.000  C
  C381     1.0000 0.56191  0.21788  0.82160  Biso   1.000  C
  H433     1.0000 0.42961  0.19428  0.82610  Biso   1.000  H
  H434     1.0000 0.42909  0.17619  0.76552  Biso   1.000  H
  C382     1.0000 0.38000  0.24381  0.77870  Biso   1.000  C
  H435     1.0000 0.34720  0.27480  0.71141  Biso   1.000  H
  H436     1.0000 0.38250  0.22351  0.70031  Biso   1.000  H
  H437     1.0000 0.69428  0.32610  0.42961  Biso   1.000  H
  H438     1.0000 0.67619  0.26552  0.42909  Biso   1.000  H
  C383     1.0000 0.74381  0.27870  0.38000  Biso   1.000  C
  N65      1.0000 0.79438  0.21322  0.52762  Biso   1.000  N
  H439     1.0000 0.72902  0.19641  0.48360  Biso   1.000  H
  C384     1.0000 0.79289  0.21068  0.43001  Biso   1.000  C
  N66      1.0000 0.78678  0.47238  0.79438  Biso   1.000  N
  H440     1.0000 0.80359  0.51640  0.72902  Biso   1.000  H
  C385     1.0000 0.78932  0.56999  0.79289  Biso   1.000  C
  H441     1.0000 0.67390  0.57039  0.69428  Biso   1.000  H
  H442     1.0000 0.73448  0.57091  0.67619  Biso   1.000  H
  C386     1.0000 0.72130  0.62000  0.74381  Biso   1.000  C
  C387     1.0000 0.60830  0.18399  0.83462  Biso   1.000  C
  H443     1.0000 0.55769  0.25020  0.84001  Biso   1.000  H
  H444     1.0000 0.34720  0.22520  0.78859  Biso   1.000  H
  H445     1.0000 0.38250  0.27649  0.79969  Biso   1.000  H
  C388     1.0000 0.75619  0.22130  0.38000  Biso   1.000  C
  H446     1.0000 0.72520  0.28859  0.34720  Biso   1.000  H
  H447     1.0000 0.77649  0.29969  0.38250  Biso   1.000  H
  C389     1.0000 0.78212  0.17840  0.56191  Biso   1.000  C
  H448     1.0000 0.80572  0.17390  0.42961  Biso   1.000  H
  H449     1.0000 0.82381  0.23448  0.42909  Biso   1.000  H
  C390     1.0000 0.82160  0.43809  0.78212  Biso   1.000  C
  H450     1.0000 0.82610  0.57039  0.80572  Biso   1.000  H
  H451     1.0000 0.76552  0.57091  0.82381  Biso   1.000  H
  C391     1.0000 0.77870  0.62000  0.75619  Biso   1.000  C
  H452     1.0000 0.71141  0.65280  0.72520  Biso   1.000  H
  H453     1.0000 0.70031  0.61750  0.77649  Biso   1.000  H
  C392     1.0000 0.64050  0.19641  0.87812  Biso   1.000  C
  C393     1.0000 0.62188  0.14050  0.80359  Biso   1.000  C
  H454     1.0000 0.77480  0.21141  0.34720  Biso   1.000  H
  H455     1.0000 0.72351  0.20031  0.38250  Biso   1.000  H
  C394     1.0000 0.81601  0.16538  0.60830  Biso   1.000  C
  H456     1.0000 0.74980  0.15999  0.55769  Biso   1.000  H
  C395     1.0000 0.83462  0.39170  0.81601  Biso   1.000  C
  H457     1.0000 0.84001  0.44231  0.74980  Biso   1.000  H
  H458     1.0000 0.78859  0.65280  0.77480  Biso   1.000  H
  H459     1.0000 0.79969  0.61750  0.72351  Biso   1.000  H
  H460     1.0000 0.63242  0.22648  0.89882  Biso   1.000  H
  C396     1.0000 0.68399  0.16538  0.89170  Biso   1.000  C
  C397     1.0000 0.66538  0.10830  0.81601  Biso   1.000  C
  H461     1.0000 0.60118  0.13242  0.77352  Biso   1.000  H
  C398     1.0000 0.85950  0.19641  0.62188  Biso   1.000  C
  C399     1.0000 0.80359  0.12188  0.64050  Biso   1.000  C
  C400     1.0000 0.87812  0.35950  0.80359  Biso   1.000  C
  C401     1.0000 0.80359  0.37812  0.85950  Biso   1.000  C
  C402     1.0000 0.69641  0.12188  0.85950  Biso   1.000  C
  C403     1.0000 0.71788  0.17840  0.93809  Biso   1.000  C
  C404     1.0000 0.67840  0.06191  0.78212  Biso   1.000  C
  H462     1.0000 0.86758  0.22648  0.60118  Biso   1.000  H
  C405     1.0000 0.89170  0.18399  0.66538  Biso   1.000  C
  H463     1.0000 0.77352  0.10118  0.63242  Biso   1.000  H
  C406     1.0000 0.83462  0.10830  0.68399  Biso   1.000  C
  C407     1.0000 0.89170  0.31601  0.83462  Biso   1.000  C
  H464     1.0000 0.89882  0.36758  0.77352  Biso   1.000  H
  H465     1.0000 0.77352  0.39882  0.86758  Biso   1.000  H
  C408     1.0000 0.81601  0.33462  0.89170  Biso   1.000  C
  H466     1.0000 0.72648  0.10118  0.86758  Biso   1.000  H
  N67      1.0000 0.70562  0.21322  0.97238  Biso   1.000  N
  H467     1.0000 0.75020  0.15999  0.94231  Biso   1.000  H
  N68      1.0000 0.71322  0.02762  0.79438  Biso   1.000  N
  H468     1.0000 0.65999  0.05769  0.74980  Biso   1.000  H
  C409     1.0000 0.87812  0.14050  0.69641  Biso   1.000  C
  C410     1.0000 0.93809  0.21788  0.67840  Biso   1.000  C
  C411     1.0000 0.82160  0.06191  0.71788  Biso   1.000  C
  C412     1.0000 0.93809  0.28212  0.82160  Biso   1.000  C
  C413     1.0000 0.85950  0.30359  0.87812  Biso   1.000  C
  C414     1.0000 0.78212  0.32160  0.93809  Biso   1.000  C
  C415     1.0000 0.74031  0.22110  0.01821  Biso   1.000  C
  C416     1.0000 0.72110  0.98179  0.75969  Biso   1.000  C
  H469     1.0000 0.89882  0.13242  0.72648  Biso   1.000  H
  N69      1.0000 0.97238  0.20562  0.71322  Biso   1.000  N
  H470     1.0000 0.94231  0.25020  0.65999  Biso   1.000  H
  N70      1.0000 0.78678  0.02762  0.70562  Biso   1.000  N
  H471     1.0000 0.84001  0.05769  0.75020  Biso   1.000  H
  N71      1.0000 0.97238  0.29438  0.78678  Biso   1.000  N
  H472     1.0000 0.94231  0.24980  0.84001  Biso   1.000  H
  H473     1.0000 0.86758  0.27352  0.89882  Biso   1.000  H
  N72      1.0000 0.79438  0.28678  0.97238  Biso   1.000  N
  H474     1.0000 0.74980  0.34001  0.94231  Biso   1.000  H
  C417     1.0000 0.75969  0.27890  0.01821  Biso   1.000  C
  H475     1.0000 0.77098  0.19641  0.01640  Biso   1.000  H
  C418     1.0000 0.70711  0.21068  0.06999  Biso   1.000  C
  C419     1.0000 0.77890  0.98179  0.74031  Biso   1.000  C
  H476     1.0000 0.69641  0.98360  0.72902  Biso   1.000  H
  C420     1.0000 0.71068  0.93001  0.79289  Biso   1.000  C
  C421     1.0000 0.01821  0.24031  0.72110  Biso   1.000  C
  C422     1.0000 0.01821  0.25969  0.77890  Biso   1.000  C
  H477     1.0000 0.72902  0.30359  0.01640  Biso   1.000  H
  C423     1.0000 0.79289  0.28932  0.06999  Biso   1.000  C
  H478     1.0000 0.69428  0.17390  0.07039  Biso   1.000  H
  H479     1.0000 0.67619  0.23448  0.07091  Biso   1.000  H
  C424     1.0000 0.74381  0.22130  0.12000  Biso   1.000  C
  H480     1.0000 0.80359  0.98360  0.77098  Biso   1.000  H
  C425     1.0000 0.78932  0.93001  0.70711  Biso   1.000  C
  H481     1.0000 0.67390  0.92961  0.80572  Biso   1.000  H
  H482     1.0000 0.73448  0.92909  0.82381  Biso   1.000  H
  C426     1.0000 0.72130  0.88000  0.75619  Biso   1.000  C
  H483     1.0000 0.01640  0.27098  0.69641  Biso   1.000  H
  C427     1.0000 0.06999  0.20711  0.71068  Biso   1.000  C
  H484     1.0000 0.01640  0.22902  0.80359  Biso   1.000  H
  C428     1.0000 0.06999  0.29289  0.78932  Biso   1.000  C
  H485     1.0000 0.80572  0.32610  0.07039  Biso   1.000  H
  H486     1.0000 0.82381  0.26552  0.07091  Biso   1.000  H
  C429     1.0000 0.75619  0.27870  0.12000  Biso   1.000  C
  H487     1.0000 0.72520  0.21141  0.15280  Biso   1.000  H
  H488     1.0000 0.77649  0.20031  0.11750  Biso   1.000  H
  H489     1.0000 0.82610  0.92961  0.69428  Biso   1.000  H
  H490     1.0000 0.76552  0.92909  0.67619  Biso   1.000  H
  C430     1.0000 0.77870  0.88000  0.74381  Biso   1.000  C
  H491     1.0000 0.71141  0.84720  0.77480  Biso   1.000  H
  H492     1.0000 0.70031  0.88250  0.72351  Biso   1.000  H
  H493     1.0000 0.07039  0.19428  0.67390  Biso   1.000  H
  H494     1.0000 0.07091  0.17619  0.73448  Biso   1.000  H
  C431     1.0000 0.12000  0.24381  0.72130  Biso   1.000  C
  H495     1.0000 0.07039  0.30572  0.82610  Biso   1.000  H
  H496     1.0000 0.07091  0.32381  0.76552  Biso   1.000  H
  C432     1.0000 0.12000  0.25619  0.77870  Biso   1.000  C
  H497     1.0000 0.77480  0.28859  0.15280  Biso   1.000  H
  H498     1.0000 0.72351  0.29969  0.11750  Biso   1.000  H
  H499     1.0000 0.78859  0.84720  0.72520  Biso   1.000  H
  H500     1.0000 0.79969  0.88250  0.77649  Biso   1.000  H
  H501     1.0000 0.15280  0.22520  0.71141  Biso   1.000  H
  H502     1.0000 0.11750  0.27649  0.70031  Biso   1.000  H
  H503     1.0000 0.15280  0.27480  0.78859  Biso   1.000  H
  H504     1.0000 0.11750  0.22351  0.79969  Biso   1.000  H
  C433     1.0000 0.31601  0.66538  0.60830  Biso   1.000  C
  C434     1.0000 0.28212  0.67840  0.56191  Biso   1.000  C
  C435     1.0000 0.30359  0.62188  0.64050  Biso   1.000  C
  C436     1.0000 0.35950  0.69641  0.62188  Biso   1.000  C
  N73      1.0000 0.29438  0.71322  0.52762  Biso   1.000  N
  H505     1.0000 0.24980  0.65999  0.55769  Biso   1.000  H
  H506     1.0000 0.27352  0.60118  0.63242  Biso   1.000  H
  C437     1.0000 0.33462  0.60830  0.68399  Biso   1.000  C
  H507     1.0000 0.36758  0.72648  0.60118  Biso   1.000  H
  C438     1.0000 0.39170  0.68399  0.66538  Biso   1.000  C
  C439     1.0000 0.25969  0.72110  0.48179  Biso   1.000  C
  C440     1.0000 0.37812  0.64050  0.69641  Biso   1.000  C
  C441     1.0000 0.32160  0.56191  0.71788  Biso   1.000  C
  C442     1.0000 0.43809  0.71788  0.67840  Biso   1.000  C
  C443     1.0000 0.29289  0.71068  0.43001  Biso   1.000  C
  C444     1.0000 0.24031  0.77890  0.48179  Biso   1.000  C
  H508     1.0000 0.22902  0.69641  0.48360  Biso   1.000  H
  H509     1.0000 0.39882  0.63242  0.72648  Biso   1.000  H
  N74      1.0000 0.28678  0.52762  0.70562  Biso   1.000  N
  H510     1.0000 0.34001  0.55769  0.75020  Biso   1.000  H
  N75      1.0000 0.47238  0.70562  0.71322  Biso   1.000  N
  H511     1.0000 0.44231  0.75020  0.65999  Biso   1.000  H
  C445     1.0000 0.25619  0.72130  0.38000  Biso   1.000  C
  H512     1.0000 0.30572  0.67390  0.42961  Biso   1.000  H
  H513     1.0000 0.32381  0.73448  0.42909  Biso   1.000  H
  C446     1.0000 0.20711  0.78932  0.43001  Biso   1.000  C
  N76      1.0000 0.20562  0.78678  0.52762  Biso   1.000  N
  H514     1.0000 0.27098  0.80359  0.48360  Biso   1.000  H
  C447     1.0000 0.27890  0.48179  0.74031  Biso   1.000  C
  C448     1.0000 0.51821  0.74031  0.72110  Biso   1.000  C
  C449     1.0000 0.24381  0.77870  0.38000  Biso   1.000  C
  H515     1.0000 0.27480  0.71141  0.34720  Biso   1.000  H
  H516     1.0000 0.22351  0.70031  0.38250  Biso   1.000  H
  H517     1.0000 0.19428  0.82610  0.42961  Biso   1.000  H
  H518     1.0000 0.17619  0.76552  0.42909  Biso   1.000  H
  C450     1.0000 0.21788  0.82160  0.56191  Biso   1.000  C
  C451     1.0000 0.22110  0.48179  0.75969  Biso   1.000  C
  H519     1.0000 0.30359  0.48360  0.77098  Biso   1.000  H
  C452     1.0000 0.28932  0.43001  0.70711  Biso   1.000  C
  C453     1.0000 0.51821  0.75969  0.77890  Biso   1.000  C
  H520     1.0000 0.51640  0.77098  0.69641  Biso   1.000  H
  C454     1.0000 0.56999  0.70711  0.71068  Biso   1.000  C
  H521     1.0000 0.22520  0.78859  0.34720  Biso   1.000  H
  H522     1.0000 0.27649  0.79969  0.38250  Biso   1.000  H
  C455     1.0000 0.18399  0.83462  0.60830  Biso   1.000  C
  H523     1.0000 0.25020  0.84001  0.55769  Biso   1.000  H
  N77      1.0000 0.21322  0.52762  0.79438  Biso   1.000  N
  H524     1.0000 0.19641  0.48360  0.72902  Biso   1.000  H
  C456     1.0000 0.21068  0.43001  0.79289  Biso   1.000  C
  H525     1.0000 0.32610  0.42961  0.69428  Biso   1.000  H
  H526     1.0000 0.26552  0.42909  0.67619  Biso   1.000  H
  C457     1.0000 0.27870  0.38000  0.74381  Biso   1.000  C
  N78      1.0000 0.47238  0.79438  0.78678  Biso   1.000  N
  H527     1.0000 0.51640  0.72902  0.80359  Biso   1.000  H
  C458     1.0000 0.56999  0.79289  0.78932  Biso   1.000  C
  H528     1.0000 0.57039  0.69428  0.67390  Biso   1.000  H
  H529     1.0000 0.57091  0.67619  0.73448  Biso   1.000  H
  C459     1.0000 0.62000  0.74381  0.72130  Biso   1.000  C
  C460     1.0000 0.14050  0.80359  0.62188  Biso   1.000  C
  C461     1.0000 0.19641  0.87812  0.64050  Biso   1.000  C
  C462     1.0000 0.17840  0.56191  0.78212  Biso   1.000  C
  H530     1.0000 0.17390  0.42961  0.80572  Biso   1.000  H
  H531     1.0000 0.23448  0.42909  0.82381  Biso   1.000  H
  C463     1.0000 0.22130  0.38000  0.75619  Biso   1.000  C
  H532     1.0000 0.28859  0.34720  0.72520  Biso   1.000  H
  H533     1.0000 0.29969  0.38250  0.77649  Biso   1.000  H
  C464     1.0000 0.43809  0.78212  0.82160  Biso   1.000  C
  H534     1.0000 0.57039  0.80572  0.82610  Biso   1.000  H
  H535     1.0000 0.57091  0.82381  0.76552  Biso   1.000  H
  C465     1.0000 0.62000  0.75619  0.77870  Biso   1.000  C
  H536     1.0000 0.65280  0.72520  0.71141  Biso   1.000  H
  H537     1.0000 0.61750  0.77649  0.70031  Biso   1.000  H
  H538     1.0000 0.13242  0.77352  0.60118  Biso   1.000  H
  C466     1.0000 0.10830  0.81601  0.66538  Biso   1.000  C
  H539     1.0000 0.22648  0.89882  0.63242  Biso   1.000  H
  C467     1.0000 0.16538  0.89170  0.68399  Biso   1.000  C
  C468     1.0000 0.16538  0.60830  0.81601  Biso   1.000  C
  H540     1.0000 0.15999  0.55769  0.74980  Biso   1.000  H
  H541     1.0000 0.21141  0.34720  0.77480  Biso   1.000  H
  H542     1.0000 0.20031  0.38250  0.72351  Biso   1.000  H
  C469     1.0000 0.39170  0.81601  0.83462  Biso   1.000  C
  H543     1.0000 0.44231  0.74980  0.84001  Biso   1.000  H
  H544     1.0000 0.65280  0.77480  0.78859  Biso   1.000  H
  H545     1.0000 0.61750  0.72351  0.79969  Biso   1.000  H
  C470     1.0000 0.12188  0.85950  0.69641  Biso   1.000  C
  C471     1.0000 0.06191  0.78212  0.67840  Biso   1.000  C
  C472     1.0000 0.17840  0.93809  0.71788  Biso   1.000  C
  C473     1.0000 0.19641  0.62188  0.85950  Biso   1.000  C
  C474     1.0000 0.12188  0.64050  0.80359  Biso   1.000  C
  C475     1.0000 0.35950  0.80359  0.87812  Biso   1.000  C
  C476     1.0000 0.37812  0.85950  0.80359  Biso   1.000  C
  H546     1.0000 0.10118  0.86758  0.72648  Biso   1.000  H
  N79      1.0000 0.02762  0.79438  0.71322  Biso   1.000  N
  H547     1.0000 0.05769  0.74980  0.65999  Biso   1.000  H
  N80      1.0000 0.21322  0.97238  0.70562  Biso   1.000  N
  H548     1.0000 0.15999  0.94231  0.75020  Biso   1.000  H
  H549     1.0000 0.22648  0.60118  0.86758  Biso   1.000  H
  C477     1.0000 0.18399  0.66538  0.89170  Biso   1.000  C
  C478     1.0000 0.10830  0.68399  0.83462  Biso   1.000  C
  H550     1.0000 0.10118  0.63242  0.77352  Biso   1.000  H
  H551     1.0000 0.36758  0.77352  0.89882  Biso   1.000  H
  C479     1.0000 0.31601  0.83462  0.89170  Biso   1.000  C
  C480     1.0000 0.33462  0.89170  0.81601  Biso   1.000  C
  H552     1.0000 0.39882  0.86758  0.77352  Biso   1.000  H
  C481     1.0000 0.98179  0.75969  0.72110  Biso   1.000  C
  C482     1.0000 0.22110  0.01821  0.74031  Biso   1.000  C
  C483     1.0000 0.14050  0.69641  0.87812  Biso   1.000  C
  C484     1.0000 0.21788  0.67840  0.93809  Biso   1.000  C
  C485     1.0000 0.06191  0.71788  0.82160  Biso   1.000  C
  C486     1.0000 0.30359  0.87812  0.85950  Biso   1.000  C
  C487     1.0000 0.28212  0.82160  0.93809  Biso   1.000  C
  C488     1.0000 0.32160  0.93809  0.78212  Biso   1.000  C
  C489     1.0000 0.98179  0.74031  0.77890  Biso   1.000  C
  H553     1.0000 0.98360  0.72902  0.69641  Biso   1.000  H
  C490     1.0000 0.93001  0.79289  0.71068  Biso   1.000  C
  C491     1.0000 0.27890  0.01821  0.75969  Biso   1.000  C
  H554     1.0000 0.19641  0.01640  0.77098  Biso   1.000  H
  C492     1.0000 0.21068  0.06999  0.70711  Biso   1.000  C
  H555     1.0000 0.13242  0.72648  0.89882  Biso   1.000  H
  N81      1.0000 0.20562  0.71322  0.97238  Biso   1.000  N
  H556     1.0000 0.25020  0.65999  0.94231  Biso   1.000  H
  N82      1.0000 0.02762  0.70562  0.78678  Biso   1.000  N
  H557     1.0000 0.05769  0.75020  0.84001  Biso   1.000  H
  H558     1.0000 0.27352  0.89882  0.86758  Biso   1.000  H
  N83      1.0000 0.29438  0.78678  0.97238  Biso   1.000  N
  H559     1.0000 0.24980  0.84001  0.94231  Biso   1.000  H
  N84      1.0000 0.28678  0.97238  0.79438  Biso   1.000  N
  H560     1.0000 0.34001  0.94231  0.74980  Biso   1.000  H
  H561     1.0000 0.98360  0.77098  0.80359  Biso   1.000  H
  C493     1.0000 0.93001  0.70711  0.78932  Biso   1.000  C
  H562     1.0000 0.92961  0.80572  0.67390  Biso   1.000  H
  H563     1.0000 0.92909  0.82381  0.73448  Biso   1.000  H
  C494     1.0000 0.88000  0.75619  0.72130  Biso   1.000  C
  H564     1.0000 0.30359  0.01640  0.72902  Biso   1.000  H
  C495     1.0000 0.28932  0.06999  0.79289  Biso   1.000  C
  H565     1.0000 0.17390  0.07039  0.69428  Biso   1.000  H
  H566     1.0000 0.23448  0.07091  0.67619  Biso   1.000  H
  C496     1.0000 0.22130  0.12000  0.74381  Biso   1.000  C
  C497     1.0000 0.24031  0.72110  0.01821  Biso   1.000  C
  C498     1.0000 0.25969  0.77890  0.01821  Biso   1.000  C
  H567     1.0000 0.92961  0.69428  0.82610  Biso   1.000  H
  H568     1.0000 0.92909  0.67619  0.76552  Biso   1.000  H
  C499     1.0000 0.88000  0.74381  0.77870  Biso   1.000  C
  H569     1.0000 0.84720  0.77480  0.71141  Biso   1.000  H
  H570     1.0000 0.88250  0.72351  0.70031  Biso   1.000  H
  H571     1.0000 0.32610  0.07039  0.80572  Biso   1.000  H
  H572     1.0000 0.26552  0.07091  0.82381  Biso   1.000  H
  C500     1.0000 0.27870  0.12000  0.75619  Biso   1.000  C
  H573     1.0000 0.21141  0.15280  0.72520  Biso   1.000  H
  H574     1.0000 0.20031  0.11750  0.77649  Biso   1.000  H
  H575     1.0000 0.27098  0.69641  0.01640  Biso   1.000  H
  C501     1.0000 0.20711  0.71068  0.06999  Biso   1.000  C
  H576     1.0000 0.22902  0.80359  0.01640  Biso   1.000  H
  C502     1.0000 0.29289  0.78932  0.06999  Biso   1.000  C
  H577     1.0000 0.84720  0.72520  0.78859  Biso   1.000  H
  H578     1.0000 0.88250  0.77649  0.79969  Biso   1.000  H
  H579     1.0000 0.28859  0.15280  0.77480  Biso   1.000  H
  H580     1.0000 0.29969  0.11750  0.72351  Biso   1.000  H
  H581     1.0000 0.19428  0.67390  0.07039  Biso   1.000  H
  H582     1.0000 0.17619  0.73448  0.07091  Biso   1.000  H
  C503     1.0000 0.24381  0.72130  0.12000  Biso   1.000  C
  H583     1.0000 0.30572  0.82610  0.07039  Biso   1.000  H
  H584     1.0000 0.32381  0.76552  0.07091  Biso   1.000  H
  C504     1.0000 0.25619  0.77870  0.12000  Biso   1.000  C
  H585     1.0000 0.22520  0.71141  0.15280  Biso   1.000  H
  H586     1.0000 0.27649  0.70031  0.11750  Biso   1.000  H
  H587     1.0000 0.27480  0.78859  0.15280  Biso   1.000  H
  H588     1.0000 0.22351  0.79969  0.11750  Biso   1.000  H
  Ne1      1.0000 0.25000  0.25000  0.25000  Biso   1.000  Ne
  He1      1.0000 0.18611  0.31389  0.31389  Biso   1.000  He
  He2      1.0000 0.31342  0.18658  0.31342  Biso   1.000  He
  He3      1.0000 0.18345  0.18345  0.18345  Biso   1.000  He
  He4      1.0000 0.31586  0.31586  0.18414  Biso   1.000  He
  Ar1      1.0000 0.25000  0.25000  0.25000  Biso   1.000  Ar
  Ne2      1.0000 0.50000  0.50000  0.00000  Biso   1.000  Ne
  He5      1.0000 0.43455  0.43455  0.06545  Biso   1.000  He
  He6      1.0000 0.56486  0.56486  0.06486  Biso   1.000  He
  He7      1.0000 0.56157  0.43843  0.93843  Biso   1.000  He
  He8      1.0000 0.43456  0.56544  0.93456  Biso   1.000  He
  Ar2      1.0000 0.50000  0.50000  0.00000  Biso   1.000  Ar
  Ne3      1.0000 0.50000  0.00000  0.50000  Biso   1.000  Ne
  He9      1.0000 0.43455  0.93455  0.56545  Biso   1.000  He
  He10     1.0000 0.56486  0.06486  0.56486  Biso   1.000  He
  He11     1.0000 0.56157  0.93843  0.43843  Biso   1.000  He
  He12     1.0000 0.43456  0.06544  0.43456  Biso   1.000  He
  Ar3      1.0000 0.50000  0.00000  0.50000  Biso   1.000  Ar
  Ne4      1.0000 0.00000  0.50000  0.50000  Biso   1.000  Ne
  He13     1.0000 0.93455  0.43455  0.56545  Biso   1.000  He
  He14     1.0000 0.06486  0.56486  0.56486  Biso   1.000  He
  He15     1.0000 0.06157  0.43843  0.43843  Biso   1.000  He
  He16     1.0000 0.93456  0.56544  0.43456  Biso   1.000  He
  Ar4      1.0000 0.00000  0.50000  0.50000  Biso   1.000  Ar
  Ne5      1.0000 0.75000  0.75000  0.25000  Biso   1.000  Ne
  He17     1.0000 0.68611  0.81389  0.31389  Biso   1.000  He
  He18     1.0000 0.81342  0.68658  0.31342  Biso   1.000  He
  He19     1.0000 0.68345  0.68345  0.18345  Biso   1.000  He
  He20     1.0000 0.81586  0.81586  0.18414  Biso   1.000  He
  Ar5      1.0000 0.75000  0.75000  0.25000  Biso   1.000  Ar
  Ne6      1.0000 0.75000  0.25000  0.75000  Biso   1.000  Ne
  He21     1.0000 0.68611  0.31389  0.81389  Biso   1.000  He
  He22     1.0000 0.81342  0.18658  0.81342  Biso   1.000  He
  He23     1.0000 0.68345  0.18345  0.68345  Biso   1.000  He
  He24     1.0000 0.81586  0.31586  0.68414  Biso   1.000  He
  Ar6      1.0000 0.75000  0.25000  0.75000  Biso   1.000  Ar
  Ne7      1.0000 0.25000  0.75000  0.75000  Biso   1.000  Ne
  He25     1.0000 0.18611  0.81389  0.81389  Biso   1.000  He
  He26     1.0000 0.31342  0.68658  0.81342  Biso   1.000  He
  He27     1.0000 0.18345  0.68345  0.68345  Biso   1.000  He
  He28     1.0000 0.31586  0.81586  0.68414  Biso   1.000  He
  Ar7      1.0000 0.25000  0.75000  0.75000  Biso   1.000  Ar
