data_image0
_cell_length_a       17.037
_cell_length_b       17.037
_cell_length_c       51.238
_cell_angle_alpha    90
_cell_angle_beta     90
_cell_angle_gamma    120

_symmetry_space_group_name_H-M    "P 1"
_symmetry_int_tables_number       1

loop_
  _symmetry_equiv_pos_as_xyz
  'x, y, z'

loop_
  _atom_site_label
  _atom_site_occupancy
  _atom_site_fract_x
  _atom_site_fract_y
  _atom_site_fract_z
  _atom_site_thermal_displace_type
  _atom_site_B_iso_or_equiv
  _atom_site_type_symbol
  C1       1.0000 0.74224  0.70196  0.50617  Biso   1.000  C
  C2       1.0000 0.73408  0.64279  0.52639  Biso   1.000  C
  C3       1.0000 0.75766  0.78796  0.51109  Biso   1.000  C
  H1       1.0000 0.73698  0.68250  0.48899  Biso   1.000  H
  N1       1.0000 0.71736  0.55698  0.52143  Biso   1.000  N
  C4       1.0000 0.74216  0.67491  0.55207  Biso   1.000  C
  C5       1.0000 0.76305  0.81718  0.53646  Biso   1.000  C
  H2       1.0000 0.76449  0.82639  0.49731  Biso   1.000  H
  C6       1.0000 0.71125  0.52221  0.49510  Biso   1.000  C
  H3       1.0000 0.71009  0.52201  0.53441  Biso   1.000  H
  C7       1.0000 0.75896  0.76228  0.55666  Biso   1.000  C
  S1       1.0000 0.73459  0.60388  0.57850  Biso   1.000  S
  H4       1.0000 0.76948  0.87370  0.53989  Biso   1.000  H
  C8       1.0000 0.68841  0.42407  0.49567  Biso   1.000  C
  H5       1.0000 0.66478  0.52696  0.48550  Biso   1.000  H
  H6       1.0000 0.76858  0.55847  0.48620  Biso   1.000  H
  H7       1.0000 0.76759  0.78410  0.57370  Biso   1.000  H
  S2       1.0000 0.59874  0.53597  0.58816  Biso   1.000  S
  C9       1.0000 0.59712  0.35501  0.49582  Biso   1.000  C
  C10      1.0000 0.75787  0.40286  0.49582  Biso   1.000  C
  C11      1.0000 0.59113  0.59941  0.61460  Biso   1.000  C
  C12      1.0000 0.52211  0.37907  0.49614  Biso   1.000  C
  C13      1.0000 0.57590  0.26433  0.49567  Biso   1.000  C
  C14      1.0000 0.73564  0.31157  0.49567  Biso   1.000  C
  C15      1.0000 0.85689  0.47789  0.49614  Biso   1.000  C
  C16      1.0000 0.57434  0.66997  0.61002  Biso   1.000  C
  C17      1.0000 0.59917  0.57535  0.64027  Biso   1.000  C
  C18      1.0000 0.49399  0.39127  0.46893  Biso   1.000  C
  H8       1.0000 0.54271  0.43472  0.50589  Biso   1.000  H
  H9       1.0000 0.46966  0.33136  0.50500  Biso   1.000  H
  C19      1.0000 0.47780  0.18903  0.49510  Biso   1.000  C
  C20      1.0000 0.64497  0.24210  0.49582  Biso   1.000  C
  C21      1.0000 0.81097  0.28873  0.49510  Biso   1.000  C
  H10      1.0000 0.89196  0.45728  0.50589  Biso   1.000  H
  H11      1.0000 0.86167  0.53028  0.50500  Biso   1.000  H
  C22      1.0000 0.89728  0.50595  0.46893  Biso   1.000  C
  H12      1.0000 0.56572  0.68311  0.59296  Biso   1.000  H
  C23      1.0000 0.57020  0.72073  0.63022  Biso   1.000  C
  C24      1.0000 0.59106  0.62639  0.66051  Biso   1.000  C
  N2       1.0000 0.61594  0.50629  0.64524  Biso   1.000  N
  H13      1.0000 0.44690  0.40639  0.47030  Biso   1.000  H
  H14      1.0000 0.54527  0.43926  0.46011  Biso   1.000  H
  H15      1.0000 0.47221  0.33610  0.45919  Biso   1.000  H
  H16      1.0000 0.47296  0.13779  0.48550  Biso   1.000  H
  H17      1.0000 0.44150  0.21011  0.48620  Biso   1.000  H
  N3       1.0000 0.44298  0.16036  0.52143  Biso   1.000  N
  C25      1.0000 0.62093  0.14308  0.49614  Biso   1.000  C
  H18      1.0000 0.86222  0.33522  0.48550  Biso   1.000  H
  H19      1.0000 0.78987  0.23139  0.48620  Biso   1.000  H
  N4       1.0000 0.83962  0.28263  0.52143  Biso   1.000  N
  H20      1.0000 0.95945  0.55305  0.47030  Biso   1.000  H
  H21      1.0000 0.89396  0.45471  0.46011  Biso   1.000  H
  H22      1.0000 0.86387  0.52777  0.45919  Biso   1.000  H
  H23      1.0000 0.56378  0.77082  0.62676  Biso   1.000  H
  C26      1.0000 0.57562  0.69694  0.65559  Biso   1.000  C
  H24      1.0000 0.59633  0.61215  0.67766  Biso   1.000  H
  C27      1.0000 0.62209  0.47762  0.67157  Biso   1.000  C
  H25      1.0000 0.62321  0.47857  0.63227  Biso   1.000  H
  C28      1.0000 0.35715  0.09129  0.52639  Biso   1.000  C
  H26      1.0000 0.47797  0.18808  0.53441  Biso   1.000  H
  H27      1.0000 0.56528  0.10797  0.50589  Biso   1.000  H
  H28      1.0000 0.66859  0.13826  0.50500  Biso   1.000  H
  C29      1.0000 0.60866  0.10268  0.46893  Biso   1.000  C
  C30      1.0000 0.90867  0.26589  0.52639  Biso   1.000  C
  H29      1.0000 0.81184  0.28988  0.53441  Biso   1.000  H
  H30      1.0000 0.56882  0.72852  0.66937  Biso   1.000  H
  H31      1.0000 0.66849  0.52886  0.68117  Biso   1.000  H
  H32      1.0000 0.56471  0.45654  0.68047  Biso   1.000  H
  C31      1.0000 0.64490  0.40232  0.67101  Biso   1.000  C
  C32      1.0000 0.32508  0.06730  0.55207  Biso   1.000  C
  C33      1.0000 0.29800  0.04026  0.50617  Biso   1.000  C
  H33      1.0000 0.59361  0.04053  0.47030  Biso   1.000  H
  H34      1.0000 0.56066  0.10600  0.46011  Biso   1.000  H
  H35      1.0000 0.66387  0.13609  0.45919  Biso   1.000  H
  C34      1.0000 0.93269  0.25782  0.55207  Biso   1.000  C
  C35      1.0000 0.95971  0.25775  0.50617  Biso   1.000  C
  C36      1.0000 0.73619  0.42455  0.67085  Biso   1.000  C
  C37      1.0000 0.57543  0.31163  0.67085  Biso   1.000  C
  S3       1.0000 0.39609  0.13067  0.57850  Biso   1.000  S
  C38      1.0000 0.23764  0.99668  0.55666  Biso   1.000  C
  H36      1.0000 0.31750  0.05449  0.48899  Biso   1.000  H
  C39      1.0000 0.21200  0.96970  0.51109  Biso   1.000  C
  S4       1.0000 0.86934  0.26541  0.57850  Biso   1.000  S
  C40      1.0000 0.00329  0.24101  0.55666  Biso   1.000  C
  H37      1.0000 0.94548  0.26297  0.48899  Biso   1.000  H
  C41      1.0000 0.03029  0.24230  0.51109  Biso   1.000  C
  C42      1.0000 0.75739  0.35508  0.67101  Biso   1.000  C
  C43      1.0000 0.81118  0.52357  0.67054  Biso   1.000  C
  C44      1.0000 0.59766  0.24257  0.67101  Biso   1.000  C
  C45      1.0000 0.47636  0.28757  0.67054  Biso   1.000  C
  S5       1.0000 0.46403  0.06276  0.58816  Biso   1.000  S
  H38      1.0000 0.21587  0.98353  0.57370  Biso   1.000  H
  C46      1.0000 0.18279  0.94591  0.53646  Biso   1.000  C
  H39      1.0000 0.17367  0.93812  0.49731  Biso   1.000  H
  S6       1.0000 0.93725  0.40123  0.58816  Biso   1.000  S
  H40      1.0000 0.01648  0.23240  0.57370  Biso   1.000  H
  C47      1.0000 0.05411  0.23688  0.53646  Biso   1.000  C
  H41      1.0000 0.06194  0.23552  0.49731  Biso   1.000  H
  C48      1.0000 0.85557  0.37792  0.67157  Biso   1.000  C
  C49      1.0000 0.68833  0.26378  0.67085  Biso   1.000  C
  H42      1.0000 0.79064  0.55868  0.66076  Biso   1.000  H
  H43      1.0000 0.86365  0.52838  0.66166  Biso   1.000  H
  C50      1.0000 0.83930  0.56396  0.69774  Biso   1.000  C
  C51      1.0000 0.52235  0.14443  0.67157  Biso   1.000  C
  H44      1.0000 0.44132  0.23193  0.66076  Biso   1.000  H
  H45      1.0000 0.47163  0.33529  0.66166  Biso   1.000  H
  C52      1.0000 0.43604  0.27537  0.69774  Biso   1.000  C
  C53      1.0000 0.40063  0.99173  0.61460  Biso   1.000  C
  H46      1.0000 0.12629  0.89583  0.53989  Biso   1.000  H
  C54      1.0000 0.00825  0.40883  0.61460  Biso   1.000  C
  H47      1.0000 0.10422  0.23051  0.53989  Biso   1.000  H
  N5       1.0000 0.89031  0.38402  0.64524  Biso   1.000  N
  H48      1.0000 0.86032  0.33142  0.68117  Biso   1.000  H
  H49      1.0000 0.89181  0.43526  0.68047  Biso   1.000  H
  C55      1.0000 0.71236  0.18882  0.67054  Biso   1.000  C
  H50      1.0000 0.88640  0.62612  0.69636  Biso   1.000  H
  H51      1.0000 0.78798  0.56064  0.70657  Biso   1.000  H
  H52      1.0000 0.86110  0.53055  0.70746  Biso   1.000  H
  N6       1.0000 0.49370  0.10966  0.64524  Biso   1.000  N
  H53      1.0000 0.47115  0.13969  0.68117  Biso   1.000  H
  H54      1.0000 0.54343  0.10817  0.68047  Biso   1.000  H
  H55      1.0000 0.37383  0.26026  0.69636  Biso   1.000  H
  H56      1.0000 0.43934  0.22739  0.70657  Biso   1.000  H
  H57      1.0000 0.46943  0.33054  0.70746  Biso   1.000  H
  C56      1.0000 0.42462  0.02386  0.64027  Biso   1.000  C
  C57      1.0000 0.33007  0.90437  0.61002  Biso   1.000  C
  C58      1.0000 0.97610  0.40076  0.64027  Biso   1.000  C
  C59      1.0000 0.09560  0.42563  0.61002  Biso   1.000  C
  H58      1.0000 0.85528  0.37677  0.63227  Biso   1.000  H
  H59      1.0000 0.76800  0.20936  0.66076  Biso   1.000  H
  H60      1.0000 0.66471  0.13637  0.66166  Biso   1.000  H
  C60      1.0000 0.72465  0.16070  0.69774  Biso   1.000  C
  H61      1.0000 0.52140  0.14463  0.63227  Biso   1.000  H
  C61      1.0000 0.37355  0.96469  0.66051  Biso   1.000  C
  H62      1.0000 0.31687  0.88254  0.59296  Biso   1.000  H
  C62      1.0000 0.27926  0.84947  0.63022  Biso   1.000  C
  C63      1.0000 0.03529  0.40889  0.66051  Biso   1.000  C
  H63      1.0000 0.11740  0.43424  0.59296  Biso   1.000  H
  C64      1.0000 0.15055  0.42977  0.63022  Biso   1.000  C
  H64      1.0000 0.73972  0.11359  0.69636  Biso   1.000  H
  H65      1.0000 0.77258  0.21194  0.70657  Biso   1.000  H
  H66      1.0000 0.66942  0.13887  0.70746  Biso   1.000  H
  C65      1.0000 0.30308  0.87868  0.65559  Biso   1.000  C
  H67      1.0000 0.38780  0.98414  0.67766  Biso   1.000  H
  H68      1.0000 0.22916  0.79294  0.62676  Biso   1.000  H
  C66      1.0000 0.12131  0.42435  0.65559  Biso   1.000  C
  H69      1.0000 0.01583  0.40367  0.67766  Biso   1.000  H
  H70      1.0000 0.20703  0.43614  0.62676  Biso   1.000  H
  H71      1.0000 0.27148  0.84025  0.66937  Biso   1.000  H
  H72      1.0000 0.15974  0.43112  0.66937  Biso   1.000  H
  C67      1.0000 0.50597  0.60870  0.53107  Biso   1.000  C
  C68      1.0000 0.47785  0.62090  0.50386  Biso   1.000  C
  H73      1.0000 0.55306  0.59358  0.52970  Biso   1.000  H
  H74      1.0000 0.45468  0.56071  0.53989  Biso   1.000  H
  H75      1.0000 0.52780  0.66387  0.54081  Biso   1.000  H
  C69      1.0000 0.40283  0.64496  0.50418  Biso   1.000  C
  H76      1.0000 0.45725  0.56525  0.49411  Biso   1.000  H
  H77      1.0000 0.53029  0.66861  0.49500  Biso   1.000  H
  C70      1.0000 0.31154  0.57589  0.50433  Biso   1.000  C
  C71      1.0000 0.42405  0.73564  0.50433  Biso   1.000  C
  C72      1.0000 0.28877  0.47775  0.50490  Biso   1.000  C
  C73      1.0000 0.24209  0.59711  0.50418  Biso   1.000  C
  C74      1.0000 0.35505  0.75787  0.50418  Biso   1.000  C
  C75      1.0000 0.52222  0.81094  0.50490  Biso   1.000  C
  N7       1.0000 0.28259  0.44298  0.47857  Biso   1.000  N
  H78      1.0000 0.33523  0.47301  0.51450  Biso   1.000  H
  H79      1.0000 0.23137  0.44149  0.51380  Biso   1.000  H
  C76      1.0000 0.26432  0.68840  0.50433  Biso   1.000  C
  C77      1.0000 0.14309  0.52215  0.50386  Biso   1.000  C
  C78      1.0000 0.37902  0.85689  0.50386  Biso   1.000  C
  N8       1.0000 0.55698  0.83961  0.47857  Biso   1.000  N
  H80      1.0000 0.52700  0.86218  0.51450  Biso   1.000  H
  H81      1.0000 0.55846  0.78986  0.51380  Biso   1.000  H
  C79      1.0000 0.26587  0.35718  0.47361  Biso   1.000  C
  H82      1.0000 0.28987  0.47796  0.46559  Biso   1.000  H
  C80      1.0000 0.18904  0.71124  0.50490  Biso   1.000  C
  H83      1.0000 0.10799  0.54268  0.49411  Biso   1.000  H
  H84      1.0000 0.13829  0.46969  0.49500  Biso   1.000  H
  C81      1.0000 0.10274  0.49402  0.53107  Biso   1.000  C
  H85      1.0000 0.43467  0.89200  0.49411  Biso   1.000  H
  H86      1.0000 0.33142  0.86170  0.49500  Biso   1.000  H
  C82      1.0000 0.39130  0.89729  0.53107  Biso   1.000  C
  C83      1.0000 0.64281  0.90867  0.47361  Biso   1.000  C
  H87      1.0000 0.52199  0.81189  0.46559  Biso   1.000  H
  C84      1.0000 0.25779  0.32505  0.44793  Biso   1.000  C
  C85      1.0000 0.25777  0.29801  0.49383  Biso   1.000  C
  N9       1.0000 0.16040  0.71734  0.47857  Biso   1.000  N
  H88      1.0000 0.13780  0.66475  0.51450  Biso   1.000  H
  H89      1.0000 0.21008  0.76858  0.51380  Biso   1.000  H
  H90      1.0000 0.04050  0.44692  0.52970  Biso   1.000  H
  H91      1.0000 0.10599  0.54526  0.53989  Biso   1.000  H
  H92      1.0000 0.13608  0.47220  0.54081  Biso   1.000  H
  H93      1.0000 0.40638  0.95951  0.52970  Biso   1.000  H
  H94      1.0000 0.43929  0.89397  0.53989  Biso   1.000  H
  H95      1.0000 0.33609  0.86387  0.54081  Biso   1.000  H
  C86      1.0000 0.67491  0.93273  0.44793  Biso   1.000  C
  C87      1.0000 0.70196  0.95971  0.49383  Biso   1.000  C
  S7       1.0000 0.26542  0.39608  0.42150  Biso   1.000  S
  C88      1.0000 0.24099  0.23769  0.44334  Biso   1.000  C
  C89      1.0000 0.24229  0.21200  0.48891  Biso   1.000  C
  H96      1.0000 0.26298  0.31746  0.51101  Biso   1.000  H
  C90      1.0000 0.09129  0.73408  0.47361  Biso   1.000  C
  H97      1.0000 0.18811  0.71009  0.46559  Biso   1.000  H
  S8       1.0000 0.60393  0.86930  0.42150  Biso   1.000  S
  C91      1.0000 0.76231  0.00329  0.44334  Biso   1.000  C
  H98      1.0000 0.68246  0.94548  0.51101  Biso   1.000  H
  C92      1.0000 0.78801  0.03026  0.48891  Biso   1.000  C
  S9       1.0000 0.40128  0.46399  0.41184  Biso   1.000  S
  H99      1.0000 0.23237  0.21587  0.42630  Biso   1.000  H
  C93      1.0000 0.23690  0.18279  0.46354  Biso   1.000  C
  H100     1.0000 0.23546  0.17357  0.50269  Biso   1.000  H
  C94      1.0000 0.06726  0.74215  0.44793  Biso   1.000  C
  C95      1.0000 0.04030  0.74222  0.49383  Biso   1.000  C
  S10      1.0000 0.53599  0.93721  0.41184  Biso   1.000  S
  H101     1.0000 0.78403  0.01644  0.42630  Biso   1.000  H
  C96      1.0000 0.81710  0.05405  0.46354  Biso   1.000  C
  H102     1.0000 0.82640  0.06185  0.50269  Biso   1.000  H
  C97      1.0000 0.40886  0.40062  0.38540  Biso   1.000  C
  H103     1.0000 0.23048  0.12627  0.46011  Biso   1.000  H
  S11      1.0000 0.13068  0.73456  0.42150  Biso   1.000  S
  C98      1.0000 0.99666  0.75896  0.44334  Biso   1.000  C
  H104     1.0000 0.05453  0.73700  0.51101  Biso   1.000  H
  C99      1.0000 0.96967  0.75767  0.48891  Biso   1.000  C
  C100     1.0000 0.59938  0.00824  0.38540  Biso   1.000  C
  H105     1.0000 0.87366  0.10414  0.46011  Biso   1.000  H
  C101     1.0000 0.40078  0.42462  0.35973  Biso   1.000  C
  C102     1.0000 0.42567  0.33000  0.38998  Biso   1.000  C
  S12      1.0000 0.06276  0.59873  0.41184  Biso   1.000  S
  H106     1.0000 0.98348  0.76756  0.42630  Biso   1.000  H
  C103     1.0000 0.94591  0.76309  0.46354  Biso   1.000  C
  H107     1.0000 0.93807  0.76445  0.50269  Biso   1.000  H
  C104     1.0000 0.57534  0.97611  0.35973  Biso   1.000  C
  C105     1.0000 0.66989  0.09560  0.38998  Biso   1.000  C
  N10      1.0000 0.38401  0.49368  0.35476  Biso   1.000  N
  C106     1.0000 0.40890  0.37358  0.33949  Biso   1.000  C
  H108     1.0000 0.43430  0.31685  0.40704  Biso   1.000  H
  C107     1.0000 0.42975  0.27924  0.36978  Biso   1.000  C
  C108     1.0000 0.99170  0.59114  0.38540  Biso   1.000  C
  H109     1.0000 0.89579  0.76946  0.46011  Biso   1.000  H
  N11      1.0000 0.50626  0.89031  0.35476  Biso   1.000  N
  C109     1.0000 0.62640  0.03528  0.33949  Biso   1.000  C
  H110     1.0000 0.68309  0.11742  0.40704  Biso   1.000  H
  C110     1.0000 0.72070  0.15050  0.36978  Biso   1.000  C
  C111     1.0000 0.37792  0.52235  0.32843  Biso   1.000  C
  H111     1.0000 0.37674  0.52140  0.36773  Biso   1.000  H
  C112     1.0000 0.42433  0.30303  0.34441  Biso   1.000  C
  H112     1.0000 0.40363  0.38781  0.32234  Biso   1.000  H
  H113     1.0000 0.43617  0.22915  0.37324  Biso   1.000  H
  C113     1.0000 0.02385  0.59921  0.35973  Biso   1.000  C
  C114     1.0000 0.90435  0.57433  0.38998  Biso   1.000  C
  C115     1.0000 0.47766  0.85554  0.32843  Biso   1.000  C
  H114     1.0000 0.47856  0.85533  0.36773  Biso   1.000  H
  C116     1.0000 0.69688  0.12129  0.34441  Biso   1.000  C
  H115     1.0000 0.61216  0.01583  0.32234  Biso   1.000  H
  H116     1.0000 0.77079  0.20702  0.37324  Biso   1.000  H
  C117     1.0000 0.35506  0.59765  0.32899  Biso   1.000  C
  H117     1.0000 0.33146  0.47111  0.31883  Biso   1.000  H
  H118     1.0000 0.43524  0.54343  0.31953  Biso   1.000  H
  H119     1.0000 0.43114  0.27144  0.33063  Biso   1.000  H
  N12      1.0000 0.10970  0.61595  0.35476  Biso   1.000  N
  C118     1.0000 0.96467  0.59107  0.33949  Biso   1.000  C
  H120     1.0000 0.88256  0.56573  0.40704  Biso   1.000  H
  C119     1.0000 0.84946  0.57020  0.36978  Biso   1.000  C
  C120     1.0000 0.40229  0.75740  0.32899  Biso   1.000  C
  H121     1.0000 0.52887  0.86028  0.31883  Biso   1.000  H
  H122     1.0000 0.45652  0.89180  0.31953  Biso   1.000  H
  H123     1.0000 0.72859  0.15972  0.33063  Biso   1.000  H
  C121     1.0000 0.26382  0.57542  0.32915  Biso   1.000  C
  C122     1.0000 0.42452  0.68833  0.32915  Biso   1.000  C
  C123     1.0000 0.14445  0.62205  0.32843  Biso   1.000  C
  H124     1.0000 0.14467  0.62320  0.36773  Biso   1.000  H
  C124     1.0000 0.87864  0.57562  0.34441  Biso   1.000  C
  H125     1.0000 0.98412  0.59629  0.32234  Biso   1.000  H
  H126     1.0000 0.79298  0.56383  0.37324  Biso   1.000  H
  C125     1.0000 0.31163  0.73618  0.32915  Biso   1.000  C
  C126     1.0000 0.18878  0.47640  0.32946  Biso   1.000  C
  C127     1.0000 0.24256  0.64489  0.32899  Biso   1.000  C
  C128     1.0000 0.52360  0.71239  0.32946  Biso   1.000  C
  H127     1.0000 0.13969  0.66854  0.31883  Biso   1.000  H
  H128     1.0000 0.10815  0.56471  0.31953  Biso   1.000  H
  H129     1.0000 0.84027  0.56884  0.33063  Biso   1.000  H
  C129     1.0000 0.28763  0.81121  0.32946  Biso   1.000  C
  C130     1.0000 0.16066  0.43600  0.30226  Biso   1.000  C
  H130     1.0000 0.20932  0.44129  0.33924  Biso   1.000  H
  H131     1.0000 0.13636  0.47159  0.33834  Biso   1.000  H
  H132     1.0000 0.55864  0.76804  0.33924  Biso   1.000  H
  H133     1.0000 0.52836  0.66475  0.33834  Biso   1.000  H
  C131     1.0000 0.56392  0.72459  0.30226  Biso   1.000  C
  H134     1.0000 0.23195  0.79061  0.33924  Biso   1.000  H
  H135     1.0000 0.33525  0.86360  0.33834  Biso   1.000  H
  C132     1.0000 0.27536  0.83927  0.30226  Biso   1.000  C
  H136     1.0000 0.11356  0.37385  0.30364  Biso   1.000  H
  H137     1.0000 0.21197  0.43932  0.29343  Biso   1.000  H
  H138     1.0000 0.13886  0.46942  0.29254  Biso   1.000  H
  H139     1.0000 0.62612  0.73971  0.30364  Biso   1.000  H
  H140     1.0000 0.56062  0.77258  0.29343  Biso   1.000  H
  H141     1.0000 0.53058  0.66942  0.29254  Biso   1.000  H
  H142     1.0000 0.26023  0.88638  0.30364  Biso   1.000  H
  H143     1.0000 0.22738  0.78803  0.29343  Biso   1.000  H
  H144     1.0000 0.33053  0.86109  0.29254  Biso   1.000  H
  C133     1.0000 0.82729  0.76933  0.63558  Biso   1.000  C
  C134     1.0000 0.85547  0.80972  0.66279  Biso   1.000  C
  H145     1.0000 0.78025  0.70718  0.63697  Biso   1.000  H
  H146     1.0000 0.87860  0.77265  0.62676  Biso   1.000  H
  H147     1.0000 0.80549  0.80274  0.62586  Biso   1.000  H
  C135     1.0000 0.93045  0.90874  0.66248  Biso   1.000  C
  H148     1.0000 0.87601  0.77461  0.67257  Biso   1.000  H
  H149     1.0000 0.80303  0.80498  0.67167  Biso   1.000  H
  C136     1.0000 0.90919  0.97821  0.66234  Biso   1.000  C
  C137     1.0000 0.02175  0.93097  0.66234  Biso   1.000  C
  C138     1.0000 0.81108  0.95537  0.66177  Biso   1.000  C
  C139     1.0000 0.97826  0.06951  0.66248  Biso   1.000  C
  C140     1.0000 0.04455  0.85567  0.66177  Biso   1.000  C
  C141     1.0000 0.09115  0.02166  0.66248  Biso   1.000  C
  H150     1.0000 0.77478  0.89803  0.65287  Biso   1.000  H
  N13      1.0000 0.77633  0.94927  0.68810  Biso   1.000  N
  H151     1.0000 0.80627  0.00187  0.65217  Biso   1.000  H
  C142     1.0000 0.95426  0.14453  0.66279  Biso   1.000  C
  C143     1.0000 0.06899  0.09072  0.66234  Biso   1.000  C
  H152     1.0000 0.99810  0.80443  0.65217  Biso   1.000  H
  H153     1.0000 0.10193  0.87675  0.65287  Biso   1.000  H
  N14      1.0000 0.05070  0.82700  0.68810  Biso   1.000  N
  C144     1.0000 0.19023  0.04572  0.66279  Biso   1.000  C
  C145     1.0000 0.69048  0.93253  0.69306  Biso   1.000  C
  H154     1.0000 0.81130  0.95652  0.70106  Biso   1.000  H
  H155     1.0000 0.89864  0.12393  0.67257  Biso   1.000  H
  C146     1.0000 0.94193  0.17259  0.63558  Biso   1.000  C
  H156     1.0000 0.00188  0.19693  0.67167  Biso   1.000  H
  C147     1.0000 0.14429  0.18886  0.66177  Biso   1.000  C
  C148     1.0000 0.06747  0.75794  0.69306  Biso   1.000  C
  H157     1.0000 0.04343  0.85472  0.70106  Biso   1.000  H
  H158     1.0000 0.19505  0.99807  0.67167  Biso   1.000  H
  H159     1.0000 0.22527  0.10136  0.67257  Biso   1.000  H
  C149     1.0000 0.23061  0.05792  0.63558  Biso   1.000  C
  C150     1.0000 0.65839  0.92447  0.71874  Biso   1.000  C
  C151     1.0000 0.63136  0.92440  0.67284  Biso   1.000  C
  H160     1.0000 0.92692  0.21970  0.63697  Biso   1.000  H
  H161     1.0000 0.89395  0.12135  0.62676  Biso   1.000  H
  H162     1.0000 0.99716  0.19442  0.62586  Biso   1.000  H
  H163     1.0000 0.19550  0.19360  0.65217  Biso   1.000  H
  H164     1.0000 0.12321  0.22512  0.65287  Biso   1.000  H
  N15      1.0000 0.17289  0.22363  0.68810  Biso   1.000  N
  C152     1.0000 0.07555  0.73395  0.71874  Biso   1.000  C
  C153     1.0000 0.07559  0.70690  0.67284  Biso   1.000  C
  H165     1.0000 0.29275  0.07303  0.63697  Biso   1.000  H
  H166     1.0000 0.22731  0.10590  0.62676  Biso   1.000  H
  H167     1.0000 0.19721  0.00275  0.62586  Biso   1.000  H
  C154     1.0000 0.57104  0.90766  0.72333  Biso   1.000  C
  S13      1.0000 0.72940  0.93206  0.74517  Biso   1.000  S
  C155     1.0000 0.54533  0.90894  0.67774  Biso   1.000  C
  H168     1.0000 0.65082  0.92962  0.65567  Biso   1.000  H
  C156     1.0000 0.24197  0.30943  0.69306  Biso   1.000  C
  H169     1.0000 0.14525  0.18866  0.70106  Biso   1.000  H
  C157     1.0000 0.09230  0.66332  0.72333  Biso   1.000  C
  S14      1.0000 0.06791  0.79732  0.74517  Biso   1.000  S
  C158     1.0000 0.09102  0.63635  0.67774  Biso   1.000  C
  H170     1.0000 0.07032  0.72114  0.65567  Biso   1.000  H
  H171     1.0000 0.54925  0.89905  0.74037  Biso   1.000  H
  C159     1.0000 0.51609  0.90352  0.70313  Biso   1.000  C
  S15      1.0000 0.79731  0.06788  0.75483  Biso   1.000  S
  H172     1.0000 0.50690  0.90217  0.66396  Biso   1.000  H
  C160     1.0000 0.26607  0.34156  0.71874  Biso   1.000  C
  C161     1.0000 0.29303  0.36860  0.67284  Biso   1.000  C
  H173     1.0000 0.10093  0.65018  0.74037  Biso   1.000  H
  C162     1.0000 0.09644  0.61256  0.70313  Biso   1.000  C
  S16      1.0000 0.93206  0.72941  0.75483  Biso   1.000  S
  H174     1.0000 0.09783  0.60477  0.66396  Biso   1.000  H
  H175     1.0000 0.45961  0.89715  0.70657  Biso   1.000  H
  C163     1.0000 0.73384  0.07547  0.78126  Biso   1.000  C
  C164     1.0000 0.33664  0.42892  0.72333  Biso   1.000  C
  S17      1.0000 0.20262  0.27053  0.74517  Biso   1.000  S
  C165     1.0000 0.36363  0.45461  0.67774  Biso   1.000  C
  H176     1.0000 0.27879  0.34915  0.65567  Biso   1.000  H
  H177     1.0000 0.10286  0.56247  0.70657  Biso   1.000  H
  C166     1.0000 0.92442  0.65838  0.78126  Biso   1.000  C
  C167     1.0000 0.66330  0.09228  0.77667  Biso   1.000  C
  C168     1.0000 0.75792  0.06740  0.80694  Biso   1.000  C
  H178     1.0000 0.34984  0.45075  0.74037  Biso   1.000  H
  C169     1.0000 0.38745  0.48382  0.70313  Biso   1.000  C
  S18      1.0000 0.27056  0.20262  0.75483  Biso   1.000  S
  H179     1.0000 0.39523  0.49304  0.66396  Biso   1.000  H
  C170     1.0000 0.90762  0.57101  0.77667  Biso   1.000  C
  C171     1.0000 0.93250  0.69050  0.80694  Biso   1.000  C
  H180     1.0000 0.65011  0.10089  0.75963  Biso   1.000  H
  C172     1.0000 0.61260  0.09641  0.79687  Biso   1.000  C
  C173     1.0000 0.70687  0.07554  0.82716  Biso   1.000  C
  N16      1.0000 0.82697  0.05066  0.81190  Biso   1.000  N
  H181     1.0000 0.43754  0.54035  0.70657  Biso   1.000  H
  C174     1.0000 0.34160  0.26606  0.78126  Biso   1.000  C
  H182     1.0000 0.89900  0.54919  0.75963  Biso   1.000  H
  C175     1.0000 0.90353  0.51611  0.79687  Biso   1.000  C
  C176     1.0000 0.92440  0.63133  0.82716  Biso   1.000  C
  N17      1.0000 0.94929  0.77631  0.81190  Biso   1.000  N
  H183     1.0000 0.56249  0.10278  0.79343  Biso   1.000  H
  C177     1.0000 0.63636  0.09099  0.82226  Biso   1.000  C
  H184     1.0000 0.72111  0.07032  0.84433  Biso   1.000  H
  C178     1.0000 0.85562  0.04456  0.83823  Biso   1.000  C
  H185     1.0000 0.85469  0.04341  0.79894  Biso   1.000  H
  C179     1.0000 0.42900  0.33661  0.77667  Biso   1.000  C
  C180     1.0000 0.30944  0.24200  0.80694  Biso   1.000  C
  H186     1.0000 0.89711  0.45959  0.79343  Biso   1.000  H
  C181     1.0000 0.90893  0.54533  0.82226  Biso   1.000  C
  H187     1.0000 0.92961  0.65079  0.84433  Biso   1.000  H
  C182     1.0000 0.95540  0.81108  0.83823  Biso   1.000  C
  H188     1.0000 0.95650  0.81128  0.79894  Biso   1.000  H
  H189     1.0000 0.60476  0.09777  0.83604  Biso   1.000  H
  H190     1.0000 0.80446  0.99814  0.84783  Biso   1.000  H
  H191     1.0000 0.87677  0.10190  0.84713  Biso   1.000  H
  C183     1.0000 0.93095  0.02172  0.83766  Biso   1.000  C
  H192     1.0000 0.45078  0.34976  0.75963  Biso   1.000  H
  C184     1.0000 0.48379  0.38738  0.79687  Biso   1.000  C
  C185     1.0000 0.36865  0.29303  0.82716  Biso   1.000  C
  N18      1.0000 0.22361  0.17293  0.81190  Biso   1.000  N
  H193     1.0000 0.90215  0.50690  0.83604  Biso   1.000  H
  H194     1.0000 0.89806  0.77482  0.84713  Biso   1.000  H
  C186     1.0000 0.97823  0.90922  0.83766  Biso   1.000  C
  H195     1.0000 0.00186  0.80633  0.84783  Biso   1.000  H
  C187     1.0000 0.90878  0.93043  0.83752  Biso   1.000  C
  C188     1.0000 0.02168  0.09119  0.83752  Biso   1.000  C
  H196     1.0000 0.54035  0.43746  0.79343  Biso   1.000  H
  C189     1.0000 0.45458  0.36359  0.82226  Biso   1.000  C
  H197     1.0000 0.34909  0.27880  0.84433  Biso   1.000  H
  C190     1.0000 0.18891  0.14426  0.83823  Biso   1.000  C
  H198     1.0000 0.18862  0.14521  0.79894  Biso   1.000  H
  C191     1.0000 0.06952  0.97828  0.83752  Biso   1.000  C
  C192     1.0000 0.80973  0.85547  0.83721  Biso   1.000  C
  C193     1.0000 0.09068  0.06896  0.83766  Biso   1.000  C
  C194     1.0000 0.04566  0.19022  0.83721  Biso   1.000  C
  H199     1.0000 0.49303  0.39517  0.83604  Biso   1.000  H
  H200     1.0000 0.19363  0.19550  0.84783  Biso   1.000  H
  H201     1.0000 0.22515  0.12318  0.84713  Biso   1.000  H
  C195     1.0000 0.14454  0.95422  0.83721  Biso   1.000  C
  H202     1.0000 0.77462  0.87601  0.82743  Biso   1.000  H
  H203     1.0000 0.80492  0.80301  0.82833  Biso   1.000  H
  C196     1.0000 0.76937  0.82734  0.86442  Biso   1.000  C
  H204     1.0000 0.99805  0.19503  0.82833  Biso   1.000  H
  H205     1.0000 0.10130  0.22532  0.82743  Biso   1.000  H
  C197     1.0000 0.05799  0.23061  0.86442  Biso   1.000  C
  H206     1.0000 0.12394  0.89857  0.82743  Biso   1.000  H
  C198     1.0000 0.17266  0.94202  0.86442  Biso   1.000  C
  H207     1.0000 0.19692  0.00193  0.82833  Biso   1.000  H
  H208     1.0000 0.70713  0.78024  0.86303  Biso   1.000  H
  H209     1.0000 0.77262  0.87858  0.87324  Biso   1.000  H
  H210     1.0000 0.80277  0.80552  0.87414  Biso   1.000  H
  H211     1.0000 0.07304  0.29276  0.86303  Biso   1.000  H
  H212     1.0000 0.10593  0.22729  0.87324  Biso   1.000  H
  H213     1.0000 0.00278  0.19720  0.87414  Biso   1.000  H
  H214     1.0000 0.21975  0.92691  0.86303  Biso   1.000  H
  H215     1.0000 0.12137  0.89403  0.87324  Biso   1.000  H
  H216     1.0000 0.19443  0.99719  0.87414  Biso   1.000  H
  C199     1.0000 0.76936  0.94202  0.36442  Biso   1.000  C
  C200     1.0000 0.80968  0.95422  0.33721  Biso   1.000  C
  H217     1.0000 0.70716  0.92691  0.36303  Biso   1.000  H
  H218     1.0000 0.77266  0.89403  0.37324  Biso   1.000  H
  H219     1.0000 0.80276  0.99719  0.37414  Biso   1.000  H
  C201     1.0000 0.90876  0.97828  0.33752  Biso   1.000  C
  H220     1.0000 0.77464  0.89857  0.32743  Biso   1.000  H
  H221     1.0000 0.80489  0.00193  0.32833  Biso   1.000  H
  C202     1.0000 0.93098  0.90922  0.33766  Biso   1.000  C
  C203     1.0000 0.97816  0.06896  0.33766  Biso   1.000  C
  C204     1.0000 0.85568  0.81108  0.33823  Biso   1.000  C
  C205     1.0000 0.02165  0.93043  0.33752  Biso   1.000  C
  C206     1.0000 0.95536  0.14426  0.33823  Biso   1.000  C
  C207     1.0000 0.06946  0.09119  0.33752  Biso   1.000  C
  N19      1.0000 0.82702  0.77631  0.31190  Biso   1.000  N
  H222     1.0000 0.80447  0.80633  0.34783  Biso   1.000  H
  H223     1.0000 0.87675  0.77482  0.34713  Biso   1.000  H
  C208     1.0000 0.04574  0.85547  0.33721  Biso   1.000  C
  C209     1.0000 0.09078  0.02172  0.33766  Biso   1.000  C
  H224     1.0000 0.89798  0.12318  0.34713  Biso   1.000  H
  N20      1.0000 0.94926  0.17293  0.31190  Biso   1.000  N
  H225     1.0000 0.00187  0.19550  0.34783  Biso   1.000  H
  C210     1.0000 0.14456  0.19022  0.33721  Biso   1.000  C
  C211     1.0000 0.75794  0.69050  0.30694  Biso   1.000  C
  H226     1.0000 0.85472  0.81128  0.29894  Biso   1.000  H
  H227     1.0000 0.99803  0.80301  0.32833  Biso   1.000  H
  H228     1.0000 0.10138  0.87601  0.32743  Biso   1.000  H
  C212     1.0000 0.05797  0.82734  0.36442  Biso   1.000  C
  C213     1.0000 0.18889  0.04456  0.33823  Biso   1.000  C
  C214     1.0000 0.93256  0.24200  0.30694  Biso   1.000  C
  H229     1.0000 0.95648  0.14521  0.29894  Biso   1.000  H
  H230     1.0000 0.12396  0.22532  0.32743  Biso   1.000  H
  H231     1.0000 0.19697  0.19503  0.32833  Biso   1.000  H
  C215     1.0000 0.17262  0.23061  0.36442  Biso   1.000  C
  C216     1.0000 0.73390  0.65838  0.28126  Biso   1.000  C
  C217     1.0000 0.70693  0.63133  0.32716  Biso   1.000  C
  H232     1.0000 0.07310  0.78024  0.36303  Biso   1.000  H
  H233     1.0000 0.10596  0.87858  0.37324  Biso   1.000  H
  H234     1.0000 0.00275  0.80552  0.37414  Biso   1.000  H
  H235     1.0000 0.19367  0.99814  0.34783  Biso   1.000  H
  H236     1.0000 0.22513  0.10190  0.34713  Biso   1.000  H
  N21      1.0000 0.22358  0.05066  0.31190  Biso   1.000  N
  C218     1.0000 0.92445  0.26606  0.28126  Biso   1.000  C
  C219     1.0000 0.92438  0.29303  0.32716  Biso   1.000  C
  H237     1.0000 0.21972  0.29276  0.36303  Biso   1.000  H
  H238     1.0000 0.12130  0.22729  0.37324  Biso   1.000  H
  H239     1.0000 0.19448  0.19720  0.37414  Biso   1.000  H
  C220     1.0000 0.66333  0.57101  0.27667  Biso   1.000  C
  S19      1.0000 0.79735  0.72941  0.25483  Biso   1.000  S
  C221     1.0000 0.63634  0.54533  0.32226  Biso   1.000  C
  H240     1.0000 0.72112  0.65079  0.34433  Biso   1.000  H
  C222     1.0000 0.30943  0.06740  0.30694  Biso   1.000  C
  H241     1.0000 0.18867  0.04341  0.29894  Biso   1.000  H
  C223     1.0000 0.90761  0.33661  0.27667  Biso   1.000  C
  S20      1.0000 0.93206  0.20262  0.25483  Biso   1.000  S
  C224     1.0000 0.90889  0.36359  0.32226  Biso   1.000  C
  H242     1.0000 0.92959  0.27880  0.34433  Biso   1.000  H
  C225     1.0000 0.61252  0.51611  0.29687  Biso   1.000  C
  H243     1.0000 0.65013  0.54919  0.25963  Biso   1.000  H
  S21      1.0000 0.72941  0.79732  0.24517  Biso   1.000  S
  H244     1.0000 0.60474  0.50690  0.33604  Biso   1.000  H
  C226     1.0000 0.34152  0.07547  0.28126  Biso   1.000  C
  C227     1.0000 0.36861  0.07554  0.32716  Biso   1.000  C
  H245     1.0000 0.89898  0.34976  0.25963  Biso   1.000  H
  C228     1.0000 0.90353  0.38738  0.29687  Biso   1.000  C
  S22      1.0000 0.06785  0.27053  0.24517  Biso   1.000  S
  H246     1.0000 0.90214  0.39517  0.33604  Biso   1.000  H
  H247     1.0000 0.56242  0.45959  0.29343  Biso   1.000  H
  C229     1.0000 0.65840  0.73395  0.21874  Biso   1.000  C
  C230     1.0000 0.42892  0.09228  0.27667  Biso   1.000  C
  S23      1.0000 0.27057  0.06788  0.25483  Biso   1.000  S
  C231     1.0000 0.45463  0.09099  0.32226  Biso   1.000  C
  H248     1.0000 0.34909  0.07032  0.34433  Biso   1.000  H
  H249     1.0000 0.89711  0.43746  0.29343  Biso   1.000  H
  C232     1.0000 0.07555  0.34156  0.21874  Biso   1.000  C
  C233     1.0000 0.57102  0.66332  0.22333  Biso   1.000  C
  C234     1.0000 0.69047  0.75794  0.19306  Biso   1.000  C
  H250     1.0000 0.45072  0.10089  0.25963  Biso   1.000  H
  C235     1.0000 0.48388  0.09641  0.29687  Biso   1.000  C
  S24      1.0000 0.20266  0.93206  0.24517  Biso   1.000  S
  H251     1.0000 0.49301  0.09777  0.33604  Biso   1.000  H
  C236     1.0000 0.06747  0.30943  0.19306  Biso   1.000  C
  C237     1.0000 0.09234  0.42892  0.22333  Biso   1.000  C
  H252     1.0000 0.54925  0.65018  0.24037  Biso   1.000  H
  C238     1.0000 0.51612  0.61256  0.20313  Biso   1.000  C
  C239     1.0000 0.63132  0.70690  0.17284  Biso   1.000  C
  N22      1.0000 0.77630  0.82700  0.18810  Biso   1.000  N
  H253     1.0000 0.54036  0.10278  0.29343  Biso   1.000  H
  C240     1.0000 0.26607  0.92447  0.21874  Biso   1.000  C
  N23      1.0000 0.05074  0.22363  0.18810  Biso   1.000  N
  C241     1.0000 0.07551  0.36860  0.17284  Biso   1.000  C
  H254     1.0000 0.10097  0.45075  0.24037  Biso   1.000  H
  C242     1.0000 0.09643  0.48382  0.20313  Biso   1.000  C
  H255     1.0000 0.45961  0.56247  0.20657  Biso   1.000  H
  C243     1.0000 0.54533  0.63635  0.17774  Biso   1.000  C
  H256     1.0000 0.65082  0.72114  0.15567  Biso   1.000  H
  C244     1.0000 0.81112  0.85567  0.16177  Biso   1.000  C
  H257     1.0000 0.81129  0.85472  0.20106  Biso   1.000  H
  C245     1.0000 0.24205  0.93253  0.19306  Biso   1.000  C
  C246     1.0000 0.33661  0.90766  0.22333  Biso   1.000  C
  C247     1.0000 0.04451  0.18886  0.16177  Biso   1.000  C
  H258     1.0000 0.04347  0.18866  0.20106  Biso   1.000  H
  C248     1.0000 0.09104  0.45461  0.17774  Biso   1.000  C
  H259     1.0000 0.07030  0.34915  0.15567  Biso   1.000  H
  H260     1.0000 0.10286  0.54035  0.20657  Biso   1.000  H
  H261     1.0000 0.50694  0.60477  0.16396  Biso   1.000  H
  H262     1.0000 0.80628  0.80443  0.15217  Biso   1.000  H
  H263     1.0000 0.77482  0.87675  0.15287  Biso   1.000  H
  C249     1.0000 0.90923  0.93097  0.16234  Biso   1.000  C
  N24      1.0000 0.17294  0.94927  0.18810  Biso   1.000  N
  C250     1.0000 0.29304  0.92440  0.17284  Biso   1.000  C
  H264     1.0000 0.34980  0.89905  0.24037  Biso   1.000  H
  C251     1.0000 0.38743  0.90352  0.20313  Biso   1.000  C
  C252     1.0000 0.02179  0.09072  0.16234  Biso   1.000  C
  H265     1.0000 0.99811  0.19360  0.15217  Biso   1.000  H
  H266     1.0000 0.10197  0.22512  0.15287  Biso   1.000  H
  H267     1.0000 0.09787  0.49304  0.16396  Biso   1.000  H
  C253     1.0000 0.97829  0.90874  0.16248  Biso   1.000  C
  C254     1.0000 0.93044  0.02166  0.16248  Biso   1.000  C
  C255     1.0000 0.14429  0.95537  0.16177  Biso   1.000  C
  H268     1.0000 0.14522  0.95652  0.20106  Biso   1.000  H
  C256     1.0000 0.36361  0.90894  0.17774  Biso   1.000  C
  H269     1.0000 0.27880  0.92962  0.15567  Biso   1.000  H
  H270     1.0000 0.43754  0.89715  0.20657  Biso   1.000  H
  C257     1.0000 0.09119  0.06951  0.16248  Biso   1.000  C
  C258     1.0000 0.95425  0.80972  0.16279  Biso   1.000  C
  C259     1.0000 0.06902  0.97821  0.16234  Biso   1.000  C
  C260     1.0000 0.85549  0.04572  0.16279  Biso   1.000  C
  H271     1.0000 0.12325  0.89803  0.15287  Biso   1.000  H
  H272     1.0000 0.19554  0.00187  0.15217  Biso   1.000  H
  H273     1.0000 0.39526  0.90217  0.16396  Biso   1.000  H
  C261     1.0000 0.19022  0.14453  0.16279  Biso   1.000  C
  H274     1.0000 0.89861  0.77461  0.17257  Biso   1.000  H
  C262     1.0000 0.94198  0.76933  0.13558  Biso   1.000  C
  H275     1.0000 0.00195  0.80498  0.17167  Biso   1.000  H
  H276     1.0000 0.80302  0.99807  0.17167  Biso   1.000  H
  H277     1.0000 0.87603  0.10136  0.17257  Biso   1.000  H
  C263     1.0000 0.82725  0.05792  0.13558  Biso   1.000  C
  H278     1.0000 0.22534  0.12393  0.17257  Biso   1.000  H
  H279     1.0000 0.19505  0.19693  0.17167  Biso   1.000  H
  C264     1.0000 0.23054  0.17259  0.13558  Biso   1.000  C
  H280     1.0000 0.92693  0.70718  0.13697  Biso   1.000  H
  H281     1.0000 0.89398  0.77265  0.12676  Biso   1.000  H
  H282     1.0000 0.99719  0.80274  0.12586  Biso   1.000  H
  H283     1.0000 0.78022  0.07303  0.13697  Biso   1.000  H
  H284     1.0000 0.87860  0.10590  0.12676  Biso   1.000  H
  H285     1.0000 0.80548  0.00275  0.12586  Biso   1.000  H
  H286     1.0000 0.29283  0.21970  0.13697  Biso   1.000  H
  H287     1.0000 0.22729  0.12135  0.12676  Biso   1.000  H
  H288     1.0000 0.19726  0.19442  0.12586  Biso   1.000  H
  C265     1.0000 0.72461  0.56396  0.19774  Biso   1.000  C
  C266     1.0000 0.71239  0.52357  0.17054  Biso   1.000  C
  H289     1.0000 0.73972  0.62612  0.19636  Biso   1.000  H
  H290     1.0000 0.77260  0.56064  0.20657  Biso   1.000  H
  H291     1.0000 0.66940  0.53055  0.20746  Biso   1.000  H
  C267     1.0000 0.68836  0.42455  0.17085  Biso   1.000  C
  H292     1.0000 0.76804  0.55868  0.16076  Biso   1.000  H
  H293     1.0000 0.66473  0.52838  0.16166  Biso   1.000  H
  C268     1.0000 0.59763  0.35508  0.17101  Biso   1.000  C
  C269     1.0000 0.75742  0.40232  0.17101  Biso   1.000  C
  C270     1.0000 0.57546  0.26378  0.17085  Biso   1.000  C
  C271     1.0000 0.52235  0.37792  0.17157  Biso   1.000  C
  C272     1.0000 0.73614  0.31163  0.17085  Biso   1.000  C
  C273     1.0000 0.85553  0.47762  0.17157  Biso   1.000  C
  C274     1.0000 0.47640  0.18882  0.17054  Biso   1.000  C
  C275     1.0000 0.64491  0.24257  0.17101  Biso   1.000  C
  H294     1.0000 0.47111  0.33142  0.18117  Biso   1.000  H
  H295     1.0000 0.54339  0.43526  0.18047  Biso   1.000  H
  N25      1.0000 0.49371  0.38402  0.14524  Biso   1.000  N
  C276     1.0000 0.81116  0.28757  0.17054  Biso   1.000  C
  H296     1.0000 0.86031  0.52886  0.18117  Biso   1.000  H
  H297     1.0000 0.89183  0.45654  0.18047  Biso   1.000  H
  N26      1.0000 0.89029  0.50629  0.14524  Biso   1.000  N
  C277     1.0000 0.43604  0.16070  0.19774  Biso   1.000  C
  H298     1.0000 0.44130  0.20936  0.16076  Biso   1.000  H
  H299     1.0000 0.47160  0.13637  0.16166  Biso   1.000  H
  C278     1.0000 0.62208  0.14443  0.17157  Biso   1.000  C
  C279     1.0000 0.42460  0.40076  0.14027  Biso   1.000  C
  H300     1.0000 0.52142  0.37677  0.13227  Biso   1.000  H
  H301     1.0000 0.79061  0.23193  0.16076  Biso   1.000  H
  H302     1.0000 0.86360  0.33529  0.16166  Biso   1.000  H
  C280     1.0000 0.83928  0.27537  0.19774  Biso   1.000  C
  C281     1.0000 0.97612  0.57535  0.14027  Biso   1.000  C
  H303     1.0000 0.85530  0.47857  0.13227  Biso   1.000  H
  H304     1.0000 0.37381  0.11359  0.19636  Biso   1.000  H
  H305     1.0000 0.43930  0.21194  0.20657  Biso   1.000  H
  H306     1.0000 0.46945  0.13887  0.20746  Biso   1.000  H
  H307     1.0000 0.66854  0.13969  0.18117  Biso   1.000  H
  H308     1.0000 0.56474  0.10817  0.18047  Biso   1.000  H
  N27      1.0000 0.61596  0.10966  0.14524  Biso   1.000  N
  C282     1.0000 0.40057  0.40883  0.11460  Biso   1.000  C
  C283     1.0000 0.37361  0.40889  0.16051  Biso   1.000  C
  H309     1.0000 0.88643  0.26026  0.19636  Biso   1.000  H
  H310     1.0000 0.78805  0.22739  0.20657  Biso   1.000  H
  H311     1.0000 0.86111  0.33054  0.20746  Biso   1.000  H
  C284     1.0000 0.00828  0.59941  0.11460  Biso   1.000  C
  C285     1.0000 0.03533  0.62639  0.16051  Biso   1.000  C
  C286     1.0000 0.59918  0.02386  0.14027  Biso   1.000  C
  H312     1.0000 0.62318  0.14463  0.13227  Biso   1.000  H
  C287     1.0000 0.33003  0.42563  0.11002  Biso   1.000  C
  S25      1.0000 0.46399  0.40123  0.08816  Biso   1.000  S
  C288     1.0000 0.30303  0.42435  0.15559  Biso   1.000  C
  H313     1.0000 0.38784  0.40367  0.17766  Biso   1.000  H
  S26      1.0000 0.93724  0.53597  0.08816  Biso   1.000  S
  C289     1.0000 0.09562  0.66997  0.11002  Biso   1.000  C
  C290     1.0000 0.12132  0.69694  0.15559  Biso   1.000  C
  H314     1.0000 0.01583  0.61215  0.17766  Biso   1.000  H
  C291     1.0000 0.59116  0.99173  0.11460  Biso   1.000  C
  C292     1.0000 0.59108  0.96469  0.16051  Biso   1.000  C
  H315     1.0000 0.31684  0.43424  0.09296  Biso   1.000  H
  C293     1.0000 0.27921  0.42977  0.13022  Biso   1.000  C
  S27      1.0000 0.39607  0.26541  0.07850  Biso   1.000  S
  H316     1.0000 0.27138  0.43112  0.16937  Biso   1.000  H
  S28      1.0000 0.86930  0.60388  0.07850  Biso   1.000  S
  H317     1.0000 0.11740  0.68311  0.09296  Biso   1.000  H
  C294     1.0000 0.15053  0.72073  0.13022  Biso   1.000  C
  H318     1.0000 0.15971  0.72852  0.16937  Biso   1.000  H
  S29      1.0000 0.59873  0.06276  0.08816  Biso   1.000  S
  C295     1.0000 0.57436  0.90437  0.11002  Biso   1.000  C
  C296     1.0000 0.57566  0.87868  0.15559  Biso   1.000  C
  H319     1.0000 0.59628  0.98414  0.17766  Biso   1.000  H
  H320     1.0000 0.22910  0.43614  0.12676  Biso   1.000  H
  C297     1.0000 0.32507  0.25782  0.05207  Biso   1.000  C
  C298     1.0000 0.93269  0.67491  0.05207  Biso   1.000  C
  H321     1.0000 0.20703  0.77082  0.12676  Biso   1.000  H
  S30      1.0000 0.73459  0.13067  0.07850  Biso   1.000  S
  H322     1.0000 0.56574  0.88254  0.09296  Biso   1.000  H
  C299     1.0000 0.57027  0.84947  0.13022  Biso   1.000  C
  H323     1.0000 0.56883  0.84025  0.16937  Biso   1.000  H
  C300     1.0000 0.23772  0.24101  0.05666  Biso   1.000  C
  C301     1.0000 0.35716  0.26589  0.02639  Biso   1.000  C
  C302     1.0000 0.90865  0.64279  0.02639  Biso   1.000  C
  C303     1.0000 0.00331  0.76228  0.05666  Biso   1.000  C
  C304     1.0000 0.74217  0.06730  0.05207  Biso   1.000  C
  H324     1.0000 0.56384  0.79294  0.12676  Biso   1.000  H
  H325     1.0000 0.21593  0.23240  0.07370  Biso   1.000  H
  C305     1.0000 0.18277  0.23688  0.03646  Biso   1.000  C
  C306     1.0000 0.29804  0.25775  0.00617  Biso   1.000  C
  N28      1.0000 0.44301  0.28263  0.02143  Biso   1.000  N
  C307     1.0000 0.95971  0.70196  0.00617  Biso   1.000  C
  N29      1.0000 0.83962  0.55698  0.02143  Biso   1.000  N
  H326     1.0000 0.01651  0.78410  0.07370  Biso   1.000  H
  C308     1.0000 0.05412  0.81718  0.03646  Biso   1.000  C
  C309     1.0000 0.73409  0.09129  0.02639  Biso   1.000  C
  C310     1.0000 0.75904  0.99668  0.05666  Biso   1.000  C
  H327     1.0000 0.12629  0.23051  0.03989  Biso   1.000  H
  C311     1.0000 0.21201  0.24230  0.01109  Biso   1.000  C
  H328     1.0000 0.31749  0.26297  0.98899  Biso   1.000  H
  H329     1.0000 0.47798  0.28988  0.03441  Biso   1.000  H
  C312     1.0000 0.47776  0.28873  0.99510  Biso   1.000  C
  H330     1.0000 0.94547  0.68250  0.98899  Biso   1.000  H
  C313     1.0000 0.03030  0.78796  0.01109  Biso   1.000  C
  H331     1.0000 0.81187  0.52201  0.03441  Biso   1.000  H
  C314     1.0000 0.81097  0.52221  0.99510  Biso   1.000  C
  H332     1.0000 0.10422  0.87370  0.03989  Biso   1.000  H
  C315     1.0000 0.74220  0.04026  0.00617  Biso   1.000  C
  N30      1.0000 0.71732  0.16036  0.02143  Biso   1.000  N
  H333     1.0000 0.76766  0.98353  0.07370  Biso   1.000  H
  C316     1.0000 0.76306  0.94591  0.03646  Biso   1.000  C
  H334     1.0000 0.17358  0.23552  0.99731  Biso   1.000  H
  H335     1.0000 0.47300  0.33522  0.98550  Biso   1.000  H
  H336     1.0000 0.44146  0.23139  0.98620  Biso   1.000  H
  C317     1.0000 0.57587  0.31157  0.99567  Biso   1.000  C
  H337     1.0000 0.06190  0.82639  0.99731  Biso   1.000  H
  C318     1.0000 0.73566  0.42407  0.99567  Biso   1.000  C
  H338     1.0000 0.86218  0.52696  0.98550  Biso   1.000  H
  H339     1.0000 0.78989  0.55847  0.98620  Biso   1.000  H
  C319     1.0000 0.75764  0.96970  0.01109  Biso   1.000  C
  H340     1.0000 0.73700  0.05449  0.98899  Biso   1.000  H
  H341     1.0000 0.71005  0.18808  0.03441  Biso   1.000  H
  C320     1.0000 0.71123  0.18903  0.99510  Biso   1.000  C
  H342     1.0000 0.76954  0.89583  0.03989  Biso   1.000  H
  C321     1.0000 0.59713  0.24210  0.99582  Biso   1.000  C
  C322     1.0000 0.64499  0.40286  0.99582  Biso   1.000  C
  C323     1.0000 0.75783  0.35501  0.99582  Biso   1.000  C
  H343     1.0000 0.76451  0.93812  0.99731  Biso   1.000  H
  H344     1.0000 0.66477  0.13779  0.98550  Biso   1.000  H
  H345     1.0000 0.76861  0.21011  0.98620  Biso   1.000  H
  C324     1.0000 0.68842  0.26433  0.99567  Biso   1.000  C
  C325     1.0000 0.52215  0.14308  0.99614  Biso   1.000  C
  C326     1.0000 0.62094  0.47789  0.99614  Biso   1.000  C
  C327     1.0000 0.85691  0.37907  0.99614  Biso   1.000  C
  H346     1.0000 0.54268  0.10797  0.00589  Biso   1.000  H
  H347     1.0000 0.46967  0.13826  0.00500  Biso   1.000  H
  C328     1.0000 0.49397  0.10268  0.96893  Biso   1.000  C
  H348     1.0000 0.56526  0.45728  0.00589  Biso   1.000  H
  H349     1.0000 0.66856  0.53028  0.00500  Biso   1.000  H
  C329     1.0000 0.60867  0.50595  0.96893  Biso   1.000  C
  H350     1.0000 0.89201  0.43472  0.00589  Biso   1.000  H
  H351     1.0000 0.86163  0.33136  0.00500  Biso   1.000  H
  C330     1.0000 0.89723  0.39127  0.96893  Biso   1.000  C
  H352     1.0000 0.44692  0.04053  0.97030  Biso   1.000  H
  H353     1.0000 0.54528  0.10600  0.96011  Biso   1.000  H
  H354     1.0000 0.47217  0.13609  0.95919  Biso   1.000  H
  H355     1.0000 0.59354  0.55305  0.97030  Biso   1.000  H
  H356     1.0000 0.56069  0.45471  0.96011  Biso   1.000  H
  H357     1.0000 0.66390  0.52777  0.95919  Biso   1.000  H
  H358     1.0000 0.95949  0.40639  0.97030  Biso   1.000  H
  H359     1.0000 0.89398  0.43926  0.96011  Biso   1.000  H
  H360     1.0000 0.86389  0.33610  0.95919  Biso   1.000  H
  C331     1.0000 0.56391  0.83927  0.80226  Biso   1.000  C
  C332     1.0000 0.52358  0.81121  0.82946  Biso   1.000  C
  H361     1.0000 0.62614  0.88638  0.80364  Biso   1.000  H
  H362     1.0000 0.56065  0.78803  0.79343  Biso   1.000  H
  H363     1.0000 0.53056  0.86109  0.79254  Biso   1.000  H
  C333     1.0000 0.42456  0.73618  0.82915  Biso   1.000  C
  H364     1.0000 0.55865  0.79061  0.83924  Biso   1.000  H
  H365     1.0000 0.52836  0.86360  0.83834  Biso   1.000  H
  C334     1.0000 0.40233  0.64489  0.82899  Biso   1.000  C
  C335     1.0000 0.35510  0.75740  0.82899  Biso   1.000  C
  C336     1.0000 0.31160  0.57542  0.82915  Biso   1.000  C
  C337     1.0000 0.47760  0.62205  0.82843  Biso   1.000  C
  C338     1.0000 0.26381  0.68833  0.82915  Biso   1.000  C
  C339     1.0000 0.37788  0.85554  0.82843  Biso   1.000  C
  C340     1.0000 0.28762  0.47640  0.82946  Biso   1.000  C
  C341     1.0000 0.24259  0.59765  0.82899  Biso   1.000  C
  H366     1.0000 0.52885  0.66854  0.81883  Biso   1.000  H
  H367     1.0000 0.45656  0.56471  0.81953  Biso   1.000  H
  N31      1.0000 0.50625  0.61595  0.85476  Biso   1.000  N
  C342     1.0000 0.18880  0.71239  0.82946  Biso   1.000  C
  H368     1.0000 0.33141  0.86028  0.81883  Biso   1.000  H
  H369     1.0000 0.43527  0.89180  0.81953  Biso   1.000  H
  N32      1.0000 0.38405  0.89031  0.85476  Biso   1.000  N
  C343     1.0000 0.27535  0.43600  0.80226  Biso   1.000  C
  H370     1.0000 0.23197  0.44129  0.83924  Biso   1.000  H
  H371     1.0000 0.33522  0.47159  0.83834  Biso   1.000  H
  C344     1.0000 0.14443  0.52235  0.82843  Biso   1.000  C
  C345     1.0000 0.57536  0.59921  0.85973  Biso   1.000  C
  H372     1.0000 0.47853  0.62320  0.86773  Biso   1.000  H
  H373     1.0000 0.20940  0.76804  0.83924  Biso   1.000  H
  H374     1.0000 0.13639  0.66475  0.83834  Biso   1.000  H
  C346     1.0000 0.16068  0.72459  0.80226  Biso   1.000  C
  C347     1.0000 0.40077  0.97611  0.85973  Biso   1.000  C
  H375     1.0000 0.37678  0.85533  0.86773  Biso   1.000  H
  H376     1.0000 0.26030  0.37385  0.80364  Biso   1.000  H
  H377     1.0000 0.22735  0.43932  0.79343  Biso   1.000  H
  H378     1.0000 0.33056  0.46942  0.79254  Biso   1.000  H
  H379     1.0000 0.13965  0.47111  0.81883  Biso   1.000  H
  H380     1.0000 0.10819  0.54343  0.81953  Biso   1.000  H
  N33      1.0000 0.10967  0.49368  0.85476  Biso   1.000  N
  C348     1.0000 0.59938  0.59114  0.88540  Biso   1.000  C
  C349     1.0000 0.62635  0.59107  0.83949  Biso   1.000  C
  H381     1.0000 0.11359  0.73971  0.80364  Biso   1.000  H
  H382     1.0000 0.21196  0.77258  0.79343  Biso   1.000  H
  H383     1.0000 0.13884  0.66942  0.79254  Biso   1.000  H
  C350     1.0000 0.40885  0.00824  0.88540  Biso   1.000  C
  C351     1.0000 0.40888  0.03528  0.83949  Biso   1.000  C
  C352     1.0000 0.02384  0.42462  0.85973  Biso   1.000  C
  H384     1.0000 0.14466  0.52140  0.86773  Biso   1.000  H
  C353     1.0000 0.66998  0.57433  0.88998  Biso   1.000  C
  S31      1.0000 0.53597  0.59873  0.91184  Biso   1.000  S
  C354     1.0000 0.69698  0.57562  0.84441  Biso   1.000  C
  H385     1.0000 0.61211  0.59629  0.82234  Biso   1.000  H
  S32      1.0000 0.40122  0.93721  0.91184  Biso   1.000  S
  C355     1.0000 0.42560  0.09560  0.88998  Biso   1.000  C
  C356     1.0000 0.42435  0.12129  0.84441  Biso   1.000  C
  H386     1.0000 0.40367  0.01583  0.82234  Biso   1.000  H
  C357     1.0000 0.99177  0.40062  0.88540  Biso   1.000  C
  C358     1.0000 0.96469  0.37358  0.83949  Biso   1.000  C
  H387     1.0000 0.68317  0.56573  0.90704  Biso   1.000  H
  C359     1.0000 0.72074  0.57020  0.86978  Biso   1.000  C
  S33      1.0000 0.60388  0.73456  0.92150  Biso   1.000  S
  H388     1.0000 0.72857  0.56884  0.83063  Biso   1.000  H
  S34      1.0000 0.26537  0.86930  0.92150  Biso   1.000  S
  H389     1.0000 0.43428  0.11742  0.90704  Biso   1.000  H
  C360     1.0000 0.42974  0.15050  0.86978  Biso   1.000  C
  H390     1.0000 0.43112  0.15972  0.83063  Biso   1.000  H
  S35      1.0000 0.06272  0.46399  0.91184  Biso   1.000  S
  C361     1.0000 0.90433  0.33000  0.88998  Biso   1.000  C
  C362     1.0000 0.87864  0.30303  0.84441  Biso   1.000  C
  H391     1.0000 0.98413  0.38781  0.82234  Biso   1.000  H
  H392     1.0000 0.77085  0.56383  0.87324  Biso   1.000  H
  C363     1.0000 0.67488  0.74215  0.94793  Biso   1.000  C
  C364     1.0000 0.25782  0.93273  0.94793  Biso   1.000  C
  H393     1.0000 0.43611  0.20702  0.87324  Biso   1.000  H
  S36      1.0000 0.13066  0.39608  0.92150  Biso   1.000  S
  H394     1.0000 0.88256  0.31685  0.90704  Biso   1.000  H
  C365     1.0000 0.84943  0.27924  0.86978  Biso   1.000  C
  H395     1.0000 0.84025  0.27144  0.83063  Biso   1.000  H
  C366     1.0000 0.76229  0.75896  0.94334  Biso   1.000  C
  C367     1.0000 0.64279  0.73408  0.97361  Biso   1.000  C
  C368     1.0000 0.26586  0.90867  0.97361  Biso   1.000  C
  C369     1.0000 0.24098  0.00329  0.94334  Biso   1.000  C
  C370     1.0000 0.06726  0.32505  0.94793  Biso   1.000  C
  H396     1.0000 0.79298  0.22915  0.87324  Biso   1.000  H
  H397     1.0000 0.78409  0.76756  0.92630  Biso   1.000  H
  C371     1.0000 0.81719  0.76309  0.96354  Biso   1.000  C
  C372     1.0000 0.70192  0.74222  0.99383  Biso   1.000  C
  N34      1.0000 0.55695  0.71734  0.97857  Biso   1.000  N
  C373     1.0000 0.25775  0.95971  0.99383  Biso   1.000  C
  N35      1.0000 0.28263  0.83961  0.97857  Biso   1.000  N
  H398     1.0000 0.23241  0.01644  0.92630  Biso   1.000  H
  C374     1.0000 0.23683  0.05405  0.96354  Biso   1.000  C
  C375     1.0000 0.09131  0.35718  0.97361  Biso   1.000  C
  C376     1.0000 0.99664  0.23769  0.94334  Biso   1.000  C
  H399     1.0000 0.87367  0.76946  0.96011  Biso   1.000  H
  C377     1.0000 0.78800  0.75767  0.98891  Biso   1.000  C
  H400     1.0000 0.68246  0.73700  0.01101  Biso   1.000  H
  H401     1.0000 0.52198  0.71009  0.96559  Biso   1.000  H
  C378     1.0000 0.52220  0.71124  0.00490  Biso   1.000  C
  H402     1.0000 0.26302  0.94548  0.01101  Biso   1.000  H
  C379     1.0000 0.24226  0.03026  0.98891  Biso   1.000  C
  H403     1.0000 0.28990  0.81189  0.96559  Biso   1.000  H
  C380     1.0000 0.28872  0.81094  0.00490  Biso   1.000  C
  H404     1.0000 0.23048  0.10414  0.96011  Biso   1.000  H
  C381     1.0000 0.04024  0.29801  0.99383  Biso   1.000  C
  N36      1.0000 0.16039  0.44298  0.97857  Biso   1.000  N
  H405     1.0000 0.98344  0.21587  0.92630  Biso   1.000  H
  C382     1.0000 0.94589  0.18279  0.96354  Biso   1.000  C
  H406     1.0000 0.82637  0.76445  0.00269  Biso   1.000  H
  H407     1.0000 0.52695  0.66475  0.01450  Biso   1.000  H
  H408     1.0000 0.55850  0.76858  0.01380  Biso   1.000  H
  C383     1.0000 0.42409  0.68840  0.00433  Biso   1.000  C
  H409     1.0000 0.23545  0.06185  0.00269  Biso   1.000  H
  C384     1.0000 0.31159  0.73564  0.00433  Biso   1.000  C
  H410     1.0000 0.33518  0.86218  0.01450  Biso   1.000  H
  H411     1.0000 0.23140  0.78986  0.01380  Biso   1.000  H
  C385     1.0000 0.96965  0.21200  0.98891  Biso   1.000  C
  H412     1.0000 0.05449  0.31746  0.01101  Biso   1.000  H
  H413     1.0000 0.18809  0.47796  0.96559  Biso   1.000  H
  C386     1.0000 0.18899  0.47775  0.00490  Biso   1.000  C
  H414     1.0000 0.89573  0.12627  0.96011  Biso   1.000  H
  C387     1.0000 0.35502  0.59711  0.00418  Biso   1.000  C
  C388     1.0000 0.40283  0.75787  0.00418  Biso   1.000  C
  C389     1.0000 0.24212  0.64496  0.00418  Biso   1.000  C
  H415     1.0000 0.93805  0.17357  0.00269  Biso   1.000  H
  H416     1.0000 0.13778  0.47301  0.01450  Biso   1.000  H
  H417     1.0000 0.21012  0.44149  0.01380  Biso   1.000  H
  C390     1.0000 0.26435  0.57589  0.00433  Biso   1.000  C
  C391     1.0000 0.37905  0.52215  0.00386  Biso   1.000  C
  C392     1.0000 0.47787  0.85689  0.00386  Biso   1.000  C
  C393     1.0000 0.14305  0.62090  0.00386  Biso   1.000  C
  H418     1.0000 0.43469  0.54268  0.99411  Biso   1.000  H
  H419     1.0000 0.33140  0.46969  0.99500  Biso   1.000  H
  C394     1.0000 0.39128  0.49402  0.03107  Biso   1.000  C
  H420     1.0000 0.45733  0.89200  0.99411  Biso   1.000  H
  H421     1.0000 0.53028  0.86170  0.99500  Biso   1.000  H
  C395     1.0000 0.50599  0.89729  0.03107  Biso   1.000  C
  H422     1.0000 0.10801  0.56525  0.99411  Biso   1.000  H
  H423     1.0000 0.13832  0.66861  0.99500  Biso   1.000  H
  C396     1.0000 0.10273  0.60870  0.03107  Biso   1.000  C
  H424     1.0000 0.40641  0.44692  0.02970  Biso   1.000  H
  H425     1.0000 0.43927  0.54526  0.03989  Biso   1.000  H
  H426     1.0000 0.33612  0.47220  0.04081  Biso   1.000  H
  H427     1.0000 0.55312  0.95951  0.02970  Biso   1.000  H
  H428     1.0000 0.45467  0.89397  0.03989  Biso   1.000  H
  H429     1.0000 0.52779  0.86387  0.04081  Biso   1.000  H
  H430     1.0000 0.04053  0.59358  0.02970  Biso   1.000  H
  H431     1.0000 0.10603  0.56071  0.03989  Biso   1.000  H
  H432     1.0000 0.13607  0.66387  0.04081  Biso   1.000  H
