data_image0
_cell_length_a       17.594
_cell_length_b       17.594
_cell_length_c       32.234
_cell_angle_alpha    90
_cell_angle_beta     90
_cell_angle_gamma    120

_symmetry_space_group_name_H-M    "P 1"
_symmetry_int_tables_number       1

loop_
  _symmetry_equiv_pos_as_xyz
  'x, y, z'

loop_
  _atom_site_label
  _atom_site_occupancy
  _atom_site_fract_x
  _atom_site_fract_y
  _atom_site_fract_z
  _atom_site_thermal_displace_type
  _atom_site_B_iso_or_equiv
  _atom_site_type_symbol
  C1       1.0000 0.64911  0.72029  0.37780  Biso   1.000  C
  C2       1.0000 0.66661  0.81362  0.37510  Biso   1.000  C
  H1       1.0000 0.66111  0.70861  0.40600  Biso   1.000  H
  H2       1.0000 0.68712  0.71242  0.35819  Biso   1.000  H
  H3       1.0000 0.58749  0.67947  0.37091  Biso   1.000  H
  N1       1.0000 0.75868  0.88522  0.37982  Biso   1.000  N
  C3       1.0000 0.61622  0.82970  0.40982  Biso   1.000  C
  C4       1.0000 0.63599  0.83081  0.33359  Biso   1.000  C
  C5       1.0000 0.81827  0.86731  0.38680  Biso   1.000  C
  N2       1.0000 0.64422  0.81611  0.45011  Biso   1.000  N
  H4       1.0000 0.62706  0.89047  0.40789  Biso   1.000  H
  H5       1.0000 0.55240  0.78901  0.40640  Biso   1.000  H
  H6       1.0000 0.66346  0.81618  0.31091  Biso   1.000  H
  H7       1.0000 0.65271  0.89277  0.33179  Biso   1.000  H
  H8       1.0000 0.57196  0.79426  0.33151  Biso   1.000  H
  H9       1.0000 0.80300  0.80778  0.39040  Biso   1.000  H
  C6       1.0000 0.91108  0.93628  0.38962  Biso   1.000  C
  C7       1.0000 0.66937  0.87938  0.47590  Biso   1.000  C
  C8       1.0000 0.97458  0.91187  0.38950  Biso   1.000  C
  C9       1.0000 0.93728  0.02541  0.38950  Biso   1.000  C
  C10      1.0000 0.70012  0.87380  0.51812  Biso   1.000  C
  H10      1.0000 0.66839  0.93097  0.46802  Biso   1.000  H
  H11      1.0000 0.95730  0.85129  0.38931  Biso   1.000  H
  C11      1.0000 0.06374  0.97481  0.38962  Biso   1.000  C
  H12      1.0000 0.89399  0.04274  0.38931  Biso   1.000  H
  C12      1.0000 0.02520  0.08894  0.38962  Biso   1.000  C
  C13      1.0000 0.72235  0.94147  0.54619  Biso   1.000  C
  C14      1.0000 0.70597  0.79957  0.53031  Biso   1.000  C
  C15      1.0000 0.13270  0.95098  0.38680  Biso   1.000  C
  C16      1.0000 0.08807  0.06269  0.38950  Biso   1.000  C
  C17      1.0000 0.04904  0.18174  0.38680  Biso   1.000  C
  C18      1.0000 0.75047  0.93858  0.58550  Biso   1.000  C
  H13      1.0000 0.71809  0.99102  0.53800  Biso   1.000  H
  H14      1.0000 0.69051  0.75252  0.51142  Biso   1.000  H
  C19      1.0000 0.73478  0.79649  0.57002  Biso   1.000  C
  N3       1.0000 0.11481  0.87347  0.37982  Biso   1.000  N
  H15      1.0000 0.19222  0.99522  0.39040  Biso   1.000  H
  H16      1.0000 0.14872  0.10600  0.38931  Biso   1.000  H
  N4       1.0000 0.12652  0.24133  0.37982  Biso   1.000  N
  H17      1.0000 0.00479  0.19703  0.39040  Biso   1.000  H
  C20      1.0000 0.75609  0.86606  0.59772  Biso   1.000  C
  C21      1.0000 0.77288  0.01228  0.61612  Biso   1.000  C
  C22      1.0000 0.73966  0.71747  0.58091  Biso   1.000  C
  C23      1.0000 0.18642  0.85300  0.37510  Biso   1.000  C
  C24      1.0000 0.14698  0.33341  0.37510  Biso   1.000  C
  H18      1.0000 0.77461  0.86330  0.62512  Biso   1.000  H
  N5       1.0000 0.77038  0.07890  0.60632  Biso   1.000  N
  H19      1.0000 0.78928  0.00723  0.64351  Biso   1.000  H
  N6       1.0000 0.76791  0.71032  0.61451  Biso   1.000  N
  H20      1.0000 0.72050  0.67107  0.56130  Biso   1.000  H
  C25      1.0000 0.17028  0.78651  0.40982  Biso   1.000  C
  C26      1.0000 0.27968  0.92880  0.37780  Biso   1.000  C
  C27      1.0000 0.16923  0.80522  0.33359  Biso   1.000  C
  C28      1.0000 0.21351  0.38382  0.40982  Biso   1.000  C
  C29      1.0000 0.07123  0.35094  0.37780  Biso   1.000  C
  C30      1.0000 0.19479  0.36400  0.33359  Biso   1.000  C
  C31      1.0000 0.79219  0.14571  0.63870  Biso   1.000  C
  C32      1.0000 0.76642  0.62821  0.62291  Biso   1.000  C
  N7       1.0000 0.18389  0.82806  0.45011  Biso   1.000  N
  H21      1.0000 0.10950  0.73657  0.40789  Biso   1.000  H
  H22      1.0000 0.21102  0.76341  0.40640  Biso   1.000  H
  H23      1.0000 0.29141  0.95249  0.40600  Biso   1.000  H
  H24      1.0000 0.28761  0.97468  0.35819  Biso   1.000  H
  H25      1.0000 0.32049  0.90800  0.37091  Biso   1.000  H
  H26      1.0000 0.18379  0.84729  0.31091  Biso   1.000  H
  H27      1.0000 0.10717  0.75987  0.33179  Biso   1.000  H
  H28      1.0000 0.20573  0.77772  0.33151  Biso   1.000  H
  N8       1.0000 0.17187  0.35579  0.45011  Biso   1.000  N
  H29      1.0000 0.26342  0.37292  0.40789  Biso   1.000  H
  H30      1.0000 0.23659  0.44761  0.40640  Biso   1.000  H
  H31      1.0000 0.04749  0.33892  0.40600  Biso   1.000  H
  H32      1.0000 0.02534  0.31294  0.35819  Biso   1.000  H
  H33      1.0000 0.09200  0.41250  0.37091  Biso   1.000  H
  H34      1.0000 0.15267  0.33650  0.31091  Biso   1.000  H
  H35      1.0000 0.24011  0.34733  0.33179  Biso   1.000  H
  H36      1.0000 0.22229  0.42799  0.33151  Biso   1.000  H
  C33      1.0000 0.86176  0.23359  0.62291  Biso   1.000  C
  C34      1.0000 0.82118  0.14663  0.67882  Biso   1.000  C
  C35      1.0000 0.71209  0.16920  0.63920  Biso   1.000  C
  H37      1.0000 0.81358  0.12983  0.66380  Biso   1.000  H
  H38      1.0000 0.73909  0.14840  0.64631  Biso   1.000  H
  H39      1.0000 0.75175  0.59297  0.59710  Biso   1.000  H
  H40      1.0000 0.72067  0.59389  0.64382  Biso   1.000  H
  C36      1.0000 0.85430  0.64652  0.63870  Biso   1.000  C
  C37      1.0000 0.73400  0.59599  0.66880  Biso   1.000  C
  C38      1.0000 0.75806  0.56488  0.59899  Biso   1.000  C
  C39      1.0000 0.12058  0.78999  0.47590  Biso   1.000  C
  C40      1.0000 0.20997  0.33059  0.47590  Biso   1.000  C
  N9       1.0000 0.94240  0.23208  0.61451  Biso   1.000  N
  H41      1.0000 0.84123  0.24822  0.59710  Biso   1.000  H
  H42      1.0000 0.87321  0.27933  0.64382  Biso   1.000  H
  C41      1.0000 0.86200  0.26601  0.66880  Biso   1.000  C
  C42      1.0000 0.80682  0.24192  0.59899  Biso   1.000  C
  H43      1.0000 0.88027  0.15431  0.67801  Biso   1.000  H
  H44      1.0000 0.78110  0.09091  0.69250  Biso   1.000  H
  H45      1.0000 0.82241  0.19513  0.69430  Biso   1.000  H
  H46      1.0000 0.66007  0.12110  0.65242  Biso   1.000  H
  H47      1.0000 0.69782  0.17682  0.61060  Biso   1.000  H
  H48      1.0000 0.73087  0.22348  0.65481  Biso   1.000  H
  N10      1.0000 0.92111  0.69148  0.60632  Biso   1.000  N
  C43      1.0000 0.85339  0.67461  0.67882  Biso   1.000  C
  C44      1.0000 0.83079  0.54289  0.63920  Biso   1.000  C
  H49      1.0000 0.87021  0.68380  0.66380  Biso   1.000  H
  H50      1.0000 0.85161  0.59067  0.64631  Biso   1.000  H
  H51      1.0000 0.67211  0.58089  0.67150  Biso   1.000  H
  H52      1.0000 0.76958  0.64318  0.68840  Biso   1.000  H
  H53      1.0000 0.73878  0.54440  0.67500  Biso   1.000  H
  H54      1.0000 0.81038  0.58608  0.58150  Biso   1.000  H
  H55      1.0000 0.70611  0.54499  0.58140  Biso   1.000  H
  H56      1.0000 0.75159  0.51592  0.61612  Biso   1.000  H
  C45      1.0000 0.12617  0.82629  0.51812  Biso   1.000  C
  H57      1.0000 0.06901  0.73742  0.46802  Biso   1.000  H
  C46      1.0000 0.17370  0.29987  0.51812  Biso   1.000  C
  H58      1.0000 0.26258  0.33157  0.46802  Biso   1.000  H
  C47      1.0000 0.97777  0.26030  0.58091  Biso   1.000  C
  H59      1.0000 0.90881  0.32790  0.67150  Biso   1.000  H
  H60      1.0000 0.87360  0.23044  0.68840  Biso   1.000  H
  H61      1.0000 0.80561  0.26122  0.67500  Biso   1.000  H
  H62      1.0000 0.77572  0.18962  0.58150  Biso   1.000  H
  H63      1.0000 0.83889  0.29390  0.58140  Biso   1.000  H
  H64      1.0000 0.76431  0.24842  0.61612  Biso   1.000  H
  C48      1.0000 0.98766  0.76059  0.61612  Biso   1.000  C
  H65      1.0000 0.84572  0.72600  0.67801  Biso   1.000  H
  H66      1.0000 0.90908  0.69017  0.69250  Biso   1.000  H
  H67      1.0000 0.80489  0.62729  0.69430  Biso   1.000  H
  H68      1.0000 0.87892  0.53902  0.65242  Biso   1.000  H
  H69      1.0000 0.82318  0.52097  0.61060  Biso   1.000  H
  H70      1.0000 0.77649  0.50739  0.65481  Biso   1.000  H
  C49      1.0000 0.05850  0.78087  0.54619  Biso   1.000  C
  C50      1.0000 0.20040  0.90642  0.53031  Biso   1.000  C
  C51      1.0000 0.21912  0.27763  0.54619  Biso   1.000  C
  C52      1.0000 0.09359  0.29403  0.53031  Biso   1.000  C
  H71      1.0000 0.95061  0.27953  0.56130  Biso   1.000  H
  C53      1.0000 0.06173  0.26522  0.57002  Biso   1.000  C
  H72      1.0000 0.99280  0.78212  0.64351  Biso   1.000  H
  C54      1.0000 0.06141  0.81191  0.58550  Biso   1.000  C
  H73      1.0000 0.00901  0.72712  0.53800  Biso   1.000  H
  H74      1.0000 0.24750  0.93799  0.51142  Biso   1.000  H
  C55      1.0000 0.20350  0.93832  0.57002  Biso   1.000  C
  C56      1.0000 0.18814  0.24954  0.58550  Biso   1.000  C
  H75      1.0000 0.27292  0.28189  0.53800  Biso   1.000  H
  H76      1.0000 0.06200  0.30952  0.51142  Biso   1.000  H
  C57      1.0000 0.11001  0.24389  0.59772  Biso   1.000  C
  C58      1.0000 0.13393  0.89001  0.59772  Biso   1.000  C
  C59      1.0000 0.28250  0.02219  0.58091  Biso   1.000  C
  C60      1.0000 0.23938  0.22709  0.61612  Biso   1.000  C
  H77      1.0000 0.08871  0.22538  0.62512  Biso   1.000  H
  H78      1.0000 0.13667  0.91128  0.62512  Biso   1.000  H
  N11      1.0000 0.28970  0.05763  0.61451  Biso   1.000  N
  H79      1.0000 0.32891  0.04943  0.56130  Biso   1.000  H
  N12      1.0000 0.30849  0.22958  0.60632  Biso   1.000  N
  H80      1.0000 0.21788  0.21068  0.64351  Biso   1.000  H
  C61      1.0000 0.37183  0.13823  0.62291  Biso   1.000  C
  C62      1.0000 0.35347  0.20780  0.63870  Biso   1.000  C
  H81      1.0000 0.40703  0.15884  0.59710  Biso   1.000  H
  H82      1.0000 0.40608  0.12681  0.64382  Biso   1.000  H
  C63      1.0000 0.40402  0.13803  0.66880  Biso   1.000  C
  C64      1.0000 0.43514  0.19323  0.59899  Biso   1.000  C
  C65      1.0000 0.32538  0.17879  0.67882  Biso   1.000  C
  C66      1.0000 0.45708  0.28793  0.63920  Biso   1.000  C
  H83      1.0000 0.31617  0.18640  0.66380  Biso   1.000  H
  H84      1.0000 0.40929  0.26089  0.64631  Biso   1.000  H
  H85      1.0000 0.41910  0.09124  0.67150  Biso   1.000  H
  H86      1.0000 0.35683  0.12641  0.68840  Biso   1.000  H
  H87      1.0000 0.45562  0.19441  0.67500  Biso   1.000  H
  H88      1.0000 0.41392  0.22433  0.58150  Biso   1.000  H
  H89      1.0000 0.45501  0.16113  0.58140  Biso   1.000  H
  H90      1.0000 0.48411  0.23569  0.61612  Biso   1.000  H
  H91      1.0000 0.27402  0.11972  0.67801  Biso   1.000  H
  H92      1.0000 0.30980  0.21889  0.69250  Biso   1.000  H
  H93      1.0000 0.37271  0.17761  0.69430  Biso   1.000  H
  H94      1.0000 0.46102  0.33991  0.65242  Biso   1.000  H
  H95      1.0000 0.47901  0.30224  0.61060  Biso   1.000  H
  H96      1.0000 0.49257  0.26909  0.65481  Biso   1.000  H
  C67      1.0000 0.59032  0.46210  0.43609  Biso   1.000  C
  C68      1.0000 0.51696  0.48146  0.44000  Biso   1.000  C
  H97      1.0000 0.58787  0.43618  0.40861  Biso   1.000  H
  H98      1.0000 0.64730  0.51717  0.43861  Biso   1.000  H
  C69      1.0000 0.58321  0.40140  0.46842  Biso   1.000  C
  C70      1.0000 0.51885  0.51946  0.48272  Biso   1.000  C
  H99      1.0000 0.46011  0.42699  0.43581  Biso   1.000  H
  H100     1.0000 0.52300  0.52412  0.41832  Biso   1.000  H
  C71      1.0000 0.58483  0.43533  0.51250  Biso   1.000  C
  H101     1.0000 0.63229  0.38952  0.46550  Biso   1.000  H
  H102     1.0000 0.52779  0.34522  0.46451  Biso   1.000  H
  N13      1.0000 0.44572  0.53620  0.48579  Biso   1.000  N
  H103     1.0000 0.57538  0.57591  0.48619  Biso   1.000  H
  C72      1.0000 0.51040  0.45652  0.51691  Biso   1.000  C
  H104     1.0000 0.57698  0.39017  0.53310  Biso   1.000  H
  H105     1.0000 0.64209  0.48868  0.51781  Biso   1.000  H
  C73      1.0000 0.46363  0.61522  0.49032  Biso   1.000  C
  N14      1.0000 0.51791  0.49859  0.55711  Biso   1.000  N
  H106     1.0000 0.45225  0.40126  0.51470  Biso   1.000  H
  C74      1.0000 0.39671  0.64042  0.49240  Biso   1.000  C
  H107     1.0000 0.52348  0.65978  0.49240  Biso   1.000  H
  C75      1.0000 0.45267  0.46348  0.58082  Biso   1.000  C
  C76      1.0000 0.42168  0.72889  0.49221  Biso   1.000  C
  C77      1.0000 0.30721  0.57827  0.49221  Biso   1.000  C
  H108     1.0000 0.40142  0.41203  0.57169  Biso   1.000  H
  C78      1.0000 0.45292  0.49912  0.62201  Biso   1.000  C
  H109     1.0000 0.48241  0.77168  0.49190  Biso   1.000  H
  C79      1.0000 0.35960  0.75626  0.49240  Biso   1.000  C
  H110     1.0000 0.28934  0.51763  0.49190  Biso   1.000  H
  C80      1.0000 0.24366  0.60327  0.49240  Biso   1.000  C
  C81      1.0000 0.52469  0.57991  0.63532  Biso   1.000  C
  C82      1.0000 0.38352  0.45239  0.64959  Biso   1.000  C
  C83      1.0000 0.27109  0.69279  0.49221  Biso   1.000  C
  C84      1.0000 0.38481  0.84840  0.49032  Biso   1.000  C
  C85      1.0000 0.15162  0.53640  0.49032  Biso   1.000  C
  H111     1.0000 0.57169  0.61332  0.61671  Biso   1.000  H
  C86      1.0000 0.52750  0.61030  0.67441  Biso   1.000  C
  C87      1.0000 0.38548  0.48370  0.68921  Biso   1.000  C
  H112     1.0000 0.33429  0.39838  0.64109  Biso   1.000  H
  H113     1.0000 0.22832  0.71071  0.49190  Biso   1.000  H
  N15      1.0000 0.46379  0.90951  0.48579  Biso   1.000  N
  H114     1.0000 0.34023  0.86370  0.49240  Biso   1.000  H
  N16      1.0000 0.09050  0.55431  0.48579  Biso   1.000  N
  H115     1.0000 0.13627  0.47648  0.49240  Biso   1.000  H
  C88      1.0000 0.45736  0.56357  0.70239  Biso   1.000  C
  C89      1.0000 0.60600  0.69240  0.68651  Biso   1.000  C
  C90      1.0000 0.31581  0.43349  0.72002  Biso   1.000  C
  C91      1.0000 0.48050  0.99942  0.48272  Biso   1.000  C
  C92      1.0000 0.00057  0.48107  0.48272  Biso   1.000  C
  H116     1.0000 0.45883  0.58562  0.72951  Biso   1.000  H
  N17      1.0000 0.61827  0.72318  0.72361  Biso   1.000  N
  H117     1.0000 0.64948  0.72410  0.66610  Biso   1.000  H
  N18      1.0000 0.25236  0.35637  0.71307  Biso   1.000  N
  H118     1.0000 0.31838  0.45987  0.74601  Biso   1.000  H
  H119     1.0000 0.42409  0.99948  0.48619  Biso   1.000  H
  C93      1.0000 0.51850  0.03552  0.44000  Biso   1.000  C
  C94      1.0000 0.54349  0.05389  0.51691  Biso   1.000  C
  H120     1.0000 0.00050  0.42456  0.48619  Biso   1.000  H
  C95      1.0000 0.96446  0.48297  0.44000  Biso   1.000  C
  C96      1.0000 0.94612  0.48960  0.51691  Biso   1.000  C
  C97      1.0000 0.70159  0.80161  0.73239  Biso   1.000  C
  C98      1.0000 0.19008  0.31411  0.74620  Biso   1.000  C
  H121     1.0000 0.47592  0.99889  0.41832  Biso   1.000  H
  H122     1.0000 0.57298  0.03309  0.43581  Biso   1.000  H
  C99      1.0000 0.53789  0.12819  0.43609  Biso   1.000  C
  N19      1.0000 0.50141  0.01931  0.55711  Biso   1.000  N
  C100     1.0000 0.56470  0.14952  0.51250  Biso   1.000  C
  H123     1.0000 0.59871  0.05100  0.51470  Biso   1.000  H
  H124     1.0000 0.00109  0.47700  0.41832  Biso   1.000  H
  H125     1.0000 0.96688  0.53988  0.43581  Biso   1.000  H
  C101     1.0000 0.87176  0.40966  0.43609  Biso   1.000  C
  N20      1.0000 0.98069  0.48212  0.55711  Biso   1.000  N
  C102     1.0000 0.85048  0.41518  0.51250  Biso   1.000  C
  H126     1.0000 0.94896  0.54769  0.51470  Biso   1.000  H
  H127     1.0000 0.73812  0.82012  0.70661  Biso   1.000  H
  C103     1.0000 0.74920  0.78008  0.76602  Biso   1.000  C
  C104     1.0000 0.68591  0.87597  0.74620  Biso   1.000  C
  C105     1.0000 0.09999  0.29842  0.73239  Biso   1.000  C
  C106     1.0000 0.18399  0.22839  0.75802  Biso   1.000  C
  H128     1.0000 0.20960  0.35362  0.77102  Biso   1.000  H
  H129     1.0000 0.56379  0.15168  0.40861  Biso   1.000  H
  H130     1.0000 0.48280  0.13009  0.43861  Biso   1.000  H
  C107     1.0000 0.59858  0.18181  0.46842  Biso   1.000  C
  C108     1.0000 0.53648  0.98918  0.58082  Biso   1.000  C
  H131     1.0000 0.60977  0.18679  0.53310  Biso   1.000  H
  H132     1.0000 0.51127  0.15339  0.51781  Biso   1.000  H
  H133     1.0000 0.84831  0.41209  0.40861  Biso   1.000  H
  H134     1.0000 0.86988  0.35270  0.43861  Biso   1.000  H
  C109     1.0000 0.81822  0.41682  0.46842  Biso   1.000  C
  C110     1.0000 0.01077  0.54729  0.58082  Biso   1.000  C
  H135     1.0000 0.81318  0.42299  0.53310  Biso   1.000  H
  H136     1.0000 0.84661  0.35788  0.51781  Biso   1.000  H
  H137     1.0000 0.71021  0.75508  0.79041  Biso   1.000  H
  H138     1.0000 0.76239  0.73519  0.75532  Biso   1.000  H
  C111     1.0000 0.83320  0.85976  0.77930  Biso   1.000  C
  N21      1.0000 0.64357  0.89599  0.71307  Biso   1.000  N
  C112     1.0000 0.77158  0.95558  0.75802  Biso   1.000  C
  H139     1.0000 0.64638  0.85602  0.77102  Biso   1.000  H
  N22      1.0000 0.10491  0.38171  0.72361  Biso   1.000  N
  H140     1.0000 0.08200  0.26187  0.70661  Biso   1.000  H
  C113     1.0000 0.03087  0.25077  0.76602  Biso   1.000  C
  C114     1.0000 0.11521  0.18121  0.79211  Biso   1.000  C
  H141     1.0000 0.24201  0.23962  0.76792  Biso   1.000  H
  H142     1.0000 0.16808  0.19020  0.73320  Biso   1.000  H
  H143     1.0000 0.61048  0.24278  0.46550  Biso   1.000  H
  H144     1.0000 0.65478  0.18259  0.46451  Biso   1.000  H
  H145     1.0000 0.58802  0.98938  0.57169  Biso   1.000  H
  C115     1.0000 0.50089  0.95381  0.62201  Biso   1.000  C
  H146     1.0000 0.75718  0.36773  0.46550  Biso   1.000  H
  H147     1.0000 0.81738  0.47221  0.46451  Biso   1.000  H
  H148     1.0000 0.01063  0.59861  0.57169  Biso   1.000  H
  C116     1.0000 0.04620  0.54709  0.62201  Biso   1.000  C
  H149     1.0000 0.87569  0.87938  0.75600  Biso   1.000  H
  H150     1.0000 0.85879  0.84388  0.80282  Biso   1.000  H
  C117     1.0000 0.81876  0.93399  0.79211  Biso   1.000  C
  C118     1.0000 0.56646  0.88227  0.72002  Biso   1.000  C
  H151     1.0000 0.80979  0.97789  0.73320  Biso   1.000  H
  H152     1.0000 0.76040  0.00244  0.76792  Biso   1.000  H
  C119     1.0000 0.08638  0.39398  0.68651  Biso   1.000  C
  H153     1.0000 0.04493  0.28982  0.79041  Biso   1.000  H
  C120     1.0000 0.02660  0.16677  0.77930  Biso   1.000  C
  H154     1.0000 0.97278  0.23758  0.75532  Biso   1.000  H
  H155     1.0000 0.11060  0.12378  0.79810  Biso   1.000  H
  H156     1.0000 0.13433  0.21671  0.81780  Biso   1.000  H
  C121     1.0000 0.42012  0.94481  0.63532  Biso   1.000  C
  C122     1.0000 0.54762  0.93110  0.64959  Biso   1.000  C
  C123     1.0000 0.05520  0.47530  0.63532  Biso   1.000  C
  C124     1.0000 0.06889  0.61647  0.64959  Biso   1.000  C
  H157     1.0000 0.87621  0.98682  0.79810  Biso   1.000  H
  H158     1.0000 0.78327  0.91758  0.81780  Biso   1.000  H
  C125     1.0000 0.51630  0.90176  0.68921  Biso   1.000  C
  H159     1.0000 0.54009  0.85851  0.74601  Biso   1.000  H
  C126     1.0000 0.08278  0.47247  0.67441  Biso   1.000  C
  H160     1.0000 0.07457  0.35047  0.66610  Biso   1.000  H
  H161     1.0000 0.00372  0.12430  0.75600  Biso   1.000  H
  H162     1.0000 0.98510  0.14117  0.80282  Biso   1.000  H
  H163     1.0000 0.38673  0.95840  0.61671  Biso   1.000  H
  C127     1.0000 0.38971  0.91718  0.67441  Biso   1.000  C
  H164     1.0000 0.60157  0.93589  0.64109  Biso   1.000  H
  H165     1.0000 0.04159  0.42830  0.61671  Biso   1.000  H
  C128     1.0000 0.09820  0.61450  0.68921  Biso   1.000  C
  H166     1.0000 0.06412  0.66569  0.64109  Biso   1.000  H
  C129     1.0000 0.43639  0.89382  0.70239  Biso   1.000  C
  C130     1.0000 0.10617  0.54257  0.70239  Biso   1.000  C
  C131     1.0000 0.30759  0.91357  0.68651  Biso   1.000  C
  C132     1.0000 0.11770  0.68420  0.72002  Biso   1.000  C
  H167     1.0000 0.41438  0.87321  0.72951  Biso   1.000  H
  H168     1.0000 0.12679  0.54119  0.72951  Biso   1.000  H
  N23      1.0000 0.27679  0.89507  0.72361  Biso   1.000  N
  H169     1.0000 0.27587  0.92539  0.66610  Biso   1.000  H
  N24      1.0000 0.10399  0.74760  0.71307  Biso   1.000  N
  H170     1.0000 0.14151  0.68157  0.74601  Biso   1.000  H
  C133     1.0000 0.19837  0.89999  0.73239  Biso   1.000  C
  C134     1.0000 0.12399  0.80988  0.74620  Biso   1.000  C
  H171     1.0000 0.17991  0.91797  0.70661  Biso   1.000  H
  C135     1.0000 0.21991  0.96910  0.76602  Biso   1.000  C
  C136     1.0000 0.04440  0.81598  0.75802  Biso   1.000  C
  H172     1.0000 0.14397  0.79039  0.77102  Biso   1.000  H
  H173     1.0000 0.24492  0.95512  0.79041  Biso   1.000  H
  C137     1.0000 0.14020  0.97336  0.77930  Biso   1.000  C
  H174     1.0000 0.26481  0.02718  0.75532  Biso   1.000  H
  C138     1.0000 0.06600  0.88476  0.79211  Biso   1.000  C
  H175     1.0000 0.02210  0.83186  0.73320  Biso   1.000  H
  H176     1.0000 0.99760  0.75797  0.76792  Biso   1.000  H
  H177     1.0000 0.12056  0.99627  0.75600  Biso   1.000  H
  H178     1.0000 0.15608  0.01491  0.80282  Biso   1.000  H
  H179     1.0000 0.01320  0.88942  0.79810  Biso   1.000  H
  H180     1.0000 0.08237  0.86566  0.81780  Biso   1.000  H
  C139     1.0000 0.88479  0.81880  0.29211  Biso   1.000  C
  C140     1.0000 0.81601  0.77162  0.25799  Biso   1.000  C
  C141     1.0000 0.97337  0.83318  0.27930  Biso   1.000  C
  H181     1.0000 0.88937  0.87617  0.29810  Biso   1.000  H
  H182     1.0000 0.86567  0.78330  0.31780  Biso   1.000  H
  C142     1.0000 0.80987  0.68590  0.24620  Biso   1.000  C
  H183     1.0000 0.75800  0.76039  0.26792  Biso   1.000  H
  H184     1.0000 0.83193  0.80981  0.23320  Biso   1.000  H
  C143     1.0000 0.96911  0.74917  0.26599  Biso   1.000  C
  H185     1.0000 0.99628  0.87571  0.25600  Biso   1.000  H
  H186     1.0000 0.01487  0.85877  0.30282  Biso   1.000  H
  N25      1.0000 0.74756  0.64357  0.21307  Biso   1.000  N
  C144     1.0000 0.90002  0.70159  0.23239  Biso   1.000  C
  H187     1.0000 0.79040  0.64639  0.27102  Biso   1.000  H
  H188     1.0000 0.95507  0.71019  0.29041  Biso   1.000  H
  H189     1.0000 0.02720  0.76236  0.25529  Biso   1.000  H
  C145     1.0000 0.68419  0.56652  0.22002  Biso   1.000  C
  N26      1.0000 0.89509  0.61830  0.22361  Biso   1.000  N
  H190     1.0000 0.91798  0.73808  0.20661  Biso   1.000  H
  C146     1.0000 0.61453  0.51631  0.18921  Biso   1.000  C
  H191     1.0000 0.68160  0.54007  0.24601  Biso   1.000  H
  C147     1.0000 0.91359  0.60597  0.18651  Biso   1.000  C
  C148     1.0000 0.54256  0.43638  0.20239  Biso   1.000  C
  C149     1.0000 0.61648  0.54762  0.14959  Biso   1.000  C
  C150     1.0000 0.91720  0.52747  0.17441  Biso   1.000  C
  H192     1.0000 0.92540  0.64948  0.16610  Biso   1.000  H
  C151     1.0000 0.47251  0.38971  0.17441  Biso   1.000  C
  H193     1.0000 0.54117  0.41439  0.22951  Biso   1.000  H
  C152     1.0000 0.54708  0.50089  0.12201  Biso   1.000  C
  H194     1.0000 0.66568  0.60157  0.14109  Biso   1.000  H
  C153     1.0000 0.94481  0.52471  0.13529  Biso   1.000  C
  C154     1.0000 0.89380  0.45738  0.20239  Biso   1.000  C
  C155     1.0000 0.39400  0.30761  0.18651  Biso   1.000  C
  C156     1.0000 0.47531  0.42010  0.13529  Biso   1.000  C
  C157     1.0000 0.54730  0.53646  0.08082  Biso   1.000  C
  C158     1.0000 0.95381  0.45292  0.12201  Biso   1.000  C
  H195     1.0000 0.95841  0.57171  0.11671  Biso   1.000  H
  C159     1.0000 0.90180  0.38551  0.18921  Biso   1.000  C
  H196     1.0000 0.87321  0.45882  0.22951  Biso   1.000  H
  N27      1.0000 0.38174  0.27683  0.22361  Biso   1.000  N
  H197     1.0000 0.35053  0.27591  0.16610  Biso   1.000  H
  H198     1.0000 0.42831  0.38669  0.11671  Biso   1.000  H
  N28      1.0000 0.48209  0.50142  0.05711  Biso   1.000  N
  H199     1.0000 0.59858  0.58798  0.07169  Biso   1.000  H
  C160     1.0000 0.93108  0.38348  0.14959  Biso   1.000  C
  C161     1.0000 0.98918  0.45272  0.08082  Biso   1.000  C
  C162     1.0000 0.88230  0.31581  0.22002  Biso   1.000  C
  C163     1.0000 0.29842  0.19840  0.23239  Biso   1.000  C
  C164     1.0000 0.48960  0.54349  0.01691  Biso   1.000  C
  H200     1.0000 0.93589  0.33432  0.14109  Biso   1.000  H
  H201     1.0000 0.98938  0.40140  0.07169  Biso   1.000  H
  N29      1.0000 0.01932  0.51789  0.05711  Biso   1.000  N
  N30      1.0000 0.89602  0.25241  0.21307  Biso   1.000  N
  H202     1.0000 0.85846  0.31837  0.24601  Biso   1.000  H
  C165     1.0000 0.25081  0.21993  0.26599  Biso   1.000  C
  H203     1.0000 0.26188  0.17989  0.20661  Biso   1.000  H
  C166     1.0000 0.31406  0.12398  0.24620  Biso   1.000  C
  C167     1.0000 0.41517  0.56468  0.01250  Biso   1.000  C
  H204     1.0000 0.54766  0.59868  0.01470  Biso   1.000  H
  C168     1.0000 0.48106  0.48048  0.98272  Biso   1.000  C
  C169     1.0000 0.05389  0.51041  0.01691  Biso   1.000  C
  C170     1.0000 0.87598  0.19007  0.24620  Biso   1.000  C
  H205     1.0000 0.28976  0.24487  0.29041  Biso   1.000  H
  H206     1.0000 0.23762  0.26482  0.25529  Biso   1.000  H
  C171     1.0000 0.16677  0.14019  0.27930  Biso   1.000  C
  N31      1.0000 0.35643  0.10402  0.21307  Biso   1.000  N
  C172     1.0000 0.22842  0.04443  0.25799  Biso   1.000  C
  H207     1.0000 0.35357  0.14399  0.27102  Biso   1.000  H
  H208     1.0000 0.42299  0.60977  0.03310  Biso   1.000  H
  H209     1.0000 0.35791  0.51133  0.01781  Biso   1.000  H
  C173     1.0000 0.41679  0.59861  0.96842  Biso   1.000  C
  N32      1.0000 0.55429  0.46381  0.98579  Biso   1.000  N
  H210     1.0000 0.42462  0.42410  0.98623  Biso   1.000  H
  C174     1.0000 0.48301  0.51848  0.94000  Biso   1.000  C
  C175     1.0000 0.99940  0.51887  0.98272  Biso   1.000  C
  C176     1.0000 0.14949  0.58477  0.01250  Biso   1.000  C
  H211     1.0000 0.05099  0.45232  0.01470  Biso   1.000  H
  C177     1.0000 0.80163  0.10002  0.23239  Biso   1.000  C
  C178     1.0000 0.95560  0.18403  0.25799  Biso   1.000  C
  H212     1.0000 0.85598  0.20962  0.27102  Biso   1.000  H
  H213     1.0000 0.12431  0.12063  0.25600  Biso   1.000  H
  H214     1.0000 0.14118  0.15607  0.30282  Biso   1.000  H
  C179     1.0000 0.18119  0.06602  0.29211  Biso   1.000  C
  C180     1.0000 0.43351  0.11768  0.22002  Biso   1.000  C
  H215     1.0000 0.19021  0.02212  0.23320  Biso   1.000  H
  H216     1.0000 0.23961  0.99757  0.26792  Biso   1.000  H
  C181     1.0000 0.40968  0.53791  0.93612  Biso   1.000  C
  H217     1.0000 0.36771  0.61049  0.96550  Biso   1.000  H
  H218     1.0000 0.47222  0.65479  0.96451  Biso   1.000  H
  C182     1.0000 0.53638  0.38479  0.99032  Biso   1.000  C
  H219     1.0000 0.53989  0.57302  0.93581  Biso   1.000  H
  H220     1.0000 0.47700  0.47589  0.91832  Biso   1.000  H
  N33      1.0000 0.90950  0.44570  0.98579  Biso   1.000  N
  H221     1.0000 0.99947  0.57538  0.98623  Biso   1.000  H
  C183     1.0000 0.03551  0.51697  0.94000  Biso   1.000  C
  C184     1.0000 0.18179  0.58319  0.96842  Biso   1.000  C
  H222     1.0000 0.18683  0.57702  0.03310  Biso   1.000  H
  H223     1.0000 0.15336  0.64206  0.01781  Biso   1.000  H
  N34      1.0000 0.72318  0.10488  0.22361  Biso   1.000  N
  H224     1.0000 0.82006  0.08197  0.20661  Biso   1.000  H
  C185     1.0000 0.78009  0.03091  0.26599  Biso   1.000  C
  C186     1.0000 0.93397  0.11518  0.29211  Biso   1.000  C
  H225     1.0000 0.97787  0.16808  0.23320  Biso   1.000  H
  H226     1.0000 0.00237  0.24198  0.26792  Biso   1.000  H
  H227     1.0000 0.12379  0.01319  0.29810  Biso   1.000  H
  H228     1.0000 0.21673  0.08243  0.31780  Biso   1.000  H
  C187     1.0000 0.48367  0.09818  0.18921  Biso   1.000  C
  H229     1.0000 0.45992  0.14150  0.24601  Biso   1.000  H
  H230     1.0000 0.41210  0.56376  0.90861  Biso   1.000  H
  H231     1.0000 0.35268  0.48278  0.93861  Biso   1.000  H
  C188     1.0000 0.60329  0.35959  0.99240  Biso   1.000  C
  H232     1.0000 0.47653  0.34023  0.99240  Biso   1.000  H
  C189     1.0000 0.84838  0.46361  0.99032  Biso   1.000  C
  H233     1.0000 0.99891  0.52301  0.91832  Biso   1.000  H
  H234     1.0000 0.03309  0.46007  0.93581  Biso   1.000  H
  C190     1.0000 0.12821  0.59028  0.93612  Biso   1.000  C
  H235     1.0000 0.24276  0.63228  0.96550  Biso   1.000  H
  H236     1.0000 0.18262  0.52780  0.96451  Biso   1.000  H
  C191     1.0000 0.69238  0.08637  0.18651  Biso   1.000  C
  H237     1.0000 0.75508  0.04489  0.29041  Biso   1.000  H
  C192     1.0000 0.85977  0.02658  0.27930  Biso   1.000  C
  H238     1.0000 0.73516  0.97276  0.25529  Biso   1.000  H
  H239     1.0000 0.98680  0.11059  0.29810  Biso   1.000  H
  H240     1.0000 0.91760  0.13428  0.31780  Biso   1.000  H
  C193     1.0000 0.56361  0.10619  0.20239  Biso   1.000  C
  C194     1.0000 0.45238  0.06891  0.14959  Biso   1.000  C
  C195     1.0000 0.57832  0.27112  0.99221  Biso   1.000  C
  C196     1.0000 0.69276  0.42168  0.99221  Biso   1.000  C
  C197     1.0000 0.75625  0.39667  0.99240  Biso   1.000  C
  H241     1.0000 0.86370  0.52347  0.99240  Biso   1.000  H
  H242     1.0000 0.15169  0.58792  0.90861  Biso   1.000  H
  H243     1.0000 0.13012  0.64731  0.93861  Biso   1.000  H
  C198     1.0000 0.61030  0.08283  0.17441  Biso   1.000  C
  H244     1.0000 0.72408  0.07462  0.16610  Biso   1.000  H
  H245     1.0000 0.87935  0.00368  0.25600  Biso   1.000  H
  H246     1.0000 0.84392  0.98510  0.30282  Biso   1.000  H
  H247     1.0000 0.58557  0.12680  0.22951  Biso   1.000  H
  C199     1.0000 0.49912  0.04620  0.12201  Biso   1.000  C
  H248     1.0000 0.39838  0.06412  0.14109  Biso   1.000  H
  C200     1.0000 0.64037  0.24369  0.99240  Biso   1.000  C
  H249     1.0000 0.51760  0.22833  0.99190  Biso   1.000  H
  H250     1.0000 0.71067  0.48238  0.99190  Biso   1.000  H
  C201     1.0000 0.72892  0.30722  0.99221  Biso   1.000  C
  C202     1.0000 0.57989  0.05520  0.13529  Biso   1.000  C
  C203     1.0000 0.46353  0.01083  0.08082  Biso   1.000  C
  C204     1.0000 0.61519  0.15161  0.99032  Biso   1.000  C
  H251     1.0000 0.77168  0.28930  0.99190  Biso   1.000  H
  H252     1.0000 0.61328  0.04161  0.11671  Biso   1.000  H
  H253     1.0000 0.41199  0.01063  0.07169  Biso   1.000  H
  N35      1.0000 0.49859  0.98070  0.05711  Biso   1.000  N
  N36      1.0000 0.53621  0.09050  0.98579  Biso   1.000  N
  H254     1.0000 0.65978  0.13631  0.99240  Biso   1.000  H
  C205     1.0000 0.45649  0.94605  0.01691  Biso   1.000  C
  C206     1.0000 0.51951  0.00059  0.98272  Biso   1.000  C
  C207     1.0000 0.43531  0.85049  0.01250  Biso   1.000  C
  H255     1.0000 0.40130  0.94901  0.01470  Biso   1.000  H
  C208     1.0000 0.48151  0.96449  0.94000  Biso   1.000  C
  H256     1.0000 0.57591  0.00053  0.98623  Biso   1.000  H
  C209     1.0000 0.40143  0.81820  0.96842  Biso   1.000  C
  H257     1.0000 0.39015  0.81315  0.03310  Biso   1.000  H
  H258     1.0000 0.48870  0.84656  0.01781  Biso   1.000  H
  C210     1.0000 0.46208  0.87176  0.93612  Biso   1.000  C
  H259     1.0000 0.42699  0.96686  0.93581  Biso   1.000  H
  H260     1.0000 0.52409  0.00112  0.91832  Biso   1.000  H
  H261     1.0000 0.38950  0.75717  0.96550  Biso   1.000  H
  H262     1.0000 0.34519  0.81735  0.96451  Biso   1.000  H
  H263     1.0000 0.43618  0.84826  0.90861  Biso   1.000  H
  H264     1.0000 0.51717  0.86985  0.93861  Biso   1.000  H
  C211     1.0000 0.67459  0.82117  0.17882  Biso   1.000  C
  C212     1.0000 0.64645  0.79216  0.13870  Biso   1.000  C
  H265     1.0000 0.68378  0.81362  0.16380  Biso   1.000  H
  H266     1.0000 0.72599  0.88030  0.17801  Biso   1.000  H
  H267     1.0000 0.69018  0.78107  0.19250  Biso   1.000  H
  H268     1.0000 0.62730  0.82241  0.19430  Biso   1.000  H
  C213     1.0000 0.54287  0.71209  0.13920  Biso   1.000  C
  H269     1.0000 0.59069  0.73906  0.14631  Biso   1.000  H
  N37      1.0000 0.69148  0.77037  0.10632  Biso   1.000  N
  C214     1.0000 0.62818  0.86179  0.12291  Biso   1.000  C
  H270     1.0000 0.53899  0.66011  0.15242  Biso   1.000  H
  H271     1.0000 0.52100  0.69778  0.11060  Biso   1.000  H
  H272     1.0000 0.50735  0.73086  0.15481  Biso   1.000  H
  C215     1.0000 0.76059  0.77286  0.11609  Biso   1.000  C
  N38      1.0000 0.71031  0.94239  0.11451  Biso   1.000  N
  H273     1.0000 0.59298  0.84118  0.09710  Biso   1.000  H
  H274     1.0000 0.59393  0.87321  0.14379  Biso   1.000  H
  C216     1.0000 0.59599  0.86199  0.16880  Biso   1.000  C
  C217     1.0000 0.56487  0.80679  0.09899  Biso   1.000  C
  H275     1.0000 0.78210  0.78927  0.14351  Biso   1.000  H
  C218     1.0000 0.81187  0.75048  0.08550  Biso   1.000  C
  C219     1.0000 0.71748  0.97776  0.08091  Biso   1.000  C
  H276     1.0000 0.58091  0.90878  0.17150  Biso   1.000  H
  H277     1.0000 0.64318  0.87361  0.18840  Biso   1.000  H
  H278     1.0000 0.54439  0.80561  0.17500  Biso   1.000  H
  H279     1.0000 0.58609  0.77569  0.08150  Biso   1.000  H
  H280     1.0000 0.54500  0.83889  0.08140  Biso   1.000  H
  H281     1.0000 0.51587  0.76427  0.11609  Biso   1.000  H
  C220     1.0000 0.78089  0.72239  0.04619  Biso   1.000  C
  C221     1.0000 0.88997  0.75606  0.09769  Biso   1.000  C
  H282     1.0000 0.67110  0.95059  0.06130  Biso   1.000  H
  C222     1.0000 0.79651  0.06170  0.06999  Biso   1.000  C
  H283     1.0000 0.72705  0.71806  0.03800  Biso   1.000  H
  C223     1.0000 0.82628  0.70008  0.01809  Biso   1.000  C
  C224     1.0000 0.93828  0.73480  0.06999  Biso   1.000  C
  H284     1.0000 0.91127  0.77457  0.12512  Biso   1.000  H
  C225     1.0000 0.79961  0.09360  0.03031  Biso   1.000  C
  C226     1.0000 0.86608  0.11001  0.09769  Biso   1.000  C
  C227     1.0000 0.90636  0.70599  0.03031  Biso   1.000  C
  C228     1.0000 0.78995  0.66936  0.97593  Biso   1.000  C
  C229     1.0000 0.02224  0.73972  0.08091  Biso   1.000  C
  C230     1.0000 0.87378  0.17373  0.01809  Biso   1.000  C
  H285     1.0000 0.75251  0.06203  0.01139  Biso   1.000  H
  C231     1.0000 0.93860  0.18811  0.08550  Biso   1.000  C
  H286     1.0000 0.86325  0.08868  0.12512  Biso   1.000  H
  H287     1.0000 0.93801  0.69050  0.01139  Biso   1.000  H
  N39      1.0000 0.82805  0.64416  0.95011  Biso   1.000  N
  H288     1.0000 0.73740  0.66838  0.96802  Biso   1.000  H
  N40      1.0000 0.05758  0.76788  0.11451  Biso   1.000  N
  H289     1.0000 0.04940  0.72049  0.06130  Biso   1.000  H
  C232     1.0000 0.87943  0.21003  0.97593  Biso   1.000  C
  C233     1.0000 0.94147  0.21908  0.04619  Biso   1.000  C
  C234     1.0000 0.01229  0.23943  0.11609  Biso   1.000  C
  C235     1.0000 0.78650  0.61620  0.90982  Biso   1.000  C
  C236     1.0000 0.13821  0.76637  0.12291  Biso   1.000  C
  N41      1.0000 0.81608  0.17190  0.95011  Biso   1.000  N
  H290     1.0000 0.93100  0.26260  0.96802  Biso   1.000  H
  H291     1.0000 0.99100  0.27290  0.03800  Biso   1.000  H
  N42      1.0000 0.07890  0.30854  0.10632  Biso   1.000  N
  H292     1.0000 0.00721  0.21790  0.14351  Biso   1.000  H
  H293     1.0000 0.73659  0.62710  0.90792  Biso   1.000  H
  H294     1.0000 0.76342  0.55241  0.90640  Biso   1.000  H
  C237     1.0000 0.85297  0.66661  0.87510  Biso   1.000  C
  H295     1.0000 0.15878  0.75180  0.09710  Biso   1.000  H
  H296     1.0000 0.12680  0.72069  0.14379  Biso   1.000  H
  C238     1.0000 0.20782  0.85431  0.13870  Biso   1.000  C
  C239     1.0000 0.13801  0.73401  0.16880  Biso   1.000  C
  C240     1.0000 0.19319  0.75810  0.09899  Biso   1.000  C
  C241     1.0000 0.82967  0.21351  0.90982  Biso   1.000  C
  C242     1.0000 0.14571  0.35349  0.13870  Biso   1.000  C
  N43      1.0000 0.87349  0.75869  0.87982  Biso   1.000  N
  C243     1.0000 0.92878  0.64908  0.87780  Biso   1.000  C
  C244     1.0000 0.80522  0.63602  0.83362  Biso   1.000  C
  N44      1.0000 0.22963  0.92112  0.10632  Biso   1.000  N
  C245     1.0000 0.17877  0.85339  0.17882  Biso   1.000  C
  C246     1.0000 0.28792  0.83081  0.13920  Biso   1.000  C
  H297     1.0000 0.18638  0.87019  0.16380  Biso   1.000  H
  H298     1.0000 0.26092  0.85162  0.14631  Biso   1.000  H
  H299     1.0000 0.09120  0.67212  0.17150  Biso   1.000  H
  H300     1.0000 0.12641  0.76958  0.18840  Biso   1.000  H
  H301     1.0000 0.19440  0.73880  0.17500  Biso   1.000  H
  H302     1.0000 0.22429  0.81040  0.08150  Biso   1.000  H
  H303     1.0000 0.16112  0.70612  0.08140  Biso   1.000  H
  H304     1.0000 0.23569  0.75160  0.11609  Biso   1.000  H
  H305     1.0000 0.89047  0.26338  0.90792  Biso   1.000  H
  H306     1.0000 0.78899  0.23661  0.90640  Biso   1.000  H
  C247     1.0000 0.81359  0.14702  0.87510  Biso   1.000  C
  C248     1.0000 0.23359  0.37181  0.12291  Biso   1.000  C
  C249     1.0000 0.14662  0.32541  0.17882  Biso   1.000  C
  C250     1.0000 0.16922  0.45713  0.13920  Biso   1.000  C
  H307     1.0000 0.12980  0.31622  0.16380  Biso   1.000  H
  H308     1.0000 0.14837  0.40928  0.14631  Biso   1.000  H
  C251     1.0000 0.95097  0.81828  0.88680  Biso   1.000  C
  H309     1.0000 0.95246  0.66109  0.90600  Biso   1.000  H
  H310     1.0000 0.97467  0.68708  0.85822  Biso   1.000  H
  H311     1.0000 0.90800  0.58752  0.87091  Biso   1.000  H
  H312     1.0000 0.84728  0.66352  0.81091  Biso   1.000  H
  H313     1.0000 0.75990  0.65269  0.83182  Biso   1.000  H
  H314     1.0000 0.77769  0.57197  0.83151  Biso   1.000  H
  C252     1.0000 0.22710  0.98767  0.11609  Biso   1.000  C
  H315     1.0000 0.11968  0.84571  0.17801  Biso   1.000  H
  H316     1.0000 0.21891  0.90911  0.19250  Biso   1.000  H
  H317     1.0000 0.17760  0.80489  0.19430  Biso   1.000  H
  H318     1.0000 0.33994  0.87892  0.15242  Biso   1.000  H
  H319     1.0000 0.30219  0.82320  0.11060  Biso   1.000  H
  H320     1.0000 0.26910  0.77647  0.15481  Biso   1.000  H
  N45      1.0000 0.88517  0.12648  0.87982  Biso   1.000  N
  C253     1.0000 0.72027  0.07122  0.87780  Biso   1.000  C
  C254     1.0000 0.83078  0.19480  0.83362  Biso   1.000  C
  N46      1.0000 0.23210  0.28970  0.11451  Biso   1.000  N
  H321     1.0000 0.24817  0.40698  0.09710  Biso   1.000  H
  H322     1.0000 0.27934  0.40613  0.14379  Biso   1.000  H
  C255     1.0000 0.26601  0.40403  0.16880  Biso   1.000  C
  C256     1.0000 0.24186  0.43507  0.09899  Biso   1.000  C
  H323     1.0000 0.15429  0.27402  0.17801  Biso   1.000  H
  H324     1.0000 0.09089  0.30979  0.19250  Biso   1.000  H
  H325     1.0000 0.19512  0.37272  0.19430  Biso   1.000  H
  H326     1.0000 0.12109  0.46100  0.15242  Biso   1.000  H
  H327     1.0000 0.17680  0.47898  0.11060  Biso   1.000  H
  H328     1.0000 0.22352  0.49263  0.15481  Biso   1.000  H
  H329     1.0000 0.99516  0.80299  0.89043  Biso   1.000  H
  C257     1.0000 0.97481  0.91108  0.88962  Biso   1.000  C
  H330     1.0000 0.21067  0.99279  0.14351  Biso   1.000  H
  C258     1.0000 0.24954  0.06144  0.08550  Biso   1.000  C
  C259     1.0000 0.86731  0.04904  0.88680  Biso   1.000  C
  H331     1.0000 0.70860  0.04753  0.90600  Biso   1.000  H
  H332     1.0000 0.71237  0.02528  0.85822  Biso   1.000  H
  H333     1.0000 0.67952  0.09202  0.87091  Biso   1.000  H
  H334     1.0000 0.81622  0.15273  0.81091  Biso   1.000  H
  H335     1.0000 0.89281  0.24009  0.83182  Biso   1.000  H
  H336     1.0000 0.79428  0.22230  0.83151  Biso   1.000  H
  C260     1.0000 0.26032  0.28248  0.08091  Biso   1.000  C
  H337     1.0000 0.32790  0.41913  0.17150  Biso   1.000  H
  H338     1.0000 0.23039  0.35678  0.18840  Biso   1.000  H
  H339     1.0000 0.26123  0.45562  0.17500  Biso   1.000  H
  H340     1.0000 0.18960  0.41387  0.08150  Biso   1.000  H
  H341     1.0000 0.29390  0.45503  0.08140  Biso   1.000  H
  H342     1.0000 0.24842  0.48410  0.11609  Biso   1.000  H
  C261     1.0000 0.91185  0.93727  0.88950  Biso   1.000  C
  C262     1.0000 0.06273  0.97461  0.88950  Biso   1.000  C
  C263     1.0000 0.27757  0.05849  0.04619  Biso   1.000  C
  C264     1.0000 0.24388  0.13390  0.09769  Biso   1.000  C
  H343     1.0000 0.80779  0.00480  0.89043  Biso   1.000  H
  C265     1.0000 0.93627  0.02521  0.88962  Biso   1.000  C
  C266     1.0000 0.26523  0.20353  0.06999  Biso   1.000  C
  H344     1.0000 0.27948  0.32888  0.06130  Biso   1.000  H
  H345     1.0000 0.85129  0.89402  0.88931  Biso   1.000  H
  H346     1.0000 0.10602  0.95728  0.88931  Biso   1.000  H
  C267     1.0000 0.08893  0.06374  0.88962  Biso   1.000  C
  H347     1.0000 0.28192  0.00900  0.03800  Biso   1.000  H
  C268     1.0000 0.29989  0.12622  0.01809  Biso   1.000  C
  H348     1.0000 0.22540  0.13672  0.12512  Biso   1.000  H
  C269     1.0000 0.02540  0.08809  0.88950  Biso   1.000  C
  C270     1.0000 0.29401  0.20038  0.03031  Biso   1.000  C
  C271     1.0000 0.18168  0.13271  0.88680  Biso   1.000  C
  C272     1.0000 0.33064  0.12064  0.97593  Biso   1.000  C
  H349     1.0000 0.04271  0.14873  0.88931  Biso   1.000  H
  H350     1.0000 0.30950  0.24750  0.01139  Biso   1.000  H
  N47      1.0000 0.24127  0.11480  0.87982  Biso   1.000  N
  H351     1.0000 0.19697  0.19218  0.89043  Biso   1.000  H
  N48      1.0000 0.35579  0.18391  0.95011  Biso   1.000  N
  H352     1.0000 0.33158  0.06899  0.96802  Biso   1.000  H
  C273     1.0000 0.33340  0.18640  0.87510  Biso   1.000  C
  C274     1.0000 0.38378  0.17032  0.90982  Biso   1.000  C
  C275     1.0000 0.35090  0.27973  0.87780  Biso   1.000  C
  C276     1.0000 0.36402  0.16920  0.83362  Biso   1.000  C
  H353     1.0000 0.37286  0.10948  0.90792  Biso   1.000  H
  H354     1.0000 0.44761  0.21101  0.90640  Biso   1.000  H
  H355     1.0000 0.33890  0.29141  0.90600  Biso   1.000  H
  H356     1.0000 0.31289  0.28760  0.85822  Biso   1.000  H
  H357     1.0000 0.41249  0.32048  0.87091  Biso   1.000  H
  H358     1.0000 0.33649  0.18384  0.81091  Biso   1.000  H
  H359     1.0000 0.34727  0.10718  0.83182  Biso   1.000  H
  H360     1.0000 0.42802  0.20570  0.83151  Biso   1.000  H
  Ne1      1.0000 0.66666  0.33333  0.11947  Biso   1.000  Ne
  He1      1.0000 0.66666  0.33333  0.20691  Biso   1.000  He
  He2      1.0000 0.75756  0.50745  0.09095  Biso   1.000  He
  He3      1.0000 0.74790  0.24460  0.09166  Biso   1.000  He
  He4      1.0000 0.49162  0.24969  0.09079  Biso   1.000  He
  Ar1      1.0000 0.66666  0.33333  0.12043  Biso   1.000  Ar
  Ne2      1.0000 0.33333  0.66666  0.61947  Biso   1.000  Ne
  He5      1.0000 0.33331  0.66667  0.70720  Biso   1.000  He
  He6      1.0000 0.25258  0.75488  0.59185  Biso   1.000  He
  He7      1.0000 0.50714  0.74972  0.59100  Biso   1.000  He
  He8      1.0000 0.24086  0.48958  0.59046  Biso   1.000  He
  Ar2      1.0000 0.33331  0.66668  0.62043  Biso   1.000  Ar
  Ne3      1.0000 0.99999  1.00000  0.02409  Biso   1.000  Ne
  He9      1.0000 0.99996  0.99998  0.10262  Biso   1.000  He
  He10     1.0000 0.09587  0.18223  0.99037  Biso   1.000  He
  He11     1.0000 0.08182  0.90885  0.99206  Biso   1.000  He
  He12     1.0000 0.82169  0.91554  0.99109  Biso   1.000  He
  Ar3      1.0000 0.99999  0.00003  0.02121  Biso   1.000  Ar
  Ne4      1.0000 1.00000  0.00000  0.52409  Biso   1.000  Ne
  He13     1.0000 0.00000  0.99999  0.60298  Biso   1.000  He
  He14     1.0000 0.90621  0.82183  0.49112  Biso   1.000  He
  He15     1.0000 0.91284  0.09668  0.49008  Biso   1.000  He
  He16     1.0000 0.18841  0.08940  0.48922  Biso   1.000  He
  Ar4      1.0000 0.99999  0.00001  0.52121  Biso   1.000  Ar
