data_image0
_cell_length_a       16.021
_cell_length_b       41.134
_cell_length_c       19.484
_cell_angle_alpha    90
_cell_angle_beta     110.78
_cell_angle_gamma    90

_symmetry_space_group_name_H-M    "P 1"
_symmetry_int_tables_number       1

loop_
  _symmetry_equiv_pos_as_xyz
  'x, y, z'

loop_
  _atom_site_label
  _atom_site_occupancy
  _atom_site_fract_x
  _atom_site_fract_y
  _atom_site_fract_z
  _atom_site_thermal_displace_type
  _atom_site_B_iso_or_equiv
  _atom_site_type_symbol
  C1       1.0000 0.54361  0.53440  0.48220  Biso   1.000  C
  C2       1.0000 0.54760  0.51750  0.42170  Biso   1.000  C
  C3       1.0000 0.47337  0.55570  0.47418  Biso   1.000  C
  C4       1.0000 0.61500  0.52650  0.55521  Biso   1.000  C
  C5       1.0000 0.48140  0.52181  0.35320  Biso   1.000  C
  H1       1.0000 0.59559  0.50292  0.42719  Biso   1.000  H
  C6       1.0000 0.40717  0.56010  0.40567  Biso   1.000  C
  H2       1.0000 0.47064  0.56732  0.51547  Biso   1.000  H
  H3       1.0000 0.64969  0.50746  0.55806  Biso   1.000  H
  N1       1.0000 0.63079  0.54230  0.60917  Biso   1.000  N
  C7       1.0000 0.48341  0.50649  0.28249  Biso   1.000  C
  C8       1.0000 0.41115  0.54310  0.34518  Biso   1.000  C
  C9       1.0000 0.32840  0.58300  0.39310  Biso   1.000  C
  C10      1.0000 0.70409  0.52891  0.67806  Biso   1.000  C
  N2       1.0000 0.54507  0.49441  0.27118  Biso   1.000  N
  H4       1.0000 0.42839  0.50659  0.24220  Biso   1.000  H
  H5       1.0000 0.36594  0.54607  0.29841  Biso   1.000  H
  H6       1.0000 0.27876  0.58071  0.34864  Biso   1.000  H
  N3       1.0000 0.32414  0.60359  0.43488  Biso   1.000  N
  C11      1.0000 0.78495  0.55181  0.69969  Biso   1.000  C
  H7       1.0000 0.72200  0.50693  0.66807  Biso   1.000  H
  H8       1.0000 0.68116  0.52733  0.71896  Biso   1.000  H
  C12      1.0000 0.52988  0.48279  0.20141  Biso   1.000  C
  C13      1.0000 0.24166  0.62330  0.40502  Biso   1.000  C
  C14      1.0000 0.85885  0.54310  0.68218  Biso   1.000  C
  C15      1.0000 0.78385  0.58139  0.73389  Biso   1.000  C
  C16      1.0000 0.58536  0.50440  0.17028  Biso   1.000  C
  H9       1.0000 0.54882  0.45986  0.20306  Biso   1.000  H
  H10      1.0000 0.46572  0.48439  0.17089  Biso   1.000  H
  C17      1.0000 0.26888  0.65751  0.39041  Biso   1.000  C
  H11      1.0000 0.20080  0.61356  0.35890  Biso   1.000  H
  H12      1.0000 0.21058  0.62423  0.44075  Biso   1.000  H
  C18      1.0000 0.93165  0.56401  0.69887  Biso   1.000  C
  C19      1.0000 0.86020  0.50931  0.64639  Biso   1.000  C
  C20      1.0000 0.85659  0.60220  0.75058  Biso   1.000  C
  C21      1.0000 0.70158  0.59119  0.75327  Biso   1.000  C
  C22      1.0000 0.67738  0.49990  0.19592  Biso   1.000  C
  C23      1.0000 0.54626  0.52830  0.11857  Biso   1.000  C
  C24      1.0000 0.25212  0.66770  0.31872  Biso   1.000  C
  C25      1.0000 0.30788  0.67881  0.44838  Biso   1.000  C
  C26      1.0000 0.93049  0.59360  0.73307  Biso   1.000  C
  C27      1.0000 0.01297  0.55399  0.68048  Biso   1.000  C
  H13      1.0000 0.90249  0.50989  0.61971  Biso   1.000  H
  H14      1.0000 0.79999  0.50442  0.61043  Biso   1.000  H
  C28      1.0000 0.88799  0.48259  0.70458  Biso   1.000  C
  C29      1.0000 0.85526  0.63480  0.78742  Biso   1.000  C
  H15      1.0000 0.64718  0.58261  0.71484  Biso   1.000  H
  H16      1.0000 0.69703  0.61516  0.75256  Biso   1.000  H
  C30      1.0000 0.70376  0.57911  0.82689  Biso   1.000  C
  C31      1.0000 0.73029  0.51950  0.16968  Biso   1.000  C
  C32      1.0000 0.72125  0.47080  0.24697  Biso   1.000  C
  C33      1.0000 0.59919  0.54789  0.09239  Biso   1.000  C
  C34      1.0000 0.44389  0.53450  0.09080  Biso   1.000  C
  C35      1.0000 0.27410  0.69911  0.30500  Biso   1.000  C
  C36      1.0000 0.21201  0.64360  0.25411  Biso   1.000  C
  C37      1.0000 0.32990  0.71019  0.43477  Biso   1.000  C
  C38      1.0000 0.33458  0.66631  0.52880  Biso   1.000  C
  C39      1.0000 0.01264  0.61621  0.75217  Biso   1.000  C
  N4       1.0000 0.99500  0.55351  0.60599  Biso   1.000  N
  N5       1.0000 0.00787  0.57359  0.60977  Biso   1.000  N
  H17      1.0000 0.06863  0.55937  0.72165  Biso   1.000  H
  H18      1.0000 0.01187  0.53036  0.67098  Biso   1.000  H
  H19      1.0000 0.03288  0.53219  0.70101  Biso   1.000  H
  H20      1.0000 0.06228  0.56950  0.70376  Biso   1.000  H
  H21      1.0000 0.87261  0.46135  0.68081  Biso   1.000  H
  H22      1.0000 0.95257  0.48376  0.73115  Biso   1.000  H
  H23      1.0000 0.85663  0.48566  0.73911  Biso   1.000  H
  N6       1.0000 0.79620  0.65700  0.73301  Biso   1.000  N
  H24      1.0000 0.91635  0.64399  0.80707  Biso   1.000  H
  H25      1.0000 0.83359  0.63189  0.82864  Biso   1.000  H
  H26      1.0000 0.65292  0.58808  0.83737  Biso   1.000  H
  H27      1.0000 0.70027  0.55528  0.82617  Biso   1.000  H
  H28      1.0000 0.75950  0.58599  0.86509  Biso   1.000  H
  C40      1.0000 0.69121  0.54349  0.11802  Biso   1.000  C
  C41      1.0000 0.83119  0.51551  0.20201  Biso   1.000  C
  H29      1.0000 0.68807  0.46650  0.28029  Biso   1.000  H
  H30      1.0000 0.78341  0.47654  0.27760  Biso   1.000  H
  C42      1.0000 0.72161  0.44020  0.20267  Biso   1.000  C
  C43      1.0000 0.55361  0.57359  0.03491  Biso   1.000  C
  H31      1.0000 0.43200  0.55752  0.07537  Biso   1.000  H
  H32      1.0000 0.42172  0.53073  0.13142  Biso   1.000  H
  C44      1.0000 0.39352  0.51250  0.02640  Biso   1.000  C
  C45      1.0000 0.31299  0.72030  0.36302  Biso   1.000  C
  C46      1.0000 0.26017  0.71009  0.22672  Biso   1.000  C
  H33      1.0000 0.22894  0.62121  0.27239  Biso   1.000  H
  H34      1.0000 0.23883  0.64805  0.21645  Biso   1.000  H
  C47      1.0000 0.11089  0.64531  0.21810  Biso   1.000  C
  C48      1.0000 0.37690  0.73331  0.49740  Biso   1.000  C
  H35      1.0000 0.39324  0.67565  0.55856  Biso   1.000  H
  H36      1.0000 0.34079  0.64239  0.52930  Biso   1.000  H
  C49      1.0000 0.26606  0.67550  0.56311  Biso   1.000  C
  H37      1.0000 0.99256  0.63913  0.74745  Biso   1.000  H
  H38      1.0000 0.04332  0.61249  0.71682  Biso   1.000  H
  C50      1.0000 0.07814  0.61030  0.83007  Biso   1.000  C
  C51      1.0000 0.00696  0.55691  0.55790  Biso   1.000  C
  C52      1.0000 0.03395  0.57320  0.58299  Biso   1.000  C
  H39      1.0000 0.01112  0.53389  0.56262  Biso   1.000  H
  H40      1.0000 0.08017  0.58579  0.61719  Biso   1.000  H
  C53      1.0000 0.83054  0.68000  0.71248  Biso   1.000  C
  C54      1.0000 0.75509  0.56600  0.09508  Biso   1.000  C
  N7       1.0000 0.87200  0.52830  0.27217  Biso   1.000  N
  H41      1.0000 0.85729  0.52609  0.16864  Biso   1.000  H
  H42      1.0000 0.84541  0.49205  0.20344  Biso   1.000  H
  H43      1.0000 0.85637  0.51658  0.16243  Biso   1.000  H
  H44      1.0000 0.84647  0.49409  0.22644  Biso   1.000  H
  N8       1.0000 0.86799  0.54070  0.25362  Biso   1.000  N
  H45      1.0000 0.75626  0.42315  0.23566  Biso   1.000  H
  H46      1.0000 0.66011  0.43268  0.17802  Biso   1.000  H
  H47      1.0000 0.74850  0.44511  0.16589  Biso   1.000  H
  N9       1.0000 0.52159  0.60070  0.06472  Biso   1.000  N
  H48      1.0000 0.59644  0.58159  0.01252  Biso   1.000  H
  H49      1.0000 0.50277  0.56355  0.99550  Biso   1.000  H
  H50      1.0000 0.32930  0.51665  0.01153  Biso   1.000  H
  H51      1.0000 0.40588  0.48972  0.04117  Biso   1.000  H
  H52      1.0000 0.41302  0.51702  0.98496  Biso   1.000  H
  C55      1.0000 0.32958  0.75609  0.34650  Biso   1.000  C
  N10      1.0000 0.34737  0.70919  0.21530  Biso   1.000  N
  H53      1.0000 0.23564  0.73241  0.21876  Biso   1.000  H
  H54      1.0000 0.21700  0.69548  0.19103  Biso   1.000  H
  H55      1.0000 0.09065  0.62945  0.17813  Biso   1.000  H
  H56      1.0000 0.08354  0.64044  0.25466  Biso   1.000  H
  H57      1.0000 0.09336  0.66723  0.19845  Biso   1.000  H
  N11      1.0000 0.47388  0.73620  0.51009  Biso   1.000  N
  H58      1.0000 0.36930  0.72543  0.54286  Biso   1.000  H
  H59      1.0000 0.34890  0.75507  0.48604  Biso   1.000  H
  H60      1.0000 0.29089  0.67139  0.61603  Biso   1.000  H
  H61      1.0000 0.25131  0.69864  0.55439  Biso   1.000  H
  H62      1.0000 0.21199  0.66249  0.54094  Biso   1.000  H
  H63      1.0000 0.12068  0.62839  0.84489  Biso   1.000  H
  H64      1.0000 0.04533  0.60877  0.86383  Biso   1.000  H
  H65      1.0000 0.11060  0.58997  0.83139  Biso   1.000  H
  C56      1.0000 0.99997  0.57281  0.48571  Biso   1.000  C
  C57      1.0000 0.01398  0.57889  0.50141  Biso   1.000  C
  C58      1.0000 0.77318  0.70331  0.65419  Biso   1.000  C
  H66      1.0000 0.89327  0.68328  0.73318  Biso   1.000  H
  H67      1.0000 0.81410  0.56671  0.13521  Biso   1.000  H
  H68      1.0000 0.73059  0.58830  0.08706  Biso   1.000  H
  C59      1.0000 0.76660  0.55380  0.02542  Biso   1.000  C
  C60      1.0000 0.91826  0.55261  0.28287  Biso   1.000  C
  C61      1.0000 0.89500  0.53591  0.31938  Biso   1.000  C
  C62      1.0000 0.56209  0.62559  0.07482  Biso   1.000  C
  H69      1.0000 0.34403  0.75689  0.30115  Biso   1.000  H
  H70      1.0000 0.38157  0.76470  0.38729  Biso   1.000  H
  C63      1.0000 0.24841  0.77741  0.33689  Biso   1.000  C
  C64      1.0000 0.35532  0.68921  0.17078  Biso   1.000  C
  C65      1.0000 0.52650  0.72240  0.56218  Biso   1.000  C
  C66      1.0000 0.96600  0.55570  0.42000  Biso   1.000  C
  C67      1.0000 0.97296  0.55450  0.45118  Biso   1.000  C
  C68      1.0000 0.02696  0.60490  0.48577  Biso   1.000  C
  C69      1.0000 0.02998  0.60911  0.47671  Biso   1.000  C
  C70      1.0000 0.68117  0.70309  0.63711  Biso   1.000  C
  C71      1.0000 0.81106  0.72361  0.61642  Biso   1.000  C
  H71      1.0000 0.79899  0.57006  0.00790  Biso   1.000  H
  H72      1.0000 0.80037  0.53338  0.03568  Biso   1.000  H
  H73      1.0000 0.70773  0.55006  0.98765  Biso   1.000  H
  C72      1.0000 0.95998  0.57070  0.35440  Biso   1.000  C
  H74      1.0000 0.92909  0.56121  0.24159  Biso   1.000  H
  C73      1.0000 0.94900  0.56039  0.37642  Biso   1.000  C
  H75      1.0000 0.88091  0.51558  0.33634  Biso   1.000  H
  C74      1.0000 0.54011  0.65530  0.11127  Biso   1.000  C
  H76      1.0000 0.61162  0.62693  0.05885  Biso   1.000  H
  H77      1.0000 0.26729  0.80009  0.34694  Biso   1.000  H
  H78      1.0000 0.20602  0.77544  0.28639  Biso   1.000  H
  H79      1.0000 0.21954  0.77031  0.37109  Biso   1.000  H
  C75      1.0000 0.44238  0.68610  0.15629  Biso   1.000  C
  H80      1.0000 0.30641  0.67555  0.14509  Biso   1.000  H
  C76      1.0000 0.62717  0.72339  0.58211  Biso   1.000  C
  H81      1.0000 0.50348  0.71022  0.59287  Biso   1.000  H
  H82      1.0000 0.94754  0.53379  0.41989  Biso   1.000  H
  H83      1.0000 0.96219  0.53384  0.46804  Biso   1.000  H
  C77      1.0000 0.02098  0.61990  0.42028  Biso   1.000  C
  C78      1.0000 0.00500  0.61499  0.40189  Biso   1.000  C
  H84      1.0000 0.04952  0.61657  0.53067  Biso   1.000  H
  H85      1.0000 0.05720  0.62581  0.51102  Biso   1.000  H
  H86      1.0000 0.65529  0.68921  0.66291  Biso   1.000  H
  C79      1.0000 0.75699  0.74391  0.56141  Biso   1.000  C
  H87      1.0000 0.87391  0.72371  0.62811  Biso   1.000  H
  C80      1.0000 0.98729  0.60281  0.35462  Biso   1.000  C
  C81      1.0000 0.96500  0.59061  0.35171  Biso   1.000  C
  C82      1.0000 0.60224  0.68041  0.13142  Biso   1.000  C
  C83      1.0000 0.46019  0.65819  0.12379  Biso   1.000  C
  C84      1.0000 0.50452  0.71121  0.17632  Biso   1.000  C
  C85      1.0000 0.66504  0.74369  0.54418  Biso   1.000  C
  C86      1.0000 0.04795  0.65530  0.42028  Biso   1.000  C
  C87      1.0000 0.02596  0.64749  0.37438  Biso   1.000  C
  C88      1.0000 0.79811  0.76620  0.52030  Biso   1.000  C
  H88      1.0000 0.98310  0.61305  0.30977  Biso   1.000  H
  H89      1.0000 0.94779  0.59464  0.30055  Biso   1.000  H
  C89      1.0000 0.58443  0.70829  0.16392  Biso   1.000  C
  H90      1.0000 0.65686  0.67844  0.12291  Biso   1.000  H
  H91      1.0000 0.41769  0.64103  0.11006  Biso   1.000  H
  H92      1.0000 0.49232  0.73032  0.19856  Biso   1.000  H
  H93      1.0000 0.62818  0.75755  0.50663  Biso   1.000  H
  H94      1.0000 0.07934  0.66553  0.46584  Biso   1.000  H
  N12      1.0000 0.03080  0.67090  0.36390  Biso   1.000  N
  H95      1.0000 0.02222  0.64842  0.32476  Biso   1.000  H
  N13      1.0000 0.04701  0.67219  0.41001  Biso   1.000  N
  N14      1.0000 0.87356  0.76139  0.52041  Biso   1.000  N
  H96      1.0000 0.76477  0.78422  0.49395  Biso   1.000  H
  C90      1.0000 0.65139  0.73579  0.18428  Biso   1.000  C
  C91      1.0000 0.06315  0.70200  0.37378  Biso   1.000  C
  C92      1.0000 0.90851  0.78380  0.47858  Biso   1.000  C
  H97      1.0000 0.63420  0.75687  0.19449  Biso   1.000  H
  N15      1.0000 0.72771  0.73081  0.18758  Biso   1.000  N
  C93      1.0000 0.99382  0.72840  0.36181  Biso   1.000  C
  H98      1.0000 0.10692  0.70402  0.42445  Biso   1.000  H
  H99      1.0000 0.09574  0.70579  0.33980  Biso   1.000  H
  H100     1.0000 0.12213  0.71099  0.40414  Biso   1.000  H
  H101     1.0000 0.06637  0.69590  0.32569  Biso   1.000  H
  C94      1.0000 0.91620  0.76620  0.41221  Biso   1.000  C
  H102     1.0000 0.86788  0.80269  0.46211  Biso   1.000  H
  H103     1.0000 0.96784  0.79195  0.51020  Biso   1.000  H
  C95      1.0000 0.79170  0.75949  0.20641  Biso   1.000  C
  C96      1.0000 0.98721  0.74510  0.42170  Biso   1.000  C
  C97      1.0000 0.92939  0.73280  0.29248  Biso   1.000  C
  C98      1.0000 0.85177  0.77060  0.34287  Biso   1.000  C
  C99      1.0000 0.85838  0.75390  0.28298  Biso   1.000  C
  H104     1.0000 0.75858  0.77999  0.20459  Biso   1.000  H
  H105     1.0000 0.82289  0.76107  0.17078  Biso   1.000  H
  C100     1.0000 0.06386  0.74180  0.49680  Biso   1.000  C
  C101     1.0000 0.93968  0.71459  0.22650  Biso   1.000  C
  C102     1.0000 0.77140  0.79380  0.33239  Biso   1.000  C
  H106     1.0000 0.08523  0.71902  0.50394  Biso   1.000  H
  H107     1.0000 0.04170  0.74736  0.53671  Biso   1.000  H
  C103     1.0000 0.14136  0.76440  0.50020  Biso   1.000  C
  H108     1.0000 0.87994  0.71163  0.18829  Biso   1.000  H
  H109     1.0000 0.96511  0.69281  0.24275  Biso   1.000  H
  C104     1.0000 0.99882  0.73251  0.19372  Biso   1.000  C
  H110     1.0000 0.75552  0.79343  0.37702  Biso   1.000  H
  H111     1.0000 0.71903  0.78616  0.29056  Biso   1.000  H
  C105     1.0000 0.79481  0.82851  0.31779  Biso   1.000  C
  H112     1.0000 0.19159  0.76068  0.54604  Biso   1.000  H
  H113     1.0000 0.16014  0.76000  0.45837  Biso   1.000  H
  H114     1.0000 0.12178  0.78711  0.49823  Biso   1.000  H
  H115     1.0000 0.99560  0.72186  0.14778  Biso   1.000  H
  H116     1.0000 0.97870  0.75504  0.18368  Biso   1.000  H
  H117     1.0000 0.06060  0.73207  0.22825  Biso   1.000  H
  H118     1.0000 0.74781  0.84332  0.31965  Biso   1.000  H
  H119     1.0000 0.85177  0.83476  0.35517  Biso   1.000  H
  H120     1.0000 0.79965  0.82958  0.26910  Biso   1.000  H
  C106     1.0000 0.45635  0.46560  0.51777  Biso   1.000  C
  C107     1.0000 0.38498  0.47350  0.44482  Biso   1.000  C
  C108     1.0000 0.52659  0.44430  0.52579  Biso   1.000  C
  C109     1.0000 0.45236  0.48250  0.57827  Biso   1.000  C
  N16      1.0000 0.36917  0.45770  0.39080  Biso   1.000  N
  H121     1.0000 0.35027  0.49254  0.44191  Biso   1.000  H
  C110     1.0000 0.59279  0.43990  0.59429  Biso   1.000  C
  H122     1.0000 0.52932  0.43268  0.48450  Biso   1.000  H
  C111     1.0000 0.51856  0.47819  0.64677  Biso   1.000  C
  H123     1.0000 0.40437  0.49708  0.57278  Biso   1.000  H
  C112     1.0000 0.29587  0.47109  0.32190  Biso   1.000  C
  C113     1.0000 0.67156  0.41700  0.60687  Biso   1.000  C
  C114     1.0000 0.58874  0.45690  0.65479  Biso   1.000  C
  C115     1.0000 0.51655  0.49351  0.71748  Biso   1.000  C
  C116     1.0000 0.21501  0.44819  0.30028  Biso   1.000  C
  H124     1.0000 0.27796  0.49307  0.33190  Biso   1.000  H
  H125     1.0000 0.31880  0.47267  0.28101  Biso   1.000  H
  N17      1.0000 0.67575  0.39641  0.56509  Biso   1.000  N
  H126     1.0000 0.72120  0.41929  0.65133  Biso   1.000  H
  H127     1.0000 0.63395  0.45393  0.70156  Biso   1.000  H
  H128     1.0000 0.57157  0.49341  0.75777  Biso   1.000  H
  N18      1.0000 0.45489  0.50559  0.72879  Biso   1.000  N
  C117     1.0000 0.21611  0.41861  0.26608  Biso   1.000  C
  C118     1.0000 0.14111  0.45690  0.31779  Biso   1.000  C
  C119     1.0000 0.75826  0.37670  0.59501  Biso   1.000  C
  C120     1.0000 0.47010  0.51721  0.79861  Biso   1.000  C
  C121     1.0000 0.14337  0.39780  0.24939  Biso   1.000  C
  C122     1.0000 0.29838  0.40881  0.24670  Biso   1.000  C
  C123     1.0000 0.06831  0.43599  0.30110  Biso   1.000  C
  C124     1.0000 0.13976  0.49069  0.35358  Biso   1.000  C
  C125     1.0000 0.73110  0.34249  0.60961  Biso   1.000  C
  H129     1.0000 0.79916  0.38644  0.64107  Biso   1.000  H
  H130     1.0000 0.78938  0.37577  0.55922  Biso   1.000  H
  C126     1.0000 0.41453  0.49560  0.82968  Biso   1.000  C
  H131     1.0000 0.45114  0.54014  0.79691  Biso   1.000  H
  H132     1.0000 0.53424  0.51561  0.82908  Biso   1.000  H
  C127     1.0000 0.14473  0.36520  0.21261  Biso   1.000  C
  C128     1.0000 0.06947  0.40640  0.26690  Biso   1.000  C
  H133     1.0000 0.35278  0.41739  0.28513  Biso   1.000  H
  H134     1.0000 0.30295  0.38484  0.24747  Biso   1.000  H
  C129     1.0000 0.29620  0.42089  0.17308  Biso   1.000  C
  C130     1.0000 0.98698  0.44601  0.31949  Biso   1.000  C
  H135     1.0000 0.09749  0.49011  0.38031  Biso   1.000  H
  H136     1.0000 0.19997  0.49558  0.38954  Biso   1.000  H
  C131     1.0000 0.11197  0.51741  0.29539  Biso   1.000  C
  C132     1.0000 0.69208  0.32119  0.55159  Biso   1.000  C
  C133     1.0000 0.74786  0.33230  0.68130  Biso   1.000  C
  C134     1.0000 0.32260  0.50010  0.80410  Biso   1.000  C
  C135     1.0000 0.45364  0.47170  0.88140  Biso   1.000  C
  N19      1.0000 0.20378  0.34300  0.26701  Biso   1.000  N
  H137     1.0000 0.08361  0.35601  0.19290  Biso   1.000  H
  H138     1.0000 0.16639  0.36811  0.17138  Biso   1.000  H
  C136     1.0000 0.98732  0.38379  0.24780  Biso   1.000  C
  H139     1.0000 0.34704  0.41192  0.16260  Biso   1.000  H
  H140     1.0000 0.29969  0.44472  0.17380  Biso   1.000  H
  H141     1.0000 0.24048  0.41401  0.13493  Biso   1.000  H
  N20      1.0000 0.00496  0.44649  0.39398  Biso   1.000  N
  N21      1.0000 0.99209  0.42641  0.39019  Biso   1.000  N
  H142     1.0000 0.93133  0.44063  0.27832  Biso   1.000  H
  H143     1.0000 0.98802  0.46964  0.32899  Biso   1.000  H
  H144     1.0000 0.96710  0.46781  0.29901  Biso   1.000  H
  H145     1.0000 0.93771  0.43050  0.29627  Biso   1.000  H
  H146     1.0000 0.12735  0.53865  0.31916  Biso   1.000  H
  H147     1.0000 0.04739  0.51624  0.26882  Biso   1.000  H
  H148     1.0000 0.14333  0.51434  0.26086  Biso   1.000  H
  C137     1.0000 0.67006  0.28981  0.56520  Biso   1.000  C
  C138     1.0000 0.66540  0.33369  0.47122  Biso   1.000  C
  C139     1.0000 0.72586  0.30089  0.69497  Biso   1.000  C
  C140     1.0000 0.78798  0.35640  0.74591  Biso   1.000  C
  C141     1.0000 0.26967  0.48050  0.83029  Biso   1.000  C
  C142     1.0000 0.27864  0.52920  0.75300  Biso   1.000  C
  C143     1.0000 0.40077  0.45211  0.90758  Biso   1.000  C
  C144     1.0000 0.55606  0.46550  0.90917  Biso   1.000  C
  C145     1.0000 0.16936  0.32000  0.28749  Biso   1.000  C
  H149     1.0000 0.00740  0.36087  0.25252  Biso   1.000  H
  H150     1.0000 0.95664  0.38751  0.28315  Biso   1.000  H
  C146     1.0000 0.92182  0.38970  0.16990  Biso   1.000  C
  C147     1.0000 0.99300  0.44309  0.44207  Biso   1.000  C
  H151     1.0000 0.98886  0.46611  0.43740  Biso   1.000  H
  C148     1.0000 0.96601  0.42680  0.41698  Biso   1.000  C
  H152     1.0000 0.91982  0.41421  0.38284  Biso   1.000  H
  C149     1.0000 0.62308  0.26669  0.50262  Biso   1.000  C
  C150     1.0000 0.68699  0.27970  0.63700  Biso   1.000  C
  H153     1.0000 0.60672  0.32435  0.44141  Biso   1.000  H
  H154     1.0000 0.65911  0.35761  0.47067  Biso   1.000  H
  C151     1.0000 0.73392  0.32450  0.43691  Biso   1.000  C
  C152     1.0000 0.73975  0.28991  0.77331  Biso   1.000  C
  H155     1.0000 0.77095  0.37879  0.72758  Biso   1.000  H
  H156     1.0000 0.76113  0.35195  0.78352  Biso   1.000  H
  C153     1.0000 0.88907  0.35469  0.78187  Biso   1.000  C
  C154     1.0000 0.16880  0.48449  0.79801  Biso   1.000  C
  C155     1.0000 0.30877  0.45651  0.88200  Biso   1.000  C
  H157     1.0000 0.31189  0.53350  0.71967  Biso   1.000  H
  H158     1.0000 0.21651  0.52346  0.72242  Biso   1.000  H
  C156     1.0000 0.27834  0.55980  0.79730  Biso   1.000  C
  C157     1.0000 0.44637  0.42641  0.96511  Biso   1.000  C
  H159     1.0000 0.56796  0.44248  0.92460  Biso   1.000  H
  H160     1.0000 0.57823  0.46927  0.86855  Biso   1.000  H
  C158     1.0000 0.60644  0.48750  0.97356  Biso   1.000  C
  C159     1.0000 0.22678  0.29669  0.34578  Biso   1.000  C
  H161     1.0000 0.10671  0.31672  0.26685  Biso   1.000  H
  H162     1.0000 0.87928  0.37161  0.15508  Biso   1.000  H
  H163     1.0000 0.95465  0.39123  0.13619  Biso   1.000  H
  H164     1.0000 0.88935  0.41003  0.16858  Biso   1.000  H
  C160     1.0000 0.00001  0.42719  0.51431  Biso   1.000  C
  C161     1.0000 0.98600  0.42111  0.49861  Biso   1.000  C
  N22      1.0000 0.52608  0.26380  0.48988  Biso   1.000  N
  H165     1.0000 0.63066  0.27457  0.45711  Biso   1.000  H
  H166     1.0000 0.65108  0.24493  0.51398  Biso   1.000  H
  C162     1.0000 0.67038  0.24391  0.65347  Biso   1.000  C
  H167     1.0000 0.70907  0.32861  0.38394  Biso   1.000  H
  H168     1.0000 0.74865  0.30136  0.44558  Biso   1.000  H
  H169     1.0000 0.78799  0.33751  0.45909  Biso   1.000  H
  N23      1.0000 0.65259  0.29081  0.78467  Biso   1.000  N
  H170     1.0000 0.76432  0.26759  0.78121  Biso   1.000  H
  H171     1.0000 0.78296  0.30452  0.80893  Biso   1.000  H
  H172     1.0000 0.90930  0.37055  0.82183  Biso   1.000  H
  H173     1.0000 0.91642  0.35956  0.74531  Biso   1.000  H
  H174     1.0000 0.90653  0.33277  0.80152  Biso   1.000  H
  N24      1.0000 0.12795  0.47170  0.72780  Biso   1.000  N
  N25      1.0000 0.13199  0.45930  0.74641  Biso   1.000  N
  H175     1.0000 0.14269  0.47391  0.83139  Biso   1.000  H
  H176     1.0000 0.15457  0.50795  0.79658  Biso   1.000  H
  H177     1.0000 0.14359  0.48342  0.83753  Biso   1.000  H
  H178     1.0000 0.15345  0.50591  0.77358  Biso   1.000  H
  C163     1.0000 0.24487  0.43400  0.90489  Biso   1.000  C
  H179     1.0000 0.24370  0.57685  0.76430  Biso   1.000  H
  H180     1.0000 0.33987  0.56732  0.82200  Biso   1.000  H
  H181     1.0000 0.25146  0.55489  0.83408  Biso   1.000  H
  N26      1.0000 0.47839  0.39930  0.93530  Biso   1.000  N
  H182     1.0000 0.40352  0.41841  0.98745  Biso   1.000  H
  H183     1.0000 0.49721  0.43645  0.00453  Biso   1.000  H
  H184     1.0000 0.67066  0.48335  0.98844  Biso   1.000  H
  H185     1.0000 0.59410  0.51028  0.95885  Biso   1.000  H
  H186     1.0000 0.58694  0.48298  0.01501  Biso   1.000  H
  C164     1.0000 0.31881  0.29691  0.36291  Biso   1.000  C
  C165     1.0000 0.18886  0.27639  0.38361  Biso   1.000  C
  C166     1.0000 0.03396  0.44430  0.57997  Biso   1.000  C
  C167     1.0000 0.02700  0.44550  0.54879  Biso   1.000  C
  C168     1.0000 0.97300  0.39510  0.51420  Biso   1.000  C
  C169     1.0000 0.97000  0.39089  0.52332  Biso   1.000  C
  C170     1.0000 0.47346  0.27760  0.43779  Biso   1.000  C
  H187     1.0000 0.65595  0.24311  0.69887  Biso   1.000  H
  H188     1.0000 0.61841  0.23530  0.61274  Biso   1.000  H
  C171     1.0000 0.75155  0.22259  0.66308  Biso   1.000  C
  C172     1.0000 0.64464  0.31079  0.82919  Biso   1.000  C
  C173     1.0000 0.08164  0.44739  0.71709  Biso   1.000  C
  C174     1.0000 0.10496  0.46409  0.68059  Biso   1.000  C
  H189     1.0000 0.18586  0.43329  0.86476  Biso   1.000  H
  H190     1.0000 0.26937  0.41170  0.91291  Biso   1.000  H
  C175     1.0000 0.23338  0.44620  0.97461  Biso   1.000  C
  C176     1.0000 0.43789  0.37441  0.92520  Biso   1.000  C
  C177     1.0000 0.37281  0.27661  0.41792  Biso   1.000  C
  H191     1.0000 0.34467  0.31079  0.33706  Biso   1.000  H
  C178     1.0000 0.24299  0.25609  0.43861  Biso   1.000  C
  H192     1.0000 0.12608  0.27629  0.37191  Biso   1.000  H
  H193     1.0000 0.05244  0.46621  0.58013  Biso   1.000  H
  C179     1.0000 0.03998  0.42930  0.64557  Biso   1.000  C
  C180     1.0000 0.05098  0.43961  0.62361  Biso   1.000  C
  H194     1.0000 0.03776  0.46616  0.53193  Biso   1.000  H
  C181     1.0000 0.97897  0.38010  0.57969  Biso   1.000  C
  C182     1.0000 0.99496  0.38501  0.59808  Biso   1.000  C
  H195     1.0000 0.95038  0.38343  0.46930  Biso   1.000  H
  H196     1.0000 0.94278  0.37419  0.48901  Biso   1.000  H
  H197     1.0000 0.49648  0.28978  0.40710  Biso   1.000  H
  H198     1.0000 0.73267  0.19991  0.65303  Biso   1.000  H
  H199     1.0000 0.79394  0.22456  0.71358  Biso   1.000  H
  H200     1.0000 0.78042  0.22969  0.62888  Biso   1.000  H
  C183     1.0000 0.55758  0.31390  0.84368  Biso   1.000  C
  H201     1.0000 0.69355  0.32445  0.85488  Biso   1.000  H
  H202     1.0000 0.07089  0.43879  0.75843  Biso   1.000  H
  H203     1.0000 0.11908  0.48442  0.66368  Biso   1.000  H
  H204     1.0000 0.20099  0.42994  0.99212  Biso   1.000  H
  H205     1.0000 0.19959  0.46662  0.96429  Biso   1.000  H
  H206     1.0000 0.29222  0.44994  0.01232  Biso   1.000  H
  C184     1.0000 0.45984  0.34470  0.88870  Biso   1.000  C
  H207     1.0000 0.38834  0.37307  0.94112  Biso   1.000  H
  C185     1.0000 0.33485  0.25631  0.45579  Biso   1.000  C
  C186     1.0000 0.20185  0.23380  0.47967  Biso   1.000  C
  C187     1.0000 0.01269  0.39719  0.64540  Biso   1.000  C
  C188     1.0000 0.03498  0.40939  0.64831  Biso   1.000  C
  C189     1.0000 0.95201  0.34470  0.57969  Biso   1.000  C
  C190     1.0000 0.97400  0.35251  0.62558  Biso   1.000  C
  C191     1.0000 0.53977  0.34181  0.87618  Biso   1.000  C
  C192     1.0000 0.49547  0.28879  0.82370  Biso   1.000  C
  C193     1.0000 0.39775  0.31959  0.86861  Biso   1.000  C
  H208     1.0000 0.37178  0.24245  0.49334  Biso   1.000  H
  H209     1.0000 0.23519  0.21578  0.50602  Biso   1.000  H
  N27      1.0000 0.12642  0.23861  0.47962  Biso   1.000  N
  H210     1.0000 0.01685  0.38695  0.69020  Biso   1.000  H
  H211     1.0000 0.05217  0.40536  0.69942  Biso   1.000  H
  N28      1.0000 0.96916  0.32910  0.63607  Biso   1.000  N
  H212     1.0000 0.92064  0.33447  0.53418  Biso   1.000  H
  N29      1.0000 0.95297  0.32781  0.59001  Biso   1.000  N
  H213     1.0000 0.97777  0.35158  0.67526  Biso   1.000  H
  H214     1.0000 0.58227  0.35897  0.88990  Biso   1.000  H
  C194     1.0000 0.41556  0.29171  0.83611  Biso   1.000  C
  H215     1.0000 0.50766  0.26968  0.80147  Biso   1.000  H
  H216     1.0000 0.34309  0.32156  0.87706  Biso   1.000  H
  C195     1.0000 0.09145  0.21620  0.52139  Biso   1.000  C
  C196     1.0000 0.93681  0.29800  0.62619  Biso   1.000  C
  C197     1.0000 0.34857  0.26421  0.81569  Biso   1.000  C
  C198     1.0000 0.08378  0.23380  0.58782  Biso   1.000  C
  H217     1.0000 0.13208  0.19731  0.53786  Biso   1.000  H
  H218     1.0000 0.03212  0.20805  0.48977  Biso   1.000  H
  C199     1.0000 0.00616  0.27160  0.63821  Biso   1.000  C
  H219     1.0000 0.89303  0.29598  0.57552  Biso   1.000  H
  H220     1.0000 0.90424  0.29421  0.66022  Biso   1.000  H
  H221     1.0000 0.87785  0.28901  0.59589  Biso   1.000  H
  H222     1.0000 0.93361  0.30410  0.67433  Biso   1.000  H
  N30      1.0000 0.27225  0.26919  0.81239  Biso   1.000  N
  H223     1.0000 0.36576  0.24313  0.80548  Biso   1.000  H
  C200     1.0000 0.14819  0.22940  0.65709  Biso   1.000  C
  C201     1.0000 0.01275  0.25490  0.57827  Biso   1.000  C
  C202     1.0000 0.07057  0.26720  0.70749  Biso   1.000  C
  C203     1.0000 0.20826  0.24051  0.79356  Biso   1.000  C
  C204     1.0000 0.14158  0.24610  0.71699  Biso   1.000  C
  C205     1.0000 0.22855  0.20620  0.66758  Biso   1.000  C
  C206     1.0000 0.93609  0.25820  0.50317  Biso   1.000  C
  C207     1.0000 0.06027  0.28541  0.77347  Biso   1.000  C
  H224     1.0000 0.24137  0.22001  0.79538  Biso   1.000  H
  H225     1.0000 0.17707  0.23893  0.82919  Biso   1.000  H
  H226     1.0000 0.24444  0.20657  0.62295  Biso   1.000  H
  H227     1.0000 0.28087  0.21384  0.70941  Biso   1.000  H
  C208     1.0000 0.20514  0.17149  0.68218  Biso   1.000  C
  H228     1.0000 0.91473  0.28098  0.49603  Biso   1.000  H
  H229     1.0000 0.95829  0.25264  0.46331  Biso   1.000  H
  C209     1.0000 0.85862  0.23560  0.49982  Biso   1.000  C
  H230     1.0000 0.12002  0.28837  0.81168  Biso   1.000  H
  H231     1.0000 0.03485  0.30719  0.75722  Biso   1.000  H
  C210     1.0000 0.00116  0.26749  0.80630  Biso   1.000  C
  H232     1.0000 0.25217  0.15668  0.68037  Biso   1.000  H
  H233     1.0000 0.14815  0.16524  0.64485  Biso   1.000  H
  H234     1.0000 0.20034  0.17042  0.73093  Biso   1.000  H
  H235     1.0000 0.80836  0.23932  0.45393  Biso   1.000  H
  H236     1.0000 0.83982  0.24000  0.54160  Biso   1.000  H
  H237     1.0000 0.87820  0.21289  0.50180  Biso   1.000  H
  H238     1.0000 0.00430  0.27814  0.85219  Biso   1.000  H
  H239     1.0000 0.02129  0.24496  0.81635  Biso   1.000  H
  H240     1.0000 0.93936  0.26793  0.77172  Biso   1.000  H
  C211     1.0000 0.70516  0.32851  0.18220  Biso   1.000  C
  C212     1.0000 0.72858  0.29380  0.16759  Biso   1.000  C
  H241     1.0000 0.75217  0.34332  0.18033  Biso   1.000  H
  H242     1.0000 0.64824  0.33476  0.14487  Biso   1.000  H
  H243     1.0000 0.70033  0.32958  0.23089  Biso   1.000  H
  C213     1.0000 0.64821  0.27060  0.15711  Biso   1.000  C
  H244     1.0000 0.74446  0.29343  0.12297  Biso   1.000  H
  H245     1.0000 0.78095  0.28616  0.20942  Biso   1.000  H
  C214     1.0000 0.64160  0.25390  0.21700  Biso   1.000  C
  C215     1.0000 0.58378  0.26620  0.08778  Biso   1.000  C
  C216     1.0000 0.57059  0.23280  0.20750  Biso   1.000  C
  C217     1.0000 0.70828  0.25949  0.29358  Biso   1.000  C
  C218     1.0000 0.51277  0.24510  0.07828  Biso   1.000  C
  C219     1.0000 0.59154  0.28380  0.02141  Biso   1.000  C
  C220     1.0000 0.56030  0.21459  0.27349  Biso   1.000  C
  C221     1.0000 0.50616  0.22840  0.13817  Biso   1.000  C
  N31      1.0000 0.77227  0.23081  0.31241  Biso   1.000  N
  H246     1.0000 0.74140  0.27999  0.29539  Biso   1.000  H
  H247     1.0000 0.67715  0.26107  0.32921  Biso   1.000  H
  C222     1.0000 0.43612  0.24180  0.00318  Biso   1.000  C
  H248     1.0000 0.63210  0.30269  0.03788  Biso   1.000  H
  N32      1.0000 0.62636  0.26139  0.97958  Biso   1.000  N
  H249     1.0000 0.53214  0.29195  0.98979  Biso   1.000  H
  C223     1.0000 0.50118  0.23251  0.30631  Biso   1.000  C
  H250     1.0000 0.62004  0.21163  0.31169  Biso   1.000  H
  H251     1.0000 0.53487  0.19281  0.25724  Biso   1.000  H
  C224     1.0000 0.43683  0.20200  0.12620  Biso   1.000  C
  C225     1.0000 0.84859  0.23579  0.31570  Biso   1.000  C
  H252     1.0000 0.41475  0.21902  0.99605  Biso   1.000  H
  H253     1.0000 0.45828  0.24736  0.96328  Biso   1.000  H
  C226     1.0000 0.35856  0.26440  0.99978  Biso   1.000  C
  C227     1.0000 0.70187  0.26620  0.97969  Biso   1.000  C
  H254     1.0000 0.50438  0.22186  0.35221  Biso   1.000  H
  H255     1.0000 0.52128  0.25504  0.31631  Biso   1.000  H
  H256     1.0000 0.43938  0.23207  0.27173  Biso   1.000  H
  N33      1.0000 0.46918  0.17090  0.13608  Biso   1.000  N
  H257     1.0000 0.39306  0.20402  0.07554  Biso   1.000  H
  H258     1.0000 0.40426  0.20579  0.16024  Biso   1.000  H
  H259     1.0000 0.37787  0.21099  0.09590  Biso   1.000  H
  H260     1.0000 0.43363  0.19590  0.17435  Biso   1.000  H
  N34      1.0000 0.45296  0.17219  0.08997  Biso   1.000  N
  C228     1.0000 0.91558  0.20829  0.33612  Biso   1.000  C
  H261     1.0000 0.86578  0.25687  0.30549  Biso   1.000  H
  H262     1.0000 0.33984  0.26000  0.04161  Biso   1.000  H
  H263     1.0000 0.37820  0.28711  0.00176  Biso   1.000  H
  H264     1.0000 0.30836  0.26068  0.95389  Biso   1.000  H
  H265     1.0000 0.73521  0.28422  0.00604  Biso   1.000  H
  C229     1.0000 0.74299  0.24391  0.93857  Biso   1.000  C
  C230     1.0000 0.45203  0.15530  0.07971  Biso   1.000  C
  C231     1.0000 0.47402  0.14749  0.12560  Biso   1.000  C
  H266     1.0000 0.47779  0.14842  0.17528  Biso   1.000  H
  H267     1.0000 0.42066  0.16553  0.03420  Biso   1.000  H
  C232     1.0000 0.89783  0.18041  0.36862  Biso   1.000  C
  C233     1.0000 0.99549  0.21121  0.32372  Biso   1.000  C
  C234     1.0000 0.83485  0.24369  0.95575  Biso   1.000  C
  C235     1.0000 0.68886  0.22361  0.88357  Biso   1.000  C
  C236     1.0000 0.47900  0.11990  0.07971  Biso   1.000  C
  C237     1.0000 0.49498  0.11499  0.09810  Biso   1.000  C
  H268     1.0000 0.84311  0.17844  0.37707  Biso   1.000  H
  C238     1.0000 0.95993  0.15530  0.38871  Biso   1.000  C
  C239     1.0000 0.05760  0.18610  0.34370  Biso   1.000  C
  H269     1.0000 0.00768  0.23032  0.30148  Biso   1.000  H
  H270     1.0000 0.87177  0.25755  0.99330  Biso   1.000  H
  C240     1.0000 0.87281  0.22339  0.91788  Biso   1.000  C
  C241     1.0000 0.72678  0.20331  0.84574  Biso   1.000  C
  H271     1.0000 0.62607  0.22371  0.87187  Biso   1.000  H
  C242     1.0000 0.47302  0.10490  0.01422  Biso   1.000  C
  C243     1.0000 0.51271  0.10281  0.14542  Biso   1.000  C
  C244     1.0000 0.47000  0.10911  0.02328  Biso   1.000  C
  C245     1.0000 0.53498  0.09061  0.14827  Biso   1.000  C
  C246     1.0000 0.93791  0.12559  0.42522  Biso   1.000  C
  C247     1.0000 0.03979  0.15819  0.37620  Biso   1.000  C
  C248     1.0000 0.14466  0.18921  0.32921  Biso   1.000  C
  C249     1.0000 0.81881  0.20309  0.86287  Biso   1.000  C
  C250     1.0000 0.97345  0.22240  0.93775  Biso   1.000  C
  C251     1.0000 0.66935  0.18000  0.78745  Biso   1.000  C
  C252     1.0000 0.50001  0.07281  0.01427  Biso   1.000  C
  H272     1.0000 0.45038  0.11657  0.96926  Biso   1.000  H
  C253     1.0000 0.48600  0.07889  0.99857  Biso   1.000  C
  H273     1.0000 0.44278  0.12581  0.98897  Biso   1.000  H
  C254     1.0000 0.54000  0.07070  0.14558  Biso   1.000  C
  H274     1.0000 0.51687  0.11305  0.19021  Biso   1.000  H
  H275     1.0000 0.55219  0.09464  0.19943  Biso   1.000  H
  C255     1.0000 0.55100  0.06039  0.12362  Biso   1.000  C
  H276     1.0000 0.88836  0.12693  0.44114  Biso   1.000  H
  N35      1.0000 0.97841  0.10070  0.43532  Biso   1.000  N
  H277     1.0000 0.08229  0.14103  0.38992  Biso   1.000  H
  H278     1.0000 0.19357  0.17555  0.35490  Biso   1.000  H
  N36      1.0000 0.15261  0.20919  0.28469  Biso   1.000  N
  H279     1.0000 0.84466  0.18921  0.83702  Biso   1.000  H
  H280     1.0000 0.99648  0.21022  0.90706  Biso   1.000  H
  N37      1.0000 0.02608  0.23620  0.98984  Biso   1.000  N
  H281     1.0000 0.60671  0.18328  0.76681  Biso   1.000  H
  N38      1.0000 0.70377  0.15700  0.76697  Biso   1.000  N
  C256     1.0000 0.53398  0.05570  0.07998  Biso   1.000  C
  C257     1.0000 0.52702  0.05450  0.04880  Biso   1.000  C
  C258     1.0000 0.49296  0.05691  0.94209  Biso   1.000  C
  C259     1.0000 0.46594  0.07320  0.91694  Biso   1.000  C
  C260     1.0000 0.58172  0.05261  0.21711  Biso   1.000  C
  C261     1.0000 0.60498  0.03591  0.18060  Biso   1.000  C
  C262     1.0000 0.94637  0.07359  0.46507  Biso   1.000  C
  C263     1.0000 0.23977  0.21009  0.27332  Biso   1.000  C
  C264     1.0000 0.12308  0.23331  0.00258  Biso   1.000  C
  C265     1.0000 0.64466  0.13480  0.71257  Biso   1.000  C
  H282     1.0000 0.55246  0.03379  0.08015  Biso   1.000  H
  H283     1.0000 0.53778  0.03384  0.03195  Biso   1.000  H
  H284     1.0000 0.48886  0.03389  0.93736  Biso   1.000  H
  N39      1.0000 0.49208  0.07359  0.89015  Biso   1.000  N
  N40      1.0000 0.50495  0.05351  0.89394  Biso   1.000  N
  H285     1.0000 0.41981  0.08579  0.88280  Biso   1.000  H
  H286     1.0000 0.57091  0.06121  0.25845  Biso   1.000  H
  N41      1.0000 0.62797  0.02830  0.22781  Biso   1.000  N
  H287     1.0000 0.61910  0.01558  0.16370  Biso   1.000  H
  N42      1.0000 0.63201  0.04070  0.24642  Biso   1.000  N
  C266     1.0000 0.90079  0.04789  0.40760  Biso   1.000  C
  H288     1.0000 0.99721  0.06355  0.50449  Biso   1.000  H
  H289     1.0000 0.90354  0.08159  0.48747  Biso   1.000  H
  C267     1.0000 0.22588  0.19911  0.19499  Biso   1.000  C
  H290     1.0000 0.26434  0.23241  0.28123  Biso   1.000  H
  H291     1.0000 0.28298  0.19548  0.30895  Biso   1.000  H
  H292     1.0000 0.13062  0.22543  0.95713  Biso   1.000  H
  C268     1.0000 0.17008  0.21019  0.06522  Biso   1.000  C
  H293     1.0000 0.15110  0.25507  0.01400  Biso   1.000  H
  C269     1.0000 0.64337  0.10220  0.74935  Biso   1.000  C
  H294     1.0000 0.58360  0.14399  0.69286  Biso   1.000  H
  H295     1.0000 0.66638  0.13189  0.67134  Biso   1.000  H
  C270     1.0000 0.48698  0.05399  0.81945  Biso   1.000  C
  C271     1.0000 0.66879  0.01551  0.29797  Biso   1.000  C
  C272     1.0000 0.80879  0.04349  0.38202  Biso   1.000  C
  C273     1.0000 0.95372  0.02830  0.38141  Biso   1.000  C
  C274     1.0000 0.24789  0.16770  0.18132  Biso   1.000  C
  C275     1.0000 0.18701  0.22030  0.13702  Biso   1.000  C
  C276     1.0000 0.19210  0.17881  0.05160  Biso   1.000  C
  C277     1.0000 0.56947  0.09360  0.76686  Biso   1.000  C
  C278     1.0000 0.71613  0.08139  0.76609  Biso   1.000  C
  C279     1.0000 0.56831  0.06401  0.80106  Biso   1.000  C
  H296     1.0000 0.43133  0.05937  0.77828  Biso   1.000  H
  H297     1.0000 0.48802  0.03036  0.82895  Biso   1.000  H
  H298     1.0000 0.46704  0.03219  0.79897  Biso   1.000  H
  H299     1.0000 0.43770  0.06950  0.79623  Biso   1.000  H
  C280     1.0000 0.76969  0.01950  0.33030  Biso   1.000  C
  H300     1.0000 0.64268  0.02609  0.33135  Biso   1.000  H
  H301     1.0000 0.64361  0.01658  0.33755  Biso   1.000  H
  H302     1.0000 0.65459  0.99205  0.29660  Biso   1.000  H
  H303     1.0000 0.65353  0.99409  0.27360  Biso   1.000  H
  C281     1.0000 0.74489  0.06600  0.40491  Biso   1.000  C
  C282     1.0000 0.91462  0.00440  0.32970  Biso   1.000  C
  C283     1.0000 0.05608  0.03450  0.40919  Biso   1.000  C
  C284     1.0000 0.23112  0.15751  0.10963  Biso   1.000  C
  C285     1.0000 0.28797  0.14360  0.24588  Biso   1.000  C
  C286     1.0000 0.17040  0.25609  0.15349  Biso   1.000  C
  C287     1.0000 0.16539  0.16631  0.97118  Biso   1.000  C
  C288     1.0000 0.48726  0.11621  0.74776  Biso   1.000  C
  C289     1.0000 0.71497  0.05181  0.80029  Biso   1.000  C
  C290     1.0000 0.79838  0.09119  0.74666  Biso   1.000  C
  C291     1.0000 0.64111  0.04310  0.81775  Biso   1.000  C
  C292     1.0000 0.82262  0.99990  0.30412  Biso   1.000  C
  H304     1.0000 0.68588  0.06671  0.36478  Biso   1.000  H
  H305     1.0000 0.76939  0.08830  0.41292  Biso   1.000  H
  C293     1.0000 0.73338  0.05380  0.47457  Biso   1.000  C
  C294     1.0000 0.97010  0.98279  0.29857  Biso   1.000  C
  H306     1.0000 0.06798  0.05752  0.42461  Biso   1.000  H
  H307     1.0000 0.07826  0.03073  0.36857  Biso   1.000  H
  C295     1.0000 0.10646  0.01250  0.47358  Biso   1.000  C
  C296     1.0000 0.25828  0.12330  0.09502  Biso   1.000  C
  H308     1.0000 0.27104  0.12121  0.22760  Biso   1.000  H
  H309     1.0000 0.26115  0.14805  0.28353  Biso   1.000  H
  C297     1.0000 0.38909  0.14531  0.28189  Biso   1.000  C
  H310     1.0000 0.15595  0.25689  0.19883  Biso   1.000  H
  H311     1.0000 0.11841  0.26470  0.11270  Biso   1.000  H
  C298     1.0000 0.25157  0.27741  0.16309  Biso   1.000  C
  H312     1.0000 0.10672  0.17565  0.94137  Biso   1.000  H
  H313     1.0000 0.15910  0.14239  0.97063  Biso   1.000  H
  C299     1.0000 0.23386  0.17550  0.93687  Biso   1.000  C
  H314     1.0000 0.50742  0.13913  0.75253  Biso   1.000  H
  H315     1.0000 0.45663  0.11249  0.78311  Biso   1.000  H
  C300     1.0000 0.42181  0.11030  0.66986  Biso   1.000  C
  C301     1.0000 0.79587  0.02891  0.82187  Biso   1.000  C
  H316     1.0000 0.85272  0.08261  0.78509  Biso   1.000  H
  H317     1.0000 0.80295  0.11516  0.74743  Biso   1.000  H
  C302     1.0000 0.79620  0.07911  0.67304  Biso   1.000  C
  C303     1.0000 0.63976  0.00931  0.85354  Biso   1.000  C
  C304     1.0000 0.77873  0.97080  0.25301  Biso   1.000  C
  H318     1.0000 0.70099  0.07006  0.49208  Biso   1.000  H
  H319     1.0000 0.69961  0.03338  0.46430  Biso   1.000  H
  H320     1.0000 0.79222  0.05006  0.51228  Biso   1.000  H
  N43      1.0000 0.95491  0.99441  0.22880  Biso   1.000  N
  H321     1.0000 0.95116  0.95986  0.29693  Biso   1.000  H
  H322     1.0000 0.03426  0.98439  0.32910  Biso   1.000  H
  H323     1.0000 0.09410  0.98972  0.45881  Biso   1.000  H
  H324     1.0000 0.17068  0.01665  0.48846  Biso   1.000  H
  H325     1.0000 0.08687  0.01702  0.51497  Biso   1.000  H
  N44      1.0000 0.17577  0.10359  0.06511  Biso   1.000  N
  H326     1.0000 0.29918  0.11356  0.14108  Biso   1.000  H
  H327     1.0000 0.28940  0.12423  0.05923  Biso   1.000  H
  H328     1.0000 0.40933  0.12945  0.32185  Biso   1.000  H
  H329     1.0000 0.41644  0.14044  0.24533  Biso   1.000  H
  H330     1.0000 0.40662  0.16723  0.30154  Biso   1.000  H
  H331     1.0000 0.23269  0.30009  0.15305  Biso   1.000  H
  H332     1.0000 0.29396  0.27544  0.21360  Biso   1.000  H
  H333     1.0000 0.28044  0.27031  0.12889  Biso   1.000  H
  H334     1.0000 0.20909  0.17139  0.88395  Biso   1.000  H
  H335     1.0000 0.24865  0.19864  0.94554  Biso   1.000  H
  H336     1.0000 0.28799  0.16249  0.95905  Biso   1.000  H
  H337     1.0000 0.37928  0.12839  0.65504  Biso   1.000  H
  H338     1.0000 0.45465  0.10877  0.63616  Biso   1.000  H
  H339     1.0000 0.38935  0.08997  0.66854  Biso   1.000  H
  N45      1.0000 0.86916  0.04230  0.89076  Biso   1.000  N
  H340     1.0000 0.77796  0.00693  0.83186  Biso   1.000  H
  H341     1.0000 0.81880  0.02733  0.78097  Biso   1.000  H
  H342     1.0000 0.84704  0.08808  0.66256  Biso   1.000  H
  H343     1.0000 0.79969  0.05528  0.67376  Biso   1.000  H
  H344     1.0000 0.74048  0.08599  0.63489  Biso   1.000  H
  C305     1.0000 0.61197  0.98259  0.79535  Biso   1.000  C
  H345     1.0000 0.59749  0.00989  0.88027  Biso   1.000  H
  H346     1.0000 0.69996  0.00442  0.88950  Biso   1.000  H
  H347     1.0000 0.81191  0.96650  0.21969  Biso   1.000  H
  H348     1.0000 0.71657  0.97654  0.22238  Biso   1.000  H
  C306     1.0000 0.77843  0.94020  0.29731  Biso   1.000  C
  C307     1.0000 0.01657  0.00649  0.21749  Biso   1.000  C
  C308     1.0000 0.17158  0.08300  0.10688  Biso   1.000  C
  C309     1.0000 0.88498  0.02650  0.94478  Biso   1.000  C
  H349     1.0000 0.62734  0.96135  0.81912  Biso   1.000  H
  H350     1.0000 0.54741  0.98376  0.76884  Biso   1.000  H
  H351     1.0000 0.64332  0.98566  0.76082  Biso   1.000  H
  H352     1.0000 0.74378  0.92315  0.26432  Biso   1.000  H
  H353     1.0000 0.83989  0.93268  0.32201  Biso   1.000  H
  H354     1.0000 0.75148  0.94511  0.33409  Biso   1.000  H
  C310     1.0000 0.01858  0.02181  0.14679  Biso   1.000  C
  H355     1.0000 0.07159  0.00659  0.25779  Biso   1.000  H
  C311     1.0000 0.09281  0.06010  0.09431  Biso   1.000  C
  H356     1.0000 0.22122  0.08071  0.15135  Biso   1.000  H
  C312     1.0000 0.95643  0.03440  0.01779  Biso   1.000  C
  H357     1.0000 0.85027  0.00746  0.94187  Biso   1.000  H
  C313     1.0000 0.95238  0.01750  0.07828  Biso   1.000  C
  C314     1.0000 0.08883  0.04310  0.15480  Biso   1.000  C
  C315     1.0000 0.02661  0.05570  0.02580  Biso   1.000  C
  H358     1.0000 0.90439  0.00292  0.07279  Biso   1.000  H
  H359     1.0000 0.13404  0.04607  0.20157  Biso   1.000  H
  H360     1.0000 0.02931  0.06732  0.98446  Biso   1.000  H
  C316     1.0000 0.29473  0.67149  0.81777  Biso   1.000  C
  C317     1.0000 0.27138  0.70620  0.83237  Biso   1.000  C
  H361     1.0000 0.24772  0.65668  0.81964  Biso   1.000  H
  H362     1.0000 0.35174  0.66524  0.85516  Biso   1.000  H
  H363     1.0000 0.29963  0.67042  0.76908  Biso   1.000  H
  C318     1.0000 0.35177  0.72940  0.84291  Biso   1.000  C
  H364     1.0000 0.25550  0.70657  0.87700  Biso   1.000  H
  H365     1.0000 0.21903  0.71384  0.79060  Biso   1.000  H
  C319     1.0000 0.35836  0.74610  0.78297  Biso   1.000  C
  C320     1.0000 0.41618  0.73380  0.91219  Biso   1.000  C
  C321     1.0000 0.42937  0.76720  0.79247  Biso   1.000  C
  C322     1.0000 0.29168  0.74051  0.70639  Biso   1.000  C
  C323     1.0000 0.48719  0.75490  0.92169  Biso   1.000  C
  C324     1.0000 0.40842  0.71620  0.97856  Biso   1.000  C
  C325     1.0000 0.49374  0.77160  0.86180  Biso   1.000  C
  C326     1.0000 0.43966  0.78541  0.72648  Biso   1.000  C
  N46      1.0000 0.22771  0.76919  0.68762  Biso   1.000  N
  H366     1.0000 0.25859  0.72001  0.70463  Biso   1.000  H
  H367     1.0000 0.32281  0.73893  0.67076  Biso   1.000  H
  C327     1.0000 0.56384  0.75820  0.99679  Biso   1.000  C
  H368     1.0000 0.36786  0.69731  0.96209  Biso   1.000  H
  N47      1.0000 0.37356  0.73861  0.02045  Biso   1.000  N
  H369     1.0000 0.46784  0.70805  0.01023  Biso   1.000  H
  C328     1.0000 0.56313  0.79800  0.87377  Biso   1.000  C
  H370     1.0000 0.37995  0.78837  0.68833  Biso   1.000  H
  H371     1.0000 0.46511  0.80719  0.74279  Biso   1.000  H
  C329     1.0000 0.49880  0.76749  0.69371  Biso   1.000  C
  C330     1.0000 0.15137  0.76421  0.68427  Biso   1.000  C
  H372     1.0000 0.58523  0.78098  0.00398  Biso   1.000  H
  H373     1.0000 0.54168  0.75264  0.03669  Biso   1.000  H
  C331     1.0000 0.64142  0.73560  0.00024  Biso   1.000  C
  C332     1.0000 0.29812  0.73380  0.02034  Biso   1.000  C
  N48      1.0000 0.53078  0.82910  0.86388  Biso   1.000  N
  H374     1.0000 0.60690  0.79598  0.92443  Biso   1.000  H
  H375     1.0000 0.59572  0.79421  0.83979  Biso   1.000  H
  H376     1.0000 0.62211  0.78901  0.90412  Biso   1.000  H
  H377     1.0000 0.56635  0.80410  0.82568  Biso   1.000  H
  N49      1.0000 0.54699  0.82781  0.91000  Biso   1.000  N
  H378     1.0000 0.49558  0.77814  0.64776  Biso   1.000  H
  H379     1.0000 0.47868  0.74496  0.68366  Biso   1.000  H
  H380     1.0000 0.56058  0.76793  0.72824  Biso   1.000  H
  C333     1.0000 0.08440  0.79171  0.66390  Biso   1.000  C
  H381     1.0000 0.13417  0.74313  0.69448  Biso   1.000  H
  H382     1.0000 0.66011  0.74000  0.95836  Biso   1.000  H
  H383     1.0000 0.62176  0.71289  0.99821  Biso   1.000  H
  H384     1.0000 0.69160  0.73932  0.04608  Biso   1.000  H
  H385     1.0000 0.26478  0.71578  0.99399  Biso   1.000  H
  C334     1.0000 0.25697  0.75609  0.06140  Biso   1.000  C
  C335     1.0000 0.54793  0.84470  0.92026  Biso   1.000  C
  C336     1.0000 0.52594  0.85251  0.87437  Biso   1.000  C
  H386     1.0000 0.52219  0.85158  0.82474  Biso   1.000  H
  H387     1.0000 0.57932  0.83447  0.96582  Biso   1.000  H
  C337     1.0000 0.10215  0.81959  0.63140  Biso   1.000  C
  C338     1.0000 0.00449  0.78879  0.67631  Biso   1.000  C
  C339     1.0000 0.16511  0.75631  0.04421  Biso   1.000  C
  C340     1.0000 0.31104  0.77639  0.11640  Biso   1.000  C
  C341     1.0000 0.52096  0.88010  0.92026  Biso   1.000  C
  C342     1.0000 0.50498  0.88501  0.90187  Biso   1.000  C
  H388     1.0000 0.15678  0.82156  0.62289  Biso   1.000  H
  C343     1.0000 0.04006  0.84470  0.61131  Biso   1.000  C
  C344     1.0000 0.94236  0.81390  0.65627  Biso   1.000  C
  H389     1.0000 0.99230  0.76968  0.69854  Biso   1.000  H
  H390     1.0000 0.12818  0.74245  0.00667  Biso   1.000  H
  C345     1.0000 0.12717  0.77661  0.08215  Biso   1.000  C
  C346     1.0000 0.27318  0.79669  0.15422  Biso   1.000  C
  H391     1.0000 0.37391  0.77629  0.12815  Biso   1.000  H
  C347     1.0000 0.52696  0.89510  0.98581  Biso   1.000  C
  C348     1.0000 0.48727  0.89719  0.85461  Biso   1.000  C
  C349     1.0000 0.52996  0.89089  0.97669  Biso   1.000  C
  C350     1.0000 0.46498  0.90939  0.85170  Biso   1.000  C
  C351     1.0000 0.06207  0.87441  0.57481  Biso   1.000  C
  C352     1.0000 0.96017  0.84181  0.62377  Biso   1.000  C
  C353     1.0000 0.85526  0.81079  0.67082  Biso   1.000  C
  C354     1.0000 0.18115  0.79691  0.13710  Biso   1.000  C
  C355     1.0000 0.02651  0.77760  0.06222  Biso   1.000  C
  C356     1.0000 0.33060  0.82000  0.21252  Biso   1.000  C
  C357     1.0000 0.49995  0.92719  0.98570  Biso   1.000  C
  H392     1.0000 0.54958  0.88343  0.03071  Biso   1.000  H
  C358     1.0000 0.51399  0.92111  0.00145  Biso   1.000  C
  H393     1.0000 0.55721  0.87419  0.01106  Biso   1.000  H
  C359     1.0000 0.45996  0.92930  0.85439  Biso   1.000  C
  H394     1.0000 0.48308  0.88695  0.80976  Biso   1.000  H
  H395     1.0000 0.44777  0.90536  0.80054  Biso   1.000  H
  C360     1.0000 0.44898  0.93961  0.87640  Biso   1.000  C
  H396     1.0000 0.11160  0.87307  0.55883  Biso   1.000  H
  N50      1.0000 0.02157  0.89930  0.56471  Biso   1.000  N
  H397     1.0000 0.91767  0.85897  0.61005  Biso   1.000  H
  H398     1.0000 0.80641  0.82445  0.64513  Biso   1.000  H
  N51      1.0000 0.84735  0.79081  0.71528  Biso   1.000  N
  H399     1.0000 0.15529  0.81079  0.16295  Biso   1.000  H
  N52      1.0000 0.97388  0.76380  0.01012  Biso   1.000  N
  H400     1.0000 0.00348  0.78978  0.09291  Biso   1.000  H
  H401     1.0000 0.39328  0.81672  0.23322  Biso   1.000  H
  N53      1.0000 0.29618  0.84300  0.23300  Biso   1.000  N
  C361     1.0000 0.46598  0.94430  0.91999  Biso   1.000  C
  C362     1.0000 0.47294  0.94550  0.95117  Biso   1.000  C
  C363     1.0000 0.50696  0.94309  0.05794  Biso   1.000  C
  C364     1.0000 0.53395  0.92680  0.08303  Biso   1.000  C
  C365     1.0000 0.41826  0.94739  0.78291  Biso   1.000  C
  C366     1.0000 0.39497  0.96409  0.81936  Biso   1.000  C
  C367     1.0000 0.05359  0.92641  0.53490  Biso   1.000  C
  C368     1.0000 0.76015  0.78991  0.72670  Biso   1.000  C
  C369     1.0000 0.87688  0.76669  0.99739  Biso   1.000  C
  C370     1.0000 0.35523  0.86520  0.28740  Biso   1.000  C
  H402     1.0000 0.44746  0.96621  0.91988  Biso   1.000  H
  H403     1.0000 0.46220  0.96616  0.96808  Biso   1.000  H
  H404     1.0000 0.51110  0.96611  0.06260  Biso   1.000  H
  N54      1.0000 0.50787  0.92641  0.10981  Biso   1.000  N
  N55      1.0000 0.49500  0.94649  0.10603  Biso   1.000  N
  H405     1.0000 0.58014  0.91421  0.11717  Biso   1.000  H
  H406     1.0000 0.42907  0.93879  0.74158  Biso   1.000  H
  N56      1.0000 0.37195  0.97170  0.77221  Biso   1.000  N
  H407     1.0000 0.38088  0.98442  0.83633  Biso   1.000  H
  N57      1.0000 0.36797  0.95930  0.75360  Biso   1.000  N
  C371     1.0000 0.09917  0.95211  0.59237  Biso   1.000  C
  H408     1.0000 0.00275  0.93645  0.49548  Biso   1.000  H
  H409     1.0000 0.09642  0.91841  0.51250  Biso   1.000  H
  C372     1.0000 0.77408  0.80089  0.80498  Biso   1.000  C
  H410     1.0000 0.73562  0.76759  0.71874  Biso   1.000  H
  H411     1.0000 0.71698  0.80452  0.69102  Biso   1.000  H
  C373     1.0000 0.82984  0.78981  0.93481  Biso   1.000  C
  H412     1.0000 0.84888  0.74493  0.98603  Biso   1.000  H
  H413     1.0000 0.86930  0.77457  0.04290  Biso   1.000  H
  C374     1.0000 0.35659  0.89780  0.25062  Biso   1.000  C
  H414     1.0000 0.41636  0.85601  0.30711  Biso   1.000  H
  H415     1.0000 0.33360  0.86811  0.32868  Biso   1.000  H
  C375     1.0000 0.51298  0.94601  0.18052  Biso   1.000  C
  C376     1.0000 0.33117  0.98449  0.70200  Biso   1.000  C
  C377     1.0000 0.19119  0.95651  0.61801  Biso   1.000  C
  C378     1.0000 0.04626  0.97170  0.61861  Biso   1.000  C
  C379     1.0000 0.75210  0.83230  0.81871  Biso   1.000  C
  C380     1.0000 0.81297  0.77970  0.86301  Biso   1.000  C
  C381     1.0000 0.80785  0.82119  0.94837  Biso   1.000  C
  C382     1.0000 0.43049  0.90640  0.23311  Biso   1.000  C
  C383     1.0000 0.28385  0.91861  0.23393  Biso   1.000  C
  C384     1.0000 0.43165  0.93599  0.19891  Biso   1.000  C
  H416     1.0000 0.56863  0.94063  0.22169  Biso   1.000  H
  H417     1.0000 0.51194  0.96964  0.17102  Biso   1.000  H
  H418     1.0000 0.53286  0.96781  0.20100  Biso   1.000  H
  H419     1.0000 0.56228  0.93050  0.20379  Biso   1.000  H
  C385     1.0000 0.23027  0.98050  0.66967  Biso   1.000  C
  H420     1.0000 0.35727  0.97391  0.66862  Biso   1.000  H
  H421     1.0000 0.35635  0.98342  0.66242  Biso   1.000  H
  H422     1.0000 0.34533  0.00795  0.70343  Biso   1.000  H
  H423     1.0000 0.34645  0.00591  0.72643  Biso   1.000  H
  C386     1.0000 0.25509  0.93400  0.59512  Biso   1.000  C
  C387     1.0000 0.08534  0.99560  0.67027  Biso   1.000  C
  C388     1.0000 0.94387  0.96550  0.59078  Biso   1.000  C
  C389     1.0000 0.76886  0.84249  0.89040  Biso   1.000  C
  C390     1.0000 0.71198  0.85640  0.75409  Biso   1.000  C
  C391     1.0000 0.82956  0.74391  0.84648  Biso   1.000  C
  C392     1.0000 0.83459  0.83369  0.02884  Biso   1.000  C
  C393     1.0000 0.51270  0.88379  0.25221  Biso   1.000  C
  C394     1.0000 0.28495  0.94819  0.19973  Biso   1.000  C
  C395     1.0000 0.20158  0.90881  0.25331  Biso   1.000  C
  C396     1.0000 0.35885  0.95690  0.18222  Biso   1.000  C
  C397     1.0000 0.17736  0.00010  0.69591  Biso   1.000  C
  H424     1.0000 0.31401  0.93329  0.63519  Biso   1.000  H
  H425     1.0000 0.23057  0.91170  0.58705  Biso   1.000  H
  C398     1.0000 0.26658  0.94620  0.52540  Biso   1.000  C
  C399     1.0000 0.02986  0.01721  0.70139  Biso   1.000  C
  H426     1.0000 0.93198  0.94248  0.57536  Biso   1.000  H
  H427     1.0000 0.92173  0.96927  0.63146  Biso   1.000  H
  C400     1.0000 0.89350  0.98750  0.52639  Biso   1.000  C
  C401     1.0000 0.74164  0.87670  0.90500  Biso   1.000  C
  H428     1.0000 0.72892  0.87879  0.77237  Biso   1.000  H
  H429     1.0000 0.73881  0.85195  0.71644  Biso   1.000  H
  C402     1.0000 0.61087  0.85469  0.71808  Biso   1.000  C
  H430     1.0000 0.84401  0.74311  0.80114  Biso   1.000  H
  H431     1.0000 0.88155  0.73530  0.88727  Biso   1.000  H
  C403     1.0000 0.74839  0.72259  0.83688  Biso   1.000  C
  H432     1.0000 0.89324  0.82435  0.05860  Biso   1.000  H
  H433     1.0000 0.84086  0.85761  0.02934  Biso   1.000  H
  C404     1.0000 0.76610  0.82450  0.06310  Biso   1.000  C
  H434     1.0000 0.49256  0.86087  0.24749  Biso   1.000  H
  H435     1.0000 0.54332  0.88751  0.21686  Biso   1.000  H
  C405     1.0000 0.57814  0.88970  0.33011  Biso   1.000  C
  C406     1.0000 0.20409  0.97109  0.17810  Biso   1.000  C
  H436     1.0000 0.14718  0.91739  0.21488  Biso   1.000  H
  H437     1.0000 0.19701  0.88484  0.25254  Biso   1.000  H
  C407     1.0000 0.20376  0.92089  0.32692  Biso   1.000  C
  C408     1.0000 0.36020  0.99069  0.14643  Biso   1.000  C
  C409     1.0000 0.22126  0.02920  0.74701  Biso   1.000  C
  H438     1.0000 0.29897  0.92994  0.50789  Biso   1.000  H
  H439     1.0000 0.30034  0.96662  0.53567  Biso   1.000  H
  H440     1.0000 0.20774  0.94994  0.48769  Biso   1.000  H
  H441     1.0000 0.96572  0.01561  0.67093  Biso   1.000  H
  N58      1.0000 0.04505  0.00559  0.77117  Biso   1.000  N
  H442     1.0000 0.04880  0.04014  0.70304  Biso   1.000  H
  H443     1.0000 0.82930  0.98335  0.51157  Biso   1.000  H
  H444     1.0000 0.91302  0.98298  0.48500  Biso   1.000  H
  H445     1.0000 0.90586  0.01028  0.54116  Biso   1.000  H
  N59      1.0000 0.82412  0.89641  0.93486  Biso   1.000  N
  H446     1.0000 0.70080  0.88644  0.85894  Biso   1.000  H
  H447     1.0000 0.71056  0.87577  0.94074  Biso   1.000  H
  H448     1.0000 0.59063  0.87055  0.67812  Biso   1.000  H
  H449     1.0000 0.58352  0.85956  0.75464  Biso   1.000  H
  H450     1.0000 0.59334  0.83277  0.69843  Biso   1.000  H
  H451     1.0000 0.76727  0.69991  0.84692  Biso   1.000  H
  H452     1.0000 0.70600  0.72456  0.78637  Biso   1.000  H
  H453     1.0000 0.71952  0.72969  0.87108  Biso   1.000  H
  H454     1.0000 0.79089  0.82861  0.11607  Biso   1.000  H
  H455     1.0000 0.75131  0.80136  0.05443  Biso   1.000  H
  H456     1.0000 0.71197  0.83751  0.04092  Biso   1.000  H
  H457     1.0000 0.62068  0.87161  0.34493  Biso   1.000  H
  H458     1.0000 0.54533  0.89123  0.36387  Biso   1.000  H
  H459     1.0000 0.61061  0.91003  0.33143  Biso   1.000  H
  N60      1.0000 0.13080  0.95770  0.10921  Biso   1.000  N
  H460     1.0000 0.22200  0.99307  0.16811  Biso   1.000  H
  H461     1.0000 0.18116  0.97267  0.21900  Biso   1.000  H
  H462     1.0000 0.15292  0.91192  0.33741  Biso   1.000  H
  H463     1.0000 0.20027  0.94472  0.32621  Biso   1.000  H
  H464     1.0000 0.25948  0.91401  0.36508  Biso   1.000  H
  H465     1.0000 0.40247  0.99011  0.11970  Biso   1.000  H
  H466     1.0000 0.29999  0.99558  0.11047  Biso   1.000  H
  C410     1.0000 0.38799  0.01741  0.20462  Biso   1.000  C
  H467     1.0000 0.18805  0.03350  0.78028  Biso   1.000  H
  H468     1.0000 0.28339  0.02346  0.77759  Biso   1.000  H
  C411     1.0000 0.22155  0.05980  0.70271  Biso   1.000  C
  C412     1.0000 0.98339  0.99351  0.78247  Biso   1.000  C
  C413     1.0000 0.82838  0.91700  0.89309  Biso   1.000  C
  C414     1.0000 0.11500  0.97350  0.05525  Biso   1.000  C
  H469     1.0000 0.37262  0.03865  0.18085  Biso   1.000  H
  H470     1.0000 0.45257  0.01624  0.23119  Biso   1.000  H
  H471     1.0000 0.35664  0.01434  0.23915  Biso   1.000  H
  H472     1.0000 0.25620  0.07685  0.73570  Biso   1.000  H
  H473     1.0000 0.16009  0.06732  0.67801  Biso   1.000  H
  H474     1.0000 0.24848  0.05489  0.66588  Biso   1.000  H
  C415     1.0000 0.98138  0.97819  0.85318  Biso   1.000  C
  H475     1.0000 0.92837  0.99341  0.74218  Biso   1.000  H
  C416     1.0000 0.90717  0.93990  0.90571  Biso   1.000  C
  H476     1.0000 0.77874  0.91929  0.84862  Biso   1.000  H
  C417     1.0000 0.04353  0.96560  0.98218  Biso   1.000  C
  H477     1.0000 0.14969  0.99254  0.05810  Biso   1.000  H
  C418     1.0000 0.04758  0.98250  0.92169  Biso   1.000  C
  C419     1.0000 0.91113  0.95690  0.84517  Biso   1.000  C
  C420     1.0000 0.97335  0.94430  0.97417  Biso   1.000  C
  H478     1.0000 0.09557  0.99708  0.92718  Biso   1.000  H
  H479     1.0000 0.86595  0.95393  0.79845  Biso   1.000  H
  H480     1.0000 0.97065  0.93268  0.01550  Biso   1.000  H
