data_image0
_cell_length_a       13.358
_cell_length_b       13.955
_cell_length_c       15.064
_cell_angle_alpha    62.93
_cell_angle_beta     81.83
_cell_angle_gamma    69.41

_symmetry_space_group_name_H-M    "P 1"
_symmetry_int_tables_number       1

loop_
  _symmetry_equiv_pos_as_xyz
  'x, y, z'

loop_
  _atom_site_label
  _atom_site_occupancy
  _atom_site_fract_x
  _atom_site_fract_y
  _atom_site_fract_z
  _atom_site_thermal_displace_type
  _atom_site_B_iso_or_equiv
  _atom_site_type_symbol
  C1       1.0000 0.11058  0.53412  0.70280  Biso   1.000  C
  C2       1.0000 0.15615  0.54695  0.61235  Biso   1.000  C
  C3       1.0000 0.15607  0.54699  0.61227  Biso   1.000  C
  C4       1.0000 0.00948  0.56520  0.71354  Biso   1.000  C
  H1       1.0000 0.15497  0.50131  0.75843  Biso   1.000  H
  C5       1.0000 0.10496  0.57604  0.53718  Biso   1.000  C
  C6       1.0000 0.10503  0.57600  0.53726  Biso   1.000  C
  H2       1.0000 0.22955  0.53360  0.60720  Biso   1.000  H
  H3       1.0000 0.22948  0.53360  0.60720  Biso   1.000  H
  C7       1.0000 0.94925  0.61328  0.63069  Biso   1.000  C
  C8       1.0000 0.94917  0.61328  0.63069  Biso   1.000  C
  C9       1.0000 0.95742  0.56181  0.80563  Biso   1.000  C
  H4       1.0000 0.13780  0.56618  0.48193  Biso   1.000  H
  C10      1.0000 0.99498  0.62405  0.54069  Biso   1.000  C
  C11      1.0000 0.99500  0.62397  0.54069  Biso   1.000  C
  H5       1.0000 0.87510  0.63970  0.63435  Biso   1.000  H
  H6       1.0000 0.87510  0.63974  0.63427  Biso   1.000  H
  H7       1.0000 0.00213  0.57310  0.84314  Biso   1.000  H
  O1       1.0000 0.93921  0.46241  0.86215  Biso   1.000  O
  H8       1.0000 0.88994  0.62363  0.79019  Biso   1.000  H
  O2       1.0000 0.93921  0.46245  0.86208  Biso   1.000  O
  H9       1.0000 0.88987  0.62363  0.79019  Biso   1.000  H
  H10      1.0000 0.95339  0.66307  0.48275  Biso   1.000  H
  H11      1.0000 0.95339  0.66310  0.48268  Biso   1.000  H
  C12      1.0000 0.89761  0.43339  0.95282  Biso   1.000  C
  C13      1.0000 0.80841  0.49939  0.98302  Biso   1.000  C
  C14      1.0000 0.93918  0.32199  0.02635  Biso   1.000  C
  C15      1.0000 0.93918  0.32203  0.02627  Biso   1.000  C
  O3       1.0000 0.75430  0.61139  0.91673  Biso   1.000  O
  C16      1.0000 0.76628  0.45614  0.07459  Biso   1.000  C
  C17      1.0000 0.76631  0.45607  0.07459  Biso   1.000  C
  C18      1.0000 0.89990  0.27973  0.11702  Biso   1.000  C
  C19      1.0000 0.89993  0.27965  0.11702  Biso   1.000  C
  O4       1.0000 0.02892  0.24941  0.00092  Biso   1.000  O
  C20      1.0000 0.77122  0.69594  0.93031  Biso   1.000  C
  C21      1.0000 0.77118  0.69586  0.93031  Biso   1.000  C
  C22      1.0000 0.80940  0.34683  0.14439  Biso   1.000  C
  H12      1.0000 0.70520  0.50322  0.09040  Biso   1.000  H
  H13      1.0000 0.93321  0.20482  0.16221  Biso   1.000  H
  C23      1.0000 0.12529  0.23849  0.02955  Biso   1.000  C
  C24      1.0000 0.12528  0.23852  0.02948  Biso   1.000  C
  N1       1.0000 0.86601  0.67238  0.96371  Biso   1.000  N
  N2       1.0000 0.69061  0.79060  0.90383  Biso   1.000  N
  C25      1.0000 0.76288  0.29802  0.24252  Biso   1.000  C
  N3       1.0000 0.13399  0.32757  0.03634  Biso   1.000  N
  N4       1.0000 0.19925  0.14167  0.04454  Biso   1.000  N
  N5       1.0000 0.13399  0.32761  0.03627  Biso   1.000  N
  N6       1.0000 0.19917  0.14171  0.04447  Biso   1.000  N
  C26      1.0000 0.87468  0.76154  0.97050  Biso   1.000  C
  C27      1.0000 0.87471  0.76147  0.97050  Biso   1.000  C
  C28      1.0000 0.70833  0.86906  0.92024  Biso   1.000  C
  C29      1.0000 0.70833  0.86910  0.92016  Biso   1.000  C
  O5       1.0000 0.79692  0.19862  0.29904  Biso   1.000  O
  O6       1.0000 0.68383  0.37496  0.26183  Biso   1.000  O
  O7       1.0000 0.79687  0.19858  0.29897  Biso   1.000  O
  C30      1.0000 0.22882  0.30409  0.06975  Biso   1.000  C
  C31      1.0000 0.22882  0.30412  0.06967  Biso   1.000  C
  C32      1.0000 0.29174  0.13089  0.07981  Biso   1.000  C
  O8       1.0000 0.97113  0.75062  0.99913  Biso   1.000  O
  N7       1.0000 0.80082  0.85828  0.95551  Biso   1.000  N
  O9       1.0000 0.97105  0.75062  0.99913  Biso   1.000  O
  C33      1.0000 0.62136  0.97525  0.89675  Biso   1.000  C
  C34      1.0000 0.62128  0.97528  0.89668  Biso   1.000  C
  C35      1.0000 0.63989  0.33061  0.36205  Biso   1.000  C
  C36      1.0000 0.63989  0.33065  0.36198  Biso   1.000  C
  O10      1.0000 0.24574  0.38864  0.08332  Biso   1.000  O
  N8       1.0000 0.30944  0.20943  0.09622  Biso   1.000  N
  O11      1.0000 0.24569  0.38856  0.08332  Biso   1.000  O
  N9       1.0000 0.30939  0.20935  0.09622  Biso   1.000  N
  C37      1.0000 0.37871  0.02470  0.10330  Biso   1.000  C
  C38      1.0000 0.06079  0.67803  0.97370  Biso   1.000  C
  C39      1.0000 0.52053  0.98904  0.87110  Biso   1.000  C
  C40      1.0000 0.52049  0.98897  0.87110  Biso   1.000  C
  C41      1.0000 0.63580  0.06912  0.90115  Biso   1.000  C
  C42      1.0000 0.63582  0.06908  0.90107  Biso   1.000  C
  H14      1.0000 0.58362  0.39128  0.37040  Biso   1.000  H
  H15      1.0000 0.69547  0.29893  0.41112  Biso   1.000  H
  H16      1.0000 0.61205  0.27251  0.37003  Biso   1.000  H
  H17      1.0000 0.69550  0.29886  0.41112  Biso   1.000  H
  H18      1.0000 0.61197  0.27251  0.37003  Biso   1.000  H
  C43      1.0000 0.19166  0.50056  0.01703  Biso   1.000  C
  C44      1.0000 0.19159  0.50056  0.01703  Biso   1.000  C
  C45      1.0000 0.36425  0.93091  0.09890  Biso   1.000  C
  C46      1.0000 0.36417  0.93091  0.09890  Biso   1.000  C
  C47      1.0000 0.47951  0.01098  0.12895  Biso   1.000  C
  C48      1.0000 0.47951  0.01102  0.12888  Biso   1.000  C
  C49      1.0000 0.10014  0.72030  0.88303  Biso   1.000  C
  C50      1.0000 0.10007  0.72030  0.88303  Biso   1.000  C
  C51      1.0000 0.10243  0.56663  0.04723  Biso   1.000  C
  C52      1.0000 0.10239  0.56656  0.04723  Biso   1.000  C
  H19      1.0000 0.50781  0.92910  0.86834  Biso   1.000  H
  H20      1.0000 0.50781  0.92914  0.86826  Biso   1.000  H
  C53      1.0000 0.43950  0.08867  0.84985  Biso   1.000  C
  C54      1.0000 0.43950  0.08871  0.84977  Biso   1.000  C
  C55      1.0000 0.55380  0.16610  0.87893  Biso   1.000  C
  H21      1.0000 0.70221  0.06318  0.91934  Biso   1.000  H
  H22      1.0000 0.70221  0.06322  0.91927  Biso   1.000  H
  C56      1.0000 0.23369  0.54388  0.92546  Biso   1.000  C
  C57      1.0000 0.23369  0.54392  0.92538  Biso   1.000  C
  C58      1.0000 0.44617  0.83393  0.12112  Biso   1.000  C
  H23      1.0000 0.29786  0.93677  0.08071  Biso   1.000  H
  C59      1.0000 0.44620  0.83385  0.12112  Biso   1.000  C
  H24      1.0000 0.29778  0.93677  0.08071  Biso   1.000  H
  C60      1.0000 0.56050  0.91128  0.15020  Biso   1.000  C
  H25      1.0000 0.49223  0.07092  0.13171  Biso   1.000  H
  H26      1.0000 0.49216  0.07092  0.13171  Biso   1.000  H
  H27      1.0000 0.06683  0.79521  0.83784  Biso   1.000  H
  C61      1.0000 0.19064  0.65319  0.85566  Biso   1.000  C
  H28      1.0000 0.06676  0.79524  0.83777  Biso   1.000  H
  C62      1.0000 0.19056  0.65323  0.85559  Biso   1.000  C
  O12      1.0000 0.06083  0.53762  0.13790  Biso   1.000  O
  O13      1.0000 0.06076  0.53762  0.13790  Biso   1.000  O
  H29      1.0000 0.37202  0.09681  0.83232  Biso   1.000  H
  C63      1.0000 0.45732  0.17861  0.85432  Biso   1.000  C
  H30      1.0000 0.56517  0.22725  0.88079  Biso   1.000  H
  H31      1.0000 0.56520  0.22717  0.88079  Biso   1.000  H
  H32      1.0000 0.29484  0.49681  0.90965  Biso   1.000  H
  H33      1.0000 0.29476  0.49685  0.90958  Biso   1.000  H
  C64      1.0000 0.54272  0.82142  0.14573  Biso   1.000  C
  H34      1.0000 0.43480  0.77278  0.11926  Biso   1.000  H
  H35      1.0000 0.43480  0.77282  0.11918  Biso   1.000  H
  H36      1.0000 0.62802  0.90322  0.16773  Biso   1.000  H
  C65      1.0000 0.23709  0.70201  0.75753  Biso   1.000  C
  C66      1.0000 0.04263  0.43822  0.19442  Biso   1.000  C
  C67      1.0000 0.36579  0.28861  0.82763  Biso   1.000  C
  C68      1.0000 0.63418  0.71142  0.17243  Biso   1.000  C
  O14      1.0000 0.20312  0.80141  0.70101  Biso   1.000  O
  O15      1.0000 0.31624  0.62499  0.73822  Biso   1.000  O
  O16      1.0000 0.31617  0.62499  0.73822  Biso   1.000  O
  H37      1.0000 0.99791  0.42693  0.15692  Biso   1.000  H
  C69      1.0000 0.99049  0.43483  0.28651  Biso   1.000  C
  H38      1.0000 0.11010  0.37640  0.20986  Biso   1.000  H
  H39      1.0000 0.11010  0.37643  0.20978  Biso   1.000  H
  H40      1.0000 0.38889  0.34286  0.83426  Biso   1.000  H
  H41      1.0000 0.34240  0.31792  0.76014  Biso   1.000  H
  H42      1.0000 0.30764  0.27504  0.87170  Biso   1.000  H
  H43      1.0000 0.38888  0.34290  0.83419  Biso   1.000  H
  H44      1.0000 0.34243  0.31788  0.76007  Biso   1.000  H
  H45      1.0000 0.30756  0.27504  0.87170  Biso   1.000  H
  H46      1.0000 0.61111  0.65709  0.16579  Biso   1.000  H
  H47      1.0000 0.65764  0.68211  0.23991  Biso   1.000  H
  H48      1.0000 0.69240  0.72499  0.12836  Biso   1.000  H
  H49      1.0000 0.65757  0.68211  0.23991  Biso   1.000  H
  H50      1.0000 0.69240  0.72503  0.12828  Biso   1.000  H
  C70      1.0000 0.36008  0.66942  0.63800  Biso   1.000  C
  C71      1.0000 0.88938  0.46591  0.29725  Biso   1.000  C
  C72      1.0000 0.88938  0.46594  0.29718  Biso   1.000  C
  C73      1.0000 0.05082  0.38667  0.36936  Biso   1.000  C
  C74      1.0000 0.05082  0.38671  0.36928  Biso   1.000  C
  H51      1.0000 0.41645  0.60867  0.62965  Biso   1.000  H
  H52      1.0000 0.30450  0.70110  0.58893  Biso   1.000  H
  H53      1.0000 0.38800  0.72752  0.63002  Biso   1.000  H
  H54      1.0000 0.41637  0.60871  0.62957  Biso   1.000  H
  C75      1.0000 0.84392  0.45300  0.38770  Biso   1.000  C
  H55      1.0000 0.84500  0.49872  0.24162  Biso   1.000  H
  H56      1.0000 0.12494  0.36033  0.36571  Biso   1.000  H
  C76      1.0000 0.00499  0.37598  0.45936  Biso   1.000  C
  H57      1.0000 0.12487  0.36033  0.36571  Biso   1.000  H
  C77      1.0000 0.00499  0.37601  0.45929  Biso   1.000  C
  C78      1.0000 0.89501  0.42402  0.46279  Biso   1.000  C
  H58      1.0000 0.77052  0.46635  0.39285  Biso   1.000  H
  H59      1.0000 0.77051  0.46639  0.39277  Biso   1.000  H
  H60      1.0000 0.04660  0.33688  0.51730  Biso   1.000  H
  H61      1.0000 0.86220  0.43377  0.51812  Biso   1.000  H
  C79      1.0000 0.11058  0.53412  0.70280  Biso   1.000  C
  C80      1.0000 0.15615  0.54695  0.61235  Biso   1.000  C
  C81      1.0000 0.15607  0.54699  0.61227  Biso   1.000  C
  C82      1.0000 0.00948  0.56520  0.71354  Biso   1.000  C
  H62      1.0000 0.15497  0.50131  0.75843  Biso   1.000  H
  C83      1.0000 0.10496  0.57604  0.53718  Biso   1.000  C
  C84      1.0000 0.10503  0.57600  0.53726  Biso   1.000  C
  H63      1.0000 0.22955  0.53360  0.60720  Biso   1.000  H
  H64      1.0000 0.22948  0.53360  0.60720  Biso   1.000  H
  C85      1.0000 0.94925  0.61328  0.63069  Biso   1.000  C
  C86      1.0000 0.94917  0.61328  0.63069  Biso   1.000  C
  C87      1.0000 0.95742  0.56181  0.80563  Biso   1.000  C
  H65      1.0000 0.13780  0.56618  0.48193  Biso   1.000  H
  C88      1.0000 0.99498  0.62405  0.54069  Biso   1.000  C
  C89      1.0000 0.99500  0.62397  0.54069  Biso   1.000  C
  H66      1.0000 0.87510  0.63970  0.63435  Biso   1.000  H
  H67      1.0000 0.87510  0.63974  0.63427  Biso   1.000  H
  H68      1.0000 0.00213  0.57310  0.84314  Biso   1.000  H
  O17      1.0000 0.93921  0.46241  0.86215  Biso   1.000  O
  H69      1.0000 0.88994  0.62363  0.79019  Biso   1.000  H
  O18      1.0000 0.93921  0.46245  0.86208  Biso   1.000  O
  H70      1.0000 0.88987  0.62363  0.79019  Biso   1.000  H
  H71      1.0000 0.95339  0.66307  0.48275  Biso   1.000  H
  H72      1.0000 0.95339  0.66310  0.48268  Biso   1.000  H
  C90      1.0000 0.89761  0.43339  0.95282  Biso   1.000  C
  C91      1.0000 0.80841  0.49939  0.98302  Biso   1.000  C
  C92      1.0000 0.93918  0.32199  0.02635  Biso   1.000  C
  C93      1.0000 0.93918  0.32203  0.02627  Biso   1.000  C
  O19      1.0000 0.75430  0.61139  0.91673  Biso   1.000  O
  C94      1.0000 0.76628  0.45614  0.07459  Biso   1.000  C
  C95      1.0000 0.76631  0.45607  0.07459  Biso   1.000  C
  C96      1.0000 0.89990  0.27973  0.11702  Biso   1.000  C
  C97      1.0000 0.89993  0.27965  0.11702  Biso   1.000  C
  O20      1.0000 0.02892  0.24941  0.00092  Biso   1.000  O
  C98      1.0000 0.77122  0.69594  0.93031  Biso   1.000  C
  C99      1.0000 0.77118  0.69586  0.93031  Biso   1.000  C
  C100     1.0000 0.80940  0.34683  0.14439  Biso   1.000  C
  H73      1.0000 0.70520  0.50322  0.09040  Biso   1.000  H
  H74      1.0000 0.93321  0.20482  0.16221  Biso   1.000  H
  C101     1.0000 0.12529  0.23849  0.02955  Biso   1.000  C
  C102     1.0000 0.12528  0.23852  0.02948  Biso   1.000  C
  N10      1.0000 0.86601  0.67238  0.96371  Biso   1.000  N
  N11      1.0000 0.69061  0.79060  0.90383  Biso   1.000  N
  C103     1.0000 0.76288  0.29802  0.24252  Biso   1.000  C
  N12      1.0000 0.13399  0.32757  0.03634  Biso   1.000  N
  N13      1.0000 0.19925  0.14167  0.04454  Biso   1.000  N
  N14      1.0000 0.13399  0.32761  0.03627  Biso   1.000  N
  N15      1.0000 0.19917  0.14171  0.04447  Biso   1.000  N
  C104     1.0000 0.87468  0.76154  0.97050  Biso   1.000  C
  C105     1.0000 0.87471  0.76147  0.97050  Biso   1.000  C
  C106     1.0000 0.70833  0.86906  0.92024  Biso   1.000  C
  C107     1.0000 0.70833  0.86910  0.92016  Biso   1.000  C
  O21      1.0000 0.79692  0.19862  0.29904  Biso   1.000  O
  O22      1.0000 0.68383  0.37496  0.26183  Biso   1.000  O
  O23      1.0000 0.79687  0.19858  0.29897  Biso   1.000  O
  C108     1.0000 0.22882  0.30409  0.06975  Biso   1.000  C
  C109     1.0000 0.22882  0.30412  0.06967  Biso   1.000  C
  C110     1.0000 0.29174  0.13089  0.07981  Biso   1.000  C
  O24      1.0000 0.97113  0.75062  0.99913  Biso   1.000  O
  N16      1.0000 0.80082  0.85828  0.95551  Biso   1.000  N
  O25      1.0000 0.97105  0.75062  0.99913  Biso   1.000  O
  C111     1.0000 0.62136  0.97525  0.89675  Biso   1.000  C
  C112     1.0000 0.62128  0.97528  0.89668  Biso   1.000  C
  C113     1.0000 0.63989  0.33061  0.36205  Biso   1.000  C
  C114     1.0000 0.63989  0.33065  0.36198  Biso   1.000  C
  O26      1.0000 0.24574  0.38864  0.08332  Biso   1.000  O
  N17      1.0000 0.30944  0.20943  0.09622  Biso   1.000  N
  O27      1.0000 0.24569  0.38856  0.08332  Biso   1.000  O
  N18      1.0000 0.30939  0.20935  0.09622  Biso   1.000  N
  C115     1.0000 0.37871  0.02470  0.10330  Biso   1.000  C
  C116     1.0000 0.06079  0.67803  0.97370  Biso   1.000  C
  C117     1.0000 0.52053  0.98904  0.87110  Biso   1.000  C
  C118     1.0000 0.52049  0.98897  0.87110  Biso   1.000  C
  C119     1.0000 0.63580  0.06912  0.90115  Biso   1.000  C
  C120     1.0000 0.63582  0.06908  0.90107  Biso   1.000  C
  H75      1.0000 0.58362  0.39128  0.37040  Biso   1.000  H
  H76      1.0000 0.69547  0.29893  0.41112  Biso   1.000  H
  H77      1.0000 0.61205  0.27251  0.37003  Biso   1.000  H
  H78      1.0000 0.69550  0.29886  0.41112  Biso   1.000  H
  H79      1.0000 0.61197  0.27251  0.37003  Biso   1.000  H
  C121     1.0000 0.19166  0.50056  0.01703  Biso   1.000  C
  C122     1.0000 0.19159  0.50056  0.01703  Biso   1.000  C
  C123     1.0000 0.36425  0.93091  0.09890  Biso   1.000  C
  C124     1.0000 0.36417  0.93091  0.09890  Biso   1.000  C
  C125     1.0000 0.47951  0.01098  0.12895  Biso   1.000  C
  C126     1.0000 0.47951  0.01102  0.12888  Biso   1.000  C
  C127     1.0000 0.10014  0.72030  0.88303  Biso   1.000  C
  C128     1.0000 0.10007  0.72030  0.88303  Biso   1.000  C
  C129     1.0000 0.10243  0.56663  0.04723  Biso   1.000  C
  C130     1.0000 0.10239  0.56656  0.04723  Biso   1.000  C
  H80      1.0000 0.50781  0.92910  0.86834  Biso   1.000  H
  H81      1.0000 0.50781  0.92914  0.86826  Biso   1.000  H
  C131     1.0000 0.43950  0.08867  0.84985  Biso   1.000  C
  C132     1.0000 0.43950  0.08871  0.84977  Biso   1.000  C
  C133     1.0000 0.55380  0.16610  0.87893  Biso   1.000  C
  H82      1.0000 0.70221  0.06318  0.91934  Biso   1.000  H
  H83      1.0000 0.70221  0.06322  0.91927  Biso   1.000  H
  C134     1.0000 0.23369  0.54388  0.92546  Biso   1.000  C
  C135     1.0000 0.23369  0.54392  0.92538  Biso   1.000  C
  C136     1.0000 0.44617  0.83393  0.12112  Biso   1.000  C
  H84      1.0000 0.29786  0.93677  0.08071  Biso   1.000  H
  C137     1.0000 0.44620  0.83385  0.12112  Biso   1.000  C
  H85      1.0000 0.29778  0.93677  0.08071  Biso   1.000  H
  C138     1.0000 0.56050  0.91128  0.15020  Biso   1.000  C
  H86      1.0000 0.49223  0.07092  0.13171  Biso   1.000  H
  H87      1.0000 0.49216  0.07092  0.13171  Biso   1.000  H
  H88      1.0000 0.06683  0.79521  0.83784  Biso   1.000  H
  C139     1.0000 0.19064  0.65319  0.85566  Biso   1.000  C
  H89      1.0000 0.06676  0.79524  0.83777  Biso   1.000  H
  C140     1.0000 0.19056  0.65323  0.85559  Biso   1.000  C
  O28      1.0000 0.06083  0.53762  0.13790  Biso   1.000  O
  O29      1.0000 0.06076  0.53762  0.13790  Biso   1.000  O
  H90      1.0000 0.37202  0.09681  0.83232  Biso   1.000  H
  C141     1.0000 0.45732  0.17861  0.85432  Biso   1.000  C
  H91      1.0000 0.56517  0.22725  0.88079  Biso   1.000  H
  H92      1.0000 0.56520  0.22717  0.88079  Biso   1.000  H
  H93      1.0000 0.29484  0.49681  0.90965  Biso   1.000  H
  H94      1.0000 0.29476  0.49685  0.90958  Biso   1.000  H
  C142     1.0000 0.54272  0.82142  0.14573  Biso   1.000  C
  H95      1.0000 0.43480  0.77278  0.11926  Biso   1.000  H
  H96      1.0000 0.43480  0.77282  0.11918  Biso   1.000  H
  H97      1.0000 0.62802  0.90322  0.16773  Biso   1.000  H
  C143     1.0000 0.23709  0.70201  0.75753  Biso   1.000  C
  C144     1.0000 0.04263  0.43822  0.19442  Biso   1.000  C
  C145     1.0000 0.36579  0.28861  0.82763  Biso   1.000  C
  C146     1.0000 0.63418  0.71142  0.17243  Biso   1.000  C
  O30      1.0000 0.20312  0.80141  0.70101  Biso   1.000  O
  O31      1.0000 0.31624  0.62499  0.73822  Biso   1.000  O
  O32      1.0000 0.31617  0.62499  0.73822  Biso   1.000  O
  H98      1.0000 0.99791  0.42693  0.15692  Biso   1.000  H
  C147     1.0000 0.99049  0.43483  0.28651  Biso   1.000  C
  H99      1.0000 0.11010  0.37640  0.20986  Biso   1.000  H
  H100     1.0000 0.11010  0.37643  0.20978  Biso   1.000  H
  H101     1.0000 0.38889  0.34286  0.83426  Biso   1.000  H
  H102     1.0000 0.34240  0.31792  0.76014  Biso   1.000  H
  H103     1.0000 0.30764  0.27504  0.87170  Biso   1.000  H
  H104     1.0000 0.38888  0.34290  0.83419  Biso   1.000  H
  H105     1.0000 0.34243  0.31788  0.76007  Biso   1.000  H
  H106     1.0000 0.30756  0.27504  0.87170  Biso   1.000  H
  H107     1.0000 0.61111  0.65709  0.16579  Biso   1.000  H
  H108     1.0000 0.65764  0.68211  0.23991  Biso   1.000  H
  H109     1.0000 0.69240  0.72499  0.12836  Biso   1.000  H
  H110     1.0000 0.65757  0.68211  0.23991  Biso   1.000  H
  H111     1.0000 0.69240  0.72503  0.12828  Biso   1.000  H
  C148     1.0000 0.36008  0.66942  0.63800  Biso   1.000  C
  C149     1.0000 0.88938  0.46591  0.29725  Biso   1.000  C
  C150     1.0000 0.88938  0.46594  0.29718  Biso   1.000  C
  C151     1.0000 0.05082  0.38667  0.36936  Biso   1.000  C
  C152     1.0000 0.05082  0.38671  0.36928  Biso   1.000  C
  H112     1.0000 0.30450  0.70110  0.58893  Biso   1.000  H
  H113     1.0000 0.38800  0.72752  0.63002  Biso   1.000  H
  H114     1.0000 0.41645  0.60867  0.62965  Biso   1.000  H
  H115     1.0000 0.41637  0.60871  0.62957  Biso   1.000  H
  C153     1.0000 0.84392  0.45300  0.38770  Biso   1.000  C
  H116     1.0000 0.84500  0.49872  0.24162  Biso   1.000  H
  H117     1.0000 0.12494  0.36033  0.36571  Biso   1.000  H
  C154     1.0000 0.00499  0.37598  0.45936  Biso   1.000  C
  H118     1.0000 0.12487  0.36033  0.36571  Biso   1.000  H
  C155     1.0000 0.00499  0.37601  0.45929  Biso   1.000  C
  C156     1.0000 0.89501  0.42402  0.46279  Biso   1.000  C
  H119     1.0000 0.77052  0.46635  0.39285  Biso   1.000  H
  H120     1.0000 0.77051  0.46639  0.39277  Biso   1.000  H
  H121     1.0000 0.04660  0.33688  0.51730  Biso   1.000  H
  H122     1.0000 0.86220  0.43377  0.51812  Biso   1.000  H
  C157     1.0000 0.11058  0.53412  0.70280  Biso   1.000  C
  C158     1.0000 0.00948  0.56520  0.71354  Biso   1.000  C
  H123     1.0000 0.15497  0.50131  0.75843  Biso   1.000  H
  C159     1.0000 0.15615  0.54695  0.61235  Biso   1.000  C
  C160     1.0000 0.15607  0.54699  0.61227  Biso   1.000  C
  C161     1.0000 0.95742  0.56181  0.80563  Biso   1.000  C
  C162     1.0000 0.94925  0.61328  0.63069  Biso   1.000  C
  C163     1.0000 0.94917  0.61328  0.63069  Biso   1.000  C
  C164     1.0000 0.10503  0.57600  0.53726  Biso   1.000  C
  H124     1.0000 0.22955  0.53360  0.60720  Biso   1.000  H
  C165     1.0000 0.10496  0.57604  0.53718  Biso   1.000  C
  H125     1.0000 0.22948  0.53360  0.60720  Biso   1.000  H
  H126     1.0000 0.00213  0.57310  0.84314  Biso   1.000  H
  O33      1.0000 0.93921  0.46241  0.86215  Biso   1.000  O
  H127     1.0000 0.88994  0.62363  0.79019  Biso   1.000  H
  O34      1.0000 0.93921  0.46245  0.86208  Biso   1.000  O
  H128     1.0000 0.88987  0.62363  0.79019  Biso   1.000  H
  H129     1.0000 0.87510  0.63970  0.63435  Biso   1.000  H
  C166     1.0000 0.99498  0.62405  0.54069  Biso   1.000  C
  H130     1.0000 0.87510  0.63974  0.63427  Biso   1.000  H
  C167     1.0000 0.99500  0.62397  0.54069  Biso   1.000  C
  H131     1.0000 0.13780  0.56618  0.48193  Biso   1.000  H
  C168     1.0000 0.89761  0.43339  0.95282  Biso   1.000  C
  H132     1.0000 0.95339  0.66307  0.48275  Biso   1.000  H
  H133     1.0000 0.95339  0.66310  0.48268  Biso   1.000  H
  C169     1.0000 0.80841  0.49939  0.98302  Biso   1.000  C
  C170     1.0000 0.93918  0.32199  0.02635  Biso   1.000  C
  C171     1.0000 0.93918  0.32203  0.02627  Biso   1.000  C
  O35      1.0000 0.75430  0.61139  0.91673  Biso   1.000  O
  C172     1.0000 0.76628  0.45614  0.07459  Biso   1.000  C
  C173     1.0000 0.76631  0.45607  0.07459  Biso   1.000  C
  C174     1.0000 0.89990  0.27973  0.11702  Biso   1.000  C
  C175     1.0000 0.89993  0.27965  0.11702  Biso   1.000  C
  O36      1.0000 0.02892  0.24941  0.00092  Biso   1.000  O
  C176     1.0000 0.77122  0.69594  0.93031  Biso   1.000  C
  C177     1.0000 0.77118  0.69586  0.93031  Biso   1.000  C
  C178     1.0000 0.80940  0.34683  0.14439  Biso   1.000  C
  H134     1.0000 0.70520  0.50322  0.09040  Biso   1.000  H
  H135     1.0000 0.93321  0.20482  0.16221  Biso   1.000  H
  C179     1.0000 0.12529  0.23849  0.02955  Biso   1.000  C
  C180     1.0000 0.12528  0.23852  0.02948  Biso   1.000  C
  N19      1.0000 0.86601  0.67238  0.96371  Biso   1.000  N
  N20      1.0000 0.69061  0.79060  0.90383  Biso   1.000  N
  C181     1.0000 0.76288  0.29802  0.24252  Biso   1.000  C
  N21      1.0000 0.13399  0.32757  0.03634  Biso   1.000  N
  N22      1.0000 0.19925  0.14167  0.04454  Biso   1.000  N
  N23      1.0000 0.13399  0.32761  0.03627  Biso   1.000  N
  N24      1.0000 0.19917  0.14171  0.04447  Biso   1.000  N
  C182     1.0000 0.87468  0.76154  0.97050  Biso   1.000  C
  C183     1.0000 0.87471  0.76147  0.97050  Biso   1.000  C
  C184     1.0000 0.70833  0.86906  0.92024  Biso   1.000  C
  C185     1.0000 0.70833  0.86910  0.92016  Biso   1.000  C
  O37      1.0000 0.79692  0.19862  0.29904  Biso   1.000  O
  O38      1.0000 0.68383  0.37496  0.26183  Biso   1.000  O
  O39      1.0000 0.79687  0.19858  0.29897  Biso   1.000  O
  C186     1.0000 0.22882  0.30409  0.06975  Biso   1.000  C
  C187     1.0000 0.22882  0.30412  0.06967  Biso   1.000  C
  C188     1.0000 0.29174  0.13089  0.07981  Biso   1.000  C
  O40      1.0000 0.97113  0.75062  0.99913  Biso   1.000  O
  N25      1.0000 0.80082  0.85828  0.95551  Biso   1.000  N
  O41      1.0000 0.97105  0.75062  0.99913  Biso   1.000  O
  C189     1.0000 0.62136  0.97525  0.89675  Biso   1.000  C
  C190     1.0000 0.62128  0.97528  0.89668  Biso   1.000  C
  C191     1.0000 0.63989  0.33061  0.36205  Biso   1.000  C
  C192     1.0000 0.63989  0.33065  0.36198  Biso   1.000  C
  O42      1.0000 0.24574  0.38864  0.08332  Biso   1.000  O
  N26      1.0000 0.30944  0.20943  0.09622  Biso   1.000  N
  O43      1.0000 0.24569  0.38856  0.08332  Biso   1.000  O
  N27      1.0000 0.30939  0.20935  0.09622  Biso   1.000  N
  C193     1.0000 0.37871  0.02470  0.10330  Biso   1.000  C
  C194     1.0000 0.06079  0.67803  0.97370  Biso   1.000  C
  C195     1.0000 0.52053  0.98904  0.87110  Biso   1.000  C
  C196     1.0000 0.52049  0.98897  0.87110  Biso   1.000  C
  C197     1.0000 0.63580  0.06912  0.90115  Biso   1.000  C
  C198     1.0000 0.63582  0.06908  0.90107  Biso   1.000  C
  H136     1.0000 0.58362  0.39128  0.37040  Biso   1.000  H
  H137     1.0000 0.69547  0.29893  0.41112  Biso   1.000  H
  H138     1.0000 0.61205  0.27251  0.37003  Biso   1.000  H
  H139     1.0000 0.69550  0.29886  0.41112  Biso   1.000  H
  H140     1.0000 0.61197  0.27251  0.37003  Biso   1.000  H
  C199     1.0000 0.19166  0.50056  0.01703  Biso   1.000  C
  C200     1.0000 0.19159  0.50056  0.01703  Biso   1.000  C
  C201     1.0000 0.36425  0.93091  0.09890  Biso   1.000  C
  C202     1.0000 0.36417  0.93091  0.09890  Biso   1.000  C
  C203     1.0000 0.47951  0.01098  0.12895  Biso   1.000  C
  C204     1.0000 0.47951  0.01102  0.12888  Biso   1.000  C
  C205     1.0000 0.10014  0.72030  0.88303  Biso   1.000  C
  C206     1.0000 0.10007  0.72030  0.88303  Biso   1.000  C
  C207     1.0000 0.10243  0.56663  0.04723  Biso   1.000  C
  C208     1.0000 0.10239  0.56656  0.04723  Biso   1.000  C
  H141     1.0000 0.50781  0.92910  0.86834  Biso   1.000  H
  H142     1.0000 0.50781  0.92914  0.86826  Biso   1.000  H
  C209     1.0000 0.43950  0.08867  0.84985  Biso   1.000  C
  C210     1.0000 0.43950  0.08871  0.84977  Biso   1.000  C
  C211     1.0000 0.55380  0.16610  0.87893  Biso   1.000  C
  H143     1.0000 0.70221  0.06318  0.91934  Biso   1.000  H
  H144     1.0000 0.70221  0.06322  0.91927  Biso   1.000  H
  C212     1.0000 0.23369  0.54388  0.92546  Biso   1.000  C
  C213     1.0000 0.23369  0.54392  0.92538  Biso   1.000  C
  C214     1.0000 0.44617  0.83393  0.12112  Biso   1.000  C
  H145     1.0000 0.29786  0.93677  0.08071  Biso   1.000  H
  C215     1.0000 0.44620  0.83385  0.12112  Biso   1.000  C
  H146     1.0000 0.29778  0.93677  0.08071  Biso   1.000  H
  C216     1.0000 0.56050  0.91128  0.15020  Biso   1.000  C
  H147     1.0000 0.49223  0.07092  0.13171  Biso   1.000  H
  H148     1.0000 0.49216  0.07092  0.13171  Biso   1.000  H
  H149     1.0000 0.06683  0.79521  0.83784  Biso   1.000  H
  C217     1.0000 0.19064  0.65319  0.85566  Biso   1.000  C
  H150     1.0000 0.06676  0.79524  0.83777  Biso   1.000  H
  C218     1.0000 0.19056  0.65323  0.85559  Biso   1.000  C
  O44      1.0000 0.06083  0.53762  0.13790  Biso   1.000  O
  O45      1.0000 0.06076  0.53762  0.13790  Biso   1.000  O
  H151     1.0000 0.37202  0.09681  0.83232  Biso   1.000  H
  C219     1.0000 0.45732  0.17861  0.85432  Biso   1.000  C
  H152     1.0000 0.56517  0.22725  0.88079  Biso   1.000  H
  H153     1.0000 0.56520  0.22717  0.88079  Biso   1.000  H
  H154     1.0000 0.29484  0.49681  0.90965  Biso   1.000  H
  H155     1.0000 0.29476  0.49685  0.90958  Biso   1.000  H
  C220     1.0000 0.54272  0.82142  0.14573  Biso   1.000  C
  H156     1.0000 0.43480  0.77278  0.11926  Biso   1.000  H
  H157     1.0000 0.43480  0.77282  0.11918  Biso   1.000  H
  H158     1.0000 0.62802  0.90322  0.16773  Biso   1.000  H
  C221     1.0000 0.23709  0.70201  0.75753  Biso   1.000  C
  C222     1.0000 0.04263  0.43822  0.19442  Biso   1.000  C
  C223     1.0000 0.36579  0.28861  0.82763  Biso   1.000  C
  C224     1.0000 0.63418  0.71142  0.17243  Biso   1.000  C
  O46      1.0000 0.20312  0.80141  0.70101  Biso   1.000  O
  O47      1.0000 0.31624  0.62499  0.73822  Biso   1.000  O
  O48      1.0000 0.31617  0.62499  0.73822  Biso   1.000  O
  H159     1.0000 0.99791  0.42693  0.15692  Biso   1.000  H
  C225     1.0000 0.99049  0.43483  0.28651  Biso   1.000  C
  H160     1.0000 0.11010  0.37640  0.20986  Biso   1.000  H
  H161     1.0000 0.11010  0.37643  0.20978  Biso   1.000  H
  H162     1.0000 0.38889  0.34286  0.83426  Biso   1.000  H
  H163     1.0000 0.34240  0.31792  0.76014  Biso   1.000  H
  H164     1.0000 0.30764  0.27504  0.87170  Biso   1.000  H
  H165     1.0000 0.38888  0.34290  0.83419  Biso   1.000  H
  H166     1.0000 0.34243  0.31788  0.76007  Biso   1.000  H
  H167     1.0000 0.30756  0.27504  0.87170  Biso   1.000  H
  H168     1.0000 0.61111  0.65709  0.16579  Biso   1.000  H
  H169     1.0000 0.65764  0.68211  0.23991  Biso   1.000  H
  H170     1.0000 0.69240  0.72499  0.12836  Biso   1.000  H
  H171     1.0000 0.65757  0.68211  0.23991  Biso   1.000  H
  H172     1.0000 0.69240  0.72503  0.12828  Biso   1.000  H
  C226     1.0000 0.36008  0.66942  0.63800  Biso   1.000  C
  C227     1.0000 0.88938  0.46591  0.29725  Biso   1.000  C
  C228     1.0000 0.88938  0.46594  0.29718  Biso   1.000  C
  C229     1.0000 0.05082  0.38667  0.36936  Biso   1.000  C
  C230     1.0000 0.05082  0.38671  0.36928  Biso   1.000  C
  H173     1.0000 0.30450  0.70110  0.58893  Biso   1.000  H
  H174     1.0000 0.38800  0.72752  0.63002  Biso   1.000  H
  H175     1.0000 0.41645  0.60867  0.62965  Biso   1.000  H
  H176     1.0000 0.41637  0.60871  0.62957  Biso   1.000  H
  C231     1.0000 0.84392  0.45300  0.38770  Biso   1.000  C
  H177     1.0000 0.84500  0.49872  0.24162  Biso   1.000  H
  H178     1.0000 0.12494  0.36033  0.36571  Biso   1.000  H
  C232     1.0000 0.00499  0.37598  0.45936  Biso   1.000  C
  H179     1.0000 0.12487  0.36033  0.36571  Biso   1.000  H
  C233     1.0000 0.00499  0.37601  0.45929  Biso   1.000  C
  C234     1.0000 0.89501  0.42402  0.46279  Biso   1.000  C
  H180     1.0000 0.77052  0.46635  0.39285  Biso   1.000  H
  H181     1.0000 0.77051  0.46639  0.39277  Biso   1.000  H
  H182     1.0000 0.04660  0.33688  0.51730  Biso   1.000  H
  H183     1.0000 0.86220  0.43377  0.51812  Biso   1.000  H
  C235     1.0000 0.11058  0.53412  0.70280  Biso   1.000  C
  C236     1.0000 0.00948  0.56520  0.71354  Biso   1.000  C
  H184     1.0000 0.15497  0.50131  0.75843  Biso   1.000  H
  C237     1.0000 0.15615  0.54695  0.61235  Biso   1.000  C
  C238     1.0000 0.15607  0.54699  0.61227  Biso   1.000  C
  C239     1.0000 0.95742  0.56181  0.80563  Biso   1.000  C
  C240     1.0000 0.94925  0.61328  0.63069  Biso   1.000  C
  C241     1.0000 0.94917  0.61328  0.63069  Biso   1.000  C
  C242     1.0000 0.10503  0.57600  0.53726  Biso   1.000  C
  H185     1.0000 0.22955  0.53360  0.60720  Biso   1.000  H
  C243     1.0000 0.10496  0.57604  0.53718  Biso   1.000  C
  H186     1.0000 0.22948  0.53360  0.60720  Biso   1.000  H
  H187     1.0000 0.00213  0.57310  0.84314  Biso   1.000  H
  O49      1.0000 0.93921  0.46241  0.86215  Biso   1.000  O
  H188     1.0000 0.88994  0.62363  0.79019  Biso   1.000  H
  O50      1.0000 0.93921  0.46245  0.86208  Biso   1.000  O
  H189     1.0000 0.88987  0.62363  0.79019  Biso   1.000  H
  H190     1.0000 0.87510  0.63970  0.63435  Biso   1.000  H
  C244     1.0000 0.99498  0.62405  0.54069  Biso   1.000  C
  H191     1.0000 0.87510  0.63974  0.63427  Biso   1.000  H
  C245     1.0000 0.99500  0.62397  0.54069  Biso   1.000  C
  H192     1.0000 0.13780  0.56618  0.48193  Biso   1.000  H
  C246     1.0000 0.89761  0.43339  0.95282  Biso   1.000  C
  H193     1.0000 0.95339  0.66307  0.48275  Biso   1.000  H
  H194     1.0000 0.95339  0.66310  0.48268  Biso   1.000  H
  C247     1.0000 0.80841  0.49939  0.98302  Biso   1.000  C
  C248     1.0000 0.93918  0.32199  0.02635  Biso   1.000  C
  C249     1.0000 0.93918  0.32203  0.02627  Biso   1.000  C
  O51      1.0000 0.75430  0.61139  0.91673  Biso   1.000  O
  C250     1.0000 0.76628  0.45614  0.07459  Biso   1.000  C
  C251     1.0000 0.76631  0.45607  0.07459  Biso   1.000  C
  C252     1.0000 0.89990  0.27973  0.11702  Biso   1.000  C
  C253     1.0000 0.89993  0.27965  0.11702  Biso   1.000  C
  O52      1.0000 0.02892  0.24941  0.00092  Biso   1.000  O
  C254     1.0000 0.77122  0.69594  0.93031  Biso   1.000  C
  C255     1.0000 0.77118  0.69586  0.93031  Biso   1.000  C
  C256     1.0000 0.80940  0.34683  0.14439  Biso   1.000  C
  H195     1.0000 0.70520  0.50322  0.09040  Biso   1.000  H
  H196     1.0000 0.93321  0.20482  0.16221  Biso   1.000  H
  C257     1.0000 0.12529  0.23849  0.02955  Biso   1.000  C
  C258     1.0000 0.12528  0.23852  0.02948  Biso   1.000  C
  N28      1.0000 0.86601  0.67238  0.96371  Biso   1.000  N
  N29      1.0000 0.69061  0.79060  0.90383  Biso   1.000  N
  C259     1.0000 0.76288  0.29802  0.24252  Biso   1.000  C
  N30      1.0000 0.13399  0.32757  0.03634  Biso   1.000  N
  N31      1.0000 0.19925  0.14167  0.04454  Biso   1.000  N
  N32      1.0000 0.13399  0.32761  0.03627  Biso   1.000  N
  N33      1.0000 0.19917  0.14171  0.04447  Biso   1.000  N
  C260     1.0000 0.87468  0.76154  0.97050  Biso   1.000  C
  C261     1.0000 0.87471  0.76147  0.97050  Biso   1.000  C
  C262     1.0000 0.70833  0.86906  0.92024  Biso   1.000  C
  C263     1.0000 0.70833  0.86910  0.92016  Biso   1.000  C
  O53      1.0000 0.79692  0.19862  0.29904  Biso   1.000  O
  O54      1.0000 0.68383  0.37496  0.26183  Biso   1.000  O
  O55      1.0000 0.79687  0.19858  0.29897  Biso   1.000  O
  C264     1.0000 0.22882  0.30409  0.06975  Biso   1.000  C
  C265     1.0000 0.22882  0.30412  0.06967  Biso   1.000  C
  C266     1.0000 0.29174  0.13089  0.07981  Biso   1.000  C
  O56      1.0000 0.97113  0.75062  0.99913  Biso   1.000  O
  N34      1.0000 0.80082  0.85828  0.95551  Biso   1.000  N
  O57      1.0000 0.97105  0.75062  0.99913  Biso   1.000  O
  C267     1.0000 0.62136  0.97525  0.89675  Biso   1.000  C
  C268     1.0000 0.62128  0.97528  0.89668  Biso   1.000  C
  C269     1.0000 0.63989  0.33061  0.36205  Biso   1.000  C
  C270     1.0000 0.63989  0.33065  0.36198  Biso   1.000  C
  O58      1.0000 0.24574  0.38864  0.08332  Biso   1.000  O
  N35      1.0000 0.30944  0.20943  0.09622  Biso   1.000  N
  O59      1.0000 0.24569  0.38856  0.08332  Biso   1.000  O
  N36      1.0000 0.30939  0.20935  0.09622  Biso   1.000  N
  C271     1.0000 0.37871  0.02470  0.10330  Biso   1.000  C
  C272     1.0000 0.06079  0.67803  0.97370  Biso   1.000  C
  C273     1.0000 0.52053  0.98904  0.87110  Biso   1.000  C
  C274     1.0000 0.52049  0.98897  0.87110  Biso   1.000  C
  C275     1.0000 0.63580  0.06912  0.90115  Biso   1.000  C
  C276     1.0000 0.63582  0.06908  0.90107  Biso   1.000  C
  H197     1.0000 0.58362  0.39128  0.37040  Biso   1.000  H
  H198     1.0000 0.69547  0.29893  0.41112  Biso   1.000  H
  H199     1.0000 0.61205  0.27251  0.37003  Biso   1.000  H
  H200     1.0000 0.69550  0.29886  0.41112  Biso   1.000  H
  H201     1.0000 0.61197  0.27251  0.37003  Biso   1.000  H
  C277     1.0000 0.19166  0.50056  0.01703  Biso   1.000  C
  C278     1.0000 0.19159  0.50056  0.01703  Biso   1.000  C
  C279     1.0000 0.36425  0.93091  0.09890  Biso   1.000  C
  C280     1.0000 0.36417  0.93091  0.09890  Biso   1.000  C
  C281     1.0000 0.47951  0.01098  0.12895  Biso   1.000  C
  C282     1.0000 0.47951  0.01102  0.12888  Biso   1.000  C
  C283     1.0000 0.10014  0.72030  0.88303  Biso   1.000  C
  C284     1.0000 0.10007  0.72030  0.88303  Biso   1.000  C
  C285     1.0000 0.10243  0.56663  0.04723  Biso   1.000  C
  C286     1.0000 0.10239  0.56656  0.04723  Biso   1.000  C
  H202     1.0000 0.50781  0.92910  0.86834  Biso   1.000  H
  H203     1.0000 0.50781  0.92914  0.86826  Biso   1.000  H
  C287     1.0000 0.43950  0.08867  0.84985  Biso   1.000  C
  C288     1.0000 0.43950  0.08871  0.84977  Biso   1.000  C
  C289     1.0000 0.55380  0.16610  0.87893  Biso   1.000  C
  H204     1.0000 0.70221  0.06318  0.91934  Biso   1.000  H
  H205     1.0000 0.70221  0.06322  0.91927  Biso   1.000  H
  C290     1.0000 0.23369  0.54388  0.92546  Biso   1.000  C
  C291     1.0000 0.23369  0.54392  0.92538  Biso   1.000  C
  C292     1.0000 0.44617  0.83393  0.12112  Biso   1.000  C
  H206     1.0000 0.29786  0.93677  0.08071  Biso   1.000  H
  C293     1.0000 0.44620  0.83385  0.12112  Biso   1.000  C
  H207     1.0000 0.29778  0.93677  0.08071  Biso   1.000  H
  C294     1.0000 0.56050  0.91128  0.15020  Biso   1.000  C
  H208     1.0000 0.49223  0.07092  0.13171  Biso   1.000  H
  H209     1.0000 0.49216  0.07092  0.13171  Biso   1.000  H
  H210     1.0000 0.06683  0.79521  0.83784  Biso   1.000  H
  C295     1.0000 0.19064  0.65319  0.85566  Biso   1.000  C
  H211     1.0000 0.06676  0.79524  0.83777  Biso   1.000  H
  C296     1.0000 0.19056  0.65323  0.85559  Biso   1.000  C
  O60      1.0000 0.06083  0.53762  0.13790  Biso   1.000  O
  O61      1.0000 0.06076  0.53762  0.13790  Biso   1.000  O
  H212     1.0000 0.37202  0.09681  0.83232  Biso   1.000  H
  C297     1.0000 0.45732  0.17861  0.85432  Biso   1.000  C
  H213     1.0000 0.56517  0.22725  0.88079  Biso   1.000  H
  H214     1.0000 0.56520  0.22717  0.88079  Biso   1.000  H
  H215     1.0000 0.29484  0.49681  0.90965  Biso   1.000  H
  H216     1.0000 0.29476  0.49685  0.90958  Biso   1.000  H
  C298     1.0000 0.54272  0.82142  0.14573  Biso   1.000  C
  H217     1.0000 0.43480  0.77278  0.11926  Biso   1.000  H
  H218     1.0000 0.43480  0.77282  0.11918  Biso   1.000  H
  H219     1.0000 0.62802  0.90322  0.16773  Biso   1.000  H
  C299     1.0000 0.23709  0.70201  0.75753  Biso   1.000  C
  C300     1.0000 0.04263  0.43822  0.19442  Biso   1.000  C
  C301     1.0000 0.36579  0.28861  0.82763  Biso   1.000  C
  C302     1.0000 0.63418  0.71142  0.17243  Biso   1.000  C
  O62      1.0000 0.20312  0.80141  0.70101  Biso   1.000  O
  O63      1.0000 0.31624  0.62499  0.73822  Biso   1.000  O
  O64      1.0000 0.31617  0.62499  0.73822  Biso   1.000  O
  H220     1.0000 0.99791  0.42693  0.15692  Biso   1.000  H
  C303     1.0000 0.99049  0.43483  0.28651  Biso   1.000  C
  H221     1.0000 0.11010  0.37640  0.20986  Biso   1.000  H
  H222     1.0000 0.11010  0.37643  0.20978  Biso   1.000  H
  H223     1.0000 0.38889  0.34286  0.83426  Biso   1.000  H
  H224     1.0000 0.34240  0.31792  0.76014  Biso   1.000  H
  H225     1.0000 0.30764  0.27504  0.87170  Biso   1.000  H
  H226     1.0000 0.38888  0.34290  0.83419  Biso   1.000  H
  H227     1.0000 0.34243  0.31788  0.76007  Biso   1.000  H
  H228     1.0000 0.30756  0.27504  0.87170  Biso   1.000  H
  H229     1.0000 0.61111  0.65709  0.16579  Biso   1.000  H
  H230     1.0000 0.65764  0.68211  0.23991  Biso   1.000  H
  H231     1.0000 0.69240  0.72499  0.12836  Biso   1.000  H
  H232     1.0000 0.65757  0.68211  0.23991  Biso   1.000  H
  H233     1.0000 0.69240  0.72503  0.12828  Biso   1.000  H
  C304     1.0000 0.36008  0.66942  0.63800  Biso   1.000  C
  C305     1.0000 0.88938  0.46591  0.29725  Biso   1.000  C
  C306     1.0000 0.88938  0.46594  0.29718  Biso   1.000  C
  C307     1.0000 0.05082  0.38667  0.36936  Biso   1.000  C
  C308     1.0000 0.05082  0.38671  0.36928  Biso   1.000  C
  H234     1.0000 0.30450  0.70110  0.58893  Biso   1.000  H
  H235     1.0000 0.38800  0.72752  0.63002  Biso   1.000  H
  H236     1.0000 0.41645  0.60867  0.62965  Biso   1.000  H
  H237     1.0000 0.41637  0.60871  0.62957  Biso   1.000  H
  C309     1.0000 0.84392  0.45300  0.38770  Biso   1.000  C
  H238     1.0000 0.84500  0.49872  0.24162  Biso   1.000  H
  H239     1.0000 0.12494  0.36033  0.36571  Biso   1.000  H
  C310     1.0000 0.00499  0.37598  0.45936  Biso   1.000  C
  H240     1.0000 0.12487  0.36033  0.36571  Biso   1.000  H
  C311     1.0000 0.00499  0.37601  0.45929  Biso   1.000  C
  C312     1.0000 0.89501  0.42402  0.46279  Biso   1.000  C
  H241     1.0000 0.77052  0.46635  0.39285  Biso   1.000  H
  H242     1.0000 0.77051  0.46639  0.39277  Biso   1.000  H
  H243     1.0000 0.04660  0.33688  0.51730  Biso   1.000  H
  H244     1.0000 0.86220  0.43377  0.51812  Biso   1.000  H
  C313     1.0000 0.41195  0.23908  0.56187  Biso   1.000  C
  O65      1.0000 0.43753  0.18155  0.51593  Biso   1.000  O
  O66      1.0000 0.43745  0.18155  0.51593  Biso   1.000  O
  H245     1.0000 0.35992  0.31166  0.52212  Biso   1.000  H
  H246     1.0000 0.37761  0.20106  0.62271  Biso   1.000  H
  C314     1.0000 0.50280  0.26021  0.58841  Biso   1.000  C
  C315     1.0000 0.50282  0.26013  0.58841  Biso   1.000  C
  C316     1.0000 0.36210  0.15553  0.48387  Biso   1.000  C
  C317     1.0000 0.36212  0.15545  0.48387  Biso   1.000  C
  C318     1.0000 0.41203  0.23908  0.56187  Biso   1.000  C
  C319     1.0000 0.59160  0.18001  0.61474  Biso   1.000  C
  C320     1.0000 0.49563  0.35662  0.58588  Biso   1.000  C
  C321     1.0000 0.59163  0.17994  0.61474  Biso   1.000  C
  C322     1.0000 0.49558  0.35654  0.58588  Biso   1.000  C
  C323     1.0000 0.35752  0.18793  0.38350  Biso   1.000  C
  C324     1.0000 0.35747  0.18785  0.38350  Biso   1.000  C
  C325     1.0000 0.29981  0.09356  0.54561  Biso   1.000  C
  H247     1.0000 0.59963  0.11470  0.60832  Biso   1.000  H
  C326     1.0000 0.67497  0.18502  0.65150  Biso   1.000  C
  H248     1.0000 0.59958  0.11463  0.60832  Biso   1.000  H
  C327     1.0000 0.67500  0.18494  0.65150  Biso   1.000  C
  C328     1.0000 0.59201  0.36823  0.61369  Biso   1.000  C
  H249     1.0000 0.43179  0.41706  0.56724  Biso   1.000  H
  C329     1.0000 0.59196  0.36816  0.61369  Biso   1.000  C
  C330     1.0000 0.28864  0.16228  0.34562  Biso   1.000  C
  O67      1.0000 0.41776  0.25504  0.31758  Biso   1.000  O
  C331     1.0000 0.28872  0.16228  0.34562  Biso   1.000  C
  O68      1.0000 0.41779  0.25496  0.31758  Biso   1.000  O
  C332     1.0000 0.23222  0.06520  0.50781  Biso   1.000  C
  C333     1.0000 0.23214  0.06520  0.50781  Biso   1.000  C
  O69      1.0000 0.30111  0.05849  0.64919  Biso   1.000  O
  H250     1.0000 0.73403  0.12059  0.68058  Biso   1.000  H
  C334     1.0000 0.67199  0.28215  0.64553  Biso   1.000  C
  H251     1.0000 0.73396  0.12059  0.68058  Biso   1.000  H
  H252     1.0000 0.59272  0.43761  0.60720  Biso   1.000  H
  H253     1.0000 0.59267  0.43753  0.60720  Biso   1.000  H
  C335     1.0000 0.22743  0.10011  0.40669  Biso   1.000  C
  H254     1.0000 0.28388  0.18783  0.27709  Biso   1.000  H
  C336     1.0000 0.22739  0.10004  0.40669  Biso   1.000  C
  H255     1.0000 0.28391  0.18775  0.27709  Biso   1.000  H
  C337     1.0000 0.50329  0.20019  0.28008  Biso   1.000  C
  H256     1.0000 0.19016  0.02274  0.55038  Biso   1.000  H
  H257     1.0000 0.19019  0.02267  0.55038  Biso   1.000  H
  C338     1.0000 0.36227  0.95133  0.70377  Biso   1.000  C
  C339     1.0000 0.36230  0.95126  0.70377  Biso   1.000  C
  H258     1.0000 0.73155  0.28696  0.66596  Biso   1.000  H
  H259     1.0000 0.73158  0.28688  0.66596  Biso   1.000  H
  C340     1.0000 0.15548  0.07653  0.36039  Biso   1.000  C
  C341     1.0000 0.15551  0.07645  0.36039  Biso   1.000  C
  N37      1.0000 0.55502  0.09351  0.34062  Biso   1.000  N
  N38      1.0000 0.52419  0.26079  0.18963  Biso   1.000  N
  N39      1.0000 0.55497  0.09343  0.34062  Biso   1.000  N
  N40      1.0000 0.44500  0.90649  0.65940  Biso   1.000  N
  N41      1.0000 0.33414  0.90629  0.79526  Biso   1.000  N
  N42      1.0000 0.33407  0.90629  0.79526  Biso   1.000  N
  O70      1.0000 0.13607  0.12029  0.27329  Biso   1.000  O
  O71      1.0000 0.11188  0.99823  0.42847  Biso   1.000  O
  O72      1.0000 0.11190  0.99815  0.42847  Biso   1.000  O
  C342     1.0000 0.63767  0.04870  0.29618  Biso   1.000  C
  C343     1.0000 0.60801  0.20205  0.15257  Biso   1.000  C
  C344     1.0000 0.60796  0.20197  0.15257  Biso   1.000  C
  C345     1.0000 0.49672  0.79984  0.71988  Biso   1.000  C
  C346     1.0000 0.49668  0.79977  0.71988  Biso   1.000  C
  C347     1.0000 0.39200  0.79799  0.84739  Biso   1.000  C
  C348     1.0000 0.03900  0.96211  0.39193  Biso   1.000  C
  C349     1.0000 0.03902  0.96204  0.39193  Biso   1.000  C
  N43      1.0000 0.66590  0.09367  0.20469  Biso   1.000  N
  O73      1.0000 0.69890  0.94155  0.35077  Biso   1.000  O
  O74      1.0000 0.69886  0.94147  0.35077  Biso   1.000  O
  C350     1.0000 0.63409  0.26585  0.04817  Biso   1.000  C
  C351     1.0000 0.63412  0.26578  0.04817  Biso   1.000  C
  O75      1.0000 0.58218  0.74500  0.68237  Biso   1.000  O
  N44      1.0000 0.47582  0.73921  0.81040  Biso   1.000  N
  N45      1.0000 0.47577  0.73913  0.81040  Biso   1.000  N
  C352     1.0000 0.36592  0.73418  0.95178  Biso   1.000  C
  C353     1.0000 0.36585  0.73418  0.95178  Biso   1.000  C
  H260     1.0000 0.97796  0.02693  0.35792  Biso   1.000  H
  H261     1.0000 0.97799  0.02685  0.35792  Biso   1.000  H
  H262     1.0000 0.01547  0.90546  0.44763  Biso   1.000  H
  H263     1.0000 0.07669  0.93093  0.34689  Biso   1.000  H
  H264     1.0000 0.07671  0.93085  0.34689  Biso   1.000  H
  C354     1.0000 0.70024  0.90636  0.45441  Biso   1.000  C
  C355     1.0000 0.70016  0.90636  0.45441  Biso   1.000  C
  C356     1.0000 0.72924  0.22197  0.00910  Biso   1.000  C
  C357     1.0000 0.72916  0.22197  0.00910  Biso   1.000  C
  C358     1.0000 0.56471  0.37110  0.98896  Biso   1.000  C
  C359     1.0000 0.64250  0.81207  0.61652  Biso   1.000  C
  C360     1.0000 0.27080  0.77795  0.99093  Biso   1.000  C
  C361     1.0000 0.43531  0.62893  0.01099  Biso   1.000  C
  C362     1.0000 0.43526  0.62885  0.01099  Biso   1.000  C
  C363     1.0000 0.63792  0.84451  0.51608  Biso   1.000  C
  C364     1.0000 0.76780  0.93480  0.49222  Biso   1.000  C
  C365     1.0000 0.63784  0.84451  0.51608  Biso   1.000  C
  C366     1.0000 0.76783  0.93473  0.49222  Biso   1.000  C
  H265     1.0000 0.77587  0.15030  0.04780  Biso   1.000  H
  C367     1.0000 0.75511  0.28342  0.91373  Biso   1.000  C
  C368     1.0000 0.75507  0.28334  0.91373  Biso   1.000  C
  H266     1.0000 0.49858  0.40027  0.01290  Biso   1.000  H
  C369     1.0000 0.59402  0.43271  0.89419  Biso   1.000  C
  C370     1.0000 0.59397  0.43264  0.89419  Biso   1.000  C
  C371     1.0000 0.71130  0.83772  0.65441  Biso   1.000  C
  C372     1.0000 0.71133  0.83764  0.65441  Biso   1.000  C
  H267     1.0000 0.22407  0.84970  0.95223  Biso   1.000  H
  H268     1.0000 0.22410  0.84962  0.95223  Biso   1.000  H
  C373     1.0000 0.24490  0.71658  0.08630  Biso   1.000  C
  H269     1.0000 0.50139  0.59965  0.98713  Biso   1.000  H
  C374     1.0000 0.40600  0.56728  0.10584  Biso   1.000  C
  O76      1.0000 0.56251  0.81837  0.48409  Biso   1.000  O
  H270     1.0000 0.80978  0.97729  0.44957  Biso   1.000  H
  C375     1.0000 0.77258  0.89988  0.59333  Biso   1.000  C
  C376     1.0000 0.68858  0.39212  0.85497  Biso   1.000  C
  H271     1.0000 0.81846  0.25193  0.88770  Biso   1.000  H
  H272     1.0000 0.81849  0.25185  0.88770  Biso   1.000  H
  H273     1.0000 0.54758  0.50469  0.85549  Biso   1.000  H
  H274     1.0000 0.71614  0.81217  0.72293  Biso   1.000  H
  H275     1.0000 0.71606  0.81217  0.72293  Biso   1.000  H
  C377     1.0000 0.31143  0.60792  0.14499  Biso   1.000  C
  H276     1.0000 0.18148  0.74807  0.11232  Biso   1.000  H
  C378     1.0000 0.31138  0.60784  0.14499  Biso   1.000  C
  H277     1.0000 0.45236  0.49534  0.14446  Biso   1.000  H
  H278     1.0000 0.45239  0.49527  0.14446  Biso   1.000  H
  C379     1.0000 0.58802  0.76088  0.43808  Biso   1.000  C
  C380     1.0000 0.84453  0.92351  0.63957  Biso   1.000  C
  C381     1.0000 0.84446  0.92351  0.63957  Biso   1.000  C
  C382     1.0000 0.71963  0.46139  0.75281  Biso   1.000  C
  C383     1.0000 0.71956  0.46139  0.75281  Biso   1.000  C
  C384     1.0000 0.28038  0.53861  0.24722  Biso   1.000  C
  C385     1.0000 0.28041  0.53853  0.24722  Biso   1.000  C
  H279     1.0000 0.64013  0.68826  0.47790  Biso   1.000  H
  H280     1.0000 0.62243  0.79886  0.37731  Biso   1.000  H
  C386     1.0000 0.49722  0.73979  0.41161  Biso   1.000  C
  H281     1.0000 0.64005  0.68826  0.47790  Biso   1.000  H
  H282     1.0000 0.62235  0.79886  0.37731  Biso   1.000  H
  C387     1.0000 0.49714  0.73979  0.41161  Biso   1.000  C
  O77      1.0000 0.88814  0.00180  0.57149  Biso   1.000  O
  O78      1.0000 0.88806  0.00180  0.57149  Biso   1.000  O
  O79      1.0000 0.86387  0.87970  0.72674  Biso   1.000  O
  O80      1.0000 0.86390  0.87963  0.72674  Biso   1.000  O
  H283     1.0000 0.66384  0.53316  0.72343  Biso   1.000  H
  H284     1.0000 0.73022  0.42159  0.71262  Biso   1.000  H
  H285     1.0000 0.78470  0.47385  0.75684  Biso   1.000  H
  H286     1.0000 0.66376  0.53316  0.72343  Biso   1.000  H
  H287     1.0000 0.33621  0.46676  0.27660  Biso   1.000  H
  H288     1.0000 0.26980  0.57841  0.28741  Biso   1.000  H
  H289     1.0000 0.21534  0.52607  0.24319  Biso   1.000  H
  H290     1.0000 0.26983  0.57833  0.28741  Biso   1.000  H
  H291     1.0000 0.21527  0.52607  0.24319  Biso   1.000  H
  C388     1.0000 0.40842  0.81998  0.38529  Biso   1.000  C
  C389     1.0000 0.50439  0.64341  0.41407  Biso   1.000  C
  C390     1.0000 0.96102  0.03788  0.60810  Biso   1.000  C
  H292     1.0000 0.40039  0.88529  0.39170  Biso   1.000  H
  C391     1.0000 0.32497  0.81498  0.34853  Biso   1.000  C
  C392     1.0000 0.40800  0.63176  0.38633  Biso   1.000  C
  H293     1.0000 0.56822  0.58294  0.43279  Biso   1.000  H
  H294     1.0000 0.56817  0.58286  0.43279  Biso   1.000  H
  H295     1.0000 0.98447  0.09454  0.55240  Biso   1.000  H
  H296     1.0000 0.92333  0.06911  0.65306  Biso   1.000  H
  H297     1.0000 0.98449  0.09446  0.55240  Biso   1.000  H
  H298     1.0000 0.92325  0.06911  0.65306  Biso   1.000  H
  H299     1.0000 0.02198  0.97307  0.64210  Biso   1.000  H
  H300     1.0000 0.26598  0.87944  0.31937  Biso   1.000  H
  C393     1.0000 0.32798  0.71777  0.35449  Biso   1.000  C
  H301     1.0000 0.26601  0.87936  0.31937  Biso   1.000  H
  H302     1.0000 0.40730  0.56239  0.39282  Biso   1.000  H
  H303     1.0000 0.26839  0.71308  0.33399  Biso   1.000  H
  C394     1.0000 0.41195  0.23908  0.56187  Biso   1.000  C
  O81      1.0000 0.43753  0.18155  0.51593  Biso   1.000  O
  O82      1.0000 0.43745  0.18155  0.51593  Biso   1.000  O
  H304     1.0000 0.35992  0.31166  0.52212  Biso   1.000  H
  H305     1.0000 0.37761  0.20106  0.62271  Biso   1.000  H
  C395     1.0000 0.50280  0.26021  0.58841  Biso   1.000  C
  C396     1.0000 0.50282  0.26013  0.58841  Biso   1.000  C
  C397     1.0000 0.36210  0.15553  0.48387  Biso   1.000  C
  C398     1.0000 0.36212  0.15545  0.48387  Biso   1.000  C
  C399     1.0000 0.41203  0.23908  0.56187  Biso   1.000  C
  C400     1.0000 0.59160  0.18001  0.61474  Biso   1.000  C
  C401     1.0000 0.49563  0.35662  0.58588  Biso   1.000  C
  C402     1.0000 0.59163  0.17994  0.61474  Biso   1.000  C
  C403     1.0000 0.49558  0.35654  0.58588  Biso   1.000  C
  C404     1.0000 0.29981  0.09356  0.54561  Biso   1.000  C
  C405     1.0000 0.35752  0.18793  0.38350  Biso   1.000  C
  C406     1.0000 0.35747  0.18785  0.38350  Biso   1.000  C
  H306     1.0000 0.59963  0.11470  0.60832  Biso   1.000  H
  C407     1.0000 0.67497  0.18502  0.65150  Biso   1.000  C
  H307     1.0000 0.59958  0.11463  0.60832  Biso   1.000  H
  C408     1.0000 0.67500  0.18494  0.65150  Biso   1.000  C
  H308     1.0000 0.43179  0.41706  0.56724  Biso   1.000  H
  C409     1.0000 0.59201  0.36823  0.61369  Biso   1.000  C
  C410     1.0000 0.59196  0.36816  0.61369  Biso   1.000  C
  C411     1.0000 0.23222  0.06520  0.50781  Biso   1.000  C
  C412     1.0000 0.23214  0.06520  0.50781  Biso   1.000  C
  O83      1.0000 0.30111  0.05849  0.64919  Biso   1.000  O
  C413     1.0000 0.28872  0.16228  0.34562  Biso   1.000  C
  C414     1.0000 0.28864  0.16228  0.34562  Biso   1.000  C
  O84      1.0000 0.41776  0.25504  0.31758  Biso   1.000  O
  O85      1.0000 0.41779  0.25496  0.31758  Biso   1.000  O
  C415     1.0000 0.67199  0.28215  0.64553  Biso   1.000  C
  H309     1.0000 0.73403  0.12059  0.68058  Biso   1.000  H
  H310     1.0000 0.73396  0.12059  0.68058  Biso   1.000  H
  H311     1.0000 0.59272  0.43761  0.60720  Biso   1.000  H
  H312     1.0000 0.59267  0.43753  0.60720  Biso   1.000  H
  C416     1.0000 0.22743  0.10011  0.40669  Biso   1.000  C
  C417     1.0000 0.22739  0.10004  0.40669  Biso   1.000  C
  H313     1.0000 0.19016  0.02274  0.55038  Biso   1.000  H
  H314     1.0000 0.19019  0.02267  0.55038  Biso   1.000  H
  C418     1.0000 0.36227  0.95133  0.70377  Biso   1.000  C
  C419     1.0000 0.36230  0.95126  0.70377  Biso   1.000  C
  H315     1.0000 0.28388  0.18783  0.27709  Biso   1.000  H
  H316     1.0000 0.28391  0.18775  0.27709  Biso   1.000  H
  C420     1.0000 0.50329  0.20019  0.28008  Biso   1.000  C
  H317     1.0000 0.73155  0.28696  0.66596  Biso   1.000  H
  H318     1.0000 0.73158  0.28688  0.66596  Biso   1.000  H
  C421     1.0000 0.15548  0.07653  0.36039  Biso   1.000  C
  C422     1.0000 0.15551  0.07645  0.36039  Biso   1.000  C
  N46      1.0000 0.44500  0.90649  0.65940  Biso   1.000  N
  N47      1.0000 0.33414  0.90629  0.79526  Biso   1.000  N
  N48      1.0000 0.33407  0.90629  0.79526  Biso   1.000  N
  N49      1.0000 0.52419  0.26079  0.18963  Biso   1.000  N
  N50      1.0000 0.55502  0.09351  0.34062  Biso   1.000  N
  N51      1.0000 0.55497  0.09343  0.34062  Biso   1.000  N
  O86      1.0000 0.13607  0.12029  0.27329  Biso   1.000  O
  O87      1.0000 0.11188  0.99823  0.42847  Biso   1.000  O
  O88      1.0000 0.11190  0.99815  0.42847  Biso   1.000  O
  C423     1.0000 0.49672  0.79984  0.71988  Biso   1.000  C
  C424     1.0000 0.49668  0.79977  0.71988  Biso   1.000  C
  C425     1.0000 0.39200  0.79799  0.84739  Biso   1.000  C
  C426     1.0000 0.60801  0.20205  0.15257  Biso   1.000  C
  C427     1.0000 0.60796  0.20197  0.15257  Biso   1.000  C
  C428     1.0000 0.63767  0.04870  0.29618  Biso   1.000  C
  C429     1.0000 0.03900  0.96211  0.39193  Biso   1.000  C
  C430     1.0000 0.03902  0.96204  0.39193  Biso   1.000  C
  O89      1.0000 0.58218  0.74500  0.68237  Biso   1.000  O
  N52      1.0000 0.47582  0.73921  0.81040  Biso   1.000  N
  N53      1.0000 0.47577  0.73913  0.81040  Biso   1.000  N
  C431     1.0000 0.36592  0.73418  0.95178  Biso   1.000  C
  C432     1.0000 0.36585  0.73418  0.95178  Biso   1.000  C
  N54      1.0000 0.66590  0.09367  0.20469  Biso   1.000  N
  C433     1.0000 0.63409  0.26585  0.04817  Biso   1.000  C
  C434     1.0000 0.63412  0.26578  0.04817  Biso   1.000  C
  O90      1.0000 0.69890  0.94155  0.35077  Biso   1.000  O
  O91      1.0000 0.69886  0.94147  0.35077  Biso   1.000  O
  H319     1.0000 0.97796  0.02693  0.35792  Biso   1.000  H
  H320     1.0000 0.97799  0.02685  0.35792  Biso   1.000  H
  H321     1.0000 0.01547  0.90546  0.44763  Biso   1.000  H
  H322     1.0000 0.07669  0.93093  0.34689  Biso   1.000  H
  H323     1.0000 0.07671  0.93085  0.34689  Biso   1.000  H
  C435     1.0000 0.64250  0.81207  0.61652  Biso   1.000  C
  C436     1.0000 0.27080  0.77795  0.99093  Biso   1.000  C
  C437     1.0000 0.43531  0.62893  0.01099  Biso   1.000  C
  C438     1.0000 0.43526  0.62885  0.01099  Biso   1.000  C
  C439     1.0000 0.56471  0.37110  0.98896  Biso   1.000  C
  C440     1.0000 0.72924  0.22197  0.00910  Biso   1.000  C
  C441     1.0000 0.72916  0.22197  0.00910  Biso   1.000  C
  C442     1.0000 0.70024  0.90636  0.45441  Biso   1.000  C
  C443     1.0000 0.70016  0.90636  0.45441  Biso   1.000  C
  C444     1.0000 0.63792  0.84451  0.51608  Biso   1.000  C
  C445     1.0000 0.71130  0.83772  0.65441  Biso   1.000  C
  C446     1.0000 0.63784  0.84451  0.51608  Biso   1.000  C
  C447     1.0000 0.71133  0.83764  0.65441  Biso   1.000  C
  H324     1.0000 0.22407  0.84970  0.95223  Biso   1.000  H
  H325     1.0000 0.22410  0.84962  0.95223  Biso   1.000  H
  C448     1.0000 0.24490  0.71658  0.08630  Biso   1.000  C
  H326     1.0000 0.50139  0.59965  0.98713  Biso   1.000  H
  C449     1.0000 0.40600  0.56728  0.10584  Biso   1.000  C
  H327     1.0000 0.49858  0.40027  0.01290  Biso   1.000  H
  C450     1.0000 0.59402  0.43271  0.89419  Biso   1.000  C
  C451     1.0000 0.59397  0.43264  0.89419  Biso   1.000  C
  H328     1.0000 0.77587  0.15030  0.04780  Biso   1.000  H
  C452     1.0000 0.75511  0.28342  0.91373  Biso   1.000  C
  C453     1.0000 0.75507  0.28334  0.91373  Biso   1.000  C
  C454     1.0000 0.76780  0.93480  0.49222  Biso   1.000  C
  C455     1.0000 0.76783  0.93473  0.49222  Biso   1.000  C
  O92      1.0000 0.56251  0.81837  0.48409  Biso   1.000  O
  C456     1.0000 0.77258  0.89988  0.59333  Biso   1.000  C
  H329     1.0000 0.71614  0.81217  0.72293  Biso   1.000  H
  H330     1.0000 0.71606  0.81217  0.72293  Biso   1.000  H
  C457     1.0000 0.31143  0.60792  0.14499  Biso   1.000  C
  H331     1.0000 0.18148  0.74807  0.11232  Biso   1.000  H
  C458     1.0000 0.31138  0.60784  0.14499  Biso   1.000  C
  H332     1.0000 0.45236  0.49534  0.14446  Biso   1.000  H
  H333     1.0000 0.45239  0.49527  0.14446  Biso   1.000  H
  H334     1.0000 0.54758  0.50469  0.85549  Biso   1.000  H
  C459     1.0000 0.68858  0.39212  0.85497  Biso   1.000  C
  H335     1.0000 0.81846  0.25193  0.88770  Biso   1.000  H
  H336     1.0000 0.81849  0.25185  0.88770  Biso   1.000  H
  H337     1.0000 0.80978  0.97729  0.44957  Biso   1.000  H
  C460     1.0000 0.58802  0.76088  0.43808  Biso   1.000  C
  C461     1.0000 0.84453  0.92351  0.63957  Biso   1.000  C
  C462     1.0000 0.84446  0.92351  0.63957  Biso   1.000  C
  C463     1.0000 0.28038  0.53861  0.24722  Biso   1.000  C
  C464     1.0000 0.28041  0.53853  0.24722  Biso   1.000  C
  C465     1.0000 0.71963  0.46139  0.75281  Biso   1.000  C
  C466     1.0000 0.71956  0.46139  0.75281  Biso   1.000  C
  H338     1.0000 0.64013  0.68826  0.47790  Biso   1.000  H
  H339     1.0000 0.62243  0.79886  0.37731  Biso   1.000  H
  C467     1.0000 0.49722  0.73979  0.41161  Biso   1.000  C
  H340     1.0000 0.64005  0.68826  0.47790  Biso   1.000  H
  H341     1.0000 0.62235  0.79886  0.37731  Biso   1.000  H
  C468     1.0000 0.49714  0.73979  0.41161  Biso   1.000  C
  O93      1.0000 0.86387  0.87970  0.72674  Biso   1.000  O
  O94      1.0000 0.86390  0.87963  0.72674  Biso   1.000  O
  O95      1.0000 0.88814  0.00180  0.57149  Biso   1.000  O
  O96      1.0000 0.88806  0.00180  0.57149  Biso   1.000  O
  H342     1.0000 0.33621  0.46676  0.27660  Biso   1.000  H
  H343     1.0000 0.26980  0.57841  0.28741  Biso   1.000  H
  H344     1.0000 0.21534  0.52607  0.24319  Biso   1.000  H
  H345     1.0000 0.26983  0.57833  0.28741  Biso   1.000  H
  H346     1.0000 0.21527  0.52607  0.24319  Biso   1.000  H
  H347     1.0000 0.66384  0.53316  0.72343  Biso   1.000  H
  H348     1.0000 0.73022  0.42159  0.71262  Biso   1.000  H
  H349     1.0000 0.78470  0.47385  0.75684  Biso   1.000  H
  H350     1.0000 0.66376  0.53316  0.72343  Biso   1.000  H
  C469     1.0000 0.40842  0.81998  0.38529  Biso   1.000  C
  C470     1.0000 0.50439  0.64341  0.41407  Biso   1.000  C
  C471     1.0000 0.96102  0.03788  0.60810  Biso   1.000  C
  H351     1.0000 0.40039  0.88529  0.39170  Biso   1.000  H
  C472     1.0000 0.32497  0.81498  0.34853  Biso   1.000  C
  C473     1.0000 0.40800  0.63176  0.38633  Biso   1.000  C
  H352     1.0000 0.56822  0.58294  0.43279  Biso   1.000  H
  H353     1.0000 0.56817  0.58286  0.43279  Biso   1.000  H
  H354     1.0000 0.98447  0.09454  0.55240  Biso   1.000  H
  H355     1.0000 0.92333  0.06911  0.65306  Biso   1.000  H
  H356     1.0000 0.98449  0.09446  0.55240  Biso   1.000  H
  H357     1.0000 0.92325  0.06911  0.65306  Biso   1.000  H
  H358     1.0000 0.02198  0.97307  0.64210  Biso   1.000  H
  H359     1.0000 0.26598  0.87944  0.31937  Biso   1.000  H
  C474     1.0000 0.32798  0.71777  0.35449  Biso   1.000  C
  H360     1.0000 0.26601  0.87936  0.31937  Biso   1.000  H
  H361     1.0000 0.40730  0.56239  0.39282  Biso   1.000  H
  H362     1.0000 0.26839  0.71308  0.33399  Biso   1.000  H
