data_image0
_cell_length_a       16.571
_cell_length_b       19.594
_cell_length_c       23.858
_cell_angle_alpha    78.66
_cell_angle_beta     85.72
_cell_angle_gamma    82.87

_symmetry_space_group_name_H-M    "P 1"
_symmetry_int_tables_number       1

loop_
  _symmetry_equiv_pos_as_xyz
  'x, y, z'

loop_
  _atom_site_label
  _atom_site_occupancy
  _atom_site_fract_x
  _atom_site_fract_y
  _atom_site_fract_z
  _atom_site_thermal_displace_type
  _atom_site_B_iso_or_equiv
  _atom_site_type_symbol
  C1       1.0000 0.52241  0.45314  0.61727  Biso   1.000  C
  C2       1.0000 0.47578  0.39220  0.61277  Biso   1.000  C
  C3       1.0000 0.59342  0.43672  0.65729  Biso   1.000  C
  H1       1.0000 0.54345  0.47249  0.57925  Biso   1.000  H
  H2       1.0000 0.48406  0.48922  0.63002  Biso   1.000  H
  C4       1.0000 0.41382  0.37395  0.66337  Biso   1.000  C
  H3       1.0000 0.44720  0.40380  0.57759  Biso   1.000  H
  H4       1.0000 0.51442  0.35123  0.61067  Biso   1.000  H
  H5       1.0000 0.63445  0.40330  0.64346  Biso   1.000  H
  H6       1.0000 0.57393  0.41546  0.69530  Biso   1.000  H
  C5       1.0000 0.63054  0.50094  0.66046  Biso   1.000  C
  C6       1.0000 0.36291  0.31502  0.65378  Biso   1.000  C
  H7       1.0000 0.44244  0.35806  0.69843  Biso   1.000  H
  H8       1.0000 0.37728  0.41545  0.66761  Biso   1.000  H
  C7       1.0000 0.70692  0.48450  0.69547  Biso   1.000  C
  H9       1.0000 0.64483  0.52466  0.62202  Biso   1.000  H
  H10      1.0000 0.59082  0.53238  0.67771  Biso   1.000  H
  C8       1.0000 0.41001  0.24374  0.65819  Biso   1.000  C
  C9       1.0000 0.28622  0.31164  0.69256  Biso   1.000  C
  H11      1.0000 0.34509  0.32864  0.61453  Biso   1.000  H
  H12      1.0000 0.72889  0.52731  0.69650  Biso   1.000  H
  H13      1.0000 0.74673  0.45417  0.67809  Biso   1.000  H
  H14      1.0000 0.69272  0.46188  0.73383  Biso   1.000  H
  C10      1.0000 0.39556  0.19870  0.62279  Biso   1.000  C
  C11      1.0000 0.46642  0.21693  0.69997  Biso   1.000  C
  C12      1.0000 0.21418  0.30192  0.67257  Biso   1.000  C
  C13      1.0000 0.28699  0.31802  0.75027  Biso   1.000  C
  O1       1.0000 0.34408  0.22490  0.57810  Biso   1.000  O
  C14      1.0000 0.43647  0.13154  0.62698  Biso   1.000  C
  C15      1.0000 0.51042  0.15033  0.70549  Biso   1.000  C
  H15      1.0000 0.47535  0.24503  0.72565  Biso   1.000  H
  O2       1.0000 0.20948  0.29943  0.61470  Biso   1.000  O
  C16      1.0000 0.14244  0.30001  0.70767  Biso   1.000  C
  C17      1.0000 0.21824  0.31504  0.78708  Biso   1.000  C
  H16      1.0000 0.33583  0.32441  0.76439  Biso   1.000  H
  C18      1.0000 0.27027  0.19641  0.58277  Biso   1.000  C
  C19      1.0000 0.49276  0.10815  0.66799  Biso   1.000  C
  H17      1.0000 0.42577  0.10278  0.60237  Biso   1.000  H
  C20      1.0000 0.57587  0.12553  0.74860  Biso   1.000  C
  C21      1.0000 0.19907  0.23703  0.60079  Biso   1.000  C
  H18      1.0000 0.09335  0.29520  0.69312  Biso   1.000  H
  C22      1.0000 0.14614  0.30531  0.76426  Biso   1.000  C
  C23      1.0000 0.21753  0.32415  0.84919  Biso   1.000  C
  C24      1.0000 0.26748  0.13302  0.56509  Biso   1.000  C
  O3       1.0000 0.54080  0.04426  0.66936  Biso   1.000  O
  C25      1.0000 0.53879  0.08843  0.80459  Biso   1.000  C
  H19      1.0000 0.61216  0.08932  0.73327  Biso   1.000  H
  C26      1.0000 0.63010  0.18164  0.75416  Biso   1.000  C
  C27      1.0000 0.12480  0.21525  0.60177  Biso   1.000  C
  O4       1.0000 0.07371  0.30862  0.79859  Biso   1.000  O
  C28      1.0000 0.24036  0.25303  0.88776  Biso   1.000  C
  C29      1.0000 0.27244  0.37983  0.85685  Biso   1.000  C
  H20      1.0000 0.16152  0.34063  0.86045  Biso   1.000  H
  C30      1.0000 0.18969  0.10582  0.56907  Biso   1.000  C
  H21      1.0000 0.31425  0.10904  0.55117  Biso   1.000  H
  C31      1.0000 0.50385  0.98383  0.68910  Biso   1.000  C
  C32      1.0000 0.50409  0.12382  0.84786  Biso   1.000  C
  C33      1.0000 0.53370  0.01725  0.81499  Biso   1.000  C
  H22      1.0000 0.59762  0.21842  0.77034  Biso   1.000  H
  H23      1.0000 0.67254  0.16085  0.78014  Biso   1.000  H
  C34      1.0000 0.66980  0.21403  0.69539  Biso   1.000  C
  C35      1.0000 0.11680  0.14783  0.58799  Biso   1.000  C
  H24      1.0000 0.07863  0.24355  0.61149  Biso   1.000  H
  C36      1.0000 0.03702  0.24712  0.81696  Biso   1.000  C
  C37      1.0000 0.17795  0.21235  0.91306  Biso   1.000  C
  C38      1.0000 0.32031  0.22414  0.89748  Biso   1.000  C
  H25      1.0000 0.26491  0.42032  0.82616  Biso   1.000  H
  H26      1.0000 0.32919  0.36056  0.85544  Biso   1.000  H
  C39      1.0000 0.24974  0.40205  0.91477  Biso   1.000  C
  H27      1.0000 0.25472  0.42336  0.83147  Biso   1.000  H
  H28      1.0000 0.32764  0.36490  0.84427  Biso   1.000  H
  C40      1.0000 0.27476  0.39544  0.91665  Biso   1.000  C
  N1       1.0000 0.18328  0.04492  0.55640  Biso   1.000  N
  C41      1.0000 0.52174  0.94533  0.74427  Biso   1.000  C
  C42      1.0000 0.46261  0.95534  0.65357  Biso   1.000  C
  H29      1.0000 0.50631  0.17196  0.84230  Biso   1.000  H
  C43      1.0000 0.46639  0.09135  0.89876  Biso   1.000  C
  O5       1.0000 0.57197  0.97674  0.77586  Biso   1.000  O
  C44      1.0000 0.49787  0.98175  0.86499  Biso   1.000  C
  C45      1.0000 0.73620  0.25611  0.69958  Biso   1.000  C
  H30      1.0000 0.62805  0.24343  0.67262  Biso   1.000  H
  H31      1.0000 0.69110  0.17647  0.67544  Biso   1.000  H
  N2       1.0000 0.04759  0.12185  0.58979  Biso   1.000  N
  C46      1.0000 0.04974  0.21302  0.87488  Biso   1.000  C
  C47      1.0000 0.98820  0.22504  0.78306  Biso   1.000  C
  O6       1.0000 0.09752  0.24153  0.90788  Biso   1.000  O
  C48      1.0000 0.19524  0.14787  0.94807  Biso   1.000  C
  H32      1.0000 0.36224  0.24902  0.87933  Biso   1.000  H
  C49      1.0000 0.34052  0.15962  0.93288  Biso   1.000  C
  H33      1.0000 0.26062  0.36165  0.94508  Biso   1.000  H
  H34      1.0000 0.19178  0.41714  0.91691  Biso   1.000  H
  C50      1.0000 0.29584  0.46085  0.92496  Biso   1.000  C
  H35      1.0000 0.31272  0.42941  0.91635  Biso   1.000  H
  H36      1.0000 0.29321  0.35289  0.94294  Biso   1.000  H
  C51      1.0000 0.19045  0.42403  0.93669  Biso   1.000  C
  Te1      1.0000 0.06463  0.02608  0.56868  Biso   1.000  Te
  C52      1.0000 0.49794  0.88252  0.76516  Biso   1.000  C
  H37      1.0000 0.45142  0.97981  0.61697  Biso   1.000  H
  C53      1.0000 0.43716  0.88791  0.67309  Biso   1.000  C
  C54      1.0000 0.42812  0.13027  0.94568  Biso   1.000  C
  C55      1.0000 0.46363  0.01903  0.90587  Biso   1.000  C
  H38      1.0000 0.49697  0.93350  0.87077  Biso   1.000  H
  C56      1.0000 0.77810  0.28484  0.64107  Biso   1.000  C
  H39      1.0000 0.71445  0.29523  0.71765  Biso   1.000  H
  H40      1.0000 0.77682  0.22752  0.72394  Biso   1.000  H
  C57      1.0000 0.00720  0.16075  0.89957  Biso   1.000  C
  H41      1.0000 0.98179  0.24878  0.74564  Biso   1.000  H
  C58      1.0000 0.94702  0.16575  0.80476  Biso   1.000  C
  C59      1.0000 0.27539  0.12216  0.95668  Biso   1.000  C
  H42      1.0000 0.15349  0.12221  0.96558  Biso   1.000  H
  C60      1.0000 0.26914  0.48623  0.98035  Biso   1.000  C
  H43      1.0000 0.28806  0.50004  0.89320  Biso   1.000  H
  H44      1.0000 0.35351  0.44458  0.92547  Biso   1.000  H
  H45      1.0000 0.16065  0.44781  0.90351  Biso   1.000  H
  H46      1.0000 0.16135  0.38537  0.95591  Biso   1.000  H
  C61      1.0000 0.19284  0.47513  0.97718  Biso   1.000  C
  H47      1.0000 0.50902  0.86064  0.80253  Biso   1.000  H
  C62      1.0000 0.45542  0.84846  0.73058  Biso   1.000  C
  N3       1.0000 0.39515  0.85894  0.64030  Biso   1.000  N
  C63      1.0000 0.47840  0.18797  0.95548  Biso   1.000  C
  H48      1.0000 0.42632  0.09574  0.98146  Biso   1.000  H
  O7       1.0000 0.43050  0.98442  0.95758  Biso   1.000  O
  C64      1.0000 0.85503  0.31740  0.64548  Biso   1.000  C
  H49      1.0000 0.73991  0.31963  0.61924  Biso   1.000  H
  H50      1.0000 0.79129  0.24677  0.62022  Biso   1.000  H
  H51      1.0000 0.00913  0.14360  0.93874  Biso   1.000  H
  C65      1.0000 0.95740  0.13032  0.86486  Biso   1.000  C
  N4       1.0000 0.89931  0.14061  0.77539  Biso   1.000  N
  O8       1.0000 0.29455  0.05815  0.99499  Biso   1.000  O
  H52      1.0000 0.21157  0.50295  0.97945  Biso   1.000  H
  C66      1.0000 0.31456  0.54385  0.99225  Biso   1.000  C
  H53      1.0000 0.22575  0.51175  0.95899  Biso   1.000  H
  H54      1.0000 0.27579  0.44661  0.01194  Biso   1.000  H
  H55      1.0000 0.21866  0.45032  0.01168  Biso   1.000  H
  C67      1.0000 0.10863  0.50826  0.99336  Biso   1.000  C
  N5       1.0000 0.43104  0.78636  0.74688  Biso   1.000  N
  Te2      1.0000 0.36798  0.76480  0.68477  Biso   1.000  Te
  H56      1.0000 0.53547  0.16960  0.95771  Biso   1.000  H
  H57      1.0000 0.47337  0.22710  0.92355  Biso   1.000  H
  C68      1.0000 0.44708  0.21309  0.01220  Biso   1.000  C
  C69      1.0000 0.35676  0.95883  0.95548  Biso   1.000  C
  C70      1.0000 0.90337  0.33535  0.58957  Biso   1.000  C
  H58      1.0000 0.88944  0.28529  0.67240  Biso   1.000  H
  H59      1.0000 0.84045  0.35987  0.66089  Biso   1.000  H
  N6       1.0000 0.92074  0.07394  0.88378  Biso   1.000  N
  Te3      1.0000 0.85479  0.05561  0.82171  Biso   1.000  Te
  C71      1.0000 0.28480  0.99803  0.97628  Biso   1.000  C
  H60      1.0000 0.32462  0.57588  0.95659  Biso   1.000  H
  C72      1.0000 0.26905  0.58497  0.03501  Biso   1.000  C
  H61      1.0000 0.36688  0.52327  0.00693  Biso   1.000  H
  H62      1.0000 0.08206  0.53205  0.95886  Biso   1.000  H
  H63      1.0000 0.07608  0.47175  0.01263  Biso   1.000  H
  C73      1.0000 0.11305  0.56029  0.03232  Biso   1.000  C
  H64      1.0000 0.44716  0.17266  0.04306  Biso   1.000  H
  H65      1.0000 0.39117  0.23427  0.00826  Biso   1.000  H
  C74      1.0000 0.49718  0.26558  0.02851  Biso   1.000  C
  H66      1.0000 0.47503  0.18354  0.04405  Biso   1.000  H
  H67      1.0000 0.38924  0.20890  0.01875  Biso   1.000  H
  C75      1.0000 0.46187  0.28890  0.00912  Biso   1.000  C
  C76      1.0000 0.35368  0.89648  0.93956  Biso   1.000  C
  H68      1.0000 0.95094  0.35563  0.59591  Biso   1.000  H
  H69      1.0000 0.87051  0.36822  0.56290  Biso   1.000  H
  H70      1.0000 0.91958  0.29354  0.57442  Biso   1.000  H
  C77      1.0000 0.20838  0.97394  0.98018  Biso   1.000  C
  H71      1.0000 0.25993  0.55389  0.07080  Biso   1.000  H
  H72      1.0000 0.21755  0.60650  0.02046  Biso   1.000  H
  H73      1.0000 0.30074  0.62061  0.04079  Biso   1.000  H
  H74      1.0000 0.05879  0.58018  0.04169  Biso   1.000  H
  H75      1.0000 0.14413  0.59694  0.01310  Biso   1.000  H
  H76      1.0000 0.13826  0.53676  0.06682  Biso   1.000  H
  C78      1.0000 0.47625  0.33823  0.99268  Biso   1.000  C
  C79      1.0000 0.55104  0.30104  0.99889  Biso   1.000  C
  H77      1.0000 0.48652  0.26727  0.06870  Biso   1.000  H
  H78      1.0000 0.55465  0.25058  0.02243  Biso   1.000  H
  H79      1.0000 0.44129  0.30318  0.04469  Biso   1.000  H
  H80      1.0000 0.43133  0.31838  0.97842  Biso   1.000  H
  C80      1.0000 0.27558  0.86877  0.94217  Biso   1.000  C
  H81      1.0000 0.40090  0.87162  0.92718  Biso   1.000  H
  C81      1.0000 0.20315  0.90873  0.96348  Biso   1.000  C
  H82      1.0000 0.16228  0.99970  0.99328  Biso   1.000  H
  C82      1.0000 0.53465  0.38971  0.99889  Biso   1.000  C
  H83      1.0000 0.47664  0.33442  0.95270  Biso   1.000  H
  C83      1.0000 0.56327  0.37716  0.99846  Biso   1.000  C
  C84      1.0000 0.48715  0.42624  0.97996  Biso   1.000  C
  H84      1.0000 0.42146  0.35623  0.00398  Biso   1.000  H
  H85      1.0000 0.57133  0.28896  0.96246  Biso   1.000  H
  H86      1.0000 0.58217  0.27062  0.02872  Biso   1.000  H
  N7       1.0000 0.26835  0.80965  0.92847  Biso   1.000  N
  N8       1.0000 0.13187  0.88334  0.96515  Biso   1.000  N
  H87      1.0000 0.51231  0.43664  0.98146  Biso   1.000  H
  C85      1.0000 0.61903  0.37303  0.97098  Biso   1.000  C
  H88      1.0000 0.53972  0.38895  0.03925  Biso   1.000  H
  H89      1.0000 0.57543  0.38196  0.03655  Biso   1.000  H
  H90      1.0000 0.60917  0.39010  0.97256  Biso   1.000  H
  H91      1.0000 0.49393  0.47288  0.98403  Biso   1.000  H
  H92      1.0000 0.47929  0.42625  0.94020  Biso   1.000  H
  H93      1.0000 0.44065  0.41056  0.00282  Biso   1.000  H
  Te4      1.0000 0.14996  0.79013  0.94037  Biso   1.000  Te
  H94      1.0000 0.65933  0.36784  0.99893  Biso   1.000  H
  H95      1.0000 0.62083  0.33046  0.95672  Biso   1.000  H
  H96      1.0000 0.62986  0.41077  0.93998  Biso   1.000  H
  C86      1.0000 0.47780  0.54689  0.38269  Biso   1.000  C
  C87      1.0000 0.40678  0.56331  0.34271  Biso   1.000  C
  C88      1.0000 0.52437  0.60783  0.38718  Biso   1.000  C
  H97      1.0000 0.45670  0.52754  0.42070  Biso   1.000  H
  H98      1.0000 0.51608  0.51081  0.36993  Biso   1.000  H
  C89      1.0000 0.36966  0.49909  0.33950  Biso   1.000  C
  H99      1.0000 0.36576  0.59673  0.35649  Biso   1.000  H
  H100     1.0000 0.42628  0.58456  0.30470  Biso   1.000  H
  H101     1.0000 0.55301  0.59622  0.42241  Biso   1.000  H
  H102     1.0000 0.48579  0.64880  0.38928  Biso   1.000  H
  C90      1.0000 0.58639  0.62609  0.33659  Biso   1.000  C
  C91      1.0000 0.29329  0.51548  0.30448  Biso   1.000  C
  H103     1.0000 0.35537  0.47536  0.37798  Biso   1.000  H
  H104     1.0000 0.40938  0.46765  0.32225  Biso   1.000  H
  C92      1.0000 0.63730  0.68502  0.34617  Biso   1.000  C
  H105     1.0000 0.55777  0.64198  0.30153  Biso   1.000  H
  H106     1.0000 0.62293  0.58452  0.33239  Biso   1.000  H
  H107     1.0000 0.27126  0.47272  0.30345  Biso   1.000  H
  H108     1.0000 0.25348  0.54587  0.32186  Biso   1.000  H
  H109     1.0000 0.30748  0.53815  0.26617  Biso   1.000  H
  H110     1.0000 0.65511  0.67140  0.38543  Biso   1.000  H
  C93      1.0000 0.59019  0.75629  0.34181  Biso   1.000  C
  C94      1.0000 0.71399  0.68840  0.30739  Biso   1.000  C
  C95      1.0000 0.60459  0.80127  0.37721  Biso   1.000  C
  C96      1.0000 0.53378  0.78311  0.29999  Biso   1.000  C
  C97      1.0000 0.71316  0.68202  0.24969  Biso   1.000  C
  C98      1.0000 0.78597  0.69812  0.32738  Biso   1.000  C
  O9       1.0000 0.65613  0.77507  0.42190  Biso   1.000  O
  C99      1.0000 0.56368  0.86850  0.37297  Biso   1.000  C
  C100     1.0000 0.48978  0.84970  0.29451  Biso   1.000  C
  H111     1.0000 0.52485  0.75500  0.27435  Biso   1.000  H
  H112     1.0000 0.66432  0.67556  0.23561  Biso   1.000  H
  C101     1.0000 0.78197  0.68499  0.21288  Biso   1.000  C
  O10      1.0000 0.79066  0.70059  0.38530  Biso   1.000  O
  C102     1.0000 0.85778  0.69998  0.29228  Biso   1.000  C
  C103     1.0000 0.72988  0.80358  0.41719  Biso   1.000  C
  C104     1.0000 0.50738  0.89188  0.33201  Biso   1.000  C
  H113     1.0000 0.57443  0.89724  0.39763  Biso   1.000  H
  C105     1.0000 0.42427  0.87450  0.25140  Biso   1.000  C
  C106     1.0000 0.78268  0.67587  0.15081  Biso   1.000  C
  C107     1.0000 0.85407  0.69467  0.23569  Biso   1.000  C
  C108     1.0000 0.80107  0.76301  0.39917  Biso   1.000  C
  H114     1.0000 0.90685  0.70482  0.30688  Biso   1.000  H
  C109     1.0000 0.73273  0.86701  0.43487  Biso   1.000  C
  O11      1.0000 0.45941  0.95578  0.33059  Biso   1.000  O
  C110     1.0000 0.46135  0.91159  0.19541  Biso   1.000  C
  H115     1.0000 0.38804  0.91072  0.26668  Biso   1.000  H
  C111     1.0000 0.37010  0.81840  0.24579  Biso   1.000  C
  C112     1.0000 0.75985  0.74700  0.11220  Biso   1.000  C
  C113     1.0000 0.72777  0.62020  0.14310  Biso   1.000  C
  H116     1.0000 0.83864  0.65936  0.13951  Biso   1.000  H
  O12      1.0000 0.92649  0.69141  0.20140  Biso   1.000  O
  C114     1.0000 0.87541  0.78478  0.39818  Biso   1.000  C
  C115     1.0000 0.81051  0.89422  0.43089  Biso   1.000  C
  H117     1.0000 0.68590  0.89100  0.44878  Biso   1.000  H
  C116     1.0000 0.49635  0.01620  0.31090  Biso   1.000  C
  C117     1.0000 0.49607  0.87617  0.15209  Biso   1.000  C
  C118     1.0000 0.46651  0.98277  0.18501  Biso   1.000  C
  H118     1.0000 0.40258  0.78161  0.22966  Biso   1.000  H
  H119     1.0000 0.32760  0.83918  0.21981  Biso   1.000  H
  C119     1.0000 0.33040  0.78600  0.30461  Biso   1.000  C
  C120     1.0000 0.82226  0.78768  0.08690  Biso   1.000  C
  C121     1.0000 0.67989  0.77590  0.10248  Biso   1.000  C
  H120     1.0000 0.73524  0.57971  0.17379  Biso   1.000  H
  H121     1.0000 0.67102  0.63947  0.14451  Biso   1.000  H
  C122     1.0000 0.75047  0.59798  0.08518  Biso   1.000  C
  H122     1.0000 0.74549  0.57666  0.16853  Biso   1.000  H
  H123     1.0000 0.67257  0.63514  0.15569  Biso   1.000  H
  C123     1.0000 0.72544  0.60459  0.08330  Biso   1.000  C
  C124     1.0000 0.96320  0.75287  0.18300  Biso   1.000  C
  C125     1.0000 0.88340  0.85221  0.41197  Biso   1.000  C
  H124     1.0000 0.92152  0.75648  0.38847  Biso   1.000  H
  N9       1.0000 0.81693  0.95510  0.44360  Biso   1.000  N
  C126     1.0000 0.47847  0.05471  0.25568  Biso   1.000  C
  C127     1.0000 0.53754  0.04470  0.34639  Biso   1.000  C
  H125     1.0000 0.49390  0.82806  0.15770  Biso   1.000  H
  C128     1.0000 0.53376  0.90869  0.10119  Biso   1.000  C
  O13      1.0000 0.42824  0.02330  0.22409  Biso   1.000  O
  C129     1.0000 0.50233  0.01827  0.13501  Biso   1.000  C
  C130     1.0000 0.26402  0.74388  0.30037  Biso   1.000  C
  H126     1.0000 0.37216  0.75661  0.32734  Biso   1.000  H
  H127     1.0000 0.30911  0.82356  0.32451  Biso   1.000  H
  O14      1.0000 0.90268  0.75850  0.09208  Biso   1.000  O
  C131     1.0000 0.80497  0.85217  0.05188  Biso   1.000  C
  H128     1.0000 0.63797  0.75096  0.12063  Biso   1.000  H
  C132     1.0000 0.65969  0.84037  0.06708  Biso   1.000  C
  H129     1.0000 0.73959  0.63838  0.05488  Biso   1.000  H
  H130     1.0000 0.80843  0.58289  0.08304  Biso   1.000  H
  C133     1.0000 0.70437  0.53919  0.07500  Biso   1.000  C
  H131     1.0000 0.68749  0.57063  0.08360  Biso   1.000  H
  H132     1.0000 0.70693  0.64714  0.05706  Biso   1.000  H
  C134     1.0000 0.80975  0.57600  0.06331  Biso   1.000  C
  C135     1.0000 0.95047  0.78701  0.12508  Biso   1.000  C
  C136     1.0000 0.01195  0.77500  0.21690  Biso   1.000  C
  N10      1.0000 0.95262  0.87819  0.41017  Biso   1.000  N
  Te5      1.0000 0.93551  0.97394  0.43132  Biso   1.000  Te
  C137     1.0000 0.50222  0.11746  0.23479  Biso   1.000  C
  H133     1.0000 0.54878  0.02022  0.38299  Biso   1.000  H
  C138     1.0000 0.56306  0.11207  0.32687  Biso   1.000  C
  C139     1.0000 0.57209  0.86977  0.05428  Biso   1.000  C
  C140     1.0000 0.53658  0.98100  0.09409  Biso   1.000  C
  H134     1.0000 0.50324  0.06653  0.12919  Biso   1.000  H
  C141     1.0000 0.22211  0.71520  0.35889  Biso   1.000  C
  H135     1.0000 0.28575  0.70481  0.28231  Biso   1.000  H
  H136     1.0000 0.22340  0.77246  0.27602  Biso   1.000  H
  C142     1.0000 0.72475  0.87786  0.04332  Biso   1.000  C
  H137     1.0000 0.84671  0.87782  0.03442  Biso   1.000  H
  C143     1.0000 0.73101  0.51381  0.01961  Biso   1.000  C
  H138     1.0000 0.71208  0.49999  0.10676  Biso   1.000  H
  H139     1.0000 0.64670  0.55546  0.07448  Biso   1.000  H
  H140     1.0000 0.83949  0.55222  0.09644  Biso   1.000  H
  H141     1.0000 0.83886  0.61466  0.04405  Biso   1.000  H
  C144     1.0000 0.80736  0.52489  0.02282  Biso   1.000  C
  C145     1.0000 0.99295  0.83928  0.10038  Biso   1.000  C
  H142     1.0000 0.01841  0.75126  0.25431  Biso   1.000  H
  C146     1.0000 0.05319  0.83429  0.19520  Biso   1.000  C
  H143     1.0000 0.49118  0.13938  0.19747  Biso   1.000  H
  C147     1.0000 0.54473  0.15157  0.26938  Biso   1.000  C
  N11      1.0000 0.60506  0.14109  0.35970  Biso   1.000  N
  C148     1.0000 0.52174  0.81206  0.04452  Biso   1.000  C
  H144     1.0000 0.57382  0.90429  0.01849  Biso   1.000  H
  O15      1.0000 0.56971  0.01556  0.04238  Biso   1.000  O
  C149     1.0000 0.14518  0.68258  0.35448  Biso   1.000  C
  H145     1.0000 0.26029  0.68041  0.38072  Biso   1.000  H
  H146     1.0000 0.20891  0.75325  0.37978  Biso   1.000  H
  O16      1.0000 0.70566  0.94188  0.00501  Biso   1.000  O
  H147     1.0000 0.78864  0.49708  0.02055  Biso   1.000  H
  C150     1.0000 0.68565  0.45618  0.00771  Biso   1.000  C
  H148     1.0000 0.77440  0.48823  0.04097  Biso   1.000  H
  H149     1.0000 0.72442  0.55342  0.98806  Biso   1.000  H
  H150     1.0000 0.78154  0.54971  0.98831  Biso   1.000  H
  C151     1.0000 0.89151  0.49177  0.00659  Biso   1.000  C
  H151     1.0000 0.99108  0.85638  0.06121  Biso   1.000  H
  C152     1.0000 0.04275  0.86966  0.13510  Biso   1.000  C
  N12      1.0000 0.10090  0.85936  0.22460  Biso   1.000  N
  N13      1.0000 0.56917  0.21368  0.25307  Biso   1.000  N
  Te6      1.0000 0.63223  0.23524  0.31518  Biso   1.000  Te
  H152     1.0000 0.46474  0.83037  0.04229  Biso   1.000  H
  H153     1.0000 0.52684  0.77287  0.07645  Biso   1.000  H
  C153     1.0000 0.55313  0.78694  0.98776  Biso   1.000  C
  C154     1.0000 0.64338  0.04120  0.04452  Biso   1.000  C
  C155     1.0000 0.09678  0.66469  0.41038  Biso   1.000  C
  H154     1.0000 0.11077  0.71474  0.32755  Biso   1.000  H
  H155     1.0000 0.15976  0.64017  0.33907  Biso   1.000  H
  C156     1.0000 0.71540  0.00199  0.02371  Biso   1.000  C
  H156     1.0000 0.67559  0.42416  0.04336  Biso   1.000  H
  C157     1.0000 0.73109  0.41506  0.96498  Biso   1.000  C
  H157     1.0000 0.63327  0.47676  0.99302  Biso   1.000  H
  H158     1.0000 0.91809  0.46798  0.04114  Biso   1.000  H
  H159     1.0000 0.92414  0.52823  0.98733  Biso   1.000  H
  C158     1.0000 0.88710  0.43974  0.96768  Biso   1.000  C
  N14      1.0000 0.07947  0.92610  0.11618  Biso   1.000  N
  Te7      1.0000 0.14536  0.94443  0.17825  Biso   1.000  Te
  H160     1.0000 0.55298  0.82736  0.95694  Biso   1.000  H
  H161     1.0000 0.60905  0.76572  0.99170  Biso   1.000  H
  C159     1.0000 0.50302  0.73445  0.97149  Biso   1.000  C
  H162     1.0000 0.52518  0.81649  0.95591  Biso   1.000  H
  H163     1.0000 0.61097  0.79114  0.98121  Biso   1.000  H
  C160     1.0000 0.53834  0.71113  0.99088  Biso   1.000  C
  C161     1.0000 0.64653  0.10356  0.06040  Biso   1.000  C
  H164     1.0000 0.04921  0.64434  0.40409  Biso   1.000  H
  H165     1.0000 0.12970  0.63182  0.43705  Biso   1.000  H
  H166     1.0000 0.08063  0.70649  0.42554  Biso   1.000  H
  C162     1.0000 0.79182  0.02609  0.01982  Biso   1.000  C
  H167     1.0000 0.74022  0.44614  0.92916  Biso   1.000  H
  H168     1.0000 0.78266  0.39354  0.97950  Biso   1.000  H
  H169     1.0000 0.69947  0.37942  0.95921  Biso   1.000  H
  H170     1.0000 0.94141  0.41985  0.95831  Biso   1.000  H
  H171     1.0000 0.85602  0.40310  0.98686  Biso   1.000  H
  H172     1.0000 0.86195  0.46328  0.93314  Biso   1.000  H
  C163     1.0000 0.52395  0.66180  0.00732  Biso   1.000  C
  C164     1.0000 0.44916  0.69898  0.00111  Biso   1.000  C
  H173     1.0000 0.51369  0.73276  0.93125  Biso   1.000  H
  H174     1.0000 0.44550  0.74945  0.97753  Biso   1.000  H
  H175     1.0000 0.55893  0.69679  0.95531  Biso   1.000  H
  H176     1.0000 0.56888  0.68165  0.02153  Biso   1.000  H
  C165     1.0000 0.72463  0.13127  0.05779  Biso   1.000  C
  H177     1.0000 0.59925  0.12841  0.07277  Biso   1.000  H
  C166     1.0000 0.79699  0.09130  0.03651  Biso   1.000  C
  H178     1.0000 0.83793  0.00033  0.00668  Biso   1.000  H
  C167     1.0000 0.46556  0.61026  0.00111  Biso   1.000  C
  H179     1.0000 0.52351  0.66560  0.04730  Biso   1.000  H
  C168     1.0000 0.43694  0.62288  0.00150  Biso   1.000  C
  C169     1.0000 0.51306  0.57379  0.01999  Biso   1.000  C
  H180     1.0000 0.57875  0.64380  0.99598  Biso   1.000  H
  H181     1.0000 0.42887  0.71108  0.03750  Biso   1.000  H
  H182     1.0000 0.41798  0.72941  0.97123  Biso   1.000  H
  N15      1.0000 0.73180  0.19038  0.07149  Biso   1.000  N
  N16      1.0000 0.86834  0.11669  0.03480  Biso   1.000  N
  H183     1.0000 0.48789  0.56339  0.01849  Biso   1.000  H
  C170     1.0000 0.38112  0.62700  0.02898  Biso   1.000  C
  H184     1.0000 0.46050  0.61103  0.96070  Biso   1.000  H
  H185     1.0000 0.42478  0.61807  0.96340  Biso   1.000  H
  H186     1.0000 0.39104  0.60993  0.02740  Biso   1.000  H
  H187     1.0000 0.50628  0.52716  0.01592  Biso   1.000  H
  H188     1.0000 0.52092  0.57377  0.05980  Biso   1.000  H
  H189     1.0000 0.55950  0.58947  0.99717  Biso   1.000  H
  Te8      1.0000 0.85024  0.20991  0.05959  Biso   1.000  Te
  H190     1.0000 0.34087  0.63218  0.00107  Biso   1.000  H
  H191     1.0000 0.37938  0.66952  0.04323  Biso   1.000  H
  H192     1.0000 0.37035  0.58927  0.05997  Biso   1.000  H
  C171     1.0000 0.67368  0.44751  0.43757  Biso   1.000  C
  C172     1.0000 0.70951  0.42800  0.49578  Biso   1.000  C
  H193     1.0000 0.70924  0.47517  0.41141  Biso   1.000  H
  H194     1.0000 0.62131  0.47404  0.44052  Biso   1.000  H
  H195     1.0000 0.66779  0.40567  0.42370  Biso   1.000  H
  C173     1.0000 0.73868  0.48873  0.51650  Biso   1.000  C
  H196     1.0000 0.75489  0.39194  0.49450  Biso   1.000  H
  H197     1.0000 0.66858  0.40827  0.52348  Biso   1.000  H
  H198     1.0000 0.69323  0.52494  0.51719  Biso   1.000  H
  H199     1.0000 0.75504  0.47256  0.55545  Biso   1.000  H
  C174     1.0000 0.80750  0.52059  0.48178  Biso   1.000  C
  H200     1.0000 0.79016  0.53862  0.44326  Biso   1.000  H
  H201     1.0000 0.85188  0.48382  0.47952  Biso   1.000  H
  C175     1.0000 0.84020  0.57918  0.50349  Biso   1.000  C
  C176     1.0000 0.87952  0.55734  0.56046  Biso   1.000  C
  H202     1.0000 0.87992  0.59949  0.47511  Biso   1.000  H
  H203     1.0000 0.79563  0.61560  0.50683  Biso   1.000  H
  C177     1.0000 0.93160  0.61192  0.57129  Biso   1.000  C
  H204     1.0000 0.91334  0.51303  0.56123  Biso   1.000  H
  H205     1.0000 0.83744  0.55037  0.59098  Biso   1.000  H
  C178     1.0000 0.88229  0.68191  0.57690  Biso   1.000  C
  H206     1.0000 0.96883  0.62145  0.53752  Biso   1.000  H
  C179     1.0000 0.98522  0.58764  0.62326  Biso   1.000  C
  C180     1.0000 0.91485  0.74422  0.55327  Biso   1.000  C
  C181     1.0000 0.80554  0.68764  0.60657  Biso   1.000  C
  C182     1.0000 0.95732  0.54892  0.67407  Biso   1.000  C
  C183     1.0000 0.06571  0.60180  0.61919  Biso   1.000  C
  O17      1.0000 0.98830  0.74042  0.52018  Biso   1.000  O
  C184     1.0000 0.87125  0.80842  0.55567  Biso   1.000  C
  C185     1.0000 0.76031  0.75189  0.61008  Biso   1.000  C
  H207     1.0000 0.78409  0.64676  0.62450  Biso   1.000  H
  H208     1.0000 0.90390  0.53815  0.67660  Biso   1.000  H
  C186     1.0000 0.00421  0.52421  0.72300  Biso   1.000  C
  O18      1.0000 0.10002  0.63653  0.56808  Biso   1.000  O
  C187     1.0000 0.11542  0.57814  0.66517  Biso   1.000  C
  C188     1.0000 0.05601  0.75993  0.54120  Biso   1.000  C
  C189     1.0000 0.79449  0.81153  0.58396  Biso   1.000  C
  H209     1.0000 0.89291  0.84945  0.53842  Biso   1.000  H
  C190     1.0000 0.67644  0.75770  0.64248  Biso   1.000  C
  C191     1.0000 0.97024  0.48485  0.77788  Biso   1.000  C
  C192     1.0000 0.08504  0.53984  0.71546  Biso   1.000  C
  C193     1.0000 0.11505  0.70400  0.56637  Biso   1.000  C
  H210     1.0000 0.16920  0.58812  0.66204  Biso   1.000  H
  C194     1.0000 0.06761  0.82782  0.53320  Biso   1.000  C
  O19      1.0000 0.74822  0.87721  0.58178  Biso   1.000  O
  H211     1.0000 0.64811  0.80319  0.62553  Biso   1.000  H
  C195     1.0000 0.68776  0.76081  0.70476  Biso   1.000  C
  C196     1.0000 0.62273  0.70231  0.63448  Biso   1.000  C
  C197     1.0000 0.91390  0.43183  0.76919  Biso   1.000  C
  C198     1.0000 0.92725  0.53591  0.81499  Biso   1.000  C
  H212     1.0000 0.01628  0.45831  0.79894  Biso   1.000  H
  O20      1.0000 0.14003  0.51351  0.75917  Biso   1.000  O
  C199     1.0000 0.18610  0.71932  0.58169  Biso   1.000  C
  H213     1.0000 0.02870  0.86226  0.51577  Biso   1.000  H
  C200     1.0000 0.14170  0.84703  0.55199  Biso   1.000  C
  C201     1.0000 0.77272  0.92349  0.61290  Biso   1.000  C
  C202     1.0000 0.69836  0.69869  0.74599  Biso   1.000  C
  C203     1.0000 0.68541  0.82283  0.72278  Biso   1.000  C
  C204     1.0000 0.58944  0.71819  0.57549  Biso   1.000  C
  H214     1.0000 0.65452  0.65665  0.64021  Biso   1.000  H
  H215     1.0000 0.57785  0.70057  0.66307  Biso   1.000  H
  H216     1.0000 0.86650  0.45688  0.74984  Biso   1.000  H
  H217     1.0000 0.94227  0.40167  0.74462  Biso   1.000  H
  C205     1.0000 0.88615  0.38712  0.82449  Biso   1.000  C
  C206     1.0000 0.97476  0.56094  0.85146  Biso   1.000  C
  C207     1.0000 0.84495  0.56051  0.81336  Biso   1.000  C
  C208     1.0000 0.16402  0.56810  0.78926  Biso   1.000  C
  H218     1.0000 0.22583  0.68304  0.59509  Biso   1.000  H
  C209     1.0000 0.20182  0.78982  0.57780  Biso   1.000  C
  N17      1.0000 0.15751  0.91138  0.54728  Biso   1.000  N
  C210     1.0000 0.83063  0.96732  0.59197  Biso   1.000  C
  C211     1.0000 0.73086  0.92692  0.66756  Biso   1.000  C
  H219     1.0000 0.70034  0.65594  0.73426  Biso   1.000  H
  C212     1.0000 0.70616  0.69893  0.80446  Biso   1.000  C
  O21      1.0000 0.66853  0.88391  0.68357  Biso   1.000  O
  C213     1.0000 0.69276  0.82603  0.77976  Biso   1.000  C
  H220     1.0000 0.63475  0.72047  0.54724  Biso   1.000  H
  H221     1.0000 0.55808  0.76398  0.57009  Biso   1.000  H
  C214     1.0000 0.53600  0.66531  0.56440  Biso   1.000  C
  H222     1.0000 0.86385  0.41745  0.85078  Biso   1.000  H
  H223     1.0000 0.93302  0.35798  0.84149  Biso   1.000  H
  C215     1.0000 0.82223  0.34014  0.81747  Biso   1.000  C
  C216     1.0000 0.93975  0.60375  0.88737  Biso   1.000  C
  O22      1.0000 0.05432  0.53261  0.85566  Biso   1.000  O
  C217     1.0000 0.80741  0.60513  0.84898  Biso   1.000  C
  H224     1.0000 0.81365  0.54666  0.78768  Biso   1.000  H
  C218     1.0000 0.23331  0.59155  0.77175  Biso   1.000  C
  C219     1.0000 0.11761  0.57363  0.83798  Biso   1.000  C
  N18      1.0000 0.27022  0.80841  0.59479  Biso   1.000  N
  Te9      1.0000 0.26623  0.91339  0.57789  Biso   1.000  Te
  H225     1.0000 0.85740  0.96496  0.55665  Biso   1.000  H
  C220     1.0000 0.84961  0.01521  0.62347  Biso   1.000  C
  C221     1.0000 0.74386  0.97469  0.69757  Biso   1.000  C
  C222     1.0000 0.70276  0.76323  0.81906  Biso   1.000  C
  C223     1.0000 0.71715  0.63012  0.84838  Biso   1.000  C
  H226     1.0000 0.69109  0.86882  0.79132  Biso   1.000  H
  H227     1.0000 0.49751  0.65549  0.59681  Biso   1.000  H
  H228     1.0000 0.56984  0.62192  0.56145  Biso   1.000  H
  C224     1.0000 0.48871  0.68983  0.50987  Biso   1.000  C
  C225     1.0000 0.80044  0.28793  0.87256  Biso   1.000  C
  H229     1.0000 0.84202  0.31379  0.78781  Biso   1.000  H
  H230     1.0000 0.77302  0.36952  0.80459  Biso   1.000  H
  H231     1.0000 0.97115  0.61790  0.91284  Biso   1.000  H
  C226     1.0000 0.85565  0.62633  0.88558  Biso   1.000  C
  H232     1.0000 0.26363  0.57848  0.74046  Biso   1.000  H
  C227     1.0000 0.26105  0.63982  0.80429  Biso   1.000  C
  C228     1.0000 0.13774  0.61845  0.87077  Biso   1.000  C
  N19      1.0000 0.90736  0.05629  0.60669  Biso   1.000  N
  C229     1.0000 0.80618  0.02081  0.67857  Biso   1.000  C
  H233     1.0000 0.71254  0.97850  0.73109  Biso   1.000  H
  O23      1.0000 0.70515  0.76735  0.87766  Biso   1.000  O
  H234     1.0000 0.70056  0.64154  0.88609  Biso   1.000  H
  C230     1.0000 0.66226  0.57565  0.83836  Biso   1.000  C
  H235     1.0000 0.52593  0.70786  0.47866  Biso   1.000  H
  H236     1.0000 0.46783  0.64977  0.50006  Biso   1.000  H
  C231     1.0000 0.41901  0.74532  0.51500  Biso   1.000  C
  H237     1.0000 0.84925  0.25849  0.88596  Biso   1.000  H
  H238     1.0000 0.77903  0.31382  0.90223  Biso   1.000  H
  C232     1.0000 0.73804  0.24265  0.86199  Biso   1.000  C
  O24      1.0000 0.81757  0.66572  0.92556  Biso   1.000  O
  N20      1.0000 0.32546  0.67201  0.78879  Biso   1.000  N
  C233     1.0000 0.20867  0.65302  0.85587  Biso   1.000  C
  H239     1.0000 0.10500  0.62605  0.90278  Biso   1.000  H
  Te10     1.0000 0.91823  0.11485  0.66538  Biso   1.000  Te
  N21      1.0000 0.82508  0.06589  0.70729  Biso   1.000  N
  C234     1.0000 0.77328  0.78922  0.89559  Biso   1.000  C
  H240     1.0000 0.67481  0.56626  0.80009  Biso   1.000  H
  H241     1.0000 0.67576  0.53226  0.86516  Biso   1.000  H
  C235     1.0000 0.57102  0.59745  0.84508  Biso   1.000  C
  H242     1.0000 0.67024  0.56892  0.79907  Biso   1.000  H
  H243     1.0000 0.67705  0.53104  0.86332  Biso   1.000  H
  C236     1.0000 0.57315  0.60091  0.85078  Biso   1.000  C
  C237     1.0000 0.37529  0.77199  0.45807  Biso   1.000  C
  H244     1.0000 0.43910  0.78442  0.52673  Biso   1.000  H
  H245     1.0000 0.37992  0.72649  0.54454  Biso   1.000  H
  C238     1.0000 0.71754  0.18822  0.91486  Biso   1.000  C
  H246     1.0000 0.75853  0.21867  0.83096  Biso   1.000  H
  H247     1.0000 0.68859  0.27224  0.84992  Biso   1.000  H
  C239     1.0000 0.83547  0.73283  0.92119  Biso   1.000  C
  Te11     1.0000 0.33494  0.73378  0.84649  Biso   1.000  Te
  N22      1.0000 0.23447  0.69591  0.88408  Biso   1.000  N
  C240     1.0000 0.78297  0.85735  0.89255  Biso   1.000  C
  H248     1.0000 0.55453  0.59008  0.88553  Biso   1.000  H
  H249     1.0000 0.55986  0.64703  0.82954  Biso   1.000  H
  C241     1.0000 0.52096  0.55672  0.81507  Biso   1.000  C
  C242     1.0000 0.51463  0.54753  0.84829  Biso   1.000  C
  H250     1.0000 0.56727  0.61294  0.88853  Biso   1.000  H
  H251     1.0000 0.55777  0.64324  0.82325  Biso   1.000  H
  H252     1.0000 0.40957  0.80022  0.43123  Biso   1.000  H
  H253     1.0000 0.32494  0.79967  0.46535  Biso   1.000  H
  H254     1.0000 0.36426  0.73276  0.44245  Biso   1.000  H
  H255     1.0000 0.67605  0.16217  0.90634  Biso   1.000  H
  H256     1.0000 0.69812  0.21148  0.94589  Biso   1.000  H
  H257     1.0000 0.76548  0.15681  0.92547  Biso   1.000  H
  C243     1.0000 0.90319  0.74770  0.94178  Biso   1.000  C
  H258     1.0000 0.74249  0.89255  0.87869  Biso   1.000  H
  C244     1.0000 0.85644  0.87395  0.91126  Biso   1.000  C
  C245     1.0000 0.54045  0.47776  0.83245  Biso   1.000  C
  H259     1.0000 0.46360  0.56941  0.82381  Biso   1.000  H
  H260     1.0000 0.53094  0.57014  0.77402  Biso   1.000  H
  H261     1.0000 0.53336  0.50360  0.87273  Biso   1.000  H
  H262     1.0000 0.46136  0.56386  0.86353  Biso   1.000  H
  C246     1.0000 0.50614  0.53411  0.78836  Biso   1.000  C
  C247     1.0000 0.91837  0.81904  0.93557  Biso   1.000  C
  H263     1.0000 0.93980  0.71186  0.95997  Biso   1.000  H
  N23      1.0000 0.87089  0.94115  0.90625  Biso   1.000  N
  C248     1.0000 0.48103  0.43682  0.81067  Biso   1.000  C
  H264     1.0000 0.53963  0.46532  0.87393  Biso   1.000  H
  H265     1.0000 0.59502  0.46411  0.81786  Biso   1.000  H
  H266     1.0000 0.48029  0.57656  0.76542  Biso   1.000  H
  H267     1.0000 0.56012  0.52431  0.77116  Biso   1.000  H
  C249     1.0000 0.45723  0.47413  0.78639  Biso   1.000  C
  N24      1.0000 0.98550  0.83733  0.95077  Biso   1.000  N
  Te12     1.0000 0.98305  0.94253  0.93493  Biso   1.000  Te
  H268     1.0000 0.47605  0.45378  0.76987  Biso   1.000  H
  H269     1.0000 0.42775  0.44528  0.82946  Biso   1.000  H
  C250     1.0000 0.50802  0.35822  0.82137  Biso   1.000  C
  H270     1.0000 0.50188  0.40365  0.85570  Biso   1.000  H
  H271     1.0000 0.45035  0.47238  0.74667  Biso   1.000  H
  H272     1.0000 0.40350  0.48342  0.80424  Biso   1.000  H
  C251     1.0000 0.49613  0.40281  0.81606  Biso   1.000  C
  H273     1.0000 0.46891  0.33465  0.80698  Biso   1.000  H
  H274     1.0000 0.56017  0.34955  0.80219  Biso   1.000  H
  H275     1.0000 0.51193  0.34105  0.86173  Biso   1.000  H
  H276     1.0000 0.46228  0.36747  0.81319  Biso   1.000  H
  H277     1.0000 0.54880  0.39257  0.79808  Biso   1.000  H
  C252     1.0000 0.32653  0.55252  0.56239  Biso   1.000  C
  C253     1.0000 0.29070  0.57203  0.50417  Biso   1.000  C
  H278     1.0000 0.29091  0.52486  0.58854  Biso   1.000  H
  H279     1.0000 0.37884  0.52595  0.55944  Biso   1.000  H
  H280     1.0000 0.33242  0.59431  0.57626  Biso   1.000  H
  C254     1.0000 0.26152  0.51129  0.48350  Biso   1.000  C
  H281     1.0000 0.24531  0.60810  0.50546  Biso   1.000  H
  H282     1.0000 0.33163  0.59171  0.47652  Biso   1.000  H
  C255     1.0000 0.19271  0.47939  0.51817  Biso   1.000  C
  H283     1.0000 0.30692  0.47510  0.48277  Biso   1.000  H
  H284     1.0000 0.24511  0.52748  0.44450  Biso   1.000  H
  C256     1.0000 0.16002  0.42080  0.49647  Biso   1.000  C
  H285     1.0000 0.21004  0.46141  0.55674  Biso   1.000  H
  H286     1.0000 0.14827  0.51621  0.52044  Biso   1.000  H
  C257     1.0000 0.12068  0.44269  0.43949  Biso   1.000  C
  H287     1.0000 0.12029  0.40053  0.52489  Biso   1.000  H
  H288     1.0000 0.20451  0.38444  0.49313  Biso   1.000  H
  C258     1.0000 0.06860  0.38810  0.42871  Biso   1.000  C
  H289     1.0000 0.08686  0.48700  0.43872  Biso   1.000  H
  H290     1.0000 0.16270  0.44965  0.40901  Biso   1.000  H
  C259     1.0000 0.11786  0.31811  0.42310  Biso   1.000  C
  H291     1.0000 0.03131  0.37858  0.46248  Biso   1.000  H
  C260     1.0000 0.01499  0.41239  0.37670  Biso   1.000  C
  C261     1.0000 0.19467  0.31240  0.39339  Biso   1.000  C
  C262     1.0000 0.08536  0.25581  0.44668  Biso   1.000  C
  C263     1.0000 0.04288  0.45112  0.32588  Biso   1.000  C
  C264     1.0000 0.93449  0.39822  0.38080  Biso   1.000  C
  C265     1.0000 0.23984  0.24809  0.38988  Biso   1.000  C
  H292     1.0000 0.21613  0.35322  0.37545  Biso   1.000  H
  C266     1.0000 0.12896  0.19161  0.44429  Biso   1.000  C
  O25      1.0000 0.01185  0.25962  0.47977  Biso   1.000  O
  C267     1.0000 0.99599  0.47582  0.27700  Biso   1.000  C
  H293     1.0000 0.09631  0.46188  0.32340  Biso   1.000  H
  C268     1.0000 0.88479  0.42190  0.33479  Biso   1.000  C
  O26      1.0000 0.90019  0.36350  0.43187  Biso   1.000  O
  C269     1.0000 0.32377  0.24233  0.35748  Biso   1.000  C
  C270     1.0000 0.20565  0.18850  0.41599  Biso   1.000  C
  H294     1.0000 0.10730  0.15059  0.46154  Biso   1.000  H
  C271     1.0000 0.94419  0.24010  0.45880  Biso   1.000  C
  C272     1.0000 0.02997  0.51519  0.22208  Biso   1.000  C
  C273     1.0000 0.91517  0.46020  0.28449  Biso   1.000  C
  H295     1.0000 0.83100  0.41191  0.33796  Biso   1.000  H
  C274     1.0000 0.88516  0.29604  0.43359  Biso   1.000  C
  C275     1.0000 0.31245  0.23923  0.29519  Biso   1.000  C
  H296     1.0000 0.35209  0.19684  0.37447  Biso   1.000  H
  C276     1.0000 0.37748  0.29772  0.36548  Biso   1.000  C
  O27      1.0000 0.25199  0.12283  0.41817  Biso   1.000  O
  C277     1.0000 0.93260  0.17220  0.46680  Biso   1.000  C
  C278     1.0000 0.07295  0.46411  0.18501  Biso   1.000  C
  C279     1.0000 0.08624  0.56820  0.23081  Biso   1.000  C
  H297     1.0000 0.98386  0.54172  0.20102  Biso   1.000  H
  O28      1.0000 0.86018  0.48652  0.24079  Biso   1.000  O
  C280     1.0000 0.81404  0.28070  0.41830  Biso   1.000  C
  C281     1.0000 0.30185  0.30128  0.25401  Biso   1.000  C
  C282     1.0000 0.31474  0.17721  0.27717  Biso   1.000  C
  C283     1.0000 0.41077  0.28179  0.42447  Biso   1.000  C
  H298     1.0000 0.34568  0.34338  0.35979  Biso   1.000  H
  H299     1.0000 0.42236  0.29940  0.33693  Biso   1.000  H
  C284     1.0000 0.22742  0.07654  0.38710  Biso   1.000  C
  H300     1.0000 0.97151  0.13778  0.48418  Biso   1.000  H
  C285     1.0000 0.85844  0.15301  0.44797  Biso   1.000  C
  C286     1.0000 0.15526  0.43952  0.18659  Biso   1.000  C
  C287     1.0000 0.02545  0.43909  0.14850  Biso   1.000  C
  H301     1.0000 0.13366  0.54310  0.25012  Biso   1.000  H
  H302     1.0000 0.05794  0.59836  0.25534  Biso   1.000  H
  C288     1.0000 0.11405  0.61290  0.17551  Biso   1.000  C
  C289     1.0000 0.83613  0.43188  0.21069  Biso   1.000  C
  H303     1.0000 0.77432  0.31693  0.40490  Biso   1.000  H
  C290     1.0000 0.79838  0.21021  0.42220  Biso   1.000  C
  H304     1.0000 0.29981  0.34409  0.26570  Biso   1.000  H
  C291     1.0000 0.29404  0.30111  0.19550  Biso   1.000  C
  C292     1.0000 0.30745  0.17400  0.22020  Biso   1.000  C
  O29      1.0000 0.33162  0.11612  0.31638  Biso   1.000  O
  H305     1.0000 0.36540  0.27957  0.45272  Biso   1.000  H
  H306     1.0000 0.44208  0.23600  0.42986  Biso   1.000  H
  C293     1.0000 0.46415  0.33471  0.43560  Biso   1.000  C
  C294     1.0000 0.26935  0.07312  0.33239  Biso   1.000  C
  C295     1.0000 0.16957  0.03271  0.40799  Biso   1.000  C
  N25      1.0000 0.84265  0.08860  0.45268  Biso   1.000  N
  C296     1.0000 0.19273  0.39490  0.15098  Biso   1.000  C
  H307     1.0000 0.18656  0.45331  0.21232  Biso   1.000  H
  C297     1.0000 0.06045  0.39629  0.11258  Biso   1.000  C
  O30      1.0000 0.94583  0.46737  0.14430  Biso   1.000  O
  H308     1.0000 0.13635  0.58258  0.14922  Biso   1.000  H
  H309     1.0000 0.06719  0.64205  0.15847  Biso   1.000  H
  C298     1.0000 0.17797  0.65989  0.18248  Biso   1.000  C
  C299     1.0000 0.88254  0.42640  0.16198  Biso   1.000  C
  C300     1.0000 0.76684  0.40848  0.22820  Biso   1.000  C
  N26      1.0000 0.72998  0.19162  0.40520  Biso   1.000  N
  C301     1.0000 0.29745  0.23680  0.18090  Biso   1.000  C
  C302     1.0000 0.28305  0.36992  0.15158  Biso   1.000  C
  H310     1.0000 0.30906  0.13121  0.20864  Biso   1.000  H
  H311     1.0000 0.50270  0.34454  0.40315  Biso   1.000  H
  H312     1.0000 0.43037  0.37811  0.43855  Biso   1.000  H
  C303     1.0000 0.51149  0.31020  0.49009  Biso   1.000  C
  C304     1.0000 0.25636  0.02529  0.30238  Biso   1.000  C
  H313     1.0000 0.14280  0.03507  0.44330  Biso   1.000  H
  C305     1.0000 0.15060  0.98482  0.37648  Biso   1.000  C
  Te13     1.0000 0.73398  0.08664  0.42207  Biso   1.000  Te
  C306     1.0000 0.14456  0.37370  0.11438  Biso   1.000  C
  H314     1.0000 0.02906  0.38213  0.08711  Biso   1.000  H
  C307     1.0000 0.19977  0.71211  0.12739  Biso   1.000  C
  H315     1.0000 0.15818  0.68623  0.21219  Biso   1.000  H
  H316     1.0000 0.22713  0.63052  0.19537  Biso   1.000  H
  C308     1.0000 0.86247  0.38159  0.12919  Biso   1.000  C
  H317     1.0000 0.73651  0.42154  0.25953  Biso   1.000  H
  C309     1.0000 0.73915  0.36021  0.19571  Biso   1.000  C
  O31      1.0000 0.29505  0.23269  0.12230  Biso   1.000  O
  H318     1.0000 0.29958  0.35850  0.11386  Biso   1.000  H
  C310     1.0000 0.33795  0.42438  0.16159  Biso   1.000  C
  H319     1.0000 0.47422  0.29217  0.52130  Biso   1.000  H
  H320     1.0000 0.53232  0.35025  0.49993  Biso   1.000  H
  C311     1.0000 0.58120  0.25470  0.48500  Biso   1.000  C
  H321     1.0000 0.28766  0.02154  0.26887  Biso   1.000  H
  C312     1.0000 0.19397  0.97923  0.32139  Biso   1.000  C
  N27      1.0000 0.09278  0.94374  0.39330  Biso   1.000  N
  O32      1.0000 0.18264  0.33431  0.07440  Biso   1.000  O
  H322     1.0000 0.15096  0.74154  0.11399  Biso   1.000  H
  H323     1.0000 0.22118  0.68622  0.09773  Biso   1.000  H
  C313     1.0000 0.26216  0.75738  0.13801  Biso   1.000  C
  C314     1.0000 0.79153  0.34702  0.14409  Biso   1.000  C
  H324     1.0000 0.89520  0.37399  0.09717  Biso   1.000  H
  N28      1.0000 0.67474  0.32802  0.21121  Biso   1.000  N
  C315     1.0000 0.22693  0.21081  0.10440  Biso   1.000  C
  H325     1.0000 0.32541  0.43372  0.19986  Biso   1.000  H
  H326     1.0000 0.32444  0.46778  0.13480  Biso   1.000  H
  C316     1.0000 0.42913  0.40258  0.15492  Biso   1.000  C
  H327     1.0000 0.32991  0.43107  0.20089  Biso   1.000  H
  H328     1.0000 0.32311  0.46893  0.13668  Biso   1.000  H
  C317     1.0000 0.42705  0.39912  0.14918  Biso   1.000  C
  C318     1.0000 0.62486  0.22805  0.54189  Biso   1.000  C
  H329     1.0000 0.56104  0.21562  0.47322  Biso   1.000  H
  H330     1.0000 0.62029  0.27354  0.45542  Biso   1.000  H
  N29      1.0000 0.17507  0.93413  0.29271  Biso   1.000  N
  Te14     1.0000 0.08198  0.88519  0.33457  Biso   1.000  Te
  C319     1.0000 0.16474  0.26720  0.07881  Biso   1.000  C
  C320     1.0000 0.28268  0.81176  0.08510  Biso   1.000  C
  H331     1.0000 0.24161  0.78136  0.16900  Biso   1.000  H
  H332     1.0000 0.31162  0.72779  0.15004  Biso   1.000  H
  N30      1.0000 0.76574  0.30413  0.11588  Biso   1.000  N
  Te15     1.0000 0.66521  0.26624  0.15350  Biso   1.000  Te
  C321     1.0000 0.21723  0.14269  0.10740  Biso   1.000  C
  H333     1.0000 0.44567  0.40994  0.11446  Biso   1.000  H
  H334     1.0000 0.44036  0.35295  0.17041  Biso   1.000  H
  C322     1.0000 0.47925  0.44331  0.18488  Biso   1.000  C
  C323     1.0000 0.48557  0.45249  0.15171  Biso   1.000  C
  H335     1.0000 0.43287  0.38708  0.11147  Biso   1.000  H
  H336     1.0000 0.44243  0.35678  0.17675  Biso   1.000  H
  H337     1.0000 0.59064  0.19981  0.56872  Biso   1.000  H
  H338     1.0000 0.67520  0.20035  0.53465  Biso   1.000  H
  H339     1.0000 0.63589  0.26726  0.55755  Biso   1.000  H
  C324     1.0000 0.09703  0.25227  0.05822  Biso   1.000  C
  H340     1.0000 0.32410  0.83787  0.09362  Biso   1.000  H
  H341     1.0000 0.30203  0.78855  0.05406  Biso   1.000  H
  H342     1.0000 0.23472  0.84323  0.07448  Biso   1.000  H
  H343     1.0000 0.25772  0.10747  0.12131  Biso   1.000  H
  C325     1.0000 0.14371  0.12609  0.08869  Biso   1.000  C
  C326     1.0000 0.45975  0.52228  0.16750  Biso   1.000  C
  H344     1.0000 0.53660  0.43062  0.17619  Biso   1.000  H
  H345     1.0000 0.46921  0.42989  0.22593  Biso   1.000  H
  H346     1.0000 0.46679  0.49643  0.12722  Biso   1.000  H
  H347     1.0000 0.53879  0.43618  0.13642  Biso   1.000  H
  C327     1.0000 0.49407  0.46588  0.21159  Biso   1.000  C
  C328     1.0000 0.08184  0.18099  0.06438  Biso   1.000  C
  H348     1.0000 0.06034  0.28818  0.03998  Biso   1.000  H
  N31      1.0000 0.12932  0.05888  0.09370  Biso   1.000  N
  C329     1.0000 0.51917  0.56321  0.18929  Biso   1.000  C
  H349     1.0000 0.46051  0.53472  0.12602  Biso   1.000  H
  H350     1.0000 0.40519  0.53592  0.18210  Biso   1.000  H
  H351     1.0000 0.51985  0.42347  0.23454  Biso   1.000  H
  H352     1.0000 0.44008  0.47571  0.22884  Biso   1.000  H
  C330     1.0000 0.54298  0.52590  0.21360  Biso   1.000  C
  N32      1.0000 0.01471  0.16271  0.04918  Biso   1.000  N
  Te16     1.0000 0.01716  0.05751  0.06502  Biso   1.000  Te
  H353     1.0000 0.52416  0.54625  0.23008  Biso   1.000  H
  H354     1.0000 0.57240  0.55476  0.17050  Biso   1.000  H
  C331     1.0000 0.49219  0.64181  0.17859  Biso   1.000  C
  H355     1.0000 0.49832  0.59637  0.14430  Biso   1.000  H
  H356     1.0000 0.54980  0.52765  0.25333  Biso   1.000  H
  H357     1.0000 0.59671  0.51661  0.19575  Biso   1.000  H
  C332     1.0000 0.50409  0.59717  0.18390  Biso   1.000  C
  H358     1.0000 0.53131  0.66532  0.19301  Biso   1.000  H
  H359     1.0000 0.43997  0.65048  0.19781  Biso   1.000  H
  H360     1.0000 0.48828  0.65899  0.13822  Biso   1.000  H
  H361     1.0000 0.53793  0.63256  0.18676  Biso   1.000  H
  H362     1.0000 0.45135  0.60740  0.20192  Biso   1.000  H
