data_image0
_cell_length_a       27.099
_cell_length_b       28.394
_cell_length_c       23.597
_cell_angle_alpha    90
_cell_angle_beta     103.75
_cell_angle_gamma    90

_symmetry_space_group_name_H-M    "P 1"
_symmetry_int_tables_number       1

loop_
  _symmetry_equiv_pos_as_xyz
  'x, y, z'

loop_
  _atom_site_label
  _atom_site_occupancy
  _atom_site_fract_x
  _atom_site_fract_y
  _atom_site_fract_z
  _atom_site_thermal_displace_type
  _atom_site_B_iso_or_equiv
  _atom_site_type_symbol
  Te1      1.0000 0.54330  0.51990  0.58977  Biso   1.000  Te
  N1       1.0000 0.59124  0.47492  0.64169  Biso   1.000  N
  N2       1.0000 0.60489  0.56272  0.60351  Biso   1.000  N
  C1       1.0000 0.63660  0.49412  0.65849  Biso   1.000  C
  C2       1.0000 0.64310  0.54251  0.63820  Biso   1.000  C
  C3       1.0000 0.67901  0.47119  0.69758  Biso   1.000  C
  C4       1.0000 0.69233  0.56470  0.65639  Biso   1.000  C
  C5       1.0000 0.72332  0.49542  0.71481  Biso   1.000  C
  H1       1.0000 0.67609  0.44066  0.71058  Biso   1.000  H
  H2       1.0000 0.69808  0.59421  0.64208  Biso   1.000  H
  C6       1.0000 0.72982  0.54202  0.69470  Biso   1.000  C
  O1       1.0000 0.76506  0.47404  0.75176  Biso   1.000  O
  O2       1.0000 0.77786  0.56202  0.71307  Biso   1.000  O
  C7       1.0000 0.76631  0.47380  0.81202  Biso   1.000  C
  C8       1.0000 0.78441  0.59502  0.75949  Biso   1.000  C
  C9       1.0000 0.80304  0.50092  0.84932  Biso   1.000  C
  C10      1.0000 0.73562  0.44302  0.83309  Biso   1.000  C
  C11      1.0000 0.76411  0.63933  0.74840  Biso   1.000  C
  C12      1.0000 0.81431  0.58252  0.81372  Biso   1.000  C
  C13      1.0000 0.80553  0.49739  0.90878  Biso   1.000  C
  C14      1.0000 0.83753  0.53430  0.82432  Biso   1.000  C
  C15      1.0000 0.73972  0.44062  0.89229  Biso   1.000  C
  H3       1.0000 0.71235  0.42417  0.80765  Biso   1.000  H
  H4       1.0000 0.74481  0.64704  0.71149  Biso   1.000  H
  C16      1.0000 0.77270  0.67222  0.79260  Biso   1.000  C
  C17      1.0000 0.82233  0.61629  0.85678  Biso   1.000  C
  C18      1.0000 0.77472  0.46721  0.93199  Biso   1.000  C
  H5       1.0000 0.82879  0.51617  0.93435  Biso   1.000  H
  C19      1.0000 0.89212  0.53561  0.86271  Biso   1.000  C
  H6       1.0000 0.83947  0.52162  0.78623  Biso   1.000  H
  O3       1.0000 0.71088  0.40695  0.91397  Biso   1.000  O
  O4       1.0000 0.75564  0.71931  0.78078  Biso   1.000  O
  C20      1.0000 0.80361  0.66190  0.84849  Biso   1.000  C
  H7       1.0000 0.84137  0.60812  0.89369  Biso   1.000  H
  C21      1.0000 0.77944  0.46401  0.99739  Biso   1.000  C
  C22      1.0000 0.92221  0.49070  0.86738  Biso   1.000  C
  H8       1.0000 0.91069  0.55994  0.84757  Biso   1.000  H
  H9       1.0000 0.89048  0.54508  0.90167  Biso   1.000  H
  C23      1.0000 0.91172  0.48542  0.87200  Biso   1.000  C
  H10      1.0000 0.91373  0.55406  0.84373  Biso   1.000  H
  H11      1.0000 0.89234  0.55012  0.89997  Biso   1.000  H
  C24      1.0000 0.65931  0.41579  0.90569  Biso   1.000  C
  C25      1.0000 0.70362  0.72691  0.77332  Biso   1.000  C
  C26      1.0000 0.81293  0.69892  0.89748  Biso   1.000  C
  C27      1.0000 0.83468  0.46362  0.03321  Biso   1.000  C
  H12      1.0000 0.76484  0.43354  0.00424  Biso   1.000  H
  C28      1.0000 0.74677  0.50130  0.01641  Biso   1.000  C
  C29      1.0000 0.97473  0.49630  0.90809  Biso   1.000  C
  H13      1.0000 0.92580  0.48151  0.82894  Biso   1.000  H
  H14      1.0000 0.90396  0.46580  0.88191  Biso   1.000  H
  C30      1.0000 0.96743  0.48059  0.89849  Biso   1.000  C
  H15      1.0000 0.90411  0.46950  0.83431  Biso   1.000  H
  H16      1.0000 0.89322  0.46922  0.89652  Biso   1.000  H
  C31      1.0000 0.64234  0.43752  0.95259  Biso   1.000  C
  C32      1.0000 0.62542  0.40019  0.85621  Biso   1.000  C
  C33      1.0000 0.68681  0.74392  0.82301  Biso   1.000  C
  C34      1.0000 0.67053  0.72202  0.72079  Biso   1.000  C
  C35      1.0000 0.86881  0.69620  0.93391  Biso   1.000  C
  C36      1.0000 0.77502  0.69420  0.93308  Biso   1.000  C
  H17      1.0000 0.80821  0.73001  0.87894  Biso   1.000  H
  C37      1.0000 0.84009  0.44872  0.09660  Biso   1.000  C
  H18      1.0000 0.85425  0.44217  0.01511  Biso   1.000  H
  H19      1.0000 0.84896  0.49486  0.03251  Biso   1.000  H
  C38      1.0000 0.76418  0.54642  0.03369  Biso   1.000  C
  C39      1.0000 0.69598  0.49211  0.01580  Biso   1.000  C
  H20      1.0000 0.99467  0.51814  0.89103  Biso   1.000  H
  H21      1.0000 0.97138  0.50930  0.94504  Biso   1.000  H
  H22      1.0000 0.97508  0.49503  0.93688  Biso   1.000  H
  H23      1.0000 0.98617  0.49757  0.87475  Biso   1.000  H
  C40      1.0000 0.00151  0.44950  0.91838  Biso   1.000  C
  C41      1.0000 0.98561  0.42970  0.90451  Biso   1.000  C
  C42      1.0000 0.59251  0.44640  0.94787  Biso   1.000  C
  O5       1.0000 0.67850  0.44583  0.00337  Biso   1.000  O
  C43      1.0000 0.57251  0.40829  0.85128  Biso   1.000  C
  H24      1.0000 0.63656  0.38483  0.82676  Biso   1.000  H
  O6       1.0000 0.72403  0.75343  0.87340  Biso   1.000  O
  C44      1.0000 0.63760  0.75541  0.81808  Biso   1.000  C
  C45      1.0000 0.61982  0.73290  0.71328  Biso   1.000  C
  H25      1.0000 0.68214  0.71114  0.68916  Biso   1.000  H
  C46      1.0000 0.90692  0.71381  0.90158  Biso   1.000  C
  H26      1.0000 0.87194  0.71469  0.96917  Biso   1.000  H
  H27      1.0000 0.87672  0.66380  0.94539  Biso   1.000  H
  C47      1.0000 0.73024  0.72093  0.91891  Biso   1.000  C
  C48      1.0000 0.78221  0.66482  0.98278  Biso   1.000  C
  C49      1.0000 0.89478  0.45112  0.13299  Biso   1.000  C
  H28      1.0000 0.82771  0.41674  0.09743  Biso   1.000  H
  H29      1.0000 0.81903  0.46901  0.11414  Biso   1.000  H
  C50      1.0000 0.89098  0.42470  0.12300  Biso   1.000  C
  H30      1.0000 0.81272  0.42731  0.09865  Biso   1.000  H
  H31      1.0000 0.83686  0.47633  0.11968  Biso   1.000  H
  C51      1.0000 0.73439  0.58171  0.05162  Biso   1.000  C
  H32      1.0000 0.79755  0.55388  0.03339  Biso   1.000  H
  C52      1.0000 0.66507  0.52511  0.03299  Biso   1.000  C
  H33      1.0000 0.98225  0.42865  0.93749  Biso   1.000  H
  C53      1.0000 0.05463  0.45221  0.95429  Biso   1.000  C
  H34      1.0000 0.00202  0.43569  0.88090  Biso   1.000  H
  C54      1.0000 0.01984  0.41900  0.96310  Biso   1.000  C
  H35      1.0000 0.00363  0.42312  0.87445  Biso   1.000  H
  H36      1.0000 0.95627  0.40910  0.89805  Biso   1.000  H
  C55      1.0000 0.55554  0.43280  0.89709  Biso   1.000  C
  H37      1.0000 0.58228  0.46151  0.97815  Biso   1.000  H
  N3       1.0000 0.53757  0.39512  0.80351  Biso   1.000  N
  C56      1.0000 0.60091  0.74981  0.76490  Biso   1.000  C
  H38      1.0000 0.62769  0.76731  0.85041  Biso   1.000  H
  N4       1.0000 0.58543  0.72811  0.66281  Biso   1.000  N
  C57      1.0000 0.96011  0.71550  0.93998  Biso   1.000  C
  H39      1.0000 0.89721  0.74516  0.88658  Biso   1.000  H
  H40      1.0000 0.90651  0.69335  0.86856  Biso   1.000  H
  C58      1.0000 0.96323  0.70381  0.92048  Biso   1.000  C
  H41      1.0000 0.90344  0.74783  0.89953  Biso   1.000  H
  H42      1.0000 0.89583  0.70233  0.86188  Biso   1.000  H
  C59      1.0000 0.69472  0.71910  0.95320  Biso   1.000  C
  H43      1.0000 0.81177  0.64697  0.99312  Biso   1.000  H
  C60      1.0000 0.74637  0.66162  0.01751  Biso   1.000  C
  C61      1.0000 0.90278  0.42622  0.19272  Biso   1.000  C
  H44      1.0000 0.90463  0.48391  0.13940  Biso   1.000  H
  H45      1.0000 0.91700  0.43682  0.11109  Biso   1.000  H
  H46      1.0000 0.90124  0.43213  0.16423  Biso   1.000  H
  H47      1.0000 0.91659  0.43710  0.10446  Biso   1.000  H
  C62      1.0000 0.88830  0.37089  0.11541  Biso   1.000  C
  C63      1.0000 0.68430  0.56959  0.05031  Biso   1.000  C
  C64      1.0000 0.75459  0.63070  0.07043  Biso   1.000  C
  H48      1.0000 0.63172  0.51764  0.03304  Biso   1.000  H
  C65      1.0000 0.07932  0.40502  0.96860  Biso   1.000  C
  H49      1.0000 0.05466  0.46844  0.99046  Biso   1.000  H
  H50      1.0000 0.07480  0.47066  0.93356  Biso   1.000  H
  H51      1.0000 0.03536  0.44798  0.98051  Biso   1.000  H
  C66      1.0000 0.99170  0.39600  0.00433  Biso   1.000  C
  H52      1.0000 0.04682  0.39815  0.95795  Biso   1.000  H
  N5       1.0000 0.50669  0.44199  0.89090  Biso   1.000  N
  Te2      1.0000 0.46851  0.41551  0.81324  Biso   1.000  Te
  N6       1.0000 0.55291  0.75942  0.75818  Biso   1.000  N
  Te3      1.0000 0.51600  0.74646  0.67450  Biso   1.000  Te
  C67      1.0000 0.98753  0.66880  0.94748  Biso   1.000  C
  H53      1.0000 0.95845  0.72713  0.97815  Biso   1.000  H
  H54      1.0000 0.97987  0.73790  0.92349  Biso   1.000  H
  C68      1.0000 0.99532  0.73832  0.89648  Biso   1.000  C
  H55      1.0000 0.97343  0.70452  0.96280  Biso   1.000  H
  H56      1.0000 0.96954  0.67233  0.90800  Biso   1.000  H
  H57      1.0000 0.66587  0.73790  0.94360  Biso   1.000  H
  C69      1.0000 0.70189  0.69011  0.00049  Biso   1.000  C
  C70      1.0000 0.90008  0.37321  0.18979  Biso   1.000  C
  H58      1.0000 0.93577  0.43516  0.21658  Biso   1.000  H
  H59      1.0000 0.87728  0.43742  0.21213  Biso   1.000  H
  C71      1.0000 0.84618  0.34849  0.14032  Biso   1.000  C
  H60      1.0000 0.92074  0.35740  0.13487  Biso   1.000  H
  H61      1.0000 0.88213  0.36342  0.07422  Biso   1.000  H
  O7       1.0000 0.65501  0.60256  0.07195  Biso   1.000  O
  C72      1.0000 0.80976  0.63010  0.10629  Biso   1.000  C
  H62      1.0000 0.73383  0.64341  0.09564  Biso   1.000  H
  H63      1.0000 0.11333  0.40921  0.99172  Biso   1.000  H
  H64      1.0000 0.06018  0.38670  0.99002  Biso   1.000  H
  H65      1.0000 0.08035  0.38892  0.93308  Biso   1.000  H
  H66      1.0000 0.97682  0.36694  0.98775  Biso   1.000  H
  H67      1.0000 0.96532  0.41674  0.01026  Biso   1.000  H
  H68      1.0000 0.01498  0.38984  0.04107  Biso   1.000  H
  H69      1.0000 0.97805  0.65137  0.91114  Biso   1.000  H
  H70      1.0000 0.97659  0.65067  0.97715  Biso   1.000  H
  C73      1.0000 0.04453  0.67402  0.96472  Biso   1.000  C
  H71      1.0000 0.97345  0.76252  0.87480  Biso   1.000  H
  C74      1.0000 0.03634  0.76171  0.94260  Biso   1.000  C
  H72      1.0000 0.01121  0.72191  0.86934  Biso   1.000  H
  O8       1.0000 0.66878  0.69032  0.03701  Biso   1.000  O
  C75      1.0000 0.91279  0.34740  0.24821  Biso   1.000  C
  H73      1.0000 0.92315  0.36233  0.16685  Biso   1.000  H
  H74      1.0000 0.86601  0.36434  0.16907  Biso   1.000  H
  C76      1.0000 0.86778  0.32391  0.19922  Biso   1.000  C
  H75      1.0000 0.88549  0.34648  0.22701  Biso   1.000  H
  H76      1.0000 0.82776  0.32570  0.11266  Biso   1.000  H
  H77      1.0000 0.82247  0.37275  0.14556  Biso   1.000  H
  C77      1.0000 0.61480  0.62351  0.03330  Biso   1.000  C
  C78      1.0000 0.81268  0.61090  0.16672  Biso   1.000  C
  H78      1.0000 0.83016  0.61073  0.08679  Biso   1.000  H
  H79      1.0000 0.82343  0.66187  0.10921  Biso   1.000  H
  H80      1.0000 0.05915  0.65165  0.94212  Biso   1.000  H
  H81      1.0000 0.05321  0.70533  0.95385  Biso   1.000  H
  C79      1.0000 0.06928  0.66651  0.02850  Biso   1.000  C
  C80      1.0000 0.04822  0.81140  0.92781  Biso   1.000  C
  H82      1.0000 0.06705  0.74294  0.94853  Biso   1.000  H
  H83      1.0000 0.02566  0.76199  0.97907  Biso   1.000  H
  C81      1.0000 0.62159  0.67021  0.01511  Biso   1.000  C
  H84      1.0000 0.90997  0.31412  0.24154  Biso   1.000  H
  H85      1.0000 0.94690  0.35500  0.26876  Biso   1.000  H
  H86      1.0000 0.88958  0.35705  0.27103  Biso   1.000  H
  H87      1.0000 0.84043  0.31042  0.21327  Biso   1.000  H
  H88      1.0000 0.89079  0.29946  0.19411  Biso   1.000  H
  C82      1.0000 0.56947  0.60122  0.01790  Biso   1.000  C
  C83      1.0000 0.86590  0.61182  0.20441  Biso   1.000  C
  H89      1.0000 0.79081  0.62939  0.18517  Biso   1.000  H
  H90      1.0000 0.80032  0.57875  0.16353  Biso   1.000  H
  H91      1.0000 0.10538  0.67056  0.03478  Biso   1.000  H
  H92      1.0000 0.05614  0.68902  0.05145  Biso   1.000  H
  H93      1.0000 0.06211  0.63524  0.03967  Biso   1.000  H
  H94      1.0000 0.07442  0.82408  0.95883  Biso   1.000  H
  H95      1.0000 0.05965  0.81144  0.89225  Biso   1.000  H
  H96      1.0000 0.01826  0.83049  0.92283  Biso   1.000  H
  C84      1.0000 0.58244  0.69582  0.98160  Biso   1.000  C
  C85      1.0000 0.52604  0.62531  0.97959  Biso   1.000  C
  H97      1.0000 0.56588  0.57097  0.03138  Biso   1.000  H
  C86      1.0000 0.87349  0.60210  0.26763  Biso   1.000  C
  H98      1.0000 0.88579  0.58903  0.18870  Biso   1.000  H
  H99      1.0000 0.88011  0.64264  0.20031  Biso   1.000  H
  C87      1.0000 0.53322  0.67423  0.96258  Biso   1.000  C
  H100     1.0000 0.58754  0.72670  0.97130  Biso   1.000  H
  N7       1.0000 0.48142  0.60541  0.96101  Biso   1.000  N
  C88      1.0000 0.85330  0.64390  0.29363  Biso   1.000  C
  H101     1.0000 0.90928  0.59773  0.28560  Biso   1.000  H
  H102     1.0000 0.85530  0.57382  0.27369  Biso   1.000  H
  N8       1.0000 0.49293  0.69610  0.92959  Biso   1.000  N
  Te4      1.0000 0.43423  0.65162  0.91254  Biso   1.000  Te
  C89      1.0000 0.85879  0.64721  0.35759  Biso   1.000  C
  H103     1.0000 0.86912  0.67162  0.28181  Biso   1.000  H
  H104     1.0000 0.81724  0.64602  0.27539  Biso   1.000  H
  H105     1.0000 0.88920  0.66437  0.37491  Biso   1.000  H
  H106     1.0000 0.86083  0.61615  0.37404  Biso   1.000  H
  H107     1.0000 0.82995  0.66338  0.36536  Biso   1.000  H
  Te5      1.0000 0.45673  0.48010  0.41024  Biso   1.000  Te
  N9       1.0000 0.39514  0.43728  0.39650  Biso   1.000  N
  N10      1.0000 0.40878  0.52511  0.35828  Biso   1.000  N
  C90      1.0000 0.35692  0.45749  0.36181  Biso   1.000  C
  C91      1.0000 0.36342  0.50592  0.34148  Biso   1.000  C
  C92      1.0000 0.30770  0.43530  0.34362  Biso   1.000  C
  C93      1.0000 0.32101  0.52881  0.30239  Biso   1.000  C
  C94      1.0000 0.27021  0.45802  0.30531  Biso   1.000  C
  H108     1.0000 0.30194  0.40579  0.35789  Biso   1.000  H
  C95      1.0000 0.27671  0.50461  0.28520  Biso   1.000  C
  H109     1.0000 0.32393  0.55938  0.28939  Biso   1.000  H
  O9       1.0000 0.22216  0.43798  0.28695  Biso   1.000  O
  O10      1.0000 0.23496  0.52599  0.24820  Biso   1.000  O
  C96      1.0000 0.21561  0.40502  0.24048  Biso   1.000  C
  C97      1.0000 0.23371  0.52620  0.18800  Biso   1.000  C
  C98      1.0000 0.23592  0.36071  0.25161  Biso   1.000  C
  C99      1.0000 0.18572  0.41752  0.18629  Biso   1.000  C
  C100     1.0000 0.19699  0.49912  0.15069  Biso   1.000  C
  C101     1.0000 0.26440  0.55702  0.16688  Biso   1.000  C
  C102     1.0000 0.22729  0.32782  0.20741  Biso   1.000  C
  H110     1.0000 0.25522  0.35300  0.28852  Biso   1.000  H
  C103     1.0000 0.17769  0.38371  0.14319  Biso   1.000  C
  C104     1.0000 0.16249  0.46570  0.17569  Biso   1.000  C
  C105     1.0000 0.19449  0.50261  0.09118  Biso   1.000  C
  C106     1.0000 0.26031  0.55941  0.10772  Biso   1.000  C
  H111     1.0000 0.28768  0.57583  0.19236  Biso   1.000  H
  O11      1.0000 0.24438  0.28073  0.21919  Biso   1.000  O
  C107     1.0000 0.19641  0.33810  0.15148  Biso   1.000  C
  H112     1.0000 0.15865  0.39191  0.10632  Biso   1.000  H
  C108     1.0000 0.10790  0.46439  0.13730  Biso   1.000  C
  H113     1.0000 0.16056  0.47841  0.21378  Biso   1.000  H
  C109     1.0000 0.22530  0.53282  0.06802  Biso   1.000  C
  H114     1.0000 0.17123  0.48383  0.06566  Biso   1.000  H
  O12      1.0000 0.28915  0.59308  0.08604  Biso   1.000  O
  C110     1.0000 0.29641  0.27312  0.22669  Biso   1.000  C
  C111     1.0000 0.18708  0.30112  0.10248  Biso   1.000  C
  C112     1.0000 0.07781  0.50930  0.13259  Biso   1.000  C
  H115     1.0000 0.08934  0.44009  0.15244  Biso   1.000  H
  H116     1.0000 0.10954  0.45492  0.09830  Biso   1.000  H
  C113     1.0000 0.08830  0.51462  0.12801  Biso   1.000  C
  H117     1.0000 0.08630  0.44594  0.15628  Biso   1.000  H
  H118     1.0000 0.10768  0.44988  0.10004  Biso   1.000  H
  C114     1.0000 0.22059  0.53599  0.00262  Biso   1.000  C
  C115     1.0000 0.34071  0.58424  0.09428  Biso   1.000  C
  C116     1.0000 0.31321  0.25611  0.17700  Biso   1.000  C
  C117     1.0000 0.32949  0.27802  0.27918  Biso   1.000  C
  C118     1.0000 0.13121  0.30380  0.06610  Biso   1.000  C
  C119     1.0000 0.22499  0.30580  0.06688  Biso   1.000  C
  H119     1.0000 0.19182  0.26999  0.12107  Biso   1.000  H
  C120     1.0000 0.02529  0.50370  0.09188  Biso   1.000  C
  H120     1.0000 0.07423  0.51849  0.17107  Biso   1.000  H
  H121     1.0000 0.09607  0.53423  0.11810  Biso   1.000  H
  C121     1.0000 0.03259  0.51941  0.10148  Biso   1.000  C
  H122     1.0000 0.09591  0.53053  0.16566  Biso   1.000  H
  H123     1.0000 0.10681  0.53078  0.10349  Biso   1.000  H
  C122     1.0000 0.16535  0.53642  0.96680  Biso   1.000  C
  H124     1.0000 0.23518  0.56649  0.99572  Biso   1.000  H
  C123     1.0000 0.25326  0.49870  0.98360  Biso   1.000  C
  C124     1.0000 0.35768  0.56251  0.04738  Biso   1.000  C
  C125     1.0000 0.37461  0.59981  0.14380  Biso   1.000  C
  O13      1.0000 0.27599  0.24657  0.12661  Biso   1.000  O
  C126     1.0000 0.36242  0.24459  0.18189  Biso   1.000  C
  C127     1.0000 0.38020  0.26710  0.28668  Biso   1.000  C
  H125     1.0000 0.31788  0.28886  0.31081  Biso   1.000  H
  C128     1.0000 0.09310  0.28619  0.09838  Biso   1.000  C
  H126     1.0000 0.12809  0.28531  0.03085  Biso   1.000  H
  H127     1.0000 0.12329  0.33620  0.05458  Biso   1.000  H
  C129     1.0000 0.26978  0.27911  0.08111  Biso   1.000  C
  C130     1.0000 0.21781  0.33521  0.01719  Biso   1.000  C
  H128     1.0000 0.00535  0.48186  0.10894  Biso   1.000  H
  H129     1.0000 0.02865  0.49074  0.05497  Biso   1.000  H
  H130     1.0000 0.02495  0.50497  0.06313  Biso   1.000  H
  H131     1.0000 0.01386  0.50243  0.12526  Biso   1.000  H
  C131     1.0000 0.99851  0.55050  0.08159  Biso   1.000  C
  C132     1.0000 0.01442  0.57030  0.09550  Biso   1.000  C
  C133     1.0000 0.15994  0.55131  0.90341  Biso   1.000  C
  H132     1.0000 0.14577  0.55783  0.98490  Biso   1.000  H
  H133     1.0000 0.15106  0.50518  0.96745  Biso   1.000  H
  C134     1.0000 0.23583  0.45362  0.96628  Biso   1.000  C
  C135     1.0000 0.30405  0.50792  0.98421  Biso   1.000  C
  O14      1.0000 0.32152  0.55420  0.99660  Biso   1.000  O
  C136     1.0000 0.40751  0.55360  0.05209  Biso   1.000  C
  C137     1.0000 0.42750  0.59171  0.14869  Biso   1.000  C
  H134     1.0000 0.36347  0.61520  0.17325  Biso   1.000  H
  C138     1.0000 0.39912  0.25019  0.23511  Biso   1.000  C
  H135     1.0000 0.37234  0.23269  0.14960  Biso   1.000  H
  N11      1.0000 0.41460  0.27189  0.33721  Biso   1.000  N
  C139     1.0000 0.03991  0.28450  0.05999  Biso   1.000  C
  H136     1.0000 0.10282  0.25488  0.11343  Biso   1.000  H
  H137     1.0000 0.09351  0.30668  0.13141  Biso   1.000  H
  C140     1.0000 0.03679  0.29619  0.07949  Biso   1.000  C
  H138     1.0000 0.09658  0.25217  0.10043  Biso   1.000  H
  H139     1.0000 0.10420  0.29770  0.13813  Biso   1.000  H
  C141     1.0000 0.30531  0.28090  0.04681  Biso   1.000  C
  H140     1.0000 0.18826  0.35307  0.00689  Biso   1.000  H
  C142     1.0000 0.25366  0.33842  0.98250  Biso   1.000  C
  H141     1.0000 0.01776  0.57139  0.06248  Biso   1.000  H
  C143     1.0000 0.94539  0.54779  0.04568  Biso   1.000  C
  H142     1.0000 0.99801  0.56431  0.11911  Biso   1.000  H
  C144     1.0000 0.98018  0.58100  0.03691  Biso   1.000  C
  H143     1.0000 0.99639  0.57688  0.12556  Biso   1.000  H
  H144     1.0000 0.04376  0.59093  0.10196  Biso   1.000  H
  C145     1.0000 0.10524  0.54892  0.86698  Biso   1.000  C
  H145     1.0000 0.17232  0.58326  0.90258  Biso   1.000  H
  H146     1.0000 0.18099  0.53103  0.88582  Biso   1.000  H
  C146     1.0000 0.10904  0.57530  0.87697  Biso   1.000  C
  H147     1.0000 0.18729  0.57269  0.90131  Biso   1.000  H
  H148     1.0000 0.16317  0.52367  0.88033  Biso   1.000  H
  C147     1.0000 0.26564  0.41829  0.94839  Biso   1.000  C
  H149     1.0000 0.20247  0.44615  0.96662  Biso   1.000  H
  C148     1.0000 0.33495  0.47492  0.96697  Biso   1.000  C
  C149     1.0000 0.44449  0.56720  0.10292  Biso   1.000  C
  H150     1.0000 0.41775  0.53849  0.02186  Biso   1.000  H
  N12      1.0000 0.46246  0.60488  0.19650  Biso   1.000  N
  N13      1.0000 0.44711  0.24061  0.24179  Biso   1.000  N
  Te6      1.0000 0.48402  0.25354  0.32547  Biso   1.000  Te
  C150     1.0000 0.01249  0.33120  0.05249  Biso   1.000  C
  H151     1.0000 0.04157  0.27287  0.02186  Biso   1.000  H
  H152     1.0000 0.02016  0.26210  0.07652  Biso   1.000  H
  C151     1.0000 0.00470  0.26171  0.10349  Biso   1.000  C
  H153     1.0000 0.02659  0.29552  0.03717  Biso   1.000  H
  H154     1.0000 0.03047  0.32771  0.09197  Biso   1.000  H
  H155     1.0000 0.33416  0.26210  0.05641  Biso   1.000  H
  C152     1.0000 0.29813  0.30989  0.99948  Biso   1.000  C
  C153     1.0000 0.24544  0.36930  0.92958  Biso   1.000  C
  C154     1.0000 0.92070  0.59502  0.03141  Biso   1.000  C
  H156     1.0000 0.94537  0.53156  0.00955  Biso   1.000  H
  H157     1.0000 0.92523  0.52934  0.06645  Biso   1.000  H
  H158     1.0000 0.96466  0.55205  0.01950  Biso   1.000  H
  H159     1.0000 0.95320  0.60185  0.04206  Biso   1.000  H
  C155     1.0000 0.00833  0.60400  0.99568  Biso   1.000  C
  C156     1.0000 0.09724  0.57382  0.80729  Biso   1.000  C
  H160     1.0000 0.09539  0.51609  0.86056  Biso   1.000  H
  H161     1.0000 0.08303  0.56322  0.88892  Biso   1.000  H
  H162     1.0000 0.09878  0.56787  0.83578  Biso   1.000  H
  H163     1.0000 0.08344  0.56294  0.89555  Biso   1.000  H
  C157     1.0000 0.11173  0.62911  0.88460  Biso   1.000  C
  C158     1.0000 0.31573  0.43041  0.94970  Biso   1.000  C
  H164     1.0000 0.36830  0.48236  0.96693  Biso   1.000  H
  N14      1.0000 0.49334  0.55801  0.10912  Biso   1.000  N
  Te7      1.0000 0.53152  0.58449  0.18677  Biso   1.000  Te
  H165     1.0000 0.02197  0.34863  0.08887  Biso   1.000  H
  H166     1.0000 0.02344  0.34933  0.02286  Biso   1.000  H
  C159     1.0000 0.95550  0.32602  0.03530  Biso   1.000  C
  H167     1.0000 0.02658  0.23751  0.12521  Biso   1.000  H
  C160     1.0000 0.96369  0.23829  0.05742  Biso   1.000  C
  H168     1.0000 0.98881  0.27809  0.13062  Biso   1.000  H
  O15      1.0000 0.33125  0.30971  0.96300  Biso   1.000  O
  C161     1.0000 0.19022  0.36990  0.89368  Biso   1.000  C
  H169     1.0000 0.26620  0.35662  0.90437  Biso   1.000  H
  H170     1.0000 0.88669  0.59079  0.00829  Biso   1.000  H
  H171     1.0000 0.93985  0.61330  0.00999  Biso   1.000  H
  H172     1.0000 0.91968  0.61108  0.06693  Biso   1.000  H
  H173     1.0000 0.02320  0.63306  0.01226  Biso   1.000  H
  H174     1.0000 0.98504  0.61020  0.95890  Biso   1.000  H
  H175     1.0000 0.03470  0.58326  0.98970  Biso   1.000  H
  C162     1.0000 0.09994  0.62682  0.81017  Biso   1.000  C
  H176     1.0000 0.06426  0.56484  0.78343  Biso   1.000  H
  H177     1.0000 0.12275  0.56258  0.78788  Biso   1.000  H
  C163     1.0000 0.15385  0.65151  0.85969  Biso   1.000  C
  H178     1.0000 0.07929  0.64260  0.86514  Biso   1.000  H
  H179     1.0000 0.11788  0.63658  0.92574  Biso   1.000  H
  O16      1.0000 0.34501  0.39744  0.92806  Biso   1.000  O
  C164     1.0000 0.93073  0.33352  0.97147  Biso   1.000  C
  H180     1.0000 0.94087  0.34835  0.05790  Biso   1.000  H
  H181     1.0000 0.94682  0.29471  0.04616  Biso   1.000  H
  C165     1.0000 0.95181  0.18860  0.07221  Biso   1.000  C
  H182     1.0000 0.93298  0.25706  0.05148  Biso   1.000  H
  H183     1.0000 0.97437  0.23801  0.02094  Biso   1.000  H
  C166     1.0000 0.37844  0.32979  0.98490  Biso   1.000  C
  C167     1.0000 0.18735  0.38910  0.83330  Biso   1.000  C
  H184     1.0000 0.16987  0.38927  0.91322  Biso   1.000  H
  H185     1.0000 0.17659  0.33817  0.89080  Biso   1.000  H
  C168     1.0000 0.08723  0.65260  0.75180  Biso   1.000  C
  H186     1.0000 0.07688  0.63771  0.83316  Biso   1.000  H
  H187     1.0000 0.13401  0.63570  0.83090  Biso   1.000  H
  C169     1.0000 0.13224  0.67609  0.80079  Biso   1.000  C
  H188     1.0000 0.11454  0.65355  0.77300  Biso   1.000  H
  H189     1.0000 0.17226  0.67430  0.88731  Biso   1.000  H
  H190     1.0000 0.17756  0.62725  0.85446  Biso   1.000  H
  C170     1.0000 0.38522  0.37649  0.96667  Biso   1.000  C
  H191     1.0000 0.89464  0.32947  0.96518  Biso   1.000  H
  H192     1.0000 0.94388  0.31098  0.94852  Biso   1.000  H
  H193     1.0000 0.93791  0.36480  0.96030  Biso   1.000  H
  H194     1.0000 0.92561  0.17592  0.04119  Biso   1.000  H
  H195     1.0000 0.94038  0.18860  0.10776  Biso   1.000  H
  H196     1.0000 0.98177  0.16951  0.07718  Biso   1.000  H
  C171     1.0000 0.41759  0.30422  0.01841  Biso   1.000  C
  C172     1.0000 0.13412  0.38822  0.79560  Biso   1.000  C
  H197     1.0000 0.20921  0.37061  0.81484  Biso   1.000  H
  H198     1.0000 0.19971  0.42129  0.83648  Biso   1.000  H
  H199     1.0000 0.09004  0.68592  0.75843  Biso   1.000  H
  H200     1.0000 0.05312  0.64500  0.73120  Biso   1.000  H
  H201     1.0000 0.11044  0.64299  0.72898  Biso   1.000  H
  H202     1.0000 0.15960  0.68962  0.78674  Biso   1.000  H
  H203     1.0000 0.10923  0.70057  0.80585  Biso   1.000  H
  C173     1.0000 0.43055  0.39882  0.98207  Biso   1.000  C
  C174     1.0000 0.46680  0.32581  0.03739  Biso   1.000  C
  H204     1.0000 0.41249  0.27333  0.02871  Biso   1.000  H
  C175     1.0000 0.12654  0.39790  0.73238  Biso   1.000  C
  H205     1.0000 0.11424  0.41100  0.81131  Biso   1.000  H
  H206     1.0000 0.11991  0.35740  0.79966  Biso   1.000  H
  C176     1.0000 0.47398  0.37469  0.02042  Biso   1.000  C
  H207     1.0000 0.43414  0.42907  0.96859  Biso   1.000  H
  N15      1.0000 0.50710  0.30390  0.07042  Biso   1.000  N
  C177     1.0000 0.14673  0.35610  0.70638  Biso   1.000  C
  H208     1.0000 0.09075  0.40230  0.71441  Biso   1.000  H
  H209     1.0000 0.14473  0.42622  0.72632  Biso   1.000  H
  N16      1.0000 0.51861  0.39459  0.03900  Biso   1.000  N
  Te8      1.0000 0.56579  0.34838  0.08743  Biso   1.000  Te
  C178     1.0000 0.14123  0.35282  0.64238  Biso   1.000  C
  H210     1.0000 0.13090  0.32838  0.71816  Biso   1.000  H
  H211     1.0000 0.18279  0.35402  0.72462  Biso   1.000  H
  H212     1.0000 0.11083  0.33563  0.62510  Biso   1.000  H
  H213     1.0000 0.13919  0.38385  0.62593  Biso   1.000  H
  H214     1.0000 0.17008  0.33666  0.63465  Biso   1.000  H
  N17      1.0000 0.50668  0.55801  0.39091  Biso   1.000  N
  C179     1.0000 0.55553  0.56720  0.39711  Biso   1.000  C
  Te9      1.0000 0.46849  0.58449  0.31321  Biso   1.000  Te
  C180     1.0000 0.59250  0.55360  0.44789  Biso   1.000  C
  C181     1.0000 0.57250  0.59171  0.35130  Biso   1.000  C
  N18      1.0000 0.53755  0.60488  0.30348  Biso   1.000  N
  C182     1.0000 0.64229  0.56251  0.45260  Biso   1.000  C
  H215     1.0000 0.58226  0.53849  0.47813  Biso   1.000  H
  C183     1.0000 0.62540  0.59981  0.35618  Biso   1.000  C
  O17      1.0000 0.67856  0.55420  0.50339  Biso   1.000  O
  C184     1.0000 0.65930  0.58424  0.40570  Biso   1.000  C
  H216     1.0000 0.63654  0.61520  0.32673  Biso   1.000  H
  C185     1.0000 0.69600  0.50792  0.51578  Biso   1.000  C
  O18      1.0000 0.71086  0.59308  0.41395  Biso   1.000  O
  C186     1.0000 0.66510  0.47492  0.53301  Biso   1.000  C
  C187     1.0000 0.74683  0.49870  0.51639  Biso   1.000  C
  C188     1.0000 0.73971  0.55941  0.39231  Biso   1.000  C
  C189     1.0000 0.68432  0.43041  0.55029  Biso   1.000  C
  H217     1.0000 0.63175  0.48236  0.53305  Biso   1.000  H
  C190     1.0000 0.76421  0.45362  0.53371  Biso   1.000  C
  C191     1.0000 0.77939  0.53599  0.49741  Biso   1.000  C
  C192     1.0000 0.77472  0.53282  0.43201  Biso   1.000  C
  C193     1.0000 0.73561  0.55702  0.33310  Biso   1.000  C
  O19      1.0000 0.65503  0.39744  0.57193  Biso   1.000  O
  C194     1.0000 0.73441  0.41829  0.55160  Biso   1.000  C
  H218     1.0000 0.79761  0.44615  0.53336  Biso   1.000  H
  C195     1.0000 0.83470  0.53642  0.53318  Biso   1.000  C
  H219     1.0000 0.76487  0.56649  0.50426  Biso   1.000  H
  C196     1.0000 0.80552  0.50261  0.40880  Biso   1.000  C
  C197     1.0000 0.76630  0.52620  0.31199  Biso   1.000  C
  H220     1.0000 0.71233  0.57583  0.30763  Biso   1.000  H
  C198     1.0000 0.61483  0.37649  0.53332  Biso   1.000  C
  C199     1.0000 0.75461  0.36930  0.57040  Biso   1.000  C
  C200     1.0000 0.84011  0.55131  0.59658  Biso   1.000  C
  H221     1.0000 0.85427  0.55783  0.51508  Biso   1.000  H
  H222     1.0000 0.84903  0.50518  0.53253  Biso   1.000  H
  C201     1.0000 0.80302  0.49912  0.34929  Biso   1.000  C
  H223     1.0000 0.82878  0.48383  0.43437  Biso   1.000  H
  O20      1.0000 0.76505  0.52599  0.25178  Biso   1.000  O
  C202     1.0000 0.56950  0.39882  0.51791  Biso   1.000  C
  C203     1.0000 0.62161  0.32979  0.51508  Biso   1.000  C
  C204     1.0000 0.74642  0.33842  0.51748  Biso   1.000  C
  C205     1.0000 0.80983  0.36990  0.60631  Biso   1.000  C
  H224     1.0000 0.73385  0.35662  0.59562  Biso   1.000  H
  C206     1.0000 0.89481  0.54892  0.63301  Biso   1.000  C
  H225     1.0000 0.82773  0.58326  0.59741  Biso   1.000  H
  H226     1.0000 0.81906  0.53103  0.61416  Biso   1.000  H
  C207     1.0000 0.89100  0.57530  0.62302  Biso   1.000  C
  H227     1.0000 0.81275  0.57269  0.59867  Biso   1.000  H
  H228     1.0000 0.83687  0.52367  0.61966  Biso   1.000  H
  C208     1.0000 0.83752  0.46570  0.32429  Biso   1.000  C
  C209     1.0000 0.72330  0.50461  0.21478  Biso   1.000  C
  C210     1.0000 0.52600  0.37469  0.47961  Biso   1.000  C
  H229     1.0000 0.56590  0.42907  0.53140  Biso   1.000  H
  C211     1.0000 0.58243  0.30422  0.48162  Biso   1.000  C
  O21      1.0000 0.66880  0.30971  0.53698  Biso   1.000  O
  C212     1.0000 0.70191  0.30989  0.50051  Biso   1.000  C
  C213     1.0000 0.78220  0.33521  0.48279  Biso   1.000  C
  C214     1.0000 0.81270  0.38910  0.66669  Biso   1.000  C
  H230     1.0000 0.83021  0.38927  0.58676  Biso   1.000  H
  H231     1.0000 0.82345  0.33817  0.60919  Biso   1.000  H
  C215     1.0000 0.90280  0.57382  0.69269  Biso   1.000  C
  H232     1.0000 0.90466  0.51609  0.63942  Biso   1.000  H
  H233     1.0000 0.91702  0.56322  0.61106  Biso   1.000  H
  H234     1.0000 0.90126  0.56787  0.66420  Biso   1.000  H
  H235     1.0000 0.91660  0.56294  0.60443  Biso   1.000  H
  C216     1.0000 0.88832  0.62911  0.61538  Biso   1.000  C
  C217     1.0000 0.81429  0.41752  0.31369  Biso   1.000  C
  C218     1.0000 0.89211  0.46439  0.36268  Biso   1.000  C
  H236     1.0000 0.83945  0.47841  0.28620  Biso   1.000  H
  C219     1.0000 0.72981  0.45802  0.19471  Biso   1.000  C
  C220     1.0000 0.67900  0.52881  0.19759  Biso   1.000  C
  N19      1.0000 0.48140  0.39459  0.46098  Biso   1.000  N
  C221     1.0000 0.53321  0.32581  0.46259  Biso   1.000  C
  H237     1.0000 0.58752  0.27333  0.47128  Biso   1.000  H
  C222     1.0000 0.69471  0.28090  0.45321  Biso   1.000  C
  C223     1.0000 0.77501  0.30580  0.43310  Biso   1.000  C
  H238     1.0000 0.81176  0.35307  0.49313  Biso   1.000  H
  C224     1.0000 0.86592  0.38822  0.70438  Biso   1.000  C
  H239     1.0000 0.79083  0.37061  0.68514  Biso   1.000  H
  H240     1.0000 0.80034  0.42129  0.66350  Biso   1.000  H
  C225     1.0000 0.90010  0.62682  0.68981  Biso   1.000  C
  H241     1.0000 0.93579  0.56484  0.71656  Biso   1.000  H
  H242     1.0000 0.87730  0.56258  0.71211  Biso   1.000  H
  C226     1.0000 0.84620  0.65151  0.64029  Biso   1.000  C
  H243     1.0000 0.92076  0.64260  0.63484  Biso   1.000  H
  H244     1.0000 0.88220  0.63658  0.57424  Biso   1.000  H
  C227     1.0000 0.82229  0.38371  0.35679  Biso   1.000  C
  C228     1.0000 0.78440  0.40502  0.25950  Biso   1.000  C
  C229     1.0000 0.92220  0.50930  0.36740  Biso   1.000  C
  H245     1.0000 0.91068  0.44009  0.34759  Biso   1.000  H
  H246     1.0000 0.89047  0.45492  0.40169  Biso   1.000  H
  C230     1.0000 0.91171  0.51462  0.37198  Biso   1.000  C
  H247     1.0000 0.91372  0.44594  0.34375  Biso   1.000  H
  H248     1.0000 0.89234  0.44988  0.39999  Biso   1.000  H
  O22      1.0000 0.77785  0.43798  0.21304  Biso   1.000  O
  C231     1.0000 0.69229  0.43530  0.15641  Biso   1.000  C
  C232     1.0000 0.63659  0.50592  0.15850  Biso   1.000  C
  H249     1.0000 0.67605  0.55938  0.21060  Biso   1.000  H
  Te10     1.0000 0.43422  0.34838  0.41255  Biso   1.000  Te
  N20      1.0000 0.49292  0.30390  0.42961  Biso   1.000  N
  H250     1.0000 0.66585  0.26210  0.44357  Biso   1.000  H
  C233     1.0000 0.73019  0.27911  0.41888  Biso   1.000  C
  C234     1.0000 0.81292  0.30112  0.39750  Biso   1.000  C
  C235     1.0000 0.87351  0.39790  0.76760  Biso   1.000  C
  H251     1.0000 0.88581  0.41100  0.68868  Biso   1.000  H
  H252     1.0000 0.88014  0.35740  0.70033  Biso   1.000  H
  C236     1.0000 0.91281  0.65260  0.74819  Biso   1.000  C
  H253     1.0000 0.92317  0.63771  0.66682  Biso   1.000  H
  H254     1.0000 0.86604  0.63570  0.66909  Biso   1.000  H
  C237     1.0000 0.86780  0.67609  0.69919  Biso   1.000  C
  H255     1.0000 0.88551  0.65355  0.72698  Biso   1.000  H
  H256     1.0000 0.82779  0.67430  0.61268  Biso   1.000  H
  H257     1.0000 0.82249  0.62725  0.64553  Biso   1.000  H
  C238     1.0000 0.80360  0.33810  0.34851  Biso   1.000  C
  H258     1.0000 0.84137  0.39191  0.39370  Biso   1.000  H
  C239     1.0000 0.76409  0.36071  0.24838  Biso   1.000  C
  C240     1.0000 0.97472  0.50370  0.40810  Biso   1.000  C
  H259     1.0000 0.92578  0.51849  0.32892  Biso   1.000  H
  H260     1.0000 0.90394  0.53423  0.38188  Biso   1.000  H
  C241     1.0000 0.96742  0.51941  0.39850  Biso   1.000  C
  H261     1.0000 0.90406  0.53053  0.33433  Biso   1.000  H
  H262     1.0000 0.89321  0.53078  0.39654  Biso   1.000  H
  C242     1.0000 0.64309  0.45749  0.13822  Biso   1.000  C
  H263     1.0000 0.69807  0.40579  0.14210  Biso   1.000  H
  N21      1.0000 0.59123  0.52511  0.14171  Biso   1.000  N
  O23      1.0000 0.72403  0.24657  0.37342  Biso   1.000  O
  C243     1.0000 0.86880  0.30380  0.43389  Biso   1.000  C
  H264     1.0000 0.80819  0.26999  0.37891  Biso   1.000  H
  C244     1.0000 0.85332  0.35610  0.79360  Biso   1.000  C
  H265     1.0000 0.90930  0.40230  0.78558  Biso   1.000  H
  H266     1.0000 0.85535  0.42622  0.77367  Biso   1.000  H
  H267     1.0000 0.91000  0.68592  0.74155  Biso   1.000  H
  H268     1.0000 0.94693  0.64500  0.76878  Biso   1.000  H
  H269     1.0000 0.88960  0.64299  0.77100  Biso   1.000  H
  H270     1.0000 0.84045  0.68962  0.71324  Biso   1.000  H
  H271     1.0000 0.89081  0.70057  0.69413  Biso   1.000  H
  C245     1.0000 0.77269  0.32782  0.29262  Biso   1.000  C
  H272     1.0000 0.74480  0.35300  0.21151  Biso   1.000  H
  H273     1.0000 0.99462  0.48186  0.39104  Biso   1.000  H
  H274     1.0000 0.97137  0.49074  0.44506  Biso   1.000  H
  H275     1.0000 0.97502  0.50497  0.43685  Biso   1.000  H
  H276     1.0000 0.98615  0.50243  0.37473  Biso   1.000  H
  C246     1.0000 0.00150  0.55050  0.41840  Biso   1.000  C
  C247     1.0000 0.98559  0.57030  0.40448  Biso   1.000  C
  N22      1.0000 0.60487  0.43728  0.10349  Biso   1.000  N
  Te11     1.0000 0.54329  0.48010  0.08979  Biso   1.000  Te
  C248     1.0000 0.68680  0.25611  0.32298  Biso   1.000  C
  C249     1.0000 0.90691  0.28619  0.40160  Biso   1.000  C
  H277     1.0000 0.87192  0.28531  0.46914  Biso   1.000  H
  H278     1.0000 0.87672  0.33620  0.44540  Biso   1.000  H
  C250     1.0000 0.85882  0.35282  0.85761  Biso   1.000  C
  H279     1.0000 0.86915  0.32838  0.78182  Biso   1.000  H
  H280     1.0000 0.81725  0.35402  0.77537  Biso   1.000  H
  O24      1.0000 0.75563  0.28073  0.28079  Biso   1.000  O
  H281     1.0000 0.98224  0.57139  0.43751  Biso   1.000  H
  C251     1.0000 0.05462  0.54779  0.45430  Biso   1.000  C
  H282     1.0000 0.00200  0.56431  0.38088  Biso   1.000  H
  C252     1.0000 0.01983  0.58100  0.46312  Biso   1.000  C
  H283     1.0000 0.00359  0.57688  0.37446  Biso   1.000  H
  H284     1.0000 0.95622  0.59093  0.39807  Biso   1.000  H
  C253     1.0000 0.70360  0.27312  0.27329  Biso   1.000  C
  C254     1.0000 0.63759  0.24459  0.31810  Biso   1.000  C
  C255     1.0000 0.96010  0.28450  0.43999  Biso   1.000  C
  H285     1.0000 0.89719  0.25488  0.38655  Biso   1.000  H
  H286     1.0000 0.90650  0.30668  0.36857  Biso   1.000  H
  C256     1.0000 0.96319  0.29619  0.42049  Biso   1.000  C
  H287     1.0000 0.90339  0.25217  0.39955  Biso   1.000  H
  H288     1.0000 0.89581  0.29770  0.36186  Biso   1.000  H
  H289     1.0000 0.88922  0.33563  0.87488  Biso   1.000  H
  H290     1.0000 0.86085  0.38385  0.87405  Biso   1.000  H
  H291     1.0000 0.82997  0.33666  0.86533  Biso   1.000  H
  C257     1.0000 0.07931  0.59502  0.46861  Biso   1.000  C
  H292     1.0000 0.05461  0.53156  0.49047  Biso   1.000  H
  H293     1.0000 0.07479  0.52934  0.43358  Biso   1.000  H
  H294     1.0000 0.03535  0.55205  0.48048  Biso   1.000  H
  C258     1.0000 0.99171  0.60400  0.50430  Biso   1.000  C
  H295     1.0000 0.04681  0.60185  0.45797  Biso   1.000  H
  C259     1.0000 0.67052  0.27802  0.22080  Biso   1.000  C
  C260     1.0000 0.60090  0.25019  0.26491  Biso   1.000  C
  H296     1.0000 0.62767  0.23269  0.35038  Biso   1.000  H
  C261     1.0000 0.98752  0.33120  0.44750  Biso   1.000  C
  H297     1.0000 0.95844  0.27287  0.47813  Biso   1.000  H
  H298     1.0000 0.97986  0.26210  0.42350  Biso   1.000  H
  C262     1.0000 0.99531  0.26171  0.39650  Biso   1.000  C
  H299     1.0000 0.97342  0.29552  0.46281  Biso   1.000  H
  H300     1.0000 0.96953  0.32771  0.40801  Biso   1.000  H
  H301     1.0000 0.11333  0.59079  0.49174  Biso   1.000  H
  H302     1.0000 0.06017  0.61330  0.49004  Biso   1.000  H
  H303     1.0000 0.08033  0.61108  0.43306  Biso   1.000  H
  H304     1.0000 0.96539  0.58326  0.51028  Biso   1.000  H
  H305     1.0000 0.97681  0.63306  0.48772  Biso   1.000  H
  H306     1.0000 0.01501  0.61020  0.54108  Biso   1.000  H
  C263     1.0000 0.61981  0.26710  0.21330  Biso   1.000  C
  H307     1.0000 0.68213  0.28886  0.18917  Biso   1.000  H
  N23      1.0000 0.55290  0.24061  0.25819  Biso   1.000  N
  H308     1.0000 0.97804  0.34863  0.41116  Biso   1.000  H
  H309     1.0000 0.97657  0.34933  0.47712  Biso   1.000  H
  C264     1.0000 0.04451  0.32602  0.46469  Biso   1.000  C
  H310     1.0000 0.97344  0.23751  0.37481  Biso   1.000  H
  C265     1.0000 0.03633  0.23829  0.44261  Biso   1.000  C
  H311     1.0000 0.01120  0.27809  0.36936  Biso   1.000  H
  N24      1.0000 0.58541  0.27189  0.16278  Biso   1.000  N
  Te12     1.0000 0.51599  0.25354  0.17451  Biso   1.000  Te
  C266     1.0000 0.06931  0.33352  0.52852  Biso   1.000  C
  H312     1.0000 0.05915  0.34835  0.44213  Biso   1.000  H
  H313     1.0000 0.05320  0.29471  0.45387  Biso   1.000  H
  C267     1.0000 0.04820  0.18860  0.42778  Biso   1.000  C
  H314     1.0000 0.06700  0.25706  0.44855  Biso   1.000  H
  H315     1.0000 0.02565  0.23801  0.47909  Biso   1.000  H
  H316     1.0000 0.10541  0.32947  0.53480  Biso   1.000  H
  H317     1.0000 0.05620  0.31098  0.55147  Biso   1.000  H
  H318     1.0000 0.06214  0.36480  0.53969  Biso   1.000  H
  H319     1.0000 0.07440  0.17592  0.45880  Biso   1.000  H
  H320     1.0000 0.05964  0.18860  0.39226  Biso   1.000  H
  H321     1.0000 0.01824  0.16951  0.42280  Biso   1.000  H
  N25      1.0000 0.49335  0.44199  0.60910  Biso   1.000  N
  C268     1.0000 0.44450  0.43280  0.60290  Biso   1.000  C
  Te13     1.0000 0.53153  0.41551  0.68676  Biso   1.000  Te
  C269     1.0000 0.40752  0.44640  0.55208  Biso   1.000  C
  C270     1.0000 0.42752  0.40829  0.64871  Biso   1.000  C
  N26      1.0000 0.46247  0.39512  0.69649  Biso   1.000  N
  C271     1.0000 0.35773  0.43752  0.54741  Biso   1.000  C
  H322     1.0000 0.41776  0.46151  0.52184  Biso   1.000  H
  C272     1.0000 0.37462  0.40019  0.64378  Biso   1.000  C
  O25      1.0000 0.32147  0.44583  0.49662  Biso   1.000  O
  C273     1.0000 0.34072  0.41579  0.59431  Biso   1.000  C
  H323     1.0000 0.36348  0.38483  0.67323  Biso   1.000  H
  C274     1.0000 0.30402  0.49211  0.48419  Biso   1.000  C
  O26      1.0000 0.28915  0.40695  0.58602  Biso   1.000  O
  C275     1.0000 0.25319  0.50130  0.48358  Biso   1.000  C
  C276     1.0000 0.33493  0.52511  0.46700  Biso   1.000  C
  C277     1.0000 0.26032  0.44062  0.60770  Biso   1.000  C
  C278     1.0000 0.22063  0.46401  0.50260  Biso   1.000  C
  C279     1.0000 0.23581  0.54642  0.46630  Biso   1.000  C
  C280     1.0000 0.31570  0.56959  0.44968  Biso   1.000  C
  H324     1.0000 0.36828  0.51764  0.46696  Biso   1.000  H
  C281     1.0000 0.22531  0.46721  0.56800  Biso   1.000  C
  C282     1.0000 0.26442  0.44302  0.66691  Biso   1.000  C
  C283     1.0000 0.16532  0.46362  0.46678  Biso   1.000  C
  H325     1.0000 0.23516  0.43354  0.49575  Biso   1.000  H
  C284     1.0000 0.26562  0.58171  0.44841  Biso   1.000  C
  H326     1.0000 0.20241  0.55388  0.46661  Biso   1.000  H
  O27      1.0000 0.34498  0.60256  0.42804  Biso   1.000  O
  C285     1.0000 0.19451  0.49739  0.59121  Biso   1.000  C
  C286     1.0000 0.23372  0.47380  0.68798  Biso   1.000  C
  H327     1.0000 0.28769  0.42417  0.69234  Biso   1.000  H
  C287     1.0000 0.15991  0.44872  0.40339  Biso   1.000  C
  H328     1.0000 0.14576  0.44217  0.48493  Biso   1.000  H
  H329     1.0000 0.15100  0.49486  0.46748  Biso   1.000  H
  C288     1.0000 0.24542  0.63070  0.42961  Biso   1.000  C
  C289     1.0000 0.38520  0.62351  0.46669  Biso   1.000  C
  C290     1.0000 0.19700  0.50092  0.65068  Biso   1.000  C
  H330     1.0000 0.17124  0.51617  0.56564  Biso   1.000  H
  O28      1.0000 0.23497  0.47404  0.74823  Biso   1.000  O
  C291     1.0000 0.10522  0.45112  0.36700  Biso   1.000  C
  C292     1.0000 0.10902  0.42470  0.37699  Biso   1.000  C
  H331     1.0000 0.17229  0.41674  0.40256  Biso   1.000  H
  H332     1.0000 0.18097  0.46901  0.38585  Biso   1.000  H
  H333     1.0000 0.18728  0.42731  0.40134  Biso   1.000  H
  H334     1.0000 0.16315  0.47633  0.38035  Biso   1.000  H
  C293     1.0000 0.19020  0.63010  0.39370  Biso   1.000  C
  H335     1.0000 0.26617  0.64341  0.40435  Biso   1.000  H
  C294     1.0000 0.25359  0.66162  0.48249  Biso   1.000  C
  C295     1.0000 0.37841  0.67021  0.48489  Biso   1.000  C
  C296     1.0000 0.43053  0.60122  0.48210  Biso   1.000  C
  C297     1.0000 0.16250  0.53430  0.67568  Biso   1.000  C
  C298     1.0000 0.27672  0.49542  0.78518  Biso   1.000  C
  C299     1.0000 0.09722  0.42622  0.30732  Biso   1.000  C
  H336     1.0000 0.09877  0.43213  0.33581  Biso   1.000  H
  H337     1.0000 0.09537  0.48391  0.36059  Biso   1.000  H
  H338     1.0000 0.08300  0.43682  0.38891  Biso   1.000  H
  H339     1.0000 0.08341  0.43710  0.39554  Biso   1.000  H
  C300     1.0000 0.11170  0.37089  0.38459  Biso   1.000  C
  C301     1.0000 0.18732  0.61090  0.33328  Biso   1.000  C
  H340     1.0000 0.16981  0.61073  0.41325  Biso   1.000  H
  H341     1.0000 0.17657  0.66187  0.39078  Biso   1.000  H
  C302     1.0000 0.21783  0.66482  0.51722  Biso   1.000  C
  C303     1.0000 0.29811  0.69011  0.49950  Biso   1.000  C
  O29      1.0000 0.33122  0.69032  0.46299  Biso   1.000  O
  C304     1.0000 0.41760  0.69582  0.51839  Biso   1.000  C
  C305     1.0000 0.47403  0.62531  0.52040  Biso   1.000  C
  H342     1.0000 0.43412  0.57097  0.46861  Biso   1.000  H
  C306     1.0000 0.10791  0.53561  0.63728  Biso   1.000  C
  H343     1.0000 0.16057  0.52162  0.71376  Biso   1.000  H
  C307     1.0000 0.18573  0.58252  0.68628  Biso   1.000  C
  C308     1.0000 0.32103  0.47119  0.80242  Biso   1.000  C
  C309     1.0000 0.27022  0.54202  0.80530  Biso   1.000  C
  C310     1.0000 0.09992  0.37321  0.31020  Biso   1.000  C
  H344     1.0000 0.06423  0.43516  0.28341  Biso   1.000  H
  H345     1.0000 0.12272  0.43742  0.28786  Biso   1.000  H
  C311     1.0000 0.15383  0.34849  0.35972  Biso   1.000  C
  H346     1.0000 0.07927  0.35740  0.36517  Biso   1.000  H
  H347     1.0000 0.11783  0.36342  0.42577  Biso   1.000  H
  C312     1.0000 0.13409  0.61182  0.29558  Biso   1.000  C
  H348     1.0000 0.20920  0.62939  0.31487  Biso   1.000  H
  H349     1.0000 0.19968  0.57875  0.33646  Biso   1.000  H
  C313     1.0000 0.22501  0.69420  0.56691  Biso   1.000  C
  H350     1.0000 0.18827  0.64697  0.50688  Biso   1.000  H
  C314     1.0000 0.30532  0.71910  0.54680  Biso   1.000  C
  C315     1.0000 0.46681  0.67423  0.53742  Biso   1.000  C
  H351     1.0000 0.41250  0.72670  0.52869  Biso   1.000  H
  N27      1.0000 0.51862  0.60541  0.53899  Biso   1.000  N
  C316     1.0000 0.07783  0.49070  0.63261  Biso   1.000  C
  H352     1.0000 0.08935  0.55994  0.65242  Biso   1.000  H
  H353     1.0000 0.10955  0.54508  0.59832  Biso   1.000  H
  C317     1.0000 0.08831  0.48542  0.62799  Biso   1.000  C
  H354     1.0000 0.08630  0.55406  0.65626  Biso   1.000  H
  H355     1.0000 0.10769  0.55012  0.60002  Biso   1.000  H
  C318     1.0000 0.21563  0.59502  0.74051  Biso   1.000  C
  C319     1.0000 0.17774  0.61629  0.64322  Biso   1.000  C
  C320     1.0000 0.36344  0.49412  0.84151  Biso   1.000  C
  H356     1.0000 0.32398  0.44066  0.78942  Biso   1.000  H
  O30      1.0000 0.22217  0.56202  0.78693  Biso   1.000  O
  C321     1.0000 0.30774  0.56470  0.84360  Biso   1.000  C
  C322     1.0000 0.13223  0.32391  0.30082  Biso   1.000  C
  C323     1.0000 0.08720  0.34740  0.25178  Biso   1.000  C
  H357     1.0000 0.11452  0.34648  0.27303  Biso   1.000  H
  H358     1.0000 0.07686  0.36233  0.33319  Biso   1.000  H
  H359     1.0000 0.13399  0.36434  0.33092  Biso   1.000  H
  H360     1.0000 0.17224  0.32570  0.38733  Biso   1.000  H
  H361     1.0000 0.17753  0.37275  0.35444  Biso   1.000  H
  C324     1.0000 0.12652  0.60210  0.23241  Biso   1.000  C
  H362     1.0000 0.11422  0.58903  0.31133  Biso   1.000  H
  H363     1.0000 0.11989  0.64264  0.29968  Biso   1.000  H
  C325     1.0000 0.18710  0.69892  0.60251  Biso   1.000  C
  C326     1.0000 0.26983  0.72093  0.58109  Biso   1.000  C
  H364     1.0000 0.33417  0.73790  0.55640  Biso   1.000  H
  N28      1.0000 0.50711  0.69610  0.57040  Biso   1.000  N
  Te14     1.0000 0.56581  0.65162  0.58746  Biso   1.000  Te
  C327     1.0000 0.02531  0.49630  0.59191  Biso   1.000  C
  H365     1.0000 0.07424  0.48151  0.67105  Biso   1.000  H
  H366     1.0000 0.09608  0.46580  0.61809  Biso   1.000  H
  C328     1.0000 0.03261  0.48059  0.60151  Biso   1.000  C
  H367     1.0000 0.09597  0.46950  0.66568  Biso   1.000  H
  H368     1.0000 0.10682  0.46922  0.60347  Biso   1.000  H
  C329     1.0000 0.23593  0.63933  0.75159  Biso   1.000  C
  H369     1.0000 0.15866  0.60812  0.60631  Biso   1.000  H
  C330     1.0000 0.19643  0.66190  0.65151  Biso   1.000  C
  N29      1.0000 0.40880  0.47492  0.85830  Biso   1.000  N
  C331     1.0000 0.35693  0.54251  0.86180  Biso   1.000  C
  H370     1.0000 0.30196  0.59421  0.85791  Biso   1.000  H
  H371     1.0000 0.15958  0.31042  0.28677  Biso   1.000  H
  H372     1.0000 0.10921  0.29946  0.30588  Biso   1.000  H
  H373     1.0000 0.09003  0.31412  0.25846  Biso   1.000  H
  H374     1.0000 0.05310  0.35500  0.23123  Biso   1.000  H
  H375     1.0000 0.11042  0.35705  0.22896  Biso   1.000  H
  C332     1.0000 0.14671  0.64390  0.20641  Biso   1.000  C
  H376     1.0000 0.09073  0.59773  0.21443  Biso   1.000  H
  H377     1.0000 0.14467  0.57382  0.22635  Biso   1.000  H
  C333     1.0000 0.13122  0.69620  0.56608  Biso   1.000  C
  H378     1.0000 0.19183  0.73001  0.62105  Biso   1.000  H
  O31      1.0000 0.27600  0.75343  0.62659  Biso   1.000  O
  H379     1.0000 0.00541  0.51814  0.60897  Biso   1.000  H
  H380     1.0000 0.02866  0.50930  0.55496  Biso   1.000  H
  H381     1.0000 0.02499  0.49503  0.56311  Biso   1.000  H
  H382     1.0000 0.01387  0.49757  0.62524  Biso   1.000  H
  C334     1.0000 0.99853  0.44950  0.58161  Biso   1.000  C
  C335     1.0000 0.01442  0.42970  0.59549  Biso   1.000  C
  H383     1.0000 0.25523  0.64704  0.78850  Biso   1.000  H
  C336     1.0000 0.22733  0.67222  0.70739  Biso   1.000  C
  Te15     1.0000 0.45674  0.51990  0.91022  Biso   1.000  Te
  N30      1.0000 0.39515  0.56272  0.89648  Biso   1.000  N
  C337     1.0000 0.14121  0.64721  0.14240  Biso   1.000  C
  H384     1.0000 0.13088  0.67162  0.21819  Biso   1.000  H
  H385     1.0000 0.18276  0.64602  0.22460  Biso   1.000  H
  C338     1.0000 0.09311  0.71381  0.59841  Biso   1.000  C
  H386     1.0000 0.12809  0.71469  0.53083  Biso   1.000  H
  H387     1.0000 0.12331  0.66380  0.55461  Biso   1.000  H
  C339     1.0000 0.31322  0.74392  0.67698  Biso   1.000  C
  H388     1.0000 0.01778  0.42865  0.56250  Biso   1.000  H
  C340     1.0000 0.94541  0.45221  0.54571  Biso   1.000  C
  H389     1.0000 0.99802  0.43569  0.61909  Biso   1.000  H
  C341     1.0000 0.98019  0.41900  0.53689  Biso   1.000  C
  H390     1.0000 0.99644  0.42312  0.62555  Biso   1.000  H
  H391     1.0000 0.04381  0.40910  0.60194  Biso   1.000  H
  O32      1.0000 0.24439  0.71931  0.71922  Biso   1.000  O
  H392     1.0000 0.11081  0.66437  0.12513  Biso   1.000  H
  H393     1.0000 0.13917  0.61615  0.12596  Biso   1.000  H
  H394     1.0000 0.17006  0.66338  0.13468  Biso   1.000  H
  C342     1.0000 0.03993  0.71550  0.56002  Biso   1.000  C
  H395     1.0000 0.10283  0.74516  0.61342  Biso   1.000  H
  H396     1.0000 0.09353  0.69335  0.63144  Biso   1.000  H
  C343     1.0000 0.03684  0.70381  0.57952  Biso   1.000  C
  H397     1.0000 0.09664  0.74783  0.60046  Biso   1.000  H
  H398     1.0000 0.10421  0.70233  0.63811  Biso   1.000  H
  C344     1.0000 0.29642  0.72691  0.72668  Biso   1.000  C
  C345     1.0000 0.36244  0.75541  0.68191  Biso   1.000  C
  C346     1.0000 0.92071  0.40502  0.53140  Biso   1.000  C
  H399     1.0000 0.94542  0.46844  0.50954  Biso   1.000  H
  H400     1.0000 0.92523  0.47066  0.56643  Biso   1.000  H
  H401     1.0000 0.96467  0.44798  0.51949  Biso   1.000  H
  C347     1.0000 0.00831  0.39600  0.49571  Biso   1.000  C
  H402     1.0000 0.95321  0.39815  0.54204  Biso   1.000  H
  C348     1.0000 0.01250  0.66880  0.55251  Biso   1.000  C
  H403     1.0000 0.04158  0.72713  0.52184  Biso   1.000  H
  H404     1.0000 0.02016  0.73790  0.57651  Biso   1.000  H
  C349     1.0000 0.00472  0.73832  0.60351  Biso   1.000  C
  H405     1.0000 0.02660  0.70452  0.53715  Biso   1.000  H
  H406     1.0000 0.03049  0.67233  0.59200  Biso   1.000  H
  C350     1.0000 0.32951  0.72202  0.77921  Biso   1.000  C
  C351     1.0000 0.39913  0.74981  0.73510  Biso   1.000  C
  H407     1.0000 0.37235  0.76731  0.64959  Biso   1.000  H
  H408     1.0000 0.88670  0.40921  0.50827  Biso   1.000  H
  H409     1.0000 0.93986  0.38670  0.50997  Biso   1.000  H
  H410     1.0000 0.91969  0.38892  0.56691  Biso   1.000  H
  H411     1.0000 0.03464  0.41674  0.48973  Biso   1.000  H
  H412     1.0000 0.02321  0.36694  0.51224  Biso   1.000  H
  H413     1.0000 0.98502  0.38984  0.45893  Biso   1.000  H
  H414     1.0000 0.02198  0.65137  0.58885  Biso   1.000  H
  H415     1.0000 0.02345  0.65067  0.52284  Biso   1.000  H
  C352     1.0000 0.95550  0.67402  0.53528  Biso   1.000  C
  H416     1.0000 0.02659  0.76252  0.62520  Biso   1.000  H
  C353     1.0000 0.96370  0.76171  0.55740  Biso   1.000  C
  H417     1.0000 0.98882  0.72191  0.63065  Biso   1.000  H
  C354     1.0000 0.38021  0.73290  0.78671  Biso   1.000  C
  H418     1.0000 0.31790  0.71114  0.81084  Biso   1.000  H
  N31      1.0000 0.44712  0.75942  0.74182  Biso   1.000  N
  C355     1.0000 0.93072  0.66651  0.47149  Biso   1.000  C
  H419     1.0000 0.94088  0.65165  0.55788  Biso   1.000  H
  H420     1.0000 0.94683  0.70533  0.54614  Biso   1.000  H
  C356     1.0000 0.95181  0.81140  0.57219  Biso   1.000  C
  H421     1.0000 0.93302  0.74294  0.55147  Biso   1.000  H
  H422     1.0000 0.97438  0.76199  0.52093  Biso   1.000  H
  N32      1.0000 0.41461  0.72811  0.83719  Biso   1.000  N
  Te16     1.0000 0.48404  0.74646  0.82550  Biso   1.000  Te
  H423     1.0000 0.89462  0.67056  0.46521  Biso   1.000  H
  H424     1.0000 0.94383  0.68902  0.44855  Biso   1.000  H
  H425     1.0000 0.93789  0.63524  0.46033  Biso   1.000  H
  H426     1.0000 0.92561  0.82408  0.54117  Biso   1.000  H
  H427     1.0000 0.94039  0.81144  0.60775  Biso   1.000  H
  H428     1.0000 0.98177  0.83049  0.57716  Biso   1.000  H
  C357     1.0000 0.54822  0.68860  0.42778  Biso   1.000  C
  C358     1.0000 0.53631  0.73832  0.44261  Biso   1.000  C
  H429     1.0000 0.57438  0.67592  0.45880  Biso   1.000  H
  H430     1.0000 0.55965  0.68860  0.39226  Biso   1.000  H
  H431     1.0000 0.51822  0.66954  0.42280  Biso   1.000  H
  C359     1.0000 0.49533  0.76171  0.39650  Biso   1.000  C
  H432     1.0000 0.56702  0.75706  0.44855  Biso   1.000  H
  H433     1.0000 0.52563  0.73804  0.47909  Biso   1.000  H
  C360     1.0000 0.46012  0.78450  0.43999  Biso   1.000  C
  C361     1.0000 0.46321  0.79622  0.42049  Biso   1.000  C
  H434     1.0000 0.47988  0.76210  0.42350  Biso   1.000  H
  H435     1.0000 0.51119  0.77809  0.36936  Biso   1.000  H
  H436     1.0000 0.47346  0.73751  0.37481  Biso   1.000  H
  C362     1.0000 0.40690  0.78622  0.40160  Biso   1.000  C
  C363     1.0000 0.48750  0.83120  0.44750  Biso   1.000  C
  H437     1.0000 0.45842  0.77287  0.47813  Biso   1.000  H
  H438     1.0000 0.47344  0.79552  0.46281  Biso   1.000  H
  H439     1.0000 0.46952  0.82771  0.40801  Biso   1.000  H
  C364     1.0000 0.36882  0.80380  0.43389  Biso   1.000  C
  H440     1.0000 0.39717  0.75488  0.38655  Biso   1.000  H
  H441     1.0000 0.40652  0.80668  0.36857  Biso   1.000  H
  H442     1.0000 0.40341  0.75220  0.39955  Biso   1.000  H
  H443     1.0000 0.39579  0.79770  0.36186  Biso   1.000  H
  C365     1.0000 0.54450  0.82602  0.46469  Biso   1.000  C
  H444     1.0000 0.47806  0.84863  0.41116  Biso   1.000  H
  H445     1.0000 0.47659  0.84933  0.47712  Biso   1.000  H
  C366     1.0000 0.31291  0.80112  0.39750  Biso   1.000  C
  H446     1.0000 0.37194  0.78531  0.46914  Biso   1.000  H
  H447     1.0000 0.37670  0.83623  0.44540  Biso   1.000  H
  C367     1.0000 0.56933  0.83352  0.52852  Biso   1.000  C
  H448     1.0000 0.55913  0.84835  0.44213  Biso   1.000  H
  H449     1.0000 0.55318  0.79471  0.45387  Biso   1.000  H
  C368     1.0000 0.27500  0.80580  0.43310  Biso   1.000  C
  H450     1.0000 0.30817  0.76999  0.37891  Biso   1.000  H
  C369     1.0000 0.30361  0.83810  0.34851  Biso   1.000  C
  H451     1.0000 0.60539  0.82947  0.53480  Biso   1.000  H
  H452     1.0000 0.55618  0.81102  0.55147  Biso   1.000  H
  H453     1.0000 0.56216  0.86480  0.53969  Biso   1.000  H
  C370     1.0000 0.23021  0.77911  0.41888  Biso   1.000  C
  C371     1.0000 0.28222  0.83521  0.48279  Biso   1.000  C
  C372     1.0000 0.27271  0.82782  0.29262  Biso   1.000  C
  C373     1.0000 0.32231  0.88371  0.35679  Biso   1.000  C
  O33      1.0000 0.22401  0.74660  0.37342  Biso   1.000  O
  C374     1.0000 0.19473  0.78090  0.45321  Biso   1.000  C
  C375     1.0000 0.24641  0.83842  0.51748  Biso   1.000  C
  H454     1.0000 0.31178  0.85307  0.49313  Biso   1.000  H
  O34      1.0000 0.25561  0.78073  0.28079  Biso   1.000  O
  C376     1.0000 0.26411  0.86071  0.24838  Biso   1.000  C
  H455     1.0000 0.34138  0.89191  0.39370  Biso   1.000  H
  C377     1.0000 0.31431  0.91752  0.31369  Biso   1.000  C
  C378     1.0000 0.18682  0.75611  0.32298  Biso   1.000  C
  H456     1.0000 0.16587  0.76213  0.44357  Biso   1.000  H
  C379     1.0000 0.20193  0.80992  0.50051  Biso   1.000  C
  C380     1.0000 0.25463  0.86930  0.57040  Biso   1.000  C
  C381     1.0000 0.20362  0.77312  0.27329  Biso   1.000  C
  C382     1.0000 0.28442  0.90502  0.25950  Biso   1.000  C
  H457     1.0000 0.24478  0.85300  0.21151  Biso   1.000  H
  C383     1.0000 0.33750  0.96570  0.32429  Biso   1.000  C
  C384     1.0000 0.13761  0.74459  0.31810  Biso   1.000  C
  O35      1.0000 0.16878  0.80971  0.53698  Biso   1.000  O
  C385     1.0000 0.30981  0.86990  0.60631  Biso   1.000  C
  C386     1.0000 0.23443  0.91833  0.55160  Biso   1.000  C
  H458     1.0000 0.23387  0.85662  0.59562  Biso   1.000  H
  C387     1.0000 0.17050  0.77802  0.22080  Biso   1.000  C
  O36      1.0000 0.27786  0.93798  0.21304  Biso   1.000  O
  C388     1.0000 0.39209  0.96443  0.36268  Biso   1.000  C
  C389     1.0000 0.30300  0.99912  0.34929  Biso   1.000  C
  H459     1.0000 0.33947  0.97841  0.28620  Biso   1.000  H
  C390     1.0000 0.10092  0.75019  0.26491  Biso   1.000  C
  H460     1.0000 0.12765  0.73269  0.35038  Biso   1.000  H
  C391     1.0000 0.12162  0.82982  0.51508  Biso   1.000  C
  C392     1.0000 0.31271  0.88910  0.66669  Biso   1.000  C
  H461     1.0000 0.33019  0.88931  0.58676  Biso   1.000  H
  H462     1.0000 0.32343  0.83817  0.60919  Biso   1.000  H
  C393     1.0000 0.18430  0.93041  0.55029  Biso   1.000  C
  C394     1.0000 0.26423  0.95362  0.53371  Biso   1.000  C
  C395     1.0000 0.11980  0.76710  0.21330  Biso   1.000  C
  H463     1.0000 0.18215  0.78886  0.18917  Biso   1.000  H
  C396     1.0000 0.22979  0.95802  0.19471  Biso   1.000  C
  H464     1.0000 0.41070  0.94009  0.34759  Biso   1.000  H
  H465     1.0000 0.39045  0.95496  0.40169  Biso   1.000  H
  H466     1.0000 0.41374  0.94597  0.34375  Biso   1.000  H
  H467     1.0000 0.39235  0.94992  0.39999  Biso   1.000  H
  C397     1.0000 0.42222  0.00930  0.36740  Biso   1.000  C
  C398     1.0000 0.41169  0.01462  0.37198  Biso   1.000  C
  C399     1.0000 0.26631  0.02620  0.31199  Biso   1.000  C
  C400     1.0000 0.30550  0.00261  0.40880  Biso   1.000  C
  N33      1.0000 0.05292  0.74061  0.25819  Biso   1.000  N
  C401     1.0000 0.11481  0.87652  0.53332  Biso   1.000  C
  C402     1.0000 0.08241  0.80422  0.48162  Biso   1.000  C
  C403     1.0000 0.36590  0.88822  0.70438  Biso   1.000  C
  H468     1.0000 0.29085  0.87061  0.68514  Biso   1.000  H
  H469     1.0000 0.30032  0.92129  0.66350  Biso   1.000  H
  O37      1.0000 0.15505  0.89744  0.57193  Biso   1.000  O
  C404     1.0000 0.16512  0.97492  0.53301  Biso   1.000  C
  C405     1.0000 0.24681  0.99870  0.51639  Biso   1.000  C
  H470     1.0000 0.29759  0.94615  0.53336  Biso   1.000  H
  N34      1.0000 0.08539  0.77192  0.16278  Biso   1.000  N
  C406     1.0000 0.19230  0.93530  0.15641  Biso   1.000  C
  C407     1.0000 0.22332  0.00461  0.21478  Biso   1.000  C
  C408     1.0000 0.47470  0.00370  0.40810  Biso   1.000  C
  H471     1.0000 0.42576  0.01849  0.32892  Biso   1.000  H
  H472     1.0000 0.40396  0.03423  0.38188  Biso   1.000  H
  C409     1.0000 0.46740  0.01941  0.39850  Biso   1.000  C
  H473     1.0000 0.40408  0.03053  0.33433  Biso   1.000  H
  H474     1.0000 0.39323  0.03078  0.39654  Biso   1.000  H
  O38      1.0000 0.26507  0.02596  0.25178  Biso   1.000  O
  C410     1.0000 0.23563  0.05698  0.33310  Biso   1.000  C
  C411     1.0000 0.27470  0.03279  0.43201  Biso   1.000  C
  H475     1.0000 0.32880  0.98383  0.43437  Biso   1.000  H
  Te17     1.0000 0.01601  0.75357  0.17451  Biso   1.000  Te
  C412     1.0000 0.06952  0.89882  0.51791  Biso   1.000  C
  C413     1.0000 0.03323  0.82581  0.46259  Biso   1.000  C
  H476     1.0000 0.08750  0.77333  0.47128  Biso   1.000  H
  C414     1.0000 0.37353  0.89790  0.76760  Biso   1.000  C
  H477     1.0000 0.38583  0.91100  0.68868  Biso   1.000  H
  H478     1.0000 0.38016  0.85740  0.70033  Biso   1.000  H
  H479     1.0000 0.13173  0.98236  0.53305  Biso   1.000  H
  C415     1.0000 0.19602  0.00789  0.51578  Biso   1.000  C
  C416     1.0000 0.27941  0.03599  0.49741  Biso   1.000  C
  C417     1.0000 0.14311  0.95753  0.13822  Biso   1.000  C
  H480     1.0000 0.19809  0.90579  0.14210  Biso   1.000  H
  C418     1.0000 0.17902  0.02881  0.19759  Biso   1.000  C
  H481     1.0000 0.49464  0.98186  0.39104  Biso   1.000  H
  H482     1.0000 0.47139  0.99074  0.44506  Biso   1.000  H
  C419     1.0000 0.50152  0.05050  0.41840  Biso   1.000  C
  H483     1.0000 0.47504  0.00497  0.43685  Biso   1.000  H
  H484     1.0000 0.48613  0.00243  0.37473  Biso   1.000  H
  C420     1.0000 0.48561  0.07030  0.40448  Biso   1.000  C
  C421     1.0000 0.23973  0.05941  0.39231  Biso   1.000  C
  H485     1.0000 0.21231  0.07583  0.30763  Biso   1.000  H
  C422     1.0000 0.02601  0.87473  0.47961  Biso   1.000  C
  H486     1.0000 0.06592  0.92907  0.53140  Biso   1.000  H
  N35      1.0000 0.99290  0.80390  0.42961  Biso   1.000  N
  C423     1.0000 0.35334  0.85610  0.79360  Biso   1.000  C
  H487     1.0000 0.40928  0.90230  0.78558  Biso   1.000  H
  H488     1.0000 0.35534  0.92622  0.77367  Biso   1.000  H
  O39      1.0000 0.17854  0.05417  0.50339  Biso   1.000  O
  C424     1.0000 0.33472  0.03642  0.53318  Biso   1.000  C
  H489     1.0000 0.26485  0.06649  0.50426  Biso   1.000  H
  N36      1.0000 0.10489  0.93728  0.10349  Biso   1.000  N
  C425     1.0000 0.13661  0.00592  0.15850  Biso   1.000  C
  H490     1.0000 0.17606  0.05938  0.21060  Biso   1.000  H
  C426     1.0000 0.55460  0.04779  0.45430  Biso   1.000  C
  H491     1.0000 0.48226  0.07135  0.43751  Biso   1.000  H
  H492     1.0000 0.50202  0.06431  0.38088  Biso   1.000  H
  C427     1.0000 0.51982  0.08100  0.46312  Biso   1.000  C
  H493     1.0000 0.50361  0.07688  0.37446  Biso   1.000  H
  H494     1.0000 0.45624  0.09090  0.39807  Biso   1.000  H
  O40      1.0000 0.21085  0.09305  0.41395  Biso   1.000  O
  N37      1.0000 0.98142  0.89463  0.46098  Biso   1.000  N
  Te18     1.0000 0.93424  0.84838  0.41255  Biso   1.000  Te
  C428     1.0000 0.35883  0.85282  0.85761  Biso   1.000  C
  H495     1.0000 0.36916  0.82841  0.78182  Biso   1.000  H
  H496     1.0000 0.31727  0.85402  0.77537  Biso   1.000  H
  C429     1.0000 0.14231  0.06251  0.45260  Biso   1.000  C
  C430     1.0000 0.34012  0.05131  0.59658  Biso   1.000  C
  H497     1.0000 0.35429  0.05783  0.51508  Biso   1.000  H
  H498     1.0000 0.34901  0.00514  0.53253  Biso   1.000  H
  Te19     1.0000 0.04331  0.98010  0.08979  Biso   1.000  Te
  N38      1.0000 0.09125  0.02511  0.14171  Biso   1.000  N
  C431     1.0000 0.57933  0.09498  0.46861  Biso   1.000  C
  H499     1.0000 0.55463  0.03156  0.49047  Biso   1.000  H
  H500     1.0000 0.57477  0.02934  0.43358  Biso   1.000  H
  H501     1.0000 0.53533  0.05202  0.48048  Biso   1.000  H
  C432     1.0000 0.49170  0.10400  0.50430  Biso   1.000  C
  H502     1.0000 0.54680  0.10185  0.45797  Biso   1.000  H
  C433     1.0000 0.15932  0.08421  0.40570  Biso   1.000  C
  H503     1.0000 0.38924  0.83563  0.87488  Biso   1.000  H
  H504     1.0000 0.36087  0.88385  0.87405  Biso   1.000  H
  H505     1.0000 0.32999  0.83666  0.86533  Biso   1.000  H
  C434     1.0000 0.09252  0.05360  0.44789  Biso   1.000  C
  C435     1.0000 0.39482  0.04888  0.63301  Biso   1.000  C
  H506     1.0000 0.32775  0.08326  0.59741  Biso   1.000  H
  H507     1.0000 0.31908  0.03099  0.61416  Biso   1.000  H
  C436     1.0000 0.39102  0.07530  0.62302  Biso   1.000  C
  H508     1.0000 0.31273  0.07269  0.59867  Biso   1.000  H
  H509     1.0000 0.33689  0.02367  0.61966  Biso   1.000  H
  H510     1.0000 0.61331  0.09079  0.49174  Biso   1.000  H
  H511     1.0000 0.56015  0.11330  0.49004  Biso   1.000  H
  H512     1.0000 0.58031  0.11108  0.43306  Biso   1.000  H
  H513     1.0000 0.51499  0.11020  0.54108  Biso   1.000  H
  H514     1.0000 0.46537  0.08326  0.51028  Biso   1.000  H
  H515     1.0000 0.47683  0.13306  0.48772  Biso   1.000  H
  C437     1.0000 0.12542  0.09981  0.35618  Biso   1.000  C
  C438     1.0000 0.05551  0.06720  0.39711  Biso   1.000  C
  H516     1.0000 0.08228  0.03849  0.47813  Biso   1.000  H
  C439     1.0000 0.40282  0.07382  0.69269  Biso   1.000  C
  H517     1.0000 0.40468  0.01609  0.63942  Biso   1.000  H
  H518     1.0000 0.41704  0.06318  0.61106  Biso   1.000  H
  H519     1.0000 0.40128  0.06787  0.66420  Biso   1.000  H
  H520     1.0000 0.41659  0.06294  0.60443  Biso   1.000  H
  C440     1.0000 0.38830  0.12911  0.61538  Biso   1.000  C
  C441     1.0000 0.07252  0.09171  0.35130  Biso   1.000  C
  H521     1.0000 0.13656  0.11520  0.32673  Biso   1.000  H
  N39      1.0000 0.00666  0.05801  0.39091  Biso   1.000  N
  C442     1.0000 0.40012  0.12679  0.68981  Biso   1.000  C
  H522     1.0000 0.43581  0.06484  0.71656  Biso   1.000  H
  H523     1.0000 0.37732  0.06258  0.71211  Biso   1.000  H
  C443     1.0000 0.34622  0.15151  0.64029  Biso   1.000  C
  H524     1.0000 0.42078  0.14260  0.63484  Biso   1.000  H
  H525     1.0000 0.38218  0.13658  0.57424  Biso   1.000  H
  N40      1.0000 0.03757  0.10488  0.30348  Biso   1.000  N
  Te20     1.0000 0.96847  0.08449  0.31321  Biso   1.000  Te
  C444     1.0000 0.41283  0.15260  0.74819  Biso   1.000  C
  H526     1.0000 0.42319  0.13771  0.66682  Biso   1.000  H
  H527     1.0000 0.36602  0.13566  0.66909  Biso   1.000  H
  C445     1.0000 0.36782  0.17609  0.69919  Biso   1.000  C
  H528     1.0000 0.38553  0.15355  0.72698  Biso   1.000  H
  H529     1.0000 0.32777  0.17430  0.61268  Biso   1.000  H
  H530     1.0000 0.32247  0.12725  0.64553  Biso   1.000  H
  H531     1.0000 0.41002  0.18592  0.74155  Biso   1.000  H
  H532     1.0000 0.44695  0.14500  0.76878  Biso   1.000  H
  H533     1.0000 0.38962  0.14299  0.77100  Biso   1.000  H
  H534     1.0000 0.34043  0.18958  0.71324  Biso   1.000  H
  H535     1.0000 0.39083  0.20057  0.69413  Biso   1.000  H
  C446     1.0000 0.45180  0.31140  0.57219  Biso   1.000  C
  C447     1.0000 0.46372  0.26171  0.55740  Biso   1.000  C
  H536     1.0000 0.42560  0.32408  0.54117  Biso   1.000  H
  H537     1.0000 0.44037  0.31144  0.60775  Biso   1.000  H
  H538     1.0000 0.48179  0.33049  0.57716  Biso   1.000  H
  C448     1.0000 0.50470  0.23829  0.60351  Biso   1.000  C
  H539     1.0000 0.43300  0.24294  0.55147  Biso   1.000  H
  H540     1.0000 0.47440  0.26199  0.52093  Biso   1.000  H
  C449     1.0000 0.53991  0.21550  0.56002  Biso   1.000  C
  C450     1.0000 0.53682  0.20381  0.57952  Biso   1.000  C
  H541     1.0000 0.52015  0.23790  0.57651  Biso   1.000  H
  H542     1.0000 0.48884  0.22191  0.63065  Biso   1.000  H
  H543     1.0000 0.52657  0.26249  0.62520  Biso   1.000  H
  C451     1.0000 0.51252  0.16880  0.55251  Biso   1.000  C
  H544     1.0000 0.52658  0.20452  0.53715  Biso   1.000  H
  H545     1.0000 0.54160  0.22713  0.52184  Biso   1.000  H
  C452     1.0000 0.59313  0.21381  0.59841  Biso   1.000  C
  H546     1.0000 0.53051  0.17229  0.59200  Biso   1.000  H
  C453     1.0000 0.45552  0.17402  0.53528  Biso   1.000  C
  H547     1.0000 0.52196  0.15137  0.58885  Biso   1.000  H
  H548     1.0000 0.52343  0.15067  0.52284  Biso   1.000  H
  H549     1.0000 0.60284  0.24516  0.61342  Biso   1.000  H
  H550     1.0000 0.59351  0.19332  0.63144  Biso   1.000  H
  C454     1.0000 0.63120  0.19620  0.56608  Biso   1.000  C
  H551     1.0000 0.59662  0.24783  0.60046  Biso   1.000  H
  H552     1.0000 0.60423  0.20230  0.63811  Biso   1.000  H
  C455     1.0000 0.43070  0.16651  0.47149  Biso   1.000  C
  H553     1.0000 0.44090  0.15165  0.55788  Biso   1.000  H
  H554     1.0000 0.44685  0.20529  0.54614  Biso   1.000  H
  H555     1.0000 0.62808  0.21469  0.53083  Biso   1.000  H
  H556     1.0000 0.62333  0.16380  0.55461  Biso   1.000  H
  C456     1.0000 0.68712  0.19892  0.60251  Biso   1.000  C
  H557     1.0000 0.39464  0.17053  0.46521  Biso   1.000  H
  H558     1.0000 0.44384  0.18902  0.44855  Biso   1.000  H
  H559     1.0000 0.43787  0.13520  0.46033  Biso   1.000  H
  C457     1.0000 0.72503  0.19420  0.56691  Biso   1.000  C
  H560     1.0000 0.69184  0.23001  0.62105  Biso   1.000  H
  C458     1.0000 0.69641  0.16190  0.65151  Biso   1.000  C
  C459     1.0000 0.76981  0.22089  0.58109  Biso   1.000  C
  C460     1.0000 0.71781  0.16479  0.51722  Biso   1.000  C
  C461     1.0000 0.67772  0.11629  0.64322  Biso   1.000  C
  C462     1.0000 0.72732  0.17222  0.70739  Biso   1.000  C
  O41      1.0000 0.77602  0.25343  0.62659  Biso   1.000  O
  C463     1.0000 0.80530  0.21910  0.54680  Biso   1.000  C
  C464     1.0000 0.75361  0.16162  0.48249  Biso   1.000  C
  H561     1.0000 0.68825  0.14693  0.50688  Biso   1.000  H
  H562     1.0000 0.65864  0.10812  0.60631  Biso   1.000  H
  C465     1.0000 0.68571  0.08252  0.68628  Biso   1.000  C
  O42      1.0000 0.74441  0.21927  0.71922  Biso   1.000  O
  C466     1.0000 0.73591  0.13929  0.75159  Biso   1.000  C
  C467     1.0000 0.81320  0.24389  0.67698  Biso   1.000  C
  H563     1.0000 0.83415  0.23790  0.55640  Biso   1.000  H
  C468     1.0000 0.79809  0.19011  0.49950  Biso   1.000  C
  C469     1.0000 0.74540  0.13070  0.42961  Biso   1.000  C
  C470     1.0000 0.66252  0.03430  0.67568  Biso   1.000  C
  C471     1.0000 0.71561  0.09498  0.74051  Biso   1.000  C
  C472     1.0000 0.79640  0.22691  0.72668  Biso   1.000  C
  H564     1.0000 0.75525  0.14704  0.78850  Biso   1.000  H
  C473     1.0000 0.86242  0.25541  0.68191  Biso   1.000  C
  O43      1.0000 0.83124  0.19029  0.46299  Biso   1.000  O
  C474     1.0000 0.69022  0.13010  0.39370  Biso   1.000  C
  C475     1.0000 0.76560  0.08171  0.44841  Biso   1.000  C
  H565     1.0000 0.76615  0.14338  0.40435  Biso   1.000  H
  C476     1.0000 0.60793  0.03561  0.63728  Biso   1.000  C
  C477     1.0000 0.69702  0.00092  0.65068  Biso   1.000  C
  H566     1.0000 0.66055  0.02159  0.71376  Biso   1.000  H
  O44      1.0000 0.72215  0.06202  0.78693  Biso   1.000  O
  C478     1.0000 0.82953  0.22202  0.77921  Biso   1.000  C
  C479     1.0000 0.89911  0.24981  0.73510  Biso   1.000  C
  H567     1.0000 0.87237  0.26731  0.64959  Biso   1.000  H
  C480     1.0000 0.87839  0.17021  0.48489  Biso   1.000  C
  C481     1.0000 0.68730  0.11090  0.33328  Biso   1.000  C
  H568     1.0000 0.66983  0.11073  0.41325  Biso   1.000  H
  H569     1.0000 0.67658  0.16183  0.39078  Biso   1.000  H
  C482     1.0000 0.81572  0.06959  0.44968  Biso   1.000  C
  C483     1.0000 0.73580  0.04642  0.46630  Biso   1.000  C
  H570     1.0000 0.58933  0.05991  0.65242  Biso   1.000  H
  H571     1.0000 0.60957  0.04508  0.59832  Biso   1.000  H
  H572     1.0000 0.58629  0.05406  0.65626  Biso   1.000  H
  H573     1.0000 0.60767  0.05012  0.60002  Biso   1.000  H
  C484     1.0000 0.57781  0.99070  0.63261  Biso   1.000  C
  C485     1.0000 0.58833  0.98542  0.62799  Biso   1.000  C
  C486     1.0000 0.73370  0.97380  0.68798  Biso   1.000  C
  C487     1.0000 0.69452  0.99743  0.59121  Biso   1.000  C
  C488     1.0000 0.77024  0.04202  0.80530  Biso   1.000  C
  C489     1.0000 0.88023  0.23290  0.78671  Biso   1.000  C
  H574     1.0000 0.81788  0.21114  0.81084  Biso   1.000  H
  N41      1.0000 0.94711  0.25942  0.74182  Biso   1.000  N
  C490     1.0000 0.88522  0.12351  0.46669  Biso   1.000  C
  C491     1.0000 0.91762  0.19582  0.51839  Biso   1.000  C
  C492     1.0000 0.63411  0.11178  0.29558  Biso   1.000  C
  H575     1.0000 0.70918  0.12939  0.31487  Biso   1.000  H
  H576     1.0000 0.69970  0.07871  0.33646  Biso   1.000  H
  O45      1.0000 0.84497  0.10256  0.42804  Biso   1.000  O
  C493     1.0000 0.83491  0.02511  0.46700  Biso   1.000  C
  C494     1.0000 0.75321  0.00130  0.48358  Biso   1.000  C
  H577     1.0000 0.70243  0.05388  0.46661  Biso   1.000  H
  C495     1.0000 0.52533  0.99630  0.59191  Biso   1.000  C
  H578     1.0000 0.57425  0.98155  0.67105  Biso   1.000  H
  H579     1.0000 0.59606  0.96580  0.61809  Biso   1.000  H
  C496     1.0000 0.53263  0.98063  0.60151  Biso   1.000  C
  H580     1.0000 0.59595  0.96950  0.66568  Biso   1.000  H
  H581     1.0000 0.60680  0.96922  0.60347  Biso   1.000  H
  O46      1.0000 0.73496  0.97404  0.74823  Biso   1.000  O
  C497     1.0000 0.76440  0.94302  0.66691  Biso   1.000  C
  H582     1.0000 0.67122  0.01617  0.56564  Biso   1.000  H
  C498     1.0000 0.72533  0.96721  0.56800  Biso   1.000  C
  C499     1.0000 0.80772  0.06470  0.84360  Biso   1.000  C
  C500     1.0000 0.77670  0.99542  0.78518  Biso   1.000  C
  N42      1.0000 0.91463  0.22811  0.83719  Biso   1.000  N
  Te21     1.0000 0.98402  0.24646  0.82550  Biso   1.000  Te
  C501     1.0000 0.93051  0.10122  0.48210  Biso   1.000  C
  C502     1.0000 0.96680  0.17419  0.53742  Biso   1.000  C
  H583     1.0000 0.91252  0.22670  0.52869  Biso   1.000  H
  C503     1.0000 0.62650  0.10210  0.23241  Biso   1.000  C
  H584     1.0000 0.61420  0.08903  0.31133  Biso   1.000  H
  H585     1.0000 0.61987  0.14260  0.29968  Biso   1.000  H
  H586     1.0000 0.86830  0.01764  0.46696  Biso   1.000  H
  C504     1.0000 0.80400  0.99211  0.48419  Biso   1.000  C
  C505     1.0000 0.72061  0.96401  0.50260  Biso   1.000  C
  H587     1.0000 0.50539  0.01814  0.60897  Biso   1.000  H
  H588     1.0000 0.52864  0.00930  0.55496  Biso   1.000  H
  C506     1.0000 0.49851  0.94950  0.58161  Biso   1.000  C
  H589     1.0000 0.52498  0.99503  0.56311  Biso   1.000  H
  H590     1.0000 0.51389  0.99757  0.62524  Biso   1.000  H
  C507     1.0000 0.51441  0.92970  0.59549  Biso   1.000  C
  C508     1.0000 0.76030  0.94062  0.60770  Biso   1.000  C
  H591     1.0000 0.78771  0.92417  0.69234  Biso   1.000  H
  C509     1.0000 0.85691  0.04251  0.86180  Biso   1.000  C
  H592     1.0000 0.80194  0.09421  0.85791  Biso   1.000  H
  C510     1.0000 0.82101  0.97123  0.80242  Biso   1.000  C
  C511     1.0000 0.97401  0.12531  0.52040  Biso   1.000  C
  H593     1.0000 0.93410  0.07097  0.46861  Biso   1.000  H
  N43      1.0000 0.00713  0.19610  0.57040  Biso   1.000  N
  C512     1.0000 0.64669  0.14390  0.20641  Biso   1.000  C
  H594     1.0000 0.59075  0.09770  0.21443  Biso   1.000  H
  H595     1.0000 0.64469  0.07382  0.22635  Biso   1.000  H
  O47      1.0000 0.82148  0.94583  0.49662  Biso   1.000  O
  C513     1.0000 0.66530  0.96362  0.46678  Biso   1.000  C
  H596     1.0000 0.73518  0.93354  0.49575  Biso   1.000  H
  C514     1.0000 0.44543  0.95221  0.54571  Biso   1.000  C
  H597     1.0000 0.51776  0.92865  0.56250  Biso   1.000  H
  H598     1.0000 0.49800  0.93569  0.61909  Biso   1.000  H
  C515     1.0000 0.48021  0.91900  0.53689  Biso   1.000  C
  H599     1.0000 0.49642  0.92312  0.62555  Biso   1.000  H
  H600     1.0000 0.54379  0.90910  0.60194  Biso   1.000  H
  O48      1.0000 0.78917  0.90695  0.58602  Biso   1.000  O
  N44      1.0000 0.89513  0.06272  0.89648  Biso   1.000  N
  C516     1.0000 0.86342  0.99412  0.84151  Biso   1.000  C
  H601     1.0000 0.82396  0.94066  0.78942  Biso   1.000  H
  N45      1.0000 0.01860  0.10541  0.53899  Biso   1.000  N
  Te22     1.0000 0.06579  0.15162  0.58746  Biso   1.000  Te
  C517     1.0000 0.64119  0.14721  0.14240  Biso   1.000  C
  H602     1.0000 0.63086  0.17162  0.21819  Biso   1.000  H
  H603     1.0000 0.68275  0.14602  0.22460  Biso   1.000  H
  C518     1.0000 0.85772  0.93752  0.54741  Biso   1.000  C
  C519     1.0000 0.65989  0.94872  0.40339  Biso   1.000  C
  H604     1.0000 0.64574  0.94217  0.48493  Biso   1.000  H
  H605     1.0000 0.65102  0.99486  0.46748  Biso   1.000  H
  C520     1.0000 0.42070  0.90502  0.53140  Biso   1.000  C
  H606     1.0000 0.44540  0.96844  0.50954  Biso   1.000  H
  H607     1.0000 0.42525  0.97066  0.56643  Biso   1.000  H
  H608     1.0000 0.46469  0.94798  0.51949  Biso   1.000  H
  C521     1.0000 0.50833  0.89600  0.49571  Biso   1.000  C
  H609     1.0000 0.45323  0.89818  0.54204  Biso   1.000  H
  C522     1.0000 0.84071  0.91579  0.59431  Biso   1.000  C
  Te23     1.0000 0.95672  0.01990  0.91022  Biso   1.000  Te
  N46      1.0000 0.90878  0.97492  0.85830  Biso   1.000  N
  H610     1.0000 0.61079  0.16437  0.12513  Biso   1.000  H
  H611     1.0000 0.63915  0.11615  0.12596  Biso   1.000  H
  H612     1.0000 0.67004  0.16334  0.13468  Biso   1.000  H
  C523     1.0000 0.90750  0.94640  0.55208  Biso   1.000  C
  C524     1.0000 0.60520  0.95112  0.36700  Biso   1.000  C
  H613     1.0000 0.67227  0.91674  0.40256  Biso   1.000  H
  H614     1.0000 0.68095  0.96901  0.38585  Biso   1.000  H
  C525     1.0000 0.60901  0.92470  0.37699  Biso   1.000  C
  H615     1.0000 0.68729  0.92731  0.40134  Biso   1.000  H
  H616     1.0000 0.66313  0.97633  0.38035  Biso   1.000  H
  H617     1.0000 0.38672  0.90921  0.50827  Biso   1.000  H
  H618     1.0000 0.43988  0.88670  0.50997  Biso   1.000  H
  H619     1.0000 0.41971  0.88892  0.56691  Biso   1.000  H
  H620     1.0000 0.48504  0.88984  0.45893  Biso   1.000  H
  H621     1.0000 0.53466  0.91678  0.48973  Biso   1.000  H
  H622     1.0000 0.52319  0.86694  0.51224  Biso   1.000  H
  C526     1.0000 0.87460  0.90023  0.64378  Biso   1.000  C
  C527     1.0000 0.94452  0.93280  0.60290  Biso   1.000  C
  H623     1.0000 0.91774  0.96151  0.52184  Biso   1.000  H
  C528     1.0000 0.59720  0.92622  0.30732  Biso   1.000  C
  H624     1.0000 0.59535  0.98391  0.36059  Biso   1.000  H
  H625     1.0000 0.58298  0.93682  0.38891  Biso   1.000  H
  H626     1.0000 0.59875  0.93217  0.33581  Biso   1.000  H
  H627     1.0000 0.58343  0.93710  0.39554  Biso   1.000  H
  C529     1.0000 0.61172  0.87092  0.38459  Biso   1.000  C
  C530     1.0000 0.92750  0.90833  0.64871  Biso   1.000  C
  H628     1.0000 0.86346  0.88483  0.67323  Biso   1.000  H
  N47      1.0000 0.99337  0.94203  0.60910  Biso   1.000  N
  C531     1.0000 0.59990  0.87321  0.31020  Biso   1.000  C
  H629     1.0000 0.56421  0.93516  0.28341  Biso   1.000  H
  H630     1.0000 0.62270  0.93745  0.28786  Biso   1.000  H
  C532     1.0000 0.65381  0.84852  0.35972  Biso   1.000  C
  H631     1.0000 0.57925  0.85740  0.36517  Biso   1.000  H
  H632     1.0000 0.61785  0.86342  0.42577  Biso   1.000  H
  N48      1.0000 0.96245  0.89512  0.69649  Biso   1.000  N
  Te24     1.0000 0.03154  0.91555  0.68676  Biso   1.000  Te
  C533     1.0000 0.58719  0.84740  0.25178  Biso   1.000  C
  H633     1.0000 0.57684  0.86233  0.33319  Biso   1.000  H
  H634     1.0000 0.63401  0.86434  0.33092  Biso   1.000  H
  C534     1.0000 0.63221  0.82391  0.30082  Biso   1.000  C
  H635     1.0000 0.61450  0.84648  0.27303  Biso   1.000  H
  H636     1.0000 0.67225  0.82570  0.38733  Biso   1.000  H
  H637     1.0000 0.67755  0.87275  0.35444  Biso   1.000  H
  H638     1.0000 0.59001  0.81412  0.25846  Biso   1.000  H
  H639     1.0000 0.55308  0.85500  0.23123  Biso   1.000  H
  H640     1.0000 0.61040  0.85705  0.22896  Biso   1.000  H
  H641     1.0000 0.65960  0.81042  0.28677  Biso   1.000  H
  H642     1.0000 0.60920  0.79946  0.30588  Biso   1.000  H
  C535     1.0000 0.45179  0.68860  0.07221  Biso   1.000  C
  H643     1.0000 0.42559  0.67592  0.04119  Biso   1.000  H
  H644     1.0000 0.44036  0.68860  0.10776  Biso   1.000  H
  H645     1.0000 0.48178  0.66954  0.07718  Biso   1.000  H
  C536     1.0000 0.46371  0.73832  0.05742  Biso   1.000  C
  H646     1.0000 0.43300  0.75706  0.05148  Biso   1.000  H
  H647     1.0000 0.47439  0.73804  0.02094  Biso   1.000  H
  C537     1.0000 0.50468  0.76171  0.10349  Biso   1.000  C
  C538     1.0000 0.53989  0.78450  0.05999  Biso   1.000  C
  H648     1.0000 0.52014  0.76210  0.07652  Biso   1.000  H
  H649     1.0000 0.48882  0.77809  0.13062  Biso   1.000  H
  H650     1.0000 0.52656  0.73751  0.12521  Biso   1.000  H
  C539     1.0000 0.53680  0.79622  0.07949  Biso   1.000  C
  C540     1.0000 0.51250  0.83120  0.05249  Biso   1.000  C
  H651     1.0000 0.54159  0.77287  0.02186  Biso   1.000  H
  C541     1.0000 0.59308  0.78622  0.09838  Biso   1.000  C
  H652     1.0000 0.52657  0.79552  0.03717  Biso   1.000  H
  H653     1.0000 0.53046  0.82771  0.09197  Biso   1.000  H
  C542     1.0000 0.45551  0.82602  0.03530  Biso   1.000  C
  H654     1.0000 0.52195  0.84863  0.08887  Biso   1.000  H
  H655     1.0000 0.52342  0.84933  0.02286  Biso   1.000  H
  H656     1.0000 0.60283  0.75488  0.11343  Biso   1.000  H
  H657     1.0000 0.59349  0.80668  0.13141  Biso   1.000  H
  C543     1.0000 0.63119  0.80380  0.06610  Biso   1.000  C
  H658     1.0000 0.59660  0.75220  0.10043  Biso   1.000  H
  H659     1.0000 0.60422  0.79770  0.13813  Biso   1.000  H
  H660     1.0000 0.44089  0.84835  0.05790  Biso   1.000  H
  H661     1.0000 0.44684  0.79471  0.04616  Biso   1.000  H
  C544     1.0000 0.43072  0.83352  0.97147  Biso   1.000  C
  H662     1.0000 0.62807  0.78531  0.03085  Biso   1.000  H
  H663     1.0000 0.62331  0.83623  0.05458  Biso   1.000  H
  C545     1.0000 0.68710  0.80112  0.10248  Biso   1.000  C
  H664     1.0000 0.39465  0.82947  0.96518  Biso   1.000  H
  H665     1.0000 0.44386  0.81102  0.94852  Biso   1.000  H
  H666     1.0000 0.43792  0.86480  0.96030  Biso   1.000  H
  C546     1.0000 0.72498  0.80580  0.06688  Biso   1.000  C
  H667     1.0000 0.69184  0.76999  0.12107  Biso   1.000  H
  C547     1.0000 0.69639  0.83810  0.15148  Biso   1.000  C
  C548     1.0000 0.76980  0.77911  0.08111  Biso   1.000  C
  C549     1.0000 0.71779  0.83521  0.01719  Biso   1.000  C
  C550     1.0000 0.67770  0.88371  0.14319  Biso   1.000  C
  C551     1.0000 0.72731  0.82782  0.20741  Biso   1.000  C
  O49      1.0000 0.77601  0.74660  0.12661  Biso   1.000  O
  C552     1.0000 0.80529  0.78090  0.04681  Biso   1.000  C
  H668     1.0000 0.68824  0.85307  0.00689  Biso   1.000  H
  C553     1.0000 0.75364  0.83842  0.98250  Biso   1.000  C
  H669     1.0000 0.65863  0.89191  0.10632  Biso   1.000  H
  C554     1.0000 0.68570  0.91752  0.18629  Biso   1.000  C
  O50      1.0000 0.74440  0.78073  0.21919  Biso   1.000  O
  C555     1.0000 0.73590  0.86071  0.25161  Biso   1.000  C
  C556     1.0000 0.81319  0.75611  0.17700  Biso   1.000  C
  H670     1.0000 0.83414  0.76213  0.05641  Biso   1.000  H
  C557     1.0000 0.79815  0.80992  0.99948  Biso   1.000  C
  C558     1.0000 0.74542  0.86930  0.92958  Biso   1.000  C
  C559     1.0000 0.66251  0.96570  0.17569  Biso   1.000  C
  C560     1.0000 0.71559  0.90502  0.24048  Biso   1.000  C
  C561     1.0000 0.79639  0.77312  0.22669  Biso   1.000  C
  H671     1.0000 0.75524  0.85300  0.28852  Biso   1.000  H
  C562     1.0000 0.86240  0.74459  0.18189  Biso   1.000  C
  O51      1.0000 0.83127  0.80971  0.96300  Biso   1.000  O
  C563     1.0000 0.69023  0.86990  0.89368  Biso   1.000  C
  C564     1.0000 0.76562  0.91833  0.94839  Biso   1.000  C
  H672     1.0000 0.76618  0.85662  0.90437  Biso   1.000  H
  C565     1.0000 0.60788  0.96443  0.13730  Biso   1.000  C
  C566     1.0000 0.69701  0.99912  0.15069  Biso   1.000  C
  H673     1.0000 0.66054  0.97841  0.21378  Biso   1.000  H
  O52      1.0000 0.72214  0.93798  0.28695  Biso   1.000  O
  C567     1.0000 0.82951  0.77802  0.27918  Biso   1.000  C
  C568     1.0000 0.89910  0.75019  0.23511  Biso   1.000  C
  H674     1.0000 0.87232  0.73269  0.14960  Biso   1.000  H
  C569     1.0000 0.87842  0.82982  0.98490  Biso   1.000  C
  C570     1.0000 0.68733  0.88910  0.83330  Biso   1.000  C
  H675     1.0000 0.66985  0.88931  0.91322  Biso   1.000  H
  H676     1.0000 0.67661  0.83817  0.89080  Biso   1.000  H
  C571     1.0000 0.81574  0.93041  0.94970  Biso   1.000  C
  C572     1.0000 0.73581  0.95362  0.96628  Biso   1.000  C
  H677     1.0000 0.58932  0.94009  0.15244  Biso   1.000  H
  H678     1.0000 0.60955  0.95496  0.09830  Biso   1.000  H
  H679     1.0000 0.58628  0.94597  0.15628  Biso   1.000  H
  H680     1.0000 0.60766  0.94992  0.10004  Biso   1.000  H
  C573     1.0000 0.57779  0.00930  0.13259  Biso   1.000  C
  C574     1.0000 0.58829  0.01462  0.12801  Biso   1.000  C
  C575     1.0000 0.73370  0.02620  0.18800  Biso   1.000  C
  C576     1.0000 0.69451  0.00261  0.09118  Biso   1.000  C
  C577     1.0000 0.77019  0.95802  0.30531  Biso   1.000  C
  C578     1.0000 0.88021  0.76710  0.28668  Biso   1.000  C
  H681     1.0000 0.81786  0.78886  0.31081  Biso   1.000  H
  N49      1.0000 0.94709  0.74061  0.24179  Biso   1.000  N
  C579     1.0000 0.91761  0.80422  0.01841  Biso   1.000  C
  C580     1.0000 0.88524  0.87652  0.96667  Biso   1.000  C
  C581     1.0000 0.63414  0.88822  0.79560  Biso   1.000  C
  H682     1.0000 0.70920  0.87061  0.81484  Biso   1.000  H
  H683     1.0000 0.69973  0.92129  0.83648  Biso   1.000  H
  O53      1.0000 0.84499  0.89744  0.92806  Biso   1.000  O
  C582     1.0000 0.83493  0.97492  0.96697  Biso   1.000  C
  C583     1.0000 0.75324  0.99870  0.98360  Biso   1.000  C
  H684     1.0000 0.70245  0.94615  0.96662  Biso   1.000  H
  C584     1.0000 0.52531  0.00370  0.09188  Biso   1.000  C
  H685     1.0000 0.57424  0.01849  0.17107  Biso   1.000  H
  H686     1.0000 0.59605  0.03423  0.11810  Biso   1.000  H
  C585     1.0000 0.53261  0.01941  0.10148  Biso   1.000  C
  H687     1.0000 0.59593  0.03053  0.16566  Biso   1.000  H
  H688     1.0000 0.60679  0.03078  0.10349  Biso   1.000  H
  O54      1.0000 0.73494  0.02596  0.24820  Biso   1.000  O
  C586     1.0000 0.76438  0.05698  0.16688  Biso   1.000  C
  H689     1.0000 0.67122  0.98383  0.06566  Biso   1.000  H
  C587     1.0000 0.72528  0.03279  0.06802  Biso   1.000  C
  C588     1.0000 0.80771  0.93530  0.34362  Biso   1.000  C
  C589     1.0000 0.77669  0.00461  0.28520  Biso   1.000  C
  N50      1.0000 0.91462  0.77192  0.33721  Biso   1.000  N
  Te25     1.0000 0.98400  0.75357  0.32547  Biso   1.000  Te
  C590     1.0000 0.96678  0.82581  0.03739  Biso   1.000  C
  H690     1.0000 0.91251  0.77333  0.02871  Biso   1.000  H
  C591     1.0000 0.93053  0.89882  0.98207  Biso   1.000  C
  C592     1.0000 0.62652  0.89790  0.73238  Biso   1.000  C
  H691     1.0000 0.61425  0.91100  0.81131  Biso   1.000  H
  H692     1.0000 0.61989  0.85740  0.79966  Biso   1.000  H
  H693     1.0000 0.86832  0.98236  0.96693  Biso   1.000  H
  C593     1.0000 0.80403  0.00789  0.98421  Biso   1.000  C
  C594     1.0000 0.72061  0.03599  0.00262  Biso   1.000  C
  H694     1.0000 0.50537  0.98186  0.10894  Biso   1.000  H
  H695     1.0000 0.52863  0.99074  0.05497  Biso   1.000  H
  C595     1.0000 0.49849  0.05050  0.08159  Biso   1.000  C
  H696     1.0000 0.52497  0.00497  0.06313  Biso   1.000  H
  H697     1.0000 0.51388  0.00243  0.12526  Biso   1.000  H
  C596     1.0000 0.51440  0.07030  0.09550  Biso   1.000  C
  C597     1.0000 0.76029  0.05941  0.10772  Biso   1.000  C
  H698     1.0000 0.78770  0.07583  0.19236  Biso   1.000  H
  C598     1.0000 0.85691  0.95753  0.36181  Biso   1.000  C
  H699     1.0000 0.80192  0.90579  0.35789  Biso   1.000  H
  C599     1.0000 0.82099  0.02881  0.30239  Biso   1.000  C
  C600     1.0000 0.97400  0.87473  0.02042  Biso   1.000  C
  N51      1.0000 0.00712  0.80390  0.07042  Biso   1.000  N
  H700     1.0000 0.93412  0.92907  0.96859  Biso   1.000  H
  C601     1.0000 0.64671  0.85610  0.70638  Biso   1.000  C
  H701     1.0000 0.59077  0.90230  0.71441  Biso   1.000  H
  H702     1.0000 0.64471  0.92622  0.72632  Biso   1.000  H
  O55      1.0000 0.82150  0.05417  0.99660  Biso   1.000  O
  C602     1.0000 0.66533  0.03642  0.96680  Biso   1.000  C
  H703     1.0000 0.73519  0.06649  0.99572  Biso   1.000  H
  C603     1.0000 0.44541  0.04779  0.04568  Biso   1.000  C
  H704     1.0000 0.51775  0.07135  0.06248  Biso   1.000  H
  H705     1.0000 0.49799  0.06431  0.11911  Biso   1.000  H
  C604     1.0000 0.48020  0.08100  0.03691  Biso   1.000  C
  H706     1.0000 0.49641  0.07688  0.12556  Biso   1.000  H
  H707     1.0000 0.54378  0.09090  0.10196  Biso   1.000  H
  O56      1.0000 0.78916  0.09305  0.08604  Biso   1.000  O
  N52      1.0000 0.89512  0.93728  0.39650  Biso   1.000  N
  C605     1.0000 0.86340  0.00592  0.34148  Biso   1.000  C
  H708     1.0000 0.82394  0.05938  0.28939  Biso   1.000  H
  N53      1.0000 0.01859  0.89463  0.03900  Biso   1.000  N
  Te26     1.0000 0.06577  0.84838  0.08743  Biso   1.000  Te
  C606     1.0000 0.64121  0.85282  0.64238  Biso   1.000  C
  H709     1.0000 0.63088  0.82841  0.71816  Biso   1.000  H
  H710     1.0000 0.68277  0.85402  0.72462  Biso   1.000  H
  C607     1.0000 0.85770  0.06251  0.04738  Biso   1.000  C
  C608     1.0000 0.65992  0.05131  0.90341  Biso   1.000  C
  H711     1.0000 0.64576  0.05783  0.98490  Biso   1.000  H
  H712     1.0000 0.65104  0.00514  0.96745  Biso   1.000  H
  C609     1.0000 0.42069  0.09498  0.03141  Biso   1.000  C
  H713     1.0000 0.44539  0.03156  0.00955  Biso   1.000  H
  H714     1.0000 0.42524  0.02934  0.06645  Biso   1.000  H
  H715     1.0000 0.46464  0.05202  0.01950  Biso   1.000  H
  C610     1.0000 0.50835  0.10400  0.99568  Biso   1.000  C
  H716     1.0000 0.45322  0.10185  0.04206  Biso   1.000  H
  C611     1.0000 0.84069  0.08421  0.09428  Biso   1.000  C
  Te27     1.0000 0.95671  0.98010  0.41024  Biso   1.000  Te
  N54      1.0000 0.90876  0.02511  0.35828  Biso   1.000  N
  H717     1.0000 0.61085  0.83563  0.62510  Biso   1.000  H
  H718     1.0000 0.63917  0.88385  0.62593  Biso   1.000  H
  H719     1.0000 0.67009  0.83666  0.63465  Biso   1.000  H
  C612     1.0000 0.90749  0.05360  0.05209  Biso   1.000  C
  C613     1.0000 0.60522  0.04888  0.86698  Biso   1.000  C
  H720     1.0000 0.67230  0.08326  0.90258  Biso   1.000  H
  H721     1.0000 0.68097  0.03099  0.88582  Biso   1.000  H
  C614     1.0000 0.60902  0.07530  0.87697  Biso   1.000  C
  H722     1.0000 0.68731  0.07269  0.90131  Biso   1.000  H
  H723     1.0000 0.66319  0.02367  0.88033  Biso   1.000  H
  H724     1.0000 0.38671  0.09079  0.00829  Biso   1.000  H
  H725     1.0000 0.43987  0.11330  0.00999  Biso   1.000  H
  H726     1.0000 0.41966  0.11108  0.06693  Biso   1.000  H
  H727     1.0000 0.48505  0.11020  0.95890  Biso   1.000  H
  H728     1.0000 0.53468  0.08326  0.98970  Biso   1.000  H
  H729     1.0000 0.52318  0.13306  0.01226  Biso   1.000  H
  C615     1.0000 0.87459  0.09981  0.14380  Biso   1.000  C
  C616     1.0000 0.94451  0.06720  0.10292  Biso   1.000  C
  H730     1.0000 0.91773  0.03849  0.02186  Biso   1.000  H
  C617     1.0000 0.59722  0.07382  0.80729  Biso   1.000  C
  H731     1.0000 0.59541  0.01609  0.86056  Biso   1.000  H
  H732     1.0000 0.58301  0.06318  0.88892  Biso   1.000  H
  H733     1.0000 0.59877  0.06787  0.83578  Biso   1.000  H
  H734     1.0000 0.58346  0.06294  0.89555  Biso   1.000  H
  C618     1.0000 0.61175  0.12911  0.88460  Biso   1.000  C
  C619     1.0000 0.92749  0.09171  0.14869  Biso   1.000  C
  H735     1.0000 0.86345  0.11520  0.17325  Biso   1.000  H
  N55      1.0000 0.99336  0.05801  0.10912  Biso   1.000  N
  C620     1.0000 0.59992  0.12679  0.81017  Biso   1.000  C
  H736     1.0000 0.56424  0.06484  0.78343  Biso   1.000  H
  H737     1.0000 0.62273  0.06258  0.78788  Biso   1.000  H
  C621     1.0000 0.65383  0.15151  0.85969  Biso   1.000  C
  H738     1.0000 0.57927  0.14260  0.86514  Biso   1.000  H
  H739     1.0000 0.61786  0.13658  0.92574  Biso   1.000  H
  N56      1.0000 0.96244  0.10488  0.19650  Biso   1.000  N
  Te28     1.0000 0.03153  0.08449  0.18677  Biso   1.000  Te
  C622     1.0000 0.58721  0.15260  0.75180  Biso   1.000  C
  H740     1.0000 0.57686  0.13771  0.83316  Biso   1.000  H
  H741     1.0000 0.63403  0.13566  0.83090  Biso   1.000  H
  C623     1.0000 0.63223  0.17609  0.80079  Biso   1.000  C
  H742     1.0000 0.61452  0.15355  0.77300  Biso   1.000  H
  H743     1.0000 0.67227  0.17430  0.88731  Biso   1.000  H
  H744     1.0000 0.67758  0.12725  0.85446  Biso   1.000  H
  H745     1.0000 0.59006  0.18592  0.75843  Biso   1.000  H
  H746     1.0000 0.55310  0.14500  0.73120  Biso   1.000  H
  H747     1.0000 0.61043  0.14299  0.72898  Biso   1.000  H
  H748     1.0000 0.65962  0.18958  0.78674  Biso   1.000  H
  H749     1.0000 0.60921  0.20057  0.80585  Biso   1.000  H
  C624     1.0000 0.54824  0.31140  0.92781  Biso   1.000  C
  C625     1.0000 0.53632  0.26171  0.94260  Biso   1.000  C
  H750     1.0000 0.57444  0.32408  0.95883  Biso   1.000  H
  H751     1.0000 0.55966  0.31144  0.89225  Biso   1.000  H
  H752     1.0000 0.51824  0.33049  0.92283  Biso   1.000  H
  C626     1.0000 0.49533  0.23829  0.89648  Biso   1.000  C
  H753     1.0000 0.56703  0.24294  0.94853  Biso   1.000  H
  H754     1.0000 0.52564  0.26199  0.97907  Biso   1.000  H
  C627     1.0000 0.46013  0.21550  0.93998  Biso   1.000  C
  C628     1.0000 0.46321  0.20381  0.92048  Biso   1.000  C
  H755     1.0000 0.47989  0.23790  0.92349  Biso   1.000  H
  H756     1.0000 0.51119  0.22191  0.86934  Biso   1.000  H
  H757     1.0000 0.47347  0.26249  0.87480  Biso   1.000  H
  C629     1.0000 0.40694  0.21381  0.90158  Biso   1.000  C
  C630     1.0000 0.48751  0.16880  0.94748  Biso   1.000  C
  H758     1.0000 0.45844  0.22713  0.97815  Biso   1.000  H
  H759     1.0000 0.47345  0.20452  0.96280  Biso   1.000  H
  H760     1.0000 0.46956  0.17229  0.90800  Biso   1.000  H
  C631     1.0000 0.36883  0.19620  0.93391  Biso   1.000  C
  H761     1.0000 0.39719  0.24516  0.88658  Biso   1.000  H
  H762     1.0000 0.40653  0.19332  0.86856  Biso   1.000  H
  H763     1.0000 0.40342  0.24783  0.89953  Biso   1.000  H
  H764     1.0000 0.39581  0.20230  0.86188  Biso   1.000  H
  C632     1.0000 0.54451  0.17402  0.96472  Biso   1.000  C
  H765     1.0000 0.47807  0.15137  0.91114  Biso   1.000  H
  H766     1.0000 0.47660  0.15067  0.97715  Biso   1.000  H
  C633     1.0000 0.31292  0.19892  0.89748  Biso   1.000  C
  H767     1.0000 0.37196  0.21469  0.96917  Biso   1.000  H
  H768     1.0000 0.37671  0.16380  0.94539  Biso   1.000  H
  H769     1.0000 0.55914  0.15165  0.94212  Biso   1.000  H
  H770     1.0000 0.55319  0.20529  0.95385  Biso   1.000  H
  C634     1.0000 0.56930  0.16651  0.02850  Biso   1.000  C
  C635     1.0000 0.30362  0.16190  0.84849  Biso   1.000  C
  C636     1.0000 0.27504  0.19420  0.93308  Biso   1.000  C
  H771     1.0000 0.30819  0.23001  0.87894  Biso   1.000  H
  H772     1.0000 0.60536  0.17053  0.03478  Biso   1.000  H
  H773     1.0000 0.55615  0.18902  0.05145  Biso   1.000  H
  H774     1.0000 0.56209  0.13520  0.03967  Biso   1.000  H
  C637     1.0000 0.27272  0.17222  0.79260  Biso   1.000  C
  C638     1.0000 0.32231  0.11629  0.85678  Biso   1.000  C
  C639     1.0000 0.23022  0.22089  0.91891  Biso   1.000  C
  C640     1.0000 0.28223  0.16479  0.98278  Biso   1.000  C
  C641     1.0000 0.26413  0.13929  0.74840  Biso   1.000  C
  O57      1.0000 0.25562  0.21927  0.78078  Biso   1.000  O
  C642     1.0000 0.31432  0.08252  0.81372  Biso   1.000  C
  H775     1.0000 0.34139  0.10812  0.89369  Biso   1.000  H
  O58      1.0000 0.22402  0.25343  0.87340  Biso   1.000  O
  C643     1.0000 0.19474  0.21910  0.95320  Biso   1.000  C
  H776     1.0000 0.31179  0.14693  0.99312  Biso   1.000  H
  C644     1.0000 0.24639  0.16162  0.01751  Biso   1.000  C
  C645     1.0000 0.28443  0.09498  0.75949  Biso   1.000  C
  H777     1.0000 0.24479  0.14704  0.71149  Biso   1.000  H
  C646     1.0000 0.20363  0.22691  0.77332  Biso   1.000  C
  C647     1.0000 0.33752  0.03430  0.82432  Biso   1.000  C
  C648     1.0000 0.18683  0.24389  0.82301  Biso   1.000  C
  H778     1.0000 0.16589  0.23790  0.94360  Biso   1.000  H
  C649     1.0000 0.20187  0.19011  0.00049  Biso   1.000  C
  C650     1.0000 0.25461  0.13070  0.07043  Biso   1.000  C
  O59      1.0000 0.27788  0.06202  0.71307  Biso   1.000  O
  C651     1.0000 0.17051  0.22202  0.72079  Biso   1.000  C
  C652     1.0000 0.30302  0.00092  0.84932  Biso   1.000  C
  C653     1.0000 0.39214  0.03561  0.86271  Biso   1.000  C
  H779     1.0000 0.33949  0.02159  0.78623  Biso   1.000  H
  C654     1.0000 0.13762  0.25541  0.81808  Biso   1.000  C
  O60      1.0000 0.16876  0.19029  0.03701  Biso   1.000  O
  C655     1.0000 0.23441  0.08171  0.05162  Biso   1.000  C
  C656     1.0000 0.30978  0.13010  0.10629  Biso   1.000  C
  H780     1.0000 0.23385  0.14338  0.09564  Biso   1.000  H
  C657     1.0000 0.22984  0.04202  0.69470  Biso   1.000  C
  C658     1.0000 0.11980  0.23290  0.71328  Biso   1.000  C
  H781     1.0000 0.18216  0.21114  0.68916  Biso   1.000  H
  C659     1.0000 0.26633  0.97380  0.81202  Biso   1.000  C
  C660     1.0000 0.30551  0.99743  0.90878  Biso   1.000  C
  H782     1.0000 0.41071  0.05991  0.84757  Biso   1.000  H
  H783     1.0000 0.39046  0.04508  0.90167  Biso   1.000  H
  H784     1.0000 0.41375  0.05406  0.84373  Biso   1.000  H
  H785     1.0000 0.39236  0.05012  0.89997  Biso   1.000  H
  C661     1.0000 0.42222  0.99070  0.86738  Biso   1.000  C
  C662     1.0000 0.41174  0.98542  0.87200  Biso   1.000  C
  C663     1.0000 0.10093  0.24981  0.76490  Biso   1.000  C
  H786     1.0000 0.12770  0.26731  0.85041  Biso   1.000  H
  C664     1.0000 0.12161  0.17021  0.01511  Biso   1.000  C
  C665     1.0000 0.26420  0.04642  0.03369  Biso   1.000  C
  C666     1.0000 0.18428  0.06959  0.05031  Biso   1.000  C
  C667     1.0000 0.31270  0.11090  0.16672  Biso   1.000  C
  H787     1.0000 0.33018  0.11073  0.08679  Biso   1.000  H
  H788     1.0000 0.32341  0.16183  0.10921  Biso   1.000  H
  C668     1.0000 0.19231  0.06470  0.65639  Biso   1.000  C
  C669     1.0000 0.22333  0.99542  0.71481  Biso   1.000  C
  N57      1.0000 0.08541  0.22811  0.66281  Biso   1.000  N
  O61      1.0000 0.26508  0.97404  0.75176  Biso   1.000  O
  C670     1.0000 0.23564  0.94302  0.83309  Biso   1.000  C
  H789     1.0000 0.32881  0.01617  0.93435  Biso   1.000  H
  C671     1.0000 0.27474  0.96721  0.93199  Biso   1.000  C
  C672     1.0000 0.47471  0.99630  0.90809  Biso   1.000  C
  H790     1.0000 0.42578  0.98155  0.82894  Biso   1.000  H
  H791     1.0000 0.40398  0.96580  0.88191  Biso   1.000  H
  C673     1.0000 0.46741  0.98063  0.89849  Biso   1.000  C
  H792     1.0000 0.40409  0.96950  0.83431  Biso   1.000  H
  H793     1.0000 0.39324  0.96922  0.89652  Biso   1.000  H
  N58      1.0000 0.05293  0.25942  0.75818  Biso   1.000  N
  C674     1.0000 0.08242  0.19582  0.98160  Biso   1.000  C
  C675     1.0000 0.11478  0.12351  0.03330  Biso   1.000  C
  C676     1.0000 0.24679  0.00130  0.01641  Biso   1.000  C
  H794     1.0000 0.29757  0.05388  0.03339  Biso   1.000  H
  C677     1.0000 0.16509  0.02511  0.03299  Biso   1.000  C
  O62      1.0000 0.15503  0.10256  0.07195  Biso   1.000  O
  C678     1.0000 0.36589  0.11178  0.20441  Biso   1.000  C
  H795     1.0000 0.29083  0.12939  0.18517  Biso   1.000  H
  H796     1.0000 0.30030  0.07871  0.16353  Biso   1.000  H
  C679     1.0000 0.14312  0.04251  0.63820  Biso   1.000  C
  H797     1.0000 0.19810  0.09421  0.64208  Biso   1.000  H
  C680     1.0000 0.17903  0.97123  0.69758  Biso   1.000  C
  Te29     1.0000 0.01602  0.24646  0.67450  Biso   1.000  Te
  C681     1.0000 0.23973  0.94062  0.89229  Biso   1.000  C
  H798     1.0000 0.21233  0.92417  0.80765  Biso   1.000  H
  C682     1.0000 0.27942  0.96401  0.99739  Biso   1.000  C
  H799     1.0000 0.49465  0.01814  0.89103  Biso   1.000  H
  H800     1.0000 0.47140  0.00930  0.94504  Biso   1.000  H
  C683     1.0000 0.50153  0.94950  0.91838  Biso   1.000  C
  H801     1.0000 0.47506  0.99503  0.93688  Biso   1.000  H
  H802     1.0000 0.48615  0.99757  0.87475  Biso   1.000  H
  C684     1.0000 0.48563  0.92970  0.90451  Biso   1.000  C
  C685     1.0000 0.03324  0.17419  0.96258  Biso   1.000  C
  H803     1.0000 0.08752  0.22670  0.97130  Biso   1.000  H
  C686     1.0000 0.06949  0.10122  0.01790  Biso   1.000  C
  C687     1.0000 0.19600  0.99211  0.01580  Biso   1.000  C
  H804     1.0000 0.13170  0.01764  0.03304  Biso   1.000  H
  C688     1.0000 0.37351  0.10210  0.26763  Biso   1.000  C
  H805     1.0000 0.38577  0.08903  0.18870  Biso   1.000  H
  H806     1.0000 0.38013  0.14260  0.20031  Biso   1.000  H
  N59      1.0000 0.10491  0.06272  0.60351  Biso   1.000  N
  C689     1.0000 0.13662  0.99412  0.65849  Biso   1.000  C
  H807     1.0000 0.17607  0.94066  0.71058  Biso   1.000  H
  O63      1.0000 0.21086  0.90695  0.91397  Biso   1.000  O
  C690     1.0000 0.33470  0.96362  0.03321  Biso   1.000  C
  H808     1.0000 0.26482  0.93354  0.00424  Biso   1.000  H
  C691     1.0000 0.55461  0.95221  0.95429  Biso   1.000  C
  H809     1.0000 0.48227  0.92865  0.93749  Biso   1.000  H
  H810     1.0000 0.50204  0.93569  0.88090  Biso   1.000  H
  C692     1.0000 0.51982  0.91900  0.96310  Biso   1.000  C
  H811     1.0000 0.50362  0.92312  0.87445  Biso   1.000  H
  H812     1.0000 0.45625  0.90910  0.89805  Biso   1.000  H
  C693     1.0000 0.02602  0.12531  0.97959  Biso   1.000  C
  N60      1.0000 0.99291  0.19610  0.92959  Biso   1.000  N
  H813     1.0000 0.06589  0.07097  0.03138  Biso   1.000  H
  O64      1.0000 0.17851  0.94583  0.00337  Biso   1.000  O
  C694     1.0000 0.35332  0.14390  0.29363  Biso   1.000  C
  H814     1.0000 0.40926  0.09770  0.28560  Biso   1.000  H
  H815     1.0000 0.35532  0.07382  0.27369  Biso   1.000  H
  Te30     1.0000 0.04332  0.01990  0.58977  Biso   1.000  Te
  N61      1.0000 0.09126  0.97492  0.64169  Biso   1.000  N
  C695     1.0000 0.15933  0.91579  0.90569  Biso   1.000  C
  C696     1.0000 0.34010  0.94872  0.09660  Biso   1.000  C
  H816     1.0000 0.35427  0.94217  0.01511  Biso   1.000  H
  H817     1.0000 0.34898  0.99486  0.03251  Biso   1.000  H
  C697     1.0000 0.57934  0.90502  0.96860  Biso   1.000  C
  H818     1.0000 0.55464  0.96844  0.99046  Biso   1.000  H
  H819     1.0000 0.57478  0.97066  0.93356  Biso   1.000  H
  H820     1.0000 0.53538  0.94798  0.98051  Biso   1.000  H
  H821     1.0000 0.54680  0.89818  0.95795  Biso   1.000  H
  C698     1.0000 0.49168  0.89600  0.00433  Biso   1.000  C
  N62      1.0000 0.98144  0.10541  0.96101  Biso   1.000  N
  Te31     1.0000 0.93425  0.15162  0.91254  Biso   1.000  Te
  C699     1.0000 0.14232  0.93752  0.95259  Biso   1.000  C
  C700     1.0000 0.35881  0.14721  0.35759  Biso   1.000  C
  H822     1.0000 0.36914  0.17162  0.28181  Biso   1.000  H
  H823     1.0000 0.31725  0.14602  0.27539  Biso   1.000  H
  C701     1.0000 0.12544  0.90023  0.85621  Biso   1.000  C
  C702     1.0000 0.39480  0.95112  0.13299  Biso   1.000  C
  H824     1.0000 0.32773  0.91674  0.09743  Biso   1.000  H
  H825     1.0000 0.31905  0.96901  0.11414  Biso   1.000  H
  C703     1.0000 0.39099  0.92470  0.12300  Biso   1.000  C
  H826     1.0000 0.31271  0.92731  0.09865  Biso   1.000  H
  H827     1.0000 0.33684  0.97633  0.11968  Biso   1.000  H
  H828     1.0000 0.61332  0.90921  0.99172  Biso   1.000  H
  H829     1.0000 0.56016  0.88670  0.99002  Biso   1.000  H
  H830     1.0000 0.58037  0.88892  0.93308  Biso   1.000  H
  H831     1.0000 0.47684  0.86694  0.98775  Biso   1.000  H
  H832     1.0000 0.51496  0.88984  0.04107  Biso   1.000  H
  H833     1.0000 0.46534  0.91678  0.01026  Biso   1.000  H
  C704     1.0000 0.09252  0.94640  0.94787  Biso   1.000  C
  H834     1.0000 0.38918  0.16437  0.37491  Biso   1.000  H
  H835     1.0000 0.36084  0.11615  0.37404  Biso   1.000  H
  H836     1.0000 0.32993  0.16334  0.36536  Biso   1.000  H
  C705     1.0000 0.07253  0.90833  0.85128  Biso   1.000  C
  H837     1.0000 0.13657  0.88483  0.82676  Biso   1.000  H
  C706     1.0000 0.40280  0.92622  0.19272  Biso   1.000  C
  H838     1.0000 0.40461  0.98391  0.13940  Biso   1.000  H
  H839     1.0000 0.41702  0.93682  0.11109  Biso   1.000  H
  H840     1.0000 0.40126  0.93217  0.16423  Biso   1.000  H
  H841     1.0000 0.41657  0.93710  0.10446  Biso   1.000  H
  C707     1.0000 0.38828  0.87092  0.11541  Biso   1.000  C
  C708     1.0000 0.05552  0.93280  0.89709  Biso   1.000  C
  H842     1.0000 0.08230  0.96151  0.97815  Biso   1.000  H
  N63      1.0000 0.03759  0.89512  0.80351  Biso   1.000  N
  C709     1.0000 0.40009  0.87321  0.18979  Biso   1.000  C
  H843     1.0000 0.43579  0.93516  0.21658  Biso   1.000  H
  H844     1.0000 0.37730  0.93745  0.21213  Biso   1.000  H
  C710     1.0000 0.34620  0.84852  0.14032  Biso   1.000  C
  H845     1.0000 0.42076  0.85740  0.13487  Biso   1.000  H
  H846     1.0000 0.38215  0.86342  0.07422  Biso   1.000  H
  N64      1.0000 0.00667  0.94203  0.89090  Biso   1.000  N
  Te32     1.0000 0.96849  0.91555  0.81324  Biso   1.000  Te
  C711     1.0000 0.41281  0.84740  0.24821  Biso   1.000  C
  H847     1.0000 0.42317  0.86233  0.16685  Biso   1.000  H
  H848     1.0000 0.36599  0.86434  0.16907  Biso   1.000  H
  C712     1.0000 0.36780  0.82391  0.19922  Biso   1.000  C
  H849     1.0000 0.38551  0.84648  0.22701  Biso   1.000  H
  H850     1.0000 0.32774  0.82570  0.11266  Biso   1.000  H
  H851     1.0000 0.32245  0.87275  0.14556  Biso   1.000  H
  H852     1.0000 0.40996  0.81412  0.24154  Biso   1.000  H
  H853     1.0000 0.44692  0.85500  0.26876  Biso   1.000  H
  H854     1.0000 0.38960  0.85705  0.27103  Biso   1.000  H
  H855     1.0000 0.34041  0.81042  0.21327  Biso   1.000  H
  H856     1.0000 0.39080  0.79946  0.19411  Biso   1.000  H
