data_image0
_cell_length_a       18.262
_cell_length_b       28.491
_cell_length_c       18.268
_cell_angle_alpha    90
_cell_angle_beta     92.08
_cell_angle_gamma    90

_symmetry_space_group_name_H-M    "P 1"
_symmetry_int_tables_number       1

loop_
  _symmetry_equiv_pos_as_xyz
  'x, y, z'

loop_
  _atom_site_label
  _atom_site_occupancy
  _atom_site_fract_x
  _atom_site_fract_y
  _atom_site_fract_z
  _atom_site_thermal_displace_type
  _atom_site_B_iso_or_equiv
  _atom_site_type_symbol
  C1       1.0000 0.41081  0.46622  0.45289  Biso   1.000  C
  C2       1.0000 0.39548  0.51441  0.47858  Biso   1.000  C
  H1       1.0000 0.41182  0.45821  0.40359  Biso   1.000  H
  C3       1.0000 0.42309  0.43501  0.50740  Biso   1.000  C
  S1       1.0000 0.37663  0.55719  0.40721  Biso   1.000  S
  C4       1.0000 0.39551  0.52729  0.54727  Biso   1.000  C
  C5       1.0000 0.42592  0.45028  0.58688  Biso   1.000  C
  H2       1.0000 0.43012  0.40350  0.49600  Biso   1.000  H
  C6       1.0000 0.36563  0.60338  0.46922  Biso   1.000  C
  S2       1.0000 0.37592  0.58759  0.56261  Biso   1.000  S
  C7       1.0000 0.40841  0.49679  0.60528  Biso   1.000  C
  H3       1.0000 0.43913  0.42891  0.62352  Biso   1.000  H
  C8       1.0000 0.34702  0.64620  0.44698  Biso   1.000  C
  H4       1.0000 0.40562  0.50641  0.65370  Biso   1.000  H
  S3       1.0000 0.33526  0.66105  0.35369  Biso   1.000  S
  S4       1.0000 0.33601  0.69225  0.51167  Biso   1.000  S
  C9       1.0000 0.32091  0.72202  0.37171  Biso   1.000  C
  C10      1.0000 0.32200  0.73560  0.44391  Biso   1.000  C
  C11      1.0000 0.30502  0.75912  0.32609  Biso   1.000  C
  C12      1.0000 0.30899  0.78298  0.44752  Biso   1.000  C
  C13      1.0000 0.29028  0.76301  0.24310  Biso   1.000  C
  N1       1.0000 0.29900  0.79558  0.37610  Biso   1.000  N
  C14      1.0000 0.30313  0.81499  0.51101  Biso   1.000  C
  C15      1.0000 0.20810  0.75859  0.22979  Biso   1.000  C
  C16      1.0000 0.31951  0.81029  0.21549  Biso   1.000  C
  C17      1.0000 0.33010  0.72409  0.20399  Biso   1.000  C
  H5       1.0000 0.28959  0.82401  0.36279  Biso   1.000  H
  C18      1.0000 0.22280  0.81749  0.53500  Biso   1.000  C
  C19      1.0000 0.33111  0.86561  0.49288  Biso   1.000  C
  C20      1.0000 0.34933  0.79688  0.57691  Biso   1.000  C
  C21      1.0000 0.16548  0.72009  0.21571  Biso   1.000  C
  N2       1.0000 0.16219  0.79759  0.23510  Biso   1.000  N
  H6       1.0000 0.30410  0.81450  0.16510  Biso   1.000  H
  H7       1.0000 0.30040  0.83532  0.24430  Biso   1.000  H
  H8       1.0000 0.37202  0.81040  0.21982  Biso   1.000  H
  H9       1.0000 0.32042  0.69461  0.22699  Biso   1.000  H
  H10      1.0000 0.31332  0.72300  0.15359  Biso   1.000  H
  H11      1.0000 0.38188  0.73009  0.20651  Biso   1.000  H
  N3       1.0000 0.17002  0.84550  0.49770  Biso   1.000  N
  C22      1.0000 0.18462  0.79450  0.58441  Biso   1.000  C
  H12      1.0000 0.30418  0.87761  0.45092  Biso   1.000  H
  H13      1.0000 0.32401  0.88589  0.53413  Biso   1.000  H
  H14      1.0000 0.38233  0.86441  0.48280  Biso   1.000  H
  H15      1.0000 0.39910  0.79271  0.56310  Biso   1.000  H
  H16      1.0000 0.34769  0.81921  0.61618  Biso   1.000  H
  H17      1.0000 0.33003  0.76740  0.59268  Biso   1.000  H
  S5       1.0000 0.17922  0.65926  0.21401  Biso   1.000  S
  C23      1.0000 0.09089  0.73500  0.21089  Biso   1.000  C
  C24      1.0000 0.08988  0.78449  0.22239  Biso   1.000  C
  H18      1.0000 0.17672  0.82570  0.24469  Biso   1.000  H
  C25      1.0000 0.10358  0.83949  0.52728  Biso   1.000  C
  H19      1.0000 0.17851  0.86371  0.46149  Biso   1.000  H
  C26      1.0000 0.11233  0.80801  0.58118  Biso   1.000  C
  S6       1.0000 0.20912  0.74813  0.64834  Biso   1.000  S
  C27      1.0000 0.08759  0.64540  0.18799  Biso   1.000  C
  S7       1.0000 0.02289  0.69194  0.20202  Biso   1.000  S
  C28      1.0000 0.02318  0.81770  0.22968  Biso   1.000  C
  C29      1.0000 0.03569  0.86729  0.49891  Biso   1.000  C
  S8       1.0000 0.05238  0.78053  0.64341  Biso   1.000  S
  C30      1.0000 0.12469  0.74820  0.68788  Biso   1.000  C
  C31      1.0000 0.06663  0.60402  0.16559  Biso   1.000  C
  C32      1.0000 0.00392  0.81970  0.30702  Biso   1.000  C
  C33      1.0000 0.04621  0.86761  0.20202  Biso   1.000  C
  C34      1.0000 0.96073  0.80099  0.17917  Biso   1.000  C
  C35      1.0000 0.00712  0.84251  0.42687  Biso   1.000  C
  C36      1.0000 0.05481  0.91759  0.47793  Biso   1.000  C
  C37      1.0000 0.97793  0.86799  0.55198  Biso   1.000  C
  C38      1.0000 0.11399  0.72479  0.74918  Biso   1.000  C
  S9       1.0000 0.12651  0.55575  0.15737  Biso   1.000  S
  S10      1.0000 0.97414  0.59134  0.13979  Biso   1.000  S
  N4       1.0000 0.03622  0.84771  0.35961  Biso   1.000  N
  C39      1.0000 0.95008  0.79450  0.34438  Biso   1.000  C
  H20      1.0000 0.00332  0.88660  0.19391  Biso   1.000  H
  H21      1.0000 0.07808  0.88221  0.23811  Biso   1.000  H
  H22      1.0000 0.07130  0.86448  0.15688  Biso   1.000  H
  H23      1.0000 0.94268  0.77151  0.19648  Biso   1.000  H
  H24      1.0000 0.92188  0.82370  0.17863  Biso   1.000  H
  H25      1.0000 0.97791  0.79709  0.13048  Biso   1.000  H
  C40      1.0000 0.95391  0.80780  0.41822  Biso   1.000  C
  H26      1.0000 0.01423  0.93131  0.45081  Biso   1.000  H
  H27      1.0000 0.06493  0.93570  0.52147  Biso   1.000  H
  H28      1.0000 0.09710  0.91748  0.44829  Biso   1.000  H
  H29      1.0000 0.99501  0.88421  0.59542  Biso   1.000  H
  H30      1.0000 0.93573  0.88379  0.53122  Biso   1.000  H
  H31      1.0000 0.96502  0.83640  0.56431  Biso   1.000  H
  S11      1.0000 0.02601  0.71752  0.78719  Biso   1.000  S
  S12      1.0000 0.18339  0.69390  0.79793  Biso   1.000  S
  C41      1.0000 0.06151  0.51599  0.12549  Biso   1.000  C
  C42      1.0000 0.98783  0.53231  0.11722  Biso   1.000  C
  H32      1.0000 0.07140  0.86680  0.35117  Biso   1.000  H
  S13      1.0000 0.88785  0.74932  0.31968  Biso   1.000  S
  S14      1.0000 0.89568  0.77898  0.47787  Biso   1.000  S
  C43      1.0000 0.06139  0.69682  0.87188  Biso   1.000  C
  C44      1.0000 0.13454  0.68752  0.87769  Biso   1.000  C
  C45      1.0000 0.07202  0.47201  0.11207  Biso   1.000  C
  C46      1.0000 0.93271  0.50332  0.09372  Biso   1.000  C
  C47      1.0000 0.84802  0.74760  0.40491  Biso   1.000  C
  C48      1.0000 0.01660  0.69289  0.93378  Biso   1.000  C
  C49      1.0000 0.16540  0.67011  0.94490  Biso   1.000  C
  C50      1.0000 0.01409  0.43930  0.08950  Biso   1.000  C
  H33      1.0000 0.11952  0.46039  0.11728  Biso   1.000  H
  C51      1.0000 0.94601  0.45590  0.08008  Biso   1.000  C
  H34      1.0000 0.88551  0.51522  0.08638  Biso   1.000  H
  C52      1.0000 0.79103  0.72149  0.42052  Biso   1.000  C
  C53      1.0000 0.04924  0.67649  0.99869  Biso   1.000  C
  H35      1.0000 0.96732  0.70110  0.93087  Biso   1.000  H
  H36      1.0000 0.21504  0.66270  0.94868  Biso   1.000  H
  C54      1.0000 0.12400  0.66439  0.00219  Biso   1.000  C
  H37      1.0000 0.02433  0.40771  0.08178  Biso   1.000  H
  H38      1.0000 0.90800  0.43610  0.06480  Biso   1.000  H
  S15      1.0000 0.74504  0.68769  0.35139  Biso   1.000  S
  S16      1.0000 0.75014  0.71995  0.50542  Biso   1.000  S
  H39      1.0000 0.02150  0.67351  0.04021  Biso   1.000  H
  H40      1.0000 0.14463  0.65221  0.04541  Biso   1.000  H
  C55      1.0000 0.66233  0.68839  0.39439  Biso   1.000  C
  C56      1.0000 0.66371  0.70310  0.46850  Biso   1.000  C
  C57      1.0000 0.59621  0.67491  0.36202  Biso   1.000  C
  C58      1.0000 0.60079  0.70380  0.50909  Biso   1.000  C
  H41      1.0000 0.59382  0.66368  0.31420  Biso   1.000  H
  C59      1.0000 0.53360  0.67849  0.40212  Biso   1.000  C
  C60      1.0000 0.53343  0.68909  0.47289  Biso   1.000  C
  H42      1.0000 0.60223  0.71349  0.55779  Biso   1.000  H
  H43      1.0000 0.48870  0.67309  0.37790  Biso   1.000  H
  H44      1.0000 0.49050  0.68709  0.49858  Biso   1.000  H
  C61      1.0000 0.60449  0.47271  0.45267  Biso   1.000  C
  S17      1.0000 0.62408  0.41241  0.43739  Biso   1.000  S
  C62      1.0000 0.60452  0.48559  0.52142  Biso   1.000  C
  C63      1.0000 0.59160  0.50321  0.39472  Biso   1.000  C
  C64      1.0000 0.63443  0.39662  0.53079  Biso   1.000  C
  S18      1.0000 0.62343  0.44281  0.59279  Biso   1.000  S
  C65      1.0000 0.58919  0.53378  0.54711  Biso   1.000  C
  C66      1.0000 0.57408  0.54972  0.41313  Biso   1.000  C
  H45      1.0000 0.59438  0.49359  0.34630  Biso   1.000  H
  C67      1.0000 0.65303  0.35380  0.55302  Biso   1.000  C
  H46      1.0000 0.58819  0.54179  0.59641  Biso   1.000  H
  C68      1.0000 0.57691  0.56499  0.49261  Biso   1.000  C
  H47      1.0000 0.56093  0.57109  0.37648  Biso   1.000  H
  S19      1.0000 0.66399  0.30775  0.48833  Biso   1.000  S
  S20      1.0000 0.66474  0.33895  0.64631  Biso   1.000  S
  H48      1.0000 0.56994  0.59650  0.50400  Biso   1.000  H
  C69      1.0000 0.67800  0.26440  0.55609  Biso   1.000  C
  C70      1.0000 0.67909  0.27798  0.62829  Biso   1.000  C
  C71      1.0000 0.69101  0.21702  0.55248  Biso   1.000  C
  C72      1.0000 0.69499  0.24088  0.67392  Biso   1.000  C
  C73      1.0000 0.69692  0.18501  0.48899  Biso   1.000  C
  N5       1.0000 0.70100  0.20442  0.62391  Biso   1.000  N
  C74      1.0000 0.70972  0.23699  0.75690  Biso   1.000  C
  C75      1.0000 0.65072  0.20312  0.42309  Biso   1.000  C
  C76      1.0000 0.77720  0.18251  0.46500  Biso   1.000  C
  C77      1.0000 0.66889  0.13439  0.50712  Biso   1.000  C
  H49      1.0000 0.71041  0.17599  0.63722  Biso   1.000  H
  C78      1.0000 0.79190  0.24141  0.77021  Biso   1.000  C
  C79      1.0000 0.68049  0.18971  0.78451  Biso   1.000  C
  C80      1.0000 0.66990  0.27591  0.79601  Biso   1.000  C
  H50      1.0000 0.60090  0.20729  0.43690  Biso   1.000  H
  H51      1.0000 0.65231  0.18079  0.38382  Biso   1.000  H
  H52      1.0000 0.67003  0.23260  0.40732  Biso   1.000  H
  C81      1.0000 0.81538  0.20550  0.41559  Biso   1.000  C
  N6       1.0000 0.83003  0.15450  0.50230  Biso   1.000  N
  H53      1.0000 0.69582  0.12239  0.54908  Biso   1.000  H
  H54      1.0000 0.67599  0.11411  0.46588  Biso   1.000  H
  H55      1.0000 0.61773  0.13559  0.51720  Biso   1.000  H
  C82      1.0000 0.83452  0.27991  0.78429  Biso   1.000  C
  N7       1.0000 0.83781  0.20241  0.76490  Biso   1.000  N
  H56      1.0000 0.69590  0.18550  0.83491  Biso   1.000  H
  H57      1.0000 0.69960  0.16468  0.75570  Biso   1.000  H
  H58      1.0000 0.62799  0.18960  0.78018  Biso   1.000  H
  H59      1.0000 0.67964  0.30539  0.77301  Biso   1.000  H
  H60      1.0000 0.68674  0.27700  0.84641  Biso   1.000  H
  H61      1.0000 0.61812  0.26991  0.79349  Biso   1.000  H
  C83      1.0000 0.88773  0.19199  0.41882  Biso   1.000  C
  S21      1.0000 0.79094  0.25187  0.35167  Biso   1.000  S
  C84      1.0000 0.89642  0.16051  0.47272  Biso   1.000  C
  H62      1.0000 0.82149  0.13629  0.53851  Biso   1.000  H
  C85      1.0000 0.90911  0.26500  0.78911  Biso   1.000  C
  S22      1.0000 0.82084  0.34074  0.78599  Biso   1.000  S
  C86      1.0000 0.91012  0.21551  0.77761  Biso   1.000  C
  H63      1.0000 0.82334  0.17430  0.75531  Biso   1.000  H
  S23      1.0000 0.94762  0.21947  0.35660  Biso   1.000  S
  C87      1.0000 0.87531  0.25180  0.31212  Biso   1.000  C
  C88      1.0000 0.96431  0.13271  0.50110  Biso   1.000  C
  S24      1.0000 0.97717  0.30806  0.79799  Biso   1.000  S
  C89      1.0000 0.91241  0.35460  0.81201  Biso   1.000  C
  C90      1.0000 0.97682  0.18230  0.77032  Biso   1.000  C
  C91      1.0000 0.88601  0.27521  0.25082  Biso   1.000  C
  C92      1.0000 0.94520  0.08241  0.52208  Biso   1.000  C
  C93      1.0000 0.99293  0.15749  0.57307  Biso   1.000  C
  C94      1.0000 0.02213  0.13201  0.44802  Biso   1.000  C
  C95      1.0000 0.93343  0.39598  0.83441  Biso   1.000  C
  C96      1.0000 0.99614  0.18030  0.69298  Biso   1.000  C
  C97      1.0000 0.95379  0.13239  0.79799  Biso   1.000  C
  C98      1.0000 0.03933  0.19901  0.82083  Biso   1.000  C
  S25      1.0000 0.97400  0.28248  0.21281  Biso   1.000  S
  S26      1.0000 0.81667  0.30610  0.20207  Biso   1.000  S
  H64      1.0000 0.98582  0.06869  0.54919  Biso   1.000  H
  H65      1.0000 0.93512  0.06430  0.47847  Biso   1.000  H
  H66      1.0000 0.90290  0.08252  0.55171  Biso   1.000  H
  N8       1.0000 0.96384  0.15229  0.64039  Biso   1.000  N
  C99      1.0000 0.04609  0.19220  0.58178  Biso   1.000  C
  H67      1.0000 0.00500  0.11579  0.40458  Biso   1.000  H
  H68      1.0000 0.06433  0.11621  0.46878  Biso   1.000  H
  H69      1.0000 0.03498  0.16360  0.43569  Biso   1.000  H
  S27      1.0000 0.87349  0.44425  0.84257  Biso   1.000  S
  S28      1.0000 0.02587  0.40866  0.86021  Biso   1.000  S
  C100     1.0000 0.04992  0.20550  0.65562  Biso   1.000  C
  H70      1.0000 0.99674  0.11340  0.80609  Biso   1.000  H
  H71      1.0000 0.92192  0.11779  0.76189  Biso   1.000  H
  H72      1.0000 0.92871  0.13552  0.84312  Biso   1.000  H
  H73      1.0000 0.05732  0.22849  0.80352  Biso   1.000  H
  H74      1.0000 0.07812  0.17630  0.82138  Biso   1.000  H
  H75      1.0000 0.02210  0.20291  0.86952  Biso   1.000  H
  C101     1.0000 0.93861  0.30318  0.12812  Biso   1.000  C
  C102     1.0000 0.86552  0.31248  0.12232  Biso   1.000  C
  H76      1.0000 0.92860  0.13320  0.64877  Biso   1.000  H
  S29      1.0000 0.10433  0.22102  0.52213  Biso   1.000  S
  C103     1.0000 0.93850  0.48401  0.87451  Biso   1.000  C
  C104     1.0000 0.01223  0.46769  0.88278  Biso   1.000  C
  S30      1.0000 0.11215  0.25068  0.68033  Biso   1.000  S
  C105     1.0000 0.98340  0.30711  0.06622  Biso   1.000  C
  C106     1.0000 0.83460  0.32989  0.05511  Biso   1.000  C
  C107     1.0000 0.15199  0.25240  0.59509  Biso   1.000  C
  C108     1.0000 0.92803  0.52799  0.88787  Biso   1.000  C
  C109     1.0000 0.06729  0.49668  0.90628  Biso   1.000  C
  C110     1.0000 0.95082  0.32351  0.00131  Biso   1.000  C
  H77      1.0000 0.03268  0.29890  0.06907  Biso   1.000  H
  H78      1.0000 0.78502  0.33730  0.05133  Biso   1.000  H
  C111     1.0000 0.87600  0.33561  0.99781  Biso   1.000  C
  C112     1.0000 0.20903  0.27851  0.57948  Biso   1.000  C
  C113     1.0000 0.98591  0.56070  0.91050  Biso   1.000  C
  H79      1.0000 0.88053  0.53961  0.88273  Biso   1.000  H
  H80      1.0000 0.11454  0.48478  0.91362  Biso   1.000  H
  C114     1.0000 0.05404  0.54410  0.91992  Biso   1.000  C
  H81      1.0000 0.97850  0.32649  0.95979  Biso   1.000  H
  H82      1.0000 0.85543  0.34779  0.95459  Biso   1.000  H
  S31      1.0000 0.25496  0.31231  0.64861  Biso   1.000  S
  S32      1.0000 0.24991  0.28005  0.49458  Biso   1.000  S
  H83      1.0000 0.97573  0.59229  0.91822  Biso   1.000  H
  H84      1.0000 0.09200  0.56390  0.93520  Biso   1.000  H
  C115     1.0000 0.33773  0.31161  0.60561  Biso   1.000  C
  C116     1.0000 0.33629  0.29690  0.53150  Biso   1.000  C
  C117     1.0000 0.40379  0.32509  0.63798  Biso   1.000  C
  C118     1.0000 0.39922  0.29620  0.49091  Biso   1.000  C
  H85      1.0000 0.40624  0.33632  0.68580  Biso   1.000  H
  C119     1.0000 0.46640  0.32151  0.59789  Biso   1.000  C
  C120     1.0000 0.46662  0.31091  0.52712  Biso   1.000  C
  H86      1.0000 0.39783  0.28651  0.44221  Biso   1.000  H
  H87      1.0000 0.51131  0.32691  0.62210  Biso   1.000  H
  H88      1.0000 0.50950  0.31291  0.50143  Biso   1.000  H
  C121     1.0000 0.45382  0.36759  0.29798  Biso   1.000  C
  C122     1.0000 0.47680  0.31771  0.27032  Biso   1.000  C
  H89      1.0000 0.49671  0.38661  0.30609  Biso   1.000  H
  H90      1.0000 0.42189  0.38219  0.26189  Biso   1.000  H
  H91      1.0000 0.42873  0.36450  0.34312  Biso   1.000  H
  C123     1.0000 0.41009  0.28451  0.27761  Biso   1.000  C
  C124     1.0000 0.49611  0.31971  0.19298  Biso   1.000  C
  C125     1.0000 0.53930  0.30101  0.32083  Biso   1.000  C
  N9       1.0000 0.33779  0.29760  0.26490  Biso   1.000  N
  C126     1.0000 0.40908  0.23499  0.28911  Biso   1.000  C
  C127     1.0000 0.54989  0.29451  0.15562  Biso   1.000  C
  N10      1.0000 0.46381  0.34769  0.14039  Biso   1.000  N
  H92      1.0000 0.55729  0.27149  0.30352  Biso   1.000  H
  H93      1.0000 0.57809  0.32372  0.32137  Biso   1.000  H
  H94      1.0000 0.52212  0.29711  0.36952  Biso   1.000  H
  C128     1.0000 0.29193  0.25861  0.27021  Biso   1.000  C
  H95      1.0000 0.32331  0.32572  0.25531  Biso   1.000  H
  C129     1.0000 0.33449  0.22010  0.28429  Biso   1.000  C
  S33      1.0000 0.47714  0.19196  0.29798  Biso   1.000  S
  C130     1.0000 0.54612  0.30782  0.08178  Biso   1.000  C
  S34      1.0000 0.61218  0.24931  0.18032  Biso   1.000  S
  C131     1.0000 0.49291  0.34249  0.07313  Biso   1.000  C
  H96      1.0000 0.42858  0.36678  0.14877  Biso   1.000  H
  C132     1.0000 0.20969  0.26300  0.25690  Biso   1.000  C
  S35      1.0000 0.32081  0.15924  0.28599  Biso   1.000  S
  C133     1.0000 0.41238  0.14541  0.31201  Biso   1.000  C
  S36      1.0000 0.60430  0.27897  0.02213  Biso   1.000  S
  C134     1.0000 0.65201  0.24759  0.09509  Biso   1.000  C
  C135     1.0000 0.46428  0.36731  0.00110  Biso   1.000  C
  C136     1.0000 0.18052  0.31031  0.28451  Biso   1.000  C
  C137     1.0000 0.16993  0.22411  0.29601  Biso   1.000  C
  C138     1.0000 0.19501  0.25910  0.17392  Biso   1.000  C
  C139     1.0000 0.43340  0.10400  0.33441  Biso   1.000  C
  C140     1.0000 0.70900  0.22151  0.07948  Biso   1.000  C
  C141     1.0000 0.39639  0.33951  0.97272  Biso   1.000  C
  C142     1.0000 0.44522  0.41761  0.02207  Biso   1.000  C
  C143     1.0000 0.52210  0.36801  0.94802  Biso   1.000  C
  H97      1.0000 0.19593  0.31449  0.33490  Biso   1.000  H
  H98      1.0000 0.19962  0.33530  0.25570  Biso   1.000  H
  H99      1.0000 0.12801  0.31041  0.28018  Biso   1.000  H
  H100     1.0000 0.17961  0.19459  0.27301  Biso   1.000  H
  H101     1.0000 0.18671  0.22298  0.34641  Biso   1.000  H
  H102     1.0000 0.11809  0.23011  0.29349  Biso   1.000  H
  C144     1.0000 0.17912  0.22200  0.12829  Biso   1.000  C
  N11      1.0000 0.20103  0.29560  0.12390  Biso   1.000  N
  S37      1.0000 0.37346  0.05577  0.34257  Biso   1.000  S
  S38      1.0000 0.52584  0.09133  0.36021  Biso   1.000  S
  S39      1.0000 0.75498  0.18771  0.14861  Biso   1.000  S
  S40      1.0000 0.74989  0.21996  0.99458  Biso   1.000  S
  N12      1.0000 0.33000  0.34551  0.00230  Biso   1.000  N
  C145     1.0000 0.38770  0.30799  0.91882  Biso   1.000  C
  H103     1.0000 0.48580  0.43129  0.04919  Biso   1.000  H
  H104     1.0000 0.40287  0.41750  0.05171  Biso   1.000  H
  H105     1.0000 0.43510  0.43572  0.97847  Biso   1.000  H
  H106     1.0000 0.50502  0.38419  0.90458  Biso   1.000  H
  H107     1.0000 0.56430  0.38381  0.96878  Biso   1.000  H
  H108     1.0000 0.53501  0.33639  0.93569  Biso   1.000  H
  C146     1.0000 0.17798  0.23558  0.05609  Biso   1.000  C
  S41      1.0000 0.16477  0.16103  0.14631  Biso   1.000  S
  C147     1.0000 0.19099  0.28300  0.05248  Biso   1.000  C
  H109     1.0000 0.21038  0.32400  0.13722  Biso   1.000  H
  C148     1.0000 0.43852  0.01601  0.37451  Biso   1.000  C
  C149     1.0000 0.51220  0.03229  0.38278  Biso   1.000  C
  C150     1.0000 0.83770  0.18841  0.10561  Biso   1.000  C
  C151     1.0000 0.83632  0.20312  0.03150  Biso   1.000  C
  C152     1.0000 0.27723  0.31750  0.96500  Biso   1.000  C
  H110     1.0000 0.32152  0.36369  0.03851  Biso   1.000  H
  C153     1.0000 0.31541  0.29451  0.91559  Biso   1.000  C
  S42      1.0000 0.44765  0.28054  0.85659  Biso   1.000  S
  S43      1.0000 0.16402  0.19224  0.98833  Biso   1.000  S
  C154     1.0000 0.15300  0.14619  0.05302  Biso   1.000  C
  C155     1.0000 0.19690  0.31501  0.98899  Biso   1.000  C
  C156     1.0000 0.42800  0.97199  0.38787  Biso   1.000  C
  C157     1.0000 0.56732  0.00330  0.40628  Biso   1.000  C
  C158     1.0000 0.90382  0.17490  0.13798  Biso   1.000  C
  C159     1.0000 0.89924  0.20378  0.99091  Biso   1.000  C
  S44      1.0000 0.29091  0.24815  0.85166  Biso   1.000  S
  C160     1.0000 0.37534  0.24818  0.81212  Biso   1.000  C
  C161     1.0000 0.13440  0.10340  0.03078  Biso   1.000  C
  C162     1.0000 0.16891  0.36559  0.00712  Biso   1.000  C
  C163     1.0000 0.15070  0.29690  0.92309  Biso   1.000  C
  C164     1.0000 0.48588  0.93931  0.41050  Biso   1.000  C
  H111     1.0000 0.38050  0.96041  0.38272  Biso   1.000  H
  H112     1.0000 0.61451  0.01520  0.41362  Biso   1.000  H
  C165     1.0000 0.55401  0.95592  0.41992  Biso   1.000  C
  H113     1.0000 0.90621  0.16370  0.18580  Biso   1.000  H
  C166     1.0000 0.96643  0.17851  0.09789  Biso   1.000  C
  C167     1.0000 0.96660  0.18911  0.02711  Biso   1.000  C
  H114     1.0000 0.89780  0.21351  0.94221  Biso   1.000  H
  C168     1.0000 0.38604  0.22481  0.75082  Biso   1.000  C
  S45      1.0000 0.12340  0.05721  0.09279  Biso   1.000  S
  S46      1.0000 0.12411  0.08757  0.93739  Biso   1.000  S
  H115     1.0000 0.19579  0.37759  0.04908  Biso   1.000  H
  H116     1.0000 0.11770  0.36440  0.01720  Biso   1.000  H
  H117     1.0000 0.17601  0.38591  0.96587  Biso   1.000  H
  H118     1.0000 0.10093  0.29269  0.93690  Biso   1.000  H
  H119     1.0000 0.15234  0.31919  0.88382  Biso   1.000  H
  H120     1.0000 0.17000  0.26738  0.90732  Biso   1.000  H
  H121     1.0000 0.47570  0.90769  0.41822  Biso   1.000  H
  H122     1.0000 0.59202  0.93609  0.43520  Biso   1.000  H
  H123     1.0000 0.01128  0.17311  0.12210  Biso   1.000  H
  H124     1.0000 0.00952  0.18711  0.00142  Biso   1.000  H
  S47      1.0000 0.47402  0.21751  0.71275  Biso   1.000  S
  S48      1.0000 0.31664  0.19389  0.70207  Biso   1.000  S
  C169     1.0000 0.10449  0.01439  0.02142  Biso   1.000  C
  C170     1.0000 0.10451  0.02731  0.95267  Biso   1.000  C
  C171     1.0000 0.43858  0.19680  0.62812  Biso   1.000  C
  C172     1.0000 0.36549  0.18750  0.62232  Biso   1.000  C
  C173     1.0000 0.08921  0.96620  0.04711  Biso   1.000  C
  C174     1.0000 0.09162  0.99681  0.89472  Biso   1.000  C
  C175     1.0000 0.48343  0.19290  0.56622  Biso   1.000  C
  C176     1.0000 0.33463  0.17009  0.55510  Biso   1.000  C
  C177     1.0000 0.07694  0.93500  0.99261  Biso   1.000  C
  H125     1.0000 0.08821  0.95820  0.09641  Biso   1.000  H
  C178     1.0000 0.07411  0.95030  0.91312  Biso   1.000  C
  H126     1.0000 0.09441  0.00639  0.84630  Biso   1.000  H
  C179     1.0000 0.45079  0.17651  0.50131  Biso   1.000  C
  H127     1.0000 0.53271  0.20112  0.56907  Biso   1.000  H
  H128     1.0000 0.28499  0.16268  0.55132  Biso   1.000  H
  C180     1.0000 0.37603  0.16440  0.49781  Biso   1.000  C
  H129     1.0000 0.06991  0.90351  0.00400  Biso   1.000  H
  H130     1.0000 0.06090  0.92889  0.87648  Biso   1.000  H
  H131     1.0000 0.47853  0.17349  0.45979  Biso   1.000  H
  H132     1.0000 0.35540  0.15219  0.45459  Biso   1.000  H
  C181     1.0000 0.20712  0.47089  0.54662  Biso   1.000  C
  C182     1.0000 0.16271  0.47731  0.48620  Biso   1.000  C
  C183     1.0000 0.19532  0.50749  0.59411  Biso   1.000  C
  H133     1.0000 0.23971  0.44621  0.55450  Biso   1.000  H
  C184     1.0000 0.16221  0.45221  0.41827  Biso   1.000  C
  N13      1.0000 0.12329  0.51799  0.50000  Biso   1.000  N
  C185     1.0000 0.14349  0.53519  0.56612  Biso   1.000  C
  H134     1.0000 0.21989  0.51192  0.63902  Biso   1.000  H
  C186     1.0000 0.20412  0.41020  0.41559  Biso   1.000  C
  C187     1.0000 0.09003  0.44498  0.38179  Biso   1.000  C
  H135     1.0000 0.09079  0.53020  0.47059  Biso   1.000  H
  C188     1.0000 0.10619  0.58081  0.59761  Biso   1.000  C
  H136     1.0000 0.20340  0.39469  0.46221  Biso   1.000  H
  H137     1.0000 0.18343  0.38991  0.37829  Biso   1.000  H
  H138     1.0000 0.25370  0.41782  0.40442  Biso   1.000  H
  C189     1.0000 0.06952  0.43561  0.30702  Biso   1.000  C
  N14      1.0000 0.02733  0.43772  0.41932  Biso   1.000  N
  C190     1.0000 0.10891  0.62009  0.54141  Biso   1.000  C
  C191     1.0000 0.15630  0.59879  0.66258  Biso   1.000  C
  C192     1.0000 0.03321  0.57081  0.62358  Biso   1.000  C
  H139     1.0000 0.09973  0.43740  0.26731  Biso   1.000  H
  C193     1.0000 0.99793  0.42378  0.30500  Biso   1.000  C
  H140     1.0000 0.02640  0.43859  0.46631  Biso   1.000  H
  C194     1.0000 0.96679  0.42919  0.37642  Biso   1.000  C
  C195     1.0000 0.06120  0.65789  0.54831  Biso   1.000  C
  C196     1.0000 0.15841  0.62139  0.48707  Biso   1.000  C
  H141     1.0000 0.13692  0.62760  0.68087  Biso   1.000  H
  H142     1.0000 0.15791  0.57569  0.70098  Biso   1.000  H
  H143     1.0000 0.20492  0.60402  0.64598  Biso   1.000  H
  C197     1.0000 0.00213  0.57622  0.69501  Biso   1.000  C
  N15      1.0000 0.97273  0.56228  0.58069  Biso   1.000  N
  H144     1.0000 0.97200  0.41360  0.26331  Biso   1.000  H
  C198     1.0000 0.89381  0.41919  0.40239  Biso   1.000  C
  C199     1.0000 0.06469  0.69489  0.50132  Biso   1.000  C
  H145     1.0000 0.02704  0.65779  0.58480  Biso   1.000  H
  C200     1.0000 0.16031  0.66049  0.44139  Biso   1.000  C
  H146     1.0000 0.19049  0.59650  0.48077  Biso   1.000  H
  H147     1.0000 0.02801  0.58640  0.73669  Biso   1.000  H
  C201     1.0000 0.93054  0.56439  0.69298  Biso   1.000  C
  C202     1.0000 0.91003  0.55502  0.61821  Biso   1.000  C
  H148     1.0000 0.97360  0.56141  0.53369  Biso   1.000  H
  C203     1.0000 0.89109  0.37991  0.45859  Biso   1.000  C
  C204     1.0000 0.84370  0.40121  0.33742  Biso   1.000  C
  C205     1.0000 0.85652  0.46481  0.43389  Biso   1.000  C
  H149     1.0000 0.03171  0.71949  0.50548  Biso   1.000  H
  N16      1.0000 0.11322  0.69671  0.45048  Biso   1.000  N
  H150     1.0000 0.19402  0.66179  0.40442  Biso   1.000  H
  H151     1.0000 0.90033  0.56260  0.73269  Biso   1.000  H
  C206     1.0000 0.83779  0.54779  0.58173  Biso   1.000  C
  C207     1.0000 0.93881  0.34211  0.45169  Biso   1.000  C
  C208     1.0000 0.84159  0.37861  0.51287  Biso   1.000  C
  H152     1.0000 0.86308  0.37240  0.31907  Biso   1.000  H
  H153     1.0000 0.84209  0.42431  0.29903  Biso   1.000  H
  H154     1.0000 0.79513  0.39598  0.35402  Biso   1.000  H
  C209     1.0000 0.80468  0.49251  0.40589  Biso   1.000  C
  N17      1.0000 0.87671  0.48201  0.50000  Biso   1.000  N
  C210     1.0000 0.12091  0.73950  0.40140  Biso   1.000  C
  C211     1.0000 0.83729  0.52269  0.51380  Biso   1.000  C
  C212     1.0000 0.79589  0.58980  0.58441  Biso   1.000  C
  C213     1.0000 0.93531  0.30511  0.49869  Biso   1.000  C
  H155     1.0000 0.97302  0.34221  0.41521  Biso   1.000  H
  C214     1.0000 0.83969  0.33951  0.55861  Biso   1.000  C
  H156     1.0000 0.80951  0.40350  0.51923  Biso   1.000  H
  H157     1.0000 0.78011  0.48808  0.36098  Biso   1.000  H
  C215     1.0000 0.79288  0.52911  0.45339  Biso   1.000  C
  H158     1.0000 0.90921  0.46980  0.52942  Biso   1.000  H
  H159     1.0000 0.12922  0.76691  0.43109  Biso   1.000  H
  H160     1.0000 0.16162  0.73500  0.37029  Biso   1.000  H
  H161     1.0000 0.07691  0.74339  0.37182  Biso   1.000  H
  H162     1.0000 0.79660  0.60531  0.53780  Biso   1.000  H
  H163     1.0000 0.81663  0.61009  0.62171  Biso   1.000  H
  H164     1.0000 0.74630  0.58218  0.59559  Biso   1.000  H
  H165     1.0000 0.96829  0.28051  0.49452  Biso   1.000  H
  N18      1.0000 0.88683  0.30329  0.54952  Biso   1.000  N
  H166     1.0000 0.80598  0.33821  0.59559  Biso   1.000  H
  H167     1.0000 0.76029  0.55379  0.44550  Biso   1.000  H
  C216     1.0000 0.87909  0.26050  0.59860  Biso   1.000  C
  H168     1.0000 0.87084  0.23309  0.56891  Biso   1.000  H
  H169     1.0000 0.83844  0.26500  0.62971  Biso   1.000  H
  H170     1.0000 0.92309  0.25661  0.62818  Biso   1.000  H
  C217     1.0000 0.54619  0.63241  0.70202  Biso   1.000  C
  C218     1.0000 0.52321  0.68229  0.72968  Biso   1.000  C
  H171     1.0000 0.50329  0.61339  0.69391  Biso   1.000  H
  H172     1.0000 0.57811  0.61781  0.73811  Biso   1.000  H
  H173     1.0000 0.57132  0.63550  0.65688  Biso   1.000  H
  C219     1.0000 0.50389  0.68029  0.80702  Biso   1.000  C
  C220     1.0000 0.46070  0.69899  0.67918  Biso   1.000  C
  C221     1.0000 0.58991  0.71549  0.72239  Biso   1.000  C
  C222     1.0000 0.45011  0.70549  0.84438  Biso   1.000  C
  N19      1.0000 0.53619  0.65231  0.85961  Biso   1.000  N
  H174     1.0000 0.44271  0.72851  0.69648  Biso   1.000  H
  H175     1.0000 0.42191  0.67628  0.67863  Biso   1.000  H
  H176     1.0000 0.47793  0.70289  0.63048  Biso   1.000  H
  C223     1.0000 0.59092  0.76501  0.71089  Biso   1.000  C
  N20      1.0000 0.66222  0.70240  0.73510  Biso   1.000  N
  C224     1.0000 0.45394  0.69218  0.91822  Biso   1.000  C
  S49      1.0000 0.38788  0.75069  0.81968  Biso   1.000  S
  C225     1.0000 0.50709  0.65751  0.92688  Biso   1.000  C
  H177     1.0000 0.57142  0.63322  0.85117  Biso   1.000  H
  C226     1.0000 0.66551  0.77990  0.71571  Biso   1.000  C
  S50      1.0000 0.52286  0.80804  0.70202  Biso   1.000  S
  C227     1.0000 0.70813  0.74139  0.72979  Biso   1.000  C
  H178     1.0000 0.67669  0.67428  0.74469  Biso   1.000  H
  S51      1.0000 0.39570  0.72103  0.97787  Biso   1.000  S
  C228     1.0000 0.34799  0.75241  0.90491  Biso   1.000  C
  C229     1.0000 0.53572  0.63269  0.99891  Biso   1.000  C
  S52      1.0000 0.67919  0.84076  0.71401  Biso   1.000  S
  C230     1.0000 0.58762  0.85459  0.68799  Biso   1.000  C
  C231     1.0000 0.79031  0.73700  0.74310  Biso   1.000  C
  C232     1.0000 0.29101  0.77849  0.92052  Biso   1.000  C
  C233     1.0000 0.55484  0.58239  0.97793  Biso   1.000  C
  C234     1.0000 0.60361  0.66049  0.02728  Biso   1.000  C
  C235     1.0000 0.47791  0.63199  0.05199  Biso   1.000  C
  C236     1.0000 0.56660  0.89600  0.66559  Biso   1.000  C
  C237     1.0000 0.81954  0.68969  0.71549  Biso   1.000  C
  C238     1.0000 0.83013  0.77589  0.70399  Biso   1.000  C
  C239     1.0000 0.80499  0.74090  0.82609  Biso   1.000  C
  S53      1.0000 0.24502  0.81229  0.85139  Biso   1.000  S
  S54      1.0000 0.25012  0.78004  0.00542  Biso   1.000  S
  H179     1.0000 0.51421  0.56871  0.95081  Biso   1.000  H
  H180     1.0000 0.59713  0.58250  0.94829  Biso   1.000  H
  H181     1.0000 0.56491  0.56428  0.02153  Biso   1.000  H
  N21      1.0000 0.67000  0.65449  0.99770  Biso   1.000  N
  C240     1.0000 0.61230  0.69201  0.08118  Biso   1.000  C
  H182     1.0000 0.49498  0.61581  0.09542  Biso   1.000  H
  H183     1.0000 0.43570  0.61619  0.03122  Biso   1.000  H
  H184     1.0000 0.46499  0.66361  0.06431  Biso   1.000  H
  S55      1.0000 0.62654  0.94423  0.65737  Biso   1.000  S
  S56      1.0000 0.47417  0.90867  0.63979  Biso   1.000  S
  H185     1.0000 0.80413  0.68551  0.66510  Biso   1.000  H
  H186     1.0000 0.80043  0.66470  0.74430  Biso   1.000  H
  H187     1.0000 0.87199  0.68959  0.71982  Biso   1.000  H
  H188     1.0000 0.82039  0.80541  0.72700  Biso   1.000  H
  H189     1.0000 0.81329  0.77702  0.65359  Biso   1.000  H
  H190     1.0000 0.88191  0.76989  0.70651  Biso   1.000  H
  C241     1.0000 0.82094  0.77800  0.87172  Biso   1.000  C
  N22      1.0000 0.79903  0.70440  0.87610  Biso   1.000  N
  C242     1.0000 0.16230  0.81159  0.89439  Biso   1.000  C
  C243     1.0000 0.16374  0.79688  0.96851  Biso   1.000  C
  H191     1.0000 0.67854  0.63631  0.96149  Biso   1.000  H
  C244     1.0000 0.72283  0.68250  0.03500  Biso   1.000  C
  C245     1.0000 0.68459  0.70549  0.08441  Biso   1.000  C
  S57      1.0000 0.55241  0.71946  0.14341  Biso   1.000  S
  C246     1.0000 0.56153  0.98399  0.62549  Biso   1.000  C
  C247     1.0000 0.48780  0.96771  0.61722  Biso   1.000  C
  C248     1.0000 0.82203  0.76442  0.94391  Biso   1.000  C
  S58      1.0000 0.83529  0.83897  0.85369  Biso   1.000  S
  C249     1.0000 0.80902  0.71700  0.94753  Biso   1.000  C
  H192     1.0000 0.78962  0.67600  0.86279  Biso   1.000  H
  C250     1.0000 0.09624  0.82510  0.86202  Biso   1.000  C
  C251     1.0000 0.10081  0.79622  0.00909  Biso   1.000  C
  C252     1.0000 0.80311  0.68499  0.01101  Biso   1.000  C
  S59      1.0000 0.70909  0.75185  0.14834  Biso   1.000  S
  C253     1.0000 0.62472  0.75182  0.18789  Biso   1.000  C
  C254     1.0000 0.57200  0.02801  0.61207  Biso   1.000  C
  C255     1.0000 0.43274  0.99670  0.59372  Biso   1.000  C
  S60      1.0000 0.83599  0.80776  0.01167  Biso   1.000  S
  C256     1.0000 0.84700  0.85381  0.94698  Biso   1.000  C
  H193     1.0000 0.09379  0.83630  0.81420  Biso   1.000  H
  C257     1.0000 0.03363  0.82149  0.90212  Biso   1.000  C
  C258     1.0000 0.03341  0.81089  0.97289  Biso   1.000  C
  H194     1.0000 0.10220  0.78649  0.05779  Biso   1.000  H
  C259     1.0000 0.83114  0.63441  0.99288  Biso   1.000  C
  C260     1.0000 0.84931  0.70310  0.07691  Biso   1.000  C
  C261     1.0000 0.61402  0.77519  0.24918  Biso   1.000  C
  C262     1.0000 0.51412  0.06069  0.58951  Biso   1.000  C
  H195     1.0000 0.61950  0.03959  0.61728  Biso   1.000  H
  H196     1.0000 0.38549  0.98480  0.58638  Biso   1.000  H
  C263     1.0000 0.44599  0.04408  0.58008  Biso   1.000  C
  C264     1.0000 0.86560  0.89660  0.96922  Biso   1.000  C
  H197     1.0000 0.98872  0.82689  0.87790  Biso   1.000  H
  H198     1.0000 0.99053  0.81289  0.99858  Biso   1.000  H
  H199     1.0000 0.80421  0.62241  0.95092  Biso   1.000  H
  H200     1.0000 0.88230  0.63560  0.98280  Biso   1.000  H
  H201     1.0000 0.82399  0.61409  0.03413  Biso   1.000  H
  H202     1.0000 0.89913  0.70731  0.06310  Biso   1.000  H
  H203     1.0000 0.84772  0.68081  0.11618  Biso   1.000  H
  H204     1.0000 0.83000  0.73262  0.09268  Biso   1.000  H
  S61      1.0000 0.52604  0.78249  0.28720  Biso   1.000  S
  S62      1.0000 0.68336  0.80611  0.29793  Biso   1.000  S
  H205     1.0000 0.52430  0.09231  0.58178  Biso   1.000  H
  H206     1.0000 0.40803  0.06391  0.56480  Biso   1.000  H
  S63      1.0000 0.87660  0.94279  0.90721  Biso   1.000  S
  S64      1.0000 0.87589  0.91243  0.06261  Biso   1.000  S
  C265     1.0000 0.56142  0.80320  0.37188  Biso   1.000  C
  C266     1.0000 0.63451  0.81250  0.37769  Biso   1.000  C
  C267     1.0000 0.89551  0.98561  0.97858  Biso   1.000  C
  C268     1.0000 0.89549  0.97269  0.04733  Biso   1.000  C
  C269     1.0000 0.51663  0.80710  0.43378  Biso   1.000  C
  C270     1.0000 0.66543  0.82991  0.44490  Biso   1.000  C
  C271     1.0000 0.91084  0.03380  0.95289  Biso   1.000  C
  C272     1.0000 0.90838  0.00319  0.10528  Biso   1.000  C
  C273     1.0000 0.54921  0.82349  0.49869  Biso   1.000  C
  H207     1.0000 0.46729  0.79888  0.43087  Biso   1.000  H
  H208     1.0000 0.71501  0.83732  0.44868  Biso   1.000  H
  C274     1.0000 0.62403  0.83560  0.50219  Biso   1.000  C
  H209     1.0000 0.91179  0.04180  0.90360  Biso   1.000  H
  C275     1.0000 0.92312  0.06500  0.00740  Biso   1.000  C
  H210     1.0000 0.90559  0.99361  0.15371  Biso   1.000  H
  C276     1.0000 0.92589  0.04970  0.08688  Biso   1.000  C
  H211     1.0000 0.52153  0.82651  0.54021  Biso   1.000  H
  H212     1.0000 0.64460  0.84781  0.54541  Biso   1.000  H
  H213     1.0000 0.93009  0.09649  0.99600  Biso   1.000  H
  H214     1.0000 0.93910  0.07111  0.12352  Biso   1.000  H
  C277     1.0000 0.37911  0.23951  0.09860  Biso   1.000  C
  H215     1.0000 0.37081  0.26689  0.06891  Biso   1.000  H
  H216     1.0000 0.33841  0.23499  0.12971  Biso   1.000  H
  H217     1.0000 0.42312  0.24341  0.12818  Biso   1.000  H
  N23      1.0000 0.38680  0.19669  0.04952  Biso   1.000  N
  C278     1.0000 0.33971  0.16051  0.05861  Biso   1.000  C
  C279     1.0000 0.43534  0.19490  0.99869  Biso   1.000  C
  H218     1.0000 0.30601  0.16181  0.09559  Biso   1.000  H
  C280     1.0000 0.34161  0.12141  0.01293  Biso   1.000  C
  H219     1.0000 0.46831  0.21951  0.99452  Biso   1.000  H
  C281     1.0000 0.43883  0.15791  0.95169  Biso   1.000  C
  H220     1.0000 0.30948  0.09649  0.01923  Biso   1.000  H
  C282     1.0000 0.39112  0.12011  0.95859  Biso   1.000  C
  H221     1.0000 0.47299  0.15780  0.91521  Biso   1.000  H
  C283     1.0000 0.39384  0.08080  0.90239  Biso   1.000  C
  C284     1.0000 0.34373  0.09880  0.83742  Biso   1.000  C
  C285     1.0000 0.46682  0.07079  0.87642  Biso   1.000  C
  C286     1.0000 0.35649  0.03520  0.93388  Biso   1.000  C
  H222     1.0000 0.36311  0.12758  0.81907  Biso   1.000  H
  H223     1.0000 0.34212  0.07571  0.79902  Biso   1.000  H
  H224     1.0000 0.29511  0.10400  0.85402  Biso   1.000  H
  C287     1.0000 0.49790  0.07620  0.80500  Biso   1.000  C
  N24      1.0000 0.52730  0.06230  0.91931  Biso   1.000  N
  N25      1.0000 0.37668  0.01801  0.00000  Biso   1.000  N
  C288     1.0000 0.30471  0.00751  0.90589  Biso   1.000  C
  H225     1.0000 0.47202  0.08641  0.76331  Biso   1.000  H
  C289     1.0000 0.56949  0.06441  0.80702  Biso   1.000  C
  C290     1.0000 0.59000  0.05500  0.88179  Biso   1.000  C
  H226     1.0000 0.52643  0.06139  0.96631  Biso   1.000  H
  H227     1.0000 0.40918  0.03018  0.02942  Biso   1.000  H
  C291     1.0000 0.33732  0.97729  0.01380  Biso   1.000  C
  C292     1.0000 0.29291  0.97090  0.95339  Biso   1.000  C
  H228     1.0000 0.28013  0.01190  0.86098  Biso   1.000  H
  H229     1.0000 0.59970  0.06262  0.76731  Biso   1.000  H
  C293     1.0000 0.66224  0.04780  0.91827  Biso   1.000  C
  C294     1.0000 0.33782  0.95220  0.08173  Biso   1.000  C
  H230     1.0000 0.26031  0.94619  0.94550  Biso   1.000  H
  C295     1.0000 0.66273  0.02271  0.98620  Biso   1.000  C
  C296     1.0000 0.70409  0.08978  0.91559  Biso   1.000  C
  C297     1.0000 0.29591  0.91022  0.08441  Biso   1.000  C
  C298     1.0000 0.41000  0.94500  0.11821  Biso   1.000  C
  C299     1.0000 0.70709  0.02910  0.04661  Biso   1.000  C
  N26      1.0000 0.62332  0.98199  0.00000  Biso   1.000  N
  H231     1.0000 0.70342  0.10530  0.96220  Biso   1.000  H
  H232     1.0000 0.68340  0.11010  0.87829  Biso   1.000  H
  H233     1.0000 0.75373  0.08220  0.90441  Biso   1.000  H
  H234     1.0000 0.29658  0.89470  0.03780  Biso   1.000  H
  H235     1.0000 0.31660  0.88990  0.12171  Biso   1.000  H
  H236     1.0000 0.24632  0.91780  0.09559  Biso   1.000  H
  C300     1.0000 0.43051  0.93559  0.19298  Biso   1.000  C
  N27      1.0000 0.47270  0.93770  0.08069  Biso   1.000  N
  H237     1.0000 0.73969  0.05381  0.05450  Biso   1.000  H
  C301     1.0000 0.69529  0.99249  0.09411  Biso   1.000  C
  H238     1.0000 0.59082  0.96982  0.97058  Biso   1.000  H
  C302     1.0000 0.64351  0.96480  0.06612  Biso   1.000  C
  C303     1.0000 0.50210  0.92380  0.19500  Biso   1.000  C
  H239     1.0000 0.40030  0.93738  0.23269  Biso   1.000  H
  C304     1.0000 0.53318  0.92921  0.12358  Biso   1.000  C
  H240     1.0000 0.47362  0.93861  0.03369  Biso   1.000  H
  H241     1.0000 0.71992  0.98810  0.13902  Biso   1.000  H
  C305     1.0000 0.60622  0.91920  0.09761  Biso   1.000  C
  H242     1.0000 0.52798  0.91359  0.23669  Biso   1.000  H
  C306     1.0000 0.60888  0.87989  0.04141  Biso   1.000  C
  C307     1.0000 0.65632  0.90120  0.16258  Biso   1.000  C
  C308     1.0000 0.65844  0.87859  0.98707  Biso   1.000  C
  C309     1.0000 0.56122  0.84209  0.04831  Biso   1.000  C
  H243     1.0000 0.63689  0.87242  0.18093  Biso   1.000  H
  H244     1.0000 0.65788  0.92429  0.20098  Biso   1.000  H
  H245     1.0000 0.70489  0.89600  0.14598  Biso   1.000  H
  C310     1.0000 0.66034  0.83949  0.94139  Biso   1.000  C
  H246     1.0000 0.69052  0.90351  0.98077  Biso   1.000  H
  C311     1.0000 0.56472  0.80510  0.00131  Biso   1.000  C
  H247     1.0000 0.52701  0.84220  0.08479  Biso   1.000  H
  H248     1.0000 0.69399  0.83819  0.90441  Biso   1.000  H
  N28      1.0000 0.61320  0.80331  0.95048  Biso   1.000  N
  H249     1.0000 0.53169  0.78049  0.00548  Biso   1.000  H
  C312     1.0000 0.62094  0.76049  0.90140  Biso   1.000  C
  H250     1.0000 0.62919  0.73311  0.93109  Biso   1.000  H
  H251     1.0000 0.66159  0.76501  0.87029  Biso   1.000  H
  H252     1.0000 0.57694  0.75659  0.87182  Biso   1.000  H
