data_image0
_cell_length_a       19.834
_cell_length_b       17.744
_cell_length_c       20.585
_cell_angle_alpha    90
_cell_angle_beta     109.13
_cell_angle_gamma    90

_symmetry_space_group_name_H-M    "P 1"
_symmetry_int_tables_number       1

loop_
  _symmetry_equiv_pos_as_xyz
  'x, y, z'

loop_
  _atom_site_label
  _atom_site_occupancy
  _atom_site_fract_x
  _atom_site_fract_y
  _atom_site_fract_z
  _atom_site_thermal_displace_type
  _atom_site_B_iso_or_equiv
  _atom_site_type_symbol
  C1       1.0000 0.65482  0.36869  0.69148  Biso   1.000  C
  C2       1.0000 0.60667  0.30957  0.68376  Biso   1.000  C
  H1       1.0000 0.64185  0.41811  0.70078  Biso   1.000  H
  C3       1.0000 0.72054  0.35629  0.68577  Biso   1.000  C
  C4       1.0000 0.62637  0.23817  0.66906  Biso   1.000  C
  C5       1.0000 0.53638  0.32360  0.69621  Biso   1.000  C
  C6       1.0000 0.74023  0.28449  0.67487  Biso   1.000  C
  H2       1.0000 0.75252  0.39720  0.68937  Biso   1.000  H
  O1       1.0000 0.57683  0.17984  0.65564  Biso   1.000  O
  C7       1.0000 0.69416  0.22368  0.66633  Biso   1.000  C
  C8       1.0000 0.55179  0.34400  0.77189  Biso   1.000  C
  H3       1.0000 0.50625  0.27778  0.68469  Biso   1.000  H
  H4       1.0000 0.51034  0.36531  0.66649  Biso   1.000  H
  C9       1.0000 0.52215  0.27880  0.74598  Biso   1.000  C
  H5       1.0000 0.78694  0.27609  0.67317  Biso   1.000  H
  C10      1.0000 0.53736  0.17437  0.58375  Biso   1.000  C
  C11      1.0000 0.71909  0.14563  0.65749  Biso   1.000  C
  C12      1.0000 0.57006  0.28883  0.82280  Biso   1.000  C
  C13      1.0000 0.55041  0.41901  0.79200  Biso   1.000  C
  O2       1.0000 0.61554  0.34468  0.83067  Biso   1.000  O
  C14      1.0000 0.57605  0.29001  0.81699  Biso   1.000  C
  O3       1.0000 0.57390  0.21489  0.80413  Biso   1.000  O
  C15      1.0000 0.46953  0.22261  0.73477  Biso   1.000  C
  C16      1.0000 0.49369  0.10420  0.56905  Biso   1.000  C
  H6       1.0000 0.57084  0.17409  0.55707  Biso   1.000  H
  H7       1.0000 0.50572  0.21878  0.56931  Biso   1.000  H
  H8       1.0000 0.73642  0.14501  0.61759  Biso   1.000  H
  H9       1.0000 0.67834  0.11029  0.64767  Biso   1.000  H
  C17      1.0000 0.77794  0.11897  0.72037  Biso   1.000  C
  C18      1.0000 0.59221  0.30579  0.89268  Biso   1.000  C
  C19      1.0000 0.56063  0.24448  0.86579  Biso   1.000  C
  H10      1.0000 0.53712  0.45762  0.75827  Biso   1.000  H
  C20      1.0000 0.56827  0.43722  0.86141  Biso   1.000  C
  C21      1.0000 0.58424  0.41518  0.84239  Biso   1.000  C
  C22      1.0000 0.50741  0.17662  0.79277  Biso   1.000  C
  H11      1.0000 0.48373  0.16952  0.74331  Biso   1.000  H
  H12      1.0000 0.43956  0.21399  0.68891  Biso   1.000  H
  C23      1.0000 0.45963  0.18339  0.78110  Biso   1.000  C
  H13      1.0000 0.47263  0.09682  0.51871  Biso   1.000  H
  H14      1.0000 0.52411  0.06019  0.58869  Biso   1.000  H
  O4       1.0000 0.43812  0.11069  0.59882  Biso   1.000  O
  C24      1.0000 0.76424  0.10201  0.78105  Biso   1.000  C
  C25      1.0000 0.84894  0.11288  0.72130  Biso   1.000  C
  C26      1.0000 0.61804  0.24589  0.94564  Biso   1.000  C
  C27      1.0000 0.58914  0.38193  0.91047  Biso   1.000  C
  C28      1.0000 0.50617  0.18818  0.85211  Biso   1.000  C
  H15      1.0000 0.56606  0.48811  0.87478  Biso   1.000  H
  H16      1.0000 0.53844  0.42302  0.80588  Biso   1.000  H
  H17      1.0000 0.61652  0.45689  0.84229  Biso   1.000  H
  H18      1.0000 0.57646  0.41332  0.88697  Biso   1.000  H
  H19      1.0000 0.47684  0.20672  0.81169  Biso   1.000  H
  H20      1.0000 0.51634  0.12742  0.81560  Biso   1.000  H
  H21      1.0000 0.42053  0.14929  0.76948  Biso   1.000  H
  C29      1.0000 0.38658  0.05568  0.58278  Biso   1.000  C
  C30      1.0000 0.81745  0.07862  0.84100  Biso   1.000  C
  O5       1.0000 0.69625  0.11418  0.78305  Biso   1.000  O
  C31      1.0000 0.90200  0.09107  0.77992  Biso   1.000  C
  H22      1.0000 0.86025  0.12393  0.68088  Biso   1.000  H
  C32      1.0000 0.69495  0.22402  0.95371  Biso   1.000  C
  H23      1.0000 0.58696  0.20108  0.93206  Biso   1.000  H
  H24      1.0000 0.61554  0.26431  0.99017  Biso   1.000  H
  H25      1.0000 0.60173  0.39529  0.95757  Biso   1.000  H
  H26      1.0000 0.50073  0.15622  0.88697  Biso   1.000  H
  C33      1.0000 0.33355  0.06306  0.61275  Biso   1.000  C
  C34      1.0000 0.38520  0.99482  0.54061  Biso   1.000  C
  C35      1.0000 0.88698  0.07428  0.83817  Biso   1.000  C
  C36      1.0000 0.80030  0.06419  0.90620  Biso   1.000  C
  C37      1.0000 0.64920  0.05151  0.76552  Biso   1.000  C
  H27      1.0000 0.94976  0.08780  0.77981  Biso   1.000  H
  C38      1.0000 0.71332  0.15301  0.93551  Biso   1.000  C
  C39      1.0000 0.74954  0.27671  0.97813  Biso   1.000  C
  C40      1.0000 0.28013  0.00969  0.60083  Biso   1.000  C
  H28      1.0000 0.33403  0.10499  0.64160  Biso   1.000  H
  H29      1.0000 0.42091  0.98924  0.51948  Biso   1.000  H
  C41      1.0000 0.33103  0.94195  0.52946  Biso   1.000  C
  H30      1.0000 0.92465  0.05917  0.87807  Biso   1.000  H
  H31      1.0000 0.84178  0.03990  0.94039  Biso   1.000  H
  H32      1.0000 0.75933  0.02919  0.89617  Biso   1.000  H
  C42      1.0000 0.78241  0.13644  0.93602  Biso   1.000  C
  H33      1.0000 0.64917  0.03060  0.72140  Biso   1.000  H
  H34      1.0000 0.60086  0.06791  0.76171  Biso   1.000  H
  H35      1.0000 0.66515  0.01291  0.80131  Biso   1.000  H
  O6       1.0000 0.66130  0.09688  0.91643  Biso   1.000  O
  H36      1.0000 0.73875  0.32501  0.99207  Biso   1.000  H
  C43      1.0000 0.81835  0.26020  0.98240  Biso   1.000  C
  H37      1.0000 0.24404  0.01578  0.62129  Biso   1.000  H
  C44      1.0000 0.27816  0.94742  0.55959  Biso   1.000  C
  H38      1.0000 0.33022  0.90042  0.50010  Biso   1.000  H
  C45      1.0000 0.83455  0.19122  0.96050  Biso   1.000  C
  C46      1.0000 0.66116  0.05281  0.97459  Biso   1.000  C
  H39      1.0000 0.85490  0.29638  0.00060  Biso   1.000  H
  C47      1.0000 0.21767  0.88881  0.54437  Biso   1.000  C
  H40      1.0000 0.88203  0.18102  0.96209  Biso   1.000  H
  H41      1.0000 0.70674  0.02480  0.99238  Biso   1.000  H
  C48      1.0000 0.60034  0.99831  0.95525  Biso   1.000  C
  H42      1.0000 0.65723  0.08640  0.01151  Biso   1.000  H
  C49      1.0000 0.24448  0.81199  0.53290  Biso   1.000  C
  C50      1.0000 0.18530  0.88390  0.60083  Biso   1.000  C
  C51      1.0000 0.15879  0.91360  0.47768  Biso   1.000  C
  H43      1.0000 0.55526  0.02542  0.93181  Biso   1.000  H
  H44      1.0000 0.59607  0.97430  0.99711  Biso   1.000  H
  O7       1.0000 0.61234  0.94111  0.90975  Biso   1.000  O
  C52      1.0000 0.21460  0.75710  0.48657  Biso   1.000  C
  N1       1.0000 0.30948  0.78483  0.57327  Biso   1.000  N
  C53      1.0000 0.11538  0.88312  0.59954  Biso   1.000  C
  N2       1.0000 0.22613  0.87551  0.66885  Biso   1.000  N
  H45      1.0000 0.13754  0.96100  0.48591  Biso   1.000  H
  H46      1.0000 0.12181  0.87461  0.46369  Biso   1.000  H
  H47      1.0000 0.17973  0.92099  0.44112  Biso   1.000  H
  C54      1.0000 0.56620  0.88069  0.89551  Biso   1.000  C
  C55      1.0000 0.26264  0.69640  0.49871  Biso   1.000  C
  H48      1.0000 0.16920  0.75919  0.45197  Biso   1.000  H
  C56      1.0000 0.32290  0.71500  0.55208  Biso   1.000  C
  H49      1.0000 0.33882  0.80929  0.60838  Biso   1.000  H
  H50      1.0000 0.07452  0.88791  0.55959  Biso   1.000  H
  C57      1.0000 0.11447  0.87410  0.66669  Biso   1.000  C
  C58      1.0000 0.18421  0.86976  0.70999  Biso   1.000  C
  H51      1.0000 0.27302  0.87393  0.68397  Biso   1.000  H
  C59      1.0000 0.51275  0.86931  0.92379  Biso   1.000  C
  C60      1.0000 0.57496  0.82811  0.84907  Biso   1.000  C
  H52      1.0000 0.25472  0.65019  0.47408  Biso   1.000  H
  C61      1.0000 0.39336  0.67476  0.58463  Biso   1.000  C
  H53      1.0000 0.07314  0.87139  0.68022  Biso   1.000  H
  C62      1.0000 0.21454  0.86581  0.78701  Biso   1.000  C
  C63      1.0000 0.46865  0.80743  0.90471  Biso   1.000  C
  H54      1.0000 0.50635  0.90414  0.95628  Biso   1.000  H
  C64      1.0000 0.53051  0.76612  0.83031  Biso   1.000  C
  H55      1.0000 0.61207  0.83482  0.82979  Biso   1.000  H
  C65      1.0000 0.40036  0.64546  0.65517  Biso   1.000  C
  C66      1.0000 0.39703  0.60781  0.53820  Biso   1.000  C
  C67      1.0000 0.45571  0.72904  0.58992  Biso   1.000  C
  C68      1.0000 0.25649  0.79463  0.81252  Biso   1.000  C
  C69      1.0000 0.15252  0.86903  0.81678  Biso   1.000  C
  C70      1.0000 0.26295  0.93519  0.81313  Biso   1.000  C
  C71      1.0000 0.47548  0.75473  0.85704  Biso   1.000  C
  H56      1.0000 0.43238  0.80033  0.92481  Biso   1.000  H
  H57      1.0000 0.53786  0.73073  0.79868  Biso   1.000  H
  C72      1.0000 0.40417  0.57377  0.68001  Biso   1.000  C
  N3       1.0000 0.40863  0.69246  0.71060  Biso   1.000  N
  H58      1.0000 0.44181  0.58031  0.55897  Biso   1.000  H
  H59      1.0000 0.39513  0.62663  0.49290  Biso   1.000  H
  H60      1.0000 0.35661  0.57400  0.53321  Biso   1.000  H
  H61      1.0000 0.45413  0.77153  0.61980  Biso   1.000  H
  H62      1.0000 0.45154  0.74791  0.54401  Biso   1.000  H
  H63      1.0000 0.50104  0.70221  0.60921  Biso   1.000  H
  C73      1.0000 0.24463  0.73681  0.85118  Biso   1.000  C
  N4       1.0000 0.32113  0.77970  0.80393  Biso   1.000  N
  H64      1.0000 0.12514  0.91541  0.80151  Biso   1.000  H
  H65      1.0000 0.17182  0.86829  0.86717  Biso   1.000  H
  H66      1.0000 0.12133  0.82529  0.80069  Biso   1.000  H
  H67      1.0000 0.30216  0.93440  0.79411  Biso   1.000  H
  H68      1.0000 0.28244  0.93384  0.86347  Biso   1.000  H
  H69      1.0000 0.23493  0.98129  0.79848  Biso   1.000  H
  C74      1.0000 0.42341  0.68733  0.83797  Biso   1.000  C
  C75      1.0000 0.41538  0.57710  0.75092  Biso   1.000  C
  H70      1.0000 0.39991  0.52902  0.65368  Biso   1.000  H
  C76      1.0000 0.41815  0.65115  0.76958  Biso   1.000  C
  H71      1.0000 0.40795  0.74200  0.70860  Biso   1.000  H
  H72      1.0000 0.20412  0.73151  0.86579  Biso   1.000  H
  C77      1.0000 0.30286  0.68620  0.86584  Biso   1.000  C
  C78      1.0000 0.35026  0.71404  0.83591  Biso   1.000  C
  H73      1.0000 0.34114  0.80872  0.78079  Biso   1.000  H
  C79      1.0000 0.44961  0.62725  0.89484  Biso   1.000  C
  H74      1.0000 0.42016  0.53511  0.78069  Biso   1.000  H
  H75      1.0000 0.30816  0.64101  0.89180  Biso   1.000  H
  H76      1.0000 0.45683  0.65059  0.93978  Biso   1.000  H
  H77      1.0000 0.49474  0.60589  0.89381  Biso   1.000  H
  H78      1.0000 0.41383  0.58718  0.88718  Biso   1.000  H
  C80      1.0000 0.34523  0.63131  0.30851  Biso   1.000  C
  C81      1.0000 0.39338  0.69043  0.31622  Biso   1.000  C
  H79      1.0000 0.35824  0.58189  0.29920  Biso   1.000  H
  C82      1.0000 0.27951  0.64371  0.31422  Biso   1.000  C
  C83      1.0000 0.37367  0.76183  0.33093  Biso   1.000  C
  C84      1.0000 0.46366  0.67645  0.30378  Biso   1.000  C
  H80      1.0000 0.24753  0.60280  0.31062  Biso   1.000  H
  C85      1.0000 0.25982  0.71551  0.32512  Biso   1.000  C
  C86      1.0000 0.30593  0.77632  0.33365  Biso   1.000  C
  O8       1.0000 0.42321  0.82016  0.34435  Biso   1.000  O
  C87      1.0000 0.44826  0.65600  0.22809  Biso   1.000  C
  H81      1.0000 0.49380  0.72222  0.31530  Biso   1.000  H
  H82      1.0000 0.48970  0.63469  0.33350  Biso   1.000  H
  C88      1.0000 0.47794  0.72120  0.25401  Biso   1.000  C
  H83      1.0000 0.21310  0.72391  0.32682  Biso   1.000  H
  C89      1.0000 0.28096  0.85443  0.34250  Biso   1.000  C
  C90      1.0000 0.46268  0.82563  0.41623  Biso   1.000  C
  C91      1.0000 0.43003  0.71123  0.17719  Biso   1.000  C
  C92      1.0000 0.44969  0.58099  0.20799  Biso   1.000  C
  O9       1.0000 0.38450  0.65532  0.16932  Biso   1.000  O
  C93      1.0000 0.42399  0.70999  0.18300  Biso   1.000  C
  O10      1.0000 0.42615  0.78511  0.19585  Biso   1.000  O
  C94      1.0000 0.53051  0.77739  0.26522  Biso   1.000  C
  H84      1.0000 0.26362  0.85499  0.38240  Biso   1.000  H
  H85      1.0000 0.32171  0.88971  0.35232  Biso   1.000  H
  C95      1.0000 0.22211  0.88109  0.27961  Biso   1.000  C
  C96      1.0000 0.50641  0.89580  0.43094  Biso   1.000  C
  H86      1.0000 0.42926  0.82591  0.44292  Biso   1.000  H
  H87      1.0000 0.49432  0.78122  0.43068  Biso   1.000  H
  C97      1.0000 0.40783  0.69421  0.10731  Biso   1.000  C
  C98      1.0000 0.43941  0.75552  0.13420  Biso   1.000  C
  H88      1.0000 0.46292  0.54238  0.24172  Biso   1.000  H
  C99      1.0000 0.43182  0.56278  0.13857  Biso   1.000  C
  C100     1.0000 0.41581  0.58482  0.15760  Biso   1.000  C
  C101     1.0000 0.49263  0.82343  0.20722  Biso   1.000  C
  H89      1.0000 0.51631  0.83053  0.25668  Biso   1.000  H
  H90      1.0000 0.56053  0.78601  0.31108  Biso   1.000  H
  C102     1.0000 0.54042  0.81661  0.21889  Biso   1.000  C
  C103     1.0000 0.23581  0.89799  0.21894  Biso   1.000  C
  C104     1.0000 0.15116  0.88712  0.27869  Biso   1.000  C
  H91      1.0000 0.52741  0.90323  0.48128  Biso   1.000  H
  H92      1.0000 0.47593  0.93981  0.41130  Biso   1.000  H
  O11      1.0000 0.56193  0.88937  0.40117  Biso   1.000  O
  C105     1.0000 0.38200  0.75411  0.05435  Biso   1.000  C
  C106     1.0000 0.41091  0.61812  0.08952  Biso   1.000  C
  C107     1.0000 0.49393  0.81182  0.14788  Biso   1.000  C
  H93      1.0000 0.43403  0.51189  0.12520  Biso   1.000  H
  H94      1.0000 0.46160  0.57698  0.19410  Biso   1.000  H
  H95      1.0000 0.38353  0.54311  0.15770  Biso   1.000  H
  H96      1.0000 0.42364  0.58673  0.11302  Biso   1.000  H
  H97      1.0000 0.52320  0.79328  0.18829  Biso   1.000  H
  H98      1.0000 0.48371  0.87263  0.18439  Biso   1.000  H
  H99      1.0000 0.57951  0.85071  0.23051  Biso   1.000  H
  C108     1.0000 0.18259  0.92138  0.15899  Biso   1.000  C
  O12      1.0000 0.30384  0.88582  0.21693  Biso   1.000  O
  C109     1.0000 0.09806  0.90893  0.22012  Biso   1.000  C
  H100     1.0000 0.13979  0.87613  0.31910  Biso   1.000  H
  C110     1.0000 0.61347  0.94438  0.41721  Biso   1.000  C
  C111     1.0000 0.30509  0.77604  0.04628  Biso   1.000  C
  H101     1.0000 0.41314  0.79892  0.06792  Biso   1.000  H
  H102     1.0000 0.38450  0.73569  0.00982  Biso   1.000  H
  H103     1.0000 0.39831  0.60471  0.04242  Biso   1.000  H
  H104     1.0000 0.49932  0.84383  0.11302  Biso   1.000  H
  C112     1.0000 0.11307  0.92572  0.16181  Biso   1.000  C
  C113     1.0000 0.19974  0.93581  0.09379  Biso   1.000  C
  C114     1.0000 0.35090  0.94849  0.23447  Biso   1.000  C
  H105     1.0000 0.05028  0.91220  0.22017  Biso   1.000  H
  C115     1.0000 0.66649  0.93699  0.38723  Biso   1.000  C
  C116     1.0000 0.61485  0.00518  0.45937  Biso   1.000  C
  C117     1.0000 0.28678  0.84699  0.06448  Biso   1.000  C
  C118     1.0000 0.25050  0.72329  0.02185  Biso   1.000  C
  H106     1.0000 0.07540  0.94083  0.12191  Biso   1.000  H
  H107     1.0000 0.15831  0.96010  0.05959  Biso   1.000  H
  H108     1.0000 0.24071  0.97081  0.10381  Biso   1.000  H
  C119     1.0000 0.21763  0.86356  0.06396  Biso   1.000  C
  H109     1.0000 0.35093  0.96940  0.27859  Biso   1.000  H
  H110     1.0000 0.39923  0.93209  0.23827  Biso   1.000  H
  H111     1.0000 0.33489  0.98709  0.19868  Biso   1.000  H
  C120     1.0000 0.71991  0.99031  0.39916  Biso   1.000  C
  H112     1.0000 0.66601  0.89501  0.35839  Biso   1.000  H
  H113     1.0000 0.57913  0.01082  0.48051  Biso   1.000  H
  C121     1.0000 0.66901  0.05805  0.47053  Biso   1.000  C
  O13      1.0000 0.33874  0.90312  0.08356  Biso   1.000  O
  H114     1.0000 0.26129  0.67499  0.00792  Biso   1.000  H
  C122     1.0000 0.18169  0.73980  0.01759  Biso   1.000  C
  C123     1.0000 0.16549  0.80884  0.03949  Biso   1.000  C
  H115     1.0000 0.75601  0.98422  0.37870  Biso   1.000  H
  C124     1.0000 0.72194  0.05258  0.44040  Biso   1.000  C
  H116     1.0000 0.66982  0.09958  0.49989  Biso   1.000  H
  C125     1.0000 0.33888  0.94719  0.02540  Biso   1.000  C
  H117     1.0000 0.14515  0.70362  0.99938  Biso   1.000  H
  H118     1.0000 0.11801  0.81898  0.03790  Biso   1.000  H
  C126     1.0000 0.78237  0.11125  0.45562  Biso   1.000  C
  H119     1.0000 0.29330  0.97520  0.00761  Biso   1.000  H
  H120     1.0000 0.34286  0.91360  0.98848  Biso   1.000  H
  C127     1.0000 0.39971  0.00169  0.04473  Biso   1.000  C
  C128     1.0000 0.75562  0.18801  0.46709  Biso   1.000  C
  C129     1.0000 0.81475  0.11610  0.39916  Biso   1.000  C
  C130     1.0000 0.84131  0.08640  0.52231  Biso   1.000  C
  H121     1.0000 0.44479  0.97458  0.06818  Biso   1.000  H
  H122     1.0000 0.40402  0.02570  0.00288  Biso   1.000  H
  O14      1.0000 0.38771  0.05889  0.09024  Biso   1.000  O
  C131     1.0000 0.78544  0.24290  0.51341  Biso   1.000  C
  N5       1.0000 0.69061  0.21517  0.42672  Biso   1.000  N
  C132     1.0000 0.88471  0.11688  0.40045  Biso   1.000  C
  N6       1.0000 0.77397  0.12455  0.33114  Biso   1.000  N
  H123     1.0000 0.86256  0.03900  0.51408  Biso   1.000  H
  H124     1.0000 0.87823  0.12539  0.53630  Biso   1.000  H
  H125     1.0000 0.82031  0.07901  0.55887  Biso   1.000  H
  C133     1.0000 0.43389  0.11936  0.10448  Biso   1.000  C
  C134     1.0000 0.73745  0.30360  0.50128  Biso   1.000  C
  H126     1.0000 0.83084  0.24081  0.54802  Biso   1.000  H
  C135     1.0000 0.67715  0.28500  0.44791  Biso   1.000  C
  H127     1.0000 0.66123  0.19071  0.39160  Biso   1.000  H
  H128     1.0000 0.92553  0.11209  0.44040  Biso   1.000  H
  C136     1.0000 0.88557  0.12590  0.33329  Biso   1.000  C
  C137     1.0000 0.81589  0.13024  0.29000  Biso   1.000  C
  H129     1.0000 0.72703  0.12613  0.31602  Biso   1.000  H
  C138     1.0000 0.48730  0.13069  0.07620  Biso   1.000  C
  C139     1.0000 0.42508  0.17189  0.15091  Biso   1.000  C
  H130     1.0000 0.74532  0.34981  0.52591  Biso   1.000  H
  C140     1.0000 0.60674  0.32524  0.41536  Biso   1.000  C
  H131     1.0000 0.92690  0.12861  0.31977  Biso   1.000  H
  C141     1.0000 0.78556  0.13419  0.21298  Biso   1.000  C
  H132     1.0000 0.49369  0.09592  0.04371  Biso   1.000  H
  C142     1.0000 0.53140  0.19263  0.09528  Biso   1.000  C
  C143     1.0000 0.46953  0.23394  0.16968  Biso   1.000  C
  H133     1.0000 0.38803  0.16518  0.17020  Biso   1.000  H
  C144     1.0000 0.59973  0.35454  0.34481  Biso   1.000  C
  C145     1.0000 0.60302  0.39219  0.46179  Biso   1.000  C
  C146     1.0000 0.54433  0.27102  0.41006  Biso   1.000  C
  C147     1.0000 0.74361  0.20537  0.18747  Biso   1.000  C
  C148     1.0000 0.84753  0.13097  0.18320  Biso   1.000  C
  C149     1.0000 0.73709  0.06481  0.18685  Biso   1.000  C
  H134     1.0000 0.56772  0.19973  0.07517  Biso   1.000  H
  C150     1.0000 0.52457  0.24527  0.14294  Biso   1.000  C
  H135     1.0000 0.46224  0.26933  0.20130  Biso   1.000  H
  C151     1.0000 0.59587  0.42628  0.31998  Biso   1.000  C
  N7       1.0000 0.59142  0.30754  0.28938  Biso   1.000  N
  H136     1.0000 0.55824  0.41969  0.44102  Biso   1.000  H
  H137     1.0000 0.60491  0.37342  0.50709  Biso   1.000  H
  H138     1.0000 0.64343  0.42600  0.46678  Biso   1.000  H
  H139     1.0000 0.54592  0.22853  0.38019  Biso   1.000  H
  H140     1.0000 0.54850  0.25209  0.45598  Biso   1.000  H
  H141     1.0000 0.49900  0.29779  0.39078  Biso   1.000  H
  C152     1.0000 0.75546  0.26319  0.14881  Biso   1.000  C
  N8       1.0000 0.67897  0.22030  0.19606  Biso   1.000  N
  H142     1.0000 0.87491  0.08459  0.19848  Biso   1.000  H
  H143     1.0000 0.82822  0.13171  0.13281  Biso   1.000  H
  H144     1.0000 0.87872  0.17471  0.19930  Biso   1.000  H
  H145     1.0000 0.69794  0.06560  0.20588  Biso   1.000  H
  H146     1.0000 0.71760  0.06622  0.13652  Biso   1.000  H
  H147     1.0000 0.76512  0.01871  0.20151  Biso   1.000  H
  C153     1.0000 0.57664  0.31267  0.16202  Biso   1.000  C
  C154     1.0000 0.58471  0.42290  0.24907  Biso   1.000  C
  H148     1.0000 0.60014  0.47103  0.34630  Biso   1.000  H
  C155     1.0000 0.58190  0.34885  0.23041  Biso   1.000  C
  H149     1.0000 0.59210  0.25800  0.29139  Biso   1.000  H
  H150     1.0000 0.79592  0.26849  0.13420  Biso   1.000  H
  C156     1.0000 0.69724  0.31380  0.13415  Biso   1.000  C
  C157     1.0000 0.64984  0.28596  0.16408  Biso   1.000  C
  H151     1.0000 0.65890  0.19128  0.21920  Biso   1.000  H
  C158     1.0000 0.55049  0.37275  0.10515  Biso   1.000  C
  H152     1.0000 0.57993  0.46489  0.21930  Biso   1.000  H
  H153     1.0000 0.69193  0.35899  0.10818  Biso   1.000  H
  H154     1.0000 0.54322  0.34941  0.06021  Biso   1.000  H
  H155     1.0000 0.50531  0.39411  0.10618  Biso   1.000  H
  H156     1.0000 0.58622  0.41282  0.11281  Biso   1.000  H
  C159     1.0000 0.65252  0.63103  0.31679  Biso   1.000  C
  C160     1.0000 0.71449  0.63424  0.28702  Biso   1.000  C
  H157     1.0000 0.62514  0.58459  0.30152  Biso   1.000  H
  H158     1.0000 0.67183  0.63171  0.36718  Biso   1.000  H
  H159     1.0000 0.62133  0.67471  0.30070  Biso   1.000  H
  C161     1.0000 0.68416  0.63024  0.20999  Biso   1.000  C
  C162     1.0000 0.75644  0.70537  0.31252  Biso   1.000  C
  C163     1.0000 0.76295  0.56481  0.31314  Biso   1.000  C
  C164     1.0000 0.61448  0.62590  0.16670  Biso   1.000  C
  N9       1.0000 0.72608  0.62455  0.16886  Biso   1.000  N
  C165     1.0000 0.74459  0.76319  0.35119  Biso   1.000  C
  N10      1.0000 0.82108  0.72030  0.30393  Biso   1.000  N
  H160     1.0000 0.80211  0.56560  0.29411  Biso   1.000  H
  H161     1.0000 0.78244  0.56622  0.36348  Biso   1.000  H
  H162     1.0000 0.73493  0.51871  0.29848  Biso   1.000  H
  C166     1.0000 0.61533  0.61688  0.09955  Biso   1.000  C
  H163     1.0000 0.57315  0.62861  0.18022  Biso   1.000  H
  C167     1.0000 0.68530  0.61615  0.10083  Biso   1.000  C
  H164     1.0000 0.77302  0.62613  0.18398  Biso   1.000  H
  H165     1.0000 0.70413  0.76849  0.36579  Biso   1.000  H
  C168     1.0000 0.80281  0.81380  0.36584  Biso   1.000  C
  C169     1.0000 0.85021  0.78596  0.33592  Biso   1.000  C
  H166     1.0000 0.84114  0.69133  0.28080  Biso   1.000  H
  H167     1.0000 0.57452  0.61209  0.05959  Biso   1.000  H
  C170     1.0000 0.71767  0.61125  0.04437  Biso   1.000  C
  H168     1.0000 0.80811  0.85899  0.39181  Biso   1.000  H
  C171     1.0000 0.92341  0.81267  0.33797  Biso   1.000  C
  C172     1.0000 0.74443  0.68801  0.03291  Biso   1.000  C
  C173     1.0000 0.77811  0.55258  0.05959  Biso   1.000  C
  C174     1.0000 0.65879  0.58640  0.97768  Biso   1.000  C
  C175     1.0000 0.91815  0.84885  0.26959  Biso   1.000  C
  C176     1.0000 0.94961  0.87275  0.39484  Biso   1.000  C
  C177     1.0000 0.97548  0.74527  0.35705  Biso   1.000  C
  N11      1.0000 0.80943  0.71517  0.07327  Biso   1.000  N
  C178     1.0000 0.71466  0.74290  0.98658  Biso   1.000  C
  C179     1.0000 0.78014  0.49031  0.10083  Biso   1.000  C
  C180     1.0000 0.83104  0.55810  0.02946  Biso   1.000  C
  H169     1.0000 0.63754  0.53900  0.98591  Biso   1.000  H
  H170     1.0000 0.62187  0.62539  0.96370  Biso   1.000  H
  H171     1.0000 0.67978  0.57901  0.94113  Biso   1.000  H
  C181     1.0000 0.91533  0.92290  0.25092  Biso   1.000  C
  N12      1.0000 0.90863  0.80754  0.21061  Biso   1.000  N
  H172     1.0000 0.95683  0.84941  0.43978  Biso   1.000  H
  H173     1.0000 0.99474  0.89411  0.39381  Biso   1.000  H
  H174     1.0000 0.91383  0.91282  0.38718  Biso   1.000  H
  C182     1.0000 0.96865  0.69263  0.40472  Biso   1.000  C
  C183     1.0000 0.03047  0.73394  0.33031  Biso   1.000  C
  C184     1.0000 0.82290  0.78500  0.05209  Biso   1.000  C
  H175     1.0000 0.83882  0.69071  0.10839  Biso   1.000  H
  C185     1.0000 0.76265  0.80360  0.99871  Biso   1.000  C
  H176     1.0000 0.66927  0.74081  0.95203  Biso   1.000  H
  H177     1.0000 0.74404  0.48422  0.12130  Biso   1.000  H
  C186     1.0000 0.83355  0.43699  0.11276  Biso   1.000  C
  C187     1.0000 0.88520  0.50518  0.04062  Biso   1.000  C
  H178     1.0000 0.83023  0.59958  0.00010  Biso   1.000  H
  H179     1.0000 0.92011  0.96489  0.28069  Biso   1.000  H
  C188     1.0000 0.90417  0.92628  0.18002  Biso   1.000  C
  C189     1.0000 0.90031  0.85454  0.15518  Biso   1.000  C
  H180     1.0000 0.90795  0.75800  0.20860  Biso   1.000  H
  H181     1.0000 0.93233  0.69973  0.42482  Biso   1.000  H
  C190     1.0000 0.01270  0.63069  0.42379  Biso   1.000  C
  H182     1.0000 0.03781  0.76933  0.29869  Biso   1.000  H
  C191     1.0000 0.07492  0.67189  0.34908  Biso   1.000  C
  C192     1.0000 0.89331  0.82524  0.08463  Biso   1.000  C
  H183     1.0000 0.75477  0.84981  0.97409  Biso   1.000  H
  H184     1.0000 0.83404  0.39501  0.14161  Biso   1.000  H
  C193     1.0000 0.88658  0.44432  0.08278  Biso   1.000  C
  H185     1.0000 0.92092  0.51082  0.01949  Biso   1.000  H
  H186     1.0000 0.89991  0.97103  0.15369  Biso   1.000  H
  C194     1.0000 0.06615  0.61936  0.39551  Biso   1.000  C
  H187     1.0000 0.00631  0.59592  0.45629  Biso   1.000  H
  H188     1.0000 0.11202  0.66518  0.32980  Biso   1.000  H
  C195     1.0000 0.89703  0.89219  0.03820  Biso   1.000  C
  C196     1.0000 0.95572  0.77102  0.08993  Biso   1.000  C
  O15      1.0000 0.93812  0.38937  0.09883  Biso   1.000  O
  O16      1.0000 0.11234  0.55889  0.40975  Biso   1.000  O
  H189     1.0000 0.94181  0.91969  0.05898  Biso   1.000  H
  H190     1.0000 0.85661  0.92600  0.03322  Biso   1.000  H
  H191     1.0000 0.89519  0.87342  0.99290  Biso   1.000  H
  H192     1.0000 0.95413  0.72853  0.11981  Biso   1.000  H
  H193     1.0000 0.95154  0.75209  0.04401  Biso   1.000  H
  H194     1.0000 0.00100  0.79779  0.10921  Biso   1.000  H
  C197     1.0000 0.99364  0.39580  0.06906  Biso   1.000  C
  C198     1.0000 0.10034  0.50169  0.45526  Biso   1.000  C
  H195     1.0000 0.97264  0.40318  0.01872  Biso   1.000  H
  H196     1.0000 0.02412  0.43981  0.08870  Biso   1.000  H
  C199     1.0000 0.03731  0.32563  0.08376  Biso   1.000  C
  C200     1.0000 0.16112  0.44719  0.47459  Biso   1.000  C
  H197     1.0000 0.09602  0.52570  0.49711  Biso   1.000  H
  H198     1.0000 0.05521  0.47458  0.43181  Biso   1.000  H
  H199     1.0000 0.07079  0.32591  0.05707  Biso   1.000  H
  H200     1.0000 0.00573  0.28122  0.06931  Biso   1.000  H
  O17      1.0000 0.07684  0.32016  0.15564  Biso   1.000  O
  H201     1.0000 0.15724  0.41360  0.51151  Biso   1.000  H
  H202     1.0000 0.20670  0.47520  0.49238  Biso   1.000  H
  O18      1.0000 0.16125  0.40312  0.41644  Biso   1.000  O
  C201     1.0000 0.12632  0.26183  0.16906  Biso   1.000  C
  C202     1.0000 0.21327  0.34699  0.43551  Biso   1.000  C
  C203     1.0000 0.10662  0.19043  0.18377  Biso   1.000  C
  C204     1.0000 0.19412  0.27632  0.16634  Biso   1.000  C
  C205     1.0000 0.28237  0.36356  0.43603  Biso   1.000  C
  C206     1.0000 0.19491  0.27604  0.45372  Biso   1.000  C
  C207     1.0000 0.15482  0.13131  0.19148  Biso   1.000  C
  C208     1.0000 0.03638  0.17640  0.19621  Biso   1.000  C
  C209     1.0000 0.24023  0.21551  0.17487  Biso   1.000  C
  C210     1.0000 0.21909  0.35443  0.15749  Biso   1.000  C
  C211     1.0000 0.30025  0.43581  0.40621  Biso   1.000  C
  C212     1.0000 0.33450  0.30878  0.46050  Biso   1.000  C
  C213     1.0000 0.24955  0.22329  0.47814  Biso   1.000  C
  C214     1.0000 0.11804  0.25411  0.44564  Biso   1.000  C
  H203     1.0000 0.14180  0.08189  0.20079  Biso   1.000  H
  C215     1.0000 0.22049  0.14371  0.18578  Biso   1.000  C
  C216     1.0000 0.05179  0.15600  0.27190  Biso   1.000  C
  H204     1.0000 0.00620  0.22222  0.18470  Biso   1.000  H
  H205     1.0000 0.01029  0.13469  0.16649  Biso   1.000  H
  C217     1.0000 0.02210  0.22120  0.24599  Biso   1.000  C
  H206     1.0000 0.28689  0.22391  0.17318  Biso   1.000  H
  H207     1.0000 0.23643  0.35499  0.11759  Biso   1.000  H
  H208     1.0000 0.17829  0.38971  0.14767  Biso   1.000  H
  C218     1.0000 0.27789  0.38103  0.22038  Biso   1.000  C
  C219     1.0000 0.31741  0.42138  0.34101  Biso   1.000  C
  H209     1.0000 0.34173  0.46010  0.44040  Biso   1.000  H
  H210     1.0000 0.25933  0.47081  0.39618  Biso   1.000  H
  C220     1.0000 0.31831  0.23980  0.48241  Biso   1.000  C
  H211     1.0000 0.38204  0.31898  0.46210  Biso   1.000  H
  H212     1.0000 0.23871  0.17499  0.49208  Biso   1.000  H
  H213     1.0000 0.08691  0.29892  0.43207  Biso   1.000  H
  H214     1.0000 0.11549  0.23569  0.49017  Biso   1.000  H
  C221     1.0000 0.09222  0.19421  0.39268  Biso   1.000  C
  C222     1.0000 0.06063  0.25552  0.36579  Biso   1.000  C
  H215     1.0000 0.25252  0.10280  0.18937  Biso   1.000  H
  C223     1.0000 0.07001  0.21123  0.32281  Biso   1.000  C
  C224     1.0000 0.05036  0.08099  0.29201  Biso   1.000  C
  O19      1.0000 0.11549  0.15532  0.33067  Biso   1.000  O
  C225     1.0000 0.07600  0.20999  0.31700  Biso   1.000  C
  C226     1.0000 0.96954  0.27739  0.23478  Biso   1.000  C
  O20      1.0000 0.07385  0.28511  0.30414  Biso   1.000  O
  C227     1.0000 0.26424  0.39799  0.28105  Biso   1.000  C
  C228     1.0000 0.34889  0.38712  0.22131  Biso   1.000  C
  C229     1.0000 0.38698  0.42572  0.33818  Biso   1.000  C
  H216     1.0000 0.35495  0.20362  0.50061  Biso   1.000  H
  C230     1.0000 0.08909  0.11812  0.41047  Biso   1.000  C
  C231     1.0000 0.00612  0.31182  0.35211  Biso   1.000  C
  H217     1.0000 0.03712  0.04238  0.25828  Biso   1.000  H
  C232     1.0000 0.06822  0.06278  0.36142  Biso   1.000  C
  C233     1.0000 0.08424  0.08482  0.34240  Biso   1.000  C
  H218     1.0000 0.98373  0.33048  0.24331  Biso   1.000  H
  H219     1.0000 0.93952  0.28601  0.18891  Biso   1.000  H
  C234     1.0000 0.95963  0.31661  0.28111  Biso   1.000  C
  C235     1.0000 0.00741  0.32338  0.29278  Biso   1.000  C
  O21      1.0000 0.19620  0.38582  0.28306  Biso   1.000  O
  C236     1.0000 0.40194  0.40893  0.27987  Biso   1.000  C
  H220     1.0000 0.36020  0.37613  0.18089  Biso   1.000  H
  H221     1.0000 0.42460  0.44083  0.37808  Biso   1.000  H
  H222     1.0000 0.10173  0.10471  0.45757  Biso   1.000  H
  H223     1.0000 0.07641  0.08668  0.38698  Biso   1.000  H
  H224     1.0000 0.97684  0.29328  0.31170  Biso   1.000  H
  H225     1.0000 0.00073  0.34378  0.38698  Biso   1.000  H
  H226     1.0000 0.06601  0.01189  0.37479  Biso   1.000  H
  H227     1.0000 0.03839  0.07698  0.30589  Biso   1.000  H
  H228     1.0000 0.11652  0.04311  0.34229  Biso   1.000  H
  H229     1.0000 0.92054  0.35071  0.26948  Biso   1.000  H
  H230     1.0000 0.01634  0.37258  0.31561  Biso   1.000  H
  C237     1.0000 0.14915  0.44849  0.26553  Biso   1.000  C
  H231     1.0000 0.44972  0.41220  0.27982  Biso   1.000  H
  H232     1.0000 0.14912  0.46940  0.22141  Biso   1.000  H
  H233     1.0000 0.10081  0.43209  0.26172  Biso   1.000  H
  H234     1.0000 0.16510  0.48709  0.30131  Biso   1.000  H
  C238     1.0000 0.34753  0.36903  0.68320  Biso   1.000  C
  C239     1.0000 0.28555  0.36581  0.71297  Biso   1.000  C
  H235     1.0000 0.37490  0.41541  0.69847  Biso   1.000  H
  H236     1.0000 0.32822  0.36829  0.63281  Biso   1.000  H
  H237     1.0000 0.37871  0.32529  0.69929  Biso   1.000  H
  C240     1.0000 0.24360  0.29463  0.68747  Biso   1.000  C
  C241     1.0000 0.31589  0.36976  0.78999  Biso   1.000  C
  C242     1.0000 0.23714  0.43519  0.68685  Biso   1.000  C
  C243     1.0000 0.25546  0.23681  0.64880  Biso   1.000  C
  N13      1.0000 0.17896  0.27970  0.69605  Biso   1.000  N
  C244     1.0000 0.38557  0.37410  0.83329  Biso   1.000  C
  N14      1.0000 0.27396  0.37545  0.83113  Biso   1.000  N
  H238     1.0000 0.19793  0.43440  0.70587  Biso   1.000  H
  H239     1.0000 0.21765  0.43378  0.63651  Biso   1.000  H
  H240     1.0000 0.26512  0.48129  0.70150  Biso   1.000  H
  H241     1.0000 0.29592  0.23151  0.63420  Biso   1.000  H
  C245     1.0000 0.19723  0.18620  0.63414  Biso   1.000  C
  C246     1.0000 0.14983  0.21404  0.66407  Biso   1.000  C
  H242     1.0000 0.15895  0.30872  0.71919  Biso   1.000  H
  C247     1.0000 0.38471  0.38312  0.90044  Biso   1.000  C
  H243     1.0000 0.42695  0.37139  0.81977  Biso   1.000  H
  C248     1.0000 0.31480  0.38390  0.89916  Biso   1.000  C
  H244     1.0000 0.22702  0.37393  0.81601  Biso   1.000  H
  H245     1.0000 0.19193  0.14101  0.60818  Biso   1.000  H
  C249     1.0000 0.07663  0.18733  0.66201  Biso   1.000  C
  H246     1.0000 0.42552  0.38791  0.94039  Biso   1.000  H
  C250     1.0000 0.28242  0.38881  0.95561  Biso   1.000  C
  C251     1.0000 0.08189  0.15115  0.73040  Biso   1.000  C
  C252     1.0000 0.05048  0.12725  0.60514  Biso   1.000  C
  C253     1.0000 0.02457  0.25473  0.64294  Biso   1.000  C
  C254     1.0000 0.25562  0.31199  0.96708  Biso   1.000  C
  C255     1.0000 0.22194  0.44742  0.94039  Biso   1.000  C
  C256     1.0000 0.34125  0.41360  0.02230  Biso   1.000  C
  C257     1.0000 0.08471  0.07710  0.74907  Biso   1.000  C
  N15      1.0000 0.09141  0.19246  0.78938  Biso   1.000  N
  H247     1.0000 0.04321  0.15059  0.56020  Biso   1.000  H
  H248     1.0000 0.00531  0.10589  0.60617  Biso   1.000  H
  H249     1.0000 0.08621  0.08718  0.61281  Biso   1.000  H
  C258     1.0000 0.03139  0.30743  0.59527  Biso   1.000  C
  C259     1.0000 0.96958  0.26612  0.66967  Biso   1.000  C
  N16      1.0000 0.19061  0.28483  0.92672  Biso   1.000  N
  C260     1.0000 0.28539  0.25710  0.01341  Biso   1.000  C
  C261     1.0000 0.21991  0.50969  0.89916  Biso   1.000  C
  C262     1.0000 0.16901  0.44195  0.97052  Biso   1.000  C
  H250     1.0000 0.36250  0.46100  0.01408  Biso   1.000  H
  H251     1.0000 0.37823  0.37461  0.03629  Biso   1.000  H
  H252     1.0000 0.32031  0.42099  0.05886  Biso   1.000  H
  H253     1.0000 0.07993  0.03511  0.71929  Biso   1.000  H
  C263     1.0000 0.09587  0.07372  0.81997  Biso   1.000  C
  C264     1.0000 0.09973  0.14546  0.84481  Biso   1.000  C
  H254     1.0000 0.09215  0.24200  0.79138  Biso   1.000  H
  H255     1.0000 0.06772  0.30033  0.57517  Biso   1.000  H
  C265     1.0000 0.98734  0.36931  0.57620  Biso   1.000  C
  H256     1.0000 0.96223  0.23073  0.70130  Biso   1.000  H
  C266     1.0000 0.92513  0.32811  0.65091  Biso   1.000  C
  C267     1.0000 0.17715  0.21500  0.94790  Biso   1.000  C
  H257     1.0000 0.16122  0.30929  0.89160  Biso   1.000  H
  C268     1.0000 0.23740  0.19640  0.00127  Biso   1.000  C
  H258     1.0000 0.33079  0.25919  0.04801  Biso   1.000  H
  H259     1.0000 0.25606  0.51578  0.87869  Biso   1.000  H
  C269     1.0000 0.16649  0.56306  0.88723  Biso   1.000  C
  C270     1.0000 0.11490  0.49482  0.95937  Biso   1.000  C
  H260     1.0000 0.16982  0.40042  0.99988  Biso   1.000  H
  H261     1.0000 0.10014  0.02902  0.84630  Biso   1.000  H
  C271     1.0000 0.10673  0.17476  0.91535  Biso   1.000  C
  C272     1.0000 0.93389  0.38069  0.60448  Biso   1.000  C
  H262     1.0000 0.99374  0.40408  0.54370  Biso   1.000  H
  H263     1.0000 0.88802  0.33482  0.67019  Biso   1.000  H
  H264     1.0000 0.24532  0.15019  0.02590  Biso   1.000  H
  H265     1.0000 0.16601  0.60499  0.85838  Biso   1.000  H
  C273     1.0000 0.11346  0.55568  0.91720  Biso   1.000  C
  H266     1.0000 0.07913  0.48918  0.98050  Biso   1.000  H
  C274     1.0000 0.10301  0.10781  0.96178  Biso   1.000  C
  C275     1.0000 0.04433  0.22898  0.91006  Biso   1.000  C
  O22      1.0000 0.88775  0.44111  0.59023  Biso   1.000  O
  O23      1.0000 0.06192  0.61069  0.90116  Biso   1.000  O
  H267     1.0000 0.05823  0.08031  0.94101  Biso   1.000  H
  H268     1.0000 0.14343  0.07400  0.96677  Biso   1.000  H
  H269     1.0000 0.10491  0.12658  0.00708  Biso   1.000  H
  H270     1.0000 0.04592  0.27153  0.88018  Biso   1.000  H
  H271     1.0000 0.04855  0.24791  0.95597  Biso   1.000  H
  H272     1.0000 0.99905  0.20221  0.89077  Biso   1.000  H
  C276     1.0000 0.89975  0.49831  0.54473  Biso   1.000  C
  C277     1.0000 0.00640  0.60426  0.93093  Biso   1.000  C
  C278     1.0000 0.83893  0.55281  0.52539  Biso   1.000  C
  H273     1.0000 0.90402  0.47430  0.50287  Biso   1.000  H
  H274     1.0000 0.94484  0.52542  0.56817  Biso   1.000  H
  H275     1.0000 0.02741  0.59682  0.98127  Biso   1.000  H
  H276     1.0000 0.97598  0.56019  0.91129  Biso   1.000  H
  C279     1.0000 0.96273  0.67437  0.91623  Biso   1.000  C
  H277     1.0000 0.84281  0.58640  0.48848  Biso   1.000  H
  H278     1.0000 0.79335  0.52480  0.50760  Biso   1.000  H
  O24      1.0000 0.83879  0.59688  0.58355  Biso   1.000  O
  H279     1.0000 0.92926  0.67409  0.94291  Biso   1.000  H
  H280     1.0000 0.99437  0.71883  0.93068  Biso   1.000  H
  O25      1.0000 0.92326  0.67984  0.84434  Biso   1.000  O
  C280     1.0000 0.78678  0.65301  0.56447  Biso   1.000  C
  C281     1.0000 0.87372  0.73822  0.83092  Biso   1.000  C
  C282     1.0000 0.71768  0.63644  0.56396  Biso   1.000  C
  C283     1.0000 0.80514  0.72402  0.54627  Biso   1.000  C
  C284     1.0000 0.89342  0.80957  0.81622  Biso   1.000  C
  C285     1.0000 0.80593  0.72368  0.83365  Biso   1.000  C
  C286     1.0000 0.69979  0.56419  0.59378  Biso   1.000  C
  C287     1.0000 0.66554  0.69122  0.53948  Biso   1.000  C
  C288     1.0000 0.75055  0.77671  0.52185  Biso   1.000  C
  C289     1.0000 0.88205  0.74589  0.55434  Biso   1.000  C
  C290     1.0000 0.84527  0.86869  0.80850  Biso   1.000  C
  C291     1.0000 0.96373  0.82360  0.80383  Biso   1.000  C
  C292     1.0000 0.75987  0.78449  0.82511  Biso   1.000  C
  C293     1.0000 0.78095  0.64563  0.84249  Biso   1.000  C
  C294     1.0000 0.68264  0.57862  0.65898  Biso   1.000  C
  H281     1.0000 0.65831  0.53990  0.55959  Biso   1.000  H
  H282     1.0000 0.74076  0.52919  0.60381  Biso   1.000  H
  C295     1.0000 0.68174  0.76020  0.51758  Biso   1.000  C
  H283     1.0000 0.61801  0.68102  0.53789  Biso   1.000  H
  H284     1.0000 0.76134  0.82501  0.50791  Biso   1.000  H
  H285     1.0000 0.91314  0.70108  0.56792  Biso   1.000  H
  H286     1.0000 0.88455  0.76431  0.50981  Biso   1.000  H
  C296     1.0000 0.90788  0.80579  0.60730  Biso   1.000  C
  C297     1.0000 0.93946  0.74453  0.63420  Biso   1.000  C
  H287     1.0000 0.85824  0.91811  0.79920  Biso   1.000  H
  C298     1.0000 0.77955  0.85629  0.81421  Biso   1.000  C
  C299     1.0000 0.94830  0.84400  0.72809  Biso   1.000  C
  C300     1.0000 0.97794  0.77880  0.75400  Biso   1.000  C
  H288     1.0000 0.99385  0.77778  0.81529  Biso   1.000  H
  H289     1.0000 0.98975  0.86531  0.83349  Biso   1.000  H
  H290     1.0000 0.71315  0.77609  0.82681  Biso   1.000  H
  C301     1.0000 0.72215  0.61897  0.77961  Biso   1.000  C
  H291     1.0000 0.76367  0.64501  0.88239  Biso   1.000  H
  H292     1.0000 0.82175  0.61029  0.85231  Biso   1.000  H
  C302     1.0000 0.73580  0.60206  0.71893  Biso   1.000  C
  C303     1.0000 0.61312  0.57428  0.66181  Biso   1.000  C
  H293     1.0000 0.64514  0.79638  0.49938  Biso   1.000  H
  C304     1.0000 0.93003  0.78883  0.67718  Biso   1.000  C
  C305     1.0000 0.91095  0.88193  0.58951  Biso   1.000  C
  O26      1.0000 0.88455  0.84474  0.66931  Biso   1.000  O
  C306     1.0000 0.92404  0.79001  0.68299  Biso   1.000  C
  O27      1.0000 0.92620  0.71489  0.69585  Biso   1.000  O
  C307     1.0000 0.99393  0.68823  0.64787  Biso   1.000  C
  H294     1.0000 0.74757  0.89720  0.81061  Biso   1.000  H
  C308     1.0000 0.94968  0.91901  0.70798  Biso   1.000  C
  C309     1.0000 0.03056  0.72261  0.76521  Biso   1.000  C
  C310     1.0000 0.65115  0.61288  0.77868  Biso   1.000  C
  O28      1.0000 0.80384  0.61418  0.71693  Biso   1.000  O
  H295     1.0000 0.57544  0.55923  0.62191  Biso   1.000  H
  C311     1.0000 0.59811  0.59113  0.72012  Biso   1.000  C
  C312     1.0000 0.93182  0.93722  0.63857  Biso   1.000  C
  H296     1.0000 0.89836  0.89529  0.54241  Biso   1.000  H
  C313     1.0000 0.91586  0.91518  0.65759  Biso   1.000  C
  H297     1.0000 0.92363  0.91332  0.61301  Biso   1.000  H
  C314     1.0000 0.99263  0.67662  0.70721  Biso   1.000  C
  H298     1.0000 0.02320  0.70672  0.68829  Biso   1.000  H
  C315     1.0000 0.04041  0.68339  0.71888  Biso   1.000  C
  H299     1.0000 0.99936  0.65622  0.61301  Biso   1.000  H
  H300     1.0000 0.96297  0.95762  0.74171  Biso   1.000  H
  H301     1.0000 0.01631  0.66952  0.75668  Biso   1.000  H
  H302     1.0000 0.06053  0.71399  0.81108  Biso   1.000  H
  H303     1.0000 0.63984  0.62393  0.81910  Biso   1.000  H
  C316     1.0000 0.85090  0.55151  0.73446  Biso   1.000  C
  H304     1.0000 0.55033  0.58780  0.72017  Biso   1.000  H
  H305     1.0000 0.93403  0.98811  0.62520  Biso   1.000  H
  H306     1.0000 0.96165  0.92302  0.69410  Biso   1.000  H
  H307     1.0000 0.88352  0.95689  0.65769  Biso   1.000  H
  H308     1.0000 0.98376  0.62742  0.68438  Biso   1.000  H
  H309     1.0000 0.07956  0.64929  0.73050  Biso   1.000  H
  H310     1.0000 0.85093  0.53060  0.77858  Biso   1.000  H
  H311     1.0000 0.89923  0.56791  0.73827  Biso   1.000  H
  H312     1.0000 0.83494  0.51291  0.69867  Biso   1.000  H
  Ne1      1.0000 0.50030  0.98126  0.24737  Biso   1.000  Ne
  He1      1.0000 0.54066  0.09407  0.30134  Biso   1.000  He
  He2      1.0000 0.59104  0.95989  0.11178  Biso   1.000  He
  Ar1      1.0000 0.55311  0.03329  0.24740  Biso   1.000  Ar
  Ne2      1.0000 0.49976  0.01875  0.75262  Biso   1.000  Ne
  He3      1.0000 0.42507  0.01507  0.83378  Biso   1.000  He
  He4      1.0000 0.45862  0.90584  0.69884  Biso   1.000  He
  Ar2      1.0000 0.44692  0.96673  0.75258  Biso   1.000  Ar
  Ne3      1.0000 0.00031  0.51875  0.74737  Biso   1.000  Ne
  He5      1.0000 0.97992  0.41387  0.81804  Biso   1.000  He
  He6      1.0000 0.09123  0.54035  0.61090  Biso   1.000  He
  Ar3      1.0000 0.05314  0.46673  0.74740  Biso   1.000  Ar
  Ne4      1.0000 0.99974  0.48126  0.25262  Biso   1.000  Ne
  He7      1.0000 0.91479  0.46808  0.35545  Biso   1.000  He
  He8      1.0000 0.95844  0.59424  0.19886  Biso   1.000  He
  Ar4      1.0000 0.94692  0.53329  0.25260  Biso   1.000  Ar
