data_image0
_cell_length_a       16.732
_cell_length_b       19.977
_cell_length_c       23.553
_cell_angle_alpha    82.22
_cell_angle_beta     82.4
_cell_angle_gamma    85.76

_symmetry_space_group_name_H-M    "P 1"
_symmetry_int_tables_number       1

loop_
  _symmetry_equiv_pos_as_xyz
  'x, y, z'

loop_
  _atom_site_label
  _atom_site_occupancy
  _atom_site_fract_x
  _atom_site_fract_y
  _atom_site_fract_z
  _atom_site_thermal_displace_type
  _atom_site_B_iso_or_equiv
  _atom_site_type_symbol
  C1       1.0000 0.59808  0.43633  0.50447  Biso   1.000  C
  C2       1.0000 0.52417  0.39013  0.52209  Biso   1.000  C
  H1       1.0000 0.62044  0.44405  0.53928  Biso   1.000  H
  H2       1.0000 0.63969  0.41396  0.47908  Biso   1.000  H
  H3       1.0000 0.58009  0.47986  0.48418  Biso   1.000  H
  C3       1.0000 0.54726  0.32606  0.56070  Biso   1.000  C
  H4       1.0000 0.50577  0.37782  0.48681  Biso   1.000  H
  H5       1.0000 0.47895  0.41553  0.54269  Biso   1.000  H
  C4       1.0000 0.47987  0.27826  0.58069  Biso   1.000  C
  H6       1.0000 0.56707  0.33926  0.59507  Biso   1.000  H
  H7       1.0000 0.59256  0.30127  0.53941  Biso   1.000  H
  N1       1.0000 0.44157  0.25945  0.53371  Biso   1.000  N
  H8       1.0000 0.43838  0.29994  0.60738  Biso   1.000  H
  H9       1.0000 0.50195  0.23666  0.60250  Biso   1.000  H
  C5       1.0000 0.47763  0.21093  0.50361  Biso   1.000  C
  C6       1.0000 0.36503  0.29527  0.52140  Biso   1.000  C
  C7       1.0000 0.44096  0.19725  0.45187  Biso   1.000  C
  O1       1.0000 0.54044  0.17856  0.51674  Biso   1.000  O
  H10      1.0000 0.36678  0.34347  0.52671  Biso   1.000  H
  H11      1.0000 0.35774  0.29315  0.48068  Biso   1.000  H
  C8       1.0000 0.29398  0.26507  0.56039  Biso   1.000  C
  C9       1.0000 0.39041  0.14593  0.45300  Biso   1.000  C
  C10      1.0000 0.46136  0.23924  0.39941  Biso   1.000  C
  H12      1.0000 0.28874  0.21813  0.55271  Biso   1.000  H
  H13      1.0000 0.30307  0.26335  0.60129  Biso   1.000  H
  C11      1.0000 0.21578  0.30763  0.54999  Biso   1.000  C
  C12      1.0000 0.35793  0.13596  0.40269  Biso   1.000  C
  H14      1.0000 0.37727  0.11695  0.48789  Biso   1.000  H
  C13      1.0000 0.42674  0.23031  0.34949  Biso   1.000  C
  N2       1.0000 0.51182  0.29065  0.39902  Biso   1.000  N
  H15      1.0000 0.22244  0.35577  0.55301  Biso   1.000  H
  H16      1.0000 0.20164  0.30413  0.51108  Biso   1.000  H
  C14      1.0000 0.14877  0.27948  0.59680  Biso   1.000  C
  C15      1.0000 0.37386  0.17835  0.35190  Biso   1.000  C
  H17      1.0000 0.32454  0.09923  0.40390  Biso   1.000  H
  N3       1.0000 0.44242  0.27341  0.29905  Biso   1.000  N
  C16      1.0000 0.52663  0.32971  0.35039  Biso   1.000  C
  H18      1.0000 0.15654  0.29284  0.63411  Biso   1.000  H
  H19      1.0000 0.09584  0.29774  0.58639  Biso   1.000  H
  H20      1.0000 0.15114  0.23004  0.59948  Biso   1.000  H
  C17      1.0000 0.34091  0.16652  0.29788  Biso   1.000  C
  C18      1.0000 0.49006  0.32102  0.30021  Biso   1.000  C
  O2       1.0000 0.57367  0.38294  0.34759  Biso   1.000  O
  N4       1.0000 0.26464  0.18901  0.29080  Biso   1.000  N
  O3       1.0000 0.38411  0.13683  0.26165  Biso   1.000  O
  O4       1.0000 0.50507  0.36923  0.25323  Biso   1.000  O
  C19      1.0000 0.65815  0.36901  0.33830  Biso   1.000  C
  C20      1.0000 0.23355  0.17464  0.23859  Biso   1.000  C
  C21      1.0000 0.20807  0.22223  0.33398  Biso   1.000  C
  C22      1.0000 0.56481  0.35172  0.20901  Biso   1.000  C
  C23      1.0000 0.69722  0.33183  0.38200  Biso   1.000  C
  C24      1.0000 0.69977  0.39703  0.28700  Biso   1.000  C
  H21      1.0000 0.25312  0.12830  0.23090  Biso   1.000  H
  H22      1.0000 0.17380  0.17553  0.24580  Biso   1.000  H
  C25      1.0000 0.25782  0.22360  0.18552  Biso   1.000  C
  H23      1.0000 0.15875  0.19643  0.34340  Biso   1.000  H
  H24      1.0000 0.23361  0.22004  0.36991  Biso   1.000  H
  C26      1.0000 0.18395  0.29481  0.31481  Biso   1.000  C
  C27      1.0000 0.54892  0.30553  0.17468  Biso   1.000  C
  C28      1.0000 0.63533  0.38693  0.19908  Biso   1.000  C
  C29      1.0000 0.77933  0.32271  0.37449  Biso   1.000  C
  H25      1.0000 0.66693  0.31282  0.41668  Biso   1.000  H
  C30      1.0000 0.65433  0.43560  0.23928  Biso   1.000  C
  C31      1.0000 0.78393  0.38772  0.28208  Biso   1.000  C
  H26      1.0000 0.22594  0.26714  0.18811  Biso   1.000  H
  H27      1.0000 0.31562  0.23232  0.18362  Biso   1.000  H
  C32      1.0000 0.24384  0.19563  0.13102  Biso   1.000  C
  H28      1.0000 0.13944  0.30914  0.34361  Biso   1.000  H
  H29      1.0000 0.16112  0.29624  0.27789  Biso   1.000  H
  C33      1.0000 0.24163  0.34375  0.30669  Biso   1.000  C
  H30      1.0000 0.50045  0.28223  0.18319  Biso   1.000  H
  C34      1.0000 0.60390  0.29262  0.12722  Biso   1.000  C
  C35      1.0000 0.68822  0.37260  0.15101  Biso   1.000  C
  O5       1.0000 0.81918  0.28831  0.41949  Biso   1.000  O
  C36      1.0000 0.82455  0.35184  0.32517  Biso   1.000  C
  H31      1.0000 0.60158  0.45351  0.25828  Biso   1.000  H
  C37      1.0000 0.69964  0.49732  0.20711  Biso   1.000  C
  H32      1.0000 0.81463  0.40694  0.24770  Biso   1.000  H
  H33      1.0000 0.18555  0.18831  0.13301  Biso   1.000  H
  H34      1.0000 0.27342  0.15089  0.13011  Biso   1.000  H
  C38      1.0000 0.26860  0.23831  0.07730  Biso   1.000  C
  H35      1.0000 0.29115  0.32711  0.28359  Biso   1.000  H
  H36      1.0000 0.22035  0.38575  0.28488  Biso   1.000  H
  C39      1.0000 0.26376  0.36025  0.36749  Biso   1.000  C
  O6       1.0000 0.58584  0.24953  0.08961  Biso   1.000  O
  C40      1.0000 0.67441  0.32740  0.11340  Biso   1.000  C
  H37      1.0000 0.73724  0.39521  0.14311  Biso   1.000  H
  C41      1.0000 0.81916  0.21756  0.42808  Biso   1.000  C
  C42      1.0000 0.91712  0.34354  0.31891  Biso   1.000  C
  H38      1.0000 0.74914  0.48083  0.18401  Biso   1.000  H
  H39      1.0000 0.71664  0.52333  0.23600  Biso   1.000  H
  C43      1.0000 0.65007  0.54431  0.16760  Biso   1.000  C
  H40      1.0000 0.23630  0.28132  0.07600  Biso   1.000  H
  H41      1.0000 0.32595  0.24711  0.07518  Biso   1.000  H
  H42      1.0000 0.26055  0.21529  0.04448  Biso   1.000  H
  H43      1.0000 0.21473  0.37625  0.39051  Biso   1.000  H
  H44      1.0000 0.28706  0.31915  0.38831  Biso   1.000  H
  H45      1.0000 0.30312  0.39536  0.36058  Biso   1.000  H
  C44      1.0000 0.59341  0.18040  0.10450  Biso   1.000  C
  C45      1.0000 0.73066  0.31809  0.05998  Biso   1.000  C
  C46      1.0000 0.88572  0.17854  0.40657  Biso   1.000  C
  C47      1.0000 0.75396  0.18635  0.46340  Biso   1.000  C
  C48      1.0000 0.94752  0.28433  0.28670  Biso   1.000  C
  H46      1.0000 0.93213  0.33151  0.35890  Biso   1.000  H
  C49      1.0000 0.95913  0.40844  0.29361  Biso   1.000  C
  H47      1.0000 0.64074  0.52202  0.13421  Biso   1.000  H
  H48      1.0000 0.59705  0.55699  0.18858  Biso   1.000  H
  C50      1.0000 0.69934  0.60781  0.14700  Biso   1.000  C
  C51      1.0000 0.68002  0.60072  0.12281  Biso   1.000  C
  C52      1.0000 0.52882  0.14500  0.13599  Biso   1.000  C
  C53      1.0000 0.66343  0.14430  0.08131  Biso   1.000  C
  H49      1.0000 0.69825  0.29938  0.03360  Biso   1.000  H
  C54      1.0000 0.79712  0.26362  0.07389  Biso   1.000  C
  C55      1.0000 0.76280  0.38390  0.02690  Biso   1.000  C
  O7       1.0000 0.95195  0.21247  0.37660  Biso   1.000  O
  C56      1.0000 0.89062  0.10866  0.41949  Biso   1.000  C
  O8       1.0000 0.69088  0.22678  0.48517  Biso   1.000  O
  C57      1.0000 0.75906  0.11653  0.47519  Biso   1.000  C
  C58      1.0000 0.96160  0.21993  0.31641  Biso   1.000  C
  C59      1.0000 0.96286  0.29104  0.22650  Biso   1.000  C
  H50      1.0000 0.94127  0.42462  0.25539  Biso   1.000  H
  C60      1.0000 0.94224  0.46543  0.33161  Biso   1.000  C
  H51      1.0000 0.01817  0.39781  0.28747  Biso   1.000  H
  H52      1.0000 0.75141  0.59442  0.12532  Biso   1.000  H
  H53      1.0000 0.71108  0.62790  0.18098  Biso   1.000  H
  C61      1.0000 0.65337  0.66073  0.10848  Biso   1.000  C
  C62      1.0000 0.72776  0.65021  0.14441  Biso   1.000  C
  H54      1.0000 0.63307  0.62539  0.10649  Biso   1.000  H
  H55      1.0000 0.71413  0.58071  0.09099  Biso   1.000  H
  O9       1.0000 0.46084  0.18193  0.15455  Biso   1.000  O
  C63      1.0000 0.53553  0.07464  0.14229  Biso   1.000  C
  O10      1.0000 0.72100  0.18061  0.04413  Biso   1.000  O
  C64      1.0000 0.66868  0.07360  0.08922  Biso   1.000  C
  C65      1.0000 0.78909  0.19691  0.06711  Biso   1.000  C
  C66      1.0000 0.86774  0.27911  0.09492  Biso   1.000  C
  H56      1.0000 0.78985  0.40719  0.05290  Biso   1.000  H
  C67      1.0000 0.69715  0.43042  0.00371  Biso   1.000  C
  H57      1.0000 0.80362  0.37312  0.99447  Biso   1.000  H
  O11      1.0000 0.96016  0.07390  0.40109  Biso   1.000  O
  C68      1.0000 0.82624  0.07802  0.45399  Biso   1.000  C
  H58      1.0000 0.65094  0.20334  0.49730  Biso   1.000  H
  C69      1.0000 0.69375  0.07407  0.51259  Biso   1.000  C
  C70      1.0000 0.99321  0.16683  0.28739  Biso   1.000  C
  C71      1.0000 0.99301  0.23850  0.19571  Biso   1.000  C
  H59      1.0000 0.95201  0.33411  0.20560  Biso   1.000  H
  H60      1.0000 0.96255  0.45011  0.36909  Biso   1.000  H
  H61      1.0000 0.88316  0.47462  0.33929  Biso   1.000  H
  C72      1.0000 0.97987  0.52934  0.30591  Biso   1.000  C
  H62      1.0000 0.60054  0.67294  0.12998  Biso   1.000  H
  H63      1.0000 0.64293  0.64079  0.07419  Biso   1.000  H
  C73      1.0000 0.69873  0.72421  0.08900  Biso   1.000  C
  C74      1.0000 0.76034  0.71662  0.10291  Biso   1.000  C
  H64      1.0000 0.69416  0.66641  0.17818  Biso   1.000  H
  H65      1.0000 0.77543  0.62461  0.15892  Biso   1.000  H
  H66      1.0000 0.43962  0.16294  0.18638  Biso   1.000  H
  C75      1.0000 0.46752  0.02882  0.16820  Biso   1.000  C
  C76      1.0000 0.60471  0.03951  0.11962  Biso   1.000  C
  O12      1.0000 0.73591  0.04177  0.06231  Biso   1.000  O
  C77      1.0000 0.85059  0.14722  0.07656  Biso   1.000  C
  H67      1.0000 0.87311  0.32431  0.10148  Biso   1.000  H
  C78      1.0000 0.92990  0.23073  0.10632  Biso   1.000  C
  H68      1.0000 0.65721  0.44108  0.03662  Biso   1.000  H
  H69      1.0000 0.66933  0.40580  0.97897  Biso   1.000  H
  C79      1.0000 0.72279  0.49731  0.96848  Biso   1.000  C
  H70      1.0000 0.95002  0.03436  0.39729  Biso   1.000  H
  C80      1.0000 0.81905  0.00194  0.47277  Biso   1.000  C
  C81      1.0000 0.67403  0.02506  0.47260  Biso   1.000  C
  H71      1.0000 0.64552  0.10183  0.52770  Biso   1.000  H
  C82      1.0000 0.73585  0.03294  0.55957  Biso   1.000  C
  C83      1.0000 0.00913  0.17601  0.22771  Biso   1.000  C
  H72      1.0000 0.00415  0.12385  0.30837  Biso   1.000  H
  C84      1.0000 0.00705  0.24733  0.12899  Biso   1.000  C
  H73      1.0000 0.96064  0.54325  0.26778  Biso   1.000  H
  C85      1.0000 0.96536  0.58675  0.33869  Biso   1.000  C
  H74      1.0000 0.03896  0.51961  0.29879  Biso   1.000  H
  H75      1.0000 0.73764  0.71662  0.05471  Biso   1.000  H
  H76      1.0000 0.73035  0.73189  0.12001  Biso   1.000  H
  C86      1.0000 0.64886  0.78539  0.07458  Biso   1.000  C
  H77      1.0000 0.64822  0.73782  0.08321  Biso   1.000  H
  C87      1.0000 0.68446  0.75570  0.10610  Biso   1.000  C
  H78      1.0000 0.78014  0.70699  0.06309  Biso   1.000  H
  H79      1.0000 0.80246  0.73793  0.11888  Biso   1.000  H
  H80      1.0000 0.41791  0.05410  0.18448  Biso   1.000  H
  C88      1.0000 0.50246  0.97521  0.21268  Biso   1.000  C
  C89      1.0000 0.45346  0.99051  0.11871  Biso   1.000  C
  C90      1.0000 0.59645  0.96294  0.12549  Biso   1.000  C
  H81      1.0000 0.73940  0.00103  0.07669  Biso   1.000  H
  H82      1.0000 0.84550  0.10178  0.07022  Biso   1.000  H
  C91      1.0000 0.91893  0.16610  0.09539  Biso   1.000  C
  H83      1.0000 0.74921  0.52299  0.99318  Biso   1.000  H
  H84      1.0000 0.67372  0.52438  0.95790  Biso   1.000  H
  C92      1.0000 0.77929  0.48951  0.91428  Biso   1.000  C
  H85      1.0000 0.86729  0.97395  0.45779  Biso   1.000  H
  C93      1.0000 0.74177  0.98604  0.45179  Biso   1.000  C
  C94      1.0000 0.80347  0.99387  0.53880  Biso   1.000  C
  C95      1.0000 0.59911  0.02006  0.45459  Biso   1.000  C
  C96      1.0000 0.71383  0.03166  0.61809  Biso   1.000  C
  O13      1.0000 0.04825  0.12257  0.19895  Biso   1.000  O
  H86      1.0000 0.05001  0.21254  0.11759  Biso   1.000  H
  C97      1.0000 0.03743  0.31599  0.10239  Biso   1.000  C
  H87      1.0000 0.90646  0.59751  0.34530  Biso   1.000  H
  H88      1.0000 0.98434  0.57343  0.37691  Biso   1.000  H
  C98      1.0000 0.00914  0.65451  0.30799  Biso   1.000  C
  H89      1.0000 0.62046  0.80063  0.11012  Biso   1.000  H
  H90      1.0000 0.68309  0.82088  0.05398  Biso   1.000  H
  H91      1.0000 0.60933  0.77580  0.05001  Biso   1.000  H
  H92      1.0000 0.69366  0.80312  0.09099  Biso   1.000  H
  H93      1.0000 0.65985  0.75300  0.14648  Biso   1.000  H
  C99      1.0000 0.47009  0.95982  0.26990  Biso   1.000  C
  C100     1.0000 0.57115  0.93991  0.18919  Biso   1.000  C
  C101     1.0000 0.52267  0.95530  0.09591  Biso   1.000  C
  C102     1.0000 0.38199  0.98962  0.09531  Biso   1.000  C
  H94      1.0000 0.64618  0.93771  0.10921  Biso   1.000  H
  O14      1.0000 0.98412  0.11691  0.10144  Biso   1.000  O
  H95      1.0000 0.83260  0.47090  0.92499  Biso   1.000  H
  H96      1.0000 0.75812  0.45648  0.89308  Biso   1.000  H
  C103     1.0000 0.79041  0.55600  0.87468  Biso   1.000  C
  C104     1.0000 0.73377  0.94165  0.41180  Biso   1.000  C
  C105     1.0000 0.84960  0.95475  0.57667  Biso   1.000  C
  H97      1.0000 0.55365  0.04702  0.46867  Biso   1.000  H
  C106     1.0000 0.59170  0.97616  0.41668  Biso   1.000  C
  H98      1.0000 0.66795  0.05824  0.63238  Biso   1.000  H
  C107     1.0000 0.75943  0.99130  0.65618  Biso   1.000  C
  C108     1.0000 0.00514  0.06811  0.19692  Biso   1.000  C
  H99      1.0000 0.99712  0.35179  0.11448  Biso   1.000  H
  H100     1.0000 0.08811  0.32262  0.11789  Biso   1.000  H
  C109     1.0000 0.05304  0.32448  0.03731  Biso   1.000  C
  C110     1.0000 0.97864  0.68060  0.25621  Biso   1.000  C
  H101     1.0000 0.06794  0.64382  0.29991  Biso   1.000  H
  H102     1.0000 0.00098  0.68934  0.33467  Biso   1.000  H
  H103     1.0000 0.42420  0.98494  0.28588  Biso   1.000  H
  C111     1.0000 0.50738  0.90576  0.30358  Biso   1.000  C
  C112     1.0000 0.60894  0.88734  0.22300  Biso   1.000  C
  C113     1.0000 0.51965  0.91831  0.05070  Biso   1.000  C
  H104     1.0000 0.33490  0.01452  0.11012  Biso   1.000  H
  C114     1.0000 0.37957  0.95253  0.05078  Biso   1.000  C
  C115     1.0000 0.97180  0.06460  0.14428  Biso   1.000  C
  H105     1.0000 0.80869  0.58962  0.89666  Biso   1.000  H
  H106     1.0000 0.73750  0.57317  0.86246  Biso   1.000  H
  C116     1.0000 0.84809  0.55000  0.82359  Biso   1.000  C
  H107     1.0000 0.77917  0.91527  0.39681  Biso   1.000  H
  C117     1.0000 0.65898  0.93716  0.39479  Biso   1.000  C
  C118     1.0000 0.82637  0.95395  0.63601  Biso   1.000  C
  H108     1.0000 0.89620  0.92887  0.56268  Biso   1.000  H
  H109     1.0000 0.54037  0.97174  0.40489  Biso   1.000  H
  H110     1.0000 0.74370  0.98950  0.69660  Biso   1.000  H
  N5       1.0000 0.99869  0.01994  0.23993  Biso   1.000  N
  H111     1.0000 0.09261  0.28822  0.02531  Biso   1.000  H
  H112     1.0000 0.00211  0.31870  0.02181  Biso   1.000  H
  C119     1.0000 0.08492  0.39298  0.01080  Biso   1.000  C
  H113     1.0000 0.92135  0.69472  0.26450  Biso   1.000  H
  H114     1.0000 0.98458  0.64560  0.23030  Biso   1.000  H
  H115     1.0000 0.00874  0.71973  0.23781  Biso   1.000  H
  H116     1.0000 0.48527  0.89323  0.34258  Biso   1.000  H
  C120     1.0000 0.57530  0.87096  0.28078  Biso   1.000  C
  H117     1.0000 0.65609  0.86325  0.20750  Biso   1.000  H
  H118     1.0000 0.56665  0.89404  0.03541  Biso   1.000  H
  C121     1.0000 0.44716  0.91700  0.02781  Biso   1.000  C
  H119     1.0000 0.33009  0.95133  0.03528  Biso   1.000  H
  N6       1.0000 0.93618  0.01233  0.13534  Biso   1.000  N
  H120     1.0000 0.90087  0.53357  0.83517  Biso   1.000  H
  H121     1.0000 0.82959  0.51786  0.80079  Biso   1.000  H
  H122     1.0000 0.85272  0.59429  0.80019  Biso   1.000  H
  H123     1.0000 0.65290  0.90703  0.36788  Biso   1.000  H
  H124     1.0000 0.85748  0.92725  0.66261  Biso   1.000  H
  C122     1.0000 0.95806  0.96535  0.23272  Biso   1.000  C
  C123     1.0000 0.07151  0.41299  0.94818  Biso   1.000  C
  H125     1.0000 0.14350  0.39192  0.01352  Biso   1.000  H
  H126     1.0000 0.05824  0.42832  0.03368  Biso   1.000  H
  H127     1.0000 0.59999  0.83515  0.30449  Biso   1.000  H
  H128     1.0000 0.44454  0.89192  0.99667  Biso   1.000  H
  C124     1.0000 0.92777  0.96082  0.18021  Biso   1.000  C
  C125     1.0000 0.94788  0.91035  0.27750  Biso   1.000  C
  H129     1.0000 0.09982  0.37879  0.92469  Biso   1.000  H
  H130     1.0000 0.01309  0.41321  0.94498  Biso   1.000  H
  C126     1.0000 0.10198  0.48278  0.92378  Biso   1.000  C
  C127     1.0000 0.88934  0.90361  0.17170  Biso   1.000  C
  C128     1.0000 0.90764  0.85665  0.26998  Biso   1.000  C
  C129     1.0000 0.97797  0.91582  0.33511  Biso   1.000  C
  H131     1.0000 0.16130  0.48128  0.92339  Biso   1.000  H
  H132     1.0000 0.07787  0.51620  0.94948  Biso   1.000  H
  C130     1.0000 0.08129  0.50618  0.86268  Biso   1.000  C
  C131     1.0000 0.87829  0.85193  0.21739  Biso   1.000  C
  C132     1.0000 0.85634  0.90141  0.11599  Biso   1.000  C
  H133     1.0000 0.89899  0.82113  0.30090  Biso   1.000  H
  O15      1.0000 0.93720  0.95246  0.36818  Biso   1.000  O
  N7       1.0000 0.04418  0.87905  0.34780  Biso   1.000  N
  H134     1.0000 0.02362  0.51970  0.86427  Biso   1.000  H
  H135     1.0000 0.11297  0.54487  0.84558  Biso   1.000  H
  H136     1.0000 0.09397  0.46909  0.83910  Biso   1.000  H
  H137     1.0000 0.85076  0.81332  0.21311  Biso   1.000  H
  O16      1.0000 0.78345  0.91725  0.11383  Biso   1.000  O
  N8       1.0000 0.90653  0.88282  0.07095  Biso   1.000  N
  C133     1.0000 0.09668  0.84192  0.30622  Biso   1.000  C
  C134     1.0000 0.07238  0.88274  0.40359  Biso   1.000  C
  C135     1.0000 0.87557  0.88530  0.01520  Biso   1.000  C
  C136     1.0000 0.99135  0.86371  0.07289  Biso   1.000  C
  H138     1.0000 0.11756  0.79884  0.32651  Biso   1.000  H
  H139     1.0000 0.06486  0.83104  0.27651  Biso   1.000  H
  C137     1.0000 0.16616  0.88222  0.27758  Biso   1.000  C
  H140     1.0000 0.12928  0.89543  0.39690  Biso   1.000  H
  H141     1.0000 0.03988  0.91875  0.42268  Biso   1.000  H
  C138     1.0000 0.06678  0.81764  0.44298  Biso   1.000  C
  C139     1.0000 0.01920  0.84143  0.45550  Biso   1.000  C
  H142     1.0000 0.12919  0.86455  0.40239  Biso   1.000  H
  H143     1.0000 0.07089  0.93067  0.41037  Biso   1.000  H
  H144     1.0000 0.90740  0.85191  0.99266  Biso   1.000  H
  C140     1.0000 0.87962  0.95542  0.97979  Biso   1.000  C
  H145     1.0000 0.81876  0.87231  0.02220  Biso   1.000  H
  H146     1.0000 0.02198  0.88084  0.03541  Biso   1.000  H
  H147     1.0000 0.01077  0.88580  0.10321  Biso   1.000  H
  C141     1.0000 0.00954  0.78804  0.08490  Biso   1.000  C
  H148     1.0000 0.14459  0.92555  0.25798  Biso   1.000  H
  H149     1.0000 0.19738  0.89305  0.30768  Biso   1.000  H
  C142     1.0000 0.22294  0.84684  0.23371  Biso   1.000  C
  C143     1.0000 0.97306  0.82128  0.47118  Biso   1.000  C
  H150     1.0000 0.11127  0.81295  0.46470  Biso   1.000  H
  C144     1.0000 0.02969  0.77185  0.45658  Biso   1.000  C
  H151     1.0000 0.05267  0.83414  0.48560  Biso   1.000  H
  H152     1.0000 0.93685  0.96549  0.96778  Biso   1.000  H
  C145     1.0000 0.83695  0.95982  0.92698  Biso   1.000  C
  H153     1.0000 0.85459  0.98984  0.00419  Biso   1.000  H
  H154     1.0000 0.97718  0.77030  0.12139  Biso   1.000  H
  H155     1.0000 0.99327  0.76592  0.05342  Biso   1.000  H
  C146     1.0000 0.09888  0.76974  0.08978  Biso   1.000  C
  H156     1.0000 0.19684  0.84863  0.19808  Biso   1.000  H
  H157     1.0000 0.23104  0.79864  0.24930  Biso   1.000  H
  C147     1.0000 0.30446  0.87664  0.21799  Biso   1.000  C
  C148     1.0000 0.94929  0.75525  0.51617  Biso   1.000  C
  H158     1.0000 0.92669  0.84514  0.45757  Biso   1.000  H
  C149     1.0000 0.99617  0.72307  0.50339  Biso   1.000  C
  H159     1.0000 0.01318  0.76018  0.42238  Biso   1.000  H
  H160     1.0000 0.86183  0.92490  0.90297  Biso   1.000  H
  H161     1.0000 0.77982  0.94931  0.93928  Biso   1.000  H
  C150     1.0000 0.83905  0.02769  0.89057  Biso   1.000  C
  H162     1.0000 0.11645  0.79502  0.11888  Biso   1.000  H
  H163     1.0000 0.13093  0.78382  0.05221  Biso   1.000  H
  C151     1.0000 0.11572  0.69581  0.10658  Biso   1.000  C
  H164     1.0000 0.33134  0.87442  0.25280  Biso   1.000  H
  H165     1.0000 0.33764  0.85084  0.19001  Biso   1.000  H
  H166     1.0000 0.29747  0.92395  0.20098  Biso   1.000  H
  H167     1.0000 0.93887  0.71904  0.50041  Biso   1.000  H
  H168     1.0000 0.95560  0.76366  0.55539  Biso   1.000  H
  H169     1.0000 0.89306  0.74586  0.51449  Biso   1.000  H
  H170     1.0000 0.98490  0.71634  0.50611  Biso   1.000  H
  H171     1.0000 0.00167  0.73827  0.54049  Biso   1.000  H
  H172     1.0000 0.02527  0.67897  0.50089  Biso   1.000  H
  H173     1.0000 0.81328  0.06251  0.91359  Biso   1.000  H
  H174     1.0000 0.89536  0.03800  0.87727  Biso   1.000  H
  H175     1.0000 0.81015  0.02668  0.85719  Biso   1.000  H
  H176     1.0000 0.09403  0.68351  0.14708  Biso   1.000  H
  H177     1.0000 0.09017  0.67011  0.08201  Biso   1.000  H
  H178     1.0000 0.17426  0.68545  0.10170  Biso   1.000  H
  C152     1.0000 0.40210  0.56375  0.49549  Biso   1.000  C
  C153     1.0000 0.47595  0.60995  0.47787  Biso   1.000  C
  H179     1.0000 0.37967  0.55604  0.46068  Biso   1.000  H
  H180     1.0000 0.36049  0.58613  0.52088  Biso   1.000  H
  H181     1.0000 0.42009  0.52022  0.51579  Biso   1.000  H
  C154     1.0000 0.45285  0.67401  0.43931  Biso   1.000  C
  H182     1.0000 0.49440  0.62226  0.51319  Biso   1.000  H
  H183     1.0000 0.52117  0.58455  0.45727  Biso   1.000  H
  C155     1.0000 0.52024  0.72182  0.41931  Biso   1.000  C
  H184     1.0000 0.43305  0.66082  0.40489  Biso   1.000  H
  H185     1.0000 0.40754  0.69885  0.46060  Biso   1.000  H
  N9       1.0000 0.55861  0.74062  0.46630  Biso   1.000  N
  H186     1.0000 0.56180  0.70015  0.39258  Biso   1.000  H
  H187     1.0000 0.49816  0.76341  0.39751  Biso   1.000  H
  C156     1.0000 0.52248  0.78914  0.49640  Biso   1.000  C
  C157     1.0000 0.63507  0.70486  0.47860  Biso   1.000  C
  O17      1.0000 0.45967  0.82157  0.48323  Biso   1.000  O
  C158     1.0000 0.55916  0.80283  0.54809  Biso   1.000  C
  H188     1.0000 0.63339  0.65666  0.47329  Biso   1.000  H
  H189     1.0000 0.64238  0.70693  0.51928  Biso   1.000  H
  C159     1.0000 0.70619  0.73506  0.43961  Biso   1.000  C
  C160     1.0000 0.53881  0.76083  0.60060  Biso   1.000  C
  C161     1.0000 0.60970  0.85414  0.54701  Biso   1.000  C
  H190     1.0000 0.71138  0.78195  0.44730  Biso   1.000  H
  H191     1.0000 0.69711  0.73673  0.39867  Biso   1.000  H
  C162     1.0000 0.78440  0.69245  0.44997  Biso   1.000  C
  N10      1.0000 0.48829  0.70947  0.60099  Biso   1.000  N
  C163     1.0000 0.57338  0.76977  0.65048  Biso   1.000  C
  H192     1.0000 0.62291  0.88314  0.51207  Biso   1.000  H
  C164     1.0000 0.64219  0.86418  0.59727  Biso   1.000  C
  H193     1.0000 0.77766  0.64436  0.44699  Biso   1.000  H
  H194     1.0000 0.79848  0.69595  0.48888  Biso   1.000  H
  C165     1.0000 0.85134  0.72065  0.40321  Biso   1.000  C
  C166     1.0000 0.47349  0.67037  0.64957  Biso   1.000  C
  N11      1.0000 0.55769  0.72666  0.70096  Biso   1.000  N
  C167     1.0000 0.62631  0.82177  0.64810  Biso   1.000  C
  H195     1.0000 0.67557  0.90084  0.59611  Biso   1.000  H
  H196     1.0000 0.84357  0.70723  0.36590  Biso   1.000  H
  H197     1.0000 0.90427  0.70234  0.41361  Biso   1.000  H
  H198     1.0000 0.84898  0.77005  0.40049  Biso   1.000  H
  O18      1.0000 0.42650  0.61714  0.65242  Biso   1.000  O
  C168     1.0000 0.51011  0.67905  0.69979  Biso   1.000  C
  C169     1.0000 0.65921  0.83356  0.70208  Biso   1.000  C
  C170     1.0000 0.34196  0.63106  0.66170  Biso   1.000  C
  O19      1.0000 0.49511  0.63085  0.74673  Biso   1.000  O
  O20      1.0000 0.61601  0.86330  0.73831  Biso   1.000  O
  N12      1.0000 0.73547  0.81107  0.70921  Biso   1.000  N
  C171     1.0000 0.30289  0.66824  0.61800  Biso   1.000  C
  C172     1.0000 0.30040  0.60305  0.71301  Biso   1.000  C
  C173     1.0000 0.43530  0.64836  0.79100  Biso   1.000  C
  C174     1.0000 0.76662  0.82549  0.76137  Biso   1.000  C
  C175     1.0000 0.79211  0.77785  0.66598  Biso   1.000  C
  C176     1.0000 0.22078  0.67737  0.62547  Biso   1.000  C
  H199     1.0000 0.33319  0.68726  0.58328  Biso   1.000  H
  C177     1.0000 0.34579  0.56448  0.76068  Biso   1.000  C
  C178     1.0000 0.21619  0.61236  0.71789  Biso   1.000  C
  C179     1.0000 0.45119  0.69455  0.82528  Biso   1.000  C
  C180     1.0000 0.36479  0.61315  0.80088  Biso   1.000  C
  H200     1.0000 0.74699  0.87177  0.76910  Biso   1.000  H
  H201     1.0000 0.82631  0.82455  0.75420  Biso   1.000  H
  C181     1.0000 0.74229  0.77647  0.81449  Biso   1.000  C
  H202     1.0000 0.84142  0.80364  0.65661  Biso   1.000  H
  H203     1.0000 0.76650  0.78003  0.63009  Biso   1.000  H
  C182     1.0000 0.81622  0.70527  0.68520  Biso   1.000  C
  O21      1.0000 0.18100  0.71177  0.58047  Biso   1.000  O
  C183     1.0000 0.17557  0.64824  0.67479  Biso   1.000  C
  H204     1.0000 0.39860  0.54658  0.74168  Biso   1.000  H
  C184     1.0000 0.30047  0.50276  0.79290  Biso   1.000  C
  H205     1.0000 0.18548  0.59318  0.75230  Biso   1.000  H
  H206     1.0000 0.49973  0.71785  0.81678  Biso   1.000  H
  C185     1.0000 0.39621  0.70746  0.87279  Biso   1.000  C
  C186     1.0000 0.31189  0.62747  0.84899  Biso   1.000  C
  H207     1.0000 0.77422  0.73299  0.81190  Biso   1.000  H
  H208     1.0000 0.68449  0.76775  0.81639  Biso   1.000  H
  C187     1.0000 0.75633  0.80450  0.86898  Biso   1.000  C
  H209     1.0000 0.86068  0.69093  0.65639  Biso   1.000  H
  H210     1.0000 0.83900  0.70384  0.72207  Biso   1.000  H
  C188     1.0000 0.75848  0.65638  0.69327  Biso   1.000  C
  C189     1.0000 0.18101  0.78257  0.57188  Biso   1.000  C
  C190     1.0000 0.08300  0.65654  0.68109  Biso   1.000  C
  H211     1.0000 0.25097  0.51925  0.81600  Biso   1.000  H
  H212     1.0000 0.28347  0.47674  0.76401  Biso   1.000  H
  C191     1.0000 0.35011  0.45577  0.83237  Biso   1.000  C
  O22      1.0000 0.41432  0.75060  0.91040  Biso   1.000  O
  C192     1.0000 0.32570  0.67267  0.88660  Biso   1.000  C
  H213     1.0000 0.26287  0.60486  0.85689  Biso   1.000  H
  H214     1.0000 0.81462  0.81177  0.86700  Biso   1.000  H
  H215     1.0000 0.72669  0.84919  0.86989  Biso   1.000  H
  C193     1.0000 0.73151  0.76176  0.92271  Biso   1.000  C
  H216     1.0000 0.70897  0.67297  0.71637  Biso   1.000  H
  H217     1.0000 0.77977  0.61438  0.71508  Biso   1.000  H
  C194     1.0000 0.73636  0.63983  0.63247  Biso   1.000  C
  C195     1.0000 0.11440  0.82154  0.59339  Biso   1.000  C
  C196     1.0000 0.24621  0.81373  0.53660  Biso   1.000  C
  C197     1.0000 0.05259  0.71574  0.71331  Biso   1.000  C
  H218     1.0000 0.06798  0.66857  0.64110  Biso   1.000  H
  C198     1.0000 0.04098  0.59168  0.70640  Biso   1.000  C
  H219     1.0000 0.35936  0.47810  0.86579  Biso   1.000  H
  H220     1.0000 0.40307  0.44309  0.81138  Biso   1.000  H
  C199     1.0000 0.30077  0.39227  0.85301  Biso   1.000  C
  C200     1.0000 0.32009  0.39936  0.87719  Biso   1.000  C
  C201     1.0000 0.40670  0.81967  0.89550  Biso   1.000  C
  C202     1.0000 0.26952  0.68199  0.93998  Biso   1.000  C
  H221     1.0000 0.76381  0.71880  0.92400  Biso   1.000  H
  H222     1.0000 0.67423  0.75297  0.92478  Biso   1.000  H
  H223     1.0000 0.73963  0.78479  0.95548  Biso   1.000  H
  H224     1.0000 0.78538  0.62383  0.60949  Biso   1.000  H
  H225     1.0000 0.71311  0.68097  0.61170  Biso   1.000  H
  H226     1.0000 0.69699  0.60477  0.63938  Biso   1.000  H
  O23      1.0000 0.04816  0.78760  0.62340  Biso   1.000  O
  C203     1.0000 0.10950  0.89147  0.58047  Biso   1.000  C
  O24      1.0000 0.30930  0.77331  0.51479  Biso   1.000  O
  C204     1.0000 0.24111  0.88355  0.52481  Biso   1.000  C
  C205     1.0000 0.03851  0.78015  0.68360  Biso   1.000  C
  C206     1.0000 0.03731  0.70909  0.77351  Biso   1.000  C
  H227     1.0000 0.05891  0.57546  0.74457  Biso   1.000  H
  C207     1.0000 0.05787  0.53465  0.66840  Biso   1.000  C
  H228     1.0000 0.98201  0.60227  0.71249  Biso   1.000  H
  H229     1.0000 0.24869  0.40570  0.87469  Biso   1.000  H
  H230     1.0000 0.28910  0.37218  0.81898  Biso   1.000  H
  C208     1.0000 0.34680  0.33940  0.89148  Biso   1.000  C
  C209     1.0000 0.27235  0.34987  0.85560  Biso   1.000  C
  H231     1.0000 0.36710  0.37470  0.89347  Biso   1.000  H
  H232     1.0000 0.28599  0.41937  0.90897  Biso   1.000  H
  C210     1.0000 0.47130  0.85509  0.86398  Biso   1.000  C
  C211     1.0000 0.33674  0.85577  0.91869  Biso   1.000  C
  H233     1.0000 0.30193  0.70070  0.96636  Biso   1.000  H
  C212     1.0000 0.20299  0.73647  0.92607  Biso   1.000  C
  C213     1.0000 0.23731  0.61617  0.97310  Biso   1.000  C
  O25      1.0000 0.04002  0.92618  0.59887  Biso   1.000  O
  C214     1.0000 0.17388  0.92206  0.54597  Biso   1.000  C
  H234     1.0000 0.34917  0.79674  0.50270  Biso   1.000  H
  C215     1.0000 0.30642  0.92607  0.48737  Biso   1.000  C
  C216     1.0000 0.00691  0.83326  0.71257  Biso   1.000  C
  C217     1.0000 0.00710  0.76157  0.80430  Biso   1.000  C
  H235     1.0000 0.04810  0.66597  0.79441  Biso   1.000  H
  H236     1.0000 0.03756  0.54997  0.63087  Biso   1.000  H
  H237     1.0000 0.11695  0.52545  0.66071  Biso   1.000  H
  C218     1.0000 0.02030  0.47074  0.69409  Biso   1.000  C
  H238     1.0000 0.39958  0.32720  0.86998  Biso   1.000  H
  H239     1.0000 0.35719  0.35930  0.92577  Biso   1.000  H
  C219     1.0000 0.30138  0.27586  0.91100  Biso   1.000  C
  C220     1.0000 0.23977  0.28350  0.89710  Biso   1.000  C
  H240     1.0000 0.30596  0.33367  0.82179  Biso   1.000  H
  H241     1.0000 0.22468  0.37547  0.84109  Biso   1.000  H
  O26      1.0000 0.53933  0.81814  0.84545  Biso   1.000  O
  C221     1.0000 0.46464  0.92549  0.85767  Biso   1.000  C
  O27      1.0000 0.27911  0.81953  0.95583  Biso   1.000  O
  C222     1.0000 0.33143  0.92647  0.91079  Biso   1.000  C
  C223     1.0000 0.21102  0.80316  0.93290  Biso   1.000  C
  C224     1.0000 0.13243  0.72097  0.90509  Biso   1.000  C
  H242     1.0000 0.21032  0.59289  0.94710  Biso   1.000  H
  C225     1.0000 0.30302  0.56970  0.99629  Biso   1.000  C
  H243     1.0000 0.19656  0.62701  0.00549  Biso   1.000  H
  H244     1.0000 0.05010  0.96577  0.60267  Biso   1.000  H
  C226     1.0000 0.18112  0.99814  0.52719  Biso   1.000  C
  C227     1.0000 0.32608  0.97507  0.52740  Biso   1.000  C
  H245     1.0000 0.35459  0.89824  0.47230  Biso   1.000  H
  C228     1.0000 0.26427  0.96714  0.44039  Biso   1.000  C
  C229     1.0000 0.99098  0.82406  0.77230  Biso   1.000  C
  H246     1.0000 0.99602  0.87629  0.69159  Biso   1.000  H
  C230     1.0000 0.99313  0.75280  0.87097  Biso   1.000  C
  H247     1.0000 0.03947  0.45689  0.73218  Biso   1.000  H
  C231     1.0000 0.03476  0.41338  0.66127  Biso   1.000  C
  H248     1.0000 0.96116  0.48048  0.70117  Biso   1.000  H
  H249     1.0000 0.26247  0.28351  0.94529  Biso   1.000  H
  H250     1.0000 0.26976  0.26818  0.88000  Biso   1.000  H
  C232     1.0000 0.35126  0.21469  0.92538  Biso   1.000  C
  H251     1.0000 0.35189  0.26230  0.91679  Biso   1.000  H
  C233     1.0000 0.31565  0.24438  0.89390  Biso   1.000  C
  H252     1.0000 0.21998  0.29309  0.93687  Biso   1.000  H
  H253     1.0000 0.19765  0.26220  0.88108  Biso   1.000  H
  H254     1.0000 0.56049  0.83719  0.81358  Biso   1.000  H
  C234     1.0000 0.53259  0.97126  0.83180  Biso   1.000  C
  C235     1.0000 0.39540  0.96056  0.88039  Biso   1.000  C
  O28      1.0000 0.26420  0.95835  0.93769  Biso   1.000  O
  C236     1.0000 0.14952  0.85286  0.92344  Biso   1.000  C
  H255     1.0000 0.12701  0.67577  0.89848  Biso   1.000  H
  C237     1.0000 0.07021  0.76940  0.89369  Biso   1.000  C
  H256     1.0000 0.34290  0.55899  0.96338  Biso   1.000  H
  H257     1.0000 0.33085  0.59429  0.02099  Biso   1.000  H
  C238     1.0000 0.27733  0.50277  0.03149  Biso   1.000  C
  H258     1.0000 0.13283  0.02613  0.54217  Biso   1.000  H
  C239     1.0000 0.25835  0.01404  0.54817  Biso   1.000  C
  C240     1.0000 0.19664  0.00621  0.46120  Biso   1.000  C
  C241     1.0000 0.40100  0.98007  0.54541  Biso   1.000  C
  C242     1.0000 0.28628  0.96843  0.38187  Biso   1.000  C
  O29      1.0000 0.95193  0.87750  0.80106  Biso   1.000  O
  H259     1.0000 0.95010  0.78760  0.88237  Biso   1.000  H
  C243     1.0000 0.96268  0.68409  0.89757  Biso   1.000  C
  H260     1.0000 0.09365  0.40256  0.65471  Biso   1.000  H
  H261     1.0000 0.01577  0.42665  0.62310  Biso   1.000  H
  C244     1.0000 0.99098  0.34557  0.69198  Biso   1.000  C
  H262     1.0000 0.37965  0.19950  0.88989  Biso   1.000  H
  H263     1.0000 0.31709  0.17920  0.94598  Biso   1.000  H
  H264     1.0000 0.39078  0.22428  0.95000  Biso   1.000  H
  H265     1.0000 0.30645  0.19701  0.90897  Biso   1.000  H
  H266     1.0000 0.34027  0.24708  0.85348  Biso   1.000  H
  H267     1.0000 0.58221  0.94598  0.81548  Biso   1.000  H
  C245     1.0000 0.49766  0.02487  0.78728  Biso   1.000  C
  C246     1.0000 0.54665  0.00957  0.88129  Biso   1.000  C
  C247     1.0000 0.40366  0.03719  0.87447  Biso   1.000  C
  H268     1.0000 0.26072  0.99910  0.92327  Biso   1.000  H
  H269     1.0000 0.15461  0.89829  0.92979  Biso   1.000  H
  C248     1.0000 0.08119  0.83398  0.90457  Biso   1.000  C
  H270     1.0000 0.25091  0.47709  0.00678  Biso   1.000  H
  H271     1.0000 0.32645  0.47569  0.04211  Biso   1.000  H
  C249     1.0000 0.22082  0.51061  0.08572  Biso   1.000  C
  C250     1.0000 0.26634  0.05842  0.58820  Biso   1.000  C
  C251     1.0000 0.15052  0.04533  0.42329  Biso   1.000  C
  H272     1.0000 0.44647  0.95306  0.53129  Biso   1.000  H
  C252     1.0000 0.40842  0.02392  0.58328  Biso   1.000  C
  H273     1.0000 0.33217  0.94184  0.36758  Biso   1.000  H
  C253     1.0000 0.24074  0.00883  0.34379  Biso   1.000  C
  C254     1.0000 0.99503  0.93196  0.80309  Biso   1.000  C
  H274     1.0000 0.00300  0.64829  0.88548  Biso   1.000  H
  H275     1.0000 0.91201  0.67746  0.88207  Biso   1.000  H
  C255     1.0000 0.94713  0.67560  0.96269  Biso   1.000  C
  C256     1.0000 0.02147  0.31948  0.74380  Biso   1.000  C
  H276     1.0000 0.93217  0.35625  0.70009  Biso   1.000  H
  H277     1.0000 0.99914  0.31074  0.66529  Biso   1.000  H
  C257     1.0000 0.53008  0.04026  0.73011  Biso   1.000  C
  C258     1.0000 0.42897  0.06017  0.81077  Biso   1.000  C
  C259     1.0000 0.47744  0.04477  0.90409  Biso   1.000  C
  C260     1.0000 0.61818  0.01045  0.90470  Biso   1.000  C
  H278     1.0000 0.35394  0.06236  0.89079  Biso   1.000  H
  O30      1.0000 0.01600  0.88317  0.89852  Biso   1.000  O
  H279     1.0000 0.16757  0.52917  0.07501  Biso   1.000  H
  H280     1.0000 0.24206  0.54360  0.10688  Biso   1.000  H
  C261     1.0000 0.20976  0.44408  0.12532  Biso   1.000  C
  H281     1.0000 0.22094  0.08486  0.60319  Biso   1.000  H
  C262     1.0000 0.34114  0.06293  0.60518  Biso   1.000  C
  C263     1.0000 0.17374  0.04613  0.36400  Biso   1.000  C
  H282     1.0000 0.10391  0.07121  0.43728  Biso   1.000  H
  H283     1.0000 0.45975  0.02834  0.59507  Biso   1.000  H
  H284     1.0000 0.25641  0.01063  0.30341  Biso   1.000  H
  N13      1.0000 0.00141  0.98018  0.76008  Biso   1.000  N
  C264     1.0000 0.02832  0.93548  0.85568  Biso   1.000  C
  H285     1.0000 0.90750  0.71191  0.97470  Biso   1.000  H
  H286     1.0000 0.99800  0.68137  0.97820  Biso   1.000  H
  C265     1.0000 0.91519  0.60711  0.98917  Biso   1.000  C
  H287     1.0000 0.07876  0.30535  0.73550  Biso   1.000  H
  H288     1.0000 0.01559  0.35447  0.76971  Biso   1.000  H
  H289     1.0000 0.99137  0.28035  0.76219  Biso   1.000  H
  H290     1.0000 0.57598  0.01514  0.71409  Biso   1.000  H
  C266     1.0000 0.49273  0.09437  0.69638  Biso   1.000  C
  C267     1.0000 0.39117  0.11274  0.77700  Biso   1.000  C
  C268     1.0000 0.48047  0.08177  0.94926  Biso   1.000  C
  H291     1.0000 0.66521  0.98560  0.88989  Biso   1.000  H
  C269     1.0000 0.62055  0.04760  0.94918  Biso   1.000  C
  H292     1.0000 0.19142  0.41052  0.10330  Biso   1.000  H
  H293     1.0000 0.26262  0.42691  0.13750  Biso   1.000  H
  C270     1.0000 0.15202  0.45013  0.17641  Biso   1.000  C
  H294     1.0000 0.34728  0.09305  0.63208  Biso   1.000  H
  H295     1.0000 0.14263  0.07283  0.33739  Biso   1.000  H
  C271     1.0000 0.04205  0.03477  0.76729  Biso   1.000  C
  N14      1.0000 0.06394  0.98776  0.86462  Biso   1.000  N
  H296     1.0000 0.85661  0.60821  0.98649  Biso   1.000  H
  H297     1.0000 0.94187  0.57181  0.96628  Biso   1.000  H
  C272     1.0000 0.92866  0.58709  0.05182  Biso   1.000  C
  H298     1.0000 0.51485  0.10685  0.65738  Biso   1.000  H
  C273     1.0000 0.42487  0.12917  0.71918  Biso   1.000  C
  H299     1.0000 0.34409  0.13683  0.79251  Biso   1.000  H
  H300     1.0000 0.43346  0.10609  0.96459  Biso   1.000  H
  C274     1.0000 0.55295  0.08307  0.97219  Biso   1.000  C
  H301     1.0000 0.67009  0.04875  0.96468  Biso   1.000  H
  H302     1.0000 0.09925  0.46651  0.16479  Biso   1.000  H
  H303     1.0000 0.17052  0.48222  0.19921  Biso   1.000  H
  H304     1.0000 0.14745  0.40578  0.19981  Biso   1.000  H
  C275     1.0000 0.07234  0.03925  0.81980  Biso   1.000  C
  C276     1.0000 0.05223  0.08973  0.72251  Biso   1.000  C
  H305     1.0000 0.90035  0.62128  0.07532  Biso   1.000  H
  H306     1.0000 0.98701  0.58691  0.05502  Biso   1.000  H
  C277     1.0000 0.89813  0.51730  0.07622  Biso   1.000  C
  H307     1.0000 0.40019  0.16493  0.69547  Biso   1.000  H
  H308     1.0000 0.55564  0.10816  0.00329  Biso   1.000  H
  C278     1.0000 0.11077  0.09646  0.82831  Biso   1.000  C
  C279     1.0000 0.09247  0.14343  0.72998  Biso   1.000  C
  C280     1.0000 0.02214  0.08425  0.66490  Biso   1.000  C
  H309     1.0000 0.83882  0.51879  0.07661  Biso   1.000  H
  H310     1.0000 0.92225  0.48388  0.05049  Biso   1.000  H
  C281     1.0000 0.91883  0.49390  0.13729  Biso   1.000  C
  C282     1.0000 0.12189  0.14815  0.78257  Biso   1.000  C
  C283     1.0000 0.14378  0.09867  0.88397  Biso   1.000  C
  H311     1.0000 0.10118  0.17895  0.69910  Biso   1.000  H
  N15      1.0000 0.95593  0.12103  0.65220  Biso   1.000  N
  O31      1.0000 0.06297  0.04762  0.63178  Biso   1.000  O
  H312     1.0000 0.97656  0.48038  0.13569  Biso   1.000  H
  H313     1.0000 0.88714  0.45521  0.15439  Biso   1.000  H
  H314     1.0000 0.90614  0.53099  0.16091  Biso   1.000  H
  H315     1.0000 0.14935  0.18676  0.78689  Biso   1.000  H
  O32      1.0000 0.21666  0.08288  0.88617  Biso   1.000  O
  N16      1.0000 0.09358  0.11725  0.92905  Biso   1.000  N
  C284     1.0000 0.90343  0.15815  0.69379  Biso   1.000  C
  C285     1.0000 0.92774  0.11734  0.59641  Biso   1.000  C
  C286     1.0000 0.12460  0.11477  0.98480  Biso   1.000  C
  C287     1.0000 0.00877  0.13637  0.92707  Biso   1.000  C
  H316     1.0000 0.88255  0.20123  0.67349  Biso   1.000  H
  H317     1.0000 0.93525  0.16904  0.72350  Biso   1.000  H
  C288     1.0000 0.83395  0.11786  0.72238  Biso   1.000  C
  H318     1.0000 0.87083  0.10464  0.60310  Biso   1.000  H
  H319     1.0000 0.96023  0.08133  0.57728  Biso   1.000  H
  C289     1.0000 0.93333  0.18244  0.55698  Biso   1.000  C
  C290     1.0000 0.98097  0.15865  0.54450  Biso   1.000  C
  H320     1.0000 0.87093  0.13553  0.59758  Biso   1.000  H
  H321     1.0000 0.92923  0.06946  0.58959  Biso   1.000  H
  H322     1.0000 0.18136  0.12777  0.97776  Biso   1.000  H
  H323     1.0000 0.09272  0.14817  0.00730  Biso   1.000  H
  C291     1.0000 0.12049  0.04465  0.02021  Biso   1.000  C
  H324     1.0000 0.97819  0.11929  0.96459  Biso   1.000  H
  H325     1.0000 0.98934  0.11428  0.89680  Biso   1.000  H
  C292     1.0000 0.99057  0.21209  0.91511  Biso   1.000  C
  H326     1.0000 0.85558  0.07453  0.74198  Biso   1.000  H
  H327     1.0000 0.80274  0.10703  0.69228  Biso   1.000  H
  C293     1.0000 0.77717  0.15323  0.76629  Biso   1.000  C
  H328     1.0000 0.88884  0.18712  0.53530  Biso   1.000  H
  C294     1.0000 0.97043  0.22823  0.54338  Biso   1.000  C
  H329     1.0000 0.94744  0.16594  0.51440  Biso   1.000  H
  C295     1.0000 0.02705  0.17886  0.52878  Biso   1.000  C
  H330     1.0000 0.14559  0.01029  0.99577  Biso   1.000  H
  H331     1.0000 0.06332  0.03458  0.03222  Biso   1.000  H
  C296     1.0000 0.16323  0.04031  0.07298  Biso   1.000  C
  C297     1.0000 0.90130  0.23039  0.91018  Biso   1.000  C
  H332     1.0000 0.02300  0.22978  0.87857  Biso   1.000  H
  H333     1.0000 0.00690  0.23416  0.94659  Biso   1.000  H
  H334     1.0000 0.80328  0.15145  0.80188  Biso   1.000  H
  H335     1.0000 0.76907  0.20143  0.75070  Biso   1.000  H
  C298     1.0000 0.69566  0.12344  0.78197  Biso   1.000  C
  H336     1.0000 0.98694  0.23996  0.57758  Biso   1.000  H
  C299     1.0000 0.00394  0.27701  0.49661  Biso   1.000  C
  C300     1.0000 0.05082  0.24483  0.48379  Biso   1.000  C
  H337     1.0000 0.07343  0.15494  0.54239  Biso   1.000  H
  C301     1.0000 0.16107  0.97239  0.10939  Biso   1.000  C
  H338     1.0000 0.13829  0.07518  0.09699  Biso   1.000  H
  H339     1.0000 0.22029  0.05077  0.06072  Biso   1.000  H
  H340     1.0000 0.88367  0.20506  0.88108  Biso   1.000  H
  H341     1.0000 0.86918  0.21626  0.94780  Biso   1.000  H
  C302     1.0000 0.88439  0.30427  0.89338  Biso   1.000  C
  H342     1.0000 0.66877  0.12565  0.74721  Biso   1.000  H
  H343     1.0000 0.66247  0.14923  0.81000  Biso   1.000  H
  H344     1.0000 0.70265  0.07613  0.79898  Biso   1.000  H
  H345     1.0000 0.99845  0.26181  0.45947  Biso   1.000  H
  H346     1.0000 0.97484  0.32111  0.49907  Biso   1.000  H
  H347     1.0000 0.06124  0.28103  0.49959  Biso   1.000  H
  H348     1.0000 0.04452  0.23642  0.44458  Biso   1.000  H
  H349     1.0000 0.10706  0.25422  0.48547  Biso   1.000  H
  H350     1.0000 0.01527  0.28374  0.49389  Biso   1.000  H
  H351     1.0000 0.18688  0.93762  0.08641  Biso   1.000  H
  H352     1.0000 0.10476  0.96208  0.12269  Biso   1.000  H
  H353     1.0000 0.18996  0.97339  0.14281  Biso   1.000  H
  H354     1.0000 0.90609  0.31657  0.85288  Biso   1.000  H
  H355     1.0000 0.91000  0.32997  0.91800  Biso   1.000  H
  H356     1.0000 0.82591  0.31469  0.89826  Biso   1.000  H
