data_image0
_cell_length_a       22.31
_cell_length_b       22.31
_cell_length_c       33.644
_cell_angle_alpha    90
_cell_angle_beta     90
_cell_angle_gamma    90

_symmetry_space_group_name_H-M    "P 1"
_symmetry_int_tables_number       1

loop_
  _symmetry_equiv_pos_as_xyz
  'x, y, z'

loop_
  _atom_site_label
  _atom_site_occupancy
  _atom_site_fract_x
  _atom_site_fract_y
  _atom_site_fract_z
  _atom_site_thermal_displace_type
  _atom_site_B_iso_or_equiv
  _atom_site_type_symbol
  C1       1.0000 0.30959  0.49310  0.47940  Biso   1.000  C
  C2       1.0000 0.36042  0.50578  0.45669  Biso   1.000  C
  H1       1.0000 0.27248  0.51098  0.47251  Biso   1.000  H
  C3       1.0000 0.31219  0.45468  0.51219  Biso   1.000  C
  B1       1.0000 0.35549  0.55338  0.42201  Biso   1.000  B
  C4       1.0000 0.41331  0.47678  0.46829  Biso   1.000  C
  H2       1.0000 0.27660  0.44639  0.52660  Biso   1.000  H
  C5       1.0000 0.36670  0.42779  0.52449  Biso   1.000  C
  O1       1.0000 0.29830  0.55150  0.39960  Biso   1.000  O
  O2       1.0000 0.40448  0.55329  0.39190  Biso   1.000  O
  N1       1.0000 0.35849  0.61950  0.44370  Biso   1.000  N
  C6       1.0000 0.41681  0.43949  0.50161  Biso   1.000  C
  H3       1.0000 0.44850  0.48270  0.45289  Biso   1.000  H
  B2       1.0000 0.36988  0.38991  0.56500  Biso   1.000  B
  C7       1.0000 0.31340  0.56221  0.36000  Biso   1.000  C
  C8       1.0000 0.37732  0.56441  0.35549  Biso   1.000  C
  C9       1.0000 0.30829  0.64572  0.45860  Biso   1.000  C
  C10      1.0000 0.41130  0.64621  0.45119  Biso   1.000  C
  H4       1.0000 0.45410  0.42201  0.50859  Biso   1.000  H
  N2       1.0000 0.37808  0.43810  0.60159  Biso   1.000  N
  O3       1.0000 0.28911  0.36849  0.57511  Biso   1.000  O
  O4       1.0000 0.39081  0.33402  0.57270  Biso   1.000  O
  O5       1.0000 0.32828  0.35621  0.57389  Biso   1.000  O
  O6       1.0000 0.43308  0.35038  0.56759  Biso   1.000  O
  C11      1.0000 0.27638  0.57060  0.32781  Biso   1.000  C
  C12      1.0000 0.40300  0.57441  0.31911  Biso   1.000  C
  H5       1.0000 0.27042  0.62869  0.45229  Biso   1.000  H
  C13      1.0000 0.31000  0.69561  0.48240  Biso   1.000  C
  C14      1.0000 0.41712  0.69601  0.47500  Biso   1.000  C
  H6       1.0000 0.44639  0.62972  0.43960  Biso   1.000  H
  C15      1.0000 0.33299  0.47028  0.61821  Biso   1.000  C
  C16      1.0000 0.43411  0.44980  0.61310  Biso   1.000  C
  C17      1.0000 0.29731  0.31788  0.59731  Biso   1.000  C
  C18      1.0000 0.35670  0.29928  0.59731  Biso   1.000  C
  C19      1.0000 0.35392  0.30959  0.59621  Biso   1.000  C
  C20      1.0000 0.41600  0.30780  0.59259  Biso   1.000  C
  C21      1.0000 0.30202  0.58149  0.29051  Biso   1.000  C
  H7       1.0000 0.23411  0.56912  0.33079  Biso   1.000  H
  C22      1.0000 0.36239  0.58310  0.28721  Biso   1.000  C
  H8       1.0000 0.44518  0.57539  0.31551  Biso   1.000  H
  H9       1.0000 0.27400  0.71152  0.49310  Biso   1.000  H
  C23      1.0000 0.36459  0.72268  0.49070  Biso   1.000  C
  H10      1.0000 0.45558  0.71219  0.48071  Biso   1.000  H
  C24      1.0000 0.34379  0.51412  0.64591  Biso   1.000  C
  H11      1.0000 0.29278  0.46221  0.61051  Biso   1.000  H
  H12      1.0000 0.46611  0.42770  0.60159  Biso   1.000  H
  C25      1.0000 0.44720  0.49399  0.64169  Biso   1.000  C
  C26      1.0000 0.25468  0.28610  0.61889  Biso   1.000  C
  C27      1.0000 0.32461  0.26831  0.62020  Biso   1.000  C
  C28      1.0000 0.37360  0.24890  0.61889  Biso   1.000  C
  C29      1.0000 0.44868  0.26468  0.61301  Biso   1.000  C
  H13      1.0000 0.27732  0.58758  0.26780  Biso   1.000  H
  H14      1.0000 0.37889  0.59072  0.26171  Biso   1.000  H
  C30      1.0000 0.36961  0.77539  0.51730  Biso   1.000  C
  C31      1.0000 0.40040  0.52631  0.65810  Biso   1.000  C
  H15      1.0000 0.31130  0.53631  0.65661  Biso   1.000  H
  H16      1.0000 0.48740  0.50161  0.64951  Biso   1.000  H
  H17      1.0000 0.21398  0.29888  0.61889  Biso   1.000  H
  C32      1.0000 0.27149  0.23568  0.64041  Biso   1.000  C
  H18      1.0000 0.28221  0.26952  0.62261  Biso   1.000  H
  C33      1.0000 0.33102  0.21712  0.64041  Biso   1.000  C
  C34      1.0000 0.35728  0.22510  0.64059  Biso   1.000  C
  H19      1.0000 0.41421  0.23608  0.61889  Biso   1.000  H
  C35      1.0000 0.41941  0.22331  0.63699  Biso   1.000  C
  H20      1.0000 0.49108  0.26351  0.61060  Biso   1.000  H
  N3       1.0000 0.32322  0.78749  0.54120  Biso   1.000  N
  H21      1.0000 0.40448  0.79982  0.51739  Biso   1.000  H
  C36      1.0000 0.41161  0.57539  0.68809  Biso   1.000  C
  H22      1.0000 0.24240  0.21398  0.65521  Biso   1.000  H
  H23      1.0000 0.34249  0.18270  0.65521  Biso   1.000  H
  H24      1.0000 0.33729  0.19682  0.65700  Biso   1.000  H
  H25      1.0000 0.44169  0.19381  0.65099  Biso   1.000  H
  C37      1.0000 0.32541  0.83841  0.56191  Biso   1.000  C
  N4       1.0000 0.46248  0.57320  0.70880  Biso   1.000  N
  H26      1.0000 0.37790  0.57530  0.70729  Biso   1.000  H
  H27      1.0000 0.41031  0.61430  0.67391  Biso   1.000  H
  H28      1.0000 0.32528  0.87212  0.54271  Biso   1.000  H
  H29      1.0000 0.36432  0.83971  0.57609  Biso   1.000  H
  C38      1.0000 0.27629  0.84962  0.59190  Biso   1.000  C
  C39      1.0000 0.47459  0.61959  0.73270  Biso   1.000  C
  C40      1.0000 0.26410  0.90619  0.60409  Biso   1.000  C
  C41      1.0000 0.24402  0.80278  0.60831  Biso   1.000  C
  C42      1.0000 0.52730  0.61461  0.75930  Biso   1.000  C
  H30      1.0000 0.45020  0.65450  0.73261  Biso   1.000  H
  H31      1.0000 0.28628  0.93868  0.59339  Biso   1.000  H
  C43      1.0000 0.22030  0.91699  0.63179  Biso   1.000  C
  C44      1.0000 0.19982  0.81591  0.63690  Biso   1.000  C
  H32      1.0000 0.25159  0.76262  0.60049  Biso   1.000  H
  C45      1.0000 0.55442  0.56002  0.76760  Biso   1.000  C
  C46      1.0000 0.55401  0.66710  0.77500  Biso   1.000  C
  N5       1.0000 0.18812  0.87190  0.64841  Biso   1.000  N
  H33      1.0000 0.21219  0.95719  0.63949  Biso   1.000  H
  H34      1.0000 0.17768  0.78391  0.64841  Biso   1.000  H
  C47      1.0000 0.60430  0.55831  0.79140  Biso   1.000  C
  H35      1.0000 0.53850  0.52398  0.75690  Biso   1.000  H
  H36      1.0000 0.53779  0.70560  0.76929  Biso   1.000  H
  C48      1.0000 0.60381  0.66132  0.79881  Biso   1.000  C
  B3       1.0000 0.13989  0.88010  0.68500  Biso   1.000  B
  N6       1.0000 0.63048  0.60852  0.80630  Biso   1.000  N
  H37      1.0000 0.62129  0.52039  0.79771  Biso   1.000  H
  H38      1.0000 0.62030  0.69641  0.81040  Biso   1.000  H
  C49      1.0000 0.17781  0.88328  0.72551  Biso   1.000  C
  O7       1.0000 0.11851  0.96091  0.67489  Biso   1.000  O
  O8       1.0000 0.08400  0.85921  0.67730  Biso   1.000  O
  O9       1.0000 0.10619  0.92169  0.67611  Biso   1.000  O
  O10      1.0000 0.10040  0.81690  0.68241  Biso   1.000  O
  B4       1.0000 0.69659  0.60551  0.82799  Biso   1.000  B
  C50      1.0000 0.20471  0.93779  0.73781  Biso   1.000  C
  C51      1.0000 0.18951  0.83321  0.74839  Biso   1.000  C
  C52      1.0000 0.06791  0.95271  0.65269  Biso   1.000  C
  C53      1.0000 0.04931  0.89332  0.65269  Biso   1.000  C
  C54      1.0000 0.05961  0.89610  0.65379  Biso   1.000  C
  C55      1.0000 0.05782  0.83402  0.65741  Biso   1.000  C
  O11      1.0000 0.69852  0.54832  0.85040  Biso   1.000  O
  O12      1.0000 0.69668  0.65450  0.85810  Biso   1.000  O
  C56      1.0000 0.74420  0.61040  0.79331  Biso   1.000  C
  C57      1.0000 0.24312  0.94039  0.77060  Biso   1.000  C
  H39      1.0000 0.19641  0.97342  0.72340  Biso   1.000  H
  H40      1.0000 0.17199  0.79592  0.74141  Biso   1.000  H
  C58      1.0000 0.22680  0.83671  0.78171  Biso   1.000  C
  C59      1.0000 0.03608  0.99529  0.63111  Biso   1.000  C
  C60      1.0000 0.01829  0.92541  0.62980  Biso   1.000  C
  C61      1.0000 0.99888  0.87638  0.63111  Biso   1.000  C
  C62      1.0000 0.01470  0.80130  0.63699  Biso   1.000  C
  C63      1.0000 0.68781  0.56338  0.89000  Biso   1.000  C
  C64      1.0000 0.68561  0.62730  0.89451  Biso   1.000  C
  C65      1.0000 0.75688  0.55961  0.77060  Biso   1.000  C
  C66      1.0000 0.77320  0.66329  0.78171  Biso   1.000  C
  C67      1.0000 0.25580  0.88960  0.79331  Biso   1.000  C
  H41      1.0000 0.26100  0.97750  0.77749  Biso   1.000  H
  H42      1.0000 0.23272  0.80148  0.79711  Biso   1.000  H
  H43      1.0000 0.01950  0.96782  0.62739  Biso   1.000  H
  C68      1.0000 0.98570  0.97848  0.60959  Biso   1.000  C
  H44      1.0000 0.04890  0.03599  0.63111  Biso   1.000  H
  C69      1.0000 0.96710  0.91900  0.60959  Biso   1.000  C
  C70      1.0000 0.97508  0.89269  0.60941  Biso   1.000  C
  H45      1.0000 0.98610  0.83581  0.63111  Biso   1.000  H
  C71      1.0000 0.97329  0.83061  0.61301  Biso   1.000  C
  H46      1.0000 0.01349  0.75890  0.63940  Biso   1.000  H
  C72      1.0000 0.67938  0.52640  0.92219  Biso   1.000  C
  C73      1.0000 0.67562  0.65298  0.93089  Biso   1.000  C
  H47      1.0000 0.73900  0.52250  0.77749  Biso   1.000  H
  C74      1.0000 0.79529  0.56221  0.73781  Biso   1.000  C
  C75      1.0000 0.81049  0.66679  0.74839  Biso   1.000  C
  H48      1.0000 0.76728  0.69852  0.79711  Biso   1.000  H
  B5       1.0000 0.30341  0.89449  0.82799  Biso   1.000  B
  H49      1.0000 0.96401  0.00762  0.59479  Biso   1.000  H
  H50      1.0000 0.93272  0.90749  0.59479  Biso   1.000  H
  H51      1.0000 0.94680  0.91268  0.59300  Biso   1.000  H
  H52      1.0000 0.94379  0.80829  0.59901  Biso   1.000  H
  C76      1.0000 0.66849  0.55199  0.95949  Biso   1.000  C
  H53      1.0000 0.68091  0.48409  0.91921  Biso   1.000  H
  H54      1.0000 0.67459  0.69520  0.93449  Biso   1.000  H
  C77      1.0000 0.66692  0.61242  0.96279  Biso   1.000  C
  H55      1.0000 0.80359  0.52658  0.72340  Biso   1.000  H
  C78      1.0000 0.82219  0.61672  0.72551  Biso   1.000  C
  H56      1.0000 0.82801  0.70408  0.74141  Biso   1.000  H
  O13      1.0000 0.30148  0.95168  0.85040  Biso   1.000  O
  O14      1.0000 0.30332  0.84550  0.85810  Biso   1.000  O
  N7       1.0000 0.36952  0.89148  0.80630  Biso   1.000  N
  H57      1.0000 0.66239  0.52730  0.98220  Biso   1.000  H
  H58      1.0000 0.65930  0.62891  0.98829  Biso   1.000  H
  B6       1.0000 0.86011  0.61990  0.68500  Biso   1.000  B
  C79      1.0000 0.31219  0.93662  0.89000  Biso   1.000  C
  C80      1.0000 0.31439  0.87270  0.89451  Biso   1.000  C
  C81      1.0000 0.39570  0.94169  0.79140  Biso   1.000  C
  C82      1.0000 0.39619  0.83868  0.79881  Biso   1.000  C
  N8       1.0000 0.81188  0.62810  0.64841  Biso   1.000  N
  O15      1.0000 0.88149  0.53909  0.67489  Biso   1.000  O
  O16      1.0000 0.91600  0.64079  0.67730  Biso   1.000  O
  O17      1.0000 0.89381  0.57831  0.67611  Biso   1.000  O
  O18      1.0000 0.89960  0.68310  0.68241  Biso   1.000  O
  C83      1.0000 0.32062  0.97360  0.92219  Biso   1.000  C
  C84      1.0000 0.32438  0.84702  0.93089  Biso   1.000  C
  H59      1.0000 0.37871  0.97961  0.79771  Biso   1.000  H
  C85      1.0000 0.44558  0.93998  0.76760  Biso   1.000  C
  C86      1.0000 0.44599  0.83290  0.77500  Biso   1.000  C
  H60      1.0000 0.37970  0.80359  0.81040  Biso   1.000  H
  C87      1.0000 0.77970  0.58301  0.63179  Biso   1.000  C
  C88      1.0000 0.80018  0.68409  0.63690  Biso   1.000  C
  C89      1.0000 0.93209  0.54729  0.65269  Biso   1.000  C
  C90      1.0000 0.95069  0.60668  0.65269  Biso   1.000  C
  C91      1.0000 0.94039  0.60390  0.65379  Biso   1.000  C
  C92      1.0000 0.94218  0.66598  0.65741  Biso   1.000  C
  C93      1.0000 0.33151  0.94801  0.95949  Biso   1.000  C
  H61      1.0000 0.31909  0.01591  0.91921  Biso   1.000  H
  H62      1.0000 0.32541  0.80480  0.93449  Biso   1.000  H
  C94      1.0000 0.33308  0.88758  0.96279  Biso   1.000  C
  H63      1.0000 0.46150  0.97602  0.75690  Biso   1.000  H
  C95      1.0000 0.47270  0.88539  0.75930  Biso   1.000  C
  H64      1.0000 0.46221  0.79440  0.76929  Biso   1.000  H
  C96      1.0000 0.73590  0.59381  0.60409  Biso   1.000  C
  H65      1.0000 0.78781  0.54281  0.63949  Biso   1.000  H
  H66      1.0000 0.82232  0.71609  0.64841  Biso   1.000  H
  C97      1.0000 0.75598  0.69722  0.60831  Biso   1.000  C
  C98      1.0000 0.96392  0.50471  0.63111  Biso   1.000  C
  C99      1.0000 0.98171  0.57459  0.62980  Biso   1.000  C
  C100     1.0000 0.00112  0.62362  0.63111  Biso   1.000  C
  C101     1.0000 0.98530  0.69870  0.63699  Biso   1.000  C
  H67      1.0000 0.33761  0.97270  0.98220  Biso   1.000  H
  H68      1.0000 0.34070  0.87109  0.98829  Biso   1.000  H
  C102     1.0000 0.52541  0.88041  0.73270  Biso   1.000  C
  C103     1.0000 0.72371  0.65038  0.59190  Biso   1.000  C
  H69      1.0000 0.71372  0.56132  0.59339  Biso   1.000  H
  H70      1.0000 0.74841  0.73738  0.60049  Biso   1.000  H
  H71      1.0000 0.95110  0.46401  0.63111  Biso   1.000  H
  H72      1.0000 0.98050  0.53218  0.62739  Biso   1.000  H
  C104     1.0000 0.01430  0.52152  0.60959  Biso   1.000  C
  C105     1.0000 0.03290  0.58100  0.60959  Biso   1.000  C
  C106     1.0000 0.02492  0.60731  0.60941  Biso   1.000  C
  H73      1.0000 0.01390  0.66419  0.63111  Biso   1.000  H
  C107     1.0000 0.02671  0.66939  0.61301  Biso   1.000  C
  H74      1.0000 0.98651  0.74110  0.63940  Biso   1.000  H
  N9       1.0000 0.53752  0.92680  0.70880  Biso   1.000  N
  H75      1.0000 0.54980  0.84550  0.73261  Biso   1.000  H
  C108     1.0000 0.67459  0.66159  0.56191  Biso   1.000  C
  H76      1.0000 0.03599  0.49238  0.59479  Biso   1.000  H
  H77      1.0000 0.06728  0.59251  0.59479  Biso   1.000  H
  H78      1.0000 0.05320  0.58732  0.59300  Biso   1.000  H
  H79      1.0000 0.05621  0.69171  0.59901  Biso   1.000  H
  C109     1.0000 0.58839  0.92461  0.68809  Biso   1.000  C
  N10      1.0000 0.67678  0.71251  0.54120  Biso   1.000  N
  H80      1.0000 0.67472  0.62788  0.54271  Biso   1.000  H
  H81      1.0000 0.63568  0.66029  0.57609  Biso   1.000  H
  H82      1.0000 0.62210  0.92470  0.70729  Biso   1.000  H
  H83      1.0000 0.58969  0.88570  0.67391  Biso   1.000  H
  C110     1.0000 0.59960  0.97369  0.65810  Biso   1.000  C
  C111     1.0000 0.63039  0.72461  0.51730  Biso   1.000  C
  C112     1.0000 0.65621  0.98588  0.64591  Biso   1.000  C
  C113     1.0000 0.55280  0.00601  0.64169  Biso   1.000  C
  C114     1.0000 0.63541  0.77732  0.49070  Biso   1.000  C
  H84      1.0000 0.59552  0.70018  0.51739  Biso   1.000  H
  H85      1.0000 0.68870  0.96369  0.65661  Biso   1.000  H
  C115     1.0000 0.66701  0.02972  0.61821  Biso   1.000  C
  H86      1.0000 0.51260  0.99839  0.64951  Biso   1.000  H
  C116     1.0000 0.56589  0.05020  0.61310  Biso   1.000  C
  C117     1.0000 0.69000  0.80439  0.48240  Biso   1.000  C
  C118     1.0000 0.58288  0.80399  0.47500  Biso   1.000  C
  N11      1.0000 0.62192  0.06190  0.60159  Biso   1.000  N
  H87      1.0000 0.70722  0.03779  0.61051  Biso   1.000  H
  H88      1.0000 0.53389  0.07230  0.60159  Biso   1.000  H
  C119     1.0000 0.69171  0.85428  0.45860  Biso   1.000  C
  H89      1.0000 0.72600  0.78848  0.49310  Biso   1.000  H
  H90      1.0000 0.54442  0.78781  0.48071  Biso   1.000  H
  C120     1.0000 0.58870  0.85379  0.45119  Biso   1.000  C
  B7       1.0000 0.63012  0.11009  0.56500  Biso   1.000  B
  N12      1.0000 0.64151  0.88050  0.44370  Biso   1.000  N
  H91      1.0000 0.72958  0.87131  0.45229  Biso   1.000  H
  H92      1.0000 0.55361  0.87028  0.43960  Biso   1.000  H
  C121     1.0000 0.63330  0.07221  0.52449  Biso   1.000  C
  O19      1.0000 0.71089  0.13151  0.57511  Biso   1.000  O
  O20      1.0000 0.60919  0.16598  0.57270  Biso   1.000  O
  O21      1.0000 0.67172  0.14379  0.57389  Biso   1.000  O
  O22      1.0000 0.56692  0.14962  0.56759  Biso   1.000  O
  B8       1.0000 0.64451  0.94662  0.42201  Biso   1.000  B
  C122     1.0000 0.68781  0.04532  0.51219  Biso   1.000  C
  C123     1.0000 0.58319  0.06051  0.50161  Biso   1.000  C
  C124     1.0000 0.70269  0.18212  0.59731  Biso   1.000  C
  C125     1.0000 0.64330  0.20072  0.59731  Biso   1.000  C
  C126     1.0000 0.64608  0.19041  0.59621  Biso   1.000  C
  C127     1.0000 0.58400  0.19220  0.59259  Biso   1.000  C
  C128     1.0000 0.63958  0.99422  0.45669  Biso   1.000  C
  O23      1.0000 0.70170  0.94850  0.39960  Biso   1.000  O
  O24      1.0000 0.59552  0.94671  0.39190  Biso   1.000  O
  C129     1.0000 0.69041  0.00690  0.47940  Biso   1.000  C
  H93      1.0000 0.72340  0.05361  0.52660  Biso   1.000  H
  H94      1.0000 0.54590  0.07799  0.50859  Biso   1.000  H
  C130     1.0000 0.58669  0.02322  0.46829  Biso   1.000  C
  C131     1.0000 0.74532  0.21390  0.61889  Biso   1.000  C
  C132     1.0000 0.67539  0.23169  0.62020  Biso   1.000  C
  C133     1.0000 0.62640  0.25110  0.61889  Biso   1.000  C
  C134     1.0000 0.55132  0.23532  0.61301  Biso   1.000  C
  C135     1.0000 0.68660  0.93779  0.36000  Biso   1.000  C
  C136     1.0000 0.62268  0.93559  0.35549  Biso   1.000  C
  H95      1.0000 0.72752  0.98902  0.47251  Biso   1.000  H
  H96      1.0000 0.55150  0.01730  0.45289  Biso   1.000  H
  H97      1.0000 0.78602  0.20112  0.61889  Biso   1.000  H
  C137     1.0000 0.72851  0.26432  0.64041  Biso   1.000  C
  H98      1.0000 0.71779  0.23048  0.62261  Biso   1.000  H
  C138     1.0000 0.66898  0.28288  0.64041  Biso   1.000  C
  C139     1.0000 0.64272  0.27490  0.64059  Biso   1.000  C
  H99      1.0000 0.58579  0.26392  0.61889  Biso   1.000  H
  C140     1.0000 0.58059  0.27669  0.63699  Biso   1.000  C
  H100     1.0000 0.50892  0.23649  0.61060  Biso   1.000  H
  C141     1.0000 0.72362  0.92940  0.32781  Biso   1.000  C
  C142     1.0000 0.59700  0.92559  0.31911  Biso   1.000  C
  H101     1.0000 0.75760  0.28602  0.65521  Biso   1.000  H
  H102     1.0000 0.65751  0.31730  0.65521  Biso   1.000  H
  H103     1.0000 0.66271  0.30318  0.65700  Biso   1.000  H
  H104     1.0000 0.55831  0.30619  0.65099  Biso   1.000  H
  C143     1.0000 0.69798  0.91851  0.29051  Biso   1.000  C
  H105     1.0000 0.76589  0.93088  0.33079  Biso   1.000  H
  H106     1.0000 0.55482  0.92461  0.31551  Biso   1.000  H
  C144     1.0000 0.63761  0.91690  0.28721  Biso   1.000  C
  H107     1.0000 0.72268  0.91242  0.26780  Biso   1.000  H
  H108     1.0000 0.62111  0.90928  0.26171  Biso   1.000  H
  C145     1.0000 0.16849  0.55199  0.54051  Biso   1.000  C
  C146     1.0000 0.16692  0.61242  0.53721  Biso   1.000  C
  H109     1.0000 0.16239  0.52730  0.51780  Biso   1.000  H
  C147     1.0000 0.17938  0.52640  0.57781  Biso   1.000  C
  C148     1.0000 0.17562  0.65298  0.56911  Biso   1.000  C
  H110     1.0000 0.15930  0.62891  0.51171  Biso   1.000  H
  C149     1.0000 0.18781  0.56338  0.61000  Biso   1.000  C
  H111     1.0000 0.18091  0.48409  0.58079  Biso   1.000  H
  C150     1.0000 0.18561  0.62730  0.60549  Biso   1.000  C
  H112     1.0000 0.17459  0.69520  0.56551  Biso   1.000  H
  O25      1.0000 0.19852  0.54832  0.64960  Biso   1.000  O
  O26      1.0000 0.19668  0.65450  0.64190  Biso   1.000  O
  B9       1.0000 0.19659  0.60551  0.67201  Biso   1.000  B
  N13      1.0000 0.13048  0.60852  0.69370  Biso   1.000  N
  C151     1.0000 0.24420  0.61040  0.70669  Biso   1.000  C
  C152     1.0000 0.10430  0.55831  0.70860  Biso   1.000  C
  C153     1.0000 0.10381  0.66132  0.70119  Biso   1.000  C
  C154     1.0000 0.25688  0.55961  0.72940  Biso   1.000  C
  C155     1.0000 0.27320  0.66329  0.71829  Biso   1.000  C
  H113     1.0000 0.12129  0.52039  0.70229  Biso   1.000  H
  C156     1.0000 0.05442  0.56002  0.73240  Biso   1.000  C
  C157     1.0000 0.05401  0.66710  0.72500  Biso   1.000  C
  H114     1.0000 0.12030  0.69641  0.68960  Biso   1.000  H
  H115     1.0000 0.23900  0.52250  0.72251  Biso   1.000  H
  C158     1.0000 0.29529  0.56221  0.76219  Biso   1.000  C
  C159     1.0000 0.31049  0.66679  0.75161  Biso   1.000  C
  H116     1.0000 0.26728  0.69852  0.70289  Biso   1.000  H
  H117     1.0000 0.03850  0.52398  0.74310  Biso   1.000  H
  C160     1.0000 0.02730  0.61461  0.74070  Biso   1.000  C
  H118     1.0000 0.03779  0.70560  0.73071  Biso   1.000  H
  H119     1.0000 0.30359  0.52658  0.77660  Biso   1.000  H
  C161     1.0000 0.32219  0.61672  0.77449  Biso   1.000  C
  H120     1.0000 0.32801  0.70408  0.75859  Biso   1.000  H
  C162     1.0000 0.97459  0.61959  0.76730  Biso   1.000  C
  B10      1.0000 0.36011  0.61990  0.81500  Biso   1.000  B
  N14      1.0000 0.96248  0.57320  0.79120  Biso   1.000  N
  H121     1.0000 0.95020  0.65450  0.76739  Biso   1.000  H
  N15      1.0000 0.31188  0.62810  0.85159  Biso   1.000  N
  O27      1.0000 0.38149  0.53909  0.82511  Biso   1.000  O
  O28      1.0000 0.41600  0.64079  0.82270  Biso   1.000  O
  O29      1.0000 0.39381  0.57831  0.82389  Biso   1.000  O
  O30      1.0000 0.39960  0.68310  0.81759  Biso   1.000  O
  C163     1.0000 0.91161  0.57539  0.81191  Biso   1.000  C
  C164     1.0000 0.27970  0.58301  0.86821  Biso   1.000  C
  C165     1.0000 0.30018  0.68409  0.86310  Biso   1.000  C
  C166     1.0000 0.43209  0.54729  0.84731  Biso   1.000  C
  C167     1.0000 0.45069  0.60668  0.84731  Biso   1.000  C
  C168     1.0000 0.44039  0.60390  0.84621  Biso   1.000  C
  C169     1.0000 0.44218  0.66598  0.84259  Biso   1.000  C
  H122     1.0000 0.87790  0.57530  0.79271  Biso   1.000  H
  H123     1.0000 0.91031  0.61430  0.82609  Biso   1.000  H
  C170     1.0000 0.90040  0.52631  0.84190  Biso   1.000  C
  C171     1.0000 0.23590  0.59381  0.89591  Biso   1.000  C
  H124     1.0000 0.28781  0.54281  0.86051  Biso   1.000  H
  H125     1.0000 0.32232  0.71609  0.85159  Biso   1.000  H
  C172     1.0000 0.25598  0.69722  0.89169  Biso   1.000  C
  C173     1.0000 0.46392  0.50471  0.86889  Biso   1.000  C
  C174     1.0000 0.48171  0.57459  0.87020  Biso   1.000  C
  C175     1.0000 0.50112  0.62362  0.86889  Biso   1.000  C
  C176     1.0000 0.48530  0.69870  0.86301  Biso   1.000  C
  C177     1.0000 0.84379  0.51412  0.85409  Biso   1.000  C
  C178     1.0000 0.94720  0.49399  0.85831  Biso   1.000  C
  C179     1.0000 0.22371  0.65038  0.90810  Biso   1.000  C
  H126     1.0000 0.21372  0.56132  0.90661  Biso   1.000  H
  H127     1.0000 0.24841  0.73738  0.89951  Biso   1.000  H
  H128     1.0000 0.45110  0.46401  0.86889  Biso   1.000  H
  C180     1.0000 0.51430  0.52152  0.89041  Biso   1.000  C
  H129     1.0000 0.48050  0.53218  0.87261  Biso   1.000  H
  C181     1.0000 0.53290  0.58100  0.89041  Biso   1.000  C
  C182     1.0000 0.52492  0.60731  0.89059  Biso   1.000  C
  H130     1.0000 0.51390  0.66419  0.86889  Biso   1.000  H
  C183     1.0000 0.52671  0.66939  0.88699  Biso   1.000  C
  H131     1.0000 0.48651  0.74110  0.86060  Biso   1.000  H
  H132     1.0000 0.81130  0.53631  0.84339  Biso   1.000  H
  C184     1.0000 0.83299  0.47028  0.88179  Biso   1.000  C
  C185     1.0000 0.93411  0.44980  0.88690  Biso   1.000  C
  H133     1.0000 0.98740  0.50161  0.85049  Biso   1.000  H
  C186     1.0000 0.17459  0.66159  0.93809  Biso   1.000  C
  H134     1.0000 0.53599  0.49238  0.90521  Biso   1.000  H
  H135     1.0000 0.56728  0.59251  0.90521  Biso   1.000  H
  H136     1.0000 0.55320  0.58732  0.90700  Biso   1.000  H
  H137     1.0000 0.55621  0.69171  0.90099  Biso   1.000  H
  N16      1.0000 0.87808  0.43810  0.89841  Biso   1.000  N
  H138     1.0000 0.79278  0.46221  0.88949  Biso   1.000  H
  H139     1.0000 0.96611  0.42770  0.89841  Biso   1.000  H
  N17      1.0000 0.17678  0.71251  0.95880  Biso   1.000  N
  H140     1.0000 0.17472  0.62788  0.95729  Biso   1.000  H
  H141     1.0000 0.13568  0.66029  0.92391  Biso   1.000  H
  B11      1.0000 0.86988  0.38991  0.93500  Biso   1.000  B
  C187     1.0000 0.13039  0.72461  0.98270  Biso   1.000  C
  C188     1.0000 0.86670  0.42779  0.97551  Biso   1.000  C
  O31      1.0000 0.78911  0.36849  0.92489  Biso   1.000  O
  O32      1.0000 0.89081  0.33402  0.92730  Biso   1.000  O
  O33      1.0000 0.82828  0.35621  0.92611  Biso   1.000  O
  O34      1.0000 0.93308  0.35038  0.93241  Biso   1.000  O
  H142     1.0000 0.09552  0.70018  0.98261  Biso   1.000  H
  C189     1.0000 0.13541  0.77732  0.00930  Biso   1.000  C
  C190     1.0000 0.81219  0.45468  0.98781  Biso   1.000  C
  C191     1.0000 0.91681  0.43949  0.99839  Biso   1.000  C
  C192     1.0000 0.79731  0.31788  0.90269  Biso   1.000  C
  C193     1.0000 0.85670  0.29928  0.90269  Biso   1.000  C
  C194     1.0000 0.85392  0.30959  0.90379  Biso   1.000  C
  C195     1.0000 0.91600  0.30780  0.90741  Biso   1.000  C
  C196     1.0000 0.19000  0.80439  0.01760  Biso   1.000  C
  C197     1.0000 0.08288  0.80399  0.02500  Biso   1.000  C
  H143     1.0000 0.77660  0.44639  0.97340  Biso   1.000  H
  C198     1.0000 0.80959  0.49310  0.02060  Biso   1.000  C
  H144     1.0000 0.95410  0.42201  0.99141  Biso   1.000  H
  C199     1.0000 0.91331  0.47678  0.03171  Biso   1.000  C
  C200     1.0000 0.75468  0.28610  0.88111  Biso   1.000  C
  C201     1.0000 0.82461  0.26831  0.87980  Biso   1.000  C
  C202     1.0000 0.87360  0.24890  0.88111  Biso   1.000  C
  C203     1.0000 0.94868  0.26468  0.88699  Biso   1.000  C
  C204     1.0000 0.19171  0.85428  0.04140  Biso   1.000  C
  H145     1.0000 0.22600  0.78848  0.00690  Biso   1.000  H
  H146     1.0000 0.04442  0.78781  0.01929  Biso   1.000  H
  C205     1.0000 0.08870  0.85379  0.04881  Biso   1.000  C
  C206     1.0000 0.86042  0.50578  0.04331  Biso   1.000  C
  H147     1.0000 0.77248  0.51098  0.02749  Biso   1.000  H
  H148     1.0000 0.94850  0.48270  0.04711  Biso   1.000  H
  H149     1.0000 0.71398  0.29888  0.88111  Biso   1.000  H
  C207     1.0000 0.77149  0.23568  0.85959  Biso   1.000  C
  H150     1.0000 0.78221  0.26952  0.87739  Biso   1.000  H
  C208     1.0000 0.83102  0.21712  0.85959  Biso   1.000  C
  C209     1.0000 0.85728  0.22510  0.85941  Biso   1.000  C
  H151     1.0000 0.91421  0.23608  0.88111  Biso   1.000  H
  C210     1.0000 0.91941  0.22331  0.86301  Biso   1.000  C
  H152     1.0000 0.99108  0.26351  0.88940  Biso   1.000  H
  N18      1.0000 0.14151  0.88050  0.05630  Biso   1.000  N
  H153     1.0000 0.22958  0.87131  0.04771  Biso   1.000  H
  H154     1.0000 0.05361  0.87028  0.06040  Biso   1.000  H
  B12      1.0000 0.85549  0.55338  0.07799  Biso   1.000  B
  H155     1.0000 0.74240  0.21398  0.84479  Biso   1.000  H
  H156     1.0000 0.84249  0.18270  0.84479  Biso   1.000  H
  H157     1.0000 0.83729  0.19682  0.84300  Biso   1.000  H
  H158     1.0000 0.94169  0.19381  0.84901  Biso   1.000  H
  B13      1.0000 0.14451  0.94662  0.07799  Biso   1.000  B
  O35      1.0000 0.79830  0.55150  0.10040  Biso   1.000  O
  O36      1.0000 0.90448  0.55329  0.10810  Biso   1.000  O
  N19      1.0000 0.85849  0.61950  0.05630  Biso   1.000  N
  O37      1.0000 0.20170  0.94850  0.10040  Biso   1.000  O
  O38      1.0000 0.09552  0.94671  0.10810  Biso   1.000  O
  C211     1.0000 0.13958  0.99422  0.04331  Biso   1.000  C
  C212     1.0000 0.81340  0.56221  0.14000  Biso   1.000  C
  C213     1.0000 0.87732  0.56441  0.14451  Biso   1.000  C
  C214     1.0000 0.80829  0.64572  0.04140  Biso   1.000  C
  C215     1.0000 0.91130  0.64621  0.04881  Biso   1.000  C
  C216     1.0000 0.18660  0.93779  0.14000  Biso   1.000  C
  C217     1.0000 0.12268  0.93559  0.14451  Biso   1.000  C
  C218     1.0000 0.19041  0.00690  0.02060  Biso   1.000  C
  C219     1.0000 0.08669  0.02322  0.03171  Biso   1.000  C
  C220     1.0000 0.77638  0.57060  0.17219  Biso   1.000  C
  C221     1.0000 0.90300  0.57441  0.18089  Biso   1.000  C
  H159     1.0000 0.77042  0.62869  0.04771  Biso   1.000  H
  C222     1.0000 0.81000  0.69561  0.01760  Biso   1.000  C
  C223     1.0000 0.91712  0.69601  0.02500  Biso   1.000  C
  H160     1.0000 0.94639  0.62972  0.06040  Biso   1.000  H
  C224     1.0000 0.22362  0.92940  0.17219  Biso   1.000  C
  C225     1.0000 0.09700  0.92559  0.18089  Biso   1.000  C
  H161     1.0000 0.22752  0.98902  0.02749  Biso   1.000  H
  C226     1.0000 0.18781  0.04532  0.98781  Biso   1.000  C
  C227     1.0000 0.08319  0.06051  0.99839  Biso   1.000  C
  H162     1.0000 0.05150  0.01730  0.04711  Biso   1.000  H
  C228     1.0000 0.80202  0.58149  0.20949  Biso   1.000  C
  H163     1.0000 0.73411  0.56912  0.16921  Biso   1.000  H
  H164     1.0000 0.94518  0.57539  0.18449  Biso   1.000  H
  C229     1.0000 0.86239  0.58310  0.21279  Biso   1.000  C
  H165     1.0000 0.77400  0.71152  0.00690  Biso   1.000  H
  C230     1.0000 0.86459  0.72268  0.00930  Biso   1.000  C
  H166     1.0000 0.95558  0.71219  0.01929  Biso   1.000  H
  C231     1.0000 0.19798  0.91851  0.20949  Biso   1.000  C
  H167     1.0000 0.26589  0.93088  0.16921  Biso   1.000  H
  H168     1.0000 0.05482  0.92461  0.18449  Biso   1.000  H
  C232     1.0000 0.13761  0.91690  0.21279  Biso   1.000  C
  H169     1.0000 0.22340  0.05361  0.97340  Biso   1.000  H
  C233     1.0000 0.13330  0.07221  0.97551  Biso   1.000  C
  H170     1.0000 0.04590  0.07799  0.99141  Biso   1.000  H
  H171     1.0000 0.77732  0.58758  0.23220  Biso   1.000  H
  H172     1.0000 0.87889  0.59072  0.23829  Biso   1.000  H
  C234     1.0000 0.86961  0.77539  0.98270  Biso   1.000  C
  H173     1.0000 0.22268  0.91242  0.23220  Biso   1.000  H
  H174     1.0000 0.12111  0.90928  0.23829  Biso   1.000  H
  B14      1.0000 0.13012  0.11009  0.93500  Biso   1.000  B
  N20      1.0000 0.82322  0.78749  0.95880  Biso   1.000  N
  H175     1.0000 0.90448  0.79982  0.98261  Biso   1.000  H
  N21      1.0000 0.12192  0.06190  0.89841  Biso   1.000  N
  O39      1.0000 0.21089  0.13151  0.92489  Biso   1.000  O
  O40      1.0000 0.10919  0.16598  0.92730  Biso   1.000  O
  O41      1.0000 0.17172  0.14379  0.92611  Biso   1.000  O
  O42      1.0000 0.06692  0.14962  0.93241  Biso   1.000  O
  C235     1.0000 0.82541  0.83841  0.93809  Biso   1.000  C
  C236     1.0000 0.16701  0.02972  0.88179  Biso   1.000  C
  C237     1.0000 0.06589  0.05020  0.88690  Biso   1.000  C
  C238     1.0000 0.20269  0.18212  0.90269  Biso   1.000  C
  C239     1.0000 0.14330  0.20072  0.90269  Biso   1.000  C
  C240     1.0000 0.14608  0.19041  0.90379  Biso   1.000  C
  C241     1.0000 0.08400  0.19220  0.90741  Biso   1.000  C
  H176     1.0000 0.82528  0.87212  0.95729  Biso   1.000  H
  H177     1.0000 0.86432  0.83971  0.92391  Biso   1.000  H
  C242     1.0000 0.77629  0.84962  0.90810  Biso   1.000  C
  C243     1.0000 0.15621  0.98588  0.85409  Biso   1.000  C
  H178     1.0000 0.20722  0.03779  0.88949  Biso   1.000  H
  H179     1.0000 0.03389  0.07230  0.89841  Biso   1.000  H
  C244     1.0000 0.05280  0.00601  0.85831  Biso   1.000  C
  C245     1.0000 0.24532  0.21390  0.88111  Biso   1.000  C
  C246     1.0000 0.17539  0.23169  0.87980  Biso   1.000  C
  C247     1.0000 0.12640  0.25110  0.88111  Biso   1.000  C
  C248     1.0000 0.05132  0.23532  0.88699  Biso   1.000  C
  C249     1.0000 0.76410  0.90619  0.89591  Biso   1.000  C
  C250     1.0000 0.74402  0.80278  0.89169  Biso   1.000  C
  C251     1.0000 0.09960  0.97369  0.84190  Biso   1.000  C
  H180     1.0000 0.18870  0.96369  0.84339  Biso   1.000  H
  H181     1.0000 0.01260  0.99839  0.85049  Biso   1.000  H
  H182     1.0000 0.28602  0.20112  0.88111  Biso   1.000  H
  C252     1.0000 0.22851  0.26432  0.85959  Biso   1.000  C
  H183     1.0000 0.21779  0.23048  0.87739  Biso   1.000  H
  C253     1.0000 0.16898  0.28288  0.85959  Biso   1.000  C
  C254     1.0000 0.14272  0.27490  0.85941  Biso   1.000  C
  H184     1.0000 0.08579  0.26392  0.88111  Biso   1.000  H
  C255     1.0000 0.08059  0.27669  0.86301  Biso   1.000  C
  H185     1.0000 0.00892  0.23649  0.88940  Biso   1.000  H
  H186     1.0000 0.78628  0.93868  0.90661  Biso   1.000  H
  C256     1.0000 0.72030  0.91699  0.86821  Biso   1.000  C
  C257     1.0000 0.69982  0.81591  0.86310  Biso   1.000  C
  H187     1.0000 0.75159  0.76262  0.89951  Biso   1.000  H
  C258     1.0000 0.08839  0.92461  0.81191  Biso   1.000  C
  H188     1.0000 0.25760  0.28602  0.84479  Biso   1.000  H
  H189     1.0000 0.15751  0.31730  0.84479  Biso   1.000  H
  H190     1.0000 0.16271  0.30318  0.84300  Biso   1.000  H
  H191     1.0000 0.05831  0.30619  0.84901  Biso   1.000  H
  N22      1.0000 0.68812  0.87190  0.85159  Biso   1.000  N
  H192     1.0000 0.71219  0.95719  0.86051  Biso   1.000  H
  H193     1.0000 0.67768  0.78391  0.85159  Biso   1.000  H
  N23      1.0000 0.03752  0.92680  0.79120  Biso   1.000  N
  H194     1.0000 0.12210  0.92470  0.79271  Biso   1.000  H
  H195     1.0000 0.08969  0.88570  0.82609  Biso   1.000  H
  B15      1.0000 0.63989  0.88010  0.81500  Biso   1.000  B
  C259     1.0000 0.02541  0.88041  0.76730  Biso   1.000  C
  C260     1.0000 0.67781  0.88328  0.77449  Biso   1.000  C
  O43      1.0000 0.61851  0.96091  0.82511  Biso   1.000  O
  O44      1.0000 0.58400  0.85921  0.82270  Biso   1.000  O
  O45      1.0000 0.60619  0.92169  0.82389  Biso   1.000  O
  O46      1.0000 0.60040  0.81690  0.81759  Biso   1.000  O
  H196     1.0000 0.04980  0.84550  0.76739  Biso   1.000  H
  C261     1.0000 0.97270  0.88539  0.74070  Biso   1.000  C
  C262     1.0000 0.70471  0.93779  0.76219  Biso   1.000  C
  C263     1.0000 0.68951  0.83321  0.75161  Biso   1.000  C
  C264     1.0000 0.56791  0.95271  0.84731  Biso   1.000  C
  C265     1.0000 0.54931  0.89332  0.84731  Biso   1.000  C
  C266     1.0000 0.55961  0.89610  0.84621  Biso   1.000  C
  C267     1.0000 0.55782  0.83402  0.84259  Biso   1.000  C
  C268     1.0000 0.94558  0.93998  0.73240  Biso   1.000  C
  C269     1.0000 0.94599  0.83290  0.72500  Biso   1.000  C
  C270     1.0000 0.74312  0.94039  0.72940  Biso   1.000  C
  H197     1.0000 0.69641  0.97342  0.77660  Biso   1.000  H
  H198     1.0000 0.67199  0.79592  0.75859  Biso   1.000  H
  C271     1.0000 0.72680  0.83671  0.71829  Biso   1.000  C
  C272     1.0000 0.53608  0.99529  0.86889  Biso   1.000  C
  C273     1.0000 0.51829  0.92541  0.87020  Biso   1.000  C
  C274     1.0000 0.49888  0.87638  0.86889  Biso   1.000  C
  C275     1.0000 0.51470  0.80130  0.86301  Biso   1.000  C
  C276     1.0000 0.89570  0.94169  0.70860  Biso   1.000  C
  H199     1.0000 0.96150  0.97602  0.74310  Biso   1.000  H
  H200     1.0000 0.96221  0.79440  0.73071  Biso   1.000  H
  C277     1.0000 0.89619  0.83868  0.70119  Biso   1.000  C
  C278     1.0000 0.75580  0.88960  0.70669  Biso   1.000  C
  H201     1.0000 0.76100  0.97750  0.72251  Biso   1.000  H
  H202     1.0000 0.73272  0.80148  0.70289  Biso   1.000  H
  C279     1.0000 0.48570  0.97848  0.89041  Biso   1.000  C
  H203     1.0000 0.51950  0.96782  0.87261  Biso   1.000  H
  H204     1.0000 0.54890  0.03599  0.86889  Biso   1.000  H
  C280     1.0000 0.46710  0.91900  0.89041  Biso   1.000  C
  C281     1.0000 0.47508  0.89269  0.89059  Biso   1.000  C
  H205     1.0000 0.48610  0.83581  0.86889  Biso   1.000  H
  C282     1.0000 0.47329  0.83061  0.88699  Biso   1.000  C
  H206     1.0000 0.51349  0.75890  0.86060  Biso   1.000  H
  N24      1.0000 0.86952  0.89148  0.69370  Biso   1.000  N
  H207     1.0000 0.87871  0.97961  0.70229  Biso   1.000  H
  H208     1.0000 0.87970  0.80359  0.68960  Biso   1.000  H
  B16      1.0000 0.80341  0.89449  0.67201  Biso   1.000  B
  H209     1.0000 0.46401  0.00762  0.90521  Biso   1.000  H
  H210     1.0000 0.43272  0.90749  0.90521  Biso   1.000  H
  H211     1.0000 0.44680  0.91268  0.90700  Biso   1.000  H
  H212     1.0000 0.44379  0.80829  0.90099  Biso   1.000  H
  O47      1.0000 0.80148  0.95168  0.64960  Biso   1.000  O
  O48      1.0000 0.80332  0.84550  0.64190  Biso   1.000  O
  C283     1.0000 0.81219  0.93662  0.61000  Biso   1.000  C
  C284     1.0000 0.81439  0.87270  0.60549  Biso   1.000  C
  C285     1.0000 0.82062  0.97360  0.57781  Biso   1.000  C
  C286     1.0000 0.82438  0.84702  0.56911  Biso   1.000  C
  C287     1.0000 0.83151  0.94801  0.54051  Biso   1.000  C
  H213     1.0000 0.81909  0.01591  0.58079  Biso   1.000  H
  H214     1.0000 0.82541  0.80480  0.56551  Biso   1.000  H
  C288     1.0000 0.83308  0.88758  0.53721  Biso   1.000  C
  H215     1.0000 0.83761  0.97270  0.51780  Biso   1.000  H
  H216     1.0000 0.84070  0.87109  0.51171  Biso   1.000  H
  C289     1.0000 0.16849  0.55199  0.54051  Biso   1.000  C
  C290     1.0000 0.16692  0.61242  0.53721  Biso   1.000  C
  H217     1.0000 0.16239  0.52730  0.51780  Biso   1.000  H
  C291     1.0000 0.17938  0.52640  0.57781  Biso   1.000  C
  C292     1.0000 0.17562  0.65298  0.56911  Biso   1.000  C
  H218     1.0000 0.15930  0.62891  0.51171  Biso   1.000  H
  C293     1.0000 0.18781  0.56338  0.61000  Biso   1.000  C
  H219     1.0000 0.18091  0.48409  0.58079  Biso   1.000  H
  C294     1.0000 0.18561  0.62730  0.60549  Biso   1.000  C
  H220     1.0000 0.17459  0.69520  0.56551  Biso   1.000  H
  O49      1.0000 0.19852  0.54832  0.64960  Biso   1.000  O
  O50      1.0000 0.19668  0.65450  0.64190  Biso   1.000  O
  B17      1.0000 0.19659  0.60551  0.67201  Biso   1.000  B
  N25      1.0000 0.13048  0.60852  0.69370  Biso   1.000  N
  C295     1.0000 0.24420  0.61040  0.70669  Biso   1.000  C
  C296     1.0000 0.10430  0.55831  0.70860  Biso   1.000  C
  C297     1.0000 0.10381  0.66132  0.70119  Biso   1.000  C
  C298     1.0000 0.25688  0.55961  0.72940  Biso   1.000  C
  C299     1.0000 0.27320  0.66329  0.71829  Biso   1.000  C
  H221     1.0000 0.12129  0.52039  0.70229  Biso   1.000  H
  C300     1.0000 0.05442  0.56002  0.73240  Biso   1.000  C
  C301     1.0000 0.05401  0.66710  0.72500  Biso   1.000  C
  H222     1.0000 0.12030  0.69641  0.68960  Biso   1.000  H
  H223     1.0000 0.23900  0.52250  0.72251  Biso   1.000  H
  C302     1.0000 0.29529  0.56221  0.76219  Biso   1.000  C
  C303     1.0000 0.31049  0.66679  0.75161  Biso   1.000  C
  H224     1.0000 0.26728  0.69852  0.70289  Biso   1.000  H
  H225     1.0000 0.03850  0.52398  0.74310  Biso   1.000  H
  C304     1.0000 0.02730  0.61461  0.74070  Biso   1.000  C
  H226     1.0000 0.03779  0.70560  0.73071  Biso   1.000  H
  H227     1.0000 0.30359  0.52658  0.77660  Biso   1.000  H
  C305     1.0000 0.32219  0.61672  0.77449  Biso   1.000  C
  H228     1.0000 0.32801  0.70408  0.75859  Biso   1.000  H
  C306     1.0000 0.97459  0.61959  0.76730  Biso   1.000  C
  B18      1.0000 0.36011  0.61990  0.81500  Biso   1.000  B
  N26      1.0000 0.96248  0.57320  0.79120  Biso   1.000  N
  H229     1.0000 0.95020  0.65450  0.76739  Biso   1.000  H
  N27      1.0000 0.31188  0.62810  0.85159  Biso   1.000  N
  O51      1.0000 0.38149  0.53909  0.82511  Biso   1.000  O
  O52      1.0000 0.41600  0.64079  0.82270  Biso   1.000  O
  O53      1.0000 0.39381  0.57831  0.82389  Biso   1.000  O
  O54      1.0000 0.39960  0.68310  0.81759  Biso   1.000  O
  C307     1.0000 0.91161  0.57539  0.81191  Biso   1.000  C
  C308     1.0000 0.27970  0.58301  0.86821  Biso   1.000  C
  C309     1.0000 0.30018  0.68409  0.86310  Biso   1.000  C
  C310     1.0000 0.43209  0.54729  0.84731  Biso   1.000  C
  C311     1.0000 0.45069  0.60668  0.84731  Biso   1.000  C
  C312     1.0000 0.44039  0.60390  0.84621  Biso   1.000  C
  C313     1.0000 0.44218  0.66598  0.84259  Biso   1.000  C
  H230     1.0000 0.87790  0.57530  0.79271  Biso   1.000  H
  H231     1.0000 0.91031  0.61430  0.82609  Biso   1.000  H
  C314     1.0000 0.90040  0.52631  0.84190  Biso   1.000  C
  C315     1.0000 0.23590  0.59381  0.89591  Biso   1.000  C
  H232     1.0000 0.28781  0.54281  0.86051  Biso   1.000  H
  H233     1.0000 0.32232  0.71609  0.85159  Biso   1.000  H
  C316     1.0000 0.25598  0.69722  0.89169  Biso   1.000  C
  C317     1.0000 0.46392  0.50471  0.86889  Biso   1.000  C
  C318     1.0000 0.48171  0.57459  0.87020  Biso   1.000  C
  C319     1.0000 0.50112  0.62362  0.86889  Biso   1.000  C
  C320     1.0000 0.48530  0.69870  0.86301  Biso   1.000  C
  C321     1.0000 0.84379  0.51412  0.85409  Biso   1.000  C
  C322     1.0000 0.94720  0.49399  0.85831  Biso   1.000  C
  C323     1.0000 0.22371  0.65038  0.90810  Biso   1.000  C
  H234     1.0000 0.21372  0.56132  0.90661  Biso   1.000  H
  H235     1.0000 0.24841  0.73738  0.89951  Biso   1.000  H
  H236     1.0000 0.45110  0.46401  0.86889  Biso   1.000  H
  C324     1.0000 0.51430  0.52152  0.89041  Biso   1.000  C
  H237     1.0000 0.48050  0.53218  0.87261  Biso   1.000  H
  C325     1.0000 0.53290  0.58100  0.89041  Biso   1.000  C
  C326     1.0000 0.52492  0.60731  0.89059  Biso   1.000  C
  H238     1.0000 0.51390  0.66419  0.86889  Biso   1.000  H
  C327     1.0000 0.52671  0.66939  0.88699  Biso   1.000  C
  H239     1.0000 0.48651  0.74110  0.86060  Biso   1.000  H
  H240     1.0000 0.81130  0.53631  0.84339  Biso   1.000  H
  C328     1.0000 0.83299  0.47028  0.88179  Biso   1.000  C
  C329     1.0000 0.93411  0.44980  0.88690  Biso   1.000  C
  H241     1.0000 0.98740  0.50161  0.85049  Biso   1.000  H
  C330     1.0000 0.17459  0.66159  0.93809  Biso   1.000  C
  H242     1.0000 0.53599  0.49238  0.90521  Biso   1.000  H
  H243     1.0000 0.56728  0.59251  0.90521  Biso   1.000  H
  H244     1.0000 0.55320  0.58732  0.90700  Biso   1.000  H
  H245     1.0000 0.55621  0.69171  0.90099  Biso   1.000  H
  N28      1.0000 0.87808  0.43810  0.89841  Biso   1.000  N
  H246     1.0000 0.79278  0.46221  0.88949  Biso   1.000  H
  H247     1.0000 0.96611  0.42770  0.89841  Biso   1.000  H
  N29      1.0000 0.17678  0.71251  0.95880  Biso   1.000  N
  H248     1.0000 0.17472  0.62788  0.95729  Biso   1.000  H
  H249     1.0000 0.13568  0.66029  0.92391  Biso   1.000  H
  B19      1.0000 0.86988  0.38991  0.93500  Biso   1.000  B
  C331     1.0000 0.13039  0.72461  0.98270  Biso   1.000  C
  C332     1.0000 0.86670  0.42779  0.97551  Biso   1.000  C
  O55      1.0000 0.78911  0.36849  0.92489  Biso   1.000  O
  O56      1.0000 0.89081  0.33402  0.92730  Biso   1.000  O
  O57      1.0000 0.82828  0.35621  0.92611  Biso   1.000  O
  O58      1.0000 0.93308  0.35038  0.93241  Biso   1.000  O
  H250     1.0000 0.09552  0.70018  0.98261  Biso   1.000  H
  C333     1.0000 0.13541  0.77732  0.00930  Biso   1.000  C
  C334     1.0000 0.81219  0.45468  0.98781  Biso   1.000  C
  C335     1.0000 0.91681  0.43949  0.99839  Biso   1.000  C
  C336     1.0000 0.79731  0.31788  0.90269  Biso   1.000  C
  C337     1.0000 0.85670  0.29928  0.90269  Biso   1.000  C
  C338     1.0000 0.85392  0.30959  0.90379  Biso   1.000  C
  C339     1.0000 0.91600  0.30780  0.90741  Biso   1.000  C
  C340     1.0000 0.19000  0.80439  0.01760  Biso   1.000  C
  C341     1.0000 0.08288  0.80399  0.02500  Biso   1.000  C
  H251     1.0000 0.77660  0.44639  0.97340  Biso   1.000  H
  C342     1.0000 0.80959  0.49310  0.02060  Biso   1.000  C
  H252     1.0000 0.95410  0.42201  0.99141  Biso   1.000  H
  C343     1.0000 0.91331  0.47678  0.03171  Biso   1.000  C
  C344     1.0000 0.75468  0.28610  0.88111  Biso   1.000  C
  C345     1.0000 0.82461  0.26831  0.87980  Biso   1.000  C
  C346     1.0000 0.87360  0.24890  0.88111  Biso   1.000  C
  C347     1.0000 0.94868  0.26468  0.88699  Biso   1.000  C
  C348     1.0000 0.19171  0.85428  0.04140  Biso   1.000  C
  H253     1.0000 0.22600  0.78848  0.00690  Biso   1.000  H
  H254     1.0000 0.04442  0.78781  0.01929  Biso   1.000  H
  C349     1.0000 0.08870  0.85379  0.04881  Biso   1.000  C
  C350     1.0000 0.86042  0.50578  0.04331  Biso   1.000  C
  H255     1.0000 0.77248  0.51098  0.02749  Biso   1.000  H
  H256     1.0000 0.94850  0.48270  0.04711  Biso   1.000  H
  H257     1.0000 0.71398  0.29888  0.88111  Biso   1.000  H
  C351     1.0000 0.77149  0.23568  0.85959  Biso   1.000  C
  H258     1.0000 0.78221  0.26952  0.87739  Biso   1.000  H
  C352     1.0000 0.83102  0.21712  0.85959  Biso   1.000  C
  C353     1.0000 0.85728  0.22510  0.85941  Biso   1.000  C
  H259     1.0000 0.91421  0.23608  0.88111  Biso   1.000  H
  C354     1.0000 0.91941  0.22331  0.86301  Biso   1.000  C
  H260     1.0000 0.99108  0.26351  0.88940  Biso   1.000  H
  N30      1.0000 0.14151  0.88050  0.05630  Biso   1.000  N
  H261     1.0000 0.22958  0.87131  0.04771  Biso   1.000  H
  H262     1.0000 0.05361  0.87028  0.06040  Biso   1.000  H
  B20      1.0000 0.85549  0.55338  0.07799  Biso   1.000  B
  H263     1.0000 0.74240  0.21398  0.84479  Biso   1.000  H
  H264     1.0000 0.84249  0.18270  0.84479  Biso   1.000  H
  H265     1.0000 0.83729  0.19682  0.84300  Biso   1.000  H
  H266     1.0000 0.94169  0.19381  0.84901  Biso   1.000  H
  B21      1.0000 0.14451  0.94662  0.07799  Biso   1.000  B
  O59      1.0000 0.79830  0.55150  0.10040  Biso   1.000  O
  O60      1.0000 0.90448  0.55329  0.10810  Biso   1.000  O
  N31      1.0000 0.85849  0.61950  0.05630  Biso   1.000  N
  O61      1.0000 0.20170  0.94850  0.10040  Biso   1.000  O
  O62      1.0000 0.09552  0.94671  0.10810  Biso   1.000  O
  C355     1.0000 0.13958  0.99422  0.04331  Biso   1.000  C
  C356     1.0000 0.81340  0.56221  0.14000  Biso   1.000  C
  C357     1.0000 0.87732  0.56441  0.14451  Biso   1.000  C
  C358     1.0000 0.80829  0.64572  0.04140  Biso   1.000  C
  C359     1.0000 0.91130  0.64621  0.04881  Biso   1.000  C
  C360     1.0000 0.18660  0.93779  0.14000  Biso   1.000  C
  C361     1.0000 0.12268  0.93559  0.14451  Biso   1.000  C
  C362     1.0000 0.19041  0.00690  0.02060  Biso   1.000  C
  C363     1.0000 0.08669  0.02322  0.03171  Biso   1.000  C
  C364     1.0000 0.77638  0.57060  0.17219  Biso   1.000  C
  C365     1.0000 0.90300  0.57441  0.18089  Biso   1.000  C
  H267     1.0000 0.77042  0.62869  0.04771  Biso   1.000  H
  C366     1.0000 0.81000  0.69561  0.01760  Biso   1.000  C
  C367     1.0000 0.91712  0.69601  0.02500  Biso   1.000  C
  H268     1.0000 0.94639  0.62972  0.06040  Biso   1.000  H
  C368     1.0000 0.22362  0.92940  0.17219  Biso   1.000  C
  C369     1.0000 0.09700  0.92559  0.18089  Biso   1.000  C
  H269     1.0000 0.22752  0.98902  0.02749  Biso   1.000  H
  C370     1.0000 0.18781  0.04532  0.98781  Biso   1.000  C
  C371     1.0000 0.08319  0.06051  0.99839  Biso   1.000  C
  H270     1.0000 0.05150  0.01730  0.04711  Biso   1.000  H
  C372     1.0000 0.80202  0.58149  0.20949  Biso   1.000  C
  H271     1.0000 0.73411  0.56912  0.16921  Biso   1.000  H
  H272     1.0000 0.94518  0.57539  0.18449  Biso   1.000  H
  C373     1.0000 0.86239  0.58310  0.21279  Biso   1.000  C
  H273     1.0000 0.77400  0.71152  0.00690  Biso   1.000  H
  C374     1.0000 0.86459  0.72268  0.00930  Biso   1.000  C
  H274     1.0000 0.95558  0.71219  0.01929  Biso   1.000  H
  C375     1.0000 0.19798  0.91851  0.20949  Biso   1.000  C
  H275     1.0000 0.26589  0.93088  0.16921  Biso   1.000  H
  H276     1.0000 0.05482  0.92461  0.18449  Biso   1.000  H
  C376     1.0000 0.13761  0.91690  0.21279  Biso   1.000  C
  H277     1.0000 0.22340  0.05361  0.97340  Biso   1.000  H
  C377     1.0000 0.13330  0.07221  0.97551  Biso   1.000  C
  H278     1.0000 0.04590  0.07799  0.99141  Biso   1.000  H
  H279     1.0000 0.77732  0.58758  0.23220  Biso   1.000  H
  H280     1.0000 0.87889  0.59072  0.23829  Biso   1.000  H
  C378     1.0000 0.86961  0.77539  0.98270  Biso   1.000  C
  H281     1.0000 0.22268  0.91242  0.23220  Biso   1.000  H
  H282     1.0000 0.12111  0.90928  0.23829  Biso   1.000  H
  B22      1.0000 0.13012  0.11009  0.93500  Biso   1.000  B
  N32      1.0000 0.82322  0.78749  0.95880  Biso   1.000  N
  H283     1.0000 0.90448  0.79982  0.98261  Biso   1.000  H
  N33      1.0000 0.12192  0.06190  0.89841  Biso   1.000  N
  O63      1.0000 0.21089  0.13151  0.92489  Biso   1.000  O
  O64      1.0000 0.10919  0.16598  0.92730  Biso   1.000  O
  O65      1.0000 0.17172  0.14379  0.92611  Biso   1.000  O
  O66      1.0000 0.06692  0.14962  0.93241  Biso   1.000  O
  C379     1.0000 0.82541  0.83841  0.93809  Biso   1.000  C
  C380     1.0000 0.16701  0.02972  0.88179  Biso   1.000  C
  C381     1.0000 0.06589  0.05020  0.88690  Biso   1.000  C
  C382     1.0000 0.20269  0.18212  0.90269  Biso   1.000  C
  C383     1.0000 0.14330  0.20072  0.90269  Biso   1.000  C
  C384     1.0000 0.14608  0.19041  0.90379  Biso   1.000  C
  C385     1.0000 0.08400  0.19220  0.90741  Biso   1.000  C
  H284     1.0000 0.82528  0.87212  0.95729  Biso   1.000  H
  H285     1.0000 0.86432  0.83971  0.92391  Biso   1.000  H
  C386     1.0000 0.77629  0.84962  0.90810  Biso   1.000  C
  C387     1.0000 0.15621  0.98588  0.85409  Biso   1.000  C
  H286     1.0000 0.20722  0.03779  0.88949  Biso   1.000  H
  H287     1.0000 0.03389  0.07230  0.89841  Biso   1.000  H
  C388     1.0000 0.05280  0.00601  0.85831  Biso   1.000  C
  C389     1.0000 0.24532  0.21390  0.88111  Biso   1.000  C
  C390     1.0000 0.17539  0.23169  0.87980  Biso   1.000  C
  C391     1.0000 0.12640  0.25110  0.88111  Biso   1.000  C
  C392     1.0000 0.05132  0.23532  0.88699  Biso   1.000  C
  C393     1.0000 0.76410  0.90619  0.89591  Biso   1.000  C
  C394     1.0000 0.74402  0.80278  0.89169  Biso   1.000  C
  C395     1.0000 0.09960  0.97369  0.84190  Biso   1.000  C
  H288     1.0000 0.18870  0.96369  0.84339  Biso   1.000  H
  H289     1.0000 0.01260  0.99839  0.85049  Biso   1.000  H
  H290     1.0000 0.28602  0.20112  0.88111  Biso   1.000  H
  C396     1.0000 0.22851  0.26432  0.85959  Biso   1.000  C
  H291     1.0000 0.21779  0.23048  0.87739  Biso   1.000  H
  C397     1.0000 0.16898  0.28288  0.85959  Biso   1.000  C
  C398     1.0000 0.14272  0.27490  0.85941  Biso   1.000  C
  H292     1.0000 0.08579  0.26392  0.88111  Biso   1.000  H
  C399     1.0000 0.08059  0.27669  0.86301  Biso   1.000  C
  H293     1.0000 0.00892  0.23649  0.88940  Biso   1.000  H
  H294     1.0000 0.78628  0.93868  0.90661  Biso   1.000  H
  C400     1.0000 0.72030  0.91699  0.86821  Biso   1.000  C
  C401     1.0000 0.69982  0.81591  0.86310  Biso   1.000  C
  H295     1.0000 0.75159  0.76262  0.89951  Biso   1.000  H
  C402     1.0000 0.08839  0.92461  0.81191  Biso   1.000  C
  H296     1.0000 0.25760  0.28602  0.84479  Biso   1.000  H
  H297     1.0000 0.15751  0.31730  0.84479  Biso   1.000  H
  H298     1.0000 0.16271  0.30318  0.84300  Biso   1.000  H
  H299     1.0000 0.05831  0.30619  0.84901  Biso   1.000  H
  N34      1.0000 0.68812  0.87190  0.85159  Biso   1.000  N
  H300     1.0000 0.71219  0.95719  0.86051  Biso   1.000  H
  H301     1.0000 0.67768  0.78391  0.85159  Biso   1.000  H
  N35      1.0000 0.03752  0.92680  0.79120  Biso   1.000  N
  H302     1.0000 0.12210  0.92470  0.79271  Biso   1.000  H
  H303     1.0000 0.08969  0.88570  0.82609  Biso   1.000  H
  B23      1.0000 0.63989  0.88010  0.81500  Biso   1.000  B
  C403     1.0000 0.02541  0.88041  0.76730  Biso   1.000  C
  C404     1.0000 0.67781  0.88328  0.77449  Biso   1.000  C
  O67      1.0000 0.61851  0.96091  0.82511  Biso   1.000  O
  O68      1.0000 0.58400  0.85921  0.82270  Biso   1.000  O
  O69      1.0000 0.60619  0.92169  0.82389  Biso   1.000  O
  O70      1.0000 0.60040  0.81690  0.81759  Biso   1.000  O
  H304     1.0000 0.04980  0.84550  0.76739  Biso   1.000  H
  C405     1.0000 0.97270  0.88539  0.74070  Biso   1.000  C
  C406     1.0000 0.70471  0.93779  0.76219  Biso   1.000  C
  C407     1.0000 0.68951  0.83321  0.75161  Biso   1.000  C
  C408     1.0000 0.56791  0.95271  0.84731  Biso   1.000  C
  C409     1.0000 0.54931  0.89332  0.84731  Biso   1.000  C
  C410     1.0000 0.55961  0.89610  0.84621  Biso   1.000  C
  C411     1.0000 0.55782  0.83402  0.84259  Biso   1.000  C
  C412     1.0000 0.94558  0.93998  0.73240  Biso   1.000  C
  C413     1.0000 0.94599  0.83290  0.72500  Biso   1.000  C
  C414     1.0000 0.74312  0.94039  0.72940  Biso   1.000  C
  H305     1.0000 0.69641  0.97342  0.77660  Biso   1.000  H
  H306     1.0000 0.67199  0.79592  0.75859  Biso   1.000  H
  C415     1.0000 0.72680  0.83671  0.71829  Biso   1.000  C
  C416     1.0000 0.53608  0.99529  0.86889  Biso   1.000  C
  C417     1.0000 0.51829  0.92541  0.87020  Biso   1.000  C
  C418     1.0000 0.49888  0.87638  0.86889  Biso   1.000  C
  C419     1.0000 0.51470  0.80130  0.86301  Biso   1.000  C
  C420     1.0000 0.89570  0.94169  0.70860  Biso   1.000  C
  H307     1.0000 0.96150  0.97602  0.74310  Biso   1.000  H
  H308     1.0000 0.96221  0.79440  0.73071  Biso   1.000  H
  C421     1.0000 0.89619  0.83868  0.70119  Biso   1.000  C
  C422     1.0000 0.75580  0.88960  0.70669  Biso   1.000  C
  H309     1.0000 0.76100  0.97750  0.72251  Biso   1.000  H
  H310     1.0000 0.73272  0.80148  0.70289  Biso   1.000  H
  C423     1.0000 0.48570  0.97848  0.89041  Biso   1.000  C
  H311     1.0000 0.51950  0.96782  0.87261  Biso   1.000  H
  H312     1.0000 0.54890  0.03599  0.86889  Biso   1.000  H
  C424     1.0000 0.46710  0.91900  0.89041  Biso   1.000  C
  C425     1.0000 0.47508  0.89269  0.89059  Biso   1.000  C
  H313     1.0000 0.48610  0.83581  0.86889  Biso   1.000  H
  C426     1.0000 0.47329  0.83061  0.88699  Biso   1.000  C
  H314     1.0000 0.51349  0.75890  0.86060  Biso   1.000  H
  N36      1.0000 0.86952  0.89148  0.69370  Biso   1.000  N
  H315     1.0000 0.87871  0.97961  0.70229  Biso   1.000  H
  H316     1.0000 0.87970  0.80359  0.68960  Biso   1.000  H
  B24      1.0000 0.80341  0.89449  0.67201  Biso   1.000  B
  H317     1.0000 0.46401  0.00762  0.90521  Biso   1.000  H
  H318     1.0000 0.43272  0.90749  0.90521  Biso   1.000  H
  H319     1.0000 0.44680  0.91268  0.90700  Biso   1.000  H
  H320     1.0000 0.44379  0.80829  0.90099  Biso   1.000  H
  O71      1.0000 0.80148  0.95168  0.64960  Biso   1.000  O
  O72      1.0000 0.80332  0.84550  0.64190  Biso   1.000  O
  C427     1.0000 0.81219  0.93662  0.61000  Biso   1.000  C
  C428     1.0000 0.81439  0.87270  0.60549  Biso   1.000  C
  C429     1.0000 0.82062  0.97360  0.57781  Biso   1.000  C
  C430     1.0000 0.82438  0.84702  0.56911  Biso   1.000  C
  C431     1.0000 0.83151  0.94801  0.54051  Biso   1.000  C
  H321     1.0000 0.81909  0.01591  0.58079  Biso   1.000  H
  H322     1.0000 0.82541  0.80480  0.56551  Biso   1.000  H
  C432     1.0000 0.83308  0.88758  0.53721  Biso   1.000  C
  H323     1.0000 0.83761  0.97270  0.51780  Biso   1.000  H
  H324     1.0000 0.84070  0.87109  0.51171  Biso   1.000  H
  C433     1.0000 0.26410  0.40619  0.39591  Biso   1.000  C
  C434     1.0000 0.22030  0.41699  0.36821  Biso   1.000  C
  C435     1.0000 0.27629  0.34962  0.40810  Biso   1.000  C
  H325     1.0000 0.28628  0.43868  0.40661  Biso   1.000  H
  N37      1.0000 0.18812  0.37190  0.35159  Biso   1.000  N
  H326     1.0000 0.21219  0.45719  0.36051  Biso   1.000  H
  C436     1.0000 0.24402  0.30278  0.39169  Biso   1.000  C
  C437     1.0000 0.32541  0.33841  0.43809  Biso   1.000  C
  B25      1.0000 0.13989  0.38010  0.31500  Biso   1.000  B
  C438     1.0000 0.19982  0.31591  0.36310  Biso   1.000  C
  H327     1.0000 0.25159  0.26262  0.39951  Biso   1.000  H
  N38      1.0000 0.32322  0.28749  0.45880  Biso   1.000  N
  H328     1.0000 0.32528  0.37212  0.45729  Biso   1.000  H
  H329     1.0000 0.36432  0.33971  0.42391  Biso   1.000  H
  C439     1.0000 0.17781  0.38328  0.27449  Biso   1.000  C
  O73      1.0000 0.11851  0.46091  0.32511  Biso   1.000  O
  O74      1.0000 0.08400  0.35921  0.32270  Biso   1.000  O
  O75      1.0000 0.10619  0.42169  0.32389  Biso   1.000  O
  O76      1.0000 0.10040  0.31690  0.31759  Biso   1.000  O
  H330     1.0000 0.17768  0.28391  0.35159  Biso   1.000  H
  C440     1.0000 0.36961  0.27539  0.48270  Biso   1.000  C
  C441     1.0000 0.18951  0.33321  0.25161  Biso   1.000  C
  C442     1.0000 0.20471  0.43779  0.26219  Biso   1.000  C
  C443     1.0000 0.06791  0.45271  0.34731  Biso   1.000  C
  C444     1.0000 0.04931  0.39332  0.34731  Biso   1.000  C
  C445     1.0000 0.05961  0.39610  0.34621  Biso   1.000  C
  C446     1.0000 0.05782  0.33402  0.34259  Biso   1.000  C
  C447     1.0000 0.36459  0.22268  0.50930  Biso   1.000  C
  H331     1.0000 0.40448  0.29982  0.48261  Biso   1.000  H
  C448     1.0000 0.22680  0.33671  0.21829  Biso   1.000  C
  H332     1.0000 0.17199  0.29592  0.25859  Biso   1.000  H
  C449     1.0000 0.24312  0.44039  0.22940  Biso   1.000  C
  H333     1.0000 0.19641  0.47342  0.27660  Biso   1.000  H
  C450     1.0000 0.03608  0.49529  0.36889  Biso   1.000  C
  C451     1.0000 0.01829  0.42541  0.37020  Biso   1.000  C
  C452     1.0000 0.99888  0.37638  0.36889  Biso   1.000  C
  C453     1.0000 0.01470  0.30130  0.36301  Biso   1.000  C
  C454     1.0000 0.31000  0.19561  0.51760  Biso   1.000  C
  C455     1.0000 0.41712  0.19601  0.52500  Biso   1.000  C
  C456     1.0000 0.25580  0.38960  0.20669  Biso   1.000  C
  H334     1.0000 0.23272  0.30148  0.20289  Biso   1.000  H
  H335     1.0000 0.26100  0.47750  0.22251  Biso   1.000  H
  H336     1.0000 0.04890  0.53599  0.36889  Biso   1.000  H
  H337     1.0000 0.01950  0.46782  0.37261  Biso   1.000  H
  C457     1.0000 0.98570  0.47848  0.39041  Biso   1.000  C
  C458     1.0000 0.96710  0.41900  0.39041  Biso   1.000  C
  C459     1.0000 0.97508  0.39269  0.39059  Biso   1.000  C
  H338     1.0000 0.98610  0.33581  0.36889  Biso   1.000  H
  C460     1.0000 0.97329  0.33061  0.38699  Biso   1.000  C
  H339     1.0000 0.01349  0.25890  0.36060  Biso   1.000  H
  C461     1.0000 0.30829  0.14572  0.54140  Biso   1.000  C
  H340     1.0000 0.27400  0.21152  0.50690  Biso   1.000  H
  H341     1.0000 0.45558  0.21219  0.51929  Biso   1.000  H
  C462     1.0000 0.41130  0.14621  0.54881  Biso   1.000  C
  B26      1.0000 0.30341  0.39449  0.17201  Biso   1.000  B
  H342     1.0000 0.96401  0.50762  0.40521  Biso   1.000  H
  H343     1.0000 0.93272  0.40749  0.40521  Biso   1.000  H
  H344     1.0000 0.94680  0.41268  0.40700  Biso   1.000  H
  H345     1.0000 0.94379  0.30829  0.40099  Biso   1.000  H
  N39      1.0000 0.35849  0.11950  0.55630  Biso   1.000  N
  H346     1.0000 0.27042  0.12869  0.54771  Biso   1.000  H
  H347     1.0000 0.44639  0.12972  0.56040  Biso   1.000  H
  O77      1.0000 0.30148  0.45168  0.14960  Biso   1.000  O
  O78      1.0000 0.30332  0.34550  0.14190  Biso   1.000  O
  N40      1.0000 0.36952  0.39148  0.19370  Biso   1.000  N
  B27      1.0000 0.35549  0.05338  0.57799  Biso   1.000  B
  C463     1.0000 0.31219  0.43662  0.11000  Biso   1.000  C
  C464     1.0000 0.31439  0.37270  0.10549  Biso   1.000  C
  C465     1.0000 0.39570  0.44169  0.20860  Biso   1.000  C
  C466     1.0000 0.39619  0.33868  0.20119  Biso   1.000  C
  O79      1.0000 0.29830  0.05150  0.60040  Biso   1.000  O
  O80      1.0000 0.40448  0.05329  0.60810  Biso   1.000  O
  C467     1.0000 0.36042  0.00578  0.54331  Biso   1.000  C
  C468     1.0000 0.32062  0.47360  0.07781  Biso   1.000  C
  C469     1.0000 0.32438  0.34702  0.06911  Biso   1.000  C
  H348     1.0000 0.37871  0.47961  0.20229  Biso   1.000  H
  C470     1.0000 0.44558  0.43998  0.23240  Biso   1.000  C
  C471     1.0000 0.44599  0.33290  0.22500  Biso   1.000  C
  H349     1.0000 0.37970  0.30359  0.18960  Biso   1.000  H
  C472     1.0000 0.31340  0.06221  0.64000  Biso   1.000  C
  C473     1.0000 0.37732  0.06441  0.64451  Biso   1.000  C
  C474     1.0000 0.30959  0.99310  0.52060  Biso   1.000  C
  C475     1.0000 0.41331  0.97678  0.53171  Biso   1.000  C
  C476     1.0000 0.33151  0.44801  0.04051  Biso   1.000  C
  H350     1.0000 0.31909  0.51591  0.08079  Biso   1.000  H
  H351     1.0000 0.32541  0.30480  0.06551  Biso   1.000  H
  C477     1.0000 0.33308  0.38758  0.03721  Biso   1.000  C
  H352     1.0000 0.46150  0.47602  0.24310  Biso   1.000  H
  C478     1.0000 0.47270  0.38539  0.24070  Biso   1.000  C
  H353     1.0000 0.46221  0.29440  0.23071  Biso   1.000  H
  C479     1.0000 0.27638  0.07060  0.67219  Biso   1.000  C
  C480     1.0000 0.40300  0.07441  0.68089  Biso   1.000  C
  H354     1.0000 0.27248  0.01098  0.52749  Biso   1.000  H
  C481     1.0000 0.31219  0.95468  0.48781  Biso   1.000  C
  C482     1.0000 0.41681  0.93949  0.49839  Biso   1.000  C
  H355     1.0000 0.44850  0.98270  0.54711  Biso   1.000  H
  H356     1.0000 0.33761  0.47270  0.01780  Biso   1.000  H
  H357     1.0000 0.34070  0.37109  0.01171  Biso   1.000  H
  C483     1.0000 0.52541  0.38041  0.26730  Biso   1.000  C
  C484     1.0000 0.30202  0.08149  0.70949  Biso   1.000  C
  H358     1.0000 0.23411  0.06912  0.66921  Biso   1.000  H
  H359     1.0000 0.44518  0.07539  0.68449  Biso   1.000  H
  C485     1.0000 0.36239  0.08310  0.71279  Biso   1.000  C
  H360     1.0000 0.27660  0.94639  0.47340  Biso   1.000  H
  C486     1.0000 0.36670  0.92779  0.47551  Biso   1.000  C
  H361     1.0000 0.45410  0.92201  0.49141  Biso   1.000  H
  N41      1.0000 0.53752  0.42680  0.29120  Biso   1.000  N
  H362     1.0000 0.54980  0.34550  0.26739  Biso   1.000  H
  H363     1.0000 0.27732  0.08758  0.73220  Biso   1.000  H
  H364     1.0000 0.37889  0.09072  0.73829  Biso   1.000  H
  B28      1.0000 0.36988  0.88991  0.43500  Biso   1.000  B
  C487     1.0000 0.58839  0.42461  0.31191  Biso   1.000  C
  N42      1.0000 0.37808  0.93810  0.39841  Biso   1.000  N
  O81      1.0000 0.28911  0.86849  0.42489  Biso   1.000  O
  O82      1.0000 0.39081  0.83402  0.42730  Biso   1.000  O
  O83      1.0000 0.32828  0.85621  0.42611  Biso   1.000  O
  O84      1.0000 0.43308  0.85038  0.43241  Biso   1.000  O
  H365     1.0000 0.62210  0.42470  0.29271  Biso   1.000  H
  H366     1.0000 0.58969  0.38570  0.32609  Biso   1.000  H
  C488     1.0000 0.59960  0.47369  0.34190  Biso   1.000  C
  C489     1.0000 0.33299  0.97028  0.38179  Biso   1.000  C
  C490     1.0000 0.43411  0.94980  0.38690  Biso   1.000  C
  C491     1.0000 0.29731  0.81788  0.40269  Biso   1.000  C
  C492     1.0000 0.35670  0.79928  0.40269  Biso   1.000  C
  C493     1.0000 0.35392  0.80959  0.40379  Biso   1.000  C
  C494     1.0000 0.41600  0.80780  0.40741  Biso   1.000  C
  C495     1.0000 0.65621  0.48588  0.35409  Biso   1.000  C
  C496     1.0000 0.55280  0.50601  0.35831  Biso   1.000  C
  C497     1.0000 0.34379  0.01412  0.35409  Biso   1.000  C
  H367     1.0000 0.29278  0.96221  0.38949  Biso   1.000  H
  H368     1.0000 0.46611  0.92770  0.39841  Biso   1.000  H
  C498     1.0000 0.44720  0.99399  0.35831  Biso   1.000  C
  C499     1.0000 0.25468  0.78610  0.38111  Biso   1.000  C
  C500     1.0000 0.32461  0.76831  0.37980  Biso   1.000  C
  C501     1.0000 0.37360  0.74890  0.38111  Biso   1.000  C
  C502     1.0000 0.44868  0.76468  0.38699  Biso   1.000  C
  H369     1.0000 0.68870  0.46369  0.34339  Biso   1.000  H
  C503     1.0000 0.66701  0.52972  0.38179  Biso   1.000  C
  C504     1.0000 0.56589  0.55020  0.38690  Biso   1.000  C
  H370     1.0000 0.51260  0.49839  0.35049  Biso   1.000  H
  C505     1.0000 0.40040  0.02631  0.34190  Biso   1.000  C
  H371     1.0000 0.31130  0.03631  0.34339  Biso   1.000  H
  H372     1.0000 0.48740  0.00161  0.35049  Biso   1.000  H
  H373     1.0000 0.21398  0.79888  0.38111  Biso   1.000  H
  C506     1.0000 0.27149  0.73568  0.35959  Biso   1.000  C
  H374     1.0000 0.28221  0.76952  0.37739  Biso   1.000  H
  C507     1.0000 0.33102  0.71712  0.35959  Biso   1.000  C
  C508     1.0000 0.35728  0.72510  0.35941  Biso   1.000  C
  H375     1.0000 0.41421  0.73608  0.38111  Biso   1.000  H
  C509     1.0000 0.41941  0.72331  0.36301  Biso   1.000  C
  H376     1.0000 0.49108  0.76351  0.38940  Biso   1.000  H
  N43      1.0000 0.62192  0.56190  0.39841  Biso   1.000  N
  H377     1.0000 0.70722  0.53779  0.38949  Biso   1.000  H
  H378     1.0000 0.53389  0.57230  0.39841  Biso   1.000  H
  C510     1.0000 0.41161  0.07539  0.31191  Biso   1.000  C
  H379     1.0000 0.24240  0.71398  0.34479  Biso   1.000  H
  H380     1.0000 0.34249  0.68270  0.34479  Biso   1.000  H
  H381     1.0000 0.33729  0.69682  0.34300  Biso   1.000  H
  H382     1.0000 0.44169  0.69381  0.34901  Biso   1.000  H
  B29      1.0000 0.63012  0.61009  0.43500  Biso   1.000  B
  N44      1.0000 0.46248  0.07320  0.29120  Biso   1.000  N
  H383     1.0000 0.37790  0.07530  0.29271  Biso   1.000  H
  H384     1.0000 0.41031  0.11430  0.32609  Biso   1.000  H
  C511     1.0000 0.63330  0.57221  0.47551  Biso   1.000  C
  O85      1.0000 0.71089  0.63151  0.42489  Biso   1.000  O
  O86      1.0000 0.60919  0.66598  0.42730  Biso   1.000  O
  O87      1.0000 0.67172  0.64379  0.42611  Biso   1.000  O
  O88      1.0000 0.56692  0.64962  0.43241  Biso   1.000  O
  C512     1.0000 0.47459  0.11959  0.26730  Biso   1.000  C
  C513     1.0000 0.68781  0.54532  0.48781  Biso   1.000  C
  C514     1.0000 0.58319  0.56051  0.49839  Biso   1.000  C
  C515     1.0000 0.70269  0.68212  0.40269  Biso   1.000  C
  C516     1.0000 0.64330  0.70072  0.40269  Biso   1.000  C
  C517     1.0000 0.64608  0.69041  0.40379  Biso   1.000  C
  C518     1.0000 0.58400  0.69220  0.40741  Biso   1.000  C
  C519     1.0000 0.52730  0.11461  0.24070  Biso   1.000  C
  H385     1.0000 0.45020  0.15450  0.26739  Biso   1.000  H
  C520     1.0000 0.69041  0.50690  0.52060  Biso   1.000  C
  H386     1.0000 0.72340  0.55361  0.47340  Biso   1.000  H
  H387     1.0000 0.54590  0.57799  0.49141  Biso   1.000  H
  C521     1.0000 0.58669  0.52322  0.53171  Biso   1.000  C
  C522     1.0000 0.74532  0.71390  0.38111  Biso   1.000  C
  C523     1.0000 0.67539  0.73169  0.37980  Biso   1.000  C
  C524     1.0000 0.62640  0.75110  0.38111  Biso   1.000  C
  C525     1.0000 0.55132  0.73532  0.38699  Biso   1.000  C
  C526     1.0000 0.55442  0.06002  0.23240  Biso   1.000  C
  C527     1.0000 0.55401  0.16710  0.22500  Biso   1.000  C
  C528     1.0000 0.63958  0.49422  0.54331  Biso   1.000  C
  H388     1.0000 0.72752  0.48902  0.52749  Biso   1.000  H
  H389     1.0000 0.55150  0.51730  0.54711  Biso   1.000  H
  H390     1.0000 0.78602  0.70112  0.38111  Biso   1.000  H
  C529     1.0000 0.72851  0.76432  0.35959  Biso   1.000  C
  H391     1.0000 0.71779  0.73048  0.37739  Biso   1.000  H
  C530     1.0000 0.66898  0.78288  0.35959  Biso   1.000  C
  C531     1.0000 0.64272  0.77490  0.35941  Biso   1.000  C
  H392     1.0000 0.58579  0.76392  0.38111  Biso   1.000  H
  C532     1.0000 0.58059  0.77669  0.36301  Biso   1.000  C
  H393     1.0000 0.50892  0.73649  0.38940  Biso   1.000  H
  C533     1.0000 0.60430  0.05831  0.20860  Biso   1.000  C
  H394     1.0000 0.53850  0.02398  0.24310  Biso   1.000  H
  H395     1.0000 0.53779  0.20560  0.23071  Biso   1.000  H
  C534     1.0000 0.60381  0.16132  0.20119  Biso   1.000  C
  B30      1.0000 0.64451  0.44662  0.57799  Biso   1.000  B
  H396     1.0000 0.75760  0.78602  0.34479  Biso   1.000  H
  H397     1.0000 0.65751  0.81730  0.34479  Biso   1.000  H
  H398     1.0000 0.66271  0.80318  0.34300  Biso   1.000  H
  H399     1.0000 0.55831  0.80619  0.34901  Biso   1.000  H
  N45      1.0000 0.63048  0.10852  0.19370  Biso   1.000  N
  H400     1.0000 0.62129  0.02039  0.20229  Biso   1.000  H
  H401     1.0000 0.62030  0.19641  0.18960  Biso   1.000  H
  O89      1.0000 0.70170  0.44850  0.60040  Biso   1.000  O
  O90      1.0000 0.59552  0.44671  0.60810  Biso   1.000  O
  N46      1.0000 0.64151  0.38050  0.55630  Biso   1.000  N
  B31      1.0000 0.69659  0.10551  0.17201  Biso   1.000  B
  C535     1.0000 0.68660  0.43779  0.64000  Biso   1.000  C
  C536     1.0000 0.62268  0.43559  0.64451  Biso   1.000  C
  C537     1.0000 0.69171  0.35428  0.54140  Biso   1.000  C
  C538     1.0000 0.58870  0.35379  0.54881  Biso   1.000  C
  O91      1.0000 0.69852  0.04832  0.14960  Biso   1.000  O
  O92      1.0000 0.69668  0.15450  0.14190  Biso   1.000  O
  C539     1.0000 0.74420  0.11040  0.20669  Biso   1.000  C
  C540     1.0000 0.72362  0.42940  0.67219  Biso   1.000  C
  C541     1.0000 0.59700  0.42559  0.68089  Biso   1.000  C
  H402     1.0000 0.72958  0.37131  0.54771  Biso   1.000  H
  C542     1.0000 0.69000  0.30439  0.51760  Biso   1.000  C
  C543     1.0000 0.58288  0.30399  0.52500  Biso   1.000  C
  H403     1.0000 0.55361  0.37028  0.56040  Biso   1.000  H
  C544     1.0000 0.68781  0.06338  0.11000  Biso   1.000  C
  C545     1.0000 0.68561  0.12730  0.10549  Biso   1.000  C
  C546     1.0000 0.75688  0.05961  0.22940  Biso   1.000  C
  C547     1.0000 0.77320  0.16329  0.21829  Biso   1.000  C
  C548     1.0000 0.69798  0.41851  0.70949  Biso   1.000  C
  H404     1.0000 0.76589  0.43088  0.66921  Biso   1.000  H
  H405     1.0000 0.55482  0.42461  0.68449  Biso   1.000  H
  C549     1.0000 0.63761  0.41690  0.71279  Biso   1.000  C
  H406     1.0000 0.72600  0.28848  0.50690  Biso   1.000  H
  C550     1.0000 0.63541  0.27732  0.50930  Biso   1.000  C
  H407     1.0000 0.54442  0.28781  0.51929  Biso   1.000  H
  C551     1.0000 0.67938  0.02640  0.07781  Biso   1.000  C
  C552     1.0000 0.67562  0.15298  0.06911  Biso   1.000  C
  C553     1.0000 0.79529  0.06221  0.26219  Biso   1.000  C
  H408     1.0000 0.73900  0.02250  0.22251  Biso   1.000  H
  C554     1.0000 0.81049  0.16679  0.25161  Biso   1.000  C
  H409     1.0000 0.76728  0.19852  0.20289  Biso   1.000  H
  H410     1.0000 0.72268  0.41242  0.73220  Biso   1.000  H
  H411     1.0000 0.62111  0.40928  0.73829  Biso   1.000  H
  C555     1.0000 0.63039  0.22461  0.48270  Biso   1.000  C
  C556     1.0000 0.66849  0.05199  0.04051  Biso   1.000  C
  H412     1.0000 0.68091  0.98409  0.08079  Biso   1.000  H
  H413     1.0000 0.67459  0.19520  0.06551  Biso   1.000  H
  C557     1.0000 0.66692  0.11242  0.03721  Biso   1.000  C
  C558     1.0000 0.82219  0.11672  0.27449  Biso   1.000  C
  H414     1.0000 0.80359  0.02658  0.27660  Biso   1.000  H
  H415     1.0000 0.82801  0.20408  0.25859  Biso   1.000  H
  N47      1.0000 0.67678  0.21251  0.45880  Biso   1.000  N
  H416     1.0000 0.59552  0.20018  0.48261  Biso   1.000  H
  H417     1.0000 0.66239  0.02730  0.01780  Biso   1.000  H
  H418     1.0000 0.65930  0.12891  0.01171  Biso   1.000  H
  B32      1.0000 0.86011  0.11990  0.31500  Biso   1.000  B
  C559     1.0000 0.67459  0.16159  0.43809  Biso   1.000  C
  N48      1.0000 0.81188  0.12810  0.35159  Biso   1.000  N
  O93      1.0000 0.88149  0.03909  0.32511  Biso   1.000  O
  O94      1.0000 0.91600  0.14079  0.32270  Biso   1.000  O
  O95      1.0000 0.89381  0.07831  0.32389  Biso   1.000  O
  O96      1.0000 0.89960  0.18310  0.31759  Biso   1.000  O
  H419     1.0000 0.67472  0.12788  0.45729  Biso   1.000  H
  H420     1.0000 0.63568  0.16029  0.42391  Biso   1.000  H
  C560     1.0000 0.72371  0.15038  0.40810  Biso   1.000  C
  C561     1.0000 0.77970  0.08301  0.36821  Biso   1.000  C
  C562     1.0000 0.80018  0.18409  0.36310  Biso   1.000  C
  C563     1.0000 0.93209  0.04729  0.34731  Biso   1.000  C
  C564     1.0000 0.95069  0.10668  0.34731  Biso   1.000  C
  C565     1.0000 0.94039  0.10390  0.34621  Biso   1.000  C
  C566     1.0000 0.94218  0.16598  0.34259  Biso   1.000  C
  C567     1.0000 0.73590  0.09381  0.39591  Biso   1.000  C
  C568     1.0000 0.75598  0.19722  0.39169  Biso   1.000  C
  H421     1.0000 0.78781  0.04281  0.36051  Biso   1.000  H
  H422     1.0000 0.82232  0.21609  0.35159  Biso   1.000  H
  C569     1.0000 0.96392  0.00471  0.36889  Biso   1.000  C
  C570     1.0000 0.98171  0.07459  0.37020  Biso   1.000  C
  C571     1.0000 0.00112  0.12362  0.36889  Biso   1.000  C
  C572     1.0000 0.98530  0.19870  0.36301  Biso   1.000  C
  H423     1.0000 0.71372  0.06132  0.40661  Biso   1.000  H
  H424     1.0000 0.74841  0.23738  0.39951  Biso   1.000  H
  H425     1.0000 0.98050  0.03218  0.37261  Biso   1.000  H
  H426     1.0000 0.95110  0.96401  0.36889  Biso   1.000  H
  C573     1.0000 0.01430  0.02152  0.39041  Biso   1.000  C
  C574     1.0000 0.03290  0.08100  0.39041  Biso   1.000  C
  C575     1.0000 0.02492  0.10731  0.39059  Biso   1.000  C
  H427     1.0000 0.01390  0.16419  0.36889  Biso   1.000  H
  C576     1.0000 0.02671  0.16939  0.38699  Biso   1.000  C
  H428     1.0000 0.98651  0.24110  0.36060  Biso   1.000  H
  H429     1.0000 0.03599  0.99238  0.40521  Biso   1.000  H
  H430     1.0000 0.06728  0.09251  0.40521  Biso   1.000  H
  H431     1.0000 0.05320  0.08732  0.40700  Biso   1.000  H
  H432     1.0000 0.05621  0.19171  0.40099  Biso   1.000  H
  C577     1.0000 0.17562  0.15298  0.43089  Biso   1.000  C
  C578     1.0000 0.18561  0.12730  0.39451  Biso   1.000  C
  H433     1.0000 0.17459  0.19520  0.43449  Biso   1.000  H
  C579     1.0000 0.16692  0.11242  0.46279  Biso   1.000  C
  O97      1.0000 0.19668  0.15450  0.35810  Biso   1.000  O
  C580     1.0000 0.18781  0.06338  0.39000  Biso   1.000  C
  C581     1.0000 0.16849  0.05199  0.45949  Biso   1.000  C
  H434     1.0000 0.15930  0.12891  0.48829  Biso   1.000  H
  B33      1.0000 0.19659  0.10551  0.32799  Biso   1.000  B
  O98      1.0000 0.19852  0.04832  0.35040  Biso   1.000  O
  C582     1.0000 0.17938  0.02640  0.42219  Biso   1.000  C
  H435     1.0000 0.16239  0.02730  0.48220  Biso   1.000  H
  C583     1.0000 0.24420  0.11040  0.29331  Biso   1.000  C
  N49      1.0000 0.13048  0.10852  0.30630  Biso   1.000  N
  H436     1.0000 0.18091  0.98409  0.41921  Biso   1.000  H
  C584     1.0000 0.27320  0.16329  0.28171  Biso   1.000  C
  C585     1.0000 0.25688  0.05961  0.27060  Biso   1.000  C
  C586     1.0000 0.10430  0.05831  0.29140  Biso   1.000  C
  C587     1.0000 0.10381  0.16132  0.29881  Biso   1.000  C
  C588     1.0000 0.31049  0.16679  0.24839  Biso   1.000  C
  H437     1.0000 0.26728  0.19852  0.29711  Biso   1.000  H
  C589     1.0000 0.29529  0.06221  0.23781  Biso   1.000  C
  H438     1.0000 0.23900  0.02250  0.27749  Biso   1.000  H
  H439     1.0000 0.12129  0.02039  0.29771  Biso   1.000  H
  C590     1.0000 0.05442  0.06002  0.26760  Biso   1.000  C
  C591     1.0000 0.05401  0.16710  0.27500  Biso   1.000  C
  H440     1.0000 0.12030  0.19641  0.31040  Biso   1.000  H
  C592     1.0000 0.32219  0.11672  0.22551  Biso   1.000  C
  H441     1.0000 0.32801  0.20408  0.24141  Biso   1.000  H
  H442     1.0000 0.30359  0.02658  0.22340  Biso   1.000  H
  H443     1.0000 0.03850  0.02398  0.25690  Biso   1.000  H
  C593     1.0000 0.02730  0.11461  0.25930  Biso   1.000  C
  H444     1.0000 0.03779  0.20560  0.26929  Biso   1.000  H
  B34      1.0000 0.36011  0.11990  0.18500  Biso   1.000  B
  C594     1.0000 0.97459  0.11959  0.23270  Biso   1.000  C
  N50      1.0000 0.31188  0.12810  0.14841  Biso   1.000  N
  O99      1.0000 0.38149  0.03909  0.17489  Biso   1.000  O
  O100     1.0000 0.41600  0.14079  0.17730  Biso   1.000  O
  O101     1.0000 0.39381  0.07831  0.17611  Biso   1.000  O
  O102     1.0000 0.39960  0.18310  0.18241  Biso   1.000  O
  N51      1.0000 0.96248  0.07320  0.20880  Biso   1.000  N
  H445     1.0000 0.95020  0.15450  0.23261  Biso   1.000  H
  C595     1.0000 0.27970  0.08301  0.13179  Biso   1.000  C
  C596     1.0000 0.30018  0.18409  0.13690  Biso   1.000  C
  C597     1.0000 0.43209  0.04729  0.15269  Biso   1.000  C
  C598     1.0000 0.45069  0.10668  0.15269  Biso   1.000  C
  C599     1.0000 0.44039  0.10390  0.15379  Biso   1.000  C
  C600     1.0000 0.44218  0.16598  0.15741  Biso   1.000  C
  C601     1.0000 0.91161  0.07539  0.18809  Biso   1.000  C
  C602     1.0000 0.23590  0.09381  0.10409  Biso   1.000  C
  H446     1.0000 0.28781  0.04281  0.13949  Biso   1.000  H
  H447     1.0000 0.32232  0.21609  0.14841  Biso   1.000  H
  C603     1.0000 0.25598  0.19722  0.10831  Biso   1.000  C
  C604     1.0000 0.46392  0.00471  0.13111  Biso   1.000  C
  C605     1.0000 0.48171  0.07459  0.12980  Biso   1.000  C
  C606     1.0000 0.50112  0.12362  0.13111  Biso   1.000  C
  C607     1.0000 0.48530  0.19870  0.13699  Biso   1.000  C
  H448     1.0000 0.87790  0.07530  0.20729  Biso   1.000  H
  H449     1.0000 0.91031  0.11430  0.17391  Biso   1.000  H
  C608     1.0000 0.90040  0.02631  0.15810  Biso   1.000  C
  C609     1.0000 0.22371  0.15038  0.09190  Biso   1.000  C
  H450     1.0000 0.21372  0.06132  0.09339  Biso   1.000  H
  H451     1.0000 0.24841  0.23738  0.10049  Biso   1.000  H
  C610     1.0000 0.51430  0.02152  0.10959  Biso   1.000  C
  H452     1.0000 0.48050  0.03218  0.12739  Biso   1.000  H
  H453     1.0000 0.45110  0.96401  0.13111  Biso   1.000  H
  C611     1.0000 0.53290  0.08100  0.10959  Biso   1.000  C
  C612     1.0000 0.52492  0.10731  0.10941  Biso   1.000  C
  H454     1.0000 0.51390  0.16419  0.13111  Biso   1.000  H
  C613     1.0000 0.52671  0.16939  0.11301  Biso   1.000  C
  H455     1.0000 0.48651  0.24110  0.13940  Biso   1.000  H
  C614     1.0000 0.94720  0.99399  0.14169  Biso   1.000  C
  C615     1.0000 0.84379  0.01412  0.14591  Biso   1.000  C
  C616     1.0000 0.17459  0.16159  0.06191  Biso   1.000  C
  H456     1.0000 0.53599  0.99238  0.09479  Biso   1.000  H
  H457     1.0000 0.56728  0.09251  0.09479  Biso   1.000  H
  H458     1.0000 0.55320  0.08732  0.09300  Biso   1.000  H
  H459     1.0000 0.55621  0.19171  0.09901  Biso   1.000  H
  C617     1.0000 0.93411  0.94980  0.11310  Biso   1.000  C
  H460     1.0000 0.98740  0.00161  0.14951  Biso   1.000  H
  C618     1.0000 0.83299  0.97028  0.11821  Biso   1.000  C
  H461     1.0000 0.81130  0.03631  0.15661  Biso   1.000  H
  N52      1.0000 0.17678  0.21251  0.04120  Biso   1.000  N
  H462     1.0000 0.17472  0.12788  0.04271  Biso   1.000  H
  H463     1.0000 0.13568  0.16029  0.07609  Biso   1.000  H
  N53      1.0000 0.87808  0.93810  0.10159  Biso   1.000  N
  H464     1.0000 0.96611  0.92770  0.10159  Biso   1.000  H
  H465     1.0000 0.79278  0.96221  0.11051  Biso   1.000  H
  C619     1.0000 0.13039  0.22461  0.01730  Biso   1.000  C
  B35      1.0000 0.86988  0.88991  0.06500  Biso   1.000  B
  H466     1.0000 0.09552  0.20018  0.01739  Biso   1.000  H
  C620     1.0000 0.13541  0.27732  0.99070  Biso   1.000  C
  C621     1.0000 0.86670  0.92779  0.02449  Biso   1.000  C
  O103     1.0000 0.78911  0.86849  0.07511  Biso   1.000  O
  O104     1.0000 0.89081  0.83402  0.07270  Biso   1.000  O
  O105     1.0000 0.82828  0.85621  0.07389  Biso   1.000  O
  O106     1.0000 0.93308  0.85038  0.06759  Biso   1.000  O
  C622     1.0000 0.19000  0.30439  0.98240  Biso   1.000  C
  C623     1.0000 0.08288  0.30399  0.97500  Biso   1.000  C
  C624     1.0000 0.81219  0.95468  0.01219  Biso   1.000  C
  C625     1.0000 0.91681  0.93949  0.00161  Biso   1.000  C
  C626     1.0000 0.79731  0.81788  0.09731  Biso   1.000  C
  C627     1.0000 0.85670  0.79928  0.09731  Biso   1.000  C
  C628     1.0000 0.85392  0.80959  0.09621  Biso   1.000  C
  C629     1.0000 0.91600  0.80780  0.09259  Biso   1.000  C
  C630     1.0000 0.19171  0.35428  0.95860  Biso   1.000  C
  H467     1.0000 0.22600  0.28848  0.99310  Biso   1.000  H
  H468     1.0000 0.04442  0.28781  0.98071  Biso   1.000  H
  C631     1.0000 0.08870  0.35379  0.95119  Biso   1.000  C
  C632     1.0000 0.80959  0.99310  0.97940  Biso   1.000  C
  H469     1.0000 0.77660  0.94639  0.02660  Biso   1.000  H
  C633     1.0000 0.91331  0.97678  0.96829  Biso   1.000  C
  H470     1.0000 0.95410  0.92201  0.00859  Biso   1.000  H
  C634     1.0000 0.75468  0.78610  0.11889  Biso   1.000  C
  C635     1.0000 0.82461  0.76831  0.12020  Biso   1.000  C
  C636     1.0000 0.87360  0.74890  0.11889  Biso   1.000  C
  C637     1.0000 0.94868  0.76468  0.11301  Biso   1.000  C
  N54      1.0000 0.14151  0.38050  0.94370  Biso   1.000  N
  H471     1.0000 0.22958  0.37131  0.95229  Biso   1.000  H
  H472     1.0000 0.05361  0.37028  0.93960  Biso   1.000  H
  C638     1.0000 0.86042  0.00578  0.95669  Biso   1.000  C
  H473     1.0000 0.77248  0.01098  0.97251  Biso   1.000  H
  H474     1.0000 0.94850  0.98270  0.95289  Biso   1.000  H
  H475     1.0000 0.71398  0.79888  0.11889  Biso   1.000  H
  C639     1.0000 0.77149  0.73568  0.14041  Biso   1.000  C
  H476     1.0000 0.78221  0.76952  0.12261  Biso   1.000  H
  C640     1.0000 0.83102  0.71712  0.14041  Biso   1.000  C
  C641     1.0000 0.85728  0.72510  0.14059  Biso   1.000  C
  H477     1.0000 0.91421  0.73608  0.11889  Biso   1.000  H
  C642     1.0000 0.91941  0.72331  0.13699  Biso   1.000  C
  H478     1.0000 0.99108  0.76351  0.11060  Biso   1.000  H
  B36      1.0000 0.14451  0.44662  0.92201  Biso   1.000  B
  B37      1.0000 0.85549  0.05338  0.92201  Biso   1.000  B
  H479     1.0000 0.74240  0.71398  0.15521  Biso   1.000  H
  H480     1.0000 0.84249  0.68270  0.15521  Biso   1.000  H
  H481     1.0000 0.83729  0.69682  0.15700  Biso   1.000  H
  H482     1.0000 0.94169  0.69381  0.15099  Biso   1.000  H
  O107     1.0000 0.20170  0.44850  0.89960  Biso   1.000  O
  O108     1.0000 0.09552  0.44671  0.89190  Biso   1.000  O
  C643     1.0000 0.13958  0.49422  0.95669  Biso   1.000  C
  O109     1.0000 0.79830  0.05150  0.89960  Biso   1.000  O
  O110     1.0000 0.90448  0.05329  0.89190  Biso   1.000  O
  N55      1.0000 0.85849  0.11950  0.94370  Biso   1.000  N
  C644     1.0000 0.18660  0.43779  0.86000  Biso   1.000  C
  C645     1.0000 0.12268  0.43559  0.85549  Biso   1.000  C
  C646     1.0000 0.19041  0.50690  0.97940  Biso   1.000  C
  C647     1.0000 0.08669  0.52322  0.96829  Biso   1.000  C
  C648     1.0000 0.81340  0.06221  0.86000  Biso   1.000  C
  C649     1.0000 0.87732  0.06441  0.85549  Biso   1.000  C
  C650     1.0000 0.80829  0.14572  0.95860  Biso   1.000  C
  C651     1.0000 0.91130  0.14621  0.95119  Biso   1.000  C
  C652     1.0000 0.22362  0.42940  0.82781  Biso   1.000  C
  C653     1.0000 0.09700  0.42559  0.81911  Biso   1.000  C
  C654     1.0000 0.18781  0.54532  0.01219  Biso   1.000  C
  H483     1.0000 0.22752  0.48902  0.97251  Biso   1.000  H
  C655     1.0000 0.08319  0.56051  0.00161  Biso   1.000  C
  H484     1.0000 0.05150  0.51730  0.95289  Biso   1.000  H
  C656     1.0000 0.77638  0.07060  0.82781  Biso   1.000  C
  C657     1.0000 0.90300  0.07441  0.81911  Biso   1.000  C
  H485     1.0000 0.77042  0.12869  0.95229  Biso   1.000  H
  C658     1.0000 0.81000  0.19561  0.98240  Biso   1.000  C
  C659     1.0000 0.91712  0.19601  0.97500  Biso   1.000  C
  H486     1.0000 0.94639  0.12972  0.93960  Biso   1.000  H
  C660     1.0000 0.19798  0.41851  0.79051  Biso   1.000  C
  H487     1.0000 0.26589  0.43088  0.83079  Biso   1.000  H
  H488     1.0000 0.05482  0.42461  0.81551  Biso   1.000  H
  C661     1.0000 0.13761  0.41690  0.78721  Biso   1.000  C
  H489     1.0000 0.22340  0.55361  0.02660  Biso   1.000  H
  C662     1.0000 0.13330  0.57221  0.02449  Biso   1.000  C
  H490     1.0000 0.04590  0.57799  0.00859  Biso   1.000  H
  C663     1.0000 0.80202  0.08149  0.79051  Biso   1.000  C
  H491     1.0000 0.73411  0.06912  0.83079  Biso   1.000  H
  H492     1.0000 0.94518  0.07539  0.81551  Biso   1.000  H
  C664     1.0000 0.86239  0.08310  0.78721  Biso   1.000  C
  H493     1.0000 0.77400  0.21152  0.99310  Biso   1.000  H
  C665     1.0000 0.86459  0.22268  0.99070  Biso   1.000  C
  H494     1.0000 0.95558  0.21219  0.98071  Biso   1.000  H
  H495     1.0000 0.22268  0.41242  0.76780  Biso   1.000  H
  H496     1.0000 0.12111  0.40928  0.76171  Biso   1.000  H
  B38      1.0000 0.13012  0.61009  0.06500  Biso   1.000  B
  H497     1.0000 0.77732  0.08758  0.76780  Biso   1.000  H
  H498     1.0000 0.87889  0.09072  0.76171  Biso   1.000  H
  C666     1.0000 0.86961  0.27539  0.01730  Biso   1.000  C
  N56      1.0000 0.12192  0.56190  0.10159  Biso   1.000  N
  O111     1.0000 0.21089  0.63151  0.07511  Biso   1.000  O
  O112     1.0000 0.10919  0.66598  0.07270  Biso   1.000  O
  O113     1.0000 0.17172  0.64379  0.07389  Biso   1.000  O
  O114     1.0000 0.06692  0.64962  0.06759  Biso   1.000  O
  N57      1.0000 0.82322  0.28749  0.04120  Biso   1.000  N
  H499     1.0000 0.90448  0.29982  0.01739  Biso   1.000  H
  C667     1.0000 0.16701  0.52972  0.11821  Biso   1.000  C
  C668     1.0000 0.06589  0.55020  0.11310  Biso   1.000  C
  C669     1.0000 0.20269  0.68212  0.09731  Biso   1.000  C
  C670     1.0000 0.14330  0.70072  0.09731  Biso   1.000  C
  C671     1.0000 0.14608  0.69041  0.09621  Biso   1.000  C
  C672     1.0000 0.08400  0.69220  0.09259  Biso   1.000  C
  C673     1.0000 0.82541  0.33841  0.06191  Biso   1.000  C
  C674     1.0000 0.15621  0.48588  0.14591  Biso   1.000  C
  H500     1.0000 0.20722  0.53779  0.11051  Biso   1.000  H
  H501     1.0000 0.03389  0.57230  0.10159  Biso   1.000  H
  C675     1.0000 0.05280  0.50601  0.14169  Biso   1.000  C
  C676     1.0000 0.24532  0.71390  0.11889  Biso   1.000  C
  C677     1.0000 0.17539  0.73169  0.12020  Biso   1.000  C
  C678     1.0000 0.12640  0.75110  0.11889  Biso   1.000  C
  C679     1.0000 0.05132  0.73532  0.11301  Biso   1.000  C
  H502     1.0000 0.82528  0.37212  0.04271  Biso   1.000  H
  H503     1.0000 0.86432  0.33971  0.07609  Biso   1.000  H
  C680     1.0000 0.77629  0.34962  0.09190  Biso   1.000  C
  C681     1.0000 0.09960  0.47369  0.15810  Biso   1.000  C
  H504     1.0000 0.18870  0.46369  0.15661  Biso   1.000  H
  H505     1.0000 0.01260  0.49839  0.14951  Biso   1.000  H
  H506     1.0000 0.28602  0.70112  0.11889  Biso   1.000  H
  C682     1.0000 0.22851  0.76432  0.14041  Biso   1.000  C
  H507     1.0000 0.21779  0.73048  0.12261  Biso   1.000  H
  C683     1.0000 0.16898  0.78288  0.14041  Biso   1.000  C
  C684     1.0000 0.14272  0.77490  0.14059  Biso   1.000  C
  H508     1.0000 0.08579  0.76392  0.11889  Biso   1.000  H
  C685     1.0000 0.08059  0.77669  0.13699  Biso   1.000  C
  H509     1.0000 0.00892  0.73649  0.11060  Biso   1.000  H
  C686     1.0000 0.76410  0.40619  0.10409  Biso   1.000  C
  C687     1.0000 0.74402  0.30278  0.10831  Biso   1.000  C
  C688     1.0000 0.08839  0.42461  0.18809  Biso   1.000  C
  H510     1.0000 0.25760  0.78602  0.15521  Biso   1.000  H
  H511     1.0000 0.15751  0.81730  0.15521  Biso   1.000  H
  H512     1.0000 0.16271  0.80318  0.15700  Biso   1.000  H
  H513     1.0000 0.05831  0.80619  0.15099  Biso   1.000  H
  H514     1.0000 0.78628  0.43868  0.09339  Biso   1.000  H
  C689     1.0000 0.72030  0.41699  0.13179  Biso   1.000  C
  C690     1.0000 0.69982  0.31591  0.13690  Biso   1.000  C
  H515     1.0000 0.75159  0.26262  0.10049  Biso   1.000  H
  N58      1.0000 0.03752  0.42680  0.20880  Biso   1.000  N
  H516     1.0000 0.12210  0.42470  0.20729  Biso   1.000  H
  H517     1.0000 0.08969  0.38570  0.17391  Biso   1.000  H
  N59      1.0000 0.68812  0.37190  0.14841  Biso   1.000  N
  H518     1.0000 0.71219  0.45719  0.13949  Biso   1.000  H
  H519     1.0000 0.67768  0.28391  0.14841  Biso   1.000  H
  C691     1.0000 0.02541  0.38041  0.23270  Biso   1.000  C
  B39      1.0000 0.63989  0.38010  0.18500  Biso   1.000  B
  H520     1.0000 0.04980  0.34550  0.23261  Biso   1.000  H
  C692     1.0000 0.97270  0.38539  0.25930  Biso   1.000  C
  C693     1.0000 0.67781  0.38328  0.22551  Biso   1.000  C
  O115     1.0000 0.61851  0.46091  0.17489  Biso   1.000  O
  O116     1.0000 0.58400  0.35921  0.17730  Biso   1.000  O
  O117     1.0000 0.60619  0.42169  0.17611  Biso   1.000  O
  O118     1.0000 0.60040  0.31690  0.18241  Biso   1.000  O
  C694     1.0000 0.94558  0.43998  0.26760  Biso   1.000  C
  C695     1.0000 0.94599  0.33290  0.27500  Biso   1.000  C
  C696     1.0000 0.70471  0.43779  0.23781  Biso   1.000  C
  C697     1.0000 0.68951  0.33321  0.24839  Biso   1.000  C
  C698     1.0000 0.56791  0.45271  0.15269  Biso   1.000  C
  C699     1.0000 0.54931  0.39332  0.15269  Biso   1.000  C
  C700     1.0000 0.55961  0.39610  0.15379  Biso   1.000  C
  C701     1.0000 0.55782  0.33402  0.15741  Biso   1.000  C
  C702     1.0000 0.89570  0.44169  0.29140  Biso   1.000  C
  H521     1.0000 0.96150  0.47602  0.25690  Biso   1.000  H
  H522     1.0000 0.96221  0.29440  0.26929  Biso   1.000  H
  C703     1.0000 0.89619  0.33868  0.29881  Biso   1.000  C
  C704     1.0000 0.74312  0.44039  0.27060  Biso   1.000  C
  H523     1.0000 0.69641  0.47342  0.22340  Biso   1.000  H
  C705     1.0000 0.72680  0.33671  0.28171  Biso   1.000  C
  H524     1.0000 0.67199  0.29592  0.24141  Biso   1.000  H
  C706     1.0000 0.53608  0.49529  0.13111  Biso   1.000  C
  C707     1.0000 0.51829  0.42541  0.12980  Biso   1.000  C
  C708     1.0000 0.49888  0.37638  0.13111  Biso   1.000  C
  C709     1.0000 0.51470  0.30130  0.13699  Biso   1.000  C
  N60      1.0000 0.86952  0.39148  0.30630  Biso   1.000  N
  H525     1.0000 0.87871  0.47961  0.29771  Biso   1.000  H
  H526     1.0000 0.87970  0.30359  0.31040  Biso   1.000  H
  C710     1.0000 0.75580  0.38960  0.29331  Biso   1.000  C
  H527     1.0000 0.76100  0.47750  0.27749  Biso   1.000  H
  H528     1.0000 0.73272  0.30148  0.29711  Biso   1.000  H
  H529     1.0000 0.54890  0.53599  0.13111  Biso   1.000  H
  C711     1.0000 0.48570  0.47848  0.10959  Biso   1.000  C
  H530     1.0000 0.51950  0.46782  0.12739  Biso   1.000  H
  C712     1.0000 0.46710  0.41900  0.10959  Biso   1.000  C
  C713     1.0000 0.47508  0.39269  0.10941  Biso   1.000  C
  H531     1.0000 0.48610  0.33581  0.13111  Biso   1.000  H
  C714     1.0000 0.47329  0.33061  0.11301  Biso   1.000  C
  H532     1.0000 0.51349  0.25890  0.13940  Biso   1.000  H
  B40      1.0000 0.80341  0.39449  0.32799  Biso   1.000  B
  H533     1.0000 0.46401  0.50762  0.09479  Biso   1.000  H
  H534     1.0000 0.43272  0.40749  0.09479  Biso   1.000  H
  H535     1.0000 0.44680  0.41268  0.09300  Biso   1.000  H
  H536     1.0000 0.44379  0.30829  0.09901  Biso   1.000  H
  O119     1.0000 0.80148  0.45168  0.35040  Biso   1.000  O
  O120     1.0000 0.80332  0.34550  0.35810  Biso   1.000  O
  C715     1.0000 0.81219  0.43662  0.39000  Biso   1.000  C
  C716     1.0000 0.81439  0.37270  0.39451  Biso   1.000  C
  C717     1.0000 0.82062  0.47360  0.42219  Biso   1.000  C
  C718     1.0000 0.82438  0.34702  0.43089  Biso   1.000  C
  C719     1.0000 0.83151  0.44801  0.45949  Biso   1.000  C
  H537     1.0000 0.81909  0.51591  0.41921  Biso   1.000  H
  H538     1.0000 0.82541  0.30480  0.43449  Biso   1.000  H
  C720     1.0000 0.83308  0.38758  0.46279  Biso   1.000  C
  H539     1.0000 0.83761  0.47270  0.48220  Biso   1.000  H
  H540     1.0000 0.84070  0.37109  0.48829  Biso   1.000  H
  C721     1.0000 0.17562  0.15298  0.43089  Biso   1.000  C
  C722     1.0000 0.18561  0.12730  0.39451  Biso   1.000  C
  H541     1.0000 0.17459  0.19520  0.43449  Biso   1.000  H
  C723     1.0000 0.16692  0.11242  0.46279  Biso   1.000  C
  O121     1.0000 0.19668  0.15450  0.35810  Biso   1.000  O
  C724     1.0000 0.18781  0.06338  0.39000  Biso   1.000  C
  C725     1.0000 0.16849  0.05199  0.45949  Biso   1.000  C
  H542     1.0000 0.15930  0.12891  0.48829  Biso   1.000  H
  B41      1.0000 0.19659  0.10551  0.32799  Biso   1.000  B
  O122     1.0000 0.19852  0.04832  0.35040  Biso   1.000  O
  C726     1.0000 0.17938  0.02640  0.42219  Biso   1.000  C
  H543     1.0000 0.16239  0.02730  0.48220  Biso   1.000  H
  C727     1.0000 0.24420  0.11040  0.29331  Biso   1.000  C
  N61      1.0000 0.13048  0.10852  0.30630  Biso   1.000  N
  H544     1.0000 0.18091  0.98409  0.41921  Biso   1.000  H
  C728     1.0000 0.27320  0.16329  0.28171  Biso   1.000  C
  C729     1.0000 0.25688  0.05961  0.27060  Biso   1.000  C
  C730     1.0000 0.10430  0.05831  0.29140  Biso   1.000  C
  C731     1.0000 0.10381  0.16132  0.29881  Biso   1.000  C
  C732     1.0000 0.31049  0.16679  0.24839  Biso   1.000  C
  H545     1.0000 0.26728  0.19852  0.29711  Biso   1.000  H
  C733     1.0000 0.29529  0.06221  0.23781  Biso   1.000  C
  H546     1.0000 0.23900  0.02250  0.27749  Biso   1.000  H
  H547     1.0000 0.12129  0.02039  0.29771  Biso   1.000  H
  C734     1.0000 0.05442  0.06002  0.26760  Biso   1.000  C
  C735     1.0000 0.05401  0.16710  0.27500  Biso   1.000  C
  H548     1.0000 0.12030  0.19641  0.31040  Biso   1.000  H
  C736     1.0000 0.32219  0.11672  0.22551  Biso   1.000  C
  H549     1.0000 0.32801  0.20408  0.24141  Biso   1.000  H
  H550     1.0000 0.30359  0.02658  0.22340  Biso   1.000  H
  H551     1.0000 0.03850  0.02398  0.25690  Biso   1.000  H
  C737     1.0000 0.02730  0.11461  0.25930  Biso   1.000  C
  H552     1.0000 0.03779  0.20560  0.26929  Biso   1.000  H
  B42      1.0000 0.36011  0.11990  0.18500  Biso   1.000  B
  C738     1.0000 0.97459  0.11959  0.23270  Biso   1.000  C
  N62      1.0000 0.31188  0.12810  0.14841  Biso   1.000  N
  O123     1.0000 0.38149  0.03909  0.17489  Biso   1.000  O
  O124     1.0000 0.41600  0.14079  0.17730  Biso   1.000  O
  O125     1.0000 0.39381  0.07831  0.17611  Biso   1.000  O
  O126     1.0000 0.39960  0.18310  0.18241  Biso   1.000  O
  N63      1.0000 0.96248  0.07320  0.20880  Biso   1.000  N
  H553     1.0000 0.95020  0.15450  0.23261  Biso   1.000  H
  C739     1.0000 0.27970  0.08301  0.13179  Biso   1.000  C
  C740     1.0000 0.30018  0.18409  0.13690  Biso   1.000  C
  C741     1.0000 0.43209  0.04729  0.15269  Biso   1.000  C
  C742     1.0000 0.45069  0.10668  0.15269  Biso   1.000  C
  C743     1.0000 0.44039  0.10390  0.15379  Biso   1.000  C
  C744     1.0000 0.44218  0.16598  0.15741  Biso   1.000  C
  C745     1.0000 0.91161  0.07539  0.18809  Biso   1.000  C
  C746     1.0000 0.23590  0.09381  0.10409  Biso   1.000  C
  H554     1.0000 0.28781  0.04281  0.13949  Biso   1.000  H
  H555     1.0000 0.32232  0.21609  0.14841  Biso   1.000  H
  C747     1.0000 0.25598  0.19722  0.10831  Biso   1.000  C
  C748     1.0000 0.46392  0.00471  0.13111  Biso   1.000  C
  C749     1.0000 0.48171  0.07459  0.12980  Biso   1.000  C
  C750     1.0000 0.50112  0.12362  0.13111  Biso   1.000  C
  C751     1.0000 0.48530  0.19870  0.13699  Biso   1.000  C
  H556     1.0000 0.87790  0.07530  0.20729  Biso   1.000  H
  H557     1.0000 0.91031  0.11430  0.17391  Biso   1.000  H
  C752     1.0000 0.90040  0.02631  0.15810  Biso   1.000  C
  C753     1.0000 0.22371  0.15038  0.09190  Biso   1.000  C
  H558     1.0000 0.21372  0.06132  0.09339  Biso   1.000  H
  H559     1.0000 0.24841  0.23738  0.10049  Biso   1.000  H
  C754     1.0000 0.51430  0.02152  0.10959  Biso   1.000  C
  H560     1.0000 0.45110  0.96401  0.13111  Biso   1.000  H
  H561     1.0000 0.48050  0.03218  0.12739  Biso   1.000  H
  C755     1.0000 0.53290  0.08100  0.10959  Biso   1.000  C
  C756     1.0000 0.52492  0.10731  0.10941  Biso   1.000  C
  H562     1.0000 0.51390  0.16419  0.13111  Biso   1.000  H
  C757     1.0000 0.52671  0.16939  0.11301  Biso   1.000  C
  H563     1.0000 0.48651  0.24110  0.13940  Biso   1.000  H
  C758     1.0000 0.94720  0.99399  0.14169  Biso   1.000  C
  C759     1.0000 0.84379  0.01412  0.14591  Biso   1.000  C
  C760     1.0000 0.17459  0.16159  0.06191  Biso   1.000  C
  H564     1.0000 0.53599  0.99238  0.09479  Biso   1.000  H
  H565     1.0000 0.56728  0.09251  0.09479  Biso   1.000  H
  H566     1.0000 0.55320  0.08732  0.09300  Biso   1.000  H
  H567     1.0000 0.55621  0.19171  0.09901  Biso   1.000  H
  C761     1.0000 0.93411  0.94980  0.11310  Biso   1.000  C
  H568     1.0000 0.98740  0.00161  0.14951  Biso   1.000  H
  C762     1.0000 0.83299  0.97028  0.11821  Biso   1.000  C
  H569     1.0000 0.81130  0.03631  0.15661  Biso   1.000  H
  N64      1.0000 0.17678  0.21251  0.04120  Biso   1.000  N
  H570     1.0000 0.17472  0.12788  0.04271  Biso   1.000  H
  H571     1.0000 0.13568  0.16029  0.07609  Biso   1.000  H
  N65      1.0000 0.87808  0.93810  0.10159  Biso   1.000  N
  H572     1.0000 0.96611  0.92770  0.10159  Biso   1.000  H
  H573     1.0000 0.79278  0.96221  0.11051  Biso   1.000  H
  C763     1.0000 0.13039  0.22461  0.01730  Biso   1.000  C
  B43      1.0000 0.86988  0.88991  0.06500  Biso   1.000  B
  H574     1.0000 0.09552  0.20018  0.01739  Biso   1.000  H
  C764     1.0000 0.13541  0.27732  0.99070  Biso   1.000  C
  C765     1.0000 0.86670  0.92779  0.02449  Biso   1.000  C
  O127     1.0000 0.78911  0.86849  0.07511  Biso   1.000  O
  O128     1.0000 0.89081  0.83402  0.07270  Biso   1.000  O
  O129     1.0000 0.82828  0.85621  0.07389  Biso   1.000  O
  O130     1.0000 0.93308  0.85038  0.06759  Biso   1.000  O
  C766     1.0000 0.19000  0.30439  0.98240  Biso   1.000  C
  C767     1.0000 0.08288  0.30399  0.97500  Biso   1.000  C
  C768     1.0000 0.81219  0.95468  0.01219  Biso   1.000  C
  C769     1.0000 0.91681  0.93949  0.00161  Biso   1.000  C
  C770     1.0000 0.79731  0.81788  0.09731  Biso   1.000  C
  C771     1.0000 0.85670  0.79928  0.09731  Biso   1.000  C
  C772     1.0000 0.85392  0.80959  0.09621  Biso   1.000  C
  C773     1.0000 0.91600  0.80780  0.09259  Biso   1.000  C
  C774     1.0000 0.19171  0.35428  0.95860  Biso   1.000  C
  H575     1.0000 0.22600  0.28848  0.99310  Biso   1.000  H
  H576     1.0000 0.04442  0.28781  0.98071  Biso   1.000  H
  C775     1.0000 0.08870  0.35379  0.95119  Biso   1.000  C
  C776     1.0000 0.80959  0.99310  0.97940  Biso   1.000  C
  H577     1.0000 0.77660  0.94639  0.02660  Biso   1.000  H
  C777     1.0000 0.91331  0.97678  0.96829  Biso   1.000  C
  H578     1.0000 0.95410  0.92201  0.00859  Biso   1.000  H
  C778     1.0000 0.75468  0.78610  0.11889  Biso   1.000  C
  C779     1.0000 0.82461  0.76831  0.12020  Biso   1.000  C
  C780     1.0000 0.87360  0.74890  0.11889  Biso   1.000  C
  C781     1.0000 0.94868  0.76468  0.11301  Biso   1.000  C
  N66      1.0000 0.14151  0.38050  0.94370  Biso   1.000  N
  H579     1.0000 0.22958  0.37131  0.95229  Biso   1.000  H
  H580     1.0000 0.05361  0.37028  0.93960  Biso   1.000  H
  C782     1.0000 0.86042  0.00578  0.95669  Biso   1.000  C
  H581     1.0000 0.77248  0.01098  0.97251  Biso   1.000  H
  H582     1.0000 0.94850  0.98270  0.95289  Biso   1.000  H
  H583     1.0000 0.71398  0.79888  0.11889  Biso   1.000  H
  C783     1.0000 0.77149  0.73568  0.14041  Biso   1.000  C
  H584     1.0000 0.78221  0.76952  0.12261  Biso   1.000  H
  C784     1.0000 0.83102  0.71712  0.14041  Biso   1.000  C
  C785     1.0000 0.85728  0.72510  0.14059  Biso   1.000  C
  H585     1.0000 0.91421  0.73608  0.11889  Biso   1.000  H
  C786     1.0000 0.91941  0.72331  0.13699  Biso   1.000  C
  H586     1.0000 0.99108  0.76351  0.11060  Biso   1.000  H
  B44      1.0000 0.14451  0.44662  0.92201  Biso   1.000  B
  B45      1.0000 0.85549  0.05338  0.92201  Biso   1.000  B
  H587     1.0000 0.74240  0.71398  0.15521  Biso   1.000  H
  H588     1.0000 0.84249  0.68270  0.15521  Biso   1.000  H
  H589     1.0000 0.83729  0.69682  0.15700  Biso   1.000  H
  H590     1.0000 0.94169  0.69381  0.15099  Biso   1.000  H
  O131     1.0000 0.20170  0.44850  0.89960  Biso   1.000  O
  O132     1.0000 0.09552  0.44671  0.89190  Biso   1.000  O
  C787     1.0000 0.13958  0.49422  0.95669  Biso   1.000  C
  O133     1.0000 0.79830  0.05150  0.89960  Biso   1.000  O
  O134     1.0000 0.90448  0.05329  0.89190  Biso   1.000  O
  N67      1.0000 0.85849  0.11950  0.94370  Biso   1.000  N
  C788     1.0000 0.18660  0.43779  0.86000  Biso   1.000  C
  C789     1.0000 0.12268  0.43559  0.85549  Biso   1.000  C
  C790     1.0000 0.19041  0.50690  0.97940  Biso   1.000  C
  C791     1.0000 0.08669  0.52322  0.96829  Biso   1.000  C
  C792     1.0000 0.81340  0.06221  0.86000  Biso   1.000  C
  C793     1.0000 0.87732  0.06441  0.85549  Biso   1.000  C
  C794     1.0000 0.80829  0.14572  0.95860  Biso   1.000  C
  C795     1.0000 0.91130  0.14621  0.95119  Biso   1.000  C
  C796     1.0000 0.22362  0.42940  0.82781  Biso   1.000  C
  C797     1.0000 0.09700  0.42559  0.81911  Biso   1.000  C
  C798     1.0000 0.18781  0.54532  0.01219  Biso   1.000  C
  H591     1.0000 0.22752  0.48902  0.97251  Biso   1.000  H
  C799     1.0000 0.08319  0.56051  0.00161  Biso   1.000  C
  H592     1.0000 0.05150  0.51730  0.95289  Biso   1.000  H
  C800     1.0000 0.77638  0.07060  0.82781  Biso   1.000  C
  C801     1.0000 0.90300  0.07441  0.81911  Biso   1.000  C
  H593     1.0000 0.77042  0.12869  0.95229  Biso   1.000  H
  C802     1.0000 0.81000  0.19561  0.98240  Biso   1.000  C
  C803     1.0000 0.91712  0.19601  0.97500  Biso   1.000  C
  H594     1.0000 0.94639  0.12972  0.93960  Biso   1.000  H
  C804     1.0000 0.19798  0.41851  0.79051  Biso   1.000  C
  H595     1.0000 0.26589  0.43088  0.83079  Biso   1.000  H
  H596     1.0000 0.05482  0.42461  0.81551  Biso   1.000  H
  C805     1.0000 0.13761  0.41690  0.78721  Biso   1.000  C
  H597     1.0000 0.22340  0.55361  0.02660  Biso   1.000  H
  C806     1.0000 0.13330  0.57221  0.02449  Biso   1.000  C
  H598     1.0000 0.04590  0.57799  0.00859  Biso   1.000  H
  C807     1.0000 0.80202  0.08149  0.79051  Biso   1.000  C
  H599     1.0000 0.73411  0.06912  0.83079  Biso   1.000  H
  H600     1.0000 0.94518  0.07539  0.81551  Biso   1.000  H
  C808     1.0000 0.86239  0.08310  0.78721  Biso   1.000  C
  H601     1.0000 0.77400  0.21152  0.99310  Biso   1.000  H
  C809     1.0000 0.86459  0.22268  0.99070  Biso   1.000  C
  H602     1.0000 0.95558  0.21219  0.98071  Biso   1.000  H
  H603     1.0000 0.22268  0.41242  0.76780  Biso   1.000  H
  H604     1.0000 0.12111  0.40928  0.76171  Biso   1.000  H
  B46      1.0000 0.13012  0.61009  0.06500  Biso   1.000  B
  H605     1.0000 0.77732  0.08758  0.76780  Biso   1.000  H
  H606     1.0000 0.87889  0.09072  0.76171  Biso   1.000  H
  C810     1.0000 0.86961  0.27539  0.01730  Biso   1.000  C
  N68      1.0000 0.12192  0.56190  0.10159  Biso   1.000  N
  O135     1.0000 0.21089  0.63151  0.07511  Biso   1.000  O
  O136     1.0000 0.10919  0.66598  0.07270  Biso   1.000  O
  O137     1.0000 0.17172  0.64379  0.07389  Biso   1.000  O
  O138     1.0000 0.06692  0.64962  0.06759  Biso   1.000  O
  N69      1.0000 0.82322  0.28749  0.04120  Biso   1.000  N
  H607     1.0000 0.90448  0.29982  0.01739  Biso   1.000  H
  C811     1.0000 0.16701  0.52972  0.11821  Biso   1.000  C
  C812     1.0000 0.06589  0.55020  0.11310  Biso   1.000  C
  C813     1.0000 0.20269  0.68212  0.09731  Biso   1.000  C
  C814     1.0000 0.14330  0.70072  0.09731  Biso   1.000  C
  C815     1.0000 0.14608  0.69041  0.09621  Biso   1.000  C
  C816     1.0000 0.08400  0.69220  0.09259  Biso   1.000  C
  C817     1.0000 0.82541  0.33841  0.06191  Biso   1.000  C
  C818     1.0000 0.15621  0.48588  0.14591  Biso   1.000  C
  H608     1.0000 0.20722  0.53779  0.11051  Biso   1.000  H
  H609     1.0000 0.03389  0.57230  0.10159  Biso   1.000  H
  C819     1.0000 0.05280  0.50601  0.14169  Biso   1.000  C
  C820     1.0000 0.24532  0.71390  0.11889  Biso   1.000  C
  C821     1.0000 0.17539  0.73169  0.12020  Biso   1.000  C
  C822     1.0000 0.12640  0.75110  0.11889  Biso   1.000  C
  C823     1.0000 0.05132  0.73532  0.11301  Biso   1.000  C
  H610     1.0000 0.82528  0.37212  0.04271  Biso   1.000  H
  H611     1.0000 0.86432  0.33971  0.07609  Biso   1.000  H
  C824     1.0000 0.77629  0.34962  0.09190  Biso   1.000  C
  C825     1.0000 0.09960  0.47369  0.15810  Biso   1.000  C
  H612     1.0000 0.18870  0.46369  0.15661  Biso   1.000  H
  H613     1.0000 0.01260  0.49839  0.14951  Biso   1.000  H
  H614     1.0000 0.28602  0.70112  0.11889  Biso   1.000  H
  C826     1.0000 0.22851  0.76432  0.14041  Biso   1.000  C
  H615     1.0000 0.21779  0.73048  0.12261  Biso   1.000  H
  C827     1.0000 0.16898  0.78288  0.14041  Biso   1.000  C
  C828     1.0000 0.14272  0.77490  0.14059  Biso   1.000  C
  H616     1.0000 0.08579  0.76392  0.11889  Biso   1.000  H
  C829     1.0000 0.08059  0.77669  0.13699  Biso   1.000  C
  H617     1.0000 0.00892  0.73649  0.11060  Biso   1.000  H
  C830     1.0000 0.76410  0.40619  0.10409  Biso   1.000  C
  C831     1.0000 0.74402  0.30278  0.10831  Biso   1.000  C
  C832     1.0000 0.08839  0.42461  0.18809  Biso   1.000  C
  H618     1.0000 0.25760  0.78602  0.15521  Biso   1.000  H
  H619     1.0000 0.15751  0.81730  0.15521  Biso   1.000  H
  H620     1.0000 0.16271  0.80318  0.15700  Biso   1.000  H
  H621     1.0000 0.05831  0.80619  0.15099  Biso   1.000  H
  H622     1.0000 0.78628  0.43868  0.09339  Biso   1.000  H
  C833     1.0000 0.72030  0.41699  0.13179  Biso   1.000  C
  C834     1.0000 0.69982  0.31591  0.13690  Biso   1.000  C
  H623     1.0000 0.75159  0.26262  0.10049  Biso   1.000  H
  N70      1.0000 0.03752  0.42680  0.20880  Biso   1.000  N
  H624     1.0000 0.12210  0.42470  0.20729  Biso   1.000  H
  H625     1.0000 0.08969  0.38570  0.17391  Biso   1.000  H
  N71      1.0000 0.68812  0.37190  0.14841  Biso   1.000  N
  H626     1.0000 0.71219  0.45719  0.13949  Biso   1.000  H
  H627     1.0000 0.67768  0.28391  0.14841  Biso   1.000  H
  C835     1.0000 0.02541  0.38041  0.23270  Biso   1.000  C
  B47      1.0000 0.63989  0.38010  0.18500  Biso   1.000  B
  H628     1.0000 0.04980  0.34550  0.23261  Biso   1.000  H
  C836     1.0000 0.97270  0.38539  0.25930  Biso   1.000  C
  C837     1.0000 0.67781  0.38328  0.22551  Biso   1.000  C
  O139     1.0000 0.61851  0.46091  0.17489  Biso   1.000  O
  O140     1.0000 0.58400  0.35921  0.17730  Biso   1.000  O
  O141     1.0000 0.60619  0.42169  0.17611  Biso   1.000  O
  O142     1.0000 0.60040  0.31690  0.18241  Biso   1.000  O
  C838     1.0000 0.94558  0.43998  0.26760  Biso   1.000  C
  C839     1.0000 0.94599  0.33290  0.27500  Biso   1.000  C
  C840     1.0000 0.70471  0.43779  0.23781  Biso   1.000  C
  C841     1.0000 0.68951  0.33321  0.24839  Biso   1.000  C
  C842     1.0000 0.56791  0.45271  0.15269  Biso   1.000  C
  C843     1.0000 0.54931  0.39332  0.15269  Biso   1.000  C
  C844     1.0000 0.55961  0.39610  0.15379  Biso   1.000  C
  C845     1.0000 0.55782  0.33402  0.15741  Biso   1.000  C
  C846     1.0000 0.89570  0.44169  0.29140  Biso   1.000  C
  H629     1.0000 0.96150  0.47602  0.25690  Biso   1.000  H
  H630     1.0000 0.96221  0.29440  0.26929  Biso   1.000  H
  C847     1.0000 0.89619  0.33868  0.29881  Biso   1.000  C
  C848     1.0000 0.74312  0.44039  0.27060  Biso   1.000  C
  H631     1.0000 0.69641  0.47342  0.22340  Biso   1.000  H
  C849     1.0000 0.72680  0.33671  0.28171  Biso   1.000  C
  H632     1.0000 0.67199  0.29592  0.24141  Biso   1.000  H
  C850     1.0000 0.53608  0.49529  0.13111  Biso   1.000  C
  C851     1.0000 0.51829  0.42541  0.12980  Biso   1.000  C
  C852     1.0000 0.49888  0.37638  0.13111  Biso   1.000  C
  C853     1.0000 0.51470  0.30130  0.13699  Biso   1.000  C
  N72      1.0000 0.86952  0.39148  0.30630  Biso   1.000  N
  H633     1.0000 0.87871  0.47961  0.29771  Biso   1.000  H
  H634     1.0000 0.87970  0.30359  0.31040  Biso   1.000  H
  C854     1.0000 0.75580  0.38960  0.29331  Biso   1.000  C
  H635     1.0000 0.76100  0.47750  0.27749  Biso   1.000  H
  H636     1.0000 0.73272  0.30148  0.29711  Biso   1.000  H
  H637     1.0000 0.54890  0.53599  0.13111  Biso   1.000  H
  C855     1.0000 0.48570  0.47848  0.10959  Biso   1.000  C
  H638     1.0000 0.51950  0.46782  0.12739  Biso   1.000  H
  C856     1.0000 0.46710  0.41900  0.10959  Biso   1.000  C
  C857     1.0000 0.47508  0.39269  0.10941  Biso   1.000  C
  H639     1.0000 0.48610  0.33581  0.13111  Biso   1.000  H
  C858     1.0000 0.47329  0.33061  0.11301  Biso   1.000  C
  H640     1.0000 0.51349  0.25890  0.13940  Biso   1.000  H
  B48      1.0000 0.80341  0.39449  0.32799  Biso   1.000  B
  H641     1.0000 0.46401  0.50762  0.09479  Biso   1.000  H
  H642     1.0000 0.43272  0.40749  0.09479  Biso   1.000  H
  H643     1.0000 0.44680  0.41268  0.09300  Biso   1.000  H
  H644     1.0000 0.44379  0.30829  0.09901  Biso   1.000  H
  O143     1.0000 0.80148  0.45168  0.35040  Biso   1.000  O
  O144     1.0000 0.80332  0.34550  0.35810  Biso   1.000  O
  C859     1.0000 0.81219  0.43662  0.39000  Biso   1.000  C
  C860     1.0000 0.81439  0.37270  0.39451  Biso   1.000  C
  C861     1.0000 0.82062  0.47360  0.42219  Biso   1.000  C
  C862     1.0000 0.82438  0.34702  0.43089  Biso   1.000  C
  C863     1.0000 0.83151  0.44801  0.45949  Biso   1.000  C
  H645     1.0000 0.81909  0.51591  0.41921  Biso   1.000  H
  H646     1.0000 0.82541  0.30480  0.43449  Biso   1.000  H
  C864     1.0000 0.83308  0.38758  0.46279  Biso   1.000  C
  H647     1.0000 0.83761  0.47270  0.48220  Biso   1.000  H
  H648     1.0000 0.84070  0.37109  0.48829  Biso   1.000  H
