data_image0
_cell_length_a       12.249
_cell_length_b       36.642
_cell_length_c       21.741
_cell_angle_alpha    90
_cell_angle_beta     102.05
_cell_angle_gamma    90

_symmetry_space_group_name_H-M    "P 1"
_symmetry_int_tables_number       1

loop_
  _symmetry_equiv_pos_as_xyz
  'x, y, z'

loop_
  _atom_site_label
  _atom_site_occupancy
  _atom_site_fract_x
  _atom_site_fract_y
  _atom_site_fract_z
  _atom_site_thermal_displace_type
  _atom_site_B_iso_or_equiv
  _atom_site_type_symbol
  C1       1.0000 0.65331  0.48240  0.50198  Biso   1.000  C
  C2       1.0000 0.68165  0.44304  0.49299  Biso   1.000  C
  C3       1.0000 0.69008  0.50860  0.45824  Biso   1.000  C
  H1       1.0000 0.68750  0.48960  0.54558  Biso   1.000  H
  H2       1.0000 0.57129  0.48450  0.49699  Biso   1.000  H
  H3       1.0000 0.76222  0.43939  0.50729  Biso   1.000  H
  H4       1.0000 0.64159  0.42741  0.51750  Biso   1.000  H
  H5       1.0000 0.65955  0.43671  0.44831  Biso   1.000  H
  C4       1.0000 0.65877  0.54806  0.46473  Biso   1.000  C
  H6       1.0000 0.77237  0.50710  0.46440  Biso   1.000  H
  H7       1.0000 0.65832  0.50071  0.41459  Biso   1.000  H
  C5       1.0000 0.69351  0.57295  0.41614  Biso   1.000  C
  H8       1.0000 0.57699  0.54981  0.46059  Biso   1.000  H
  H9       1.0000 0.69454  0.55671  0.50729  Biso   1.000  H
  C6       1.0000 0.66162  0.61285  0.42306  Biso   1.000  C
  H10      1.0000 0.77542  0.57131  0.42019  Biso   1.000  H
  H11      1.0000 0.65794  0.56430  0.37348  Biso   1.000  H
  C7       1.0000 0.72448  0.62958  0.48519  Biso   1.000  C
  H12      1.0000 0.58047  0.61309  0.42437  Biso   1.000  H
  C8       1.0000 0.67521  0.63686  0.36808  Biso   1.000  C
  C9       1.0000 0.67007  0.64557  0.52827  Biso   1.000  C
  C10      1.0000 0.84126  0.62980  0.50005  Biso   1.000  C
  C11      1.0000 0.61621  0.66975  0.35759  Biso   1.000  C
  C12      1.0000 0.74769  0.62870  0.32838  Biso   1.000  C
  O1       1.0000 0.55487  0.64770  0.51811  Biso   1.000  O
  C13      1.0000 0.72916  0.66077  0.58419  Biso   1.000  C
  C14      1.0000 0.90363  0.64404  0.55512  Biso   1.000  C
  H13      1.0000 0.87991  0.61959  0.47061  Biso   1.000  H
  O2       1.0000 0.54757  0.67786  0.39860  Biso   1.000  O
  C15      1.0000 0.62864  0.69295  0.30938  Biso   1.000  C
  C16      1.0000 0.76369  0.65171  0.27970  Biso   1.000  C
  H14      1.0000 0.78827  0.60641  0.33478  Biso   1.000  H
  H15      1.0000 0.53101  0.65340  0.47531  Biso   1.000  H
  C17      1.0000 0.84459  0.66003  0.59717  Biso   1.000  C
  H16      1.0000 0.69044  0.67150  0.61321  Biso   1.000  H
  C18      1.0000 0.03091  0.64161  0.57078  Biso   1.000  C
  C19      1.0000 0.49473  0.71303  0.39281  Biso   1.000  C
  H17      1.0000 0.58687  0.71500  0.30242  Biso   1.000  H
  C20      1.0000 0.70224  0.68394  0.27138  Biso   1.000  C
  C21      1.0000 0.84715  0.64404  0.23812  Biso   1.000  C
  O3       1.0000 0.90936  0.67529  0.65055  Biso   1.000  O
  C22      1.0000 0.08556  0.66956  0.53452  Biso   1.000  C
  H18      1.0000 0.05459  0.64819  0.61617  Biso   1.000  H
  C23      1.0000 0.07014  0.60207  0.56495  Biso   1.000  C
  H19      1.0000 0.44030  0.71440  0.35279  Biso   1.000  H
  H20      1.0000 0.45639  0.71661  0.42771  Biso   1.000  H
  H21      1.0000 0.55133  0.73211  0.39399  Biso   1.000  H
  O4       1.0000 0.71015  0.70946  0.22552  Biso   1.000  O
  H22      1.0000 0.80916  0.65059  0.19420  Biso   1.000  H
  C24      1.0000 0.88458  0.60420  0.23624  Biso   1.000  C
  C25      1.0000 0.94769  0.66918  0.25562  Biso   1.000  C
  C26      1.0000 0.85371  0.69319  0.69382  Biso   1.000  C
  C27      1.0000 0.10443  0.70537  0.55592  Biso   1.000  C
  C28      1.0000 0.12118  0.66083  0.47907  Biso   1.000  C
  H23      1.0000 0.15273  0.60130  0.57610  Biso   1.000  H
  H24      1.0000 0.04661  0.59410  0.52060  Biso   1.000  H
  C29      1.0000 0.02355  0.57541  0.60709  Biso   1.000  C
  H25      1.0000 0.76367  0.70171  0.20318  Biso   1.000  H
  H26      1.0000 0.81863  0.58799  0.23098  Biso   1.000  H
  H27      1.0000 0.93529  0.59800  0.27660  Biso   1.000  H
  C30      1.0000 0.94469  0.59787  0.18211  Biso   1.000  C
  C31      1.0000 0.96674  0.69753  0.21649  Biso   1.000  C
  C32      1.0000 0.02715  0.66435  0.31145  Biso   1.000  C
  H28      1.0000 0.80434  0.67581  0.70887  Biso   1.000  H
  H29      1.0000 0.90924  0.70239  0.72957  Biso   1.000  H
  H30      1.0000 0.80956  0.71361  0.67270  Biso   1.000  H
  O5       1.0000 0.06993  0.71855  0.60822  Biso   1.000  O
  C33      1.0000 0.16026  0.73025  0.52592  Biso   1.000  C
  C34      1.0000 0.17505  0.68520  0.44643  Biso   1.000  C
  H31      1.0000 0.10764  0.63681  0.46280  Biso   1.000  H
  H32      1.0000 0.94149  0.57871  0.59957  Biso   1.000  H
  H33      1.0000 0.05453  0.58190  0.65149  Biso   1.000  H
  C35      1.0000 0.04801  0.53526  0.59755  Biso   1.000  C
  H34      1.0000 0.89280  0.60401  0.14208  Biso   1.000  H
  C36      1.0000 0.98715  0.55944  0.17726  Biso   1.000  C
  H35      1.0000 0.00867  0.61490  0.18709  Biso   1.000  H
  O6       1.0000 0.88512  0.70493  0.16301  Biso   1.000  O
  C37      1.0000 0.06205  0.71909  0.23069  Biso   1.000  C
  C38      1.0000 0.12459  0.68462  0.32720  Biso   1.000  C
  H36      1.0000 0.01355  0.64620  0.34019  Biso   1.000  H
  H37      1.0000 0.02799  0.70130  0.62591  Biso   1.000  H
  C39      1.0000 0.19713  0.72027  0.47206  Biso   1.000  C
  H38      1.0000 0.17347  0.75430  0.54219  Biso   1.000  H
  C40      1.0000 0.21330  0.67548  0.38595  Biso   1.000  C
  C41      1.0000 0.97400  0.50740  0.61857  Biso   1.000  C
  C42      1.0000 0.99942  0.50871  0.63649  Biso   1.000  C
  H39      1.0000 0.12565  0.53029  0.61979  Biso   1.000  H
  H40      1.0000 0.04473  0.53141  0.55211  Biso   1.000  H
  H41      1.0000 0.12998  0.53190  0.60658  Biso   1.000  H
  H42      1.0000 0.01980  0.52920  0.55268  Biso   1.000  H
  H43      1.0000 0.92611  0.54200  0.17868  Biso   1.000  H
  H44      1.0000 0.04823  0.55450  0.21409  Biso   1.000  H
  C43      1.0000 0.03081  0.55289  0.11664  Biso   1.000  C
  C44      1.0000 0.91725  0.69794  0.10474  Biso   1.000  C
  H45      1.0000 0.07300  0.73831  0.20318  Biso   1.000  H
  C45      1.0000 0.14133  0.71230  0.28558  Biso   1.000  C
  O7       1.0000 0.25463  0.74308  0.44041  Biso   1.000  O
  H46      1.0000 0.27917  0.69131  0.38458  Biso   1.000  H
  C46      1.0000 0.25331  0.63591  0.38463  Biso   1.000  C
  H47      1.0000 0.95580  0.51569  0.65869  Biso   1.000  H
  H48      1.0000 0.90323  0.50589  0.58687  Biso   1.000  H
  H49      1.0000 0.92238  0.51621  0.63790  Biso   1.000  H
  C47      1.0000 0.99745  0.47020  0.60959  Biso   1.000  C
  C48      1.0000 0.02582  0.46941  0.62821  Biso   1.000  C
  H50      1.0000 0.04419  0.50879  0.67999  Biso   1.000  H
  C49      1.0000 0.94181  0.55821  0.05512  Biso   1.000  C
  C50      1.0000 0.93926  0.54369  0.06081  Biso   1.000  C
  H51      1.0000 0.09360  0.56981  0.11622  Biso   1.000  H
  H52      1.0000 0.06015  0.52770  0.11739  Biso   1.000  H
  H53      1.0000 0.08550  0.53261  0.12388  Biso   1.000  H
  H54      1.0000 0.07010  0.57511  0.10700  Biso   1.000  H
  H55      1.0000 0.95196  0.67379  0.10611  Biso   1.000  H
  H56      1.0000 0.85122  0.69871  0.07041  Biso   1.000  H
  H57      1.0000 0.97069  0.71661  0.09759  Biso   1.000  H
  O8       1.0000 0.23828  0.73219  0.29913  Biso   1.000  O
  C51      1.0000 0.31019  0.77384  0.47338  Biso   1.000  C
  H58      1.0000 0.18960  0.61940  0.38501  Biso   1.000  H
  H59      1.0000 0.31046  0.63111  0.42320  Biso   1.000  H
  C52      1.0000 0.30268  0.62709  0.32730  Biso   1.000  C
  H60      1.0000 0.97576  0.45300  0.64491  Biso   1.000  H
  H61      1.0000 0.95952  0.45369  0.63390  Biso   1.000  H
  H62      1.0000 0.95740  0.47031  0.56561  Biso   1.000  H
  H63      1.0000 0.03730  0.45991  0.58781  Biso   1.000  H
  H64      1.0000 0.07410  0.46171  0.61199  Biso   1.000  H
  H65      1.0000 0.09784  0.47080  0.65798  Biso   1.000  H
  H66      1.0000 0.97587  0.55390  0.01881  Biso   1.000  H
  H67      1.0000 0.88039  0.54091  0.05418  Biso   1.000  H
  H68      1.0000 0.91275  0.58321  0.05338  Biso   1.000  H
  H69      1.0000 0.97172  0.54001  0.02370  Biso   1.000  H
  H70      1.0000 0.88552  0.56381  0.05282  Biso   1.000  H
  H71      1.0000 0.90126  0.52140  0.06951  Biso   1.000  H
  H72      1.0000 0.23003  0.75280  0.27312  Biso   1.000  H
  H73      1.0000 0.35806  0.76571  0.51289  Biso   1.000  H
  H74      1.0000 0.35587  0.78579  0.44728  Biso   1.000  H
  H75      1.0000 0.25467  0.79109  0.48260  Biso   1.000  H
  H76      1.0000 0.36357  0.64459  0.32551  Biso   1.000  H
  H77      1.0000 0.24421  0.63040  0.28868  Biso   1.000  H
  C53      1.0000 0.34805  0.58856  0.32833  Biso   1.000  C
  H78      1.0000 0.40587  0.58520  0.36718  Biso   1.000  H
  H79      1.0000 0.28686  0.57120  0.32998  Biso   1.000  H
  C54      1.0000 0.39864  0.57912  0.27166  Biso   1.000  C
  H80      1.0000 0.44034  0.55589  0.27998  Biso   1.000  H
  H81      1.0000 0.45238  0.59841  0.26620  Biso   1.000  H
  C55      1.0000 0.31222  0.57554  0.21226  Biso   1.000  C
  H82      1.0000 0.27105  0.59849  0.20360  Biso   1.000  H
  H83      1.0000 0.34858  0.56989  0.17731  Biso   1.000  H
  H84      1.0000 0.26031  0.55589  0.21691  Biso   1.000  H
  C56      1.0000 0.34674  0.51760  0.49798  Biso   1.000  C
  C57      1.0000 0.30990  0.49140  0.54177  Biso   1.000  C
  H85      1.0000 0.31254  0.51040  0.45438  Biso   1.000  H
  H86      1.0000 0.42869  0.51550  0.50301  Biso   1.000  H
  C58      1.0000 0.31841  0.55696  0.50701  Biso   1.000  C
  C59      1.0000 0.34119  0.45194  0.53523  Biso   1.000  C
  H87      1.0000 0.22761  0.49290  0.53560  Biso   1.000  H
  H88      1.0000 0.34175  0.49929  0.58541  Biso   1.000  H
  H89      1.0000 0.23784  0.56061  0.49271  Biso   1.000  H
  H90      1.0000 0.35839  0.57259  0.48251  Biso   1.000  H
  H91      1.0000 0.34052  0.56329  0.55169  Biso   1.000  H
  C60      1.0000 0.30656  0.42705  0.58386  Biso   1.000  C
  H92      1.0000 0.42300  0.45019  0.53941  Biso   1.000  H
  H93      1.0000 0.30552  0.44329  0.49271  Biso   1.000  H
  C61      1.0000 0.33845  0.38715  0.57695  Biso   1.000  C
  H94      1.0000 0.22462  0.42869  0.57977  Biso   1.000  H
  H95      1.0000 0.34210  0.43570  0.62647  Biso   1.000  H
  C62      1.0000 0.27558  0.37042  0.51482  Biso   1.000  C
  H96      1.0000 0.41950  0.38691  0.57558  Biso   1.000  H
  C63      1.0000 0.32486  0.36314  0.63193  Biso   1.000  C
  C64      1.0000 0.15879  0.37020  0.49991  Biso   1.000  C
  C65      1.0000 0.32991  0.35443  0.47173  Biso   1.000  C
  C66      1.0000 0.38377  0.33025  0.64242  Biso   1.000  C
  C67      1.0000 0.25236  0.37130  0.67158  Biso   1.000  C
  C68      1.0000 0.09643  0.35596  0.44488  Biso   1.000  C
  H97      1.0000 0.12016  0.38041  0.52940  Biso   1.000  H
  C69      1.0000 0.27090  0.33923  0.41581  Biso   1.000  C
  O9       1.0000 0.44518  0.35230  0.48185  Biso   1.000  O
  O10      1.0000 0.45250  0.32214  0.60140  Biso   1.000  O
  C70      1.0000 0.37141  0.30705  0.69058  Biso   1.000  C
  C71      1.0000 0.23637  0.34829  0.72030  Biso   1.000  C
  H98      1.0000 0.21170  0.39359  0.66518  Biso   1.000  H
  C72      1.0000 0.15539  0.33997  0.40283  Biso   1.000  C
  C73      1.0000 0.96915  0.35839  0.42922  Biso   1.000  C
  H99      1.0000 0.30962  0.32850  0.38679  Biso   1.000  H
  H100     1.0000 0.46906  0.34660  0.52469  Biso   1.000  H
  C74      1.0000 0.50532  0.28697  0.60714  Biso   1.000  C
  H101     1.0000 0.41311  0.28500  0.69758  Biso   1.000  H
  C75      1.0000 0.29783  0.31606  0.72863  Biso   1.000  C
  C76      1.0000 0.15281  0.35596  0.76183  Biso   1.000  C
  O11      1.0000 0.09069  0.32471  0.34940  Biso   1.000  O
  C77      1.0000 0.91440  0.33044  0.46543  Biso   1.000  C
  H102     1.0000 0.94546  0.35181  0.38378  Biso   1.000  H
  C78      1.0000 0.92992  0.39793  0.43505  Biso   1.000  C
  H103     1.0000 0.55976  0.28560  0.64721  Biso   1.000  H
  H104     1.0000 0.54359  0.28339  0.57229  Biso   1.000  H
  H105     1.0000 0.44873  0.26789  0.60601  Biso   1.000  H
  O12      1.0000 0.28990  0.29054  0.77443  Biso   1.000  O
  H106     1.0000 0.19082  0.34941  0.80581  Biso   1.000  H
  C79      1.0000 0.11546  0.39580  0.76371  Biso   1.000  C
  C80      1.0000 0.05238  0.33082  0.74438  Biso   1.000  C
  C81      1.0000 0.14634  0.30681  0.30613  Biso   1.000  C
  C82      1.0000 0.89563  0.29463  0.44408  Biso   1.000  C
  C83      1.0000 0.87888  0.33917  0.52093  Biso   1.000  C
  H107     1.0000 0.84733  0.39870  0.42390  Biso   1.000  H
  H108     1.0000 0.95346  0.40590  0.47940  Biso   1.000  H
  C84      1.0000 0.97651  0.42459  0.39291  Biso   1.000  C
  H109     1.0000 0.23638  0.29829  0.79678  Biso   1.000  H
  H110     1.0000 0.18142  0.41201  0.76898  Biso   1.000  H
  H111     1.0000 0.06477  0.40200  0.72340  Biso   1.000  H
  C85      1.0000 0.05537  0.40213  0.81789  Biso   1.000  C
  C86      1.0000 0.97289  0.33565  0.68851  Biso   1.000  C
  C87      1.0000 0.03331  0.30247  0.78347  Biso   1.000  C
  H112     1.0000 0.19570  0.32419  0.29108  Biso   1.000  H
  H113     1.0000 0.09080  0.29761  0.27039  Biso   1.000  H
  H114     1.0000 0.19051  0.28639  0.32730  Biso   1.000  H
  O13      1.0000 0.93005  0.28145  0.39178  Biso   1.000  O
  C88      1.0000 0.83980  0.26975  0.47409  Biso   1.000  C
  C89      1.0000 0.82501  0.31480  0.55357  Biso   1.000  C
  H115     1.0000 0.89242  0.36319  0.53720  Biso   1.000  H
  H116     1.0000 0.05856  0.42129  0.40039  Biso   1.000  H
  H117     1.0000 0.94553  0.41810  0.34851  Biso   1.000  H
  C90      1.0000 0.95205  0.46474  0.40246  Biso   1.000  C
  H118     1.0000 0.10725  0.39599  0.85787  Biso   1.000  H
  C91      1.0000 0.01282  0.44056  0.82269  Biso   1.000  C
  H119     1.0000 0.99139  0.38510  0.81291  Biso   1.000  H
  C92      1.0000 0.87537  0.31538  0.67275  Biso   1.000  C
  H120     1.0000 0.98641  0.35380  0.65977  Biso   1.000  H
  C93      1.0000 0.93801  0.28091  0.76931  Biso   1.000  C
  O14      1.0000 0.11494  0.29507  0.83699  Biso   1.000  O
  H121     1.0000 0.97199  0.29870  0.37410  Biso   1.000  H
  C94      1.0000 0.80292  0.27973  0.52789  Biso   1.000  C
  H122     1.0000 0.82651  0.24570  0.45781  Biso   1.000  H
  C95      1.0000 0.78676  0.32452  0.61405  Biso   1.000  C
  C96      1.0000 0.02604  0.49260  0.38139  Biso   1.000  C
  C97      1.0000 0.00064  0.49129  0.36351  Biso   1.000  C
  H123     1.0000 0.87441  0.46971  0.38021  Biso   1.000  H
  H124     1.0000 0.95533  0.46859  0.44789  Biso   1.000  H
  H125     1.0000 0.86999  0.46810  0.39338  Biso   1.000  H
  H126     1.0000 0.98025  0.47080  0.44728  Biso   1.000  H
  H127     1.0000 0.07393  0.45800  0.82128  Biso   1.000  H
  H128     1.0000 0.95184  0.44550  0.78591  Biso   1.000  H
  C98      1.0000 0.96923  0.44711  0.88331  Biso   1.000  C
  C99      1.0000 0.85871  0.28770  0.71437  Biso   1.000  C
  H129     1.0000 0.92705  0.26169  0.79678  Biso   1.000  H
  C100     1.0000 0.08281  0.30206  0.89526  Biso   1.000  C
  O15      1.0000 0.74542  0.25692  0.55954  Biso   1.000  O
  H130     1.0000 0.72088  0.30869  0.61537  Biso   1.000  H
  C101     1.0000 0.74676  0.36409  0.61537  Biso   1.000  C
  H131     1.0000 0.04426  0.48431  0.34131  Biso   1.000  H
  H132     1.0000 0.09682  0.49411  0.41309  Biso   1.000  H
  H133     1.0000 0.07760  0.48379  0.36210  Biso   1.000  H
  C102     1.0000 0.00261  0.52980  0.39042  Biso   1.000  C
  C103     1.0000 0.97424  0.53059  0.37179  Biso   1.000  C
  H134     1.0000 0.95579  0.49121  0.32001  Biso   1.000  H
  C104     1.0000 0.05826  0.44179  0.94488  Biso   1.000  C
  C105     1.0000 0.06072  0.45631  0.93919  Biso   1.000  C
  H135     1.0000 0.90647  0.43019  0.88379  Biso   1.000  H
  H136     1.0000 0.93983  0.47230  0.88261  Biso   1.000  H
  H137     1.0000 0.91455  0.46739  0.87607  Biso   1.000  H
  H138     1.0000 0.92996  0.42489  0.89300  Biso   1.000  H
  O16      1.0000 0.76170  0.26781  0.70088  Biso   1.000  O
  H139     1.0000 0.04802  0.32621  0.89390  Biso   1.000  H
  H140     1.0000 0.14885  0.30129  0.92959  Biso   1.000  H
  H141     1.0000 0.02936  0.28339  0.90236  Biso   1.000  H
  C106     1.0000 0.68985  0.22616  0.52657  Biso   1.000  C
  H142     1.0000 0.81046  0.38060  0.61500  Biso   1.000  H
  H143     1.0000 0.68952  0.36889  0.57680  Biso   1.000  H
  C107     1.0000 0.69737  0.37291  0.67266  Biso   1.000  C
  H144     1.0000 0.02430  0.54700  0.35509  Biso   1.000  H
  H145     1.0000 0.04055  0.54631  0.36610  Biso   1.000  H
  H146     1.0000 0.04266  0.52969  0.43439  Biso   1.000  H
  H147     1.0000 0.96276  0.54009  0.41219  Biso   1.000  H
  H148     1.0000 0.92596  0.53829  0.38802  Biso   1.000  H
  H149     1.0000 0.90221  0.52920  0.34197  Biso   1.000  H
  H150     1.0000 0.02420  0.44610  0.98119  Biso   1.000  H
  H151     1.0000 0.11965  0.45909  0.94577  Biso   1.000  H
  H152     1.0000 0.08721  0.41679  0.94657  Biso   1.000  H
  H153     1.0000 0.02834  0.45999  0.97630  Biso   1.000  H
  H154     1.0000 0.11454  0.43619  0.94718  Biso   1.000  H
  H155     1.0000 0.09872  0.47860  0.93049  Biso   1.000  H
  H156     1.0000 0.77004  0.24720  0.72689  Biso   1.000  H
  H157     1.0000 0.64192  0.23429  0.48711  Biso   1.000  H
  H158     1.0000 0.64417  0.21421  0.55268  Biso   1.000  H
  H159     1.0000 0.74532  0.20891  0.51740  Biso   1.000  H
  H160     1.0000 0.63649  0.35541  0.67449  Biso   1.000  H
  H161     1.0000 0.75584  0.36960  0.71127  Biso   1.000  H
  C108     1.0000 0.65193  0.41144  0.67167  Biso   1.000  C
  H162     1.0000 0.59417  0.41480  0.63277  Biso   1.000  H
  H163     1.0000 0.71311  0.42880  0.66998  Biso   1.000  H
  C109     1.0000 0.60132  0.42088  0.72830  Biso   1.000  C
  H164     1.0000 0.55962  0.44411  0.71997  Biso   1.000  H
  H165     1.0000 0.54768  0.40159  0.73380  Biso   1.000  H
  C110     1.0000 0.68784  0.42446  0.78775  Biso   1.000  C
  H166     1.0000 0.72893  0.40151  0.79640  Biso   1.000  H
  H167     1.0000 0.65148  0.43011  0.82269  Biso   1.000  H
  H168     1.0000 0.73975  0.44411  0.78309  Biso   1.000  H
  C111     1.0000 0.57552  0.54271  0.65140  Biso   1.000  C
  C112     1.0000 0.67783  0.51411  0.68140  Biso   1.000  C
  H169     1.0000 0.58895  0.51610  0.65018  Biso   1.000  H
  C113     1.0000 0.51642  0.55191  0.70539  Biso   1.000  C
  H170     1.0000 0.59515  0.55671  0.62901  Biso   1.000  H
  C114     1.0000 0.68565  0.56310  0.66240  Biso   1.000  C
  H171     1.0000 0.52815  0.55011  0.61057  Biso   1.000  H
  C115     1.0000 0.61936  0.55101  0.67430  Biso   1.000  C
  H172     1.0000 0.74210  0.51490  0.66118  Biso   1.000  H
  H173     1.0000 0.70332  0.50849  0.72618  Biso   1.000  H
  H174     1.0000 0.62572  0.49520  0.66151  Biso   1.000  H
  C116     1.0000 0.46641  0.58927  0.70327  Biso   1.000  C
  H175     1.0000 0.53904  0.54391  0.74970  Biso   1.000  H
  H176     1.0000 0.45941  0.53461  0.68329  Biso   1.000  H
  H177     1.0000 0.57095  0.54921  0.74570  Biso   1.000  H
  H178     1.0000 0.45647  0.53379  0.70511  Biso   1.000  H
  H179     1.0000 0.67279  0.57000  0.69359  Biso   1.000  H
  H180     1.0000 0.72383  0.55791  0.62798  Biso   1.000  H
  H181     1.0000 0.67163  0.58941  0.66400  Biso   1.000  H
  H182     1.0000 0.73259  0.55521  0.70229  Biso   1.000  H
  C117     1.0000 0.39375  0.59628  0.75153  Biso   1.000  C
  H183     1.0000 0.52776  0.60739  0.71000  Biso   1.000  H
  H184     1.0000 0.42051  0.59339  0.66071  Biso   1.000  H
  C118     1.0000 0.35326  0.63599  0.75045  Biso   1.000  C
  H185     1.0000 0.32826  0.57980  0.74269  Biso   1.000  H
  H186     1.0000 0.43711  0.59039  0.79409  Biso   1.000  H
  C119     1.0000 0.27312  0.64369  0.79372  Biso   1.000  C
  H187     1.0000 0.31161  0.64109  0.70657  Biso   1.000  H
  C120     1.0000 0.45147  0.66225  0.76366  Biso   1.000  C
  C121     1.0000 0.20716  0.67505  0.78469  Biso   1.000  C
  C122     1.0000 0.26542  0.62191  0.84541  Biso   1.000  C
  C123     1.0000 0.46730  0.68869  0.72002  Biso   1.000  C
  C124     1.0000 0.53372  0.65998  0.81883  Biso   1.000  C
  O17      1.0000 0.20860  0.69991  0.73681  Biso   1.000  O
  C125     1.0000 0.13585  0.68383  0.82424  Biso   1.000  C
  C126     1.0000 0.19669  0.62996  0.88731  Biso   1.000  C
  H188     1.0000 0.30947  0.60040  0.85237  Biso   1.000  H
  O18      1.0000 0.38180  0.69385  0.66772  Biso   1.000  O
  C127     1.0000 0.56290  0.70995  0.72905  Biso   1.000  C
  C128     1.0000 0.63106  0.68056  0.82993  Biso   1.000  C
  H189     1.0000 0.52226  0.64339  0.85049  Biso   1.000  H
  H190     1.0000 0.25944  0.69379  0.71141  Biso   1.000  H
  C129     1.0000 0.13134  0.66165  0.87508  Biso   1.000  C
  H191     1.0000 0.09036  0.70501  0.81648  Biso   1.000  H
  C130     1.0000 0.19662  0.60750  0.94639  Biso   1.000  C
  C131     1.0000 0.41058  0.68583  0.60879  Biso   1.000  C
  H192     1.0000 0.57224  0.72750  0.69829  Biso   1.000  H
  C132     1.0000 0.64544  0.70547  0.78347  Biso   1.000  C
  C133     1.0000 0.72207  0.67532  0.88915  Biso   1.000  C
  O19      1.0000 0.06331  0.66923  0.91666  Biso   1.000  O
  H193     1.0000 0.11693  0.60360  0.94921  Biso   1.000  H
  C134     1.0000 0.25124  0.56978  0.94662  Biso   1.000  C
  C135     1.0000 0.25294  0.62955  0.00452  Biso   1.000  C
  H194     1.0000 0.44630  0.66181  0.61090  Biso   1.000  H
  H195     1.0000 0.34280  0.68569  0.57549  Biso   1.000  H
  H196     1.0000 0.46223  0.70449  0.59947  Biso   1.000  H
  O20      1.0000 0.74339  0.72477  0.79203  Biso   1.000  O
  H197     1.0000 0.78600  0.69109  0.88388  Biso   1.000  H
  C136     1.0000 0.76577  0.63602  0.89451  Biso   1.000  C
  C137     1.0000 0.68506  0.68905  0.94789  Biso   1.000  C
  C138     1.0000 0.00983  0.70433  0.91135  Biso   1.000  C
  H198     1.0000 0.33066  0.57300  0.94460  Biso   1.000  H
  H199     1.0000 0.21438  0.55630  0.90838  Biso   1.000  H
  C139     1.0000 0.24484  0.54678  0.00424  Biso   1.000  C
  C140     1.0000 0.19442  0.64522  0.04619  Biso   1.000  C
  C141     1.0000 0.36802  0.63411  0.01722  Biso   1.000  C
  H200     1.0000 0.73307  0.74589  0.76658  Biso   1.000  H
  H201     1.0000 0.70318  0.61921  0.89611  Biso   1.000  H
  H202     1.0000 0.82166  0.63340  0.93430  Biso   1.000  H
  C142     1.0000 0.81920  0.62516  0.83953  Biso   1.000  C
  C143     1.0000 0.70408  0.72570  0.96619  Biso   1.000  C
  C144     1.0000 0.63530  0.66702  0.98613  Biso   1.000  C
  H203     1.0000 0.06637  0.72349  0.91389  Biso   1.000  H
  H204     1.0000 0.95688  0.70599  0.87090  Biso   1.000  H
  H205     1.0000 0.96989  0.70741  0.94568  Biso   1.000  H
  H206     1.0000 0.16675  0.53881  0.00127  Biso   1.000  H
  H207     1.0000 0.26628  0.56209  0.04228  Biso   1.000  H
  C145     1.0000 0.31985  0.51326  0.01148  Biso   1.000  C
  O21      1.0000 0.07975  0.64238  0.03857  Biso   1.000  O
  C146     1.0000 0.24910  0.66503  0.09816  Biso   1.000  C
  H208     1.0000 0.40888  0.62401  0.98867  Biso   1.000  H
  C147     1.0000 0.42697  0.65278  0.06966  Biso   1.000  C
  H209     1.0000 0.87732  0.64331  0.83577  Biso   1.000  H
  H210     1.0000 0.76145  0.62611  0.80021  Biso   1.000  H
  C148     1.0000 0.87155  0.58741  0.84574  Biso   1.000  C
  O22      1.0000 0.76015  0.74619  0.93002  Biso   1.000  O
  C149     1.0000 0.66634  0.73962  0.01745  Biso   1.000  C
  H211     1.0000 0.62422  0.64200  0.97540  Biso   1.000  H
  C150     1.0000 0.60027  0.67963  0.03965  Biso   1.000  C
  H212     1.0000 0.29719  0.49771  0.97366  Biso   1.000  H
  H213     1.0000 0.39756  0.52129  0.01298  Biso   1.000  H
  C151     1.0000 0.31807  0.49031  0.06923  Biso   1.000  C
  H214     1.0000 0.04907  0.64571  0.99520  Biso   1.000  H
  C152     1.0000 0.36449  0.66893  0.10926  Biso   1.000  C
  H215     1.0000 0.20786  0.67581  0.12586  Biso   1.000  H
  C153     1.0000 0.55445  0.65406  0.08344  Biso   1.000  C
  H216     1.0000 0.81173  0.56891  0.84249  Biso   1.000  H
  H217     1.0000 0.92064  0.58509  0.88788  Biso   1.000  H
  C154     1.0000 0.93930  0.57939  0.79635  Biso   1.000  C
  C155     1.0000 0.81547  0.77851  0.95725  Biso   1.000  C
  H218     1.0000 0.67696  0.76470  0.02827  Biso   1.000  H
  C156     1.0000 0.61299  0.71675  0.05282  Biso   1.000  C
  H219     1.0000 0.24089  0.48150  0.06716  Biso   1.000  H
  H220     1.0000 0.33887  0.50589  0.10709  Biso   1.000  H
  C157     1.0000 0.39550  0.45786  0.07638  Biso   1.000  C
  O23      1.0000 0.42392  0.68965  0.15794  Biso   1.000  O
  H221     1.0000 0.57836  0.66429  0.12680  Biso   1.000  H
  C158     1.0000 0.60452  0.61552  0.08527  Biso   1.000  C
  H222     1.0000 0.89191  0.58051  0.75351  Biso   1.000  H
  C159     1.0000 0.98356  0.54009  0.81248  Biso   1.000  C
  H223     1.0000 0.88859  0.58220  0.75468  Biso   1.000  H
  H224     1.0000 0.99667  0.59871  0.79960  Biso   1.000  H
  C160     1.0000 0.99903  0.54271  0.79607  Biso   1.000  C
  H225     1.0000 0.00161  0.59691  0.79927  Biso   1.000  H
  H226     1.0000 0.86223  0.77269  0.99840  Biso   1.000  H
  H227     1.0000 0.86237  0.78819  0.92959  Biso   1.000  H
  H228     1.0000 0.75982  0.79679  0.96238  Biso   1.000  H
  O24      1.0000 0.57533  0.73334  0.10122  Biso   1.000  O
  H229     1.0000 0.47247  0.46630  0.07986  Biso   1.000  H
  H230     1.0000 0.38966  0.44430  0.11438  Biso   1.000  H
  H231     1.0000 0.37460  0.44201  0.03960  Biso   1.000  H
  C161     1.0000 0.36215  0.70793  0.19768  Biso   1.000  C
  H232     1.0000 0.68638  0.61760  0.08960  Biso   1.000  H
  H233     1.0000 0.57420  0.60311  0.04487  Biso   1.000  H
  C162     1.0000 0.58051  0.59213  0.13879  Biso   1.000  C
  H234     1.0000 0.92031  0.52339  0.80990  Biso   1.000  H
  H235     1.0000 0.94406  0.52290  0.79071  Biso   1.000  H
  H236     1.0000 0.02881  0.53250  0.78257  Biso   1.000  H
  H237     1.0000 0.02927  0.53971  0.85519  Biso   1.000  H
  H238     1.0000 0.05261  0.53949  0.83600  Biso   1.000  H
  H239     1.0000 0.03863  0.54219  0.76127  Biso   1.000  H
  H240     1.0000 0.53800  0.71530  0.11946  Biso   1.000  H
  H241     1.0000 0.32509  0.68981  0.21950  Biso   1.000  H
  H242     1.0000 0.41307  0.72270  0.22867  Biso   1.000  H
  H243     1.0000 0.30601  0.72379  0.17219  Biso   1.000  H
  H244     1.0000 0.49869  0.58990  0.13456  Biso   1.000  H
  H245     1.0000 0.61095  0.60439  0.17929  Biso   1.000  H
  C163     1.0000 0.63087  0.55439  0.13964  Biso   1.000  C
  H246     1.0000 0.59116  0.54080  0.10230  Biso   1.000  H
  H247     1.0000 0.70989  0.55671  0.13630  Biso   1.000  H
  C164     1.0000 0.62535  0.53215  0.19876  Biso   1.000  C
  H248     1.0000 0.54650  0.52620  0.19857  Biso   1.000  H
  H249     1.0000 0.65415  0.54730  0.23639  Biso   1.000  H
  C165     1.0000 0.69155  0.49738  0.20337  Biso   1.000  C
  H250     1.0000 0.76909  0.50300  0.20177  Biso   1.000  H
  H251     1.0000 0.68940  0.48510  0.24316  Biso   1.000  H
  H252     1.0000 0.65925  0.48131  0.16819  Biso   1.000  H
  C166     1.0000 0.42454  0.45729  0.34860  Biso   1.000  C
  C167     1.0000 0.48365  0.44809  0.29461  Biso   1.000  C
  H253     1.0000 0.40492  0.44329  0.37099  Biso   1.000  H
  C168     1.0000 0.32223  0.48589  0.31860  Biso   1.000  C
  C169     1.0000 0.31442  0.43690  0.33760  Biso   1.000  C
  H254     1.0000 0.47190  0.44989  0.38938  Biso   1.000  H
  H255     1.0000 0.41110  0.48390  0.34978  Biso   1.000  H
  C170     1.0000 0.53364  0.41073  0.29668  Biso   1.000  C
  H256     1.0000 0.46102  0.45609  0.25031  Biso   1.000  H
  H257     1.0000 0.54057  0.46539  0.31672  Biso   1.000  H
  C171     1.0000 0.38071  0.44899  0.32570  Biso   1.000  C
  H258     1.0000 0.42911  0.45079  0.25430  Biso   1.000  H
  H259     1.0000 0.54359  0.46621  0.29489  Biso   1.000  H
  H260     1.0000 0.25787  0.48510  0.33877  Biso   1.000  H
  H261     1.0000 0.29673  0.49151  0.27378  Biso   1.000  H
  H262     1.0000 0.37434  0.50480  0.33849  Biso   1.000  H
  H263     1.0000 0.32719  0.43000  0.30642  Biso   1.000  H
  H264     1.0000 0.27621  0.44209  0.37198  Biso   1.000  H
  H265     1.0000 0.32844  0.41059  0.33600  Biso   1.000  H
  H266     1.0000 0.26739  0.44479  0.29771  Biso   1.000  H
  C172     1.0000 0.60630  0.40372  0.24842  Biso   1.000  C
  H267     1.0000 0.47230  0.39261  0.29000  Biso   1.000  H
  H268     1.0000 0.57947  0.40661  0.33929  Biso   1.000  H
  C173     1.0000 0.64680  0.36401  0.24955  Biso   1.000  C
  H269     1.0000 0.67180  0.42020  0.25731  Biso   1.000  H
  H270     1.0000 0.56287  0.40961  0.20591  Biso   1.000  H
  C174     1.0000 0.54851  0.33775  0.23634  Biso   1.000  C
  C175     1.0000 0.72692  0.35631  0.20624  Biso   1.000  C
  H271     1.0000 0.68843  0.35891  0.29339  Biso   1.000  H
  C176     1.0000 0.53274  0.31131  0.27994  Biso   1.000  C
  C177     1.0000 0.46635  0.34002  0.18117  Biso   1.000  C
  C178     1.0000 0.79290  0.32495  0.21531  Biso   1.000  C
  C179     1.0000 0.73465  0.37809  0.15460  Biso   1.000  C
  C180     1.0000 0.43708  0.29005  0.27095  Biso   1.000  C
  O25      1.0000 0.61827  0.30615  0.33228  Biso   1.000  O
  C181     1.0000 0.36900  0.31944  0.17007  Biso   1.000  C
  H272     1.0000 0.47780  0.35661  0.14952  Biso   1.000  H
  O26      1.0000 0.79136  0.30009  0.26315  Biso   1.000  O
  C182     1.0000 0.86413  0.31617  0.17576  Biso   1.000  C
  C183     1.0000 0.80335  0.37004  0.11264  Biso   1.000  C
  H273     1.0000 0.69058  0.39960  0.14759  Biso   1.000  H
  C184     1.0000 0.35463  0.29453  0.21654  Biso   1.000  C
  H274     1.0000 0.42782  0.27250  0.30171  Biso   1.000  H
  C185     1.0000 0.58949  0.31417  0.39122  Biso   1.000  C
  C186     1.0000 0.27799  0.32468  0.11086  Biso   1.000  C
  H275     1.0000 0.74062  0.30621  0.28859  Biso   1.000  H
  C187     1.0000 0.86872  0.33835  0.12492  Biso   1.000  C
  H276     1.0000 0.90970  0.29499  0.18352  Biso   1.000  H
  C188     1.0000 0.80344  0.39250  0.05362  Biso   1.000  C
  O27      1.0000 0.25667  0.27523  0.20798  Biso   1.000  O
  H277     1.0000 0.55368  0.33819  0.38910  Biso   1.000  H
  H278     1.0000 0.65718  0.31431  0.42451  Biso   1.000  H
  H279     1.0000 0.53781  0.29551  0.40048  Biso   1.000  H
  H280     1.0000 0.21396  0.30891  0.11608  Biso   1.000  H
  C189     1.0000 0.23429  0.36398  0.10549  Biso   1.000  C
  C190     1.0000 0.31501  0.31095  0.05211  Biso   1.000  C
  O28      1.0000 0.93675  0.33077  0.08334  Biso   1.000  O
  H281     1.0000 0.88306  0.39640  0.05079  Biso   1.000  H
  C191     1.0000 0.74874  0.43022  0.05338  Biso   1.000  C
  C192     1.0000 0.74711  0.37045  0.99544  Biso   1.000  C
  H282     1.0000 0.26698  0.25411  0.23337  Biso   1.000  H
  H283     1.0000 0.29689  0.38079  0.10389  Biso   1.000  H
  H284     1.0000 0.17840  0.36660  0.06570  Biso   1.000  H
  C193     1.0000 0.18086  0.37484  0.16047  Biso   1.000  C
  C194     1.0000 0.29596  0.27430  0.03377  Biso   1.000  C
  C195     1.0000 0.36476  0.33298  0.01387  Biso   1.000  C
  C196     1.0000 0.99022  0.29567  0.08861  Biso   1.000  C
  H285     1.0000 0.66940  0.42700  0.05540  Biso   1.000  H
  H286     1.0000 0.78568  0.44370  0.09162  Biso   1.000  H
  C197     1.0000 0.75513  0.45322  0.99572  Biso   1.000  C
  C198     1.0000 0.63204  0.36589  0.98279  Biso   1.000  C
  C199     1.0000 0.80565  0.35478  0.95381  Biso   1.000  C
  H287     1.0000 0.12272  0.35669  0.16419  Biso   1.000  H
  H288     1.0000 0.23862  0.37389  0.19979  Biso   1.000  H
  C200     1.0000 0.12851  0.41259  0.15427  Biso   1.000  C
  O29      1.0000 0.23991  0.25381  0.06998  Biso   1.000  O
  C201     1.0000 0.33373  0.26038  0.98255  Biso   1.000  C
  H289     1.0000 0.37576  0.35800  0.02460  Biso   1.000  H
  C202     1.0000 0.39971  0.32037  0.96035  Biso   1.000  C
  H290     1.0000 0.93370  0.27651  0.08612  Biso   1.000  H
  H291     1.0000 0.04318  0.29401  0.12910  Biso   1.000  H
  H292     1.0000 0.03017  0.29259  0.05432  Biso   1.000  H
  H293     1.0000 0.83329  0.46119  0.99868  Biso   1.000  H
  H294     1.0000 0.73378  0.43791  0.95772  Biso   1.000  H
  C203     1.0000 0.68019  0.48674  0.98848  Biso   1.000  C
  C204     1.0000 0.57301  0.34722  0.93035  Biso   1.000  C
  H295     1.0000 0.59117  0.37599  0.01129  Biso   1.000  H
  C205     1.0000 0.75096  0.33497  0.90184  Biso   1.000  C
  O30      1.0000 0.92032  0.35762  0.96143  Biso   1.000  O
  H296     1.0000 0.18833  0.43109  0.15751  Biso   1.000  H
  H297     1.0000 0.07941  0.41491  0.11208  Biso   1.000  H
  C206     1.0000 0.06068  0.42061  0.20365  Biso   1.000  C
  C207     1.0000 0.18451  0.22149  0.04275  Biso   1.000  C
  H298     1.0000 0.32309  0.23530  0.97169  Biso   1.000  H
  C208     1.0000 0.38707  0.28325  0.94718  Biso   1.000  C
  C209     1.0000 0.44561  0.34594  0.91656  Biso   1.000  C
  H299     1.0000 0.70286  0.50229  0.02629  Biso   1.000  H
  H300     1.0000 0.60250  0.47871  0.98702  Biso   1.000  H
  C210     1.0000 0.68198  0.50969  0.93072  Biso   1.000  C
  C211     1.0000 0.63557  0.33107  0.89074  Biso   1.000  C
  H301     1.0000 0.79219  0.32419  0.87409  Biso   1.000  H
  H302     1.0000 0.95100  0.35429  0.00480  Biso   1.000  H
  H303     1.0000 0.10807  0.41949  0.24650  Biso   1.000  H
  C212     1.0000 0.01650  0.45991  0.18752  Biso   1.000  C
  H304     1.0000 0.11138  0.41780  0.24527  Biso   1.000  H
  H305     1.0000 0.00340  0.40129  0.20040  Biso   1.000  H
  C213     1.0000 0.00101  0.45729  0.20389  Biso   1.000  C
  H306     1.0000 0.99844  0.40309  0.20069  Biso   1.000  H
  H307     1.0000 0.13783  0.22731  0.00160  Biso   1.000  H
  H308     1.0000 0.13769  0.21181  0.07041  Biso   1.000  H
  H309     1.0000 0.24023  0.20321  0.03758  Biso   1.000  H
  O31      1.0000 0.42474  0.26666  0.89879  Biso   1.000  O
  H310     1.0000 0.42163  0.33571  0.87320  Biso   1.000  H
  C214     1.0000 0.39554  0.38448  0.91473  Biso   1.000  C
  H311     1.0000 0.75916  0.51850  0.93279  Biso   1.000  H
  H312     1.0000 0.66119  0.49411  0.89291  Biso   1.000  H
  C215     1.0000 0.60457  0.54214  0.92362  Biso   1.000  C
  O32      1.0000 0.57614  0.31035  0.84207  Biso   1.000  O
  H313     1.0000 0.07975  0.47661  0.19010  Biso   1.000  H
  H314     1.0000 0.05600  0.47710  0.20929  Biso   1.000  H
  H315     1.0000 0.97123  0.46750  0.21738  Biso   1.000  H
  H316     1.0000 0.97080  0.46029  0.14481  Biso   1.000  H
  H317     1.0000 0.94737  0.46051  0.16400  Biso   1.000  H
  H318     1.0000 0.96141  0.45781  0.23869  Biso   1.000  H
  H319     1.0000 0.46204  0.28470  0.88049  Biso   1.000  H
  H320     1.0000 0.31369  0.38240  0.91040  Biso   1.000  H
  H321     1.0000 0.42584  0.39689  0.95508  Biso   1.000  H
  C216     1.0000 0.41953  0.40787  0.86116  Biso   1.000  C
  H322     1.0000 0.52758  0.53370  0.92009  Biso   1.000  H
  H323     1.0000 0.61040  0.55570  0.88562  Biso   1.000  H
  H324     1.0000 0.62546  0.55799  0.96040  Biso   1.000  H
  C217     1.0000 0.63790  0.29207  0.80228  Biso   1.000  C
  H325     1.0000 0.50135  0.41010  0.86539  Biso   1.000  H
  H326     1.0000 0.38903  0.39561  0.82071  Biso   1.000  H
  C218     1.0000 0.36919  0.44561  0.86036  Biso   1.000  C
  H327     1.0000 0.67497  0.31019  0.78050  Biso   1.000  H
  H328     1.0000 0.58698  0.27730  0.77128  Biso   1.000  H
  H329     1.0000 0.69406  0.27621  0.82781  Biso   1.000  H
  H330     1.0000 0.40883  0.45920  0.89770  Biso   1.000  H
  H331     1.0000 0.29018  0.44329  0.86370  Biso   1.000  H
  C219     1.0000 0.37462  0.46785  0.80119  Biso   1.000  C
  H332     1.0000 0.45355  0.47380  0.80138  Biso   1.000  H
  H333     1.0000 0.34583  0.45270  0.76362  Biso   1.000  H
  C220     1.0000 0.30849  0.50262  0.79659  Biso   1.000  C
  H334     1.0000 0.23096  0.49700  0.79818  Biso   1.000  H
  H335     1.0000 0.31065  0.51490  0.75680  Biso   1.000  H
  H336     1.0000 0.34073  0.51869  0.83181  Biso   1.000  H
  C221     1.0000 0.81544  0.72149  0.45725  Biso   1.000  C
  O33      1.0000 0.76012  0.75381  0.43002  Biso   1.000  O
  H337     1.0000 0.86220  0.72731  0.49840  Biso   1.000  H
  H338     1.0000 0.86234  0.71181  0.42959  Biso   1.000  H
  H339     1.0000 0.75979  0.70321  0.46238  Biso   1.000  H
  C222     1.0000 0.70407  0.77430  0.46623  Biso   1.000  C
  C223     1.0000 0.68502  0.81095  0.44789  Biso   1.000  C
  C224     1.0000 0.66639  0.76038  0.51745  Biso   1.000  C
  C225     1.0000 0.72204  0.82468  0.38915  Biso   1.000  C
  C226     1.0000 0.63519  0.83298  0.48613  Biso   1.000  C
  H340     1.0000 0.67703  0.73530  0.52831  Biso   1.000  H
  C227     1.0000 0.61304  0.78325  0.55282  Biso   1.000  C
  C228     1.0000 0.63103  0.81944  0.32993  Biso   1.000  C
  H341     1.0000 0.78597  0.80891  0.38388  Biso   1.000  H
  C229     1.0000 0.76574  0.86398  0.39451  Biso   1.000  C
  C230     1.0000 0.60032  0.82037  0.53965  Biso   1.000  C
  H342     1.0000 0.62419  0.85800  0.47540  Biso   1.000  H
  O34      1.0000 0.57538  0.76666  0.60121  Biso   1.000  O
  C231     1.0000 0.64541  0.79453  0.28346  Biso   1.000  C
  C232     1.0000 0.53368  0.84002  0.31883  Biso   1.000  C
  H343     1.0000 0.70315  0.88079  0.39611  Biso   1.000  H
  H344     1.0000 0.82163  0.86660  0.43430  Biso   1.000  H
  C233     1.0000 0.81917  0.87484  0.33953  Biso   1.000  C
  C234     1.0000 0.55450  0.84594  0.58344  Biso   1.000  C
  H345     1.0000 0.53807  0.78470  0.61951  Biso   1.000  H
  O35      1.0000 0.74336  0.77523  0.29202  Biso   1.000  O
  C235     1.0000 0.56287  0.79005  0.22905  Biso   1.000  C
  C236     1.0000 0.45144  0.83775  0.26366  Biso   1.000  C
  H346     1.0000 0.52223  0.85661  0.35049  Biso   1.000  H
  H347     1.0000 0.87731  0.85669  0.33581  Biso   1.000  H
  H348     1.0000 0.76141  0.87389  0.30021  Biso   1.000  H
  C237     1.0000 0.87152  0.91259  0.34573  Biso   1.000  C
  C238     1.0000 0.42702  0.84722  0.56966  Biso   1.000  C
  H349     1.0000 0.57841  0.83571  0.62680  Biso   1.000  H
  C239     1.0000 0.60457  0.88448  0.58527  Biso   1.000  C
  H350     1.0000 0.73295  0.75411  0.26658  Biso   1.000  H
  C240     1.0000 0.46727  0.81131  0.22002  Biso   1.000  C
  H351     1.0000 0.57221  0.77250  0.19829  Biso   1.000  H
  C241     1.0000 0.35323  0.86401  0.25045  Biso   1.000  C
  H352     1.0000 0.81170  0.93109  0.34249  Biso   1.000  H
  H353     1.0000 0.92060  0.91491  0.38788  Biso   1.000  H
  C242     1.0000 0.93927  0.92061  0.29635  Biso   1.000  C
  C243     1.0000 0.36454  0.83107  0.60926  Biso   1.000  C
  C244     1.0000 0.36807  0.86589  0.51721  Biso   1.000  C
  H354     1.0000 0.68643  0.88240  0.58960  Biso   1.000  H
  H355     1.0000 0.57417  0.89689  0.54487  Biso   1.000  H
  C245     1.0000 0.58056  0.90787  0.63879  Biso   1.000  C
  O36      1.0000 0.38176  0.80615  0.16772  Biso   1.000  O
  C246     1.0000 0.27309  0.85631  0.29372  Biso   1.000  C
  H356     1.0000 0.31160  0.85891  0.20661  Biso   1.000  H
  C247     1.0000 0.39372  0.90372  0.25153  Biso   1.000  C
  H357     1.0000 0.89188  0.91949  0.25350  Biso   1.000  H
  C248     1.0000 0.98345  0.95991  0.31248  Biso   1.000  C
  H358     1.0000 0.88856  0.91780  0.25468  Biso   1.000  H
  H359     1.0000 0.99655  0.90129  0.29960  Biso   1.000  H
  C249     1.0000 0.99902  0.95729  0.29612  Biso   1.000  C
  H360     1.0000 0.00159  0.90309  0.29931  Biso   1.000  H
  O37      1.0000 0.42397  0.81035  0.65794  Biso   1.000  O
  C250     1.0000 0.24915  0.83497  0.59816  Biso   1.000  C
  C251     1.0000 0.25301  0.87045  0.50456  Biso   1.000  C
  H361     1.0000 0.40886  0.87599  0.48871  Biso   1.000  H
  H362     1.0000 0.49876  0.91010  0.63461  Biso   1.000  H
  H363     1.0000 0.61100  0.89561  0.67929  Biso   1.000  H
  C252     1.0000 0.63092  0.94561  0.63964  Biso   1.000  C
  C253     1.0000 0.41054  0.81417  0.10879  Biso   1.000  C
  C254     1.0000 0.20713  0.82495  0.28469  Biso   1.000  C
  C255     1.0000 0.26539  0.87809  0.34541  Biso   1.000  C
  H364     1.0000 0.32823  0.92020  0.24269  Biso   1.000  H
  H365     1.0000 0.43708  0.90961  0.29409  Biso   1.000  H
  C256     1.0000 0.46637  0.91073  0.20327  Biso   1.000  C
  H366     1.0000 0.92028  0.97661  0.30990  Biso   1.000  H
  H367     1.0000 0.94403  0.97710  0.29071  Biso   1.000  H
  H368     1.0000 0.02880  0.96750  0.28262  Biso   1.000  H
  H369     1.0000 0.02915  0.96029  0.35519  Biso   1.000  H
  H370     1.0000 0.05258  0.96051  0.33600  Biso   1.000  H
  H371     1.0000 0.03862  0.95781  0.26131  Biso   1.000  H
  C257     1.0000 0.36222  0.79207  0.69773  Biso   1.000  C
  H372     1.0000 0.20792  0.82419  0.62591  Biso   1.000  H
  C258     1.0000 0.19447  0.85478  0.54619  Biso   1.000  C
  C259     1.0000 0.19659  0.89250  0.44638  Biso   1.000  C
  H373     1.0000 0.59121  0.95920  0.60230  Biso   1.000  H
  H374     1.0000 0.70994  0.94329  0.63630  Biso   1.000  H
  C260     1.0000 0.62540  0.96785  0.69876  Biso   1.000  C
  H375     1.0000 0.44627  0.83819  0.11090  Biso   1.000  H
  H376     1.0000 0.34277  0.81431  0.07549  Biso   1.000  H
  H377     1.0000 0.46222  0.79551  0.09952  Biso   1.000  H
  O38      1.0000 0.20857  0.80009  0.23681  Biso   1.000  O
  C261     1.0000 0.13582  0.81617  0.32424  Biso   1.000  C
  C262     1.0000 0.19666  0.87004  0.38731  Biso   1.000  C
  H378     1.0000 0.30946  0.89960  0.35241  Biso   1.000  H
  H379     1.0000 0.52773  0.89261  0.21000  Biso   1.000  H
  H380     1.0000 0.42048  0.90661  0.16071  Biso   1.000  H
  C263     1.0000 0.51639  0.94809  0.20539  Biso   1.000  C
  H381     1.0000 0.32514  0.81019  0.71950  Biso   1.000  H
  H382     1.0000 0.41312  0.77730  0.72867  Biso   1.000  H
  H383     1.0000 0.30606  0.77621  0.67219  Biso   1.000  H
  O39      1.0000 0.07980  0.85762  0.53857  Biso   1.000  O
  H384     1.0000 0.11689  0.89640  0.44921  Biso   1.000  H
  C264     1.0000 0.25121  0.93022  0.44662  Biso   1.000  C
  H385     1.0000 0.54655  0.97380  0.69857  Biso   1.000  H
  H386     1.0000 0.65420  0.95270  0.73639  Biso   1.000  H
  C265     1.0000 0.69160  0.00262  0.70337  Biso   1.000  C
  H387     1.0000 0.25941  0.80621  0.21141  Biso   1.000  H
  C266     1.0000 0.13131  0.83835  0.37508  Biso   1.000  C
  H388     1.0000 0.09033  0.79499  0.31648  Biso   1.000  H
  H389     1.0000 0.53901  0.95609  0.24969  Biso   1.000  H
  H390     1.0000 0.45938  0.96539  0.18329  Biso   1.000  H
  C267     1.0000 0.61933  0.94899  0.17430  Biso   1.000  C
  H391     1.0000 0.57092  0.95079  0.24570  Biso   1.000  H
  H392     1.0000 0.45644  0.96621  0.20511  Biso   1.000  H
  C268     1.0000 0.57549  0.95729  0.15140  Biso   1.000  C
  H393     1.0000 0.04903  0.85429  0.49520  Biso   1.000  H
  H394     1.0000 0.33063  0.92700  0.44460  Biso   1.000  H
  H395     1.0000 0.21435  0.94370  0.40838  Biso   1.000  H
  C269     1.0000 0.24489  0.95322  0.50423  Biso   1.000  C
  H396     1.0000 0.76914  0.99700  0.70177  Biso   1.000  H
  H397     1.0000 0.68946  0.01490  0.74321  Biso   1.000  H
  H398     1.0000 0.65930  0.01869  0.66819  Biso   1.000  H
  O40      1.0000 0.06320  0.83077  0.41666  Biso   1.000  O
  H399     1.0000 0.67276  0.93000  0.19359  Biso   1.000  H
  H400     1.0000 0.59511  0.94329  0.12901  Biso   1.000  H
  C270     1.0000 0.67780  0.98589  0.18140  Biso   1.000  C
  C271     1.0000 0.68562  0.93690  0.16240  Biso   1.000  C
  H401     1.0000 0.52813  0.94989  0.11062  Biso   1.000  H
  H402     1.0000 0.58891  0.98390  0.15017  Biso   1.000  H
  H403     1.0000 0.16680  0.96119  0.50127  Biso   1.000  H
  H404     1.0000 0.26633  0.93791  0.54228  Biso   1.000  H
  C272     1.0000 0.31992  0.98674  0.51152  Biso   1.000  C
  C273     1.0000 0.00980  0.79567  0.41135  Biso   1.000  C
  H405     1.0000 0.74207  0.98510  0.16118  Biso   1.000  H
  H406     1.0000 0.70329  0.99151  0.22618  Biso   1.000  H
  H407     1.0000 0.62569  0.00480  0.16151  Biso   1.000  H
  H408     1.0000 0.72380  0.94209  0.12798  Biso   1.000  H
  H409     1.0000 0.67159  0.91059  0.16400  Biso   1.000  H
  H410     1.0000 0.73256  0.94479  0.20229  Biso   1.000  H
  H411     1.0000 0.39761  0.97871  0.51298  Biso   1.000  H
  H412     1.0000 0.29709  0.00229  0.47371  Biso   1.000  H
  C274     1.0000 0.31813  0.00969  0.56928  Biso   1.000  C
  H413     1.0000 0.06633  0.77651  0.41388  Biso   1.000  H
  H414     1.0000 0.95685  0.79401  0.37090  Biso   1.000  H
  H415     1.0000 0.96986  0.79259  0.44568  Biso   1.000  H
  H416     1.0000 0.33892  0.99411  0.60709  Biso   1.000  H
  H417     1.0000 0.24095  0.01850  0.56721  Biso   1.000  H
  C275     1.0000 0.39555  0.04214  0.57638  Biso   1.000  C
  H418     1.0000 0.47253  0.03370  0.57991  Biso   1.000  H
  H419     1.0000 0.38971  0.05570  0.61438  Biso   1.000  H
  H420     1.0000 0.37465  0.05799  0.53960  Biso   1.000  H
  C276     1.0000 0.18454  0.27851  0.54275  Biso   1.000  C
  O41      1.0000 0.23994  0.24619  0.56999  Biso   1.000  O
  H421     1.0000 0.13786  0.27269  0.50160  Biso   1.000  H
  H422     1.0000 0.13772  0.28819  0.57041  Biso   1.000  H
  H423     1.0000 0.24026  0.29679  0.53758  Biso   1.000  H
  C277     1.0000 0.29600  0.22570  0.53377  Biso   1.000  C
  C278     1.0000 0.33368  0.23962  0.48255  Biso   1.000  C
  C279     1.0000 0.31502  0.18905  0.55207  Biso   1.000  C
  C280     1.0000 0.38702  0.21675  0.44718  Biso   1.000  C
  H424     1.0000 0.32304  0.26470  0.47169  Biso   1.000  H
  C281     1.0000 0.36479  0.16702  0.51388  Biso   1.000  C
  C282     1.0000 0.27803  0.17532  0.61086  Biso   1.000  C
  O42      1.0000 0.42469  0.23334  0.39879  Biso   1.000  O
  C283     1.0000 0.39966  0.17963  0.46035  Biso   1.000  C
  H425     1.0000 0.37579  0.14200  0.52460  Biso   1.000  H
  C284     1.0000 0.36902  0.18056  0.67002  Biso   1.000  C
  H426     1.0000 0.21400  0.19109  0.61608  Biso   1.000  H
  C285     1.0000 0.23432  0.13602  0.60549  Biso   1.000  C
  H427     1.0000 0.46199  0.21530  0.38049  Biso   1.000  H
  C286     1.0000 0.44556  0.15406  0.41657  Biso   1.000  C
  C287     1.0000 0.35466  0.20547  0.71654  Biso   1.000  C
  C288     1.0000 0.46638  0.15998  0.68117  Biso   1.000  C
  H428     1.0000 0.29692  0.11921  0.60390  Biso   1.000  H
  H429     1.0000 0.17843  0.13340  0.56571  Biso   1.000  H
  C289     1.0000 0.18089  0.12516  0.66048  Biso   1.000  C
  C290     1.0000 0.57296  0.15278  0.43035  Biso   1.000  C
  H430     1.0000 0.42166  0.16429  0.37320  Biso   1.000  H
  C291     1.0000 0.39549  0.11552  0.41473  Biso   1.000  C
  O43      1.0000 0.25670  0.22477  0.70798  Biso   1.000  O
  C292     1.0000 0.43719  0.20995  0.77095  Biso   1.000  C
  C293     1.0000 0.54852  0.16225  0.73629  Biso   1.000  C
  H431     1.0000 0.47782  0.14339  0.64947  Biso   1.000  H
  H432     1.0000 0.12275  0.14331  0.66419  Biso   1.000  H
  H433     1.0000 0.23865  0.12611  0.69979  Biso   1.000  H
  C294     1.0000 0.12855  0.08741  0.65427  Biso   1.000  C
  C295     1.0000 0.63552  0.16893  0.39074  Biso   1.000  C
  C296     1.0000 0.63197  0.13411  0.48274  Biso   1.000  C
  H434     1.0000 0.31364  0.11760  0.41040  Biso   1.000  H
  H435     1.0000 0.42579  0.10311  0.45509  Biso   1.000  H
  C297     1.0000 0.41948  0.09213  0.36116  Biso   1.000  C
  H436     1.0000 0.26701  0.24589  0.73338  Biso   1.000  H
  C298     1.0000 0.53277  0.18869  0.77994  Biso   1.000  C
  H437     1.0000 0.42784  0.22750  0.80167  Biso   1.000  H
  C299     1.0000 0.64683  0.13599  0.74955  Biso   1.000  C
  H438     1.0000 0.18837  0.06891  0.65751  Biso   1.000  H
  H439     1.0000 0.07944  0.08509  0.61208  Biso   1.000  H
  C300     1.0000 0.06070  0.07939  0.70360  Biso   1.000  C
  O44      1.0000 0.57609  0.18965  0.34207  Biso   1.000  O
  C301     1.0000 0.75089  0.16503  0.40180  Biso   1.000  C
  C302     1.0000 0.74706  0.12955  0.49544  Biso   1.000  C
  H440     1.0000 0.59120  0.12401  0.51129  Biso   1.000  H
  H441     1.0000 0.50130  0.08990  0.36539  Biso   1.000  H
  H442     1.0000 0.38898  0.10439  0.32071  Biso   1.000  H
  C303     1.0000 0.36914  0.05439  0.36036  Biso   1.000  C
  O45      1.0000 0.61830  0.19385  0.83228  Biso   1.000  O
  C304     1.0000 0.72695  0.14369  0.70624  Biso   1.000  C
  H443     1.0000 0.68846  0.14109  0.79339  Biso   1.000  H
  C305     1.0000 0.60633  0.09628  0.74843  Biso   1.000  C
  H444     1.0000 0.10819  0.08051  0.74650  Biso   1.000  H
  C306     1.0000 0.01651  0.04009  0.68747  Biso   1.000  C
  H445     1.0000 0.11141  0.08220  0.74527  Biso   1.000  H
  H446     1.0000 0.00343  0.09871  0.70041  Biso   1.000  H
  C307     1.0000 0.00104  0.04271  0.70389  Biso   1.000  C
  H447     1.0000 0.99847  0.09691  0.70069  Biso   1.000  H
  C308     1.0000 0.63785  0.20793  0.30228  Biso   1.000  C
  H448     1.0000 0.79214  0.17581  0.37410  Biso   1.000  H
  C309     1.0000 0.80560  0.14522  0.45382  Biso   1.000  C
  C310     1.0000 0.80347  0.10750  0.55362  Biso   1.000  C
  H449     1.0000 0.40886  0.04080  0.39771  Biso   1.000  H
  H450     1.0000 0.29013  0.05671  0.36370  Biso   1.000  H
  C311     1.0000 0.37457  0.03215  0.30120  Biso   1.000  C
  C312     1.0000 0.58952  0.18583  0.89122  Biso   1.000  C
  C313     1.0000 0.73468  0.12191  0.65460  Biso   1.000  C
  C314     1.0000 0.79293  0.17505  0.71532  Biso   1.000  C
  H451     1.0000 0.67181  0.07980  0.75727  Biso   1.000  H
  H452     1.0000 0.56290  0.09039  0.70591  Biso   1.000  H
  C315     1.0000 0.53367  0.08927  0.79668  Biso   1.000  C
  H453     1.0000 0.07978  0.02339  0.69011  Biso   1.000  H
  H454     1.0000 0.05603  0.02290  0.70930  Biso   1.000  H
  H455     1.0000 0.97127  0.03250  0.71738  Biso   1.000  H
  H456     1.0000 0.97081  0.03971  0.64477  Biso   1.000  H
  H457     1.0000 0.94749  0.03949  0.66400  Biso   1.000  H
  H458     1.0000 0.96145  0.04219  0.73869  Biso   1.000  H
  H459     1.0000 0.67492  0.18981  0.28050  Biso   1.000  H
  H460     1.0000 0.58693  0.22270  0.27128  Biso   1.000  H
  H461     1.0000 0.69401  0.22379  0.32782  Biso   1.000  H
  O46      1.0000 0.92027  0.14238  0.46143  Biso   1.000  O
  H462     1.0000 0.88309  0.10360  0.55080  Biso   1.000  H
  C316     1.0000 0.74877  0.06978  0.55338  Biso   1.000  C
  C317     1.0000 0.80338  0.12996  0.61264  Biso   1.000  C
  H463     1.0000 0.45350  0.02620  0.30138  Biso   1.000  H
  H464     1.0000 0.34578  0.04730  0.26362  Biso   1.000  H
  C318     1.0000 0.30844  0.99738  0.29659  Biso   1.000  C
  H465     1.0000 0.55371  0.16181  0.88910  Biso   1.000  H
  H466     1.0000 0.65727  0.18569  0.92447  Biso   1.000  H
  H467     1.0000 0.53785  0.20449  0.90048  Biso   1.000  H
  H468     1.0000 0.69061  0.10040  0.64759  Biso   1.000  H
  C319     1.0000 0.86416  0.18383  0.67576  Biso   1.000  C
  O47      1.0000 0.79139  0.19991  0.76315  Biso   1.000  O
  H469     1.0000 0.47234  0.10739  0.79000  Biso   1.000  H
  H470     1.0000 0.57950  0.09339  0.83929  Biso   1.000  H
  C320     1.0000 0.48368  0.05191  0.79461  Biso   1.000  C
  H471     1.0000 0.95103  0.14571  0.50480  Biso   1.000  H
  H472     1.0000 0.66943  0.07300  0.55541  Biso   1.000  H
  H473     1.0000 0.78570  0.05630  0.59157  Biso   1.000  H
  C321     1.0000 0.75508  0.04678  0.49572  Biso   1.000  C
  C322     1.0000 0.86874  0.16165  0.62487  Biso   1.000  C
  H474     1.0000 0.23091  0.00300  0.29819  Biso   1.000  H
  H475     1.0000 0.31060  0.98510  0.25680  Biso   1.000  H
  H476     1.0000 0.34068  0.98131  0.33181  Biso   1.000  H
  H477     1.0000 0.90972  0.20501  0.68347  Biso   1.000  H
  H478     1.0000 0.74065  0.19379  0.78859  Biso   1.000  H
  H479     1.0000 0.46106  0.04391  0.75031  Biso   1.000  H
  H480     1.0000 0.54067  0.03461  0.81667  Biso   1.000  H
  C323     1.0000 0.38074  0.05101  0.82570  Biso   1.000  C
  H481     1.0000 0.42915  0.04921  0.75431  Biso   1.000  H
  H482     1.0000 0.54362  0.03379  0.79489  Biso   1.000  H
  C324     1.0000 0.42457  0.04271  0.84860  Biso   1.000  C
  H483     1.0000 0.83324  0.03881  0.49868  Biso   1.000  H
  H484     1.0000 0.73371  0.06209  0.45767  Biso   1.000  H
  C325     1.0000 0.68014  0.01326  0.48848  Biso   1.000  C
  O48      1.0000 0.93678  0.16923  0.58334  Biso   1.000  O
  H485     1.0000 0.32720  0.07000  0.80637  Biso   1.000  H
  H486     1.0000 0.40495  0.05671  0.87099  Biso   1.000  H
  C326     1.0000 0.32227  0.01411  0.81860  Biso   1.000  C
  C327     1.0000 0.31445  0.06310  0.83760  Biso   1.000  C
  H487     1.0000 0.47193  0.05011  0.88938  Biso   1.000  H
  H488     1.0000 0.41113  0.01610  0.84978  Biso   1.000  H
  H489     1.0000 0.60244  0.02129  0.48697  Biso   1.000  H
  H490     1.0000 0.70289  0.99771  0.52629  Biso   1.000  H
  C328     1.0000 0.68193  0.99031  0.43072  Biso   1.000  C
  C329     1.0000 0.99025  0.20433  0.58861  Biso   1.000  C
  H491     1.0000 0.25798  0.01490  0.83878  Biso   1.000  H
  H492     1.0000 0.29676  0.00849  0.77378  Biso   1.000  H
  H493     1.0000 0.37438  0.99520  0.83849  Biso   1.000  H
  H494     1.0000 0.27624  0.05791  0.87198  Biso   1.000  H
  H495     1.0000 0.32847  0.08941  0.83600  Biso   1.000  H
  H496     1.0000 0.26740  0.05521  0.79767  Biso   1.000  H
  H497     1.0000 0.66114  0.00589  0.39291  Biso   1.000  H
  H498     1.0000 0.75911  0.98150  0.43279  Biso   1.000  H
  C330     1.0000 0.60450  0.95786  0.42357  Biso   1.000  C
  H499     1.0000 0.93371  0.22349  0.58607  Biso   1.000  H
  H500     1.0000 0.04322  0.20599  0.62910  Biso   1.000  H
  H501     1.0000 0.03018  0.20741  0.55428  Biso   1.000  H
  H502     1.0000 0.52753  0.96630  0.42009  Biso   1.000  H
  H503     1.0000 0.61034  0.94430  0.38557  Biso   1.000  H
  H504     1.0000 0.62541  0.94201  0.46040  Biso   1.000  H
  O49      1.0000 0.71018  0.79054  0.72552  Biso   1.000  O
  H505     1.0000 0.76370  0.79829  0.70318  Biso   1.000  H
  C331     1.0000 0.70225  0.81606  0.77133  Biso   1.000  C
  C332     1.0000 0.62867  0.80705  0.80938  Biso   1.000  C
  C333     1.0000 0.76373  0.84829  0.77970  Biso   1.000  C
  C334     1.0000 0.61625  0.83025  0.85759  Biso   1.000  C
  H506     1.0000 0.58697  0.78500  0.80237  Biso   1.000  H
  C335     1.0000 0.74772  0.87130  0.82838  Biso   1.000  C
  C336     1.0000 0.84719  0.85596  0.73813  Biso   1.000  C
  O50      1.0000 0.54758  0.82214  0.89855  Biso   1.000  O
  C337     1.0000 0.67522  0.86314  0.86803  Biso   1.000  C
  H507     1.0000 0.78830  0.89359  0.83478  Biso   1.000  H
  H508     1.0000 0.80919  0.84941  0.69420  Biso   1.000  H
  C338     1.0000 0.88461  0.89580  0.73624  Biso   1.000  C
  C339     1.0000 0.94772  0.83082  0.75562  Biso   1.000  C
  C340     1.0000 0.49476  0.78697  0.89282  Biso   1.000  C
  C341     1.0000 0.66165  0.88715  0.92306  Biso   1.000  C
  H509     1.0000 0.81866  0.91201  0.73098  Biso   1.000  H
  H510     1.0000 0.93533  0.90200  0.77660  Biso   1.000  H
  C342     1.0000 0.94473  0.90213  0.68211  Biso   1.000  C
  C343     1.0000 0.96677  0.80247  0.71649  Biso   1.000  C
  C344     1.0000 0.02718  0.83565  0.81145  Biso   1.000  C
  H511     1.0000 0.44033  0.78560  0.85279  Biso   1.000  H
  H512     1.0000 0.45640  0.78339  0.92767  Biso   1.000  H
  H513     1.0000 0.55136  0.76789  0.89399  Biso   1.000  H
  C345     1.0000 0.72449  0.87042  0.98514  Biso   1.000  C
  H514     1.0000 0.58058  0.88691  0.92437  Biso   1.000  H
  C346     1.0000 0.69354  0.92705  0.91614  Biso   1.000  C
  H515     1.0000 0.89283  0.89599  0.64209  Biso   1.000  H
  C347     1.0000 0.98718  0.94056  0.67727  Biso   1.000  C
  H516     1.0000 0.00870  0.88510  0.68710  Biso   1.000  H
  O51      1.0000 0.88514  0.79507  0.66297  Biso   1.000  O
  C348     1.0000 0.06207  0.78091  0.73065  Biso   1.000  C
  C349     1.0000 0.12462  0.81538  0.82721  Biso   1.000  C
  H517     1.0000 0.01367  0.85380  0.84019  Biso   1.000  H
  C350     1.0000 0.67000  0.85443  0.02822  Biso   1.000  C
  C351     1.0000 0.84121  0.87020  0.00005  Biso   1.000  C
  H518     1.0000 0.77545  0.92869  0.92019  Biso   1.000  H
  H519     1.0000 0.65798  0.93570  0.87349  Biso   1.000  H
  C352     1.0000 0.65888  0.95194  0.96473  Biso   1.000  C
  H520     1.0000 0.92615  0.95800  0.67868  Biso   1.000  H
  H521     1.0000 0.04826  0.94550  0.71409  Biso   1.000  H
  C353     1.0000 0.03084  0.94711  0.61664  Biso   1.000  C
  C354     1.0000 0.91728  0.80206  0.60474  Biso   1.000  C
  H522     1.0000 0.07303  0.76169  0.70318  Biso   1.000  H
  C355     1.0000 0.14136  0.78770  0.78558  Biso   1.000  C
  C356     1.0000 0.21333  0.82452  0.88595  Biso   1.000  C
  O52      1.0000 0.55482  0.85230  0.01811  Biso   1.000  O
  C357     1.0000 0.72911  0.83923  0.08419  Biso   1.000  C
  H523     1.0000 0.87994  0.88041  0.97061  Biso   1.000  H
  C358     1.0000 0.90358  0.85596  0.05512  Biso   1.000  C
  H524     1.0000 0.57702  0.95019  0.96059  Biso   1.000  H
  C359     1.0000 0.69011  0.99140  0.95824  Biso   1.000  C
  H525     1.0000 0.69449  0.94329  0.00729  Biso   1.000  H
  C360     1.0000 0.94182  0.94179  0.55508  Biso   1.000  C
  C361     1.0000 0.93929  0.95631  0.56081  Biso   1.000  C
  H526     1.0000 0.09361  0.93019  0.61617  Biso   1.000  H
  H527     1.0000 0.06018  0.97230  0.61739  Biso   1.000  H
  H528     1.0000 0.08555  0.96739  0.62393  Biso   1.000  H
  H529     1.0000 0.07013  0.92489  0.60700  Biso   1.000  H
  H530     1.0000 0.95199  0.82621  0.60611  Biso   1.000  H
  H531     1.0000 0.85125  0.80129  0.57041  Biso   1.000  H
  H532     1.0000 0.97072  0.78339  0.59759  Biso   1.000  H
  O53      1.0000 0.23831  0.76781  0.79913  Biso   1.000  O
  H533     1.0000 0.27920  0.80869  0.88458  Biso   1.000  H
  C362     1.0000 0.25334  0.86409  0.88463  Biso   1.000  C
  C363     1.0000 0.17509  0.81480  0.94643  Biso   1.000  C
  H534     1.0000 0.53102  0.84660  0.97526  Biso   1.000  H
  C364     1.0000 0.84453  0.83997  0.09712  Biso   1.000  C
  H535     1.0000 0.69037  0.82850  0.11316  Biso   1.000  H
  C365     1.0000 0.03086  0.85839  0.07079  Biso   1.000  C
  H536     1.0000 0.77249  0.99290  0.96440  Biso   1.000  H
  H537     1.0000 0.65835  0.99929  0.91459  Biso   1.000  H
  C366     1.0000 0.65326  0.01760  0.00198  Biso   1.000  C
  H538     1.0000 0.97590  0.94610  0.51881  Biso   1.000  H
  H539     1.0000 0.88042  0.95909  0.55418  Biso   1.000  H
  H540     1.0000 0.91278  0.91679  0.55338  Biso   1.000  H
  H541     1.0000 0.97167  0.95999  0.52371  Biso   1.000  H
  H542     1.0000 0.88555  0.93619  0.55282  Biso   1.000  H
  H543     1.0000 0.90129  0.97860  0.56951  Biso   1.000  H
  H544     1.0000 0.23004  0.74720  0.77307  Biso   1.000  H
  H545     1.0000 0.18964  0.88060  0.88501  Biso   1.000  H
  H546     1.0000 0.31057  0.86889  0.92320  Biso   1.000  H
  C367     1.0000 0.30271  0.87291  0.82730  Biso   1.000  C
  C368     1.0000 0.19716  0.77973  0.97206  Biso   1.000  C
  C369     1.0000 0.12120  0.83917  0.97903  Biso   1.000  C
  O54      1.0000 0.90931  0.82471  0.15055  Biso   1.000  O
  C370     1.0000 0.08551  0.83044  0.03452  Biso   1.000  C
  H547     1.0000 0.05454  0.85181  0.11617  Biso   1.000  H
  C371     1.0000 0.07008  0.89793  0.06491  Biso   1.000  C
  H548     1.0000 0.57132  0.01550  0.99699  Biso   1.000  H
  C372     1.0000 0.68169  0.05696  0.99299  Biso   1.000  C
  H549     1.0000 0.68745  0.01040  0.04558  Biso   1.000  H
  H550     1.0000 0.36359  0.85541  0.82547  Biso   1.000  H
  H551     1.0000 0.24424  0.86960  0.78869  Biso   1.000  H
  C373     1.0000 0.34816  0.91144  0.82833  Biso   1.000  C
  O55      1.0000 0.25466  0.75692  0.94041  Biso   1.000  O
  C374     1.0000 0.16021  0.76975  0.02592  Biso   1.000  C
  H552     1.0000 0.10768  0.86319  0.96280  Biso   1.000  H
  C375     1.0000 0.85366  0.80681  0.19382  Biso   1.000  C
  C376     1.0000 0.10438  0.79463  0.05592  Biso   1.000  C
  H553     1.0000 0.15268  0.89870  0.07610  Biso   1.000  H
  H554     1.0000 0.04656  0.90590  0.02060  Biso   1.000  H
  C377     1.0000 0.02350  0.92459  0.10709  Biso   1.000  C
  H555     1.0000 0.65956  0.06329  0.94827  Biso   1.000  H
  H556     1.0000 0.76217  0.06061  0.00729  Biso   1.000  H
  H557     1.0000 0.64154  0.07259  0.01750  Biso   1.000  H
  H558     1.0000 0.40591  0.91480  0.86718  Biso   1.000  H
  H559     1.0000 0.28689  0.92880  0.82998  Biso   1.000  H
  C378     1.0000 0.39868  0.92088  0.77166  Biso   1.000  C
  C379     1.0000 0.31023  0.72616  0.97338  Biso   1.000  C
  H560     1.0000 0.17342  0.74570  0.04219  Biso   1.000  H
  H561     1.0000 0.80429  0.82419  0.20887  Biso   1.000  H
  H562     1.0000 0.90919  0.79761  0.22957  Biso   1.000  H
  H563     1.0000 0.80951  0.78639  0.17270  Biso   1.000  H
  O56      1.0000 0.06988  0.78145  0.10822  Biso   1.000  O
  H564     1.0000 0.94144  0.92129  0.09957  Biso   1.000  H
  H565     1.0000 0.05448  0.91810  0.15149  Biso   1.000  H
  C380     1.0000 0.04795  0.96474  0.09750  Biso   1.000  C
  H566     1.0000 0.44038  0.94411  0.77998  Biso   1.000  H
  H567     1.0000 0.45241  0.90159  0.76620  Biso   1.000  H
  C381     1.0000 0.31225  0.92446  0.71226  Biso   1.000  C
  H568     1.0000 0.35590  0.71421  0.94728  Biso   1.000  H
  H569     1.0000 0.25470  0.70891  0.98260  Biso   1.000  H
  H570     1.0000 0.35809  0.73429  0.01289  Biso   1.000  H
  H571     1.0000 0.02792  0.79870  0.12586  Biso   1.000  H
  C382     1.0000 0.97395  0.99260  0.11857  Biso   1.000  C
  C383     1.0000 0.99937  0.99129  0.13649  Biso   1.000  C
  H572     1.0000 0.12560  0.96971  0.11979  Biso   1.000  H
  H573     1.0000 0.04466  0.96859  0.05207  Biso   1.000  H
  H574     1.0000 0.12993  0.96810  0.10658  Biso   1.000  H
  H575     1.0000 0.01975  0.97080  0.05268  Biso   1.000  H
  H576     1.0000 0.27108  0.90151  0.70360  Biso   1.000  H
  H577     1.0000 0.34860  0.93011  0.67727  Biso   1.000  H
  H578     1.0000 0.26032  0.94411  0.71687  Biso   1.000  H
  H579     1.0000 0.95575  0.98431  0.15869  Biso   1.000  H
  H580     1.0000 0.90318  0.99411  0.08687  Biso   1.000  H
  H581     1.0000 0.92233  0.98379  0.13790  Biso   1.000  H
  C384     1.0000 0.99732  0.02980  0.10959  Biso   1.000  C
  C385     1.0000 0.02576  0.03059  0.12817  Biso   1.000  C
  H582     1.0000 0.04414  0.99121  0.18000  Biso   1.000  H
  H583     1.0000 0.97569  0.04700  0.14486  Biso   1.000  H
  H584     1.0000 0.95947  0.04631  0.13390  Biso   1.000  H
  H585     1.0000 0.95735  0.02969  0.06561  Biso   1.000  H
  H586     1.0000 0.03724  0.04009  0.08776  Biso   1.000  H
  H587     1.0000 0.07405  0.03829  0.11199  Biso   1.000  H
  H588     1.0000 0.09779  0.02920  0.15798  Biso   1.000  H
  O57      1.0000 0.28987  0.20946  0.27443  Biso   1.000  O
  H589     1.0000 0.23634  0.20171  0.29677  Biso   1.000  H
  C386     1.0000 0.29779  0.18394  0.22862  Biso   1.000  C
  C387     1.0000 0.37139  0.19295  0.19062  Biso   1.000  C
  C388     1.0000 0.23634  0.15171  0.22030  Biso   1.000  C
  C389     1.0000 0.38374  0.16975  0.14241  Biso   1.000  C
  H590     1.0000 0.41308  0.21500  0.19758  Biso   1.000  H
  C390     1.0000 0.25233  0.12870  0.17157  Biso   1.000  C
  C391     1.0000 0.15280  0.14404  0.26188  Biso   1.000  C
  O58      1.0000 0.45246  0.17786  0.10140  Biso   1.000  O
  C392     1.0000 0.32482  0.13686  0.13193  Biso   1.000  C
  H591     1.0000 0.21167  0.10641  0.16518  Biso   1.000  H
  H592     1.0000 0.19079  0.15059  0.30580  Biso   1.000  H
  C393     1.0000 0.11543  0.10420  0.26371  Biso   1.000  C
  C394     1.0000 0.05235  0.16918  0.24438  Biso   1.000  C
  C395     1.0000 0.50531  0.21303  0.10719  Biso   1.000  C
  C396     1.0000 0.33841  0.11285  0.07694  Biso   1.000  C
  H593     1.0000 0.18139  0.08799  0.26898  Biso   1.000  H
  H594     1.0000 0.06474  0.09800  0.22340  Biso   1.000  H
  C397     1.0000 0.05534  0.09787  0.31789  Biso   1.000  C
  C398     1.0000 0.03327  0.19753  0.28346  Biso   1.000  C
  C399     1.0000 0.97286  0.16435  0.18851  Biso   1.000  C
  H595     1.0000 0.55973  0.21440  0.14721  Biso   1.000  H
  H596     1.0000 0.54356  0.21661  0.07229  Biso   1.000  H
  H597     1.0000 0.44870  0.23211  0.10601  Biso   1.000  H
  C400     1.0000 0.27555  0.12958  0.01482  Biso   1.000  C
  H598     1.0000 0.41947  0.11309  0.07558  Biso   1.000  H
  C401     1.0000 0.30652  0.07295  0.08386  Biso   1.000  C
  H599     1.0000 0.10723  0.10401  0.35792  Biso   1.000  H
  C402     1.0000 0.01279  0.05944  0.32269  Biso   1.000  C
  H600     1.0000 0.99136  0.11490  0.31291  Biso   1.000  H
  O59      1.0000 0.11491  0.20493  0.33699  Biso   1.000  O
  C403     1.0000 0.93798  0.21909  0.26931  Biso   1.000  C
  C404     1.0000 0.87534  0.18462  0.17275  Biso   1.000  C
  H601     1.0000 0.98640  0.14620  0.15982  Biso   1.000  H
  C405     1.0000 0.32996  0.14557  0.97173  Biso   1.000  C
  C406     1.0000 0.15885  0.12980  0.99995  Biso   1.000  C
  H602     1.0000 0.22461  0.07131  0.07981  Biso   1.000  H
  H603     1.0000 0.34209  0.06430  0.12652  Biso   1.000  H
  C407     1.0000 0.34118  0.04806  0.03527  Biso   1.000  C
  H604     1.0000 0.07390  0.04200  0.32128  Biso   1.000  H
  H605     1.0000 0.95181  0.05450  0.28591  Biso   1.000  H
  C408     1.0000 0.96922  0.05289  0.38336  Biso   1.000  C
  C409     1.0000 0.08278  0.19794  0.39526  Biso   1.000  C
  H606     1.0000 0.92701  0.23831  0.29677  Biso   1.000  H
  C410     1.0000 0.85868  0.21230  0.21437  Biso   1.000  C
  C411     1.0000 0.78673  0.17548  0.11405  Biso   1.000  C
  O60      1.0000 0.44523  0.14770  0.98185  Biso   1.000  O
  C412     1.0000 0.27095  0.16077  0.91581  Biso   1.000  C
  H607     1.0000 0.12013  0.11959  0.02940  Biso   1.000  H
  C413     1.0000 0.09648  0.14404  0.94488  Biso   1.000  C
  H608     1.0000 0.42296  0.04981  0.03941  Biso   1.000  H
  C414     1.0000 0.30987  0.00860  0.04176  Biso   1.000  C
  H609     1.0000 0.30557  0.05671  0.99271  Biso   1.000  H
  C415     1.0000 0.05823  0.05821  0.44488  Biso   1.000  C
  C416     1.0000 0.06077  0.04369  0.43919  Biso   1.000  C
  H610     1.0000 0.90643  0.06981  0.38378  Biso   1.000  H
  H611     1.0000 0.93980  0.02770  0.38261  Biso   1.000  H
  H612     1.0000 0.91452  0.03261  0.37607  Biso   1.000  H
  H613     1.0000 0.92992  0.07511  0.39296  Biso   1.000  H
  H614     1.0000 0.04799  0.17379  0.39390  Biso   1.000  H
  H615     1.0000 0.14881  0.19871  0.42959  Biso   1.000  H
  H616     1.0000 0.02934  0.21661  0.40241  Biso   1.000  H
  O61      1.0000 0.76167  0.23219  0.20088  Biso   1.000  O
  H617     1.0000 0.72078  0.19131  0.11542  Biso   1.000  H
  C417     1.0000 0.74673  0.13591  0.11537  Biso   1.000  C
  C418     1.0000 0.82498  0.18520  0.05357  Biso   1.000  C
  H618     1.0000 0.46902  0.15340  0.02469  Biso   1.000  H
  C419     1.0000 0.15544  0.16003  0.90283  Biso   1.000  C
  H619     1.0000 0.30967  0.17150  0.88679  Biso   1.000  H
  C420     1.0000 0.96920  0.14161  0.92922  Biso   1.000  C
  H620     1.0000 0.22758  0.00710  0.03560  Biso   1.000  H
  H621     1.0000 0.34171  0.00071  0.08541  Biso   1.000  H
  C421     1.0000 0.34679  0.98240  0.99798  Biso   1.000  C
  H622     1.0000 0.02417  0.05390  0.48119  Biso   1.000  H
  H623     1.0000 0.11962  0.04091  0.44577  Biso   1.000  H
  H624     1.0000 0.08718  0.08321  0.44657  Biso   1.000  H
  H625     1.0000 0.02831  0.04001  0.47630  Biso   1.000  H
  H626     1.0000 0.11451  0.06381  0.44718  Biso   1.000  H
  H627     1.0000 0.09869  0.02140  0.43049  Biso   1.000  H
  H628     1.0000 0.77000  0.25280  0.22688  Biso   1.000  H
  H629     1.0000 0.81043  0.11940  0.11499  Biso   1.000  H
  H630     1.0000 0.68949  0.13111  0.07680  Biso   1.000  H
  C422     1.0000 0.69735  0.12709  0.17270  Biso   1.000  C
  C423     1.0000 0.80289  0.22027  0.02789  Biso   1.000  C
  C424     1.0000 0.87885  0.16083  0.02093  Biso   1.000  C
  O62      1.0000 0.09076  0.17529  0.84945  Biso   1.000  O
  C425     1.0000 0.91445  0.16956  0.96543  Biso   1.000  C
  H631     1.0000 0.94551  0.14819  0.88378  Biso   1.000  H
  C426     1.0000 0.92997  0.10207  0.93505  Biso   1.000  C
  H632     1.0000 0.31259  0.98960  0.95438  Biso   1.000  H
  H633     1.0000 0.42866  0.98450  0.00301  Biso   1.000  H
  C427     1.0000 0.31838  0.94304  0.00701  Biso   1.000  C
  H634     1.0000 0.63646  0.14459  0.17449  Biso   1.000  H
  H635     1.0000 0.75583  0.13040  0.21132  Biso   1.000  H
  C428     1.0000 0.65190  0.08856  0.17167  Biso   1.000  C
  C429     1.0000 0.83977  0.23025  0.97409  Biso   1.000  C
  O63      1.0000 0.74540  0.24308  0.05959  Biso   1.000  O
  H636     1.0000 0.89239  0.13681  0.03720  Biso   1.000  H
  C430     1.0000 0.14639  0.19319  0.80613  Biso   1.000  C
  C431     1.0000 0.89568  0.20537  0.94408  Biso   1.000  C
  H637     1.0000 0.84738  0.10130  0.92390  Biso   1.000  H
  H638     1.0000 0.95351  0.09410  0.97940  Biso   1.000  H
  C432     1.0000 0.97656  0.07541  0.89291  Biso   1.000  C
  H639     1.0000 0.23789  0.93939  0.99271  Biso   1.000  H
  H640     1.0000 0.35844  0.92741  0.98250  Biso   1.000  H
  H641     1.0000 0.34049  0.93671  0.05169  Biso   1.000  H
  H642     1.0000 0.59416  0.08520  0.13282  Biso   1.000  H
  H643     1.0000 0.71308  0.07120  0.16997  Biso   1.000  H
  C433     1.0000 0.60131  0.07912  0.22834  Biso   1.000  C
  H644     1.0000 0.82656  0.25430  0.95781  Biso   1.000  H
  C434     1.0000 0.68984  0.27384  0.02662  Biso   1.000  C
  H645     1.0000 0.19575  0.17581  0.79108  Biso   1.000  H
  H646     1.0000 0.09085  0.20239  0.77039  Biso   1.000  H
  H647     1.0000 0.19056  0.21361  0.82730  Biso   1.000  H
  O64      1.0000 0.93010  0.21855  0.89178  Biso   1.000  O
  H648     1.0000 0.94558  0.08190  0.84851  Biso   1.000  H
  C435     1.0000 0.95210  0.03526  0.90245  Biso   1.000  C
  H649     1.0000 0.05861  0.07871  0.90039  Biso   1.000  H
  H650     1.0000 0.55961  0.05589  0.22002  Biso   1.000  H
  H651     1.0000 0.54765  0.09841  0.23380  Biso   1.000  H
  C436     1.0000 0.68781  0.07554  0.28774  Biso   1.000  C
  H652     1.0000 0.64197  0.26571  0.98711  Biso   1.000  H
  H653     1.0000 0.64414  0.28579  0.05268  Biso   1.000  H
  H654     1.0000 0.74528  0.29109  0.01740  Biso   1.000  H
  H655     1.0000 0.97204  0.20130  0.87409  Biso   1.000  H
  H656     1.0000 0.87446  0.03029  0.88021  Biso   1.000  H
  H657     1.0000 0.95538  0.03141  0.94789  Biso   1.000  H
  H658     1.0000 0.87004  0.03190  0.89338  Biso   1.000  H
  H659     1.0000 0.98030  0.02920  0.94728  Biso   1.000  H
  C437     1.0000 0.02609  0.00740  0.88138  Biso   1.000  C
  C438     1.0000 0.00068  0.00871  0.86347  Biso   1.000  C
  H660     1.0000 0.72890  0.09849  0.29640  Biso   1.000  H
  H661     1.0000 0.65145  0.06989  0.32269  Biso   1.000  H
  H662     1.0000 0.73972  0.05589  0.28309  Biso   1.000  H
  C439     1.0000 0.97429  0.96941  0.87179  Biso   1.000  C
  C440     1.0000 0.00265  0.97020  0.89037  Biso   1.000  C
  H663     1.0000 0.04431  0.01569  0.84131  Biso   1.000  H
  H664     1.0000 0.09687  0.00589  0.91308  Biso   1.000  H
  H665     1.0000 0.07765  0.01621  0.86210  Biso   1.000  H
  H666     1.0000 0.95592  0.00879  0.82001  Biso   1.000  H
  H667     1.0000 0.96281  0.95991  0.91219  Biso   1.000  H
  H668     1.0000 0.90227  0.97080  0.84202  Biso   1.000  H
  H669     1.0000 0.92600  0.96171  0.88797  Biso   1.000  H
  H670     1.0000 0.02435  0.95300  0.85509  Biso   1.000  H
  H671     1.0000 0.04060  0.95369  0.86610  Biso   1.000  H
  H672     1.0000 0.04271  0.97031  0.93439  Biso   1.000  H
