data_image0
_cell_length_a       12.242
_cell_length_b       36.673
_cell_length_c       21.731
_cell_angle_alpha    90
_cell_angle_beta     102.02
_cell_angle_gamma    90

_symmetry_space_group_name_H-M    "P 1"
_symmetry_int_tables_number       1

loop_
  _symmetry_equiv_pos_as_xyz
  'x, y, z'

loop_
  _atom_site_label
  _atom_site_occupancy
  _atom_site_fract_x
  _atom_site_fract_y
  _atom_site_fract_z
  _atom_site_thermal_displace_type
  _atom_site_B_iso_or_equiv
  _atom_site_type_symbol
  C1       1.0000 0.55134  0.46402  0.59959  Biso   1.000  C
  C2       1.0000 0.52598  0.42380  0.60876  Biso   1.000  C
  H1       1.0000 0.63183  0.46811  0.61690  Biso   1.000  H
  H2       1.0000 0.53812  0.46890  0.55391  Biso   1.000  H
  C3       1.0000 0.48779  0.49134  0.62810  Biso   1.000  C
  C4       1.0000 0.57159  0.39724  0.56600  Biso   1.000  C
  H3       1.0000 0.44400  0.42069  0.60157  Biso   1.000  H
  H4       1.0000 0.55739  0.41709  0.65308  Biso   1.000  H
  H5       1.0000 0.50153  0.48660  0.67388  Biso   1.000  H
  H6       1.0000 0.40729  0.48720  0.61098  Biso   1.000  H
  C5       1.0000 0.51162  0.53053  0.61897  Biso   1.000  C
  C6       1.0000 0.53209  0.35811  0.57117  Biso   1.000  C
  H7       1.0000 0.54781  0.40550  0.52177  Biso   1.000  H
  H8       1.0000 0.65419  0.39779  0.57686  Biso   1.000  H
  H9       1.0000 0.58934  0.53590  0.63897  Biso   1.000  H
  H10      1.0000 0.46150  0.54561  0.63808  Biso   1.000  H
  H11      1.0000 0.49953  0.53590  0.57390  Biso   1.000  H
  C7       1.0000 0.40461  0.35582  0.55579  Biso   1.000  C
  H12      1.0000 0.55574  0.35129  0.61657  Biso   1.000  H
  C8       1.0000 0.58655  0.33052  0.53509  Biso   1.000  C
  C9       1.0000 0.34233  0.36992  0.50088  Biso   1.000  C
  C10      1.0000 0.34529  0.33984  0.59728  Biso   1.000  C
  C11      1.0000 0.62195  0.33916  0.47947  Biso   1.000  C
  C12      1.0000 0.60459  0.29493  0.55626  Biso   1.000  C
  C13      1.0000 0.22545  0.37038  0.48568  Biso   1.000  C
  H13      1.0000 0.38109  0.38001  0.47138  Biso   1.000  H
  C14      1.0000 0.23049  0.33913  0.58439  Biso   1.000  C
  O1       1.0000 0.40981  0.32457  0.65073  Biso   1.000  O
  C15      1.0000 0.67531  0.31478  0.44706  Biso   1.000  C
  H14      1.0000 0.60854  0.36310  0.46310  Biso   1.000  H
  C16      1.0000 0.66029  0.27012  0.52619  Biso   1.000  C
  O2       1.0000 0.57083  0.28127  0.60858  Biso   1.000  O
  C17      1.0000 0.16280  0.38721  0.42382  Biso   1.000  C
  C18      1.0000 0.17099  0.35427  0.52906  Biso   1.000  C
  H15      1.0000 0.19190  0.32831  0.61347  Biso   1.000  H
  C19      1.0000 0.35387  0.30674  0.69430  Biso   1.000  C
  C20      1.0000 0.71409  0.32468  0.38688  Biso   1.000  C
  C21      1.0000 0.69661  0.28002  0.47242  Biso   1.000  C
  H16      1.0000 0.67374  0.24609  0.54247  Biso   1.000  H
  H17      1.0000 0.53091  0.29681  0.62189  Biso   1.000  H
  C22      1.0000 0.17567  0.36313  0.36891  Biso   1.000  C
  H18      1.0000 0.08165  0.38721  0.42527  Biso   1.000  H
  C23      1.0000 0.19669  0.42699  0.41737  Biso   1.000  C
  O3       1.0000 0.05550  0.35249  0.51914  Biso   1.000  O
  H19      1.0000 0.30368  0.32400  0.70879  Biso   1.000  H
  H20      1.0000 0.40940  0.29790  0.73048  Biso   1.000  H
  H21      1.0000 0.31049  0.28610  0.67350  Biso   1.000  H
  C24      1.0000 0.62554  0.31544  0.32812  Biso   1.000  C
  H22      1.0000 0.78003  0.30881  0.38561  Biso   1.000  H
  C25      1.0000 0.75436  0.36408  0.38533  Biso   1.000  C
  O4       1.0000 0.75450  0.25711  0.44052  Biso   1.000  O
  C26      1.0000 0.24852  0.37136  0.32911  Biso   1.000  C
  C27      1.0000 0.11742  0.33052  0.35851  Biso   1.000  C
  H23      1.0000 0.27880  0.42841  0.42250  Biso   1.000  H
  H24      1.0000 0.16261  0.43580  0.37470  Biso   1.000  H
  C28      1.0000 0.16042  0.45164  0.46578  Biso   1.000  C
  H25      1.0000 0.02929  0.34709  0.48140  Biso   1.000  H
  C29      1.0000 0.52809  0.33575  0.31198  Biso   1.000  C
  C30      1.0000 0.64112  0.28790  0.28563  Biso   1.000  C
  H26      1.0000 0.69053  0.38061  0.38547  Biso   1.000  H
  H27      1.0000 0.81121  0.36891  0.42400  Biso   1.000  H
  C31      1.0000 0.80409  0.37289  0.32849  Biso   1.000  C
  C32      1.0000 0.81144  0.22616  0.47369  Biso   1.000  C
  C33      1.0000 0.26512  0.34824  0.28098  Biso   1.000  C
  H28      1.0000 0.28839  0.39370  0.33508  Biso   1.000  H
  C34      1.0000 0.12968  0.30737  0.31057  Biso   1.000  C
  O5       1.0000 0.04866  0.32242  0.39944  Biso   1.000  O
  H29      1.0000 0.07858  0.44960  0.46160  Biso   1.000  H
  H30      1.0000 0.19639  0.44330  0.50850  Biso   1.000  H
  C35      1.0000 0.19037  0.49121  0.45840  Biso   1.000  C
  C36      1.0000 0.44881  0.33079  0.25618  Biso   1.000  C
  H31      1.0000 0.51453  0.35399  0.34049  Biso   1.000  H
  C37      1.0000 0.56222  0.28097  0.23106  Biso   1.000  C
  O6       1.0000 0.73905  0.26813  0.29951  Biso   1.000  O
  H32      1.0000 0.86580  0.35560  0.32727  Biso   1.000  H
  H33      1.0000 0.74623  0.36921  0.28977  Biso   1.000  H
  C38      1.0000 0.84785  0.41123  0.32887  Biso   1.000  C
  H34      1.0000 0.86029  0.23450  0.51278  Biso   1.000  H
  H35      1.0000 0.85633  0.21411  0.44729  Biso   1.000  H
  H36      1.0000 0.75633  0.20901  0.48371  Biso   1.000  H
  C39      1.0000 0.20352  0.31612  0.27255  Biso   1.000  C
  C40      1.0000 0.34810  0.35609  0.23896  Biso   1.000  C
  H37      1.0000 0.08768  0.28539  0.30370  Biso   1.000  H
  C41      1.0000 0.99456  0.28727  0.39319  Biso   1.000  C
  H38      1.0000 0.27258  0.49301  0.46447  Biso   1.000  H
  H39      1.0000 0.15833  0.49870  0.41459  Biso   1.000  H
  C42      1.0000 0.15262  0.51760  0.50168  Biso   1.000  C
  C43      1.0000 0.46781  0.30257  0.21675  Biso   1.000  C
  H40      1.0000 0.57293  0.26161  0.20391  Biso   1.000  H
  H41      1.0000 0.73255  0.24920  0.27707  Biso   1.000  H
  H42      1.0000 0.90429  0.41510  0.36820  Biso   1.000  H
  H43      1.0000 0.78559  0.42841  0.32929  Biso   1.000  H
  C44      1.0000 0.90062  0.42039  0.27298  Biso   1.000  C
  O7       1.0000 0.21044  0.29065  0.22630  Biso   1.000  O
  H44      1.0000 0.30975  0.34960  0.19511  Biso   1.000  H
  C45      1.0000 0.38608  0.39601  0.23717  Biso   1.000  C
  H45      1.0000 0.05079  0.26810  0.39460  Biso   1.000  H
  H46      1.0000 0.94087  0.28610  0.35291  Biso   1.000  H
  H47      1.0000 0.95552  0.28370  0.42767  Biso   1.000  H
  H48      1.0000 0.18670  0.51070  0.54548  Biso   1.000  H
  H49      1.0000 0.07056  0.51531  0.49669  Biso   1.000  H
  C46      1.0000 0.18018  0.55717  0.49227  Biso   1.000  C
  O8       1.0000 0.38582  0.29518  0.16335  Biso   1.000  O
  H50      1.0000 0.94363  0.44330  0.28149  Biso   1.000  H
  H51      1.0000 0.95296  0.40070  0.26719  Biso   1.000  H
  C47      1.0000 0.81165  0.42459  0.21327  Biso   1.000  C
  H52      1.0000 0.26143  0.29670  0.20781  Biso   1.000  H
  H53      1.0000 0.32042  0.41229  0.23237  Biso   1.000  H
  H54      1.0000 0.43741  0.40209  0.27749  Biso   1.000  H
  C48      1.0000 0.44542  0.40229  0.18269  Biso   1.000  C
  H55      1.0000 0.25880  0.56169  0.51137  Biso   1.000  H
  H56      1.0000 0.13269  0.57290  0.51208  Biso   1.000  H
  H57      1.0000 0.16700  0.56251  0.44710  Biso   1.000  H
  C49      1.0000 0.41814  0.30156  0.10515  Biso   1.000  C
  H58      1.0000 0.77073  0.40160  0.20400  Biso   1.000  H
  H59      1.0000 0.84711  0.43089  0.17817  Biso   1.000  H
  H60      1.0000 0.75965  0.44401  0.21911  Biso   1.000  H
  H61      1.0000 0.50940  0.38530  0.18740  Biso   1.000  H
  H62      1.0000 0.39313  0.39620  0.14289  Biso   1.000  H
  C50      1.0000 0.48772  0.44051  0.17780  Biso   1.000  C
  H63      1.0000 0.44869  0.32621  0.10492  Biso   1.000  H
  H64      1.0000 0.35293  0.29910  0.07062  Biso   1.000  H
  H65      1.0000 0.47514  0.28370  0.09979  Biso   1.000  H
  H66      1.0000 0.54870  0.44540  0.21459  Biso   1.000  H
  H67      1.0000 0.42647  0.45791  0.17940  Biso   1.000  H
  C51      1.0000 0.53132  0.44722  0.11678  Biso   1.000  C
  H68      1.0000 0.57283  0.47059  0.12101  Biso   1.000  H
  H69      1.0000 0.58460  0.42759  0.11240  Biso   1.000  H
  C52      1.0000 0.44003  0.44856  0.05698  Biso   1.000  C
  H70      1.0000 0.39590  0.42609  0.05340  Biso   1.000  H
  H71      1.0000 0.47441  0.45090  0.02028  Biso   1.000  H
  H72      1.0000 0.39124  0.46961  0.05891  Biso   1.000  H
  C53      1.0000 0.44870  0.53598  0.40038  Biso   1.000  C
  C54      1.0000 0.51217  0.50866  0.37187  Biso   1.000  C
  C55      1.0000 0.47398  0.57620  0.39121  Biso   1.000  C
  H73      1.0000 0.36821  0.53189  0.38307  Biso   1.000  H
  H74      1.0000 0.46191  0.53110  0.44607  Biso   1.000  H
  C56      1.0000 0.48842  0.46947  0.38100  Biso   1.000  C
  H75      1.0000 0.49851  0.51340  0.32609  Biso   1.000  H
  H76      1.0000 0.59275  0.51280  0.38900  Biso   1.000  H
  C57      1.0000 0.42836  0.60276  0.43398  Biso   1.000  C
  H77      1.0000 0.55604  0.57931  0.39841  Biso   1.000  H
  H78      1.0000 0.44265  0.58291  0.34689  Biso   1.000  H
  H79      1.0000 0.41070  0.46410  0.36101  Biso   1.000  H
  H80      1.0000 0.53854  0.45439  0.36190  Biso   1.000  H
  H81      1.0000 0.50051  0.46410  0.42607  Biso   1.000  H
  C58      1.0000 0.46794  0.64189  0.42880  Biso   1.000  C
  H82      1.0000 0.45222  0.59450  0.47820  Biso   1.000  H
  H83      1.0000 0.34584  0.60219  0.42311  Biso   1.000  H
  C59      1.0000 0.59542  0.64418  0.44419  Biso   1.000  C
  H84      1.0000 0.44430  0.64871  0.38340  Biso   1.000  H
  C60      1.0000 0.41348  0.66948  0.46489  Biso   1.000  C
  C61      1.0000 0.65771  0.63008  0.49909  Biso   1.000  C
  C62      1.0000 0.65475  0.66016  0.40269  Biso   1.000  C
  C63      1.0000 0.37809  0.66084  0.52050  Biso   1.000  C
  C64      1.0000 0.39545  0.70507  0.44372  Biso   1.000  C
  C65      1.0000 0.77450  0.62962  0.51429  Biso   1.000  C
  H85      1.0000 0.61895  0.61999  0.52859  Biso   1.000  H
  C66      1.0000 0.76954  0.66087  0.41558  Biso   1.000  C
  O9       1.0000 0.59022  0.67543  0.34924  Biso   1.000  O
  H86      1.0000 0.39149  0.63690  0.53687  Biso   1.000  H
  C67      1.0000 0.32472  0.68522  0.55292  Biso   1.000  C
  C68      1.0000 0.33966  0.72986  0.47378  Biso   1.000  C
  O10      1.0000 0.42920  0.71873  0.39140  Biso   1.000  O
  C69      1.0000 0.83724  0.61279  0.57616  Biso   1.000  C
  C70      1.0000 0.82902  0.64573  0.47086  Biso   1.000  C
  H87      1.0000 0.80813  0.67169  0.38651  Biso   1.000  H
  C71      1.0000 0.64608  0.69326  0.30568  Biso   1.000  C
  C72      1.0000 0.30342  0.71998  0.52756  Biso   1.000  C
  C73      1.0000 0.28587  0.67532  0.61309  Biso   1.000  C
  H88      1.0000 0.32629  0.75391  0.45750  Biso   1.000  H
  H89      1.0000 0.46913  0.70319  0.37808  Biso   1.000  H
  C74      1.0000 0.82429  0.63687  0.63106  Biso   1.000  C
  H90      1.0000 0.91830  0.61279  0.57470  Biso   1.000  H
  C75      1.0000 0.80335  0.57301  0.58260  Biso   1.000  C
  O11      1.0000 0.94454  0.64751  0.48084  Biso   1.000  O
  H91      1.0000 0.69635  0.67600  0.29118  Biso   1.000  H
  H92      1.0000 0.59064  0.70210  0.26950  Biso   1.000  H
  H93      1.0000 0.68955  0.71390  0.32647  Biso   1.000  H
  O12      1.0000 0.24545  0.74289  0.55946  Biso   1.000  O
  H94      1.0000 0.22001  0.69119  0.61436  Biso   1.000  H
  C76      1.0000 0.37449  0.68456  0.67186  Biso   1.000  C
  C77      1.0000 0.24568  0.63592  0.61464  Biso   1.000  C
  C78      1.0000 0.75151  0.62864  0.67087  Biso   1.000  C
  C79      1.0000 0.88261  0.66946  0.64146  Biso   1.000  C
  H95      1.0000 0.72124  0.57159  0.57748  Biso   1.000  H
  H96      1.0000 0.83742  0.56420  0.62528  Biso   1.000  H
  C80      1.0000 0.83961  0.54836  0.53419  Biso   1.000  C
  H97      1.0000 0.97074  0.65291  0.51857  Biso   1.000  H
  C81      1.0000 0.18859  0.77384  0.52629  Biso   1.000  C
  C82      1.0000 0.47194  0.66425  0.68799  Biso   1.000  C
  C83      1.0000 0.35891  0.71210  0.71434  Biso   1.000  C
  H98      1.0000 0.30951  0.61939  0.61450  Biso   1.000  H
  H99      1.0000 0.18882  0.63109  0.57597  Biso   1.000  H
  C84      1.0000 0.19587  0.62711  0.67148  Biso   1.000  C
  C85      1.0000 0.73492  0.65176  0.71900  Biso   1.000  C
  H100     1.0000 0.71165  0.60630  0.66489  Biso   1.000  H
  C86      1.0000 0.87034  0.69263  0.68936  Biso   1.000  C
  O13      1.0000 0.95129  0.67758  0.60053  Biso   1.000  O
  H101     1.0000 0.92146  0.55040  0.53838  Biso   1.000  H
  H102     1.0000 0.80364  0.55670  0.49147  Biso   1.000  H
  C87      1.0000 0.80958  0.50877  0.54158  Biso   1.000  C
  H103     1.0000 0.13967  0.76550  0.48719  Biso   1.000  H
  H104     1.0000 0.14370  0.78589  0.55268  Biso   1.000  H
  H105     1.0000 0.24370  0.79099  0.51627  Biso   1.000  H
  H106     1.0000 0.48550  0.64601  0.65948  Biso   1.000  H
  C88      1.0000 0.55121  0.66921  0.74375  Biso   1.000  C
  C89      1.0000 0.43782  0.71903  0.76892  Biso   1.000  C
  O14      1.0000 0.26098  0.73187  0.70046  Biso   1.000  O
  H107     1.0000 0.13416  0.64440  0.67270  Biso   1.000  H
  H108     1.0000 0.25380  0.63079  0.71020  Biso   1.000  H
  C90      1.0000 0.15219  0.58877  0.67110  Biso   1.000  C
  C91      1.0000 0.79652  0.68385  0.72742  Biso   1.000  C
  C92      1.0000 0.65194  0.64391  0.76101  Biso   1.000  C
  H109     1.0000 0.91235  0.71459  0.69627  Biso   1.000  H
  C93      1.0000 0.00531  0.71273  0.60679  Biso   1.000  C
  H110     1.0000 0.72745  0.50699  0.53551  Biso   1.000  H
  H111     1.0000 0.84171  0.50130  0.58538  Biso   1.000  H
  C94      1.0000 0.84741  0.48240  0.49829  Biso   1.000  C
  C95      1.0000 0.53223  0.69743  0.78322  Biso   1.000  C
  H112     1.0000 0.42711  0.73839  0.79606  Biso   1.000  H
  H113     1.0000 0.26748  0.75080  0.72290  Biso   1.000  H
  H114     1.0000 0.09566  0.58490  0.63177  Biso   1.000  H
  H115     1.0000 0.21436  0.57159  0.67068  Biso   1.000  H
  C96      1.0000 0.09942  0.57961  0.72700  Biso   1.000  C
  O15      1.0000 0.78960  0.70935  0.77367  Biso   1.000  O
  H116     1.0000 0.69028  0.65040  0.80486  Biso   1.000  H
  C97      1.0000 0.61388  0.60399  0.76280  Biso   1.000  C
  H117     1.0000 0.94925  0.73190  0.60538  Biso   1.000  H
  H118     1.0000 0.05908  0.71390  0.64706  Biso   1.000  H
  H119     1.0000 0.04444  0.71630  0.57230  Biso   1.000  H
  H120     1.0000 0.81333  0.48930  0.45449  Biso   1.000  H
  H121     1.0000 0.92939  0.48469  0.50328  Biso   1.000  H
  C98      1.0000 0.81985  0.44283  0.50770  Biso   1.000  C
  O16      1.0000 0.61421  0.70480  0.83662  Biso   1.000  O
  H122     1.0000 0.05641  0.55670  0.71848  Biso   1.000  H
  H123     1.0000 0.04707  0.59930  0.73278  Biso   1.000  H
  C99      1.0000 0.18839  0.57541  0.78670  Biso   1.000  C
  H124     1.0000 0.73860  0.70330  0.79216  Biso   1.000  H
  H125     1.0000 0.67961  0.58771  0.76760  Biso   1.000  H
  H126     1.0000 0.56262  0.59791  0.72248  Biso   1.000  H
  C100     1.0000 0.55462  0.59771  0.81728  Biso   1.000  C
  H127     1.0000 0.74123  0.43831  0.48860  Biso   1.000  H
  H128     1.0000 0.86734  0.42710  0.48790  Biso   1.000  H
  H129     1.0000 0.83304  0.43749  0.55287  Biso   1.000  H
  C101     1.0000 0.58189  0.69844  0.89482  Biso   1.000  C
  H130     1.0000 0.22931  0.59840  0.79597  Biso   1.000  H
  H131     1.0000 0.15292  0.56911  0.82180  Biso   1.000  H
  H132     1.0000 0.24039  0.55599  0.78087  Biso   1.000  H
  H133     1.0000 0.49055  0.61470  0.81258  Biso   1.000  H
  H134     1.0000 0.60691  0.60380  0.85709  Biso   1.000  H
  C102     1.0000 0.51232  0.55949  0.82218  Biso   1.000  C
  H135     1.0000 0.55127  0.67379  0.89506  Biso   1.000  H
  H136     1.0000 0.64710  0.70090  0.92935  Biso   1.000  H
  H137     1.0000 0.52490  0.71630  0.90018  Biso   1.000  H
  H138     1.0000 0.45126  0.55460  0.78538  Biso   1.000  H
  H139     1.0000 0.57348  0.54209  0.82058  Biso   1.000  H
  C103     1.0000 0.46871  0.55278  0.88320  Biso   1.000  C
  H140     1.0000 0.42720  0.52941  0.87896  Biso   1.000  H
  H141     1.0000 0.41535  0.57241  0.88757  Biso   1.000  H
  C104     1.0000 0.56001  0.55144  0.94300  Biso   1.000  C
  H142     1.0000 0.60413  0.57391  0.94657  Biso   1.000  H
  H143     1.0000 0.52562  0.54910  0.97970  Biso   1.000  H
  H144     1.0000 0.60879  0.53039  0.94107  Biso   1.000  H
  C105     1.0000 0.01612  0.44758  0.70540  Biso   1.000  C
  C106     1.0000 0.96677  0.41044  0.70338  Biso   1.000  C
  H145     1.0000 0.95482  0.46541  0.69228  Biso   1.000  H
  H146     1.0000 0.05248  0.45319  0.74939  Biso   1.000  H
  C107     1.0000 0.10187  0.45289  0.66358  Biso   1.000  C
  C108     1.0000 0.89416  0.40332  0.75137  Biso   1.000  C
  H147     1.0000 0.92105  0.40621  0.66080  Biso   1.000  H
  H148     1.0000 0.02827  0.39239  0.71020  Biso   1.000  H
  H149     1.0000 0.06209  0.45510  0.61916  Biso   1.000  H
  H150     1.0000 0.15063  0.43111  0.66710  Biso   1.000  H
  C109     1.0000 0.17439  0.48671  0.68188  Biso   1.000  C
  C110     1.0000 0.18997  0.43550  0.66216  Biso   1.000  C
  C111     1.0000 0.85421  0.36373  0.75090  Biso   1.000  C
  H151     1.0000 0.93742  0.40940  0.79390  Biso   1.000  H
  H152     1.0000 0.82824  0.41960  0.74229  Biso   1.000  H
  H153     1.0000 0.22543  0.48960  0.65290  Biso   1.000  H
  H154     1.0000 0.12645  0.50830  0.67948  Biso   1.000  H
  H155     1.0000 0.21781  0.48390  0.72488  Biso   1.000  H
  H156     1.0000 0.22208  0.44450  0.62749  Biso   1.000  H
  H157     1.0000 0.24328  0.43880  0.70206  Biso   1.000  H
  H158     1.0000 0.17201  0.40951  0.65600  Biso   1.000  H
  C112     1.0000 0.95242  0.33758  0.76421  Biso   1.000  C
  H159     1.0000 0.81278  0.35849  0.70710  Biso   1.000  H
  C113     1.0000 0.77297  0.35612  0.79409  Biso   1.000  C
  C114     1.0000 0.96719  0.31110  0.71999  Biso   1.000  C
  C115     1.0000 0.03433  0.33990  0.81898  Biso   1.000  C
  C116     1.0000 0.76597  0.37791  0.84542  Biso   1.000  C
  C117     1.0000 0.70841  0.32490  0.78496  Biso   1.000  C
  O17      1.0000 0.88158  0.30603  0.66762  Biso   1.000  O
  C118     1.0000 0.06350  0.29008  0.72949  Biso   1.000  C
  C119     1.0000 0.13112  0.31928  0.82999  Biso   1.000  C
  H160     1.0000 0.02340  0.35661  0.85059  Biso   1.000  H
  H161     1.0000 0.81025  0.39939  0.85229  Biso   1.000  H
  C120     1.0000 0.69712  0.36970  0.88743  Biso   1.000  C
  C121     1.0000 0.63614  0.31606  0.82458  Biso   1.000  C
  O18      1.0000 0.70976  0.29973  0.73711  Biso   1.000  O
  C122     1.0000 0.91076  0.31383  0.60909  Biso   1.000  C
  H162     1.0000 0.07351  0.27271  0.69867  Biso   1.000  H
  C123     1.0000 0.14541  0.29425  0.78379  Biso   1.000  C
  C124     1.0000 0.22185  0.32471  0.88894  Biso   1.000  C
  C125     1.0000 0.63193  0.33845  0.87506  Biso   1.000  C
  C126     1.0000 0.69714  0.39228  0.94648  Biso   1.000  C
  H163     1.0000 0.59057  0.29490  0.81686  Biso   1.000  H
  H164     1.0000 0.74609  0.30829  0.71166  Biso   1.000  H
  H165     1.0000 0.96405  0.29561  0.60058  Biso   1.000  H
  H166     1.0000 0.84336  0.31320  0.57550  Biso   1.000  H
  H167     1.0000 0.94479  0.33810  0.61079  Biso   1.000  H
  O19      1.0000 0.24396  0.27508  0.79272  Biso   1.000  O
  C127     1.0000 0.18537  0.31083  0.94780  Biso   1.000  C
  H168     1.0000 0.28587  0.30889  0.88358  Biso   1.000  H
  C128     1.0000 0.26632  0.36373  0.89454  Biso   1.000  C
  O20      1.0000 0.56316  0.33062  0.91684  Biso   1.000  O
  H169     1.0000 0.61735  0.39610  0.94940  Biso   1.000  H
  C129     1.0000 0.75176  0.43010  0.94686  Biso   1.000  C
  C130     1.0000 0.75338  0.37022  0.00473  Biso   1.000  C
  H170     1.0000 0.23535  0.25651  0.76967  Biso   1.000  H
  C131     1.0000 0.13576  0.33302  0.98595  Biso   1.000  C
  C132     1.0000 0.20412  0.27440  0.96648  Biso   1.000  C
  H171     1.0000 0.32230  0.36621  0.93439  Biso   1.000  H
  H172     1.0000 0.20402  0.38061  0.89637  Biso   1.000  H
  C133     1.0000 0.31951  0.37469  0.83977  Biso   1.000  C
  C134     1.0000 0.50977  0.29553  0.91119  Biso   1.000  C
  H173     1.0000 0.71498  0.44349  0.90856  Biso   1.000  H
  H174     1.0000 0.83128  0.42691  0.94497  Biso   1.000  H
  C135     1.0000 0.74485  0.45298  0.00440  Biso   1.000  C
  C136     1.0000 0.86844  0.36564  0.01766  Biso   1.000  C
  C137     1.0000 0.69548  0.35465  0.04674  Biso   1.000  C
  H175     1.0000 0.12480  0.35811  0.97509  Biso   1.000  H
  C138     1.0000 0.10080  0.32024  0.04011  Biso   1.000  C
  O21      1.0000 0.26029  0.25359  0.93039  Biso   1.000  O
  C139     1.0000 0.16660  0.26044  0.01766  Biso   1.000  C
  H176     1.0000 0.26177  0.37360  0.80049  Biso   1.000  H
  H177     1.0000 0.37790  0.35661  0.83620  Biso   1.000  H
  C140     1.0000 0.37142  0.41218  0.84518  Biso   1.000  C
  H178     1.0000 0.56630  0.27639  0.91317  Biso   1.000  H
  H179     1.0000 0.47024  0.29220  0.94568  Biso   1.000  H
  H180     1.0000 0.45636  0.29400  0.87078  Biso   1.000  H
  H181     1.0000 0.66660  0.46069  0.00153  Biso   1.000  H
  H182     1.0000 0.76653  0.43771  0.04251  Biso   1.000  H
  C141     1.0000 0.81957  0.48682  0.01164  Biso   1.000  C
  H183     1.0000 0.90921  0.37581  0.98896  Biso   1.000  H
  C142     1.0000 0.92776  0.34709  0.07008  Biso   1.000  C
  C143     1.0000 0.75025  0.33501  0.09854  Biso   1.000  C
  O22      1.0000 0.58074  0.35754  0.03907  Biso   1.000  O
  C144     1.0000 0.05377  0.34570  0.08391  Biso   1.000  C
  C145     1.0000 0.11400  0.28315  0.05281  Biso   1.000  C
  C146     1.0000 0.31692  0.22139  0.95829  Biso   1.000  C
  H184     1.0000 0.17698  0.23540  0.02830  Biso   1.000  H
  H185     1.0000 0.41981  0.41480  0.88748  Biso   1.000  H
  H186     1.0000 0.31116  0.43059  0.84128  Biso   1.000  H
  C147     1.0000 0.43976  0.42017  0.79649  Biso   1.000  C
  H187     1.0000 0.79584  0.50239  0.97396  Biso   1.000  H
  H188     1.0000 0.89725  0.47899  0.01272  Biso   1.000  H
  C148     1.0000 0.81810  0.50945  0.06951  Biso   1.000  C
  C149     1.0000 0.86516  0.33095  0.10997  Biso   1.000  C
  H189     1.0000 0.70888  0.32430  0.12630  Biso   1.000  H
  H190     1.0000 0.55109  0.35650  0.00063  Biso   1.000  H
  H191     1.0000 0.07759  0.33551  0.12734  Biso   1.000  H
  C150     1.0000 0.10569  0.38459  0.08537  Biso   1.000  C
  O23      1.0000 0.07640  0.26657  0.10160  Biso   1.000  O
  H192     1.0000 0.26165  0.20271  0.96257  Biso   1.000  H
  H193     1.0000 0.36579  0.21209  0.93138  Biso   1.000  H
  H194     1.0000 0.36171  0.22739  0.99988  Biso   1.000  H
  H195     1.0000 0.49968  0.40171  0.79969  Biso   1.000  H
  H196     1.0000 0.39146  0.41829  0.75400  Biso   1.000  H
  C151     1.0000 0.49268  0.45843  0.80486  Biso   1.000  C
  H197     1.0000 0.74096  0.51809  0.06791  Biso   1.000  H
  H198     1.0000 0.83979  0.49380  0.10720  Biso   1.000  H
  C152     1.0000 0.89601  0.54220  0.07633  Biso   1.000  C
  O24      1.0000 0.92481  0.31050  0.15820  Biso   1.000  O
  H199     1.0000 0.07637  0.39680  0.04472  Biso   1.000  H
  H200     1.0000 0.18757  0.38241  0.09031  Biso   1.000  H
  C153     1.0000 0.08009  0.40804  0.13853  Biso   1.000  C
  H201     1.0000 0.04127  0.28179  0.11882  Biso   1.000  H
  H202     1.0000 0.52478  0.46271  0.84947  Biso   1.000  H
  H203     1.0000 0.55163  0.46020  0.78068  Biso   1.000  H
  H204     1.0000 0.43528  0.47681  0.78990  Biso   1.000  H
  H205     1.0000 0.88251  0.55589  0.03672  Biso   1.000  H
  H206     1.0000 0.88179  0.55799  0.11012  Biso   1.000  H
  H207     1.0000 0.97371  0.53380  0.08631  Biso   1.000  H
  C154     1.0000 0.86179  0.29212  0.19810  Biso   1.000  C
  H208     1.0000 0.99806  0.41041  0.13340  Biso   1.000  H
  H209     1.0000 0.10919  0.39580  0.17923  Biso   1.000  H
  C155     1.0000 0.13156  0.44575  0.13943  Biso   1.000  C
  H210     1.0000 0.80916  0.27500  0.17283  Biso   1.000  H
  H211     1.0000 0.91301  0.27871  0.23103  Biso   1.000  H
  H212     1.0000 0.82037  0.31009  0.21753  Biso   1.000  H
  H213     1.0000 0.21071  0.44319  0.13632  Biso   1.000  H
  H214     1.0000 0.09249  0.45949  0.10202  Biso   1.000  H
  C156     1.0000 0.12605  0.46808  0.19923  Biso   1.000  C
  H215     1.0000 0.15559  0.45309  0.23691  Biso   1.000  H
  H216     1.0000 0.04718  0.47389  0.19932  Biso   1.000  H
  C157     1.0000 0.19159  0.50271  0.20304  Biso   1.000  C
  H217     1.0000 0.16272  0.51771  0.16582  Biso   1.000  H
  H218     1.0000 0.18479  0.51610  0.24101  Biso   1.000  H
  H219     1.0000 0.27043  0.49699  0.20464  Biso   1.000  H
  C158     1.0000 0.98392  0.55242  0.29457  Biso   1.000  C
  C159     1.0000 0.03327  0.58956  0.29660  Biso   1.000  C
  H220     1.0000 0.04521  0.53459  0.30770  Biso   1.000  H
  H221     1.0000 0.94756  0.54681  0.25058  Biso   1.000  H
  C160     1.0000 0.89817  0.54711  0.33640  Biso   1.000  C
  C161     1.0000 0.10587  0.59668  0.24861  Biso   1.000  C
  H222     1.0000 0.07890  0.59379  0.33917  Biso   1.000  H
  H223     1.0000 0.97169  0.60759  0.28977  Biso   1.000  H
  H224     1.0000 0.93795  0.54490  0.38081  Biso   1.000  H
  H225     1.0000 0.84941  0.56889  0.33287  Biso   1.000  H
  C162     1.0000 0.82565  0.51329  0.31810  Biso   1.000  C
  C163     1.0000 0.81006  0.56450  0.33781  Biso   1.000  C
  C164     1.0000 0.14583  0.63627  0.24908  Biso   1.000  C
  H226     1.0000 0.06262  0.59060  0.20607  Biso   1.000  H
  H227     1.0000 0.17172  0.58040  0.25769  Biso   1.000  H
  H228     1.0000 0.77461  0.51040  0.34708  Biso   1.000  H
  H229     1.0000 0.87350  0.49170  0.32050  Biso   1.000  H
  H230     1.0000 0.78222  0.51610  0.27509  Biso   1.000  H
  H231     1.0000 0.77795  0.55550  0.37249  Biso   1.000  H
  H232     1.0000 0.75676  0.56120  0.29791  Biso   1.000  H
  H233     1.0000 0.82802  0.59049  0.34397  Biso   1.000  H
  C165     1.0000 0.22707  0.64388  0.20589  Biso   1.000  C
  C166     1.0000 0.04762  0.66242  0.23576  Biso   1.000  C
  H234     1.0000 0.18726  0.64151  0.29288  Biso   1.000  H
  C167     1.0000 0.23407  0.62209  0.15456  Biso   1.000  C
  C168     1.0000 0.29162  0.67510  0.21501  Biso   1.000  C
  C169     1.0000 0.03293  0.68890  0.27999  Biso   1.000  C
  C170     1.0000 0.96562  0.66010  0.18100  Biso   1.000  C
  C171     1.0000 0.30298  0.63030  0.11249  Biso   1.000  C
  H235     1.0000 0.18987  0.60061  0.14769  Biso   1.000  H
  C172     1.0000 0.36381  0.68394  0.17540  Biso   1.000  C
  O25      1.0000 0.29028  0.70027  0.26286  Biso   1.000  O
  O26      1.0000 0.11853  0.69397  0.33235  Biso   1.000  O
  C173     1.0000 0.93654  0.70990  0.27048  Biso   1.000  C
  C174     1.0000 0.86892  0.68072  0.16999  Biso   1.000  C
  H236     1.0000 0.97664  0.64339  0.14938  Biso   1.000  H
  C175     1.0000 0.30298  0.60772  0.05349  Biso   1.000  C
  C176     1.0000 0.36794  0.66155  0.12491  Biso   1.000  C
  H237     1.0000 0.40947  0.70510  0.18311  Biso   1.000  H
  H238     1.0000 0.25394  0.69171  0.28831  Biso   1.000  H
  C177     1.0000 0.08936  0.68617  0.39088  Biso   1.000  C
  H239     1.0000 0.92653  0.72729  0.30130  Biso   1.000  H
  C178     1.0000 0.85463  0.70575  0.21619  Biso   1.000  C
  C179     1.0000 0.77810  0.67529  0.11104  Biso   1.000  C
  C180     1.0000 0.24828  0.56990  0.05312  Biso   1.000  C
  H240     1.0000 0.38253  0.60390  0.05058  Biso   1.000  H
  C181     1.0000 0.24665  0.62978  0.99525  Biso   1.000  C
  O27      1.0000 0.43679  0.66938  0.08314  Biso   1.000  O
  H241     1.0000 0.03606  0.70439  0.39940  Biso   1.000  H
  H242     1.0000 0.15659  0.68680  0.42447  Biso   1.000  H
  H243     1.0000 0.05532  0.66190  0.38919  Biso   1.000  H
  O28      1.0000 0.75600  0.72492  0.20725  Biso   1.000  O
  C182     1.0000 0.81458  0.68917  0.05218  Biso   1.000  C
  H244     1.0000 0.71416  0.69111  0.11640  Biso   1.000  H
  C183     1.0000 0.73372  0.63624  0.10544  Biso   1.000  C
  H245     1.0000 0.28506  0.55649  0.09142  Biso   1.000  H
  H246     1.0000 0.16876  0.57309  0.05500  Biso   1.000  H
  C184     1.0000 0.25509  0.54702  0.99553  Biso   1.000  C
  C185     1.0000 0.13151  0.63436  0.98231  Biso   1.000  C
  C186     1.0000 0.30455  0.64535  0.95323  Biso   1.000  C
  C187     1.0000 0.49018  0.70447  0.08878  Biso   1.000  C
  H247     1.0000 0.76460  0.74349  0.23030  Biso   1.000  H
  C188     1.0000 0.86427  0.66698  0.01402  Biso   1.000  C
  C189     1.0000 0.79592  0.72560  0.03350  Biso   1.000  C
  H248     1.0000 0.67773  0.63379  0.06559  Biso   1.000  H
  H249     1.0000 0.79602  0.61939  0.10360  Biso   1.000  H
  C190     1.0000 0.68053  0.62531  0.16020  Biso   1.000  C
  H250     1.0000 0.33344  0.53931  0.99845  Biso   1.000  H
  H251     1.0000 0.23342  0.56229  0.95747  Biso   1.000  H
  C191     1.0000 0.18046  0.51318  0.98833  Biso   1.000  C
  H252     1.0000 0.09082  0.62419  0.01101  Biso   1.000  H
  C192     1.0000 0.07219  0.65291  0.92990  Biso   1.000  C
  C193     1.0000 0.24971  0.66499  0.90143  Biso   1.000  C
  O29      1.0000 0.41922  0.64246  0.96090  Biso   1.000  O
  H253     1.0000 0.43366  0.72361  0.08680  Biso   1.000  H
  H254     1.0000 0.52979  0.70780  0.05429  Biso   1.000  H
  H255     1.0000 0.54368  0.70600  0.12920  Biso   1.000  H
  C194     1.0000 0.89923  0.67974  0.95987  Biso   1.000  C
  H256     1.0000 0.87524  0.64189  0.02489  Biso   1.000  H
  C195     1.0000 0.83344  0.73956  0.98231  Biso   1.000  C
  O30      1.0000 0.73974  0.74641  0.06959  Biso   1.000  O
  H257     1.0000 0.73826  0.62640  0.19949  Biso   1.000  H
  H258     1.0000 0.62214  0.64339  0.16378  Biso   1.000  H
  C196     1.0000 0.62862  0.58782  0.15479  Biso   1.000  C
  H259     1.0000 0.20419  0.49759  0.02602  Biso   1.000  H
  H260     1.0000 0.10270  0.52101  0.98725  Biso   1.000  H
  C197     1.0000 0.18194  0.49055  0.93046  Biso   1.000  C
  C198     1.0000 0.94618  0.65430  0.91607  Biso   1.000  C
  C199     1.0000 0.13480  0.66905  0.89000  Biso   1.000  C
  H261     1.0000 0.29115  0.67570  0.87367  Biso   1.000  H
  H262     1.0000 0.44895  0.64350  0.99934  Biso   1.000  H
  C200     1.0000 0.88604  0.71685  0.94716  Biso   1.000  C
  H263     1.0000 0.82305  0.76460  0.97168  Biso   1.000  H
  C201     1.0000 0.68311  0.77861  0.04169  Biso   1.000  C
  H264     1.0000 0.58022  0.58520  0.11249  Biso   1.000  H
  H265     1.0000 0.68879  0.56941  0.15870  Biso   1.000  H
  C202     1.0000 0.56019  0.57983  0.20349  Biso   1.000  C
  H266     1.0000 0.25907  0.48191  0.93206  Biso   1.000  H
  H267     1.0000 0.16025  0.50620  0.89278  Biso   1.000  H
  C203     1.0000 0.10402  0.45780  0.92364  Biso   1.000  C
  H268     1.0000 0.92245  0.66449  0.87264  Biso   1.000  H
  C204     1.0000 0.89434  0.61541  0.91461  Biso   1.000  C
  O31      1.0000 0.07523  0.68950  0.84178  Biso   1.000  O
  O32      1.0000 0.92363  0.73343  0.89837  Biso   1.000  O
  H269     1.0000 0.73830  0.79729  0.03740  Biso   1.000  H
  H270     1.0000 0.63425  0.78791  0.06860  Biso   1.000  H
  H271     1.0000 0.63833  0.77258  0.00009  Biso   1.000  H
  H272     1.0000 0.50028  0.59829  0.20029  Biso   1.000  H
  H273     1.0000 0.60849  0.58171  0.24597  Biso   1.000  H
  C205     1.0000 0.50735  0.54157  0.19511  Biso   1.000  C
  H274     1.0000 0.11752  0.44409  0.96325  Biso   1.000  H
  H275     1.0000 0.11824  0.44199  0.88986  Biso   1.000  H
  H276     1.0000 0.02633  0.46620  0.91367  Biso   1.000  H
  H277     1.0000 0.92358  0.60320  0.95526  Biso   1.000  H
  H278     1.0000 0.81238  0.61759  0.90967  Biso   1.000  H
  C206     1.0000 0.91994  0.59196  0.86144  Biso   1.000  C
  C207     1.0000 0.13824  0.70788  0.80188  Biso   1.000  C
  H279     1.0000 0.95876  0.71819  0.88115  Biso   1.000  H
  H280     1.0000 0.47526  0.53729  0.15051  Biso   1.000  H
  H281     1.0000 0.44841  0.53980  0.21929  Biso   1.000  H
  H282     1.0000 0.56467  0.52319  0.21007  Biso   1.000  H
  H283     1.0000 0.89085  0.60420  0.82074  Biso   1.000  H
  C208     1.0000 0.86840  0.55425  0.86055  Biso   1.000  C
  H284     1.0000 0.00197  0.58959  0.86657  Biso   1.000  H
  H285     1.0000 0.19080  0.72500  0.82714  Biso   1.000  H
  H286     1.0000 0.08702  0.72129  0.76894  Biso   1.000  H
  H287     1.0000 0.17966  0.68991  0.78245  Biso   1.000  H
  H288     1.0000 0.78933  0.55679  0.86365  Biso   1.000  H
  H289     1.0000 0.90755  0.54051  0.89795  Biso   1.000  H
  C209     1.0000 0.87390  0.53192  0.80075  Biso   1.000  C
  H290     1.0000 0.84445  0.54689  0.76306  Biso   1.000  H
  H291     1.0000 0.95286  0.52611  0.80065  Biso   1.000  H
  C210     1.0000 0.80845  0.49729  0.79694  Biso   1.000  C
  H292     1.0000 0.83732  0.48229  0.83415  Biso   1.000  H
  H293     1.0000 0.81524  0.48390  0.75897  Biso   1.000  H
  H294     1.0000 0.72960  0.50299  0.79534  Biso   1.000  H
  C211     1.0000 0.50988  0.20448  0.41121  Biso   1.000  C
  O33      1.0000 0.56318  0.16936  0.41685  Biso   1.000  O
  H295     1.0000 0.56624  0.22360  0.41318  Biso   1.000  H
  H296     1.0000 0.47027  0.20781  0.44569  Biso   1.000  H
  H297     1.0000 0.45638  0.20601  0.37079  Biso   1.000  H
  C212     1.0000 0.63204  0.16154  0.37507  Biso   1.000  C
  C213     1.0000 0.69706  0.13029  0.38745  Biso   1.000  C
  C214     1.0000 0.63617  0.18395  0.32459  Biso   1.000  C
  C215     1.0000 0.76607  0.12211  0.34543  Biso   1.000  C
  C216     1.0000 0.69708  0.10774  0.44649  Biso   1.000  C
  H298     1.0000 0.59059  0.20511  0.31687  Biso   1.000  H
  C217     1.0000 0.70835  0.17512  0.28497  Biso   1.000  C
  C218     1.0000 0.77307  0.14389  0.29410  Biso   1.000  C
  H299     1.0000 0.81027  0.10059  0.35230  Biso   1.000  H
  C219     1.0000 0.75339  0.12977  0.50469  Biso   1.000  C
  H300     1.0000 0.61737  0.10389  0.44941  Biso   1.000  H
  C220     1.0000 0.75178  0.06989  0.44687  Biso   1.000  C
  O34      1.0000 0.70986  0.20026  0.23713  Biso   1.000  O
  C221     1.0000 0.85423  0.13626  0.25091  Biso   1.000  C
  C222     1.0000 0.86853  0.13435  0.51763  Biso   1.000  C
  C223     1.0000 0.69549  0.14534  0.54671  Biso   1.000  C
  H301     1.0000 0.71508  0.05650  0.40857  Biso   1.000  H
  H302     1.0000 0.83138  0.07311  0.44499  Biso   1.000  H
  C224     1.0000 0.74487  0.04701  0.50441  Biso   1.000  C
  H303     1.0000 0.74611  0.19169  0.21167  Biso   1.000  H
  C225     1.0000 0.95236  0.16241  0.26423  Biso   1.000  C
  H304     1.0000 0.81288  0.14149  0.20711  Biso   1.000  H
  C226     1.0000 0.89419  0.09667  0.25138  Biso   1.000  C
  H305     1.0000 0.90924  0.12421  0.48898  Biso   1.000  H
  C227     1.0000 0.92777  0.15292  0.57004  Biso   1.000  C
  C228     1.0000 0.75025  0.16497  0.59851  Biso   1.000  C
  O35      1.0000 0.58074  0.14245  0.53904  Biso   1.000  O
  H306     1.0000 0.66660  0.03929  0.50149  Biso   1.000  H
  H307     1.0000 0.76654  0.06231  0.54247  Biso   1.000  H
  C229     1.0000 0.81958  0.01320  0.51161  Biso   1.000  C
  C230     1.0000 0.96721  0.18889  0.22000  Biso   1.000  C
  C231     1.0000 0.03436  0.16009  0.31899  Biso   1.000  C
  H308     1.0000 0.93736  0.09061  0.29391  Biso   1.000  H
  H309     1.0000 0.82826  0.08041  0.24230  Biso   1.000  H
  C232     1.0000 0.96687  0.08955  0.20339  Biso   1.000  C
  C233     1.0000 0.86516  0.16906  0.60994  Biso   1.000  C
  C234     1.0000 0.05378  0.15428  0.58388  Biso   1.000  C
  H310     1.0000 0.70889  0.17569  0.62627  Biso   1.000  H
  H311     1.0000 0.55109  0.14351  0.50060  Biso   1.000  H
  H312     1.0000 0.89734  0.02100  0.51269  Biso   1.000  H
  H313     1.0000 0.79586  0.99760  0.47397  Biso   1.000  H
  C235     1.0000 0.81810  0.99054  0.56948  Biso   1.000  C
  O36      1.0000 0.88161  0.19398  0.16763  Biso   1.000  O
  C236     1.0000 0.06352  0.20991  0.22950  Biso   1.000  C
  C237     1.0000 0.13106  0.18073  0.33000  Biso   1.000  C
  H314     1.0000 0.02342  0.14340  0.35061  Biso   1.000  H
  H315     1.0000 0.92115  0.09380  0.16081  Biso   1.000  H
  H316     1.0000 0.02829  0.10760  0.21021  Biso   1.000  H
  C238     1.0000 0.01614  0.05241  0.20541  Biso   1.000  C
  O37      1.0000 0.92489  0.18951  0.65817  Biso   1.000  O
  H317     1.0000 0.07759  0.16451  0.62730  Biso   1.000  H
  C239     1.0000 0.10081  0.17975  0.54007  Biso   1.000  C
  C240     1.0000 0.10570  0.11543  0.58533  Biso   1.000  C
  H318     1.0000 0.83979  0.00619  0.60716  Biso   1.000  H
  H319     1.0000 0.74097  0.98189  0.56788  Biso   1.000  H
  C241     1.0000 0.89602  0.95782  0.57630  Biso   1.000  C
  C242     1.0000 0.91070  0.18616  0.10911  Biso   1.000  C
  H320     1.0000 0.07353  0.22731  0.19869  Biso   1.000  H
  C243     1.0000 0.14543  0.20574  0.28380  Biso   1.000  C
  C244     1.0000 0.22188  0.17528  0.38895  Biso   1.000  C
  H321     1.0000 0.95476  0.03460  0.19229  Biso   1.000  H
  H322     1.0000 0.05250  0.04679  0.24941  Biso   1.000  H
  C245     1.0000 0.10189  0.04709  0.16359  Biso   1.000  C
  C246     1.0000 0.86180  0.20789  0.69806  Biso   1.000  C
  C247     1.0000 0.13578  0.16696  0.48597  Biso   1.000  C
  C248     1.0000 0.11400  0.21686  0.55278  Biso   1.000  C
  H323     1.0000 0.07638  0.10321  0.54468  Biso   1.000  H
  H324     1.0000 0.18758  0.11761  0.59027  Biso   1.000  H
  C249     1.0000 0.08010  0.09195  0.63850  Biso   1.000  C
  H325     1.0000 0.88260  0.94410  0.53669  Biso   1.000  H
  H326     1.0000 0.88188  0.94200  0.61008  Biso   1.000  H
  H327     1.0000 0.97380  0.96619  0.58627  Biso   1.000  H
  H328     1.0000 0.96408  0.20440  0.10059  Biso   1.000  H
  H329     1.0000 0.84347  0.18679  0.07551  Biso   1.000  H
  H330     1.0000 0.94482  0.16189  0.11080  Biso   1.000  H
  O38      1.0000 0.24398  0.22491  0.29274  Biso   1.000  O
  C250     1.0000 0.18539  0.18919  0.44781  Biso   1.000  C
  H331     1.0000 0.28590  0.19109  0.38359  Biso   1.000  H
  C251     1.0000 0.26634  0.13626  0.39455  Biso   1.000  C
  H332     1.0000 0.06211  0.04491  0.11917  Biso   1.000  H
  H333     1.0000 0.15057  0.06891  0.16712  Biso   1.000  H
  C252     1.0000 0.17441  0.01331  0.18189  Biso   1.000  C
  C253     1.0000 0.19000  0.06449  0.16218  Biso   1.000  C
  H334     1.0000 0.80916  0.22499  0.67280  Biso   1.000  H
  H335     1.0000 0.91302  0.22131  0.73100  Biso   1.000  H
  H336     1.0000 0.82038  0.18989  0.71749  Biso   1.000  H
  H337     1.0000 0.12482  0.14190  0.47510  Biso   1.000  H
  C254     1.0000 0.16660  0.23958  0.51763  Biso   1.000  C
  O39      1.0000 0.07641  0.23344  0.60157  Biso   1.000  O
  H338     1.0000 0.99815  0.08960  0.63337  Biso   1.000  H
  H339     1.0000 0.10919  0.10419  0.67920  Biso   1.000  H
  C255     1.0000 0.13156  0.05426  0.63939  Biso   1.000  C
  H340     1.0000 0.23538  0.24350  0.26968  Biso   1.000  H
  C256     1.0000 0.20406  0.22559  0.46649  Biso   1.000  C
  H341     1.0000 0.32233  0.13380  0.43440  Biso   1.000  H
  H342     1.0000 0.20396  0.11941  0.39639  Biso   1.000  H
  C257     1.0000 0.31953  0.12530  0.33979  Biso   1.000  C
  H343     1.0000 0.12647  0.99171  0.17949  Biso   1.000  H
  H344     1.0000 0.22537  0.01039  0.15291  Biso   1.000  H
  H345     1.0000 0.21784  0.01609  0.22489  Biso   1.000  H
  H346     1.0000 0.22211  0.05549  0.12750  Biso   1.000  H
  H347     1.0000 0.24330  0.06119  0.20207  Biso   1.000  H
  H348     1.0000 0.17203  0.09050  0.15601  Biso   1.000  H
  H349     1.0000 0.17699  0.26461  0.52826  Biso   1.000  H
  H350     1.0000 0.04128  0.21820  0.61879  Biso   1.000  H
  H351     1.0000 0.21071  0.05680  0.63629  Biso   1.000  H
  H352     1.0000 0.09250  0.04049  0.60199  Biso   1.000  H
  C258     1.0000 0.12606  0.03193  0.69919  Biso   1.000  C
  O40      1.0000 0.26032  0.24639  0.43040  Biso   1.000  O
  H353     1.0000 0.26180  0.12639  0.30050  Biso   1.000  H
  H354     1.0000 0.37792  0.14340  0.33621  Biso   1.000  H
  C259     1.0000 0.37144  0.08783  0.34520  Biso   1.000  C
  C260     1.0000 0.19159  0.99727  0.70300  Biso   1.000  C
  H355     1.0000 0.15559  0.04690  0.73688  Biso   1.000  H
  H356     1.0000 0.04719  0.02610  0.69929  Biso   1.000  H
  C261     1.0000 0.31687  0.27860  0.45830  Biso   1.000  C
  H357     1.0000 0.41984  0.08521  0.38749  Biso   1.000  H
  H358     1.0000 0.31119  0.06940  0.34129  Biso   1.000  H
  C262     1.0000 0.43978  0.07981  0.29650  Biso   1.000  C
  H359     1.0000 0.16272  0.98230  0.66579  Biso   1.000  H
  H360     1.0000 0.18480  0.98391  0.74097  Biso   1.000  H
  H361     1.0000 0.27036  0.00300  0.70460  Biso   1.000  H
  H362     1.0000 0.26168  0.29730  0.46258  Biso   1.000  H
  H363     1.0000 0.36581  0.28790  0.43139  Biso   1.000  H
  H364     1.0000 0.36173  0.27260  0.49989  Biso   1.000  H
  H365     1.0000 0.49970  0.09830  0.29970  Biso   1.000  H
  H366     1.0000 0.39149  0.08169  0.25402  Biso   1.000  H
  C263     1.0000 0.49271  0.04156  0.30488  Biso   1.000  C
  H367     1.0000 0.52480  0.03730  0.34948  Biso   1.000  H
  H368     1.0000 0.55165  0.03981  0.28069  Biso   1.000  H
  H369     1.0000 0.43531  0.02321  0.28991  Biso   1.000  H
  C264     1.0000 0.49024  0.79552  0.58877  Biso   1.000  C
  O41      1.0000 0.43685  0.83064  0.58312  Biso   1.000  O
  H370     1.0000 0.43372  0.77640  0.58679  Biso   1.000  H
  H371     1.0000 0.52977  0.79219  0.55428  Biso   1.000  H
  H372     1.0000 0.54365  0.79399  0.62918  Biso   1.000  H
  C265     1.0000 0.36808  0.83846  0.62490  Biso   1.000  C
  C266     1.0000 0.30296  0.86969  0.61248  Biso   1.000  C
  C267     1.0000 0.36387  0.81605  0.67538  Biso   1.000  C
  C268     1.0000 0.30296  0.89226  0.55348  Biso   1.000  C
  C269     1.0000 0.23404  0.87789  0.65454  Biso   1.000  C
  C270     1.0000 0.29160  0.82488  0.71500  Biso   1.000  C
  H373     1.0000 0.40944  0.79489  0.68310  Biso   1.000  H
  C271     1.0000 0.24664  0.87020  0.49528  Biso   1.000  C
  H374     1.0000 0.38259  0.89611  0.55056  Biso   1.000  H
  C272     1.0000 0.24825  0.93011  0.55311  Biso   1.000  C
  C273     1.0000 0.22704  0.85611  0.70587  Biso   1.000  C
  H375     1.0000 0.18984  0.89941  0.64767  Biso   1.000  H
  O42      1.0000 0.29026  0.79974  0.76285  Biso   1.000  O
  C274     1.0000 0.13150  0.86565  0.48234  Biso   1.000  C
  C275     1.0000 0.30455  0.85463  0.45327  Biso   1.000  C
  H376     1.0000 0.28504  0.94350  0.59140  Biso   1.000  H
  H377     1.0000 0.16873  0.92689  0.55499  Biso   1.000  H
  C276     1.0000 0.25516  0.95299  0.49556  Biso   1.000  C
  C277     1.0000 0.14580  0.86371  0.74906  Biso   1.000  C
  H378     1.0000 0.25392  0.80831  0.78830  Biso   1.000  H
  C278     1.0000 0.07227  0.84708  0.42993  Biso   1.000  C
  H379     1.0000 0.09080  0.87579  0.51100  Biso   1.000  H
  C279     1.0000 0.24970  0.83503  0.40147  Biso   1.000  C
  O43      1.0000 0.41921  0.85755  0.46094  Biso   1.000  O
  H380     1.0000 0.33335  0.96071  0.49848  Biso   1.000  H
  H381     1.0000 0.23341  0.93769  0.45750  Biso   1.000  H
  C280     1.0000 0.18045  0.98680  0.48837  Biso   1.000  C
  C281     1.0000 0.04760  0.83756  0.73575  Biso   1.000  C
  H382     1.0000 0.18724  0.85851  0.79287  Biso   1.000  H
  C282     1.0000 0.10585  0.90333  0.74859  Biso   1.000  C
  C283     1.0000 0.13487  0.83094  0.39003  Biso   1.000  C
  C284     1.0000 0.94626  0.84572  0.41610  Biso   1.000  C
  H383     1.0000 0.29115  0.82428  0.37371  Biso   1.000  H
  H384     1.0000 0.44894  0.85649  0.49938  Biso   1.000  H
  H385     1.0000 0.10270  0.97900  0.48728  Biso   1.000  H
  H386     1.0000 0.20417  0.00240  0.52601  Biso   1.000  H
  C285     1.0000 0.18193  0.00943  0.43050  Biso   1.000  C
  C286     1.0000 0.96560  0.83991  0.68098  Biso   1.000  C
  C287     1.0000 0.03290  0.81111  0.77997  Biso   1.000  C
  H387     1.0000 0.06260  0.90939  0.70606  Biso   1.000  H
  H388     1.0000 0.17169  0.91959  0.75767  Biso   1.000  H
  C288     1.0000 0.03324  0.91042  0.79658  Biso   1.000  C
  O44      1.0000 0.07522  0.81049  0.34181  Biso   1.000  O
  H389     1.0000 0.92244  0.83549  0.37267  Biso   1.000  H
  C289     1.0000 0.89921  0.82025  0.45985  Biso   1.000  C
  C290     1.0000 0.89434  0.88457  0.41464  Biso   1.000  C
  H390     1.0000 0.16024  0.99381  0.39281  Biso   1.000  H
  H391     1.0000 0.25906  0.01811  0.43210  Biso   1.000  H
  C291     1.0000 0.10402  0.04218  0.42367  Biso   1.000  C
  C292     1.0000 0.86889  0.81927  0.66997  Biso   1.000  C
  H392     1.0000 0.97662  0.85660  0.64937  Biso   1.000  H
  C293     1.0000 0.93651  0.79009  0.77047  Biso   1.000  C
  O45      1.0000 0.11851  0.80602  0.83234  Biso   1.000  O
  H393     1.0000 0.07888  0.90620  0.83916  Biso   1.000  H
  H394     1.0000 0.97174  0.89240  0.78976  Biso   1.000  H
  C294     1.0000 0.98389  0.94759  0.79456  Biso   1.000  C
  C295     1.0000 0.13824  0.79211  0.30191  Biso   1.000  C
  C296     1.0000 0.86425  0.83304  0.51401  Biso   1.000  C
  C297     1.0000 0.88603  0.78314  0.44720  Biso   1.000  C
  H395     1.0000 0.92366  0.89679  0.45529  Biso   1.000  H
  H396     1.0000 0.81246  0.88239  0.40970  Biso   1.000  H
  C298     1.0000 0.91994  0.90802  0.36148  Biso   1.000  C
  H397     1.0000 0.11752  0.05590  0.46329  Biso   1.000  H
  H398     1.0000 0.11824  0.05800  0.38989  Biso   1.000  H
  H399     1.0000 0.02632  0.03379  0.41370  Biso   1.000  H
  C299     1.0000 0.77808  0.82472  0.61102  Biso   1.000  C
  C300     1.0000 0.85461  0.79426  0.71618  Biso   1.000  C
  H400     1.0000 0.92650  0.77269  0.80129  Biso   1.000  H
  C301     1.0000 0.08934  0.81384  0.89087  Biso   1.000  C
  H401     1.0000 0.04519  0.96540  0.80769  Biso   1.000  H
  H402     1.0000 0.94754  0.95321  0.75057  Biso   1.000  H
  C302     1.0000 0.89815  0.95291  0.83639  Biso   1.000  C
  H403     1.0000 0.19087  0.77498  0.32718  Biso   1.000  H
  H404     1.0000 0.08702  0.77869  0.26898  Biso   1.000  H
  H405     1.0000 0.17966  0.81011  0.28248  Biso   1.000  H
  H406     1.0000 0.87521  0.85810  0.52488  Biso   1.000  H
  C303     1.0000 0.81464  0.81081  0.55216  Biso   1.000  C
  C304     1.0000 0.83343  0.76042  0.48234  Biso   1.000  C
  O46      1.0000 0.92363  0.76656  0.39841  Biso   1.000  O
  H407     1.0000 0.00189  0.91040  0.36660  Biso   1.000  H
  H408     1.0000 0.89084  0.89581  0.32078  Biso   1.000  H
  C305     1.0000 0.86839  0.94574  0.36058  Biso   1.000  C
  H409     1.0000 0.71414  0.80891  0.61639  Biso   1.000  H
  C306     1.0000 0.73369  0.86374  0.60542  Biso   1.000  C
  O47      1.0000 0.75597  0.77507  0.70724  Biso   1.000  O
  H410     1.0000 0.03596  0.79560  0.89938  Biso   1.000  H
  H411     1.0000 0.15657  0.81319  0.92446  Biso   1.000  H
  H412     1.0000 0.05530  0.83811  0.88917  Biso   1.000  H
  H413     1.0000 0.93793  0.95509  0.88080  Biso   1.000  H
  H414     1.0000 0.84938  0.93109  0.83286  Biso   1.000  H
  C307     1.0000 0.82562  0.98669  0.81808  Biso   1.000  C
  C308     1.0000 0.81004  0.93548  0.83780  Biso   1.000  C
  C309     1.0000 0.79589  0.77438  0.53349  Biso   1.000  C
  H415     1.0000 0.82305  0.73539  0.47171  Biso   1.000  H
  H416     1.0000 0.95876  0.78180  0.38119  Biso   1.000  H
  H417     1.0000 0.78932  0.94320  0.36369  Biso   1.000  H
  H418     1.0000 0.90754  0.95951  0.39799  Biso   1.000  H
  C310     1.0000 0.87389  0.96807  0.30078  Biso   1.000  C
  H419     1.0000 0.67771  0.86620  0.56557  Biso   1.000  H
  H420     1.0000 0.79599  0.88059  0.60359  Biso   1.000  H
  C311     1.0000 0.68050  0.87468  0.66019  Biso   1.000  C
  H421     1.0000 0.76458  0.75650  0.73029  Biso   1.000  H
  H422     1.0000 0.77458  0.98961  0.84707  Biso   1.000  H
  H423     1.0000 0.78220  0.98388  0.77508  Biso   1.000  H
  H424     1.0000 0.87348  0.00829  0.82048  Biso   1.000  H
  H425     1.0000 0.77793  0.94451  0.87247  Biso   1.000  H
  H426     1.0000 0.75673  0.93881  0.79790  Biso   1.000  H
  H427     1.0000 0.82800  0.90950  0.84396  Biso   1.000  H
  O48      1.0000 0.73972  0.75361  0.56957  Biso   1.000  O
  H428     1.0000 0.84444  0.95310  0.26310  Biso   1.000  H
  H429     1.0000 0.95285  0.97390  0.30069  Biso   1.000  H
  C312     1.0000 0.80844  0.00273  0.29697  Biso   1.000  C
  H430     1.0000 0.73824  0.87359  0.69947  Biso   1.000  H
  H431     1.0000 0.62211  0.85660  0.66376  Biso   1.000  H
  C313     1.0000 0.62859  0.91217  0.65478  Biso   1.000  C
  C314     1.0000 0.68309  0.72138  0.54167  Biso   1.000  C
  H432     1.0000 0.72960  0.99700  0.29537  Biso   1.000  H
  H433     1.0000 0.83731  0.01770  0.33419  Biso   1.000  H
  H434     1.0000 0.81524  0.01609  0.25900  Biso   1.000  H
  H435     1.0000 0.58020  0.91479  0.61248  Biso   1.000  H
  H436     1.0000 0.68877  0.93060  0.65868  Biso   1.000  H
  C315     1.0000 0.56017  0.92019  0.70347  Biso   1.000  C
  H437     1.0000 0.73828  0.70270  0.53739  Biso   1.000  H
  H438     1.0000 0.63422  0.71210  0.56858  Biso   1.000  H
  H439     1.0000 0.63831  0.72740  0.50008  Biso   1.000  H
  H440     1.0000 0.50026  0.90170  0.70027  Biso   1.000  H
  H441     1.0000 0.60847  0.91831  0.74596  Biso   1.000  H
  C316     1.0000 0.50733  0.95844  0.69510  Biso   1.000  C
  H442     1.0000 0.47524  0.96270  0.65050  Biso   1.000  H
  H443     1.0000 0.44839  0.96019  0.71928  Biso   1.000  H
  H444     1.0000 0.56473  0.97679  0.71006  Biso   1.000  H
  C317     1.0000 0.58192  0.80154  0.39483  Biso   1.000  C
  O49      1.0000 0.61423  0.79519  0.33663  Biso   1.000  O
  H445     1.0000 0.55129  0.82619  0.39507  Biso   1.000  H
  H446     1.0000 0.64713  0.79909  0.42937  Biso   1.000  H
  H447     1.0000 0.52492  0.78371  0.40020  Biso   1.000  H
  C318     1.0000 0.53225  0.80255  0.28323  Biso   1.000  C
  C319     1.0000 0.55125  0.83080  0.24381  Biso   1.000  C
  C320     1.0000 0.43784  0.78096  0.26893  Biso   1.000  C
  C321     1.0000 0.47189  0.83574  0.18801  Biso   1.000  C
  C322     1.0000 0.65188  0.85608  0.26103  Biso   1.000  C
  C323     1.0000 0.35893  0.78788  0.21435  Biso   1.000  C
  H448     1.0000 0.42713  0.76160  0.29608  Biso   1.000  H
  C324     1.0000 0.37451  0.81545  0.17187  Biso   1.000  C
  H449     1.0000 0.48553  0.85401  0.15950  Biso   1.000  H
  C325     1.0000 0.73494  0.84825  0.21901  Biso   1.000  C
  H450     1.0000 0.69031  0.84959  0.30488  Biso   1.000  H
  C326     1.0000 0.61390  0.89603  0.26281  Biso   1.000  C
  O50      1.0000 0.26101  0.76811  0.20047  Biso   1.000  O
  C327     1.0000 0.28589  0.82469  0.11311  Biso   1.000  C
  C328     1.0000 0.75154  0.87135  0.17088  Biso   1.000  C
  C329     1.0000 0.79654  0.81613  0.22743  Biso   1.000  C
  H451     1.0000 0.67964  0.91231  0.26761  Biso   1.000  H
  H452     1.0000 0.56265  0.90211  0.22249  Biso   1.000  H
  C330     1.0000 0.55464  0.90230  0.31730  Biso   1.000  C
  H453     1.0000 0.26751  0.74919  0.22292  Biso   1.000  H
  C331     1.0000 0.32475  0.81477  0.05293  Biso   1.000  C
  H454     1.0000 0.22003  0.80880  0.11438  Biso   1.000  H
  C332     1.0000 0.24570  0.86407  0.11466  Biso   1.000  C
  C333     1.0000 0.82431  0.86314  0.13108  Biso   1.000  C
  H455     1.0000 0.71159  0.89371  0.16491  Biso   1.000  H
  C334     1.0000 0.87030  0.80738  0.18942  Biso   1.000  C
  O51      1.0000 0.78962  0.79064  0.27368  Biso   1.000  O
  H456     1.0000 0.49058  0.88531  0.31259  Biso   1.000  H
  H457     1.0000 0.60693  0.89619  0.35710  Biso   1.000  H
  C335     1.0000 0.51234  0.94050  0.32219  Biso   1.000  C
  C336     1.0000 0.30344  0.78000  0.02757  Biso   1.000  C
  C337     1.0000 0.37811  0.83915  0.02051  Biso   1.000  C
  H458     1.0000 0.30953  0.88059  0.11452  Biso   1.000  H
  H459     1.0000 0.18877  0.86890  0.07598  Biso   1.000  H
  C338     1.0000 0.19589  0.87288  0.17149  Biso   1.000  C
  C339     1.0000 0.83726  0.88722  0.07617  Biso   1.000  C
  C340     1.0000 0.88264  0.83053  0.14148  Biso   1.000  C
  H460     1.0000 0.91229  0.78540  0.19629  Biso   1.000  H
  H461     1.0000 0.73862  0.79669  0.29217  Biso   1.000  H
  H462     1.0000 0.45128  0.94541  0.28540  Biso   1.000  H
  H463     1.0000 0.57350  0.95790  0.32059  Biso   1.000  H
  C341     1.0000 0.46873  0.94721  0.38321  Biso   1.000  C
  O52      1.0000 0.24548  0.75710  0.05947  Biso   1.000  O
  C342     1.0000 0.33967  0.77013  0.97375  Biso   1.000  C
  H464     1.0000 0.39152  0.86309  0.03689  Biso   1.000  H
  C343     1.0000 0.41349  0.83050  0.96485  Biso   1.000  C
  H465     1.0000 0.13418  0.85559  0.17272  Biso   1.000  H
  H466     1.0000 0.25383  0.86920  0.21021  Biso   1.000  H
  C344     1.0000 0.15221  0.91124  0.17112  Biso   1.000  C
  C345     1.0000 0.77452  0.87040  0.01430  Biso   1.000  C
  H467     1.0000 0.91832  0.88719  0.07471  Biso   1.000  H
  C346     1.0000 0.80337  0.92698  0.08262  Biso   1.000  C
  O53      1.0000 0.95132  0.82240  0.10054  Biso   1.000  O
  H468     1.0000 0.42722  0.97061  0.37898  Biso   1.000  H
  H469     1.0000 0.41538  0.92760  0.38759  Biso   1.000  H
  C347     1.0000 0.56003  0.94857  0.44301  Biso   1.000  C
  C348     1.0000 0.18861  0.72615  0.02630  Biso   1.000  C
  H470     1.0000 0.32630  0.74611  0.95747  Biso   1.000  H
  C349     1.0000 0.39537  0.79492  0.94368  Biso   1.000  C
  C350     1.0000 0.46795  0.85810  0.92877  Biso   1.000  C
  H471     1.0000 0.09569  0.91509  0.13178  Biso   1.000  H
  H472     1.0000 0.21438  0.92839  0.17069  Biso   1.000  H
  C351     1.0000 0.09944  0.92038  0.22701  Biso   1.000  C
  C352     1.0000 0.65771  0.86990  0.99906  Biso   1.000  C
  C353     1.0000 0.82905  0.85428  0.97088  Biso   1.000  C
  H473     1.0000 0.72126  0.92839  0.07749  Biso   1.000  H
  H474     1.0000 0.83745  0.93578  0.12529  Biso   1.000  H
  C354     1.0000 0.83963  0.95163  0.03420  Biso   1.000  C
  C355     1.0000 0.00534  0.78725  0.10680  Biso   1.000  C
  H475     1.0000 0.60407  0.92610  0.44659  Biso   1.000  H
  H476     1.0000 0.52565  0.95089  0.47971  Biso   1.000  H
  H477     1.0000 0.60882  0.96960  0.44108  Biso   1.000  H
  H478     1.0000 0.14372  0.71409  0.05269  Biso   1.000  H
  H479     1.0000 0.24372  0.70900  0.01628  Biso   1.000  H
  H480     1.0000 0.13967  0.73449  0.98716  Biso   1.000  H
  O54      1.0000 0.42921  0.78126  0.89136  Biso   1.000  O
  C356     1.0000 0.59543  0.85583  0.94415  Biso   1.000  C
  H481     1.0000 0.44430  0.85131  0.88337  Biso   1.000  H
  C357     1.0000 0.42837  0.89723  0.93394  Biso   1.000  C
  H482     1.0000 0.05643  0.94331  0.21849  Biso   1.000  H
  H483     1.0000 0.04709  0.90069  0.23280  Biso   1.000  H
  C358     1.0000 0.18841  0.92458  0.28672  Biso   1.000  C
  H484     1.0000 0.61889  0.87999  0.02861  Biso   1.000  H
  C359     1.0000 0.76955  0.83912  0.91555  Biso   1.000  C
  O55      1.0000 0.94455  0.85248  0.98080  Biso   1.000  O
  H485     1.0000 0.92140  0.94961  0.03839  Biso   1.000  H
  C360     1.0000 0.80961  0.99122  0.04159  Biso   1.000  C
  H486     1.0000 0.80365  0.94331  0.99144  Biso   1.000  H
  H487     1.0000 0.94927  0.76809  0.10539  Biso   1.000  H
  H488     1.0000 0.05911  0.78611  0.14707  Biso   1.000  H
  H489     1.0000 0.04454  0.78371  0.07231  Biso   1.000  H
  H490     1.0000 0.46913  0.79680  0.87805  Biso   1.000  H
  C361     1.0000 0.65475  0.83983  0.90266  Biso   1.000  C
  H491     1.0000 0.45223  0.90549  0.97817  Biso   1.000  H
  H492     1.0000 0.34577  0.89780  0.92308  Biso   1.000  H
  C362     1.0000 0.47398  0.92379  0.89118  Biso   1.000  C
  H493     1.0000 0.22933  0.90159  0.29598  Biso   1.000  H
  H494     1.0000 0.15287  0.93090  0.32181  Biso   1.000  H
  H495     1.0000 0.24041  0.94399  0.28088  Biso   1.000  H
  H496     1.0000 0.80814  0.82829  0.88647  Biso   1.000  H
  H497     1.0000 0.97076  0.84711  0.01858  Biso   1.000  H
  H498     1.0000 0.72748  0.99299  0.03552  Biso   1.000  H
  H499     1.0000 0.84173  0.99869  0.08539  Biso   1.000  H
  C363     1.0000 0.84742  0.01762  0.99826  Biso   1.000  C
  O56      1.0000 0.59023  0.82456  0.84921  Biso   1.000  O
  H500     1.0000 0.55604  0.92070  0.89837  Biso   1.000  H
  H501     1.0000 0.44257  0.91711  0.84686  Biso   1.000  H
  C364     1.0000 0.44870  0.96403  0.90035  Biso   1.000  C
  H502     1.0000 0.81334  0.01069  0.95446  Biso   1.000  H
  H503     1.0000 0.92942  0.01530  0.00329  Biso   1.000  H
  C365     1.0000 0.81988  0.05715  0.00772  Biso   1.000  C
  C366     1.0000 0.64609  0.80672  0.80564  Biso   1.000  C
  H504     1.0000 0.36821  0.96810  0.88304  Biso   1.000  H
  H505     1.0000 0.46192  0.96889  0.94604  Biso   1.000  H
  C367     1.0000 0.51217  0.99136  0.87184  Biso   1.000  C
  H506     1.0000 0.74124  0.06171  0.98857  Biso   1.000  H
  H507     1.0000 0.86735  0.07289  0.98786  Biso   1.000  H
  H508     1.0000 0.83306  0.06250  0.05288  Biso   1.000  H
  H509     1.0000 0.69628  0.82398  0.79115  Biso   1.000  H
  H510     1.0000 0.59065  0.79789  0.76946  Biso   1.000  H
  H511     1.0000 0.68947  0.78611  0.82644  Biso   1.000  H
  H512     1.0000 0.49852  0.98658  0.82606  Biso   1.000  H
  H513     1.0000 0.59267  0.98718  0.88896  Biso   1.000  H
  C368     1.0000 0.48843  0.03051  0.88097  Biso   1.000  C
  H514     1.0000 0.41070  0.03588  0.86097  Biso   1.000  H
  H515     1.0000 0.53854  0.04559  0.86186  Biso   1.000  H
  H516     1.0000 0.50051  0.03588  0.92604  Biso   1.000  H
  C369     1.0000 0.41812  0.19846  0.60514  Biso   1.000  C
  O57      1.0000 0.38580  0.20481  0.66334  Biso   1.000  O
  H517     1.0000 0.44874  0.17381  0.60491  Biso   1.000  H
  H518     1.0000 0.35291  0.20091  0.57061  Biso   1.000  H
  H519     1.0000 0.47511  0.21629  0.59978  Biso   1.000  H
  C370     1.0000 0.46779  0.19745  0.71674  Biso   1.000  C
  C371     1.0000 0.44879  0.16920  0.75617  Biso   1.000  C
  C372     1.0000 0.56219  0.21902  0.73104  Biso   1.000  C
  C373     1.0000 0.52807  0.16426  0.81197  Biso   1.000  C
  C374     1.0000 0.34808  0.14392  0.73895  Biso   1.000  C
  H520     1.0000 0.57291  0.23840  0.70390  Biso   1.000  H
  C375     1.0000 0.64110  0.21212  0.78562  Biso   1.000  C
  C376     1.0000 0.62552  0.18455  0.82811  Biso   1.000  C
  H521     1.0000 0.51451  0.14599  0.84048  Biso   1.000  H
  C377     1.0000 0.26509  0.15175  0.78096  Biso   1.000  C
  H522     1.0000 0.30973  0.15041  0.69510  Biso   1.000  H
  C378     1.0000 0.38605  0.10397  0.73716  Biso   1.000  C
  O58      1.0000 0.73903  0.23189  0.79950  Biso   1.000  O
  C379     1.0000 0.71406  0.17531  0.88687  Biso   1.000  C
  C380     1.0000 0.24850  0.12865  0.82909  Biso   1.000  C
  C381     1.0000 0.20349  0.18387  0.77254  Biso   1.000  C
  H523     1.0000 0.32040  0.08769  0.73236  Biso   1.000  H
  H524     1.0000 0.43739  0.09789  0.77748  Biso   1.000  H
  C382     1.0000 0.44539  0.09770  0.68268  Biso   1.000  C
  H525     1.0000 0.73253  0.25081  0.77706  Biso   1.000  H
  C383     1.0000 0.67529  0.18523  0.94704  Biso   1.000  C
  H526     1.0000 0.78000  0.19120  0.88560  Biso   1.000  H
  C384     1.0000 0.75433  0.13593  0.88532  Biso   1.000  C
  H527     1.0000 0.28836  0.10629  0.83507  Biso   1.000  H
  C385     1.0000 0.17573  0.13686  0.86890  Biso   1.000  C
  C386     1.0000 0.12965  0.19262  0.81056  Biso   1.000  C
  O59      1.0000 0.21041  0.20936  0.72629  Biso   1.000  O
  H528     1.0000 0.50938  0.11469  0.68738  Biso   1.000  H
  H529     1.0000 0.39310  0.10381  0.64287  Biso   1.000  H
  C387     1.0000 0.48769  0.05950  0.67778  Biso   1.000  C
  C388     1.0000 0.62192  0.16083  0.97946  Biso   1.000  C
  C389     1.0000 0.69659  0.22000  0.97240  Biso   1.000  C
  H530     1.0000 0.69051  0.11941  0.88546  Biso   1.000  H
  H531     1.0000 0.81119  0.13110  0.92399  Biso   1.000  H
  C390     1.0000 0.80414  0.12712  0.82848  Biso   1.000  C
  C391     1.0000 0.11740  0.16947  0.85850  Biso   1.000  C
  C392     1.0000 0.16278  0.11278  0.92380  Biso   1.000  C
  H532     1.0000 0.08766  0.21460  0.80369  Biso   1.000  H
  H533     1.0000 0.26141  0.20331  0.70780  Biso   1.000  H
  H534     1.0000 0.54867  0.05459  0.71458  Biso   1.000  H
  H535     1.0000 0.42653  0.04210  0.67938  Biso   1.000  H
  C393     1.0000 0.53130  0.05279  0.61676  Biso   1.000  C
  H536     1.0000 0.60852  0.13691  0.96309  Biso   1.000  H
  C394     1.0000 0.58655  0.16950  0.03512  Biso   1.000  C
  O60      1.0000 0.75448  0.24290  0.94050  Biso   1.000  O
  C395     1.0000 0.66029  0.22987  0.02623  Biso   1.000  C
  H537     1.0000 0.86577  0.14441  0.82726  Biso   1.000  H
  H538     1.0000 0.74621  0.13080  0.78976  Biso   1.000  H
  C396     1.0000 0.84782  0.08876  0.82886  Biso   1.000  C
  O61      1.0000 0.04864  0.17760  0.89943  Biso   1.000  O
  H539     1.0000 0.08163  0.11281  0.92526  Biso   1.000  H
  C397     1.0000 0.22551  0.12960  0.98567  Biso   1.000  C
  C398     1.0000 0.19666  0.07302  0.91736  Biso   1.000  C
  H540     1.0000 0.57281  0.02939  0.62100  Biso   1.000  H
  H541     1.0000 0.58458  0.07240  0.61239  Biso   1.000  H
  C399     1.0000 0.44001  0.05143  0.55696  Biso   1.000  C
  C400     1.0000 0.53209  0.14190  0.07121  Biso   1.000  C
  C401     1.0000 0.60458  0.20508  0.05629  Biso   1.000  C
  C402     1.0000 0.81142  0.27385  0.97367  Biso   1.000  C
  H542     1.0000 0.67374  0.25389  0.04251  Biso   1.000  H
  H543     1.0000 0.90435  0.08491  0.86819  Biso   1.000  H
  H544     1.0000 0.78557  0.07161  0.82928  Biso   1.000  H
  C403     1.0000 0.90060  0.07962  0.77296  Biso   1.000  C
  C404     1.0000 0.99454  0.21272  0.89317  Biso   1.000  C
  C405     1.0000 0.34232  0.13007  0.00092  Biso   1.000  C
  C406     1.0000 0.17099  0.14572  0.02910  Biso   1.000  C
  H545     1.0000 0.27877  0.07161  0.92248  Biso   1.000  H
  H546     1.0000 0.16259  0.06419  0.87468  Biso   1.000  H
  C407     1.0000 0.16040  0.04837  0.96577  Biso   1.000  C
  H547     1.0000 0.39588  0.07390  0.55339  Biso   1.000  H
  H548     1.0000 0.47439  0.04911  0.52027  Biso   1.000  H
  H549     1.0000 0.39122  0.03040  0.55889  Biso   1.000  H
  C408     1.0000 0.40460  0.14417  0.05582  Biso   1.000  C
  H550     1.0000 0.55573  0.14869  0.11661  Biso   1.000  H
  C409     1.0000 0.57159  0.10277  0.06603  Biso   1.000  C
  O62      1.0000 0.57083  0.21872  0.10861  Biso   1.000  O
  H551     1.0000 0.85631  0.28591  0.94728  Biso   1.000  H
  H552     1.0000 0.75631  0.29100  0.98370  Biso   1.000  H
  H553     1.0000 0.86028  0.26551  0.01282  Biso   1.000  H
  H554     1.0000 0.94361  0.05669  0.78148  Biso   1.000  H
  H555     1.0000 0.95294  0.09931  0.76718  Biso   1.000  H
  C410     1.0000 0.81162  0.07542  0.71326  Biso   1.000  C
  H556     1.0000 0.05077  0.23189  0.89459  Biso   1.000  H
  H557     1.0000 0.94093  0.21389  0.85290  Biso   1.000  H
  H558     1.0000 0.95550  0.21629  0.92766  Biso   1.000  H
  H559     1.0000 0.38106  0.12001  0.97137  Biso   1.000  H
  C411     1.0000 0.23049  0.16088  0.08443  Biso   1.000  C
  O63      1.0000 0.05549  0.14752  0.01917  Biso   1.000  O
  H560     1.0000 0.07856  0.05039  0.96158  Biso   1.000  H
  C412     1.0000 0.19035  0.00878  0.95838  Biso   1.000  C
  H561     1.0000 0.19639  0.05669  0.00854  Biso   1.000  H
  C413     1.0000 0.34528  0.16017  0.09732  Biso   1.000  C
  H562     1.0000 0.54780  0.09451  0.02180  Biso   1.000  H
  H563     1.0000 0.65419  0.10220  0.07690  Biso   1.000  H
  C414     1.0000 0.52597  0.07619  0.10880  Biso   1.000  C
  H564     1.0000 0.53090  0.20320  0.12192  Biso   1.000  H
  H565     1.0000 0.77070  0.09841  0.70399  Biso   1.000  H
  H566     1.0000 0.84709  0.06910  0.67816  Biso   1.000  H
  H567     1.0000 0.75962  0.05601  0.71909  Biso   1.000  H
  H568     1.0000 0.19190  0.17171  0.11350  Biso   1.000  H
  H569     1.0000 0.02927  0.15289  0.98139  Biso   1.000  H
  H570     1.0000 0.27256  0.00701  0.96445  Biso   1.000  H
  H571     1.0000 0.15831  0.00131  0.91458  Biso   1.000  H
  C415     1.0000 0.15261  0.98238  0.00172  Biso   1.000  C
  O64      1.0000 0.40981  0.17544  0.15077  Biso   1.000  O
  H572     1.0000 0.44399  0.07930  0.10160  Biso   1.000  H
  H573     1.0000 0.55738  0.08289  0.15312  Biso   1.000  H
  C416     1.0000 0.55133  0.03597  0.09962  Biso   1.000  C
  H574     1.0000 0.07054  0.98470  0.99668  Biso   1.000  H
  C417     1.0000 0.18016  0.94282  0.99226  Biso   1.000  C
  H575     1.0000 0.18670  0.98931  0.04552  Biso   1.000  H
  C418     1.0000 0.35386  0.19328  0.19433  Biso   1.000  C
  H576     1.0000 0.63182  0.03190  0.11694  Biso   1.000  H
  H577     1.0000 0.53812  0.03111  0.05394  Biso   1.000  H
  C419     1.0000 0.48778  0.00864  0.12814  Biso   1.000  C
  H578     1.0000 0.16698  0.93750  0.94709  Biso   1.000  H
  H579     1.0000 0.25880  0.93829  0.01141  Biso   1.000  H
  H580     1.0000 0.13269  0.92711  0.01211  Biso   1.000  H
  H581     1.0000 0.30368  0.17599  0.20882  Biso   1.000  H
  H582     1.0000 0.40939  0.20211  0.23051  Biso   1.000  H
  H583     1.0000 0.31048  0.21389  0.17354  Biso   1.000  H
  C420     1.0000 0.51161  0.96949  0.11901  Biso   1.000  C
  H584     1.0000 0.50152  0.01339  0.17391  Biso   1.000  H
  H585     1.0000 0.40728  0.01279  0.11101  Biso   1.000  H
  H586     1.0000 0.58933  0.96409  0.13900  Biso   1.000  H
  H587     1.0000 0.46149  0.95441  0.13811  Biso   1.000  H
  H588     1.0000 0.49952  0.96409  0.07393  Biso   1.000  H
