data_image0
_cell_length_a       18.88
_cell_length_b       19.434
_cell_length_c       20.295
_cell_angle_alpha    117.57
_cell_angle_beta     90.62
_cell_angle_gamma    112.05

_symmetry_space_group_name_H-M    "P 1"
_symmetry_int_tables_number       1

loop_
  _symmetry_equiv_pos_as_xyz
  'x, y, z'

loop_
  _atom_site_label
  _atom_site_occupancy
  _atom_site_fract_x
  _atom_site_fract_y
  _atom_site_fract_z
  _atom_site_thermal_displace_type
  _atom_site_B_iso_or_equiv
  _atom_site_type_symbol
  C1       1.0000 0.48014  0.39753  0.50888  Biso   1.000  C
  Si1      1.0000 0.52854  0.40202  0.59553  Biso   1.000  Si
  H1       1.0000 0.48156  0.34494  0.45663  Biso   1.000  H
  H2       1.0000 0.51206  0.45802  0.51002  Biso   1.000  H
  H3       1.0000 0.41953  0.38700  0.51088  Biso   1.000  H
  C2       1.0000 0.46523  0.29800  0.58960  Biso   1.000  C
  C3       1.0000 0.53724  0.49752  0.68868  Biso   1.000  C
  C4       1.0000 0.62865  0.40995  0.58692  Biso   1.000  C
  C5       1.0000 0.45892  0.22204  0.52982  Biso   1.000  C
  C6       1.0000 0.42371  0.29573  0.64693  Biso   1.000  C
  H4       1.0000 0.47924  0.49557  0.69433  Biso   1.000  H
  H5       1.0000 0.57476  0.55662  0.68971  Biso   1.000  H
  H6       1.0000 0.56285  0.49563  0.73591  Biso   1.000  H
  H7       1.0000 0.65462  0.40725  0.63341  Biso   1.000  H
  H8       1.0000 0.66476  0.47056  0.58983  Biso   1.000  H
  H9       1.0000 0.62542  0.35664  0.53250  Biso   1.000  H
  C7       1.0000 0.40832  0.14418  0.51989  Biso   1.000  C
  H10      1.0000 0.49513  0.22364  0.48920  Biso   1.000  H
  C8       1.0000 0.37204  0.21884  0.63980  Biso   1.000  C
  H11      1.0000 0.43277  0.35536  0.69712  Biso   1.000  H
  C9       1.0000 0.39710  0.06483  0.44699  Biso   1.000  C
  C10      1.0000 0.36532  0.14104  0.57500  Biso   1.000  C
  Si2      1.0000 0.29850  0.20852  0.70260  Biso   1.000  Si
  Si3      1.0000 0.33052  0.23024  0.72570  Biso   1.000  Si
  C11      1.0000 0.32800  0.01912  0.39189  Biso   1.000  C
  C12      1.0000 0.45728  0.03579  0.43359  Biso   1.000  C
  H12      1.0000 0.32704  0.07973  0.56861  Biso   1.000  H
  C13      1.0000 0.33422  0.31981  0.78708  Biso   1.000  C
  C14      1.0000 0.29800  0.13502  0.73802  Biso   1.000  C
  C15      1.0000 0.19980  0.17270  0.64790  Biso   1.000  C
  C16      1.0000 0.27505  0.11904  0.71201  Biso   1.000  C
  C17      1.0000 0.25601  0.27201  0.72399  Biso   1.000  C
  C18      1.0000 0.40106  0.30904  0.82102  Biso   1.000  C
  C19      1.0000 0.31675  0.94854  0.31722  Biso   1.000  C
  O1       1.0000 0.26683  0.04403  0.40740  Biso   1.000  O
  C20      1.0000 0.45016  0.96834  0.36462  Biso   1.000  C
  O2       1.0000 0.52124  0.07463  0.48949  Biso   1.000  O
  H13      1.0000 0.39802  0.34912  0.80351  Biso   1.000  H
  H14      1.0000 0.30994  0.31653  0.83460  Biso   1.000  H
  H15      1.0000 0.31535  0.35845  0.77231  Biso   1.000  H
  H16      1.0000 0.28641  0.07211  0.68920  Biso   1.000  H
  H17      1.0000 0.25343  0.12864  0.77031  Biso   1.000  H
  H18      1.0000 0.35563  0.16150  0.77402  Biso   1.000  H
  H19      1.0000 0.24864  0.12381  0.76033  Biso   1.000  H
  H20      1.0000 0.31562  0.09011  0.70779  Biso   1.000  H
  H21      1.0000 0.20433  0.21032  0.62029  Biso   1.000  H
  H22      1.0000 0.16032  0.18190  0.68651  Biso   1.000  H
  H23      1.0000 0.17703  0.10493  0.60460  Biso   1.000  H
  H24      1.0000 0.22940  0.07952  0.65970  Biso   1.000  H
  H25      1.0000 0.28184  0.34111  0.76278  Biso   1.000  H
  H26      1.0000 0.20516  0.24065  0.74082  Biso   1.000  H
  H27      1.0000 0.23864  0.25841  0.66598  Biso   1.000  H
  H28      1.0000 0.42332  0.27535  0.83990  Biso   1.000  H
  H29      1.0000 0.37003  0.33893  0.86272  Biso   1.000  H
  H30      1.0000 0.44905  0.35823  0.81692  Biso   1.000  H
  C21      1.0000 0.24495  0.90988  0.25977  Biso   1.000  C
  C22      1.0000 0.38154  0.92748  0.30781  Biso   1.000  C
  C23      1.0000 0.26941  0.11078  0.39229  Biso   1.000  C
  C24      1.0000 0.51302  0.93500  0.34648  Biso   1.000  C
  C25      1.0000 0.59242  0.14231  0.49439  Biso   1.000  C
  C26      1.0000 0.25396  0.96233  0.22110  Biso   1.000  C
  H31      1.0000 0.19764  0.91322  0.28972  Biso   1.000  H
  C27      1.0000 0.22105  0.81513  0.20102  Biso   1.000  C
  H32      1.0000 0.37815  0.87622  0.25270  Biso   1.000  H
  C28      1.0000 0.18861  0.08620  0.35601  Biso   1.000  C
  H33      1.0000 0.30884  0.11693  0.35441  Biso   1.000  H
  H34      1.0000 0.29093  0.17229  0.44539  Biso   1.000  H
  C29      1.0000 0.57723  0.98839  0.32258  Biso   1.000  C
  H35      1.0000 0.54033  0.94471  0.39959  Biso   1.000  H
  C30      1.0000 0.48484  0.84120  0.28852  Biso   1.000  C
  H36      1.0000 0.58751  0.14639  0.44288  Biso   1.000  H
  H37      1.0000 0.60061  0.20371  0.54299  Biso   1.000  H
  C31      1.0000 0.65819  0.12611  0.50312  Biso   1.000  C
  C32      1.0000 0.20999  0.01112  0.23000  Biso   1.000  C
  C33      1.0000 0.29983  0.95998  0.16708  Biso   1.000  C
  H38      1.0000 0.26817  0.81022  0.17113  Biso   1.000  H
  H39      1.0000 0.21474  0.77968  0.23108  Biso   1.000  H
  C34      1.0000 0.14642  0.77327  0.14341  Biso   1.000  C
  O3       1.0000 0.15971  0.01100  0.28271  Biso   1.000  O
  H40      1.0000 0.14962  0.07573  0.39303  Biso   1.000  H
  H41      1.0000 0.18780  0.13933  0.35093  Biso   1.000  H
  C35      1.0000 0.56635  0.97680  0.25042  Biso   1.000  C
  C36      1.0000 0.65372  0.04603  0.37072  Biso   1.000  C
  H42      1.0000 0.53543  0.82658  0.27831  Biso   1.000  H
  H43      1.0000 0.45546  0.82859  0.23490  Biso   1.000  H
  C37      1.0000 0.42796  0.78099  0.31311  Biso   1.000  C
  O4       1.0000 0.66551  0.05320  0.44049  Biso   1.000  O
  H44      1.0000 0.65892  0.11800  0.55281  Biso   1.000  H
  H45      1.0000 0.71074  0.18372  0.51658  Biso   1.000  H
  C38      1.0000 0.21041  0.05142  0.19321  Biso   1.000  C
  C39      1.0000 0.30470  0.00203  0.12692  Biso   1.000  C
  H46      1.0000 0.33343  0.92309  0.15618  Biso   1.000  H
  H47      1.0000 0.13115  0.70478  0.10929  Biso   1.000  H
  H48      1.0000 0.15724  0.79927  0.10519  Biso   1.000  H
  C40      1.0000 0.07645  0.78359  0.17478  Biso   1.000  C
  C41      1.0000 0.62490  0.01632  0.22292  Biso   1.000  C
  H49      1.0000 0.50865  0.93441  0.21328  Biso   1.000  H
  C42      1.0000 0.71233  0.08761  0.34403  Biso   1.000  C
  H50      1.0000 0.45966  0.78631  0.36171  Biso   1.000  H
  H51      1.0000 0.38153  0.80119  0.33119  Biso   1.000  H
  C43      1.0000 0.39142  0.68742  0.24842  Biso   1.000  C
  C44      1.0000 0.15135  0.08524  0.20262  Biso   1.000  C
  C45      1.0000 0.14902  0.08599  0.18299  Biso   1.000  C
  C46      1.0000 0.26042  0.04791  0.14192  Biso   1.000  C
  C47      1.0000 0.34835  0.98791  0.06389  Biso   1.000  C
  C48      1.0000 0.99805  0.73699  0.10490  Biso   1.000  C
  H52      1.0000 0.09105  0.85182  0.21009  Biso   1.000  H
  H53      1.0000 0.06263  0.75468  0.21072  Biso   1.000  H
  C49      1.0000 0.61145  0.99869  0.13953  Biso   1.000  C
  C50      1.0000 0.69839  0.07099  0.27141  Biso   1.000  C
  C51      1.0000 0.79001  0.14702  0.39999  Biso   1.000  C
  C52      1.0000 0.79105  0.14804  0.39103  Biso   1.000  C
  H54      1.0000 0.42364  0.67841  0.20319  Biso   1.000  H
  H55      1.0000 0.39063  0.64459  0.26930  Biso   1.000  H
  C53      1.0000 0.30822  0.67102  0.22002  Biso   1.000  C
  H56      1.0000 0.43535  0.66218  0.24141  Biso   1.000  H
  H57      1.0000 0.37492  0.68497  0.19549  Biso   1.000  H
  C54      1.0000 0.31901  0.62901  0.26200  Biso   1.000  C
  C55      1.0000 0.16451  0.17301  0.21699  Biso   1.000  C
  C56      1.0000 0.07803  0.02951  0.15402  Biso   1.000  C
  C57      1.0000 0.16952  0.17491  0.24802  Biso   1.000  C
  C58      1.0000 0.07302  0.02340  0.14500  Biso   1.000  C
  O5       1.0000 0.26101  0.08867  0.09988  Biso   1.000  O
  C59      1.0000 0.43350  0.03590  0.09378  Biso   1.000  C
  H58      1.0000 0.33210  0.01399  0.03189  Biso   1.000  H
  C60      1.0000 0.31927  0.89103  0.00873  Biso   1.000  C
  H59      1.0000 0.98220  0.66897  0.06879  Biso   1.000  H
  C61      1.0000 0.92653  0.75251  0.14848  Biso   1.000  C
  H60      1.0000 0.00962  0.76730  0.06959  Biso   1.000  H
  C62      1.0000 0.56140  0.04223  0.13280  Biso   1.000  C
  H61      1.0000 0.66830  0.02907  0.12937  Biso   1.000  H
  C63      1.0000 0.57683  0.90239  0.08077  Biso   1.000  C
  O6       1.0000 0.76121  0.10834  0.24272  Biso   1.000  O
  C64      1.0000 0.81201  0.23203  0.45498  Biso   1.000  C
  C65      1.0000 0.85203  0.11801  0.40198  Biso   1.000  C
  C66      1.0000 0.85502  0.12798  0.38698  Biso   1.000  C
  C67      1.0000 0.80104  0.23100  0.44300  Biso   1.000  C
  H62      1.0000 0.30821  0.70479  0.19001  Biso   1.000  H
  H63      1.0000 0.27901  0.68971  0.26702  Biso   1.000  H
  C68      1.0000 0.26906  0.57203  0.16503  Biso   1.000  C
  H64      1.0000 0.27242  0.64938  0.26120  Biso   1.000  H
  H65      1.0000 0.33344  0.63822  0.31813  Biso   1.000  H
  C69      1.0000 0.28901  0.53399  0.20199  Biso   1.000  C
  C70      1.0000 0.11182  0.20524  0.25401  Biso   1.000  C
  H66      1.0000 0.22353  0.22152  0.24660  Biso   1.000  H
  C71      1.0000 0.10400  0.19620  0.21403  Biso   1.000  C
  C72      1.0000 0.01849  0.06049  0.15402  Biso   1.000  C
  C73      1.0000 0.01240  0.04700  0.14198  Biso   1.000  C
  H67      1.0000 0.06455  0.96258  0.11688  Biso   1.000  H
  H68      1.0000 0.06075  0.95627  0.11819  Biso   1.000  H
  H69      1.0000 0.22913  0.22020  0.27940  Biso   1.000  H
  C74      1.0000 0.31401  0.17971  0.13822  Biso   1.000  C
  C75      1.0000 0.47420  0.12329  0.11580  Biso   1.000  C
  C76      1.0000 0.47955  0.99812  0.10331  Biso   1.000  C
  H70      1.0000 0.35433  0.88092  0.96577  Biso   1.000  H
  C77      1.0000 0.23309  0.84807  0.96903  Biso   1.000  C
  H71      1.0000 0.32743  0.86088  0.04022  Biso   1.000  H
  H72      1.0000 0.91973  0.72943  0.18881  Biso   1.000  H
  H73      1.0000 0.93935  0.82051  0.17929  Biso   1.000  H
  C78      1.0000 0.85254  0.70122  0.08522  Biso   1.000  C
  C79      1.0000 0.59558  0.12819  0.15162  Biso   1.000  C
  H74      1.0000 0.52606  0.86840  0.09669  Biso   1.000  H
  H75      1.0000 0.55684  0.89222  0.02510  Biso   1.000  H
  C80      1.0000 0.63544  0.86521  0.07513  Biso   1.000  C
  C81      1.0000 0.78202  0.19770  0.26479  Biso   1.000  C
  H76      1.0000 0.76811  0.25523  0.45908  Biso   1.000  H
  C82      1.0000 0.88302  0.28971  0.50398  Biso   1.000  C
  C83      1.0000 0.87403  0.29304  0.49000  Biso   1.000  C
  C84      1.0000 0.92323  0.17175  0.44893  Biso   1.000  C
  H77      1.0000 0.83899  0.05139  0.36530  Biso   1.000  H
  H78      1.0000 0.84749  0.06381  0.34659  Biso   1.000  H
  C85      1.0000 0.92800  0.19002  0.43398  Biso   1.000  C
  H79      1.0000 0.75140  0.24692  0.44591  Biso   1.000  H
  H80      1.0000 0.29820  0.55207  0.11871  Biso   1.000  H
  H81      1.0000 0.26570  0.53708  0.19520  Biso   1.000  H
  C86      1.0000 0.18703  0.56301  0.13799  Biso   1.000  C
  H82      1.0000 0.30783  0.56819  0.11483  Biso   1.000  H
  H83      1.0000 0.21011  0.53848  0.12812  Biso   1.000  H
  H84      1.0000 0.24054  0.49528  0.21722  Biso   1.000  H
  H85      1.0000 0.33551  0.51310  0.19902  Biso   1.000  H
  C87      1.0000 0.26101  0.52401  0.12601  Biso   1.000  C
  Si4      1.0000 0.13575  0.31891  0.31060  Biso   1.000  Si
  C88      1.0000 0.04401  0.14799  0.20998  Biso   1.000  C
  Si5      1.0000 0.12721  0.31630  0.25122  Biso   1.000  Si
  C89      1.0000 0.02803  0.13300  0.17701  Biso   1.000  C
  Si6      1.0000 0.91823  0.98660  0.10022  Biso   1.000  Si
  Si7      1.0000 0.90804  0.96193  0.08482  Biso   1.000  Si
  C90      1.0000 0.39689  0.20199  0.16719  Biso   1.000  C
  H86      1.0000 0.29163  0.21398  0.18607  Biso   1.000  H
  H87      1.0000 0.31310  0.20282  0.09863  Biso   1.000  H
  O7       1.0000 0.42860  0.16044  0.10211  Biso   1.000  O
  C91      1.0000 0.55241  0.16939  0.14381  Biso   1.000  C
  H88      1.0000 0.45103  0.93109  0.08722  Biso   1.000  H
  H89      1.0000 0.22625  0.86954  0.92938  Biso   1.000  H
  C92      1.0000 0.20187  0.75063  0.92579  Biso   1.000  C
  H90      1.0000 0.19895  0.86713  0.01141  Biso   1.000  H
  H91      1.0000 0.85815  0.72957  0.04900  Biso   1.000  H
  H92      1.0000 0.80196  0.70253  0.11032  Biso   1.000  H
  H93      1.0000 0.84452  0.63489  0.05111  Biso   1.000  H
  O8       1.0000 0.67892  0.17239  0.17461  Biso   1.000  O
  H94      1.0000 0.68146  0.89159  0.05020  Biso   1.000  H
  H95      1.0000 0.66252  0.88451  0.13223  Biso   1.000  H
  C93      1.0000 0.59902  0.77019  0.02812  Biso   1.000  C
  C94      1.0000 0.71611  0.21713  0.25550  Biso   1.000  C
  H96      1.0000 0.82220  0.21471  0.23108  Biso   1.000  H
  H97      1.0000 0.81334  0.23843  0.32452  Biso   1.000  H
  Si8      1.0000 0.88664  0.39670  0.57608  Biso   1.000  Si
  C95      1.0000 0.93782  0.25794  0.50181  Biso   1.000  C
  Si9      1.0000 0.90565  0.40902  0.55828  Biso   1.000  Si
  C96      1.0000 0.93700  0.27301  0.48601  Biso   1.000  C
  Si10     1.0000 0.99681  0.12923  0.45041  Biso   1.000  Si
  Si11     1.0000 0.01440  0.15818  0.42229  Biso   1.000  Si
  H98      1.0000 0.17002  0.52361  0.07581  Biso   1.000  H
  H99      1.0000 0.18994  0.62592  0.15590  Biso   1.000  H
  H100     1.0000 0.14464  0.53152  0.16252  Biso   1.000  H
  H101     1.0000 0.24443  0.45821  0.08020  Biso   1.000  H
  C97      1.0000 0.18701  0.37702  0.26000  Biso   1.000  C
  C98      1.0000 0.21611  0.36931  0.39520  Biso   1.000  C
  C99      1.0000 0.04262  0.32404  0.33901  Biso   1.000  C
  H102     1.0000 0.19355  0.41302  0.38652  Biso   1.000  H
  C100     1.0000 0.04000  0.33199  0.28698  Biso   1.000  C
  H103     1.0000 0.99909  0.17138  0.21608  Biso   1.000  H
  H104     1.0000 0.14701  0.35321  0.20758  Biso   1.000  H
  C101     1.0000 0.11101  0.31699  0.16001  Biso   1.000  C
  C102     1.0000 0.21402  0.38903  0.33399  Biso   1.000  C
  H105     1.0000 0.98100  0.15172  0.17450  Biso   1.000  H
  C103     1.0000 0.91205  0.86906  0.99897  Biso   1.000  C
  C104     1.0000 0.91204  0.89290  0.00742  Biso   1.000  C
  C105     1.0000 0.86055  0.95897  0.16628  Biso   1.000  C
  C106     1.0000 0.85802  0.91500  0.14398  Biso   1.000  C
  C107     1.0000 0.87198  0.04299  0.07399  Biso   1.000  C
  C108     1.0000 0.84899  0.00301  0.05402  Biso   1.000  C
  H106     1.0000 0.43144  0.27143  0.19691  Biso   1.000  H
  H107     1.0000 0.39961  0.17971  0.20718  Biso   1.000  H
  C109     1.0000 0.59295  0.26081  0.16383  Biso   1.000  C
  H108     1.0000 0.20996  0.72926  0.96520  Biso   1.000  H
  H109     1.0000 0.23516  0.73145  0.88249  Biso   1.000  H
  C110     1.0000 0.11465  0.70714  0.88740  Biso   1.000  C
  H110     1.0000 0.57005  0.75064  0.97148  Biso   1.000  H
  H111     1.0000 0.55453  0.74350  0.05408  Biso   1.000  H
  C111     1.0000 0.66196  0.73222  0.02002  Biso   1.000  C
  H112     1.0000 0.67333  0.19692  0.28601  Biso   1.000  H
  H113     1.0000 0.73695  0.28623  0.27963  Biso   1.000  H
  C112     1.0000 0.99136  0.46603  0.62713  Biso   1.000  C
  C113     1.0000 0.82302  0.38202  0.64442  Biso   1.000  C
  C114     1.0000 0.83345  0.43423  0.53022  Biso   1.000  C
  C115     1.0000 0.88305  0.45501  0.50198  Biso   1.000  C
  H114     1.0000 0.99401  0.30030  0.54163  Biso   1.000  H
  H115     1.0000 0.99423  0.32132  0.52240  Biso   1.000  H
  C116     1.0000 0.86905  0.43804  0.65001  Biso   1.000  C
  C117     1.0000 0.00736  0.48303  0.56798  Biso   1.000  C
  C118     1.0000 0.97500  0.07701  0.51099  Biso   1.000  C
  C119     1.0000 0.97942  0.03070  0.36171  Biso   1.000  C
  C120     1.0000 0.99303  0.05499  0.33302  Biso   1.000  C
  C121     1.0000 0.09522  0.21980  0.48812  Biso   1.000  C
  H116     1.0000 0.02114  0.15043  0.53980  Biso   1.000  H
  H117     1.0000 0.11403  0.23323  0.44311  Biso   1.000  H
  C122     1.0000 0.06502  0.17399  0.51099  Biso   1.000  C
  C123     1.0000 0.09403  0.24398  0.41100  Biso   1.000  C
  H118     1.0000 0.23864  0.36611  0.24762  Biso   1.000  H
  H119     1.0000 0.20392  0.44570  0.29708  Biso   1.000  H
  H120     1.0000 0.20134  0.33120  0.42332  Biso   1.000  H
  H121     1.0000 0.22333  0.43421  0.43501  Biso   1.000  H
  H122     1.0000 0.27062  0.37193  0.37683  Biso   1.000  H
  H123     1.0000 0.24651  0.35452  0.33519  Biso   1.000  H
  H124     1.0000 0.03533  0.37478  0.33559  Biso   1.000  H
  H125     1.0000 0.04555  0.33644  0.39782  Biso   1.000  H
  H126     1.0000 0.05204  0.36101  0.34859  Biso   1.000  H
  H127     1.0000 0.99283  0.26240  0.30142  Biso   1.000  H
  H128     1.0000 0.02863  0.37445  0.27141  Biso   1.000  H
  H129     1.0000 0.98903  0.27023  0.26103  Biso   1.000  H
  H130     1.0000 0.16571  0.35969  0.15601  Biso   1.000  H
  H131     1.0000 0.06593  0.33852  0.15949  Biso   1.000  H
  H132     1.0000 0.09263  0.25184  0.11192  Biso   1.000  H
  H133     1.0000 0.25104  0.44365  0.32760  Biso   1.000  H
  H134     1.0000 0.95985  0.91445  0.98220  Biso   1.000  H
  H135     1.0000 0.85606  0.86626  0.96851  Biso   1.000  H
  H136     1.0000 0.85375  0.81717  0.97142  Biso   1.000  H
  H137     1.0000 0.93604  0.88974  0.95881  Biso   1.000  H
  H138     1.0000 0.91516  0.84379  0.01763  Biso   1.000  H
  H139     1.0000 0.95042  0.84697  0.01609  Biso   1.000  H
  H140     1.0000 0.88383  0.92479  0.18431  Biso   1.000  H
  H141     1.0000 0.79914  0.91718  0.13668  Biso   1.000  H
  H142     1.0000 0.80582  0.92629  0.15379  Biso   1.000  H
  H143     1.0000 0.89807  0.94449  0.19800  Biso   1.000  H
  H144     1.0000 0.86511  0.01723  0.21631  Biso   1.000  H
  H145     1.0000 0.84086  0.84562  0.11300  Biso   1.000  H
  H146     1.0000 0.81215  0.99868  0.04101  Biso   1.000  H
  H147     1.0000 0.87129  0.09710  0.12550  Biso   1.000  H
  H148     1.0000 0.90580  0.06728  0.03970  Biso   1.000  H
  H149     1.0000 0.88697  0.06638  0.06258  Biso   1.000  H
  H150     1.0000 0.80480  0.00910  0.08802  Biso   1.000  H
  H151     1.0000 0.82029  0.95947  0.99412  Biso   1.000  H
  C124     1.0000 0.60392  0.27901  0.10228  Biso   1.000  C
  C125     1.0000 0.62255  0.32771  0.24032  Biso   1.000  C
  H152     1.0000 0.08356  0.73465  0.92961  Biso   1.000  H
  H153     1.0000 0.10843  0.72252  0.84290  Biso   1.000  H
  C126     1.0000 0.07535  0.60992  0.85197  Biso   1.000  C
  C127     1.0000 0.06008  0.70607  0.93999  Biso   1.000  C
  H154     1.0000 0.10536  0.74014  0.85927  Biso   1.000  H
  H155     1.0000 0.09971  0.64103  0.84330  Biso   1.000  H
  H156     1.0000 0.70487  0.75723  0.99179  Biso   1.000  H
  C128     1.0000 0.62836  0.63753  0.97673  Biso   1.000  C
  H157     1.0000 0.69295  0.75507  0.07689  Biso   1.000  H
  H158     1.0000 0.00533  0.44995  0.66883  Biso   1.000  H
  H159     1.0000 0.00144  0.53332  0.65628  Biso   1.000  H
  H160     1.0000 0.02855  0.45564  0.58623  Biso   1.000  H
  H161     1.0000 0.76187  0.35086  0.61612  Biso   1.000  H
  H162     1.0000 0.83672  0.44394  0.69433  Biso   1.000  H
  H163     1.0000 0.83542  0.34120  0.66210  Biso   1.000  H
  H164     1.0000 0.80554  0.41322  0.63620  Biso   1.000  H
  H165     1.0000 0.88616  0.41016  0.67933  Biso   1.000  H
  H166     1.0000 0.84604  0.41943  0.47420  Biso   1.000  H
  H167     1.0000 0.85305  0.50335  0.56593  Biso   1.000  H
  H168     1.0000 0.77042  0.40151  0.52411  Biso   1.000  H
  H169     1.0000 0.82012  0.42843  0.48321  Biso   1.000  H
  H170     1.0000 0.90961  0.43780  0.45258  Biso   1.000  H
  H171     1.0000 0.90775  0.52430  0.53769  Biso   1.000  H
  H172     1.0000 0.89506  0.50784  0.68612  Biso   1.000  H
  H173     1.0000 0.04888  0.46627  0.58783  Biso   1.000  H
  H174     1.0000 0.01813  0.54901  0.60939  Biso   1.000  H
  H175     1.0000 0.01481  0.47781  0.51299  Biso   1.000  H
  H176     1.0000 0.94460  0.10629  0.55320  Biso   1.000  H
  H177     1.0000 0.93771  0.00874  0.47483  Biso   1.000  H
  H178     1.0000 0.02964  0.08663  0.53969  Biso   1.000  H
  H179     1.0000 0.98770  0.04448  0.31528  Biso   1.000  H
  H180     1.0000 0.92950  0.01661  0.31351  Biso   1.000  H
  H181     1.0000 0.91954  0.98291  0.34882  Biso   1.000  H
  H182     1.0000 0.02050  0.00578  0.36799  Biso   1.000  H
  H183     1.0000 0.02042  0.02043  0.34391  Biso   1.000  H
  H184     1.0000 0.01571  0.06910  0.28921  Biso   1.000  H
  H185     1.0000 0.13662  0.20311  0.50820  Biso   1.000  H
  H186     1.0000 0.09332  0.27650  0.53529  Biso   1.000  H
  H187     1.0000 0.10223  0.24183  0.54961  Biso   1.000  H
  H188     1.0000 0.10053  0.13802  0.49690  Biso   1.000  H
  H189     1.0000 0.07510  0.23989  0.35800  Biso   1.000  H
  H190     1.0000 0.14733  0.23432  0.40991  Biso   1.000  H
  H191     1.0000 0.10546  0.30705  0.45903  Biso   1.000  H
  H192     1.0000 0.58061  0.22771  0.04358  Biso   1.000  H
  C129     1.0000 0.64441  0.36228  0.11968  Biso   1.000  C
  C130     1.0000 0.66040  0.41359  0.25470  Biso   1.000  C
  H193     1.0000 0.61665  0.31435  0.28653  Biso   1.000  H
  C131     1.0000 0.98602  0.57304  0.83697  Biso   1.000  C
  H194     1.0000 0.09602  0.59293  0.89002  Biso   1.000  H
  H195     1.0000 0.09263  0.58073  0.79830  Biso   1.000  H
  C132     1.0000 0.11804  0.57504  0.77702  Biso   1.000  C
  C133     1.0000 0.97604  0.65203  0.88802  Biso   1.000  C
  H196     1.0000 0.06774  0.77113  0.98038  Biso   1.000  H
  H197     1.0000 0.07015  0.67715  0.97199  Biso   1.000  H
  H198     1.0000 0.67403  0.61742  0.98129  Biso   1.000  H
  C134     1.0000 0.59752  0.60304  0.90137  Biso   1.000  C
  C135     1.0000 0.68304  0.60102  0.93001  Biso   1.000  C
  H199     1.0000 0.57337  0.61305  0.93799  Biso   1.000  H
  H200     1.0000 0.58253  0.61207  0.00228  Biso   1.000  H
  H201     1.0000 0.61501  0.61386  0.01660  Biso   1.000  H
  Si12     1.0000 0.66645  0.39283  0.04341  Biso   1.000  Si
  C136     1.0000 0.67243  0.42734  0.19412  Biso   1.000  C
  Si13     1.0000 0.70552  0.50021  0.35869  Biso   1.000  Si
  H202     1.0000 0.96926  0.59244  0.89150  Biso   1.000  H
  H203     1.0000 0.96184  0.50325  0.80332  Biso   1.000  H
  H204     1.0000 0.96363  0.59676  0.80600  Biso   1.000  H
  H205     1.0000 0.95606  0.58523  0.87479  Biso   1.000  H
  H206     1.0000 0.09700  0.58631  0.73418  Biso   1.000  H
  H207     1.0000 0.10155  0.50706  0.75300  Biso   1.000  H
  H208     1.0000 0.18162  0.61073  0.79550  Biso   1.000  H
  H209     1.0000 0.97711  0.65391  0.83549  Biso   1.000  H
  H210     1.0000 0.93633  0.67735  0.91757  Biso   1.000  H
  H211     1.0000 0.57006  0.64072  0.89538  Biso   1.000  H
  H212     1.0000 0.55385  0.53692  0.87838  Biso   1.000  H
  H213     1.0000 0.64414  0.60373  0.87011  Biso   1.000  H
  H214     1.0000 0.72347  0.64806  0.91712  Biso   1.000  H
  H215     1.0000 0.64724  0.54207  0.87662  Biso   1.000  H
  H216     1.0000 0.71552  0.58692  0.96258  Biso   1.000  H
  C137     1.0000 0.60627  0.44873  0.03383  Biso   1.000  C
  C138     1.0000 0.77234  0.46391  0.06908  Biso   1.000  C
  C139     1.0000 0.64043  0.29192  0.94798  Biso   1.000  C
  H217     1.0000 0.70536  0.49234  0.20593  Biso   1.000  H
  C140     1.0000 0.71267  0.60562  0.37158  Biso   1.000  C
  C141     1.0000 0.80502  0.51012  0.38270  Biso   1.000  C
  C142     1.0000 0.64172  0.46910  0.42018  Biso   1.000  C
  H218     1.0000 0.54416  0.40851  0.02390  Biso   1.000  H
  H219     1.0000 0.62337  0.51034  0.08602  Biso   1.000  H
  H220     1.0000 0.61682  0.45939  0.98580  Biso   1.000  H
  H221     1.0000 0.78443  0.52649  0.11819  Biso   1.000  H
  H222     1.0000 0.78953  0.47159  0.02099  Biso   1.000  H
  H223     1.0000 0.80555  0.43552  0.08351  Biso   1.000  H
  H224     1.0000 0.67492  0.25882  0.95060  Biso   1.000  H
  H225     1.0000 0.65329  0.30897  0.90388  Biso   1.000  H
  H226     1.0000 0.57822  0.24990  0.93440  Biso   1.000  H
  H227     1.0000 0.74984  0.62312  0.33598  Biso   1.000  H
  H228     1.0000 0.73797  0.65561  0.43119  Biso   1.000  H
  H229     1.0000 0.65423  0.59882  0.35481  Biso   1.000  H
  H230     1.0000 0.80053  0.45545  0.38801  Biso   1.000  H
  H231     1.0000 0.83772  0.56941  0.43649  Biso   1.000  H
  H232     1.0000 0.83552  0.51132  0.33758  Biso   1.000  H
  H233     1.0000 0.58023  0.44181  0.39303  Biso   1.000  H
  H234     1.0000 0.65513  0.52582  0.47591  Biso   1.000  H
  H235     1.0000 0.65312  0.42163  0.42731  Biso   1.000  H
  C143     1.0000 0.48014  0.39753  0.50888  Biso   1.000  C
  Si14     1.0000 0.52854  0.40202  0.59553  Biso   1.000  Si
  H236     1.0000 0.48156  0.34494  0.45663  Biso   1.000  H
  H237     1.0000 0.51206  0.45802  0.51002  Biso   1.000  H
  H238     1.0000 0.41953  0.38700  0.51088  Biso   1.000  H
  C144     1.0000 0.46523  0.29800  0.58960  Biso   1.000  C
  C145     1.0000 0.53724  0.49752  0.68868  Biso   1.000  C
  C146     1.0000 0.62865  0.40995  0.58692  Biso   1.000  C
  C147     1.0000 0.45892  0.22204  0.52982  Biso   1.000  C
  C148     1.0000 0.42371  0.29573  0.64693  Biso   1.000  C
  H239     1.0000 0.47924  0.49557  0.69433  Biso   1.000  H
  H240     1.0000 0.57476  0.55662  0.68971  Biso   1.000  H
  H241     1.0000 0.56285  0.49563  0.73591  Biso   1.000  H
  H242     1.0000 0.65462  0.40725  0.63341  Biso   1.000  H
  H243     1.0000 0.66476  0.47056  0.58983  Biso   1.000  H
  H244     1.0000 0.62542  0.35664  0.53250  Biso   1.000  H
  C149     1.0000 0.40832  0.14418  0.51989  Biso   1.000  C
  H245     1.0000 0.49513  0.22364  0.48920  Biso   1.000  H
  C150     1.0000 0.37204  0.21884  0.63980  Biso   1.000  C
  H246     1.0000 0.43277  0.35536  0.69712  Biso   1.000  H
  C151     1.0000 0.39710  0.06483  0.44699  Biso   1.000  C
  C152     1.0000 0.36532  0.14104  0.57500  Biso   1.000  C
  Si15     1.0000 0.29850  0.20852  0.70260  Biso   1.000  Si
  Si16     1.0000 0.33052  0.23024  0.72570  Biso   1.000  Si
  C153     1.0000 0.32800  0.01912  0.39189  Biso   1.000  C
  C154     1.0000 0.45728  0.03579  0.43359  Biso   1.000  C
  H247     1.0000 0.32704  0.07973  0.56861  Biso   1.000  H
  C155     1.0000 0.33422  0.31981  0.78708  Biso   1.000  C
  C156     1.0000 0.29800  0.13502  0.73802  Biso   1.000  C
  C157     1.0000 0.19980  0.17270  0.64790  Biso   1.000  C
  C158     1.0000 0.27505  0.11904  0.71201  Biso   1.000  C
  C159     1.0000 0.25601  0.27201  0.72399  Biso   1.000  C
  C160     1.0000 0.40106  0.30904  0.82102  Biso   1.000  C
  C161     1.0000 0.31675  0.94854  0.31722  Biso   1.000  C
  O9       1.0000 0.26683  0.04403  0.40740  Biso   1.000  O
  C162     1.0000 0.45016  0.96834  0.36462  Biso   1.000  C
  O10      1.0000 0.52124  0.07463  0.48949  Biso   1.000  O
  H248     1.0000 0.39802  0.34912  0.80351  Biso   1.000  H
  H249     1.0000 0.30994  0.31653  0.83460  Biso   1.000  H
  H250     1.0000 0.31535  0.35845  0.77231  Biso   1.000  H
  H251     1.0000 0.28641  0.07211  0.68920  Biso   1.000  H
  H252     1.0000 0.25343  0.12864  0.77031  Biso   1.000  H
  H253     1.0000 0.35563  0.16150  0.77402  Biso   1.000  H
  H254     1.0000 0.24864  0.12381  0.76033  Biso   1.000  H
  H255     1.0000 0.31562  0.09011  0.70779  Biso   1.000  H
  H256     1.0000 0.20433  0.21032  0.62029  Biso   1.000  H
  H257     1.0000 0.16032  0.18190  0.68651  Biso   1.000  H
  H258     1.0000 0.17703  0.10493  0.60460  Biso   1.000  H
  H259     1.0000 0.22940  0.07952  0.65970  Biso   1.000  H
  H260     1.0000 0.28184  0.34111  0.76278  Biso   1.000  H
  H261     1.0000 0.20516  0.24065  0.74082  Biso   1.000  H
  H262     1.0000 0.23864  0.25841  0.66598  Biso   1.000  H
  H263     1.0000 0.42332  0.27535  0.83990  Biso   1.000  H
  H264     1.0000 0.37003  0.33893  0.86272  Biso   1.000  H
  H265     1.0000 0.44905  0.35823  0.81692  Biso   1.000  H
  C163     1.0000 0.24495  0.90988  0.25977  Biso   1.000  C
  C164     1.0000 0.38154  0.92748  0.30781  Biso   1.000  C
  C165     1.0000 0.26941  0.11078  0.39229  Biso   1.000  C
  C166     1.0000 0.51302  0.93500  0.34648  Biso   1.000  C
  C167     1.0000 0.59242  0.14231  0.49439  Biso   1.000  C
  C168     1.0000 0.25396  0.96233  0.22110  Biso   1.000  C
  H266     1.0000 0.19764  0.91322  0.28972  Biso   1.000  H
  C169     1.0000 0.22105  0.81513  0.20102  Biso   1.000  C
  H267     1.0000 0.37815  0.87622  0.25270  Biso   1.000  H
  C170     1.0000 0.18861  0.08620  0.35601  Biso   1.000  C
  H268     1.0000 0.30884  0.11693  0.35441  Biso   1.000  H
  H269     1.0000 0.29093  0.17229  0.44539  Biso   1.000  H
  C171     1.0000 0.57723  0.98839  0.32258  Biso   1.000  C
  H270     1.0000 0.54033  0.94471  0.39959  Biso   1.000  H
  C172     1.0000 0.48484  0.84120  0.28852  Biso   1.000  C
  H271     1.0000 0.58751  0.14639  0.44288  Biso   1.000  H
  H272     1.0000 0.60061  0.20371  0.54299  Biso   1.000  H
  C173     1.0000 0.65819  0.12611  0.50312  Biso   1.000  C
  C174     1.0000 0.20999  0.01112  0.23000  Biso   1.000  C
  C175     1.0000 0.29983  0.95998  0.16708  Biso   1.000  C
  H273     1.0000 0.26817  0.81022  0.17113  Biso   1.000  H
  H274     1.0000 0.21474  0.77968  0.23108  Biso   1.000  H
  C176     1.0000 0.14642  0.77327  0.14341  Biso   1.000  C
  O11      1.0000 0.15971  0.01100  0.28271  Biso   1.000  O
  H275     1.0000 0.14962  0.07573  0.39303  Biso   1.000  H
  H276     1.0000 0.18780  0.13933  0.35093  Biso   1.000  H
  C177     1.0000 0.56635  0.97680  0.25042  Biso   1.000  C
  C178     1.0000 0.65372  0.04603  0.37072  Biso   1.000  C
  H277     1.0000 0.53543  0.82658  0.27831  Biso   1.000  H
  H278     1.0000 0.45546  0.82859  0.23490  Biso   1.000  H
  C179     1.0000 0.42796  0.78099  0.31311  Biso   1.000  C
  O12      1.0000 0.66551  0.05320  0.44049  Biso   1.000  O
  H279     1.0000 0.65892  0.11800  0.55281  Biso   1.000  H
  H280     1.0000 0.71074  0.18372  0.51658  Biso   1.000  H
  C180     1.0000 0.21041  0.05142  0.19321  Biso   1.000  C
  C181     1.0000 0.30470  0.00203  0.12692  Biso   1.000  C
  H281     1.0000 0.33343  0.92309  0.15618  Biso   1.000  H
  H282     1.0000 0.13115  0.70478  0.10929  Biso   1.000  H
  H283     1.0000 0.15724  0.79927  0.10519  Biso   1.000  H
  C182     1.0000 0.07645  0.78359  0.17478  Biso   1.000  C
  C183     1.0000 0.62490  0.01632  0.22292  Biso   1.000  C
  H284     1.0000 0.50865  0.93441  0.21328  Biso   1.000  H
  C184     1.0000 0.71233  0.08761  0.34403  Biso   1.000  C
  H285     1.0000 0.45966  0.78631  0.36171  Biso   1.000  H
  H286     1.0000 0.38153  0.80119  0.33119  Biso   1.000  H
  C185     1.0000 0.39142  0.68742  0.24842  Biso   1.000  C
  C186     1.0000 0.15135  0.08524  0.20262  Biso   1.000  C
  C187     1.0000 0.14902  0.08599  0.18299  Biso   1.000  C
  C188     1.0000 0.26042  0.04791  0.14192  Biso   1.000  C
  C189     1.0000 0.34835  0.98791  0.06389  Biso   1.000  C
  C190     1.0000 0.99805  0.73699  0.10490  Biso   1.000  C
  H287     1.0000 0.09105  0.85182  0.21009  Biso   1.000  H
  H288     1.0000 0.06263  0.75468  0.21072  Biso   1.000  H
  C191     1.0000 0.61145  0.99869  0.13953  Biso   1.000  C
  C192     1.0000 0.69839  0.07099  0.27141  Biso   1.000  C
  C193     1.0000 0.79001  0.14702  0.39999  Biso   1.000  C
  C194     1.0000 0.79105  0.14804  0.39103  Biso   1.000  C
  H289     1.0000 0.42364  0.67841  0.20319  Biso   1.000  H
  H290     1.0000 0.39063  0.64459  0.26930  Biso   1.000  H
  C195     1.0000 0.30822  0.67102  0.22002  Biso   1.000  C
  H291     1.0000 0.43535  0.66218  0.24141  Biso   1.000  H
  H292     1.0000 0.37492  0.68497  0.19549  Biso   1.000  H
  C196     1.0000 0.31901  0.62901  0.26200  Biso   1.000  C
  C197     1.0000 0.16952  0.17491  0.24802  Biso   1.000  C
  C198     1.0000 0.07803  0.02951  0.15402  Biso   1.000  C
  C199     1.0000 0.16451  0.17301  0.21699  Biso   1.000  C
  C200     1.0000 0.07302  0.02340  0.14500  Biso   1.000  C
  O13      1.0000 0.26101  0.08867  0.09988  Biso   1.000  O
  C201     1.0000 0.43350  0.03590  0.09378  Biso   1.000  C
  H293     1.0000 0.33210  0.01399  0.03189  Biso   1.000  H
  C202     1.0000 0.31927  0.89103  0.00873  Biso   1.000  C
  H294     1.0000 0.98220  0.66897  0.06879  Biso   1.000  H
  C203     1.0000 0.92653  0.75251  0.14848  Biso   1.000  C
  H295     1.0000 0.00962  0.76730  0.06959  Biso   1.000  H
  C204     1.0000 0.56140  0.04223  0.13280  Biso   1.000  C
  H296     1.0000 0.66830  0.02907  0.12937  Biso   1.000  H
  C205     1.0000 0.57683  0.90239  0.08077  Biso   1.000  C
  O14      1.0000 0.76121  0.10834  0.24272  Biso   1.000  O
  C206     1.0000 0.81201  0.23203  0.45498  Biso   1.000  C
  C207     1.0000 0.85203  0.11801  0.40198  Biso   1.000  C
  C208     1.0000 0.85502  0.12798  0.38698  Biso   1.000  C
  C209     1.0000 0.80104  0.23100  0.44300  Biso   1.000  C
  H297     1.0000 0.30821  0.70479  0.19001  Biso   1.000  H
  H298     1.0000 0.27901  0.68971  0.26702  Biso   1.000  H
  C210     1.0000 0.26906  0.57203  0.16503  Biso   1.000  C
  H299     1.0000 0.27242  0.64938  0.26120  Biso   1.000  H
  H300     1.0000 0.33344  0.63822  0.31813  Biso   1.000  H
  C211     1.0000 0.28901  0.53399  0.20199  Biso   1.000  C
  C212     1.0000 0.11182  0.20524  0.25401  Biso   1.000  C
  H301     1.0000 0.22913  0.22020  0.27940  Biso   1.000  H
  H302     1.0000 0.22353  0.22152  0.24660  Biso   1.000  H
  C213     1.0000 0.10400  0.19620  0.21403  Biso   1.000  C
  C214     1.0000 0.01849  0.06049  0.15402  Biso   1.000  C
  H303     1.0000 0.06455  0.96258  0.11688  Biso   1.000  H
  H304     1.0000 0.06075  0.95627  0.11819  Biso   1.000  H
  C215     1.0000 0.01240  0.04700  0.14198  Biso   1.000  C
  C216     1.0000 0.31401  0.17971  0.13822  Biso   1.000  C
  C217     1.0000 0.47420  0.12329  0.11580  Biso   1.000  C
  C218     1.0000 0.47955  0.99812  0.10331  Biso   1.000  C
  H305     1.0000 0.35433  0.88092  0.96577  Biso   1.000  H
  C219     1.0000 0.23309  0.84807  0.96903  Biso   1.000  C
  H306     1.0000 0.32743  0.86088  0.04022  Biso   1.000  H
  H307     1.0000 0.91973  0.72943  0.18881  Biso   1.000  H
  H308     1.0000 0.93935  0.82051  0.17929  Biso   1.000  H
  C220     1.0000 0.85254  0.70122  0.08522  Biso   1.000  C
  C221     1.0000 0.59558  0.12819  0.15162  Biso   1.000  C
  H309     1.0000 0.52606  0.86840  0.09669  Biso   1.000  H
  H310     1.0000 0.55684  0.89222  0.02510  Biso   1.000  H
  C222     1.0000 0.63544  0.86521  0.07513  Biso   1.000  C
  C223     1.0000 0.78202  0.19770  0.26479  Biso   1.000  C
  H311     1.0000 0.76811  0.25523  0.45908  Biso   1.000  H
  C224     1.0000 0.88302  0.28971  0.50398  Biso   1.000  C
  C225     1.0000 0.87403  0.29304  0.49000  Biso   1.000  C
  C226     1.0000 0.92323  0.17175  0.44893  Biso   1.000  C
  H312     1.0000 0.83899  0.05139  0.36530  Biso   1.000  H
  H313     1.0000 0.84749  0.06381  0.34659  Biso   1.000  H
  C227     1.0000 0.92800  0.19002  0.43398  Biso   1.000  C
  H314     1.0000 0.75140  0.24692  0.44591  Biso   1.000  H
  H315     1.0000 0.29820  0.55207  0.11871  Biso   1.000  H
  H316     1.0000 0.26570  0.53708  0.19520  Biso   1.000  H
  C228     1.0000 0.18703  0.56301  0.13799  Biso   1.000  C
  H317     1.0000 0.30783  0.56819  0.11483  Biso   1.000  H
  H318     1.0000 0.21011  0.53848  0.12812  Biso   1.000  H
  H319     1.0000 0.24054  0.49528  0.21722  Biso   1.000  H
  H320     1.0000 0.33551  0.51310  0.19902  Biso   1.000  H
  C229     1.0000 0.26101  0.52401  0.12601  Biso   1.000  C
  Si17     1.0000 0.13575  0.31891  0.31060  Biso   1.000  Si
  C230     1.0000 0.04401  0.14799  0.20998  Biso   1.000  C
  Si18     1.0000 0.12721  0.31630  0.25122  Biso   1.000  Si
  C231     1.0000 0.02803  0.13300  0.17701  Biso   1.000  C
  Si19     1.0000 0.91823  0.98660  0.10022  Biso   1.000  Si
  Si20     1.0000 0.90804  0.96193  0.08482  Biso   1.000  Si
  C232     1.0000 0.39689  0.20199  0.16719  Biso   1.000  C
  H321     1.0000 0.29163  0.21398  0.18607  Biso   1.000  H
  H322     1.0000 0.31310  0.20282  0.09863  Biso   1.000  H
  O15      1.0000 0.42860  0.16044  0.10211  Biso   1.000  O
  C233     1.0000 0.55241  0.16939  0.14381  Biso   1.000  C
  H323     1.0000 0.45103  0.93109  0.08722  Biso   1.000  H
  H324     1.0000 0.22625  0.86954  0.92938  Biso   1.000  H
  C234     1.0000 0.20187  0.75063  0.92579  Biso   1.000  C
  H325     1.0000 0.19895  0.86713  0.01141  Biso   1.000  H
  H326     1.0000 0.85815  0.72957  0.04900  Biso   1.000  H
  H327     1.0000 0.80196  0.70253  0.11032  Biso   1.000  H
  H328     1.0000 0.84452  0.63489  0.05111  Biso   1.000  H
  O16      1.0000 0.67892  0.17239  0.17461  Biso   1.000  O
  H329     1.0000 0.68146  0.89159  0.05020  Biso   1.000  H
  H330     1.0000 0.66252  0.88451  0.13223  Biso   1.000  H
  C235     1.0000 0.59902  0.77019  0.02812  Biso   1.000  C
  C236     1.0000 0.71611  0.21713  0.25550  Biso   1.000  C
  H331     1.0000 0.82220  0.21471  0.23108  Biso   1.000  H
  H332     1.0000 0.81334  0.23843  0.32452  Biso   1.000  H
  Si21     1.0000 0.88664  0.39670  0.57608  Biso   1.000  Si
  C237     1.0000 0.93782  0.25794  0.50181  Biso   1.000  C
  Si22     1.0000 0.90565  0.40902  0.55828  Biso   1.000  Si
  C238     1.0000 0.93700  0.27301  0.48601  Biso   1.000  C
  Si23     1.0000 0.99681  0.12923  0.45041  Biso   1.000  Si
  Si24     1.0000 0.01440  0.15818  0.42229  Biso   1.000  Si
  H333     1.0000 0.17002  0.52361  0.07581  Biso   1.000  H
  H334     1.0000 0.18994  0.62592  0.15590  Biso   1.000  H
  H335     1.0000 0.14464  0.53152  0.16252  Biso   1.000  H
  H336     1.0000 0.24443  0.45821  0.08020  Biso   1.000  H
  C239     1.0000 0.18701  0.37702  0.26000  Biso   1.000  C
  C240     1.0000 0.21611  0.36931  0.39520  Biso   1.000  C
  C241     1.0000 0.04262  0.32404  0.33901  Biso   1.000  C
  H337     1.0000 0.19355  0.41302  0.38652  Biso   1.000  H
  C242     1.0000 0.04000  0.33199  0.28698  Biso   1.000  C
  H338     1.0000 0.99909  0.17138  0.21608  Biso   1.000  H
  H339     1.0000 0.14701  0.35321  0.20758  Biso   1.000  H
  C243     1.0000 0.11101  0.31699  0.16001  Biso   1.000  C
  C244     1.0000 0.21402  0.38903  0.33399  Biso   1.000  C
  H340     1.0000 0.98100  0.15172  0.17450  Biso   1.000  H
  C245     1.0000 0.91205  0.86906  0.99897  Biso   1.000  C
  C246     1.0000 0.91204  0.89290  0.00742  Biso   1.000  C
  C247     1.0000 0.86055  0.95897  0.16628  Biso   1.000  C
  C248     1.0000 0.85802  0.91500  0.14398  Biso   1.000  C
  C249     1.0000 0.87198  0.04299  0.07399  Biso   1.000  C
  C250     1.0000 0.84899  0.00301  0.05402  Biso   1.000  C
  H341     1.0000 0.43144  0.27143  0.19691  Biso   1.000  H
  H342     1.0000 0.39961  0.17971  0.20718  Biso   1.000  H
  C251     1.0000 0.59295  0.26081  0.16383  Biso   1.000  C
  H343     1.0000 0.20996  0.72926  0.96520  Biso   1.000  H
  H344     1.0000 0.23516  0.73145  0.88249  Biso   1.000  H
  C252     1.0000 0.11465  0.70714  0.88740  Biso   1.000  C
  H345     1.0000 0.57005  0.75064  0.97148  Biso   1.000  H
  H346     1.0000 0.55453  0.74350  0.05408  Biso   1.000  H
  C253     1.0000 0.66196  0.73222  0.02002  Biso   1.000  C
  H347     1.0000 0.67333  0.19692  0.28601  Biso   1.000  H
  H348     1.0000 0.73695  0.28623  0.27963  Biso   1.000  H
  C254     1.0000 0.99136  0.46603  0.62713  Biso   1.000  C
  C255     1.0000 0.82302  0.38202  0.64442  Biso   1.000  C
  C256     1.0000 0.83345  0.43423  0.53022  Biso   1.000  C
  C257     1.0000 0.88305  0.45501  0.50198  Biso   1.000  C
  H349     1.0000 0.99401  0.30030  0.54163  Biso   1.000  H
  H350     1.0000 0.99423  0.32132  0.52240  Biso   1.000  H
  C258     1.0000 0.86905  0.43804  0.65001  Biso   1.000  C
  C259     1.0000 0.00736  0.48303  0.56798  Biso   1.000  C
  C260     1.0000 0.97500  0.07701  0.51099  Biso   1.000  C
  C261     1.0000 0.97942  0.03070  0.36171  Biso   1.000  C
  C262     1.0000 0.99303  0.05499  0.33302  Biso   1.000  C
  C263     1.0000 0.09522  0.21980  0.48812  Biso   1.000  C
  H351     1.0000 0.02114  0.15043  0.53980  Biso   1.000  H
  H352     1.0000 0.11403  0.23323  0.44311  Biso   1.000  H
  C264     1.0000 0.06502  0.17399  0.51099  Biso   1.000  C
  C265     1.0000 0.09403  0.24398  0.41100  Biso   1.000  C
  H353     1.0000 0.23864  0.36611  0.24762  Biso   1.000  H
  H354     1.0000 0.20392  0.44570  0.29708  Biso   1.000  H
  H355     1.0000 0.20134  0.33120  0.42332  Biso   1.000  H
  H356     1.0000 0.22333  0.43421  0.43501  Biso   1.000  H
  H357     1.0000 0.27062  0.37193  0.37683  Biso   1.000  H
  H358     1.0000 0.24651  0.35452  0.33519  Biso   1.000  H
  H359     1.0000 0.03533  0.37478  0.33559  Biso   1.000  H
  H360     1.0000 0.04555  0.33644  0.39782  Biso   1.000  H
  H361     1.0000 0.99283  0.26240  0.30142  Biso   1.000  H
  H362     1.0000 0.05204  0.36101  0.34859  Biso   1.000  H
  H363     1.0000 0.98903  0.27023  0.26103  Biso   1.000  H
  H364     1.0000 0.02863  0.37445  0.27141  Biso   1.000  H
  H365     1.0000 0.16571  0.35969  0.15601  Biso   1.000  H
  H366     1.0000 0.06593  0.33852  0.15949  Biso   1.000  H
  H367     1.0000 0.09263  0.25184  0.11192  Biso   1.000  H
  H368     1.0000 0.25104  0.44365  0.32760  Biso   1.000  H
  H369     1.0000 0.95985  0.91445  0.98220  Biso   1.000  H
  H370     1.0000 0.85606  0.86626  0.96851  Biso   1.000  H
  H371     1.0000 0.85375  0.81717  0.97142  Biso   1.000  H
  H372     1.0000 0.93604  0.88974  0.95881  Biso   1.000  H
  H373     1.0000 0.91516  0.84379  0.01763  Biso   1.000  H
  H374     1.0000 0.95042  0.84697  0.01609  Biso   1.000  H
  H375     1.0000 0.88383  0.92479  0.18431  Biso   1.000  H
  H376     1.0000 0.79914  0.91718  0.13668  Biso   1.000  H
  H377     1.0000 0.80582  0.92629  0.15379  Biso   1.000  H
  H378     1.0000 0.89807  0.94449  0.19800  Biso   1.000  H
  H379     1.0000 0.86511  0.01723  0.21631  Biso   1.000  H
  H380     1.0000 0.84086  0.84562  0.11300  Biso   1.000  H
  H381     1.0000 0.81215  0.99868  0.04101  Biso   1.000  H
  H382     1.0000 0.87129  0.09710  0.12550  Biso   1.000  H
  H383     1.0000 0.90580  0.06728  0.03970  Biso   1.000  H
  H384     1.0000 0.88697  0.06638  0.06258  Biso   1.000  H
  H385     1.0000 0.80480  0.00910  0.08802  Biso   1.000  H
  H386     1.0000 0.82029  0.95947  0.99412  Biso   1.000  H
  C266     1.0000 0.60392  0.27901  0.10228  Biso   1.000  C
  C267     1.0000 0.62255  0.32771  0.24032  Biso   1.000  C
  H387     1.0000 0.08356  0.73465  0.92961  Biso   1.000  H
  H388     1.0000 0.10843  0.72252  0.84290  Biso   1.000  H
  C268     1.0000 0.07535  0.60992  0.85197  Biso   1.000  C
  C269     1.0000 0.06008  0.70607  0.93999  Biso   1.000  C
  H389     1.0000 0.10536  0.74014  0.85927  Biso   1.000  H
  H390     1.0000 0.09971  0.64103  0.84330  Biso   1.000  H
  H391     1.0000 0.70487  0.75723  0.99179  Biso   1.000  H
  C270     1.0000 0.62836  0.63753  0.97673  Biso   1.000  C
  H392     1.0000 0.69295  0.75507  0.07689  Biso   1.000  H
  H393     1.0000 0.00533  0.44995  0.66883  Biso   1.000  H
  H394     1.0000 0.00144  0.53332  0.65628  Biso   1.000  H
  H395     1.0000 0.02855  0.45564  0.58623  Biso   1.000  H
  H396     1.0000 0.76187  0.35086  0.61612  Biso   1.000  H
  H397     1.0000 0.83672  0.44394  0.69433  Biso   1.000  H
  H398     1.0000 0.83542  0.34120  0.66210  Biso   1.000  H
  H399     1.0000 0.80554  0.41322  0.63620  Biso   1.000  H
  H400     1.0000 0.88616  0.41016  0.67933  Biso   1.000  H
  H401     1.0000 0.84604  0.41943  0.47420  Biso   1.000  H
  H402     1.0000 0.85305  0.50335  0.56593  Biso   1.000  H
  H403     1.0000 0.77042  0.40151  0.52411  Biso   1.000  H
  H404     1.0000 0.82012  0.42843  0.48321  Biso   1.000  H
  H405     1.0000 0.90961  0.43780  0.45258  Biso   1.000  H
  H406     1.0000 0.90775  0.52430  0.53769  Biso   1.000  H
  H407     1.0000 0.89506  0.50784  0.68612  Biso   1.000  H
  H408     1.0000 0.04888  0.46627  0.58783  Biso   1.000  H
  H409     1.0000 0.01813  0.54901  0.60939  Biso   1.000  H
  H410     1.0000 0.01481  0.47781  0.51299  Biso   1.000  H
  H411     1.0000 0.94460  0.10629  0.55320  Biso   1.000  H
  H412     1.0000 0.93771  0.00874  0.47483  Biso   1.000  H
  H413     1.0000 0.02964  0.08663  0.53969  Biso   1.000  H
  H414     1.0000 0.98770  0.04448  0.31528  Biso   1.000  H
  H415     1.0000 0.91954  0.98291  0.34882  Biso   1.000  H
  H416     1.0000 0.92950  0.01661  0.31351  Biso   1.000  H
  H417     1.0000 0.02050  0.00578  0.36799  Biso   1.000  H
  H418     1.0000 0.02042  0.02043  0.34391  Biso   1.000  H
  H419     1.0000 0.01571  0.06910  0.28921  Biso   1.000  H
  H420     1.0000 0.13662  0.20311  0.50820  Biso   1.000  H
  H421     1.0000 0.09332  0.27650  0.53529  Biso   1.000  H
  H422     1.0000 0.10223  0.24183  0.54961  Biso   1.000  H
  H423     1.0000 0.10053  0.13802  0.49690  Biso   1.000  H
  H424     1.0000 0.07510  0.23989  0.35800  Biso   1.000  H
  H425     1.0000 0.14733  0.23432  0.40991  Biso   1.000  H
  H426     1.0000 0.10546  0.30705  0.45903  Biso   1.000  H
  H427     1.0000 0.58061  0.22771  0.04358  Biso   1.000  H
  C271     1.0000 0.64441  0.36228  0.11968  Biso   1.000  C
  C272     1.0000 0.66040  0.41359  0.25470  Biso   1.000  C
  H428     1.0000 0.61665  0.31435  0.28653  Biso   1.000  H
  C273     1.0000 0.98602  0.57304  0.83697  Biso   1.000  C
  H429     1.0000 0.09602  0.59293  0.89002  Biso   1.000  H
  H430     1.0000 0.09263  0.58073  0.79830  Biso   1.000  H
  C274     1.0000 0.11804  0.57504  0.77702  Biso   1.000  C
  C275     1.0000 0.97604  0.65203  0.88802  Biso   1.000  C
  H431     1.0000 0.06774  0.77113  0.98038  Biso   1.000  H
  H432     1.0000 0.07015  0.67715  0.97199  Biso   1.000  H
  H433     1.0000 0.67403  0.61742  0.98129  Biso   1.000  H
  C276     1.0000 0.59752  0.60304  0.90137  Biso   1.000  C
  C277     1.0000 0.68304  0.60102  0.93001  Biso   1.000  C
  H434     1.0000 0.57337  0.61305  0.93799  Biso   1.000  H
  H435     1.0000 0.58253  0.61207  0.00228  Biso   1.000  H
  H436     1.0000 0.61501  0.61386  0.01660  Biso   1.000  H
  Si25     1.0000 0.66645  0.39283  0.04341  Biso   1.000  Si
  C278     1.0000 0.67243  0.42734  0.19412  Biso   1.000  C
  Si26     1.0000 0.70552  0.50021  0.35869  Biso   1.000  Si
  H437     1.0000 0.96926  0.59244  0.89150  Biso   1.000  H
  H438     1.0000 0.96184  0.50325  0.80332  Biso   1.000  H
  H439     1.0000 0.96363  0.59676  0.80600  Biso   1.000  H
  H440     1.0000 0.95606  0.58523  0.87479  Biso   1.000  H
  H441     1.0000 0.09700  0.58631  0.73418  Biso   1.000  H
  H442     1.0000 0.10155  0.50706  0.75300  Biso   1.000  H
  H443     1.0000 0.18162  0.61073  0.79550  Biso   1.000  H
  H444     1.0000 0.97711  0.65391  0.83549  Biso   1.000  H
  H445     1.0000 0.93633  0.67735  0.91757  Biso   1.000  H
  H446     1.0000 0.57006  0.64072  0.89538  Biso   1.000  H
  H447     1.0000 0.55385  0.53692  0.87838  Biso   1.000  H
  H448     1.0000 0.64414  0.60373  0.87011  Biso   1.000  H
  H449     1.0000 0.72347  0.64806  0.91712  Biso   1.000  H
  H450     1.0000 0.64724  0.54207  0.87662  Biso   1.000  H
  H451     1.0000 0.71552  0.58692  0.96258  Biso   1.000  H
  C279     1.0000 0.60627  0.44873  0.03383  Biso   1.000  C
  C280     1.0000 0.77234  0.46391  0.06908  Biso   1.000  C
  C281     1.0000 0.64043  0.29192  0.94798  Biso   1.000  C
  H452     1.0000 0.70536  0.49234  0.20593  Biso   1.000  H
  C282     1.0000 0.71267  0.60562  0.37158  Biso   1.000  C
  C283     1.0000 0.80502  0.51012  0.38270  Biso   1.000  C
  C284     1.0000 0.64172  0.46910  0.42018  Biso   1.000  C
  H453     1.0000 0.54416  0.40851  0.02390  Biso   1.000  H
  H454     1.0000 0.62337  0.51034  0.08602  Biso   1.000  H
  H455     1.0000 0.61682  0.45939  0.98580  Biso   1.000  H
  H456     1.0000 0.78443  0.52649  0.11819  Biso   1.000  H
  H457     1.0000 0.78953  0.47159  0.02099  Biso   1.000  H
  H458     1.0000 0.80555  0.43552  0.08351  Biso   1.000  H
  H459     1.0000 0.67492  0.25882  0.95060  Biso   1.000  H
  H460     1.0000 0.65329  0.30897  0.90388  Biso   1.000  H
  H461     1.0000 0.57822  0.24990  0.93440  Biso   1.000  H
  H462     1.0000 0.74984  0.62312  0.33598  Biso   1.000  H
  H463     1.0000 0.73797  0.65561  0.43119  Biso   1.000  H
  H464     1.0000 0.65423  0.59882  0.35481  Biso   1.000  H
  H465     1.0000 0.80053  0.45545  0.38801  Biso   1.000  H
  H466     1.0000 0.83772  0.56941  0.43649  Biso   1.000  H
  H467     1.0000 0.83552  0.51132  0.33758  Biso   1.000  H
  H468     1.0000 0.58023  0.44181  0.39303  Biso   1.000  H
  H469     1.0000 0.65513  0.52582  0.47591  Biso   1.000  H
  H470     1.0000 0.65312  0.42163  0.42731  Biso   1.000  H
  C285     1.0000 0.51995  0.60250  0.49108  Biso   1.000  C
  Si27     1.0000 0.47156  0.59804  0.40449  Biso   1.000  Si
  H471     1.0000 0.51854  0.65512  0.54339  Biso   1.000  H
  H472     1.0000 0.48804  0.54204  0.49000  Biso   1.000  H
  H473     1.0000 0.58056  0.61303  0.48909  Biso   1.000  H
  C286     1.0000 0.46285  0.50250  0.31128  Biso   1.000  C
  C287     1.0000 0.53487  0.70206  0.41043  Biso   1.000  C
  C288     1.0000 0.37145  0.59011  0.41311  Biso   1.000  C
  H474     1.0000 0.52081  0.50450  0.30569  Biso   1.000  H
  H475     1.0000 0.42534  0.44344  0.31031  Biso   1.000  H
  H476     1.0000 0.43725  0.50443  0.26411  Biso   1.000  H
  C289     1.0000 0.57634  0.70433  0.35310  Biso   1.000  C
  C290     1.0000 0.54118  0.77802  0.47021  Biso   1.000  C
  H477     1.0000 0.34542  0.59281  0.36662  Biso   1.000  H
  H478     1.0000 0.33534  0.52950  0.41020  Biso   1.000  H
  H479     1.0000 0.37463  0.64342  0.46753  Biso   1.000  H
  C291     1.0000 0.62806  0.78122  0.36023  Biso   1.000  C
  H480     1.0000 0.56733  0.64470  0.30290  Biso   1.000  H
  C292     1.0000 0.59176  0.85583  0.48013  Biso   1.000  C
  H481     1.0000 0.50497  0.77642  0.51082  Biso   1.000  H
  Si28     1.0000 0.70155  0.79154  0.29742  Biso   1.000  Si
  C293     1.0000 0.63478  0.85903  0.42503  Biso   1.000  C
  Si29     1.0000 0.66958  0.76982  0.27432  Biso   1.000  Si
  C294     1.0000 0.60295  0.93523  0.55303  Biso   1.000  C
  C295     1.0000 0.66586  0.68022  0.21289  Biso   1.000  C
  C296     1.0000 0.70205  0.86504  0.26200  Biso   1.000  C
  C297     1.0000 0.80030  0.82737  0.35213  Biso   1.000  C
  C298     1.0000 0.72506  0.88102  0.28801  Biso   1.000  C
  C299     1.0000 0.74407  0.72802  0.27597  Biso   1.000  C
  H482     1.0000 0.67306  0.92033  0.43142  Biso   1.000  H
  C300     1.0000 0.59904  0.69102  0.17900  Biso   1.000  C
  C301     1.0000 0.67209  0.98091  0.60808  Biso   1.000  C
  C302     1.0000 0.54276  0.96424  0.56638  Biso   1.000  C
  H483     1.0000 0.60208  0.65094  0.19651  Biso   1.000  H
  H484     1.0000 0.69016  0.68354  0.16543  Biso   1.000  H
  H485     1.0000 0.68475  0.64161  0.22772  Biso   1.000  H
  H486     1.0000 0.71369  0.92795  0.31083  Biso   1.000  H
  H487     1.0000 0.74667  0.87142  0.22971  Biso   1.000  H
  H488     1.0000 0.64447  0.83856  0.22601  Biso   1.000  H
  H489     1.0000 0.75146  0.87625  0.23970  Biso   1.000  H
  H490     1.0000 0.68447  0.90992  0.29218  Biso   1.000  H
  H491     1.0000 0.79576  0.78971  0.37968  Biso   1.000  H
  H492     1.0000 0.83978  0.81816  0.31351  Biso   1.000  H
  H493     1.0000 0.82307  0.89513  0.39542  Biso   1.000  H
  H494     1.0000 0.77070  0.92054  0.34032  Biso   1.000  H
  H495     1.0000 0.71824  0.65892  0.23719  Biso   1.000  H
  H496     1.0000 0.79494  0.75941  0.25920  Biso   1.000  H
  H497     1.0000 0.76145  0.74162  0.33399  Biso   1.000  H
  H498     1.0000 0.57678  0.72472  0.16012  Biso   1.000  H
  H499     1.0000 0.63007  0.66113  0.13730  Biso   1.000  H
  H500     1.0000 0.55105  0.64183  0.18311  Biso   1.000  H
  O17      1.0000 0.73327  0.95603  0.59262  Biso   1.000  O
  C303     1.0000 0.68335  0.05152  0.68281  Biso   1.000  C
  O18      1.0000 0.47885  0.92540  0.51048  Biso   1.000  O
  C304     1.0000 0.54994  0.03173  0.63540  Biso   1.000  C
  C305     1.0000 0.73068  0.88925  0.60768  Biso   1.000  C
  C306     1.0000 0.61856  0.07258  0.69222  Biso   1.000  C
  C307     1.0000 0.75514  0.09015  0.74019  Biso   1.000  C
  C308     1.0000 0.40768  0.85775  0.50563  Biso   1.000  C
  C309     1.0000 0.48701  0.06503  0.65349  Biso   1.000  C
  C310     1.0000 0.81149  0.91387  0.64402  Biso   1.000  C
  H501     1.0000 0.69126  0.88313  0.64561  Biso   1.000  H
  H502     1.0000 0.70917  0.82777  0.55463  Biso   1.000  H
  H503     1.0000 0.62195  0.12384  0.74732  Biso   1.000  H
  C311     1.0000 0.74614  0.03774  0.77892  Biso   1.000  C
  H504     1.0000 0.80246  0.08684  0.71030  Biso   1.000  H
  C312     1.0000 0.77905  0.18493  0.79900  Biso   1.000  C
  H505     1.0000 0.41257  0.85364  0.55708  Biso   1.000  H
  H506     1.0000 0.39949  0.79636  0.45703  Biso   1.000  H
  C313     1.0000 0.34186  0.87395  0.49690  Biso   1.000  C
  C314     1.0000 0.42286  0.01164  0.67739  Biso   1.000  C
  H507     1.0000 0.45971  0.05532  0.60038  Biso   1.000  H
  C315     1.0000 0.51526  0.15886  0.71150  Biso   1.000  C
  O19      1.0000 0.84039  0.98906  0.71732  Biso   1.000  O
  H508     1.0000 0.85048  0.92433  0.60700  Biso   1.000  H
  H509     1.0000 0.81225  0.86073  0.64909  Biso   1.000  H
  C316     1.0000 0.79011  0.98894  0.77003  Biso   1.000  C
  C317     1.0000 0.70026  0.04005  0.83289  Biso   1.000  C
  H510     1.0000 0.73194  0.18984  0.82889  Biso   1.000  H
  H511     1.0000 0.78535  0.22035  0.76889  Biso   1.000  H
  C318     1.0000 0.85366  0.22673  0.85662  Biso   1.000  C
  O20      1.0000 0.33457  0.94683  0.55948  Biso   1.000  O
  H512     1.0000 0.34118  0.88206  0.44722  Biso   1.000  H
  H513     1.0000 0.28934  0.81631  0.48338  Biso   1.000  H
  C319     1.0000 0.34638  0.95404  0.62930  Biso   1.000  C
  C320     1.0000 0.43375  0.02326  0.74960  Biso   1.000  C
  H514     1.0000 0.46465  0.17342  0.72171  Biso   1.000  H
  H515     1.0000 0.54464  0.17147  0.76512  Biso   1.000  H
  C321     1.0000 0.57214  0.21907  0.68691  Biso   1.000  C
  C322     1.0000 0.78969  0.94864  0.80682  Biso   1.000  C
  C323     1.0000 0.69540  0.99803  0.87310  Biso   1.000  C
  H516     1.0000 0.66665  0.07693  0.84378  Biso   1.000  H
  H517     1.0000 0.86895  0.29528  0.89073  Biso   1.000  H
  H518     1.0000 0.84286  0.20079  0.89484  Biso   1.000  H
  C324     1.0000 0.92363  0.21644  0.82519  Biso   1.000  C
  C325     1.0000 0.28777  0.91245  0.65600  Biso   1.000  C
  C326     1.0000 0.37520  0.98374  0.77710  Biso   1.000  C
  H519     1.0000 0.49144  0.06562  0.78668  Biso   1.000  H
  H520     1.0000 0.54044  0.21375  0.63831  Biso   1.000  H
  H521     1.0000 0.61857  0.19887  0.66883  Biso   1.000  H
  C327     1.0000 0.60862  0.31264  0.75160  Biso   1.000  C
  C328     1.0000 0.73968  0.95215  0.85810  Biso   1.000  C
  C329     1.0000 0.84875  0.91482  0.79741  Biso   1.000  C
  C330     1.0000 0.85108  0.91408  0.81703  Biso   1.000  C
  C331     1.0000 0.65175  0.01216  0.93614  Biso   1.000  C
  H522     1.0000 0.90905  0.14825  0.78993  Biso   1.000  H
  H523     1.0000 0.93747  0.24538  0.78931  Biso   1.000  H
  C332     1.0000 0.00205  0.26308  0.89512  Biso   1.000  C
  C333     1.0000 0.30171  0.92907  0.72861  Biso   1.000  C
  C334     1.0000 0.21007  0.85301  0.59998  Biso   1.000  C
  C335     1.0000 0.20905  0.85202  0.60899  Biso   1.000  C
  C336     1.0000 0.38863  0.00131  0.86050  Biso   1.000  C
  H524     1.0000 0.57646  0.32166  0.79684  Biso   1.000  H
  H525     1.0000 0.60947  0.35547  0.73072  Biso   1.000  H
  C337     1.0000 0.69183  0.32904  0.78001  Biso   1.000  C
  H526     1.0000 0.56475  0.33788  0.75862  Biso   1.000  H
  H527     1.0000 0.62516  0.31506  0.80448  Biso   1.000  H
  C338     1.0000 0.68104  0.37105  0.73802  Biso   1.000  C
  O21      1.0000 0.73906  0.91131  0.90008  Biso   1.000  O
  C339     1.0000 0.92207  0.97055  0.84601  Biso   1.000  C
  C340     1.0000 0.83058  0.82515  0.75200  Biso   1.000  C
  C341     1.0000 0.83559  0.82705  0.78303  Biso   1.000  C
  C342     1.0000 0.92708  0.97667  0.85502  Biso   1.000  C
  C343     1.0000 0.56658  0.96412  0.90619  Biso   1.000  C
  H528     1.0000 0.66800  0.98607  0.96814  Biso   1.000  H
  C344     1.0000 0.68083  0.10903  0.99130  Biso   1.000  C
  H529     1.0000 0.99043  0.23276  0.93043  Biso   1.000  H
  H530     1.0000 0.01785  0.33109  0.93123  Biso   1.000  H
  C345     1.0000 0.07355  0.24752  0.85148  Biso   1.000  C
  O22      1.0000 0.23889  0.89173  0.75731  Biso   1.000  O
  C346     1.0000 0.18808  0.76800  0.54499  Biso   1.000  C
  C347     1.0000 0.14806  0.88202  0.59798  Biso   1.000  C
  C348     1.0000 0.14507  0.87205  0.61299  Biso   1.000  C
  C349     1.0000 0.19906  0.76906  0.55703  Biso   1.000  C
  C350     1.0000 0.43870  0.95783  0.86723  Biso   1.000  C
  H531     1.0000 0.33179  0.97096  0.87059  Biso   1.000  H
  C351     1.0000 0.42326  0.09764  0.91919  Biso   1.000  C
  H532     1.0000 0.69184  0.29527  0.81001  Biso   1.000  H
  H533     1.0000 0.72103  0.31035  0.73301  Biso   1.000  H
  C352     1.0000 0.73104  0.42803  0.83500  Biso   1.000  C
  H534     1.0000 0.72768  0.35069  0.73882  Biso   1.000  H
  H535     1.0000 0.66666  0.36184  0.68189  Biso   1.000  H
  C353     1.0000 0.71109  0.46607  0.79803  Biso   1.000  C
  C354     1.0000 0.68609  0.82035  0.86181  Biso   1.000  C
  C355     1.0000 0.98161  0.93957  0.84601  Biso   1.000  C
  C356     1.0000 0.98769  0.95303  0.85799  Biso   1.000  C
  H536     1.0000 0.93554  0.03745  0.88309  Biso   1.000  H
  H537     1.0000 0.93933  0.04373  0.88183  Biso   1.000  H
  C357     1.0000 0.88828  0.79482  0.74601  Biso   1.000  C
  H538     1.0000 0.77097  0.77986  0.72063  Biso   1.000  H
  H539     1.0000 0.77657  0.77855  0.75343  Biso   1.000  H
  C358     1.0000 0.89605  0.80386  0.78600  Biso   1.000  C
  C359     1.0000 0.52590  0.87677  0.88423  Biso   1.000  C
  C360     1.0000 0.52055  0.00194  0.89672  Biso   1.000  C
  H540     1.0000 0.67267  0.13918  0.95981  Biso   1.000  H
  H541     1.0000 0.64571  0.11911  0.03419  Biso   1.000  H
  C361     1.0000 0.76701  0.15199  0.03100  Biso   1.000  C
  H542     1.0000 0.08032  0.27063  0.81121  Biso   1.000  H
  H543     1.0000 0.06074  0.17952  0.82068  Biso   1.000  H
  C362     1.0000 0.14756  0.29884  0.91480  Biso   1.000  C
  C363     1.0000 0.21808  0.80236  0.73523  Biso   1.000  C
  H544     1.0000 0.23192  0.74480  0.54088  Biso   1.000  H
  C364     1.0000 0.11707  0.71032  0.49599  Biso   1.000  C
  C365     1.0000 0.12607  0.70702  0.51002  Biso   1.000  C
  C366     1.0000 0.07687  0.82832  0.55109  Biso   1.000  C
  H545     1.0000 0.16111  0.94867  0.63472  Biso   1.000  H
  H546     1.0000 0.15261  0.93625  0.65343  Biso   1.000  H
  C367     1.0000 0.07203  0.81001  0.56598  Biso   1.000  C
  H547     1.0000 0.24865  0.75314  0.55412  Biso   1.000  H
  C368     1.0000 0.40447  0.87187  0.84840  Biso   1.000  C
  H548     1.0000 0.47404  0.13167  0.90334  Biso   1.000  H
  H549     1.0000 0.44326  0.10784  0.97493  Biso   1.000  H
  C369     1.0000 0.36466  0.13485  0.92490  Biso   1.000  C
  H550     1.0000 0.70188  0.44794  0.88132  Biso   1.000  H
  H551     1.0000 0.73440  0.46298  0.80482  Biso   1.000  H
  C370     1.0000 0.81307  0.43705  0.86204  Biso   1.000  C
  H552     1.0000 0.69227  0.43188  0.88520  Biso   1.000  H
  H553     1.0000 0.78999  0.46158  0.87191  Biso   1.000  H
  H554     1.0000 0.75956  0.50478  0.78280  Biso   1.000  H
  H555     1.0000 0.66459  0.48696  0.80100  Biso   1.000  H
  C371     1.0000 0.73909  0.47605  0.87402  Biso   1.000  C
  C372     1.0000 0.60321  0.79808  0.83283  Biso   1.000  C
  H556     1.0000 0.70845  0.78605  0.81389  Biso   1.000  H
  H557     1.0000 0.68694  0.79724  0.90140  Biso   1.000  H
  C373     1.0000 0.95608  0.85204  0.78999  Biso   1.000  C
  C374     1.0000 0.97207  0.86707  0.82302  Biso   1.000  C
  Si30     1.0000 0.08181  0.01346  0.89980  Biso   1.000  Si
  Si31     1.0000 0.09200  0.03814  0.91520  Biso   1.000  Si
  Si32     1.0000 0.86435  0.68115  0.68942  Biso   1.000  Si
  Si33     1.0000 0.87286  0.68371  0.74881  Biso   1.000  Si
  O23      1.0000 0.57145  0.83962  0.89792  Biso   1.000  O
  C375     1.0000 0.44769  0.83067  0.85622  Biso   1.000  C
  H558     1.0000 0.54902  0.06898  0.91281  Biso   1.000  H
  H559     1.0000 0.80115  0.13293  0.98862  Biso   1.000  H
  H560     1.0000 0.77383  0.13049  0.07059  Biso   1.000  H
  C376     1.0000 0.79823  0.24943  0.07424  Biso   1.000  C
  H561     1.0000 0.14195  0.27049  0.95102  Biso   1.000  H
  H562     1.0000 0.19814  0.29753  0.88970  Biso   1.000  H
  H563     1.0000 0.15558  0.36517  0.94891  Biso   1.000  H
  H564     1.0000 0.17788  0.78532  0.76889  Biso   1.000  H
  H565     1.0000 0.18676  0.76163  0.67551  Biso   1.000  H
  C377     1.0000 0.28399  0.78293  0.74453  Biso   1.000  C
  Si34     1.0000 0.11345  0.60333  0.42389  Biso   1.000  Si
  C378     1.0000 0.06228  0.74212  0.49822  Biso   1.000  C
  Si35     1.0000 0.09443  0.59101  0.44169  Biso   1.000  Si
  C379     1.0000 0.06305  0.72705  0.51402  Biso   1.000  C
  Si36     1.0000 0.00329  0.87083  0.54961  Biso   1.000  Si
  Si37     1.0000 0.98568  0.84182  0.57773  Biso   1.000  Si
  O24      1.0000 0.32116  0.82762  0.82542  Biso   1.000  O
  H566     1.0000 0.31864  0.10848  0.94983  Biso   1.000  H
  H567     1.0000 0.33752  0.11555  0.86780  Biso   1.000  H
  C380     1.0000 0.40108  0.22987  0.97190  Biso   1.000  C
  H568     1.0000 0.83008  0.47645  0.92421  Biso   1.000  H
  H569     1.0000 0.81016  0.37414  0.84413  Biso   1.000  H
  H570     1.0000 0.85546  0.46854  0.83751  Biso   1.000  H
  H571     1.0000 0.75567  0.54185  0.91982  Biso   1.000  H
  H572     1.0000 0.56866  0.72863  0.80311  Biso   1.000  H
  H573     1.0000 0.60048  0.82032  0.79279  Biso   1.000  H
  H574     1.0000 0.00100  0.82864  0.78389  Biso   1.000  H
  H575     1.0000 0.01905  0.84834  0.82553  Biso   1.000  H
  C381     1.0000 0.12806  0.95704  0.92598  Biso   1.000  C
  C382     1.0000 0.15106  0.99705  0.94600  Biso   1.000  C
  C383     1.0000 0.08806  0.10716  0.99261  Biso   1.000  C
  C384     1.0000 0.13954  0.04106  0.83369  Biso   1.000  C
  C385     1.0000 0.14201  0.08503  0.85599  Biso   1.000  C
  C386     1.0000 0.08798  0.13097  0.00099  Biso   1.000  C
  C387     1.0000 0.81304  0.62304  0.74002  Biso   1.000  C
  C388     1.0000 0.78399  0.63075  0.60483  Biso   1.000  C
  C389     1.0000 0.95743  0.67602  0.66102  Biso   1.000  C
  H576     1.0000 0.80655  0.58704  0.61350  Biso   1.000  H
  C390     1.0000 0.96004  0.66804  0.71298  Biso   1.000  C
  H577     1.0000 0.85302  0.64682  0.79239  Biso   1.000  H
  C391     1.0000 0.88909  0.68307  0.84002  Biso   1.000  C
  C392     1.0000 0.78602  0.61100  0.66598  Biso   1.000  C
  C393     1.0000 0.40715  0.73925  0.83620  Biso   1.000  C
  H578     1.0000 0.79014  0.27080  0.03482  Biso   1.000  H
  H579     1.0000 0.76494  0.26862  0.11753  Biso   1.000  H
  C394     1.0000 0.88545  0.29292  0.11263  Biso   1.000  C
  H580     1.0000 0.32677  0.80314  0.71401  Biso   1.000  H
  H581     1.0000 0.26315  0.71383  0.72040  Biso   1.000  H
  C395     1.0000 0.00874  0.53403  0.37289  Biso   1.000  C
  C396     1.0000 0.17708  0.61804  0.35561  Biso   1.000  C
  C397     1.0000 0.16665  0.56583  0.46981  Biso   1.000  C
  C398     1.0000 0.11704  0.54502  0.49799  Biso   1.000  C
  H582     1.0000 0.00607  0.69970  0.45840  Biso   1.000  H
  H583     1.0000 0.00587  0.67875  0.47762  Biso   1.000  H
  C399     1.0000 0.13105  0.56202  0.35002  Biso   1.000  C
  C400     1.0000 0.99273  0.51699  0.43199  Biso   1.000  C
  C401     1.0000 0.02510  0.92306  0.48903  Biso   1.000  C
  C402     1.0000 0.02068  0.96937  0.63831  Biso   1.000  C
  C403     1.0000 0.00707  0.94507  0.66701  Biso   1.000  C
  C404     1.0000 0.90488  0.78026  0.51191  Biso   1.000  C
  H584     1.0000 0.97896  0.84963  0.46022  Biso   1.000  H
  H585     1.0000 0.88607  0.76683  0.55691  Biso   1.000  H
  C405     1.0000 0.93508  0.82607  0.48903  Biso   1.000  C
  C406     1.0000 0.90605  0.75602  0.58903  Biso   1.000  C
  H586     1.0000 0.44556  0.25653  0.94589  Biso   1.000  H
  C407     1.0000 0.33814  0.26784  0.98000  Biso   1.000  C
  H587     1.0000 0.43004  0.24939  0.02849  Biso   1.000  H
  H588     1.0000 0.12881  0.90296  0.87453  Biso   1.000  H
  H589     1.0000 0.09430  0.93278  0.96032  Biso   1.000  H
  H590     1.0000 0.11306  0.93365  0.93739  Biso   1.000  H
  H591     1.0000 0.19530  0.99097  0.91201  Biso   1.000  H
  H592     1.0000 0.18795  0.00138  0.95901  Biso   1.000  H
  H593     1.0000 0.17981  0.04059  0.00590  Biso   1.000  H
  H594     1.0000 0.08494  0.15628  0.98240  Biso   1.000  H
  H595     1.0000 0.04020  0.08561  0.01782  Biso   1.000  H
  H596     1.0000 0.14404  0.13380  0.03151  Biso   1.000  H
  H597     1.0000 0.14635  0.18289  0.02860  Biso   1.000  H
  H598     1.0000 0.06406  0.11032  0.04121  Biso   1.000  H
  H599     1.0000 0.13499  0.98283  0.78372  Biso   1.000  H
  H600     1.0000 0.11627  0.07527  0.81572  Biso   1.000  H
  H601     1.0000 0.20094  0.08284  0.86329  Biso   1.000  H
  H602     1.0000 0.19422  0.07377  0.84624  Biso   1.000  H
  H603     1.0000 0.10203  0.05557  0.80203  Biso   1.000  H
  H604     1.0000 0.15924  0.15444  0.88702  Biso   1.000  H
  H605     1.0000 0.04968  0.15310  0.98394  Biso   1.000  H
  H606     1.0000 0.76146  0.63395  0.75240  Biso   1.000  H
  H607     1.0000 0.79617  0.55433  0.70289  Biso   1.000  H
  H608     1.0000 0.79874  0.66881  0.57671  Biso   1.000  H
  H609     1.0000 0.77677  0.56585  0.56501  Biso   1.000  H
  H610     1.0000 0.72943  0.62813  0.62320  Biso   1.000  H
  H611     1.0000 0.75352  0.64551  0.66478  Biso   1.000  H
  H612     1.0000 0.96476  0.62524  0.66438  Biso   1.000  H
  H613     1.0000 0.95455  0.66363  0.60221  Biso   1.000  H
  H614     1.0000 0.94806  0.63905  0.65143  Biso   1.000  H
  H615     1.0000 0.00727  0.73766  0.69861  Biso   1.000  H
  H616     1.0000 0.97147  0.62561  0.72861  Biso   1.000  H
  H617     1.0000 0.01107  0.72983  0.73899  Biso   1.000  H
  H618     1.0000 0.83437  0.64031  0.84401  Biso   1.000  H
  H619     1.0000 0.93417  0.66154  0.84053  Biso   1.000  H
  H620     1.0000 0.90747  0.74823  0.88811  Biso   1.000  H
  H621     1.0000 0.74906  0.55642  0.67243  Biso   1.000  H
  C408     1.0000 0.39616  0.72102  0.89769  Biso   1.000  C
  C409     1.0000 0.37755  0.67235  0.75970  Biso   1.000  C
  H622     1.0000 0.91654  0.26541  0.07042  Biso   1.000  H
  H623     1.0000 0.89162  0.27754  0.15712  Biso   1.000  H
  C410     1.0000 0.92474  0.39011  0.14799  Biso   1.000  C
  C411     1.0000 0.94002  0.29400  0.06003  Biso   1.000  C
  H624     1.0000 0.89473  0.25989  0.14069  Biso   1.000  H
  H625     1.0000 0.90033  0.35903  0.15672  Biso   1.000  H
  H626     1.0000 0.99472  0.55011  0.33119  Biso   1.000  H
  H627     1.0000 0.99865  0.46671  0.34369  Biso   1.000  H
  H628     1.0000 0.97155  0.54442  0.41379  Biso   1.000  H
  H629     1.0000 0.23823  0.64920  0.38390  Biso   1.000  H
  H630     1.0000 0.16332  0.55613  0.30569  Biso   1.000  H
  H631     1.0000 0.16468  0.65886  0.33792  Biso   1.000  H
  H632     1.0000 0.19457  0.58684  0.36382  Biso   1.000  H
  H633     1.0000 0.11394  0.58990  0.32070  Biso   1.000  H
  H634     1.0000 0.15406  0.58064  0.52582  Biso   1.000  H
  H635     1.0000 0.14705  0.49671  0.43410  Biso   1.000  H
  H636     1.0000 0.22968  0.59855  0.47591  Biso   1.000  H
  H637     1.0000 0.17993  0.57163  0.51681  Biso   1.000  H
  H638     1.0000 0.09047  0.56223  0.54739  Biso   1.000  H
  H639     1.0000 0.09234  0.47573  0.46228  Biso   1.000  H
  H640     1.0000 0.10504  0.49222  0.31391  Biso   1.000  H
  H641     1.0000 0.95122  0.53380  0.41219  Biso   1.000  H
  H642     1.0000 0.98197  0.45105  0.39063  Biso   1.000  H
  H643     1.0000 0.98522  0.52222  0.48698  Biso   1.000  H
  H644     1.0000 0.05550  0.89377  0.44682  Biso   1.000  H
  H645     1.0000 0.06239  0.99133  0.52520  Biso   1.000  H
  H646     1.0000 0.97045  0.91340  0.46028  Biso   1.000  H
  H647     1.0000 0.01239  0.95555  0.68469  Biso   1.000  H
  H648     1.0000 0.07060  0.98345  0.68651  Biso   1.000  H
  H649     1.0000 0.97959  0.99425  0.63198  Biso   1.000  H
  H650     1.0000 0.97968  0.97963  0.65611  Biso   1.000  H
  H651     1.0000 0.08056  0.01715  0.65121  Biso   1.000  H
  H652     1.0000 0.98439  0.93096  0.71082  Biso   1.000  H
  H653     1.0000 0.86348  0.79695  0.49183  Biso   1.000  H
  H654     1.0000 0.90678  0.72356  0.46473  Biso   1.000  H
  H655     1.0000 0.89787  0.75824  0.45041  Biso   1.000  H
  H656     1.0000 0.89957  0.86204  0.50312  Biso   1.000  H
  H657     1.0000 0.92498  0.76012  0.64202  Biso   1.000  H
  H658     1.0000 0.85277  0.76574  0.59011  Biso   1.000  H
  H659     1.0000 0.89464  0.69301  0.54100  Biso   1.000  H
  H660     1.0000 0.30715  0.24500  0.92313  Biso   1.000  H
  H661     1.0000 0.29523  0.24284  0.00824  Biso   1.000  H
  C412     1.0000 0.37172  0.36247  0.02330  Biso   1.000  C
  H662     1.0000 0.41948  0.77232  0.95639  Biso   1.000  H
  C413     1.0000 0.35568  0.63775  0.88029  Biso   1.000  C
  C414     1.0000 0.33964  0.58647  0.74533  Biso   1.000  C
  H663     1.0000 0.38345  0.68571  0.71350  Biso   1.000  H
  H664     1.0000 0.90408  0.40713  0.11000  Biso   1.000  H
  H665     1.0000 0.90747  0.41933  0.20173  Biso   1.000  H
  C415     1.0000 0.88206  0.42502  0.22301  Biso   1.000  C
  C416     1.0000 0.01406  0.42699  0.16300  Biso   1.000  C
  H666     1.0000 0.93235  0.22890  0.01959  Biso   1.000  H
  H667     1.0000 0.92995  0.32291  0.02803  Biso   1.000  H
  C417     1.0000 0.02406  0.34803  0.11200  Biso   1.000  C
  H668     1.0000 0.41756  0.38796  0.99769  Biso   1.000  H
  H669     1.0000 0.38506  0.38614  0.98342  Biso   1.000  H
  H670     1.0000 0.32607  0.38264  0.01873  Biso   1.000  H
  C418     1.0000 0.40251  0.39699  0.09859  Biso   1.000  C
  C419     1.0000 0.31706  0.39904  0.07002  Biso   1.000  C
  H671     1.0000 0.42673  0.38701  0.06203  Biso   1.000  H
  Si38     1.0000 0.33365  0.60724  0.95661  Biso   1.000  Si
  C420     1.0000 0.32767  0.57272  0.80591  Biso   1.000  C
  Si39     1.0000 0.29451  0.49982  0.64128  Biso   1.000  Si
  H672     1.0000 0.90303  0.41372  0.26579  Biso   1.000  H
  H673     1.0000 0.89855  0.49300  0.24702  Biso   1.000  H
  H674     1.0000 0.81848  0.38933  0.20452  Biso   1.000  H
  H675     1.0000 0.03084  0.40762  0.10852  Biso   1.000  H
  H676     1.0000 0.03826  0.49682  0.19671  Biso   1.000  H
  H677     1.0000 0.03647  0.40330  0.19403  Biso   1.000  H
  H678     1.0000 0.04404  0.41483  0.12523  Biso   1.000  H
  H679     1.0000 0.02293  0.34615  0.16454  Biso   1.000  H
  H680     1.0000 0.06370  0.32268  0.08239  Biso   1.000  H
  H681     1.0000 0.43002  0.35931  0.10458  Biso   1.000  H
  H682     1.0000 0.44624  0.46311  0.12158  Biso   1.000  H
  H683     1.0000 0.35596  0.39634  0.12991  Biso   1.000  H
  H684     1.0000 0.27663  0.35200  0.08291  Biso   1.000  H
  H685     1.0000 0.35286  0.45799  0.12341  Biso   1.000  H
  H686     1.0000 0.28457  0.41311  0.03739  Biso   1.000  H
  C421     1.0000 0.39383  0.55133  0.96620  Biso   1.000  C
  C422     1.0000 0.22775  0.53612  0.93089  Biso   1.000  C
  C423     1.0000 0.35966  0.70811  0.05199  Biso   1.000  C
  H687     1.0000 0.29474  0.50772  0.79410  Biso   1.000  H
  C424     1.0000 0.28742  0.39441  0.62839  Biso   1.000  C
  C425     1.0000 0.19503  0.48994  0.61732  Biso   1.000  C
  C426     1.0000 0.35836  0.53093  0.57979  Biso   1.000  C
  H688     1.0000 0.45594  0.59155  0.97612  Biso   1.000  H
  H689     1.0000 0.37673  0.48973  0.91400  Biso   1.000  H
  H690     1.0000 0.38328  0.54067  0.01423  Biso   1.000  H
  H691     1.0000 0.21565  0.47352  0.88183  Biso   1.000  H
  H692     1.0000 0.21057  0.52847  0.97903  Biso   1.000  H
  H693     1.0000 0.19455  0.56454  0.91651  Biso   1.000  H
  H694     1.0000 0.32518  0.74124  0.04942  Biso   1.000  H
  H695     1.0000 0.34672  0.69100  0.09609  Biso   1.000  H
  H696     1.0000 0.42188  0.75016  0.06562  Biso   1.000  H
  H697     1.0000 0.25025  0.37691  0.66398  Biso   1.000  H
  H698     1.0000 0.26211  0.34442  0.56878  Biso   1.000  H
  H699     1.0000 0.34582  0.40124  0.64522  Biso   1.000  H
  H700     1.0000 0.19957  0.54461  0.61202  Biso   1.000  H
  H701     1.0000 0.16233  0.43065  0.56353  Biso   1.000  H
  H702     1.0000 0.16451  0.48871  0.66239  Biso   1.000  H
  H703     1.0000 0.41985  0.55820  0.60700  Biso   1.000  H
  H704     1.0000 0.34497  0.47424  0.52411  Biso   1.000  H
  H705     1.0000 0.34698  0.57843  0.57271  Biso   1.000  H
  C427     1.0000 0.51995  0.60250  0.49108  Biso   1.000  C
  Si40     1.0000 0.47156  0.59804  0.40449  Biso   1.000  Si
  H706     1.0000 0.51854  0.65512  0.54339  Biso   1.000  H
  H707     1.0000 0.48804  0.54204  0.49000  Biso   1.000  H
  H708     1.0000 0.58056  0.61303  0.48909  Biso   1.000  H
  C428     1.0000 0.46285  0.50250  0.31128  Biso   1.000  C
  C429     1.0000 0.53487  0.70206  0.41043  Biso   1.000  C
  C430     1.0000 0.37145  0.59011  0.41311  Biso   1.000  C
  H709     1.0000 0.52081  0.50450  0.30569  Biso   1.000  H
  H710     1.0000 0.42534  0.44344  0.31031  Biso   1.000  H
  H711     1.0000 0.43725  0.50443  0.26411  Biso   1.000  H
  C431     1.0000 0.57634  0.70433  0.35310  Biso   1.000  C
  C432     1.0000 0.54118  0.77802  0.47021  Biso   1.000  C
  H712     1.0000 0.34542  0.59281  0.36662  Biso   1.000  H
  H713     1.0000 0.33534  0.52950  0.41020  Biso   1.000  H
  H714     1.0000 0.37463  0.64342  0.46753  Biso   1.000  H
  C433     1.0000 0.62806  0.78122  0.36023  Biso   1.000  C
  H715     1.0000 0.56733  0.64470  0.30290  Biso   1.000  H
  C434     1.0000 0.59176  0.85583  0.48013  Biso   1.000  C
  H716     1.0000 0.50497  0.77642  0.51082  Biso   1.000  H
  Si41     1.0000 0.70155  0.79154  0.29742  Biso   1.000  Si
  C435     1.0000 0.63478  0.85903  0.42503  Biso   1.000  C
  Si42     1.0000 0.66958  0.76982  0.27432  Biso   1.000  Si
  C436     1.0000 0.60295  0.93523  0.55303  Biso   1.000  C
  C437     1.0000 0.66586  0.68022  0.21289  Biso   1.000  C
  C438     1.0000 0.70205  0.86504  0.26200  Biso   1.000  C
  C439     1.0000 0.80030  0.82737  0.35213  Biso   1.000  C
  C440     1.0000 0.72506  0.88102  0.28801  Biso   1.000  C
  C441     1.0000 0.74407  0.72802  0.27597  Biso   1.000  C
  H717     1.0000 0.67306  0.92033  0.43142  Biso   1.000  H
  C442     1.0000 0.59904  0.69102  0.17900  Biso   1.000  C
  C443     1.0000 0.67209  0.98091  0.60808  Biso   1.000  C
  C444     1.0000 0.54276  0.96424  0.56638  Biso   1.000  C
  H718     1.0000 0.60208  0.65094  0.19651  Biso   1.000  H
  H719     1.0000 0.69016  0.68354  0.16543  Biso   1.000  H
  H720     1.0000 0.68475  0.64161  0.22772  Biso   1.000  H
  H721     1.0000 0.71369  0.92795  0.31083  Biso   1.000  H
  H722     1.0000 0.74667  0.87142  0.22971  Biso   1.000  H
  H723     1.0000 0.64447  0.83856  0.22601  Biso   1.000  H
  H724     1.0000 0.75146  0.87625  0.23970  Biso   1.000  H
  H725     1.0000 0.68447  0.90992  0.29218  Biso   1.000  H
  H726     1.0000 0.79576  0.78971  0.37968  Biso   1.000  H
  H727     1.0000 0.83978  0.81816  0.31351  Biso   1.000  H
  H728     1.0000 0.82307  0.89513  0.39542  Biso   1.000  H
  H729     1.0000 0.77070  0.92054  0.34032  Biso   1.000  H
  H730     1.0000 0.71824  0.65892  0.23719  Biso   1.000  H
  H731     1.0000 0.79494  0.75941  0.25920  Biso   1.000  H
  H732     1.0000 0.76145  0.74162  0.33399  Biso   1.000  H
  H733     1.0000 0.57678  0.72472  0.16012  Biso   1.000  H
  H734     1.0000 0.63007  0.66113  0.13730  Biso   1.000  H
  H735     1.0000 0.55105  0.64183  0.18311  Biso   1.000  H
  O25      1.0000 0.73327  0.95603  0.59262  Biso   1.000  O
  C445     1.0000 0.68335  0.05152  0.68281  Biso   1.000  C
  O26      1.0000 0.47885  0.92540  0.51048  Biso   1.000  O
  C446     1.0000 0.54994  0.03173  0.63540  Biso   1.000  C
  C447     1.0000 0.73068  0.88925  0.60768  Biso   1.000  C
  C448     1.0000 0.61856  0.07258  0.69222  Biso   1.000  C
  C449     1.0000 0.75514  0.09015  0.74019  Biso   1.000  C
  C450     1.0000 0.40768  0.85775  0.50563  Biso   1.000  C
  C451     1.0000 0.48701  0.06503  0.65349  Biso   1.000  C
  C452     1.0000 0.81149  0.91387  0.64402  Biso   1.000  C
  H736     1.0000 0.69126  0.88313  0.64561  Biso   1.000  H
  H737     1.0000 0.70917  0.82777  0.55463  Biso   1.000  H
  H738     1.0000 0.62195  0.12384  0.74732  Biso   1.000  H
  C453     1.0000 0.74614  0.03774  0.77892  Biso   1.000  C
  H739     1.0000 0.80246  0.08684  0.71030  Biso   1.000  H
  C454     1.0000 0.77905  0.18493  0.79900  Biso   1.000  C
  H740     1.0000 0.41257  0.85364  0.55708  Biso   1.000  H
  H741     1.0000 0.39949  0.79636  0.45703  Biso   1.000  H
  C455     1.0000 0.34186  0.87395  0.49690  Biso   1.000  C
  C456     1.0000 0.42286  0.01164  0.67739  Biso   1.000  C
  H742     1.0000 0.45971  0.05532  0.60038  Biso   1.000  H
  C457     1.0000 0.51526  0.15886  0.71150  Biso   1.000  C
  O27      1.0000 0.84039  0.98906  0.71732  Biso   1.000  O
  H743     1.0000 0.85048  0.92433  0.60700  Biso   1.000  H
  H744     1.0000 0.81225  0.86073  0.64909  Biso   1.000  H
  C458     1.0000 0.79011  0.98894  0.77003  Biso   1.000  C
  C459     1.0000 0.70026  0.04005  0.83289  Biso   1.000  C
  H745     1.0000 0.73194  0.18984  0.82889  Biso   1.000  H
  H746     1.0000 0.78535  0.22035  0.76889  Biso   1.000  H
  C460     1.0000 0.85366  0.22673  0.85662  Biso   1.000  C
  O28      1.0000 0.33457  0.94683  0.55948  Biso   1.000  O
  H747     1.0000 0.34118  0.88206  0.44722  Biso   1.000  H
  H748     1.0000 0.28934  0.81631  0.48338  Biso   1.000  H
  C461     1.0000 0.34638  0.95404  0.62930  Biso   1.000  C
  C462     1.0000 0.43375  0.02326  0.74960  Biso   1.000  C
  H749     1.0000 0.46465  0.17342  0.72171  Biso   1.000  H
  H750     1.0000 0.54464  0.17147  0.76512  Biso   1.000  H
  C463     1.0000 0.57214  0.21907  0.68691  Biso   1.000  C
  C464     1.0000 0.78969  0.94864  0.80682  Biso   1.000  C
  C465     1.0000 0.69540  0.99803  0.87310  Biso   1.000  C
  H751     1.0000 0.66665  0.07693  0.84378  Biso   1.000  H
  H752     1.0000 0.86895  0.29528  0.89073  Biso   1.000  H
  H753     1.0000 0.84286  0.20079  0.89484  Biso   1.000  H
  C466     1.0000 0.92363  0.21644  0.82519  Biso   1.000  C
  C467     1.0000 0.28777  0.91245  0.65600  Biso   1.000  C
  C468     1.0000 0.37520  0.98374  0.77710  Biso   1.000  C
  H754     1.0000 0.49144  0.06562  0.78668  Biso   1.000  H
  H755     1.0000 0.54044  0.21375  0.63831  Biso   1.000  H
  H756     1.0000 0.61857  0.19887  0.66883  Biso   1.000  H
  C469     1.0000 0.60862  0.31264  0.75160  Biso   1.000  C
  C470     1.0000 0.73968  0.95215  0.85810  Biso   1.000  C
  C471     1.0000 0.84875  0.91482  0.79741  Biso   1.000  C
  C472     1.0000 0.85108  0.91408  0.81703  Biso   1.000  C
  C473     1.0000 0.65175  0.01216  0.93614  Biso   1.000  C
  H757     1.0000 0.90905  0.14825  0.78993  Biso   1.000  H
  H758     1.0000 0.93747  0.24538  0.78931  Biso   1.000  H
  C474     1.0000 0.00205  0.26308  0.89512  Biso   1.000  C
  C475     1.0000 0.30171  0.92907  0.72861  Biso   1.000  C
  C476     1.0000 0.21007  0.85301  0.59998  Biso   1.000  C
  C477     1.0000 0.20905  0.85202  0.60899  Biso   1.000  C
  C478     1.0000 0.38863  0.00131  0.86050  Biso   1.000  C
  H759     1.0000 0.57646  0.32166  0.79684  Biso   1.000  H
  H760     1.0000 0.60947  0.35547  0.73072  Biso   1.000  H
  C479     1.0000 0.69183  0.32904  0.78001  Biso   1.000  C
  H761     1.0000 0.56475  0.33788  0.75862  Biso   1.000  H
  H762     1.0000 0.62516  0.31506  0.80448  Biso   1.000  H
  C480     1.0000 0.68104  0.37105  0.73802  Biso   1.000  C
  O29      1.0000 0.73906  0.91131  0.90008  Biso   1.000  O
  C481     1.0000 0.92207  0.97055  0.84601  Biso   1.000  C
  C482     1.0000 0.83058  0.82515  0.75200  Biso   1.000  C
  C483     1.0000 0.83559  0.82705  0.78303  Biso   1.000  C
  C484     1.0000 0.92708  0.97667  0.85502  Biso   1.000  C
  C485     1.0000 0.56658  0.96412  0.90619  Biso   1.000  C
  H763     1.0000 0.66800  0.98607  0.96814  Biso   1.000  H
  C486     1.0000 0.68083  0.10903  0.99130  Biso   1.000  C
  H764     1.0000 0.99043  0.23276  0.93043  Biso   1.000  H
  H765     1.0000 0.01785  0.33109  0.93123  Biso   1.000  H
  C487     1.0000 0.07355  0.24752  0.85148  Biso   1.000  C
  O30      1.0000 0.23889  0.89173  0.75731  Biso   1.000  O
  C488     1.0000 0.18808  0.76800  0.54499  Biso   1.000  C
  C489     1.0000 0.14806  0.88202  0.59798  Biso   1.000  C
  C490     1.0000 0.14507  0.87205  0.61299  Biso   1.000  C
  C491     1.0000 0.19906  0.76906  0.55703  Biso   1.000  C
  C492     1.0000 0.43870  0.95783  0.86723  Biso   1.000  C
  H766     1.0000 0.33179  0.97096  0.87059  Biso   1.000  H
  C493     1.0000 0.42326  0.09764  0.91919  Biso   1.000  C
  H767     1.0000 0.69184  0.29527  0.81001  Biso   1.000  H
  H768     1.0000 0.72103  0.31035  0.73301  Biso   1.000  H
  C494     1.0000 0.73104  0.42803  0.83500  Biso   1.000  C
  H769     1.0000 0.72768  0.35069  0.73882  Biso   1.000  H
  H770     1.0000 0.66666  0.36184  0.68189  Biso   1.000  H
  C495     1.0000 0.71109  0.46607  0.79803  Biso   1.000  C
  C496     1.0000 0.68609  0.82035  0.86181  Biso   1.000  C
  C497     1.0000 0.98161  0.93957  0.84601  Biso   1.000  C
  C498     1.0000 0.98769  0.95303  0.85799  Biso   1.000  C
  H771     1.0000 0.93554  0.03745  0.88309  Biso   1.000  H
  H772     1.0000 0.93933  0.04373  0.88183  Biso   1.000  H
  C499     1.0000 0.88828  0.79482  0.74601  Biso   1.000  C
  H773     1.0000 0.77097  0.77986  0.72063  Biso   1.000  H
  H774     1.0000 0.77657  0.77855  0.75343  Biso   1.000  H
  C500     1.0000 0.89605  0.80386  0.78600  Biso   1.000  C
  C501     1.0000 0.52590  0.87677  0.88423  Biso   1.000  C
  C502     1.0000 0.52055  0.00194  0.89672  Biso   1.000  C
  H775     1.0000 0.67267  0.13918  0.95981  Biso   1.000  H
  H776     1.0000 0.64571  0.11911  0.03419  Biso   1.000  H
  C503     1.0000 0.76701  0.15199  0.03100  Biso   1.000  C
  H777     1.0000 0.08032  0.27063  0.81121  Biso   1.000  H
  H778     1.0000 0.06074  0.17952  0.82068  Biso   1.000  H
  C504     1.0000 0.14756  0.29884  0.91480  Biso   1.000  C
  C505     1.0000 0.21808  0.80236  0.73523  Biso   1.000  C
  H779     1.0000 0.23192  0.74480  0.54088  Biso   1.000  H
  C506     1.0000 0.11707  0.71032  0.49599  Biso   1.000  C
  C507     1.0000 0.12607  0.70702  0.51002  Biso   1.000  C
  C508     1.0000 0.07687  0.82832  0.55109  Biso   1.000  C
  H780     1.0000 0.16111  0.94867  0.63472  Biso   1.000  H
  H781     1.0000 0.15261  0.93625  0.65343  Biso   1.000  H
  C509     1.0000 0.07203  0.81001  0.56598  Biso   1.000  C
  H782     1.0000 0.24865  0.75314  0.55412  Biso   1.000  H
  C510     1.0000 0.40447  0.87187  0.84840  Biso   1.000  C
  H783     1.0000 0.47404  0.13167  0.90334  Biso   1.000  H
  H784     1.0000 0.44326  0.10784  0.97493  Biso   1.000  H
  C511     1.0000 0.36466  0.13485  0.92490  Biso   1.000  C
  H785     1.0000 0.70188  0.44794  0.88132  Biso   1.000  H
  H786     1.0000 0.73440  0.46298  0.80482  Biso   1.000  H
  C512     1.0000 0.81307  0.43705  0.86204  Biso   1.000  C
  H787     1.0000 0.69227  0.43188  0.88520  Biso   1.000  H
  H788     1.0000 0.78999  0.46158  0.87191  Biso   1.000  H
  H789     1.0000 0.75956  0.50478  0.78280  Biso   1.000  H
  H790     1.0000 0.66459  0.48696  0.80100  Biso   1.000  H
  C513     1.0000 0.73909  0.47605  0.87402  Biso   1.000  C
  C514     1.0000 0.60321  0.79808  0.83283  Biso   1.000  C
  H791     1.0000 0.70845  0.78605  0.81389  Biso   1.000  H
  H792     1.0000 0.68694  0.79724  0.90140  Biso   1.000  H
  C515     1.0000 0.95608  0.85204  0.78999  Biso   1.000  C
  C516     1.0000 0.97207  0.86707  0.82302  Biso   1.000  C
  Si43     1.0000 0.08181  0.01346  0.89980  Biso   1.000  Si
  Si44     1.0000 0.09200  0.03814  0.91520  Biso   1.000  Si
  Si45     1.0000 0.86435  0.68115  0.68942  Biso   1.000  Si
  Si46     1.0000 0.87286  0.68371  0.74881  Biso   1.000  Si
  O31      1.0000 0.57145  0.83962  0.89792  Biso   1.000  O
  C517     1.0000 0.44769  0.83067  0.85622  Biso   1.000  C
  H793     1.0000 0.54902  0.06898  0.91281  Biso   1.000  H
  H794     1.0000 0.80115  0.13293  0.98862  Biso   1.000  H
  H795     1.0000 0.77383  0.13049  0.07059  Biso   1.000  H
  C518     1.0000 0.79823  0.24943  0.07424  Biso   1.000  C
  H796     1.0000 0.14195  0.27049  0.95102  Biso   1.000  H
  H797     1.0000 0.19814  0.29753  0.88970  Biso   1.000  H
  H798     1.0000 0.15558  0.36517  0.94891  Biso   1.000  H
  H799     1.0000 0.17788  0.78532  0.76889  Biso   1.000  H
  H800     1.0000 0.18676  0.76163  0.67551  Biso   1.000  H
  C519     1.0000 0.28399  0.78293  0.74453  Biso   1.000  C
  Si47     1.0000 0.11345  0.60333  0.42389  Biso   1.000  Si
  C520     1.0000 0.06228  0.74212  0.49822  Biso   1.000  C
  Si48     1.0000 0.09443  0.59101  0.44169  Biso   1.000  Si
  C521     1.0000 0.06305  0.72705  0.51402  Biso   1.000  C
  Si49     1.0000 0.00329  0.87083  0.54961  Biso   1.000  Si
  Si50     1.0000 0.98568  0.84182  0.57773  Biso   1.000  Si
  O32      1.0000 0.32116  0.82762  0.82542  Biso   1.000  O
  H801     1.0000 0.31864  0.10848  0.94983  Biso   1.000  H
  H802     1.0000 0.33752  0.11555  0.86780  Biso   1.000  H
  C522     1.0000 0.40108  0.22987  0.97190  Biso   1.000  C
  H803     1.0000 0.83008  0.47645  0.92421  Biso   1.000  H
  H804     1.0000 0.81016  0.37414  0.84413  Biso   1.000  H
  H805     1.0000 0.85546  0.46854  0.83751  Biso   1.000  H
  H806     1.0000 0.75567  0.54185  0.91982  Biso   1.000  H
  H807     1.0000 0.56866  0.72863  0.80311  Biso   1.000  H
  H808     1.0000 0.60048  0.82032  0.79279  Biso   1.000  H
  H809     1.0000 0.00100  0.82864  0.78389  Biso   1.000  H
  H810     1.0000 0.01905  0.84834  0.82553  Biso   1.000  H
  C523     1.0000 0.12806  0.95704  0.92598  Biso   1.000  C
  C524     1.0000 0.15106  0.99705  0.94600  Biso   1.000  C
  C525     1.0000 0.08806  0.10716  0.99261  Biso   1.000  C
  C526     1.0000 0.13954  0.04106  0.83369  Biso   1.000  C
  C527     1.0000 0.14201  0.08503  0.85599  Biso   1.000  C
  C528     1.0000 0.08798  0.13097  0.00099  Biso   1.000  C
  C529     1.0000 0.81304  0.62304  0.74002  Biso   1.000  C
  C530     1.0000 0.78399  0.63075  0.60483  Biso   1.000  C
  C531     1.0000 0.95743  0.67602  0.66102  Biso   1.000  C
  H811     1.0000 0.80655  0.58704  0.61350  Biso   1.000  H
  C532     1.0000 0.96004  0.66804  0.71298  Biso   1.000  C
  H812     1.0000 0.85302  0.64682  0.79239  Biso   1.000  H
  C533     1.0000 0.88909  0.68307  0.84002  Biso   1.000  C
  C534     1.0000 0.78602  0.61100  0.66598  Biso   1.000  C
  C535     1.0000 0.40715  0.73925  0.83620  Biso   1.000  C
  H813     1.0000 0.79014  0.27080  0.03482  Biso   1.000  H
  H814     1.0000 0.76494  0.26862  0.11753  Biso   1.000  H
  C536     1.0000 0.88545  0.29292  0.11263  Biso   1.000  C
  H815     1.0000 0.32677  0.80314  0.71401  Biso   1.000  H
  H816     1.0000 0.26315  0.71383  0.72040  Biso   1.000  H
  C537     1.0000 0.00874  0.53403  0.37289  Biso   1.000  C
  C538     1.0000 0.17708  0.61804  0.35561  Biso   1.000  C
  C539     1.0000 0.16665  0.56583  0.46981  Biso   1.000  C
  C540     1.0000 0.11704  0.54502  0.49799  Biso   1.000  C
  H817     1.0000 0.00607  0.69970  0.45840  Biso   1.000  H
  H818     1.0000 0.00587  0.67875  0.47762  Biso   1.000  H
  C541     1.0000 0.99273  0.51699  0.43199  Biso   1.000  C
  C542     1.0000 0.13105  0.56202  0.35002  Biso   1.000  C
  C543     1.0000 0.02510  0.92306  0.48903  Biso   1.000  C
  C544     1.0000 0.02068  0.96937  0.63831  Biso   1.000  C
  C545     1.0000 0.90488  0.78026  0.51191  Biso   1.000  C
  H819     1.0000 0.97896  0.84963  0.46022  Biso   1.000  H
  C546     1.0000 0.00707  0.94507  0.66701  Biso   1.000  C
  H820     1.0000 0.88607  0.76683  0.55691  Biso   1.000  H
  C547     1.0000 0.93508  0.82607  0.48903  Biso   1.000  C
  C548     1.0000 0.90605  0.75602  0.58903  Biso   1.000  C
  H821     1.0000 0.44556  0.25653  0.94589  Biso   1.000  H
  C549     1.0000 0.33814  0.26784  0.98000  Biso   1.000  C
  H822     1.0000 0.43004  0.24939  0.02849  Biso   1.000  H
  H823     1.0000 0.12881  0.90296  0.87453  Biso   1.000  H
  H824     1.0000 0.09430  0.93278  0.96032  Biso   1.000  H
  H825     1.0000 0.11306  0.93365  0.93739  Biso   1.000  H
  H826     1.0000 0.19530  0.99097  0.91201  Biso   1.000  H
  H827     1.0000 0.18795  0.00138  0.95901  Biso   1.000  H
  H828     1.0000 0.17981  0.04059  0.00590  Biso   1.000  H
  H829     1.0000 0.08494  0.15628  0.98240  Biso   1.000  H
  H830     1.0000 0.04020  0.08561  0.01782  Biso   1.000  H
  H831     1.0000 0.14404  0.13380  0.03151  Biso   1.000  H
  H832     1.0000 0.14635  0.18289  0.02860  Biso   1.000  H
  H833     1.0000 0.06406  0.11032  0.04121  Biso   1.000  H
  H834     1.0000 0.13499  0.98283  0.78372  Biso   1.000  H
  H835     1.0000 0.11627  0.07527  0.81572  Biso   1.000  H
  H836     1.0000 0.20094  0.08284  0.86329  Biso   1.000  H
  H837     1.0000 0.19422  0.07377  0.84624  Biso   1.000  H
  H838     1.0000 0.10203  0.05557  0.80203  Biso   1.000  H
  H839     1.0000 0.15924  0.15444  0.88702  Biso   1.000  H
  H840     1.0000 0.04968  0.15310  0.98394  Biso   1.000  H
  H841     1.0000 0.76146  0.63395  0.75240  Biso   1.000  H
  H842     1.0000 0.79617  0.55433  0.70289  Biso   1.000  H
  H843     1.0000 0.79874  0.66881  0.57671  Biso   1.000  H
  H844     1.0000 0.77677  0.56585  0.56501  Biso   1.000  H
  H845     1.0000 0.72943  0.62813  0.62320  Biso   1.000  H
  H846     1.0000 0.75352  0.64551  0.66478  Biso   1.000  H
  H847     1.0000 0.96476  0.62524  0.66438  Biso   1.000  H
  H848     1.0000 0.95455  0.66363  0.60221  Biso   1.000  H
  H849     1.0000 0.94806  0.63905  0.65143  Biso   1.000  H
  H850     1.0000 0.00727  0.73766  0.69861  Biso   1.000  H
  H851     1.0000 0.97147  0.62561  0.72861  Biso   1.000  H
  H852     1.0000 0.01107  0.72983  0.73899  Biso   1.000  H
  H853     1.0000 0.83437  0.64031  0.84401  Biso   1.000  H
  H854     1.0000 0.93417  0.66154  0.84053  Biso   1.000  H
  H855     1.0000 0.90747  0.74823  0.88811  Biso   1.000  H
  H856     1.0000 0.74906  0.55642  0.67243  Biso   1.000  H
  C550     1.0000 0.39616  0.72102  0.89769  Biso   1.000  C
  C551     1.0000 0.37755  0.67235  0.75970  Biso   1.000  C
  H857     1.0000 0.91654  0.26541  0.07042  Biso   1.000  H
  H858     1.0000 0.89162  0.27754  0.15712  Biso   1.000  H
  C552     1.0000 0.92474  0.39011  0.14799  Biso   1.000  C
  C553     1.0000 0.94002  0.29400  0.06003  Biso   1.000  C
  H859     1.0000 0.89473  0.25989  0.14069  Biso   1.000  H
  H860     1.0000 0.90033  0.35903  0.15672  Biso   1.000  H
  H861     1.0000 0.99472  0.55011  0.33119  Biso   1.000  H
  H862     1.0000 0.99865  0.46671  0.34369  Biso   1.000  H
  H863     1.0000 0.97155  0.54442  0.41379  Biso   1.000  H
  H864     1.0000 0.23823  0.64920  0.38390  Biso   1.000  H
  H865     1.0000 0.16332  0.55613  0.30569  Biso   1.000  H
  H866     1.0000 0.16468  0.65886  0.33792  Biso   1.000  H
  H867     1.0000 0.19457  0.58684  0.36382  Biso   1.000  H
  H868     1.0000 0.11394  0.58990  0.32070  Biso   1.000  H
  H869     1.0000 0.15406  0.58064  0.52582  Biso   1.000  H
  H870     1.0000 0.14705  0.49671  0.43410  Biso   1.000  H
  H871     1.0000 0.22968  0.59855  0.47591  Biso   1.000  H
  H872     1.0000 0.17993  0.57163  0.51681  Biso   1.000  H
  H873     1.0000 0.09047  0.56223  0.54739  Biso   1.000  H
  H874     1.0000 0.09234  0.47573  0.46228  Biso   1.000  H
  H875     1.0000 0.95122  0.53380  0.41219  Biso   1.000  H
  H876     1.0000 0.98197  0.45105  0.39063  Biso   1.000  H
  H877     1.0000 0.98522  0.52222  0.48698  Biso   1.000  H
  H878     1.0000 0.10504  0.49222  0.31391  Biso   1.000  H
  H879     1.0000 0.05550  0.89377  0.44682  Biso   1.000  H
  H880     1.0000 0.06239  0.99133  0.52520  Biso   1.000  H
  H881     1.0000 0.97045  0.91340  0.46028  Biso   1.000  H
  H882     1.0000 0.01239  0.95555  0.68469  Biso   1.000  H
  H883     1.0000 0.97959  0.99425  0.63198  Biso   1.000  H
  H884     1.0000 0.97968  0.97963  0.65611  Biso   1.000  H
  H885     1.0000 0.07060  0.98345  0.68651  Biso   1.000  H
  H886     1.0000 0.08056  0.01715  0.65121  Biso   1.000  H
  H887     1.0000 0.86348  0.79695  0.49183  Biso   1.000  H
  H888     1.0000 0.90678  0.72356  0.46473  Biso   1.000  H
  H889     1.0000 0.89787  0.75824  0.45041  Biso   1.000  H
  H890     1.0000 0.98439  0.93096  0.71082  Biso   1.000  H
  H891     1.0000 0.89957  0.86204  0.50312  Biso   1.000  H
  H892     1.0000 0.92498  0.76012  0.64202  Biso   1.000  H
  H893     1.0000 0.85277  0.76574  0.59011  Biso   1.000  H
  H894     1.0000 0.89464  0.69301  0.54100  Biso   1.000  H
  H895     1.0000 0.30715  0.24500  0.92313  Biso   1.000  H
  H896     1.0000 0.29523  0.24284  0.00824  Biso   1.000  H
  C554     1.0000 0.37172  0.36247  0.02330  Biso   1.000  C
  H897     1.0000 0.41948  0.77232  0.95639  Biso   1.000  H
  C555     1.0000 0.35568  0.63775  0.88029  Biso   1.000  C
  C556     1.0000 0.33964  0.58647  0.74533  Biso   1.000  C
  H898     1.0000 0.38345  0.68571  0.71350  Biso   1.000  H
  H899     1.0000 0.90408  0.40713  0.11000  Biso   1.000  H
  H900     1.0000 0.90747  0.41933  0.20173  Biso   1.000  H
  C557     1.0000 0.88206  0.42502  0.22301  Biso   1.000  C
  C558     1.0000 0.01406  0.42699  0.16300  Biso   1.000  C
  H901     1.0000 0.93235  0.22890  0.01959  Biso   1.000  H
  H902     1.0000 0.92995  0.32291  0.02803  Biso   1.000  H
  C559     1.0000 0.02406  0.34803  0.11200  Biso   1.000  C
  H903     1.0000 0.41756  0.38796  0.99769  Biso   1.000  H
  H904     1.0000 0.38506  0.38614  0.98342  Biso   1.000  H
  H905     1.0000 0.32607  0.38264  0.01873  Biso   1.000  H
  C560     1.0000 0.40251  0.39699  0.09859  Biso   1.000  C
  C561     1.0000 0.31706  0.39904  0.07002  Biso   1.000  C
  H906     1.0000 0.42673  0.38701  0.06203  Biso   1.000  H
  Si51     1.0000 0.33365  0.60724  0.95661  Biso   1.000  Si
  C562     1.0000 0.32767  0.57272  0.80591  Biso   1.000  C
  Si52     1.0000 0.29451  0.49982  0.64128  Biso   1.000  Si
  H907     1.0000 0.90303  0.41372  0.26579  Biso   1.000  H
  H908     1.0000 0.89855  0.49300  0.24702  Biso   1.000  H
  H909     1.0000 0.81848  0.38933  0.20452  Biso   1.000  H
  H910     1.0000 0.03084  0.40762  0.10852  Biso   1.000  H
  H911     1.0000 0.03826  0.49682  0.19671  Biso   1.000  H
  H912     1.0000 0.03647  0.40330  0.19403  Biso   1.000  H
  H913     1.0000 0.04404  0.41483  0.12523  Biso   1.000  H
  H914     1.0000 0.02293  0.34615  0.16454  Biso   1.000  H
  H915     1.0000 0.06370  0.32268  0.08239  Biso   1.000  H
  H916     1.0000 0.43002  0.35931  0.10458  Biso   1.000  H
  H917     1.0000 0.44624  0.46311  0.12158  Biso   1.000  H
  H918     1.0000 0.35596  0.39634  0.12991  Biso   1.000  H
  H919     1.0000 0.27663  0.35200  0.08291  Biso   1.000  H
  H920     1.0000 0.35286  0.45799  0.12341  Biso   1.000  H
  H921     1.0000 0.28457  0.41311  0.03739  Biso   1.000  H
  C563     1.0000 0.39383  0.55133  0.96620  Biso   1.000  C
  C564     1.0000 0.22775  0.53612  0.93089  Biso   1.000  C
  C565     1.0000 0.35966  0.70811  0.05199  Biso   1.000  C
  H922     1.0000 0.29474  0.50772  0.79410  Biso   1.000  H
  C566     1.0000 0.28742  0.39441  0.62839  Biso   1.000  C
  C567     1.0000 0.19503  0.48994  0.61732  Biso   1.000  C
  C568     1.0000 0.35836  0.53093  0.57979  Biso   1.000  C
  H923     1.0000 0.45594  0.59155  0.97612  Biso   1.000  H
  H924     1.0000 0.37673  0.48973  0.91400  Biso   1.000  H
  H925     1.0000 0.38328  0.54067  0.01423  Biso   1.000  H
  H926     1.0000 0.21565  0.47352  0.88183  Biso   1.000  H
  H927     1.0000 0.21057  0.52847  0.97903  Biso   1.000  H
  H928     1.0000 0.19455  0.56454  0.91651  Biso   1.000  H
  H929     1.0000 0.32518  0.74124  0.04942  Biso   1.000  H
  H930     1.0000 0.34672  0.69100  0.09609  Biso   1.000  H
  H931     1.0000 0.42188  0.75016  0.06562  Biso   1.000  H
  H932     1.0000 0.25025  0.37691  0.66398  Biso   1.000  H
  H933     1.0000 0.26211  0.34442  0.56878  Biso   1.000  H
  H934     1.0000 0.34582  0.40124  0.64522  Biso   1.000  H
  H935     1.0000 0.19957  0.54461  0.61202  Biso   1.000  H
  H936     1.0000 0.16233  0.43065  0.56353  Biso   1.000  H
  H937     1.0000 0.16451  0.48871  0.66239  Biso   1.000  H
  H938     1.0000 0.41985  0.55820  0.60700  Biso   1.000  H
  H939     1.0000 0.34497  0.47424  0.52411  Biso   1.000  H
  H940     1.0000 0.34698  0.57843  0.57271  Biso   1.000  H
