data_image0
_cell_length_a       27.005
_cell_length_b       16.597
_cell_length_c       15.966
_cell_angle_alpha    90
_cell_angle_beta     90.32
_cell_angle_gamma    90

_symmetry_space_group_name_H-M    "P 1"
_symmetry_int_tables_number       1

loop_
  _symmetry_equiv_pos_as_xyz
  'x, y, z'

loop_
  _atom_site_label
  _atom_site_occupancy
  _atom_site_fract_x
  _atom_site_fract_y
  _atom_site_fract_z
  _atom_site_thermal_displace_type
  _atom_site_B_iso_or_equiv
  _atom_site_type_symbol
  N1       1.0000 0.53599  0.56052  0.41908  Biso   1.000  N
  C1       1.0000 0.54306  0.47611  0.40731  Biso   1.000  C
  H1       1.0000 0.51237  0.58511  0.38896  Biso   1.000  H
  C2       1.0000 0.56324  0.61071  0.46399  Biso   1.000  C
  C3       1.0000 0.50797  0.43912  0.35720  Biso   1.000  C
  C4       1.0000 0.58139  0.42978  0.44151  Biso   1.000  C
  O1       1.0000 0.60173  0.58800  0.50051  Biso   1.000  O
  C5       1.0000 0.54515  0.69729  0.46750  Biso   1.000  C
  C6       1.0000 0.50834  0.35681  0.34330  Biso   1.000  C
  O2       1.0000 0.47006  0.48750  0.32451  Biso   1.000  O
  C7       1.0000 0.58185  0.34820  0.42478  Biso   1.000  C
  H2       1.0000 0.60620  0.45358  0.47495  Biso   1.000  H
  C8       1.0000 0.50700  0.73188  0.42146  Biso   1.000  C
  C9       1.0000 0.57129  0.74658  0.52287  Biso   1.000  C
  C10      1.0000 0.47029  0.30740  0.29231  Biso   1.000  C
  C11      1.0000 0.54641  0.31162  0.37787  Biso   1.000  C
  C12      1.0000 0.48086  0.52100  0.24358  Biso   1.000  C
  H3       1.0000 0.60777  0.31668  0.44677  Biso   1.000  H
  O3       1.0000 0.47964  0.68555  0.36547  Biso   1.000  O
  C13      1.0000 0.49474  0.81159  0.43167  Biso   1.000  C
  H4       1.0000 0.59768  0.72471  0.55419  Biso   1.000  H
  C14      1.0000 0.55947  0.82539  0.53245  Biso   1.000  C
  N2       1.0000 0.42787  0.34289  0.27647  Biso   1.000  N
  O4       1.0000 0.47870  0.23564  0.27202  Biso   1.000  O
  H5       1.0000 0.54767  0.25559  0.36879  Biso   1.000  H
  H6       1.0000 0.48421  0.47780  0.20312  Biso   1.000  H
  H7       1.0000 0.45418  0.55661  0.22661  Biso   1.000  H
  H8       1.0000 0.51161  0.55118  0.24659  Biso   1.000  H
  H9       1.0000 0.48659  0.69880  0.31680  Biso   1.000  H
  N3       1.0000 0.45487  0.83660  0.37756  Biso   1.000  N
  C15      1.0000 0.52096  0.85907  0.48811  Biso   1.000  C
  H10      1.0000 0.57778  0.85738  0.56997  Biso   1.000  H
  C16      1.0000 0.38694  0.31379  0.22918  Biso   1.000  C
  H11      1.0000 0.42538  0.39441  0.29601  Biso   1.000  H
  C17      1.0000 0.43209  0.90649  0.37687  Biso   1.000  C
  H12      1.0000 0.44550  0.79358  0.34499  Biso   1.000  H
  H13      1.0000 0.51247  0.91348  0.49581  Biso   1.000  H
  C18      1.0000 0.35148  0.37248  0.21108  Biso   1.000  C
  C19      1.0000 0.38040  0.23528  0.19961  Biso   1.000  C
  C20      1.0000 0.39022  0.91300  0.31298  Biso   1.000  C
  O5       1.0000 0.44357  0.96457  0.42172  Biso   1.000  O
  C21      1.0000 0.30996  0.35398  0.16172  Biso   1.000  C
  O6       1.0000 0.36054  0.44990  0.23970  Biso   1.000  O
  C22      1.0000 0.33962  0.21950  0.15107  Biso   1.000  C
  H14      1.0000 0.40341  0.19449  0.21258  Biso   1.000  H
  C23      1.0000 0.36252  0.84961  0.27947  Biso   1.000  C
  C24      1.0000 0.37700  0.99108  0.28962  Biso   1.000  C
  C25      1.0000 0.30512  0.27692  0.13247  Biso   1.000  C
  C26      1.0000 0.26891  0.41152  0.13360  Biso   1.000  C
  C27      1.0000 0.34174  0.46641  0.32238  Biso   1.000  C
  H15      1.0000 0.33518  0.16708  0.12978  Biso   1.000  H
  C28      1.0000 0.32339  0.86389  0.22517  Biso   1.000  C
  O7       1.0000 0.37539  0.76978  0.29582  Biso   1.000  O
  C29      1.0000 0.33850  0.00428  0.23720  Biso   1.000  C
  H16      1.0000 0.39518  0.03501  0.31066  Biso   1.000  H
  H17      1.0000 0.27761  0.26330  0.09902  Biso   1.000  H
  O8       1.0000 0.22985  0.38640  0.10072  Biso   1.000  O
  N4       1.0000 0.27843  0.48912  0.14468  Biso   1.000  N
  H18      1.0000 0.35109  0.42291  0.35990  Biso   1.000  H
  H19      1.0000 0.35558  0.51660  0.34280  Biso   1.000  H
  H20      1.0000 0.30589  0.47063  0.32000  Biso   1.000  H
  N5       1.0000 0.30047  0.79249  0.19410  Biso   1.000  N
  C30      1.0000 0.31088  0.94270  0.20419  Biso   1.000  C
  C31      1.0000 0.34978  0.73519  0.36679  Biso   1.000  C
  H21      1.0000 0.33030  0.05760  0.22291  Biso   1.000  H
  H22      1.0000 0.31029  0.50003  0.15997  Biso   1.000  H
  C32      1.0000 0.24803  0.55612  0.12308  Biso   1.000  C
  C33      1.0000 0.25901  0.78611  0.15239  Biso   1.000  C
  H23      1.0000 0.31300  0.74471  0.20801  Biso   1.000  H
  H24      1.0000 0.28410  0.95343  0.16811  Biso   1.000  H
  H25      1.0000 0.31438  0.73549  0.35589  Biso   1.000  H
  H26      1.0000 0.36088  0.68018  0.37530  Biso   1.000  H
  H27      1.0000 0.35690  0.76683  0.41652  Biso   1.000  H
  C34      1.0000 0.26860  0.63042  0.14118  Biso   1.000  C
  C35      1.0000 0.20044  0.55251  0.08700  Biso   1.000  C
  C36      1.0000 0.24320  0.70139  0.12940  Biso   1.000  C
  O9       1.0000 0.23292  0.84570  0.13567  Biso   1.000  O
  O10      1.0000 0.31704  0.63048  0.17469  Biso   1.000  O
  C37      1.0000 0.17573  0.62361  0.07272  Biso   1.000  C
  H28      1.0000 0.18591  0.50268  0.07309  Biso   1.000  H
  C38      1.0000 0.19565  0.69681  0.09470  Biso   1.000  C
  C39      1.0000 0.35486  0.62999  0.11211  Biso   1.000  C
  H29      1.0000 0.14431  0.62222  0.04710  Biso   1.000  H
  H30      1.0000 0.17722  0.74417  0.08637  Biso   1.000  H
  H31      1.0000 0.34929  0.67398  0.07322  Biso   1.000  H
  H32      1.0000 0.38698  0.63638  0.13867  Biso   1.000  H
  H33      1.0000 0.35391  0.57932  0.08199  Biso   1.000  H
  N6       1.0000 0.46398  0.43948  0.58087  Biso   1.000  N
  C40      1.0000 0.43673  0.38929  0.53596  Biso   1.000  C
  H34      1.0000 0.48759  0.41489  0.61100  Biso   1.000  H
  C41      1.0000 0.45687  0.52389  0.59271  Biso   1.000  C
  C42      1.0000 0.45482  0.30271  0.53245  Biso   1.000  C
  O11      1.0000 0.39824  0.41200  0.49951  Biso   1.000  O
  C43      1.0000 0.49199  0.56088  0.64275  Biso   1.000  C
  C44      1.0000 0.41858  0.57022  0.55851  Biso   1.000  C
  C45      1.0000 0.42868  0.25342  0.47708  Biso   1.000  C
  C46      1.0000 0.49297  0.26812  0.57849  Biso   1.000  C
  O12      1.0000 0.52991  0.51250  0.67551  Biso   1.000  O
  C47      1.0000 0.49163  0.64319  0.65666  Biso   1.000  C
  C48      1.0000 0.41812  0.65180  0.57517  Biso   1.000  C
  H35      1.0000 0.39377  0.54642  0.52500  Biso   1.000  H
  H36      1.0000 0.40229  0.27529  0.44577  Biso   1.000  H
  C49      1.0000 0.44050  0.17461  0.46750  Biso   1.000  C
  O13      1.0000 0.52033  0.31445  0.63448  Biso   1.000  O
  C50      1.0000 0.50523  0.18841  0.56828  Biso   1.000  C
  C51      1.0000 0.51911  0.47900  0.75637  Biso   1.000  C
  C52      1.0000 0.52968  0.69260  0.70770  Biso   1.000  C
  C53      1.0000 0.45356  0.68838  0.62208  Biso   1.000  C
  H37      1.0000 0.39216  0.68332  0.55318  Biso   1.000  H
  H38      1.0000 0.42219  0.14262  0.42998  Biso   1.000  H
  C54      1.0000 0.47901  0.14093  0.51191  Biso   1.000  C
  H39      1.0000 0.51338  0.30120  0.68315  Biso   1.000  H
  N7       1.0000 0.54510  0.16340  0.62239  Biso   1.000  N
  H40      1.0000 0.51576  0.52220  0.79689  Biso   1.000  H
  H41      1.0000 0.54579  0.44339  0.77341  Biso   1.000  H
  H42      1.0000 0.48836  0.44882  0.75336  Biso   1.000  H
  O14      1.0000 0.52127  0.76436  0.72800  Biso   1.000  O
  N8       1.0000 0.57210  0.65711  0.72349  Biso   1.000  N
  H43      1.0000 0.45226  0.74441  0.63116  Biso   1.000  H
  H44      1.0000 0.48750  0.08652  0.50420  Biso   1.000  H
  H45      1.0000 0.55447  0.20642  0.65496  Biso   1.000  H
  C55      1.0000 0.56788  0.09351  0.62308  Biso   1.000  C
  H46      1.0000 0.57459  0.60559  0.70401  Biso   1.000  H
  C56      1.0000 0.61302  0.68621  0.77077  Biso   1.000  C
  O15      1.0000 0.55640  0.03543  0.57830  Biso   1.000  O
  C57      1.0000 0.60975  0.08700  0.68697  Biso   1.000  C
  C58      1.0000 0.64849  0.62752  0.78888  Biso   1.000  C
  C59      1.0000 0.61957  0.76472  0.80040  Biso   1.000  C
  C60      1.0000 0.63745  0.15039  0.72048  Biso   1.000  C
  C61      1.0000 0.62297  0.00892  0.71040  Biso   1.000  C
  O16      1.0000 0.63943  0.55010  0.76025  Biso   1.000  O
  C62      1.0000 0.68997  0.64602  0.83829  Biso   1.000  C
  C63      1.0000 0.66035  0.78050  0.84888  Biso   1.000  C
  H47      1.0000 0.59656  0.80551  0.78737  Biso   1.000  H
  O17      1.0000 0.62458  0.23022  0.70419  Biso   1.000  O
  C64      1.0000 0.67658  0.13611  0.77478  Biso   1.000  C
  H48      1.0000 0.60479  0.96499  0.68929  Biso   1.000  H
  C65      1.0000 0.66147  0.99572  0.76276  Biso   1.000  C
  C66      1.0000 0.65823  0.53359  0.67758  Biso   1.000  C
  C67      1.0000 0.73106  0.58848  0.86635  Biso   1.000  C
  C68      1.0000 0.69485  0.72308  0.86748  Biso   1.000  C
  H49      1.0000 0.66475  0.83292  0.87018  Biso   1.000  H
  C69      1.0000 0.65019  0.26481  0.63317  Biso   1.000  C
  N9       1.0000 0.69949  0.20751  0.80585  Biso   1.000  N
  C70      1.0000 0.68909  0.05730  0.79577  Biso   1.000  C
  H50      1.0000 0.66966  0.94240  0.77710  Biso   1.000  H
  H51      1.0000 0.64888  0.57709  0.64006  Biso   1.000  H
  H52      1.0000 0.64438  0.48340  0.65716  Biso   1.000  H
  H53      1.0000 0.69408  0.52937  0.67996  Biso   1.000  H
  O18      1.0000 0.77012  0.61360  0.89930  Biso   1.000  O
  N10      1.0000 0.72154  0.51088  0.85527  Biso   1.000  N
  H54      1.0000 0.72236  0.73670  0.90099  Biso   1.000  H
  H55      1.0000 0.68559  0.26451  0.64407  Biso   1.000  H
  H56      1.0000 0.63909  0.31982  0.62465  Biso   1.000  H
  H57      1.0000 0.64307  0.23317  0.58350  Biso   1.000  H
  H58      1.0000 0.68697  0.25529  0.79195  Biso   1.000  H
  C71      1.0000 0.74096  0.21389  0.84756  Biso   1.000  C
  H59      1.0000 0.71587  0.04657  0.83184  Biso   1.000  H
  C72      1.0000 0.75194  0.44388  0.87688  Biso   1.000  C
  H60      1.0000 0.68968  0.50003  0.83999  Biso   1.000  H
  O19      1.0000 0.76705  0.15430  0.86429  Biso   1.000  O
  C73      1.0000 0.75677  0.29861  0.87055  Biso   1.000  C
  C74      1.0000 0.73137  0.36958  0.85878  Biso   1.000  C
  C75      1.0000 0.79953  0.44749  0.91295  Biso   1.000  C
  C76      1.0000 0.80432  0.30319  0.90525  Biso   1.000  C
  O20      1.0000 0.68293  0.36952  0.82527  Biso   1.000  O
  C77      1.0000 0.82424  0.37639  0.92730  Biso   1.000  C
  H61      1.0000 0.81406  0.49732  0.92686  Biso   1.000  H
  H62      1.0000 0.82275  0.25583  0.91358  Biso   1.000  H
  C78      1.0000 0.64511  0.37001  0.88790  Biso   1.000  C
  H63      1.0000 0.85566  0.37778  0.95285  Biso   1.000  H
  H64      1.0000 0.65068  0.32602  0.92680  Biso   1.000  H
  H65      1.0000 0.61295  0.36362  0.86128  Biso   1.000  H
  H66      1.0000 0.64606  0.42068  0.91796  Biso   1.000  H
  C79      1.0000 0.62299  0.49111  0.21039  Biso   1.000  C
  C80      1.0000 0.60976  0.41303  0.18703  Biso   1.000  C
  H67      1.0000 0.60481  0.53498  0.18928  Biso   1.000  H
  C81      1.0000 0.66149  0.50431  0.26281  Biso   1.000  C
  C82      1.0000 0.56789  0.40652  0.12308  Biso   1.000  C
  C83      1.0000 0.63746  0.34958  0.22047  Biso   1.000  C
  C84      1.0000 0.68911  0.44267  0.29582  Biso   1.000  C
  H68      1.0000 0.66968  0.55757  0.27709  Biso   1.000  H
  N11      1.0000 0.54512  0.33663  0.12239  Biso   1.000  N
  O21      1.0000 0.55641  0.46460  0.07829  Biso   1.000  O
  O22      1.0000 0.62460  0.26981  0.20419  Biso   1.000  O
  C85      1.0000 0.67660  0.36392  0.27478  Biso   1.000  C
  H69      1.0000 0.71589  0.45340  0.33190  Biso   1.000  H
  C86      1.0000 0.50524  0.31162  0.06827  Biso   1.000  C
  H70      1.0000 0.55448  0.29361  0.15502  Biso   1.000  H
  C87      1.0000 0.65021  0.23522  0.13322  Biso   1.000  C
  N12      1.0000 0.69951  0.29252  0.30590  Biso   1.000  N
  C88      1.0000 0.49298  0.23191  0.07848  Biso   1.000  C
  C89      1.0000 0.47902  0.35910  0.01190  Biso   1.000  C
  H71      1.0000 0.68561  0.23552  0.14412  Biso   1.000  H
  H72      1.0000 0.63911  0.18021  0.12470  Biso   1.000  H
  H73      1.0000 0.64312  0.26680  0.08349  Biso   1.000  H
  H74      1.0000 0.68699  0.24468  0.29200  Biso   1.000  H
  C90      1.0000 0.74097  0.28608  0.34762  Biso   1.000  C
  C91      1.0000 0.45484  0.19732  0.03251  Biso   1.000  C
  O23      1.0000 0.52035  0.18552  0.13448  Biso   1.000  O
  C92      1.0000 0.44048  0.32542  0.96743  Biso   1.000  C
  H75      1.0000 0.48752  0.41351  0.00420  Biso   1.000  H
  O24      1.0000 0.76706  0.34573  0.36428  Biso   1.000  O
  C93      1.0000 0.75679  0.20142  0.37061  Biso   1.000  C
  C94      1.0000 0.43674  0.11068  0.03601  Biso   1.000  C
  C95      1.0000 0.42866  0.24661  0.97701  Biso   1.000  C
  H76      1.0000 0.51340  0.19877  0.18320  Biso   1.000  H
  H77      1.0000 0.42217  0.35741  0.92991  Biso   1.000  H
  C96      1.0000 0.73138  0.13039  0.35877  Biso   1.000  C
  C97      1.0000 0.80434  0.19678  0.40531  Biso   1.000  C
  N13      1.0000 0.46400  0.06049  0.08092  Biso   1.000  N
  O25      1.0000 0.39822  0.08803  0.99944  Biso   1.000  O
  H78      1.0000 0.40226  0.22468  0.94576  Biso   1.000  H
  C98      1.0000 0.75196  0.05609  0.37687  Biso   1.000  C
  O26      1.0000 0.68295  0.13051  0.32526  Biso   1.000  O
  H79      1.0000 0.82281  0.24420  0.41357  Biso   1.000  H
  C99      1.0000 0.82426  0.12358  0.42729  Biso   1.000  C
  H80      1.0000 0.48761  0.08508  0.11099  Biso   1.000  H
  C100     1.0000 0.45693  0.97608  0.09270  Biso   1.000  C
  N14      1.0000 0.72156  0.98909  0.35526  Biso   1.000  N
  C101     1.0000 0.79955  0.05248  0.41301  Biso   1.000  C
  C102     1.0000 0.64512  0.13002  0.38789  Biso   1.000  C
  H81      1.0000 0.85567  0.12219  0.45291  Biso   1.000  H
  C103     1.0000 0.49201  0.93909  0.14281  Biso   1.000  C
  C104     1.0000 0.41860  0.92981  0.05850  Biso   1.000  C
  C105     1.0000 0.73107  0.91149  0.36641  Biso   1.000  C
  H82      1.0000 0.68970  0.00000  0.33998  Biso   1.000  H
  H83      1.0000 0.81407  0.00271  0.42691  Biso   1.000  H
  H84      1.0000 0.65070  0.17401  0.42679  Biso   1.000  H
  H85      1.0000 0.61301  0.13641  0.36127  Biso   1.000  H
  H86      1.0000 0.64608  0.07929  0.41796  Biso   1.000  H
  O27      1.0000 0.52993  0.98753  0.17550  Biso   1.000  O
  C106     1.0000 0.49165  0.85678  0.15671  Biso   1.000  C
  C107     1.0000 0.41813  0.84823  0.07522  Biso   1.000  C
  H87      1.0000 0.39379  0.95361  0.02499  Biso   1.000  H
  C108     1.0000 0.69003  0.85401  0.33829  Biso   1.000  C
  O28      1.0000 0.77014  0.88643  0.39929  Biso   1.000  O
  C109     1.0000 0.51912  0.02103  0.25636  Biso   1.000  C
  C110     1.0000 0.52970  0.80737  0.20769  Biso   1.000  C
  C111     1.0000 0.45358  0.81159  0.12207  Biso   1.000  C
  H88      1.0000 0.39221  0.81671  0.05318  Biso   1.000  H
  C112     1.0000 0.64850  0.87251  0.28887  Biso   1.000  C
  C113     1.0000 0.69486  0.77689  0.36747  Biso   1.000  C
  H89      1.0000 0.54580  0.05658  0.27340  Biso   1.000  H
  H90      1.0000 0.48838  0.05121  0.25342  Biso   1.000  H
  H91      1.0000 0.51577  0.97783  0.29689  Biso   1.000  H
  O29      1.0000 0.52129  0.73561  0.22799  Biso   1.000  O
  N15      1.0000 0.57211  0.84292  0.22348  Biso   1.000  N
  H92      1.0000 0.45231  0.75562  0.13122  Biso   1.000  H
  C114     1.0000 0.61304  0.81382  0.27077  Biso   1.000  C
  O30      1.0000 0.63944  0.94993  0.26031  Biso   1.000  O
  C115     1.0000 0.66036  0.71953  0.34887  Biso   1.000  C
  H93      1.0000 0.72238  0.76327  0.40098  Biso   1.000  H
  H94      1.0000 0.57460  0.89438  0.20400  Biso   1.000  H
  C116     1.0000 0.61958  0.73531  0.30039  Biso   1.000  C
  C117     1.0000 0.65824  0.96638  0.17757  Biso   1.000  C
  H95      1.0000 0.66480  0.66711  0.37017  Biso   1.000  H
  H96      1.0000 0.59658  0.69452  0.28737  Biso   1.000  H
  H97      1.0000 0.64440  0.01663  0.15721  Biso   1.000  H
  H98      1.0000 0.64890  0.92288  0.14011  Biso   1.000  H
  H99      1.0000 0.69410  0.97060  0.18001  Biso   1.000  H
  C118     1.0000 0.37698  0.50889  0.78957  Biso   1.000  C
  C119     1.0000 0.33848  0.49569  0.73720  Biso   1.000  C
  C120     1.0000 0.39021  0.58697  0.81299  Biso   1.000  C
  H100     1.0000 0.39516  0.46502  0.81067  Biso   1.000  H
  C121     1.0000 0.31086  0.55733  0.70419  Biso   1.000  C
  H101     1.0000 0.33029  0.44243  0.72286  Biso   1.000  H
  C122     1.0000 0.36251  0.65042  0.77948  Biso   1.000  C
  C123     1.0000 0.43208  0.59348  0.87688  Biso   1.000  C
  H102     1.0000 0.28408  0.54660  0.66806  Biso   1.000  H
  C124     1.0000 0.32337  0.63608  0.72518  Biso   1.000  C
  O31      1.0000 0.37537  0.73019  0.79577  Biso   1.000  O
  O32      1.0000 0.44355  0.53540  0.92166  Biso   1.000  O
  N16      1.0000 0.45485  0.66337  0.87757  Biso   1.000  N
  N17      1.0000 0.30046  0.70748  0.69405  Biso   1.000  N
  C125     1.0000 0.34976  0.76478  0.86679  Biso   1.000  C
  H103     1.0000 0.44549  0.70639  0.84500  Biso   1.000  H
  C126     1.0000 0.49473  0.68838  0.93168  Biso   1.000  C
  H104     1.0000 0.31298  0.75532  0.70795  Biso   1.000  H
  C127     1.0000 0.25896  0.71392  0.65240  Biso   1.000  C
  H105     1.0000 0.31436  0.76448  0.85589  Biso   1.000  H
  H106     1.0000 0.36086  0.81979  0.87525  Biso   1.000  H
  H107     1.0000 0.35685  0.73320  0.91646  Biso   1.000  H
  C128     1.0000 0.50699  0.76809  0.92147  Biso   1.000  C
  C129     1.0000 0.52091  0.64090  0.98805  Biso   1.000  C
  O33      1.0000 0.23291  0.65427  0.63567  Biso   1.000  O
  C130     1.0000 0.24318  0.79858  0.62941  Biso   1.000  C
  O34      1.0000 0.47962  0.81448  0.86548  Biso   1.000  O
  C131     1.0000 0.54513  0.80268  0.96745  Biso   1.000  C
  H108     1.0000 0.51245  0.58649  0.99576  Biso   1.000  H
  C132     1.0000 0.55949  0.67458  0.03252  Biso   1.000  C
  C133     1.0000 0.26859  0.86961  0.64118  Biso   1.000  C
  C134     1.0000 0.19563  0.80322  0.59471  Biso   1.000  C
  H109     1.0000 0.48657  0.80123  0.81675  Biso   1.000  H
  C135     1.0000 0.56323  0.88932  0.96394  Biso   1.000  C
  C136     1.0000 0.57131  0.75339  0.02294  Biso   1.000  C
  H110     1.0000 0.57780  0.64259  0.07004  Biso   1.000  H
  O35      1.0000 0.31702  0.86949  0.67469  Biso   1.000  O
  C137     1.0000 0.24801  0.94391  0.62308  Biso   1.000  C
  H111     1.0000 0.17716  0.75580  0.58638  Biso   1.000  H
  C138     1.0000 0.17571  0.87642  0.57266  Biso   1.000  C
  N18      1.0000 0.53597  0.93951  0.91909  Biso   1.000  N
  O36      1.0000 0.60175  0.91197  0.00052  Biso   1.000  O
  H112     1.0000 0.59770  0.77532  0.05426  Biso   1.000  H
  C139     1.0000 0.35484  0.86998  0.61206  Biso   1.000  C
  C140     1.0000 0.20042  0.94752  0.58701  Biso   1.000  C
  N19      1.0000 0.27841  0.01091  0.64469  Biso   1.000  N
  H113     1.0000 0.14426  0.87781  0.54711  Biso   1.000  H
  H114     1.0000 0.51236  0.91492  0.88897  Biso   1.000  H
  C141     1.0000 0.54304  0.02392  0.90725  Biso   1.000  C
  H115     1.0000 0.34927  0.82599  0.57316  Biso   1.000  H
  H116     1.0000 0.38696  0.86359  0.63868  Biso   1.000  H
  H117     1.0000 0.35389  0.92071  0.58200  Biso   1.000  H
  H118     1.0000 0.18590  0.99729  0.57310  Biso   1.000  H
  H119     1.0000 0.31027  0.00000  0.65998  Biso   1.000  H
  C142     1.0000 0.26886  0.08851  0.63361  Biso   1.000  C
  C143     1.0000 0.50796  0.06091  0.85715  Biso   1.000  C
  C144     1.0000 0.58137  0.07019  0.94145  Biso   1.000  C
  O37      1.0000 0.22983  0.11357  0.60066  Biso   1.000  O
  C145     1.0000 0.30994  0.14599  0.66167  Biso   1.000  C
  O38      1.0000 0.47004  0.01247  0.82445  Biso   1.000  O
  C146     1.0000 0.50828  0.14322  0.84324  Biso   1.000  C
  C147     1.0000 0.58180  0.15177  0.92479  Biso   1.000  C
  H120     1.0000 0.60618  0.04639  0.97496  Biso   1.000  H
  C148     1.0000 0.35147  0.12749  0.71108  Biso   1.000  C
  C149     1.0000 0.30511  0.22311  0.63248  Biso   1.000  C
  C150     1.0000 0.48085  0.97897  0.74359  Biso   1.000  C
  C151     1.0000 0.47027  0.19263  0.79226  Biso   1.000  C
  C152     1.0000 0.54639  0.18841  0.87788  Biso   1.000  C
  H121     1.0000 0.60776  0.18329  0.94678  Biso   1.000  H
  O39      1.0000 0.36052  0.05007  0.73965  Biso   1.000  O
  C153     1.0000 0.38693  0.18618  0.72919  Biso   1.000  C
  H122     1.0000 0.27759  0.23673  0.59897  Biso   1.000  H
  C154     1.0000 0.33957  0.28047  0.65108  Biso   1.000  C
  H123     1.0000 0.45417  0.94342  0.72656  Biso   1.000  H
  H124     1.0000 0.51156  0.94879  0.74660  Biso   1.000  H
  H125     1.0000 0.48416  0.02217  0.70307  Biso   1.000  H
  N20      1.0000 0.42786  0.15708  0.77647  Biso   1.000  N
  O40      1.0000 0.47868  0.26439  0.77196  Biso   1.000  O
  H126     1.0000 0.54766  0.24438  0.86880  Biso   1.000  H
  C155     1.0000 0.34173  0.03362  0.82239  Biso   1.000  C
  C156     1.0000 0.38039  0.26469  0.69956  Biso   1.000  C
  H127     1.0000 0.33517  0.33289  0.62979  Biso   1.000  H
  H128     1.0000 0.42536  0.10562  0.79595  Biso   1.000  H
  H129     1.0000 0.35557  0.98337  0.84280  Biso   1.000  H
  H130     1.0000 0.35107  0.07712  0.85990  Biso   1.000  H
  H131     1.0000 0.30587  0.02940  0.82001  Biso   1.000  H
  H132     1.0000 0.40339  0.30548  0.71259  Biso   1.000  H
  O41      1.0000 0.72549  0.70332  0.59246  Biso   1.000  O
  C157     1.0000 0.75387  0.75622  0.61851  Biso   1.000  C
  N21      1.0000 0.79375  0.74080  0.66499  Biso   1.000  N
  C158     1.0000 0.74363  0.84479  0.60160  Biso   1.000  C
  H133     1.0000 0.81417  0.78532  0.67996  Biso   1.000  H
  C159     1.0000 0.81136  0.66488  0.69355  Biso   1.000  C
  C160     1.0000 0.77482  0.90932  0.61707  Biso   1.000  C
  C161     1.0000 0.69653  0.86202  0.56847  Biso   1.000  C
  C162     1.0000 0.84907  0.66771  0.75380  Biso   1.000  C
  C163     1.0000 0.79442  0.59119  0.66486  Biso   1.000  C
  O42      1.0000 0.82318  0.89691  0.64920  Biso   1.000  O
  C164     1.0000 0.76004  0.98861  0.60467  Biso   1.000  C
  H134     1.0000 0.67427  0.81973  0.55707  Biso   1.000  H
  C165     1.0000 0.68270  0.93993  0.55268  Biso   1.000  C
  O43      1.0000 0.86534  0.74423  0.77842  Biso   1.000  O
  C166     1.0000 0.87010  0.59902  0.78499  Biso   1.000  C
  C167     1.0000 0.81552  0.52190  0.69687  Biso   1.000  C
  H135     1.0000 0.76907  0.58842  0.62440  Biso   1.000  H
  C168     1.0000 0.86014  0.89040  0.58550  Biso   1.000  C
  N22      1.0000 0.79515  0.04802  0.62878  Biso   1.000  N
  C169     1.0000 0.71368  0.00410  0.57060  Biso   1.000  C
  H136     1.0000 0.65137  0.94999  0.52901  Biso   1.000  H
  C170     1.0000 0.83727  0.77912  0.84650  Biso   1.000  C
  C171     1.0000 0.91042  0.59390  0.85245  Biso   1.000  C
  C172     1.0000 0.85282  0.52479  0.75530  Biso   1.000  C
  H137     1.0000 0.80398  0.47147  0.67826  Biso   1.000  H
  H138     1.0000 0.85188  0.84618  0.54830  Biso   1.000  H
  H139     1.0000 0.89219  0.88058  0.61137  Biso   1.000  H
  H140     1.0000 0.86137  0.94017  0.55381  Biso   1.000  H
  H141     1.0000 0.82288  0.02320  0.64895  Biso   1.000  H
  C173     1.0000 0.78875  0.12749  0.63166  Biso   1.000  C
  H142     1.0000 0.70350  0.05730  0.55976  Biso   1.000  H
  H143     1.0000 0.80399  0.79141  0.82708  Biso   1.000  H
  H144     1.0000 0.85337  0.82822  0.86529  Biso   1.000  H
  H145     1.0000 0.83568  0.74098  0.89247  Biso   1.000  H
  O44      1.0000 0.91866  0.53124  0.88997  Biso   1.000  O
  N23      1.0000 0.93634  0.66138  0.86347  Biso   1.000  N
  H146     1.0000 0.86688  0.47677  0.77547  Biso   1.000  H
  O45      1.0000 0.75089  0.16141  0.60467  Biso   1.000  O
  C174     1.0000 0.83194  0.17479  0.66655  Biso   1.000  C
  H147     1.0000 0.92817  0.70742  0.83297  Biso   1.000  H
  C175     1.0000 0.97563  0.67651  0.91978  Biso   1.000  C
  C176     1.0000 0.87205  0.14533  0.71340  Biso   1.000  C
  C177     1.0000 0.83070  0.25788  0.65139  Biso   1.000  C
  C178     1.0000 0.99511  0.75477  0.91746  Biso   1.000  C
  C179     1.0000 0.99567  0.62090  0.97615  Biso   1.000  C
  O46      1.0000 0.87714  0.06296  0.72937  Biso   1.000  O
  C180     1.0000 0.90988  0.19558  0.74246  Biso   1.000  C
  H148     1.0000 0.80427  0.28011  0.62045  Biso   1.000  H
  C181     1.0000 0.86753  0.30692  0.68077  Biso   1.000  C
  O47      1.0000 0.97322  0.80870  0.86210  Biso   1.000  O
  C182     1.0000 0.03342  0.77767  0.96989  Biso   1.000  C
  H149     1.0000 0.98298  0.56817  0.97910  Biso   1.000  H
  C183     1.0000 0.03428  0.64409  0.02764  Biso   1.000  C
  C184     1.0000 0.85384  0.03687  0.80566  Biso   1.000  C
  N24      1.0000 0.94787  0.15732  0.78806  Biso   1.000  N
  C185     1.0000 0.90679  0.27782  0.72718  Biso   1.000  C
  H150     1.0000 0.86598  0.36241  0.66906  Biso   1.000  H
  H151     1.0000 0.98099  0.79671  0.81337  Biso   1.000  H
  C186     1.0000 0.05732  0.86142  0.97427  Biso   1.000  C
  C187     1.0000 0.05301  0.72037  0.02501  Biso   1.000  C
  H152     1.0000 0.04799  0.60662  0.06534  Biso   1.000  H
  H153     1.0000 0.86306  0.98150  0.81725  Biso   1.000  H
  H154     1.0000 0.86469  0.07098  0.85157  Biso   1.000  H
  H155     1.0000 0.81816  0.04067  0.79946  Biso   1.000  H
  H156     1.0000 0.94006  0.10430  0.79996  Biso   1.000  H
  C188     1.0000 0.99267  0.18479  0.80817  Biso   1.000  C
  H157     1.0000 0.93119  0.31313  0.74816  Biso   1.000  H
  N25      1.0000 0.03495  0.91848  0.92880  Biso   1.000  N
  O48      1.0000 0.09412  0.87389  0.01824  Biso   1.000  O
  H158     1.0000 0.07941  0.73459  0.06083  Biso   1.000  H
  O49      1.0000 0.00686  0.25312  0.78769  Biso   1.000  O
  C189     1.0000 0.02343  0.12767  0.85909  Biso   1.000  C
  H159     1.0000 0.00755  0.90197  0.89698  Biso   1.000  H
  C190     1.0000 0.04741  0.00102  0.92247  Biso   1.000  C
  C191     1.0000 0.01716  0.04670  0.86899  Biso   1.000  C
  C192     1.0000 0.06319  0.16431  0.90256  Biso   1.000  C
  C193     1.0000 0.08587  0.03892  0.96469  Biso   1.000  C
  O50      1.0000 0.97841  0.00542  0.82884  Biso   1.000  O
  H160     1.0000 0.06917  0.21980  0.89604  Biso   1.000  H
  C194     1.0000 0.09280  0.12008  0.95354  Biso   1.000  C
  H161     1.0000 0.10691  0.00940  0.00052  Biso   1.000  H
  C195     1.0000 0.99080  0.97602  0.74666  Biso   1.000  C
  H162     1.0000 0.11885  0.14593  0.98229  Biso   1.000  H
  H163     1.0000 0.96448  0.94119  0.72630  Biso   1.000  H
  H164     1.0000 0.99479  0.02121  0.70877  Biso   1.000  H
  H165     1.0000 0.02147  0.94571  0.74960  Biso   1.000  H
  O51      1.0000 0.27448  0.29668  0.40750  Biso   1.000  O
  C196     1.0000 0.24610  0.24378  0.38150  Biso   1.000  C
  N26      1.0000 0.20622  0.25920  0.33497  Biso   1.000  N
  C197     1.0000 0.25634  0.15521  0.39842  Biso   1.000  C
  H166     1.0000 0.18580  0.21468  0.32000  Biso   1.000  H
  C198     1.0000 0.18861  0.33512  0.30641  Biso   1.000  C
  C199     1.0000 0.22515  0.09068  0.38288  Biso   1.000  C
  C200     1.0000 0.30344  0.13798  0.43149  Biso   1.000  C
  C201     1.0000 0.15090  0.33229  0.24621  Biso   1.000  C
  C202     1.0000 0.20555  0.40881  0.33509  Biso   1.000  C
  O52      1.0000 0.17679  0.10309  0.35081  Biso   1.000  O
  C203     1.0000 0.23993  0.01139  0.39528  Biso   1.000  C
  H167     1.0000 0.32570  0.18027  0.44289  Biso   1.000  H
  C204     1.0000 0.31727  0.06007  0.44727  Biso   1.000  C
  O53      1.0000 0.13463  0.25577  0.22154  Biso   1.000  O
  C205     1.0000 0.12987  0.40098  0.21502  Biso   1.000  C
  C206     1.0000 0.18445  0.47810  0.30309  Biso   1.000  C
  H168     1.0000 0.23090  0.41158  0.37562  Biso   1.000  H
  C207     1.0000 0.13982  0.10960  0.41451  Biso   1.000  C
  N27      1.0000 0.20482  0.95198  0.37117  Biso   1.000  N
  C208     1.0000 0.28629  0.99590  0.42936  Biso   1.000  C
  H169     1.0000 0.34857  0.05001  0.47101  Biso   1.000  H
  C209     1.0000 0.16270  0.22088  0.15352  Biso   1.000  C
  C210     1.0000 0.08954  0.40610  0.14750  Biso   1.000  C
  C211     1.0000 0.14715  0.47521  0.24471  Biso   1.000  C
  H170     1.0000 0.19599  0.52853  0.32169  Biso   1.000  H
  H171     1.0000 0.14809  0.15382  0.45172  Biso   1.000  H
  H172     1.0000 0.10778  0.11942  0.38858  Biso   1.000  H
  H173     1.0000 0.13860  0.05983  0.44621  Biso   1.000  H
  H174     1.0000 0.17709  0.97680  0.35100  Biso   1.000  H
  C212     1.0000 0.21121  0.87251  0.36829  Biso   1.000  C
  H175     1.0000 0.29647  0.94270  0.44019  Biso   1.000  H
  H176     1.0000 0.19598  0.20859  0.17287  Biso   1.000  H
  H177     1.0000 0.14660  0.17178  0.13473  Biso   1.000  H
  H178     1.0000 0.16429  0.25902  0.10748  Biso   1.000  H
  O54      1.0000 0.08131  0.46876  0.10999  Biso   1.000  O
  N28      1.0000 0.06362  0.33862  0.13648  Biso   1.000  N
  H179     1.0000 0.13309  0.52323  0.22448  Biso   1.000  H
  O55      1.0000 0.24907  0.83859  0.39528  Biso   1.000  O
  C213     1.0000 0.16803  0.82521  0.33340  Biso   1.000  C
  H180     1.0000 0.07180  0.29258  0.16698  Biso   1.000  H
  C214     1.0000 0.02433  0.32349  0.08017  Biso   1.000  C
  C215     1.0000 0.12792  0.85467  0.28661  Biso   1.000  C
  C216     1.0000 0.16923  0.74212  0.34856  Biso   1.000  C
  C217     1.0000 0.00486  0.24523  0.08249  Biso   1.000  C
  C218     1.0000 0.00426  0.37910  0.02380  Biso   1.000  C
  O56      1.0000 0.12283  0.93704  0.27058  Biso   1.000  O
  C219     1.0000 0.09009  0.80442  0.25749  Biso   1.000  C
  H181     1.0000 0.19570  0.71989  0.37950  Biso   1.000  H
  C220     1.0000 0.13244  0.69308  0.31918  Biso   1.000  C
  O57      1.0000 0.02675  0.19130  0.13786  Biso   1.000  O
  C221     1.0000 0.96651  0.22233  0.03013  Biso   1.000  C
  H182     1.0000 0.01699  0.43183  0.02092  Biso   1.000  H
  C222     1.0000 0.96569  0.35591  0.97232  Biso   1.000  C
  C223     1.0000 0.14613  0.96313  0.19429  Biso   1.000  C
  N29      1.0000 0.05210  0.84268  0.21189  Biso   1.000  N
  C224     1.0000 0.09318  0.72218  0.27277  Biso   1.000  C
  H183     1.0000 0.13399  0.63759  0.33090  Biso   1.000  H
  H184     1.0000 0.01898  0.20329  0.18659  Biso   1.000  H
  C225     1.0000 0.94696  0.27963  0.97495  Biso   1.000  C
  C226     1.0000 0.94265  0.13858  0.02568  Biso   1.000  C
  H185     1.0000 0.95198  0.39338  0.93461  Biso   1.000  H
  H186     1.0000 0.13691  0.01850  0.18270  Biso   1.000  H
  H187     1.0000 0.13528  0.92902  0.14838  Biso   1.000  H
  H188     1.0000 0.18178  0.95933  0.20049  Biso   1.000  H
  H189     1.0000 0.05991  0.89570  0.19999  Biso   1.000  H
  C227     1.0000 0.00730  0.81521  0.19179  Biso   1.000  C
  H190     1.0000 0.06878  0.68687  0.25179  Biso   1.000  H
  H191     1.0000 0.92055  0.26541  0.93912  Biso   1.000  H
  O58      1.0000 0.90585  0.12611  0.98171  Biso   1.000  O
  N30      1.0000 0.96502  0.08152  0.07121  Biso   1.000  N
  O59      1.0000 0.99311  0.74688  0.21227  Biso   1.000  O
  C228     1.0000 0.97654  0.87233  0.14093  Biso   1.000  C
  C229     1.0000 0.95256  0.99898  0.07748  Biso   1.000  C
  H192     1.0000 0.99238  0.09803  0.10297  Biso   1.000  H
  C230     1.0000 0.98281  0.95330  0.13097  Biso   1.000  C
  C231     1.0000 0.93678  0.83569  0.09740  Biso   1.000  C
  C232     1.0000 0.91410  0.96108  0.03533  Biso   1.000  C
  O60      1.0000 0.02156  0.99458  0.17112  Biso   1.000  O
  C233     1.0000 0.90717  0.87992  0.04641  Biso   1.000  C
  H193     1.0000 0.93080  0.78020  0.10391  Biso   1.000  H
  H194     1.0000 0.89305  0.99060  0.99944  Biso   1.000  H
  C234     1.0000 0.00917  0.02398  0.25329  Biso   1.000  C
  H195     1.0000 0.88108  0.85407  0.01773  Biso   1.000  H
  H196     1.0000 0.03549  0.05881  0.27371  Biso   1.000  H
  H197     1.0000 0.97850  0.05429  0.25041  Biso   1.000  H
  H198     1.0000 0.00518  0.97879  0.29119  Biso   1.000  H
  C235     1.0000 0.68271  0.56010  0.05268  Biso   1.000  C
  C236     1.0000 0.69654  0.63801  0.06852  Biso   1.000  C
  H199     1.0000 0.65142  0.54998  0.02900  Biso   1.000  H
  C237     1.0000 0.71369  0.49587  0.07059  Biso   1.000  C
  C238     1.0000 0.74364  0.65518  0.10159  Biso   1.000  C
  H200     1.0000 0.67429  0.68030  0.05712  Biso   1.000  H
  H201     1.0000 0.70351  0.44267  0.05982  Biso   1.000  H
  C239     1.0000 0.76006  0.51142  0.10472  Biso   1.000  C
  C240     1.0000 0.75388  0.74381  0.11850  Biso   1.000  C
  C241     1.0000 0.77484  0.59071  0.11713  Biso   1.000  C
  N31      1.0000 0.79517  0.45201  0.12878  Biso   1.000  N
  O61      1.0000 0.72550  0.79671  0.09251  Biso   1.000  O
  N32      1.0000 0.79377  0.75917  0.16498  Biso   1.000  N
  O62      1.0000 0.82319  0.60312  0.14919  Biso   1.000  O
  H202     1.0000 0.82290  0.47677  0.14901  Biso   1.000  H
  C242     1.0000 0.78877  0.37248  0.13172  Biso   1.000  C
  H203     1.0000 0.81418  0.71471  0.18001  Biso   1.000  H
  C243     1.0000 0.81138  0.83509  0.19360  Biso   1.000  C
  C244     1.0000 0.86016  0.60963  0.08550  Biso   1.000  C
  O63      1.0000 0.75091  0.33862  0.10472  Biso   1.000  O
  C245     1.0000 0.83195  0.32518  0.16661  Biso   1.000  C
  C246     1.0000 0.84909  0.83232  0.25379  Biso   1.000  C
  C247     1.0000 0.79443  0.90878  0.16492  Biso   1.000  C
  H204     1.0000 0.85189  0.65379  0.04829  Biso   1.000  H
  H205     1.0000 0.89220  0.61939  0.11143  Biso   1.000  H
  H206     1.0000 0.86139  0.55980  0.05380  Biso   1.000  H
  C248     1.0000 0.87206  0.35470  0.21339  Biso   1.000  C
  C249     1.0000 0.83075  0.24209  0.15139  Biso   1.000  C
  O64      1.0000 0.86535  0.75580  0.27847  Biso   1.000  O
  C250     1.0000 0.87011  0.90101  0.28499  Biso   1.000  C
  C251     1.0000 0.81554  0.97813  0.19692  Biso   1.000  C
  H207     1.0000 0.76908  0.91161  0.12439  Biso   1.000  H
  O65      1.0000 0.87715  0.43707  0.22943  Biso   1.000  O
  C252     1.0000 0.90989  0.30439  0.24252  Biso   1.000  C
  H208     1.0000 0.80429  0.21992  0.12051  Biso   1.000  H
  C253     1.0000 0.86755  0.19311  0.18082  Biso   1.000  C
  C254     1.0000 0.83729  0.72091  0.34649  Biso   1.000  C
  C255     1.0000 0.91044  0.90613  0.35250  Biso   1.000  C
  C256     1.0000 0.85283  0.97518  0.25530  Biso   1.000  C
  H209     1.0000 0.80400  0.02850  0.17832  Biso   1.000  H
  C257     1.0000 0.85385  0.46310  0.30572  Biso   1.000  C
  N33      1.0000 0.94789  0.34271  0.28812  Biso   1.000  N
  C258     1.0000 0.90680  0.22221  0.22717  Biso   1.000  C
  H210     1.0000 0.86599  0.13762  0.16911  Biso   1.000  H
  H211     1.0000 0.80401  0.70862  0.32708  Biso   1.000  H
  H212     1.0000 0.85338  0.67181  0.36528  Biso   1.000  H
  H213     1.0000 0.83570  0.75899  0.39247  Biso   1.000  H
  O66      1.0000 0.91867  0.96873  0.38996  Biso   1.000  O
  N34      1.0000 0.93636  0.83859  0.36347  Biso   1.000  N
  H214     1.0000 0.86690  0.02320  0.27546  Biso   1.000  H
  H215     1.0000 0.86470  0.42899  0.35157  Biso   1.000  H
  H216     1.0000 0.86311  0.51853  0.31730  Biso   1.000  H
  H217     1.0000 0.81821  0.45930  0.29952  Biso   1.000  H
  H218     1.0000 0.94011  0.39567  0.30002  Biso   1.000  H
  C259     1.0000 0.99269  0.31518  0.30816  Biso   1.000  C
  H219     1.0000 0.93120  0.18690  0.24822  Biso   1.000  H
  H220     1.0000 0.92819  0.79261  0.33296  Biso   1.000  H
  C260     1.0000 0.97565  0.82352  0.41977  Biso   1.000  C
  O67      1.0000 0.00687  0.24691  0.28774  Biso   1.000  O
  C261     1.0000 0.02344  0.37230  0.35908  Biso   1.000  C
  C262     1.0000 0.99512  0.74519  0.41746  Biso   1.000  C
  C263     1.0000 0.99572  0.87907  0.47621  Biso   1.000  C
  C264     1.0000 0.01718  0.45327  0.36898  Biso   1.000  C
  C265     1.0000 0.06321  0.33572  0.40261  Biso   1.000  C
  O68      1.0000 0.97324  0.69133  0.36209  Biso   1.000  O
  C266     1.0000 0.03347  0.72230  0.46988  Biso   1.000  C
  H221     1.0000 0.98299  0.93179  0.47909  Biso   1.000  H
  C267     1.0000 0.03425  0.85588  0.52757  Biso   1.000  C
  O69      1.0000 0.97842  0.49461  0.32889  Biso   1.000  O
  C268     1.0000 0.04742  0.49901  0.42247  Biso   1.000  C
  H222     1.0000 0.06918  0.28017  0.39610  Biso   1.000  H
  C269     1.0000 0.09281  0.37989  0.45360  Biso   1.000  C
  H223     1.0000 0.98100  0.70332  0.31342  Biso   1.000  H
  C270     1.0000 0.05298  0.77960  0.52500  Biso   1.000  C
  C271     1.0000 0.05733  0.63861  0.47427  Biso   1.000  C
  H224     1.0000 0.04797  0.89341  0.56527  Biso   1.000  H
  C272     1.0000 0.99082  0.52401  0.24672  Biso   1.000  C
  N35      1.0000 0.03497  0.58149  0.42879  Biso   1.000  N
  C273     1.0000 0.08589  0.46111  0.46468  Biso   1.000  C
  H225     1.0000 0.11890  0.35410  0.48228  Biso   1.000  H
  H226     1.0000 0.07939  0.76538  0.56076  Biso   1.000  H
  O70      1.0000 0.09410  0.62608  0.51817  Biso   1.000  O
  H227     1.0000 0.99480  0.47882  0.20882  Biso   1.000  H
  H228     1.0000 0.96449  0.55878  0.22630  Biso   1.000  H
  H229     1.0000 0.02149  0.55432  0.24960  Biso   1.000  H
  H230     1.0000 0.00761  0.59800  0.39697  Biso   1.000  H
  H231     1.0000 0.10689  0.49057  0.50051  Biso   1.000  H
  C274     1.0000 0.31725  0.43990  0.94728  Biso   1.000  C
  C275     1.0000 0.30343  0.36199  0.93149  Biso   1.000  C
  C276     1.0000 0.28628  0.50413  0.92936  Biso   1.000  C
  H232     1.0000 0.34855  0.45002  0.97095  Biso   1.000  H
  C277     1.0000 0.25633  0.34482  0.89836  Biso   1.000  C
  H233     1.0000 0.32565  0.31970  0.94289  Biso   1.000  H
  C278     1.0000 0.23991  0.48858  0.89529  Biso   1.000  C
  H234     1.0000 0.29646  0.55733  0.94020  Biso   1.000  H
  C279     1.0000 0.24609  0.25619  0.88145  Biso   1.000  C
  C280     1.0000 0.22513  0.40929  0.88289  Biso   1.000  C
  N36      1.0000 0.20480  0.54799  0.87118  Biso   1.000  N
  N37      1.0000 0.20620  0.24083  0.83497  Biso   1.000  N
  O71      1.0000 0.27443  0.20329  0.90744  Biso   1.000  O
  O72      1.0000 0.17678  0.39688  0.85076  Biso   1.000  O
  H235     1.0000 0.17707  0.52323  0.85095  Biso   1.000  H
  C281     1.0000 0.21120  0.62752  0.86830  Biso   1.000  C
  C282     1.0000 0.18859  0.16491  0.80635  Biso   1.000  C
  H236     1.0000 0.18578  0.28529  0.82001  Biso   1.000  H
  C283     1.0000 0.13981  0.39037  0.91446  Biso   1.000  C
  O73      1.0000 0.24906  0.66138  0.89529  Biso   1.000  O
  C284     1.0000 0.16798  0.67482  0.83335  Biso   1.000  C
  C285     1.0000 0.15084  0.16768  0.74616  Biso   1.000  C
  C286     1.0000 0.20553  0.09122  0.83510  Biso   1.000  C
  H237     1.0000 0.14808  0.34621  0.95166  Biso   1.000  H
  H238     1.0000 0.10777  0.38061  0.88859  Biso   1.000  H
  H239     1.0000 0.13854  0.44020  0.94615  Biso   1.000  H
  C287     1.0000 0.12791  0.64530  0.78656  Biso   1.000  C
  C288     1.0000 0.16922  0.75791  0.84857  Biso   1.000  C
  O74      1.0000 0.13462  0.24420  0.72148  Biso   1.000  O
  C289     1.0000 0.12986  0.09899  0.71497  Biso   1.000  C
  C290     1.0000 0.18443  0.02187  0.80309  Biso   1.000  C
  H240     1.0000 0.23085  0.08839  0.87556  Biso   1.000  H
  O75      1.0000 0.12282  0.56293  0.77052  Biso   1.000  O
  C291     1.0000 0.09008  0.69561  0.75750  Biso   1.000  C
  H241     1.0000 0.19568  0.78008  0.87945  Biso   1.000  H
  C292     1.0000 0.13242  0.80689  0.81919  Biso   1.000  C
  C293     1.0000 0.16268  0.27909  0.65346  Biso   1.000  C
  C294     1.0000 0.08953  0.09387  0.64745  Biso   1.000  C
  C295     1.0000 0.14714  0.02482  0.74466  Biso   1.000  C
  H242     1.0000 0.19597  0.97150  0.82170  Biso   1.000  H
  C296     1.0000 0.14612  0.53690  0.69430  Biso   1.000  C
  N38      1.0000 0.05208  0.65729  0.71190  Biso   1.000  N
  C297     1.0000 0.09316  0.77779  0.77278  Biso   1.000  C
  H243     1.0000 0.13398  0.86238  0.83090  Biso   1.000  H
  H244     1.0000 0.19596  0.29138  0.67288  Biso   1.000  H
  H245     1.0000 0.14659  0.32819  0.63467  Biso   1.000  H
  H246     1.0000 0.16427  0.24101  0.60749  Biso   1.000  H
  O76      1.0000 0.08130  0.03127  0.60999  Biso   1.000  O
  N39      1.0000 0.06361  0.16141  0.63649  Biso   1.000  N
  H247     1.0000 0.13307  0.97680  0.72449  Biso   1.000  H
  H248     1.0000 0.13526  0.57101  0.64839  Biso   1.000  H
  H249     1.0000 0.13686  0.48147  0.68265  Biso   1.000  H
  H250     1.0000 0.18176  0.54070  0.70050  Biso   1.000  H
  C298     1.0000 0.00728  0.68482  0.69179  Biso   1.000  C
  H251     1.0000 0.05986  0.60433  0.70000  Biso   1.000  H
  H252     1.0000 0.06877  0.81310  0.75180  Biso   1.000  H
  H253     1.0000 0.07178  0.20739  0.66699  Biso   1.000  H
  C299     1.0000 0.02432  0.17648  0.58018  Biso   1.000  C
  C300     1.0000 0.97653  0.62770  0.64087  Biso   1.000  C
  O77      1.0000 0.99309  0.75309  0.71221  Biso   1.000  O
  C301     1.0000 0.00485  0.25481  0.58250  Biso   1.000  C
  C302     1.0000 0.00425  0.12093  0.52381  Biso   1.000  C
  C303     1.0000 0.98279  0.54673  0.63098  Biso   1.000  C
  C304     1.0000 0.93676  0.66428  0.59740  Biso   1.000  C
  O78      1.0000 0.02673  0.30867  0.63787  Biso   1.000  O
  C305     1.0000 0.96650  0.27770  0.53007  Biso   1.000  C
  H254     1.0000 0.01698  0.06821  0.52086  Biso   1.000  H
  C306     1.0000 0.96571  0.14412  0.47239  Biso   1.000  C
  C307     1.0000 0.95251  0.50099  0.57749  Biso   1.000  C
  O79      1.0000 0.02155  0.50539  0.67106  Biso   1.000  O
  C308     1.0000 0.90715  0.62011  0.54636  Biso   1.000  C
  H255     1.0000 0.93078  0.71983  0.60386  Biso   1.000  H
  H256     1.0000 0.01897  0.29668  0.68659  Biso   1.000  H
  C309     1.0000 0.94699  0.22040  0.47495  Biso   1.000  C
  C310     1.0000 0.94264  0.36139  0.52569  Biso   1.000  C
  H257     1.0000 0.95200  0.10659  0.43468  Biso   1.000  H
  N40      1.0000 0.96500  0.41851  0.57116  Biso   1.000  N
  C311     1.0000 0.91408  0.53889  0.53527  Biso   1.000  C
  C312     1.0000 0.00915  0.47599  0.75330  Biso   1.000  C
  H258     1.0000 0.88107  0.64590  0.51767  Biso   1.000  H
  H259     1.0000 0.92058  0.23462  0.43919  Biso   1.000  H
  O80      1.0000 0.90587  0.37392  0.48178  Biso   1.000  O
  H260     1.0000 0.99236  0.40200  0.60298  Biso   1.000  H
  H261     1.0000 0.89308  0.50943  0.49951  Biso   1.000  H
  H262     1.0000 0.00517  0.52118  0.79119  Biso   1.000  H
  H263     1.0000 0.03547  0.44122  0.77366  Biso   1.000  H
  H264     1.0000 0.97848  0.44568  0.75036  Biso   1.000  H
