data_image0
_cell_length_a       31.58
_cell_length_b       18.296
_cell_length_c       20.075
_cell_angle_alpha    90
_cell_angle_beta     90
_cell_angle_gamma    90

_symmetry_space_group_name_H-M    "P 1"
_symmetry_int_tables_number       1

loop_
  _symmetry_equiv_pos_as_xyz
  'x, y, z'

loop_
  _atom_site_label
  _atom_site_occupancy
  _atom_site_fract_x
  _atom_site_fract_y
  _atom_site_fract_z
  _atom_site_thermal_displace_type
  _atom_site_B_iso_or_equiv
  _atom_site_type_symbol
  C1       1.0000 0.28933  0.52164  0.41923  Biso   1.000  C
  C2       1.0000 0.26552  0.51481  0.37260  Biso   1.000  C
  C3       1.0000 0.31438  0.52563  0.47502  Biso   1.000  C
  C4       1.0000 0.23619  0.50394  0.31900  Biso   1.000  C
  C5       1.0000 0.33512  0.52569  0.52448  Biso   1.000  C
  C6       1.0000 0.19918  0.46360  0.32842  Biso   1.000  C
  C7       1.0000 0.24443  0.53372  0.25808  Biso   1.000  C
  C8       1.0000 0.35839  0.52285  0.58680  Biso   1.000  C
  C9       1.0000 0.17175  0.45392  0.27751  Biso   1.000  C
  H1       1.0000 0.19319  0.44288  0.37081  Biso   1.000  H
  C10      1.0000 0.21700  0.52356  0.20628  Biso   1.000  C
  H2       1.0000 0.26941  0.56171  0.25171  Biso   1.000  H
  C11      1.0000 0.33759  0.50290  0.64453  Biso   1.000  C
  C12      1.0000 0.40047  0.53984  0.58685  Biso   1.000  C
  C13      1.0000 0.18037  0.48388  0.21559  Biso   1.000  C
  H3       1.0000 0.14661  0.42649  0.28408  Biso   1.000  H
  C14      1.0000 0.22809  0.55591  0.14391  Biso   1.000  C
  C15      1.0000 0.35966  0.50011  0.70426  Biso   1.000  C
  H4       1.0000 0.30830  0.49120  0.64339  Biso   1.000  H
  C16      1.0000 0.42248  0.53755  0.64737  Biso   1.000  C
  H5       1.0000 0.41450  0.55291  0.54670  Biso   1.000  H
  H6       1.0000 0.16111  0.47721  0.17978  Biso   1.000  H
  C17      1.0000 0.24155  0.58822  0.09639  Biso   1.000  C
  C18      1.0000 0.40206  0.51738  0.70535  Biso   1.000  C
  H7       1.0000 0.34560  0.48628  0.74411  Biso   1.000  H
  C19      1.0000 0.46605  0.55761  0.64777  Biso   1.000  C
  C20      1.0000 0.26235  0.62598  0.04394  Biso   1.000  C
  H8       1.0000 0.41729  0.51558  0.74610  Biso   1.000  H
  C21      1.0000 0.50212  0.57750  0.64648  Biso   1.000  C
  C22      1.0000 0.30190  0.65561  0.05574  Biso   1.000  C
  C23      1.0000 0.24557  0.63194  0.98092  Biso   1.000  C
  C24      1.0000 0.54392  0.60789  0.64105  Biso   1.000  C
  H9       1.0000 0.31358  0.65391  0.09928  Biso   1.000  H
  C25      1.0000 0.32448  0.68758  0.00513  Biso   1.000  C
  C26      1.0000 0.26856  0.66359  0.92976  Biso   1.000  C
  H10      1.0000 0.21780  0.61412  0.97240  Biso   1.000  H
  C27      1.0000 0.57369  0.58209  0.59711  Biso   1.000  C
  C28      1.0000 0.55507  0.66741  0.68010  Biso   1.000  C
  H11      1.0000 0.35139  0.70852  0.01450  Biso   1.000  H
  C29      1.0000 0.30874  0.68999  0.94017  Biso   1.000  C
  H12      1.0000 0.25630  0.66709  0.88672  Biso   1.000  H
  C30      1.0000 0.61197  0.61697  0.58829  Biso   1.000  C
  H13      1.0000 0.56780  0.53919  0.57220  Biso   1.000  H
  H14      1.0000 0.53581  0.68490  0.71268  Biso   1.000  H
  C31      1.0000 0.59335  0.70108  0.67228  Biso   1.000  C
  C32      1.0000 0.33664  0.72398  0.88548  Biso   1.000  C
  C33      1.0000 0.62179  0.67938  0.62416  Biso   1.000  C
  H15      1.0000 0.63179  0.59800  0.55731  Biso   1.000  H
  H16      1.0000 0.60051  0.74060  0.70082  Biso   1.000  H
  C34      1.0000 0.31457  0.72382  0.81719  Biso   1.000  C
  C35      1.0000 0.34626  0.80160  0.91138  Biso   1.000  C
  C36      1.0000 0.37821  0.67938  0.87582  Biso   1.000  C
  C37      1.0000 0.66336  0.72398  0.61450  Biso   1.000  C
  C38      1.0000 0.30769  0.78542  0.78102  Biso   1.000  C
  C39      1.0000 0.30415  0.65982  0.78670  Biso   1.000  C
  C40      1.0000 0.31225  0.84691  0.92742  Biso   1.000  C
  C41      1.0000 0.38559  0.82679  0.92618  Biso   1.000  C
  C42      1.0000 0.38803  0.61697  0.91168  Biso   1.000  C
  C43      1.0000 0.40665  0.70108  0.82775  Biso   1.000  C
  C44      1.0000 0.68543  0.72382  0.68284  Biso   1.000  C
  C45      1.0000 0.65374  0.80160  0.58864  Biso   1.000  C
  C46      1.0000 0.69126  0.68999  0.55980  Biso   1.000  C
  C47      1.0000 0.29050  0.78268  0.71811  Biso   1.000  C
  H17      1.0000 0.31501  0.83149  0.79960  Biso   1.000  H
  H18      1.0000 0.31061  0.61549  0.80912  Biso   1.000  H
  C48      1.0000 0.28474  0.65539  0.72508  Biso   1.000  C
  H19      1.0000 0.28429  0.83067  0.91831  Biso   1.000  H
  C49      1.0000 0.31811  0.91413  0.95601  Biso   1.000  C
  C50      1.0000 0.39161  0.89571  0.95482  Biso   1.000  C
  H20      1.0000 0.40950  0.79700  0.91701  Biso   1.000  H
  H21      1.0000 0.36821  0.59800  0.94271  Biso   1.000  H
  C51      1.0000 0.42631  0.58209  0.90291  Biso   1.000  C
  C52      1.0000 0.44493  0.66741  0.81993  Biso   1.000  C
  H22      1.0000 0.39949  0.74060  0.79920  Biso   1.000  H
  C53      1.0000 0.69231  0.78542  0.71900  Biso   1.000  C
  C54      1.0000 0.69585  0.65982  0.71328  Biso   1.000  C
  C55      1.0000 0.68775  0.84691  0.57255  Biso   1.000  C
  C56      1.0000 0.61441  0.82679  0.57380  Biso   1.000  C
  C57      1.0000 0.73144  0.66359  0.57021  Biso   1.000  C
  C58      1.0000 0.67552  0.68758  0.49489  Biso   1.000  C
  C59      1.0000 0.27701  0.71710  0.69161  Biso   1.000  C
  H23      1.0000 0.28790  0.82630  0.69280  Biso   1.000  H
  H24      1.0000 0.27711  0.60931  0.70690  Biso   1.000  H
  H25      1.0000 0.29421  0.94348  0.96618  Biso   1.000  H
  C60      1.0000 0.35779  0.93966  0.97006  Biso   1.000  C
  H26      1.0000 0.41951  0.91228  0.96379  Biso   1.000  H
  H27      1.0000 0.43220  0.53919  0.92782  Biso   1.000  H
  C61      1.0000 0.45608  0.60789  0.85893  Biso   1.000  C
  H28      1.0000 0.46419  0.68490  0.78730  Biso   1.000  H
  C62      1.0000 0.70950  0.78268  0.78192  Biso   1.000  C
  H29      1.0000 0.68499  0.83149  0.70042  Biso   1.000  H
  H30      1.0000 0.68939  0.61549  0.69091  Biso   1.000  H
  C63      1.0000 0.71526  0.65539  0.77494  Biso   1.000  C
  H31      1.0000 0.71571  0.83067  0.58172  Biso   1.000  H
  C64      1.0000 0.68189  0.91413  0.54401  Biso   1.000  C
  C65      1.0000 0.60839  0.89571  0.54521  Biso   1.000  C
  H32      1.0000 0.59050  0.79700  0.58301  Biso   1.000  H
  H33      1.0000 0.74370  0.66709  0.61330  Biso   1.000  H
  C66      1.0000 0.75443  0.63194  0.51905  Biso   1.000  C
  C67      1.0000 0.69810  0.65561  0.44428  Biso   1.000  C
  H34      1.0000 0.64861  0.70852  0.48548  Biso   1.000  H
  O1       1.0000 0.25928  0.72136  0.62964  Biso   1.000  O
  C68      1.0000 0.36409  0.00951  0.00139  Biso   1.000  C
  C69      1.0000 0.49788  0.57750  0.85350  Biso   1.000  C
  C70      1.0000 0.72299  0.71710  0.80842  Biso   1.000  C
  H35      1.0000 0.71210  0.82630  0.80722  Biso   1.000  H
  H36      1.0000 0.72289  0.60931  0.79308  Biso   1.000  H
  H37      1.0000 0.70579  0.94348  0.53380  Biso   1.000  H
  C71      1.0000 0.64221  0.93966  0.52991  Biso   1.000  C
  H38      1.0000 0.58049  0.91228  0.53619  Biso   1.000  H
  H39      1.0000 0.78220  0.61412  0.52762  Biso   1.000  H
  C72      1.0000 0.73765  0.62598  0.45604  Biso   1.000  C
  H40      1.0000 0.68642  0.65391  0.40070  Biso   1.000  H
  C73      1.0000 0.24516  0.65659  0.59930  Biso   1.000  C
  C74      1.0000 0.36919  0.06761  0.02800  Biso   1.000  C
  C75      1.0000 0.53395  0.55761  0.85225  Biso   1.000  C
  O2       1.0000 0.74072  0.72136  0.87039  Biso   1.000  O
  C76      1.0000 0.63591  0.00951  0.49858  Biso   1.000  C
  C77      1.0000 0.75845  0.58822  0.40364  Biso   1.000  C
  H41      1.0000 0.22571  0.63112  0.62939  Biso   1.000  H
  H42      1.0000 0.23049  0.66840  0.55771  Biso   1.000  H
  H43      1.0000 0.26951  0.62500  0.58969  Biso   1.000  H
  C78      1.0000 0.37863  0.13396  0.06262  Biso   1.000  C
  C79      1.0000 0.57752  0.53755  0.85265  Biso   1.000  C
  C80      1.0000 0.75484  0.65659  0.90072  Biso   1.000  C
  C81      1.0000 0.63081  0.06761  0.47198  Biso   1.000  C
  C82      1.0000 0.77191  0.55591  0.35606  Biso   1.000  C
  C83      1.0000 0.35731  0.19819  0.05051  Biso   1.000  C
  N1       1.0000 0.40982  0.13090  0.10859  Biso   1.000  N
  C84      1.0000 0.59794  0.51738  0.79462  Biso   1.000  C
  C85      1.0000 0.59953  0.53984  0.91313  Biso   1.000  C
  H44      1.0000 0.77429  0.63112  0.87059  Biso   1.000  H
  H45      1.0000 0.76951  0.66840  0.94232  Biso   1.000  H
  H46      1.0000 0.73049  0.62500  0.91029  Biso   1.000  H
  C86      1.0000 0.62137  0.13396  0.43741  Biso   1.000  C
  C87      1.0000 0.78300  0.52356  0.29370  Biso   1.000  C
  H47      1.0000 0.33559  0.19950  0.01778  Biso   1.000  H
  C88      1.0000 0.36729  0.26120  0.08558  Biso   1.000  C
  C89      1.0000 0.42017  0.19398  0.14361  Biso   1.000  C
  H48      1.0000 0.42441  0.08641  0.11691  Biso   1.000  H
  H49      1.0000 0.58271  0.51558  0.75392  Biso   1.000  H
  C90      1.0000 0.64034  0.50011  0.79577  Biso   1.000  C
  C91      1.0000 0.64161  0.52285  0.91318  Biso   1.000  C
  H50      1.0000 0.58550  0.55291  0.95328  Biso   1.000  H
  C92      1.0000 0.64269  0.19819  0.44951  Biso   1.000  C
  N2       1.0000 0.59018  0.13090  0.39138  Biso   1.000  N
  C93      1.0000 0.81963  0.48388  0.28438  Biso   1.000  C
  C94      1.0000 0.75557  0.53372  0.24189  Biso   1.000  C
  H51      1.0000 0.35269  0.30570  0.07711  Biso   1.000  H
  C95      1.0000 0.39826  0.25809  0.13250  Biso   1.000  C
  C96      1.0000 0.45408  0.18999  0.18939  Biso   1.000  C
  H52      1.0000 0.65440  0.48628  0.75592  Biso   1.000  H
  C97      1.0000 0.66241  0.50290  0.85544  Biso   1.000  C
  C98      1.0000 0.66488  0.52569  0.97549  Biso   1.000  C
  H53      1.0000 0.66441  0.19950  0.48219  Biso   1.000  H
  C99      1.0000 0.63271  0.26120  0.41440  Biso   1.000  C
  C100     1.0000 0.57983  0.19398  0.35641  Biso   1.000  C
  H54      1.0000 0.57559  0.08641  0.38311  Biso   1.000  H
  H55      1.0000 0.83889  0.47721  0.32020  Biso   1.000  H
  C101     1.0000 0.82825  0.45392  0.22252  Biso   1.000  C
  C102     1.0000 0.76381  0.50394  0.18097  Biso   1.000  C
  H56      1.0000 0.73059  0.56171  0.24832  Biso   1.000  H
  H57      1.0000 0.40491  0.30039  0.15781  Biso   1.000  H
  C103     1.0000 0.48369  0.18709  0.22760  Biso   1.000  C
  H58      1.0000 0.69170  0.49120  0.85659  Biso   1.000  H
  C104     1.0000 0.68562  0.52563  0.02501  Biso   1.000  C
  C105     1.0000 0.60174  0.25809  0.36752  Biso   1.000  C
  H59      1.0000 0.64731  0.30570  0.42291  Biso   1.000  H
  C106     1.0000 0.54592  0.18999  0.31059  Biso   1.000  C
  C107     1.0000 0.80082  0.46360  0.17161  Biso   1.000  C
  H60      1.0000 0.85339  0.42649  0.21589  Biso   1.000  H
  C108     1.0000 0.73448  0.51481  0.12742  Biso   1.000  C
  C109     1.0000 0.51631  0.18709  0.27238  Biso   1.000  C
  C110     1.0000 0.71067  0.52164  0.08075  Biso   1.000  C
  H61      1.0000 0.59509  0.30039  0.34222  Biso   1.000  H
  H62      1.0000 0.80681  0.44288  0.12922  Biso   1.000  H
  C111     1.0000 0.24557  0.36806  0.48095  Biso   1.000  C
  C112     1.0000 0.26856  0.33641  0.42979  Biso   1.000  C
  H63      1.0000 0.21780  0.38588  0.47238  Biso   1.000  H
  C113     1.0000 0.26235  0.37402  0.54396  Biso   1.000  C
  C114     1.0000 0.30874  0.31001  0.44020  Biso   1.000  C
  H64      1.0000 0.25630  0.33291  0.38670  Biso   1.000  H
  C115     1.0000 0.30190  0.34439  0.55572  Biso   1.000  C
  C116     1.0000 0.24155  0.41178  0.59636  Biso   1.000  C
  C117     1.0000 0.33664  0.27602  0.38550  Biso   1.000  C
  C118     1.0000 0.32448  0.31242  0.50511  Biso   1.000  C
  H65      1.0000 0.31358  0.34609  0.59930  Biso   1.000  H
  C119     1.0000 0.22809  0.44409  0.64394  Biso   1.000  C
  C120     1.0000 0.31457  0.27618  0.31716  Biso   1.000  C
  C121     1.0000 0.34626  0.19840  0.41136  Biso   1.000  C
  C122     1.0000 0.37821  0.32062  0.37584  Biso   1.000  C
  H66      1.0000 0.35139  0.29148  0.51452  Biso   1.000  H
  C123     1.0000 0.21700  0.47644  0.70630  Biso   1.000  C
  C124     1.0000 0.30769  0.21458  0.28100  Biso   1.000  C
  C125     1.0000 0.30415  0.34018  0.28672  Biso   1.000  C
  C126     1.0000 0.31225  0.15309  0.42745  Biso   1.000  C
  C127     1.0000 0.38559  0.17321  0.42620  Biso   1.000  C
  C128     1.0000 0.38803  0.38303  0.41171  Biso   1.000  C
  C129     1.0000 0.40665  0.29892  0.32772  Biso   1.000  C
  C130     1.0000 0.18037  0.51612  0.71562  Biso   1.000  C
  C131     1.0000 0.24443  0.46628  0.75811  Biso   1.000  C
  C132     1.0000 0.29050  0.21732  0.21808  Biso   1.000  C
  H67      1.0000 0.31501  0.16851  0.29958  Biso   1.000  H
  C133     1.0000 0.28474  0.34461  0.22506  Biso   1.000  C
  H68      1.0000 0.31061  0.38451  0.30909  Biso   1.000  H
  H69      1.0000 0.28429  0.16933  0.41828  Biso   1.000  H
  C134     1.0000 0.31811  0.08587  0.45599  Biso   1.000  C
  C135     1.0000 0.39161  0.10429  0.45479  Biso   1.000  C
  H70      1.0000 0.40950  0.20300  0.41699  Biso   1.000  H
  H71      1.0000 0.36821  0.40200  0.44269  Biso   1.000  H
  C136     1.0000 0.42631  0.41791  0.40289  Biso   1.000  C
  C137     1.0000 0.44493  0.33259  0.31990  Biso   1.000  C
  H72      1.0000 0.39949  0.25940  0.29918  Biso   1.000  H
  H73      1.0000 0.16111  0.52279  0.67980  Biso   1.000  H
  C138     1.0000 0.17175  0.54608  0.77748  Biso   1.000  C
  C139     1.0000 0.23619  0.49606  0.81903  Biso   1.000  C
  H74      1.0000 0.26941  0.43829  0.75168  Biso   1.000  H
  C140     1.0000 0.27701  0.28290  0.19158  Biso   1.000  C
  H75      1.0000 0.28790  0.17370  0.19278  Biso   1.000  H
  H76      1.0000 0.27711  0.39069  0.20692  Biso   1.000  H
  H77      1.0000 0.29421  0.05652  0.46620  Biso   1.000  H
  C141     1.0000 0.35779  0.06034  0.47009  Biso   1.000  C
  H78      1.0000 0.41951  0.08772  0.46381  Biso   1.000  H
  H79      1.0000 0.43220  0.46081  0.42780  Biso   1.000  H
  C142     1.0000 0.45608  0.39211  0.35895  Biso   1.000  C
  H80      1.0000 0.46419  0.31510  0.28732  Biso   1.000  H
  H81      1.0000 0.14661  0.57351  0.78411  Biso   1.000  H
  C143     1.0000 0.19918  0.53640  0.82839  Biso   1.000  C
  C144     1.0000 0.26552  0.48519  0.87258  Biso   1.000  C
  O3       1.0000 0.25928  0.27864  0.12961  Biso   1.000  O
  C145     1.0000 0.36409  0.99049  0.50142  Biso   1.000  C
  C146     1.0000 0.49788  0.42250  0.35352  Biso   1.000  C
  H82      1.0000 0.19319  0.55712  0.87078  Biso   1.000  H
  C147     1.0000 0.28933  0.47836  0.91925  Biso   1.000  C
  C148     1.0000 0.24516  0.34341  0.09928  Biso   1.000  C
  C149     1.0000 0.36919  0.93239  0.52802  Biso   1.000  C
  C150     1.0000 0.53395  0.44239  0.35223  Biso   1.000  C
  C151     1.0000 0.31438  0.47437  0.97499  Biso   1.000  C
  H83      1.0000 0.22571  0.36888  0.12941  Biso   1.000  H
  H84      1.0000 0.23049  0.33160  0.05768  Biso   1.000  H
  H85      1.0000 0.26951  0.37500  0.08971  Biso   1.000  H
  C152     1.0000 0.37863  0.86604  0.56259  Biso   1.000  C
  C153     1.0000 0.57752  0.46245  0.35263  Biso   1.000  C
  C154     1.0000 0.33512  0.47431  0.02451  Biso   1.000  C
  C155     1.0000 0.35731  0.80181  0.55049  Biso   1.000  C
  N3       1.0000 0.40982  0.86910  0.60862  Biso   1.000  N
  C156     1.0000 0.59794  0.48262  0.29465  Biso   1.000  C
  C157     1.0000 0.59953  0.46016  0.41315  Biso   1.000  C
  C158     1.0000 0.35839  0.47715  0.08682  Biso   1.000  C
  H86      1.0000 0.33559  0.80050  0.51781  Biso   1.000  H
  C159     1.0000 0.36729  0.73880  0.58560  Biso   1.000  C
  C160     1.0000 0.42017  0.80602  0.64359  Biso   1.000  C
  H87      1.0000 0.42441  0.91359  0.61689  Biso   1.000  H
  H88      1.0000 0.58271  0.48442  0.25390  Biso   1.000  H
  C161     1.0000 0.64034  0.49989  0.29574  Biso   1.000  C
  C162     1.0000 0.64161  0.47715  0.41320  Biso   1.000  C
  H89      1.0000 0.58550  0.44709  0.45330  Biso   1.000  H
  C163     1.0000 0.33759  0.49710  0.14456  Biso   1.000  C
  C164     1.0000 0.40047  0.46016  0.08687  Biso   1.000  C
  H90      1.0000 0.35269  0.69430  0.57709  Biso   1.000  H
  C165     1.0000 0.39826  0.74191  0.63248  Biso   1.000  C
  C166     1.0000 0.45408  0.81001  0.68941  Biso   1.000  C
  H91      1.0000 0.65440  0.51372  0.25589  Biso   1.000  H
  C167     1.0000 0.66241  0.49710  0.35547  Biso   1.000  C
  C168     1.0000 0.66488  0.47431  0.47552  Biso   1.000  C
  C169     1.0000 0.35966  0.49989  0.20423  Biso   1.000  C
  H92      1.0000 0.30830  0.50880  0.14341  Biso   1.000  H
  C170     1.0000 0.42248  0.46245  0.14735  Biso   1.000  C
  H93      1.0000 0.41450  0.44709  0.04672  Biso   1.000  H
  H94      1.0000 0.40491  0.69961  0.65778  Biso   1.000  H
  C171     1.0000 0.48369  0.81291  0.72762  Biso   1.000  C
  H95      1.0000 0.69170  0.50880  0.35661  Biso   1.000  H
  C172     1.0000 0.68562  0.47437  0.52498  Biso   1.000  C
  C173     1.0000 0.40206  0.48262  0.20538  Biso   1.000  C
  H96      1.0000 0.34560  0.51372  0.24408  Biso   1.000  H
  C174     1.0000 0.46605  0.44239  0.14775  Biso   1.000  C
  C175     1.0000 0.51631  0.81291  0.77240  Biso   1.000  C
  C176     1.0000 0.71067  0.47836  0.58077  Biso   1.000  C
  H97      1.0000 0.41729  0.48442  0.24608  Biso   1.000  H
  C177     1.0000 0.50212  0.42250  0.14650  Biso   1.000  C
  C178     1.0000 0.54592  0.81001  0.81061  Biso   1.000  C
  C179     1.0000 0.73448  0.48519  0.62740  Biso   1.000  C
  C180     1.0000 0.54392  0.39211  0.14107  Biso   1.000  C
  C181     1.0000 0.57983  0.80602  0.85639  Biso   1.000  C
  C182     1.0000 0.76381  0.49606  0.68100  Biso   1.000  C
  C183     1.0000 0.57369  0.41791  0.09709  Biso   1.000  C
  C184     1.0000 0.55507  0.33259  0.18007  Biso   1.000  C
  C185     1.0000 0.60174  0.74191  0.86750  Biso   1.000  C
  N4       1.0000 0.59018  0.86910  0.89141  Biso   1.000  N
  C186     1.0000 0.80082  0.53640  0.67158  Biso   1.000  C
  C187     1.0000 0.75557  0.46628  0.74192  Biso   1.000  C
  C188     1.0000 0.61197  0.38303  0.08832  Biso   1.000  C
  H98      1.0000 0.56780  0.46081  0.07218  Biso   1.000  H
  H99      1.0000 0.53581  0.31510  0.21270  Biso   1.000  H
  C189     1.0000 0.59335  0.29892  0.17225  Biso   1.000  C
  C190     1.0000 0.63271  0.73880  0.91442  Biso   1.000  C
  H100     1.0000 0.59509  0.69961  0.84219  Biso   1.000  H
  C191     1.0000 0.62137  0.86604  0.93738  Biso   1.000  C
  H101     1.0000 0.57559  0.91359  0.88309  Biso   1.000  H
  C192     1.0000 0.82825  0.54608  0.72249  Biso   1.000  C
  H102     1.0000 0.80681  0.55712  0.62919  Biso   1.000  H
  C193     1.0000 0.78300  0.47644  0.79372  Biso   1.000  C
  H103     1.0000 0.73059  0.43829  0.74829  Biso   1.000  H
  C194     1.0000 0.62179  0.32062  0.12418  Biso   1.000  C
  H104     1.0000 0.63179  0.40200  0.05729  Biso   1.000  H
  H105     1.0000 0.60051  0.25940  0.20080  Biso   1.000  H
  C195     1.0000 0.64269  0.80181  0.94949  Biso   1.000  C
  H106     1.0000 0.64731  0.69430  0.92289  Biso   1.000  H
  C196     1.0000 0.63081  0.93239  0.97200  Biso   1.000  C
  C197     1.0000 0.81963  0.51612  0.78441  Biso   1.000  C
  H107     1.0000 0.85339  0.57351  0.71592  Biso   1.000  H
  C198     1.0000 0.77191  0.44409  0.85609  Biso   1.000  C
  C199     1.0000 0.66336  0.27602  0.11452  Biso   1.000  C
  H108     1.0000 0.66441  0.80050  0.98222  Biso   1.000  H
  C200     1.0000 0.63591  0.99049  0.99861  Biso   1.000  C
  H109     1.0000 0.83889  0.52279  0.82022  Biso   1.000  H
  C201     1.0000 0.75845  0.41178  0.90361  Biso   1.000  C
  C202     1.0000 0.65374  0.19840  0.08862  Biso   1.000  C
  C203     1.0000 0.69126  0.31001  0.05983  Biso   1.000  C
  C204     1.0000 0.68543  0.27618  0.18281  Biso   1.000  C
  C205     1.0000 0.64221  0.06034  0.02994  Biso   1.000  C
  C206     1.0000 0.73765  0.37402  0.95606  Biso   1.000  C
  C207     1.0000 0.68775  0.15309  0.07258  Biso   1.000  C
  C208     1.0000 0.61441  0.17321  0.07382  Biso   1.000  C
  C209     1.0000 0.67552  0.31242  0.99487  Biso   1.000  C
  C210     1.0000 0.73144  0.33641  0.07024  Biso   1.000  C
  C211     1.0000 0.69231  0.21458  0.21898  Biso   1.000  C
  C212     1.0000 0.69585  0.34018  0.21330  Biso   1.000  C
  C213     1.0000 0.68189  0.08587  0.04399  Biso   1.000  C
  C214     1.0000 0.60839  0.10429  0.04518  Biso   1.000  C
  C215     1.0000 0.69810  0.34439  0.94426  Biso   1.000  C
  C216     1.0000 0.75443  0.36806  0.01908  Biso   1.000  C
  H110     1.0000 0.71571  0.16933  0.08169  Biso   1.000  H
  H111     1.0000 0.59050  0.20300  0.08299  Biso   1.000  H
  H112     1.0000 0.64861  0.29148  0.98550  Biso   1.000  H
  H113     1.0000 0.74370  0.33291  0.11328  Biso   1.000  H
  C217     1.0000 0.70950  0.21732  0.28189  Biso   1.000  C
  H114     1.0000 0.68499  0.16851  0.20040  Biso   1.000  H
  H115     1.0000 0.68939  0.38451  0.19088  Biso   1.000  H
  C218     1.0000 0.71526  0.34461  0.27492  Biso   1.000  C
  H116     1.0000 0.70579  0.05652  0.03382  Biso   1.000  H
  H117     1.0000 0.58049  0.08772  0.03621  Biso   1.000  H
  H118     1.0000 0.68642  0.34609  0.90072  Biso   1.000  H
  H119     1.0000 0.78220  0.38588  0.02760  Biso   1.000  H
  C219     1.0000 0.72299  0.28290  0.30839  Biso   1.000  C
  H120     1.0000 0.71210  0.17370  0.30720  Biso   1.000  H
  H121     1.0000 0.72289  0.39069  0.29310  Biso   1.000  H
  O4       1.0000 0.74072  0.27864  0.37036  Biso   1.000  O
  C220     1.0000 0.75484  0.34341  0.40070  Biso   1.000  C
  H122     1.0000 0.77429  0.36888  0.37061  Biso   1.000  H
  H123     1.0000 0.76951  0.33160  0.44229  Biso   1.000  H
  H124     1.0000 0.73049  0.37500  0.41031  Biso   1.000  H
  C221     1.0000 0.18189  0.58587  0.45599  Biso   1.000  C
  C222     1.0000 0.14221  0.56034  0.47009  Biso   1.000  C
  C223     1.0000 0.18775  0.65309  0.42745  Biso   1.000  C
  H125     1.0000 0.20579  0.55652  0.46620  Biso   1.000  H
  C224     1.0000 0.13591  0.49049  0.50142  Biso   1.000  C
  C225     1.0000 0.10839  0.60429  0.45479  Biso   1.000  C
  C226     1.0000 0.15374  0.69840  0.41136  Biso   1.000  C
  H126     1.0000 0.21571  0.66933  0.41828  Biso   1.000  H
  C227     1.0000 0.13081  0.43239  0.52802  Biso   1.000  C
  H127     1.0000 0.08049  0.58772  0.46381  Biso   1.000  H
  C228     1.0000 0.11441  0.67321  0.42620  Biso   1.000  C
  C229     1.0000 0.16336  0.77602  0.38550  Biso   1.000  C
  C230     1.0000 0.12137  0.36604  0.56259  Biso   1.000  C
  H128     1.0000 0.09050  0.70300  0.41699  Biso   1.000  H
  C231     1.0000 0.18543  0.77618  0.31716  Biso   1.000  C
  C232     1.0000 0.12179  0.82062  0.37584  Biso   1.000  C
  C233     1.0000 0.19126  0.81001  0.44020  Biso   1.000  C
  C234     1.0000 0.14269  0.30181  0.55049  Biso   1.000  C
  N5       1.0000 0.09018  0.36910  0.60862  Biso   1.000  N
  C235     1.0000 0.19231  0.71458  0.28100  Biso   1.000  C
  C236     1.0000 0.19585  0.84018  0.28672  Biso   1.000  C
  C237     1.0000 0.11197  0.88303  0.41171  Biso   1.000  C
  C238     1.0000 0.09335  0.79892  0.32772  Biso   1.000  C
  C239     1.0000 0.23144  0.83641  0.42979  Biso   1.000  C
  C240     1.0000 0.17552  0.81242  0.50511  Biso   1.000  C
  H129     1.0000 0.16441  0.30050  0.51781  Biso   1.000  H
  C241     1.0000 0.13271  0.23880  0.58560  Biso   1.000  C
  C242     1.0000 0.07983  0.30602  0.64359  Biso   1.000  C
  H130     1.0000 0.07559  0.41359  0.61689  Biso   1.000  H
  C243     1.0000 0.20950  0.71732  0.21808  Biso   1.000  C
  H131     1.0000 0.18499  0.66851  0.29958  Biso   1.000  H
  H132     1.0000 0.18939  0.88451  0.30909  Biso   1.000  H
  C244     1.0000 0.21526  0.84461  0.22506  Biso   1.000  C
  H133     1.0000 0.13179  0.90200  0.44269  Biso   1.000  H
  C245     1.0000 0.07369  0.91791  0.40289  Biso   1.000  C
  C246     1.0000 0.05507  0.83259  0.31990  Biso   1.000  C
  H134     1.0000 0.10051  0.75940  0.29918  Biso   1.000  H
  H135     1.0000 0.24370  0.83291  0.38670  Biso   1.000  H
  C247     1.0000 0.25443  0.86806  0.48095  Biso   1.000  C
  C248     1.0000 0.19810  0.84439  0.55572  Biso   1.000  C
  H136     1.0000 0.14861  0.79148  0.51452  Biso   1.000  H
  H137     1.0000 0.14731  0.19430  0.57709  Biso   1.000  H
  C249     1.0000 0.10174  0.24191  0.63248  Biso   1.000  C
  C250     1.0000 0.04592  0.31001  0.68941  Biso   1.000  C
  C251     1.0000 0.22299  0.78290  0.19158  Biso   1.000  C
  H138     1.0000 0.21210  0.67370  0.19278  Biso   1.000  H
  H139     1.0000 0.22289  0.89069  0.20692  Biso   1.000  H
  H140     1.0000 0.06780  0.96081  0.42780  Biso   1.000  H
  C252     1.0000 0.04392  0.89211  0.35895  Biso   1.000  C
  H141     1.0000 0.03581  0.81510  0.28732  Biso   1.000  H
  H142     1.0000 0.28220  0.88588  0.47238  Biso   1.000  H
  C253     1.0000 0.23765  0.87402  0.54396  Biso   1.000  C
  H143     1.0000 0.18642  0.84609  0.59930  Biso   1.000  H
  H144     1.0000 0.09509  0.19961  0.65778  Biso   1.000  H
  C254     1.0000 0.01631  0.31291  0.72762  Biso   1.000  C
  O5       1.0000 0.24072  0.77864  0.12961  Biso   1.000  O
  C255     1.0000 0.00212  0.92250  0.35352  Biso   1.000  C
  C256     1.0000 0.25845  0.91178  0.59636  Biso   1.000  C
  C257     1.0000 0.98369  0.31291  0.77240  Biso   1.000  C
  C258     1.0000 0.25484  0.84341  0.09928  Biso   1.000  C
  C259     1.0000 0.96605  0.94239  0.35223  Biso   1.000  C
  C260     1.0000 0.27191  0.94409  0.64394  Biso   1.000  C
  C261     1.0000 0.95408  0.31001  0.81061  Biso   1.000  C
  H145     1.0000 0.27429  0.86888  0.12941  Biso   1.000  H
  H146     1.0000 0.26951  0.83160  0.05768  Biso   1.000  H
  H147     1.0000 0.23049  0.87500  0.08971  Biso   1.000  H
  C262     1.0000 0.92248  0.96245  0.35263  Biso   1.000  C
  C263     1.0000 0.28300  0.97644  0.70630  Biso   1.000  C
  C264     1.0000 0.92017  0.30602  0.85639  Biso   1.000  C
  C265     1.0000 0.90206  0.98262  0.29465  Biso   1.000  C
  C266     1.0000 0.90047  0.96016  0.41315  Biso   1.000  C
  C267     1.0000 0.25557  0.96628  0.75811  Biso   1.000  C
  C268     1.0000 0.31963  0.01612  0.71562  Biso   1.000  C
  C269     1.0000 0.89826  0.24191  0.86750  Biso   1.000  C
  N6       1.0000 0.90982  0.36910  0.89141  Biso   1.000  N
  H148     1.0000 0.91729  0.98442  0.25390  Biso   1.000  H
  C270     1.0000 0.85966  0.99989  0.29574  Biso   1.000  C
  C271     1.0000 0.85839  0.97715  0.41320  Biso   1.000  C
  H149     1.0000 0.91450  0.94709  0.45330  Biso   1.000  H
  C272     1.0000 0.26381  0.99606  0.81903  Biso   1.000  C
  H150     1.0000 0.23059  0.93829  0.75168  Biso   1.000  H
  H151     1.0000 0.33889  0.02279  0.67980  Biso   1.000  H
  C273     1.0000 0.32825  0.04608  0.77748  Biso   1.000  C
  C274     1.0000 0.86729  0.23880  0.91442  Biso   1.000  C
  H152     1.0000 0.90491  0.19961  0.84219  Biso   1.000  H
  C275     1.0000 0.87863  0.36604  0.93738  Biso   1.000  C
  H153     1.0000 0.92441  0.41359  0.88309  Biso   1.000  H
  C276     1.0000 0.83759  0.99710  0.35547  Biso   1.000  C
  H154     1.0000 0.84560  0.01372  0.25589  Biso   1.000  H
  C277     1.0000 0.83512  0.97431  0.47552  Biso   1.000  C
  C278     1.0000 0.23448  0.98519  0.87258  Biso   1.000  C
  C279     1.0000 0.30082  0.03640  0.82839  Biso   1.000  C
  H155     1.0000 0.35339  0.07351  0.78411  Biso   1.000  H
  C280     1.0000 0.85731  0.30181  0.94949  Biso   1.000  C
  H156     1.0000 0.85269  0.19430  0.92289  Biso   1.000  H
  C281     1.0000 0.86919  0.43239  0.97200  Biso   1.000  C
  H157     1.0000 0.80830  0.00880  0.35661  Biso   1.000  H
  C282     1.0000 0.81438  0.97437  0.52498  Biso   1.000  C
  C283     1.0000 0.21067  0.97836  0.91925  Biso   1.000  C
  H158     1.0000 0.30681  0.05712  0.87078  Biso   1.000  H
  H159     1.0000 0.83559  0.30050  0.98222  Biso   1.000  H
  C284     1.0000 0.86409  0.49049  0.99861  Biso   1.000  C
  C285     1.0000 0.78933  0.97836  0.58077  Biso   1.000  C
  C286     1.0000 0.18562  0.97437  0.97499  Biso   1.000  C
  C287     1.0000 0.85779  0.56034  0.02994  Biso   1.000  C
  C288     1.0000 0.76552  0.98519  0.62740  Biso   1.000  C
  C289     1.0000 0.16488  0.97431  0.02451  Biso   1.000  C
  C290     1.0000 0.81811  0.58587  0.04399  Biso   1.000  C
  C291     1.0000 0.89161  0.60429  0.04518  Biso   1.000  C
  C292     1.0000 0.73619  0.99606  0.68100  Biso   1.000  C
  C293     1.0000 0.14161  0.97715  0.08682  Biso   1.000  C
  C294     1.0000 0.81225  0.65309  0.07258  Biso   1.000  C
  H160     1.0000 0.79421  0.55652  0.03382  Biso   1.000  H
  H161     1.0000 0.91951  0.58772  0.03621  Biso   1.000  H
  C295     1.0000 0.88559  0.67321  0.07382  Biso   1.000  C
  C296     1.0000 0.74443  0.96628  0.74192  Biso   1.000  C
  C297     1.0000 0.69918  0.03640  0.67158  Biso   1.000  C
  C298     1.0000 0.16241  0.99710  0.14456  Biso   1.000  C
  C299     1.0000 0.09953  0.96016  0.08687  Biso   1.000  C
  C300     1.0000 0.84626  0.69840  0.08862  Biso   1.000  C
  H162     1.0000 0.78429  0.66933  0.08169  Biso   1.000  H
  H163     1.0000 0.90950  0.70300  0.08299  Biso   1.000  H
  C301     1.0000 0.71700  0.97644  0.79372  Biso   1.000  C
  H164     1.0000 0.76941  0.93829  0.74829  Biso   1.000  H
  C302     1.0000 0.67175  0.04608  0.72249  Biso   1.000  C
  H165     1.0000 0.69319  0.05712  0.62919  Biso   1.000  H
  C303     1.0000 0.14034  0.99989  0.20423  Biso   1.000  C
  H166     1.0000 0.19170  0.00880  0.14341  Biso   1.000  H
  C304     1.0000 0.07752  0.96245  0.14735  Biso   1.000  C
  H167     1.0000 0.08550  0.94709  0.04672  Biso   1.000  H
  C305     1.0000 0.83664  0.77602  0.11452  Biso   1.000  C
  C306     1.0000 0.72809  0.94409  0.85609  Biso   1.000  C
  C307     1.0000 0.68037  0.01612  0.78441  Biso   1.000  C
  H168     1.0000 0.64661  0.07351  0.71592  Biso   1.000  H
  C308     1.0000 0.09794  0.98262  0.20538  Biso   1.000  C
  H169     1.0000 0.15440  0.01372  0.24408  Biso   1.000  H
  C309     1.0000 0.03395  0.94239  0.14775  Biso   1.000  C
  C310     1.0000 0.81457  0.77618  0.18281  Biso   1.000  C
  C311     1.0000 0.87821  0.82062  0.12418  Biso   1.000  C
  C312     1.0000 0.80874  0.81001  0.05983  Biso   1.000  C
  C313     1.0000 0.74155  0.91178  0.90361  Biso   1.000  C
  H170     1.0000 0.66111  0.02279  0.82022  Biso   1.000  H
  H171     1.0000 0.08271  0.98442  0.24608  Biso   1.000  H
  C314     1.0000 0.99788  0.92250  0.14650  Biso   1.000  C
  C315     1.0000 0.80769  0.71458  0.21898  Biso   1.000  C
  C316     1.0000 0.80415  0.84018  0.21330  Biso   1.000  C
  C317     1.0000 0.88803  0.88303  0.08832  Biso   1.000  C
  C318     1.0000 0.90665  0.79892  0.17225  Biso   1.000  C
  C319     1.0000 0.82448  0.81242  0.99487  Biso   1.000  C
  C320     1.0000 0.76856  0.83641  0.07024  Biso   1.000  C
  C321     1.0000 0.76235  0.87402  0.95606  Biso   1.000  C
  C322     1.0000 0.95608  0.89211  0.14107  Biso   1.000  C
  C323     1.0000 0.79050  0.71732  0.28189  Biso   1.000  C
  H172     1.0000 0.81501  0.66851  0.20040  Biso   1.000  H
  H173     1.0000 0.81061  0.88451  0.19088  Biso   1.000  H
  C324     1.0000 0.78474  0.84461  0.27492  Biso   1.000  C
  H174     1.0000 0.86821  0.90200  0.05729  Biso   1.000  H
  C325     1.0000 0.92631  0.91791  0.09709  Biso   1.000  C
  C326     1.0000 0.94493  0.83259  0.18007  Biso   1.000  C
  H175     1.0000 0.89949  0.75940  0.20080  Biso   1.000  H
  C327     1.0000 0.80190  0.84439  0.94426  Biso   1.000  C
  H176     1.0000 0.85139  0.79148  0.98550  Biso   1.000  H
  H177     1.0000 0.75630  0.83291  0.11328  Biso   1.000  H
  C328     1.0000 0.74557  0.86806  0.01908  Biso   1.000  C
  C329     1.0000 0.77701  0.78290  0.30839  Biso   1.000  C
  H178     1.0000 0.78790  0.67370  0.30720  Biso   1.000  H
  H179     1.0000 0.77711  0.89069  0.29310  Biso   1.000  H
  H180     1.0000 0.93220  0.96081  0.07218  Biso   1.000  H
  H181     1.0000 0.96419  0.81510  0.21270  Biso   1.000  H
  H182     1.0000 0.81358  0.84609  0.90072  Biso   1.000  H
  H183     1.0000 0.71780  0.88588  0.02760  Biso   1.000  H
  O6       1.0000 0.75928  0.77864  0.37036  Biso   1.000  O
  C330     1.0000 0.74516  0.84341  0.40070  Biso   1.000  C
  H184     1.0000 0.72571  0.86888  0.37061  Biso   1.000  H
  H185     1.0000 0.73049  0.83160  0.44229  Biso   1.000  H
  H186     1.0000 0.76951  0.87500  0.41031  Biso   1.000  H
  C331     1.0000 0.18562  0.02563  0.47502  Biso   1.000  C
  C332     1.0000 0.21067  0.02164  0.41923  Biso   1.000  C
  C333     1.0000 0.16488  0.02569  0.52448  Biso   1.000  C
  C334     1.0000 0.23448  0.01481  0.37260  Biso   1.000  C
  C335     1.0000 0.14161  0.02285  0.58680  Biso   1.000  C
  C336     1.0000 0.26381  0.00394  0.31900  Biso   1.000  C
  C337     1.0000 0.16241  0.00290  0.64453  Biso   1.000  C
  C338     1.0000 0.09953  0.03984  0.58685  Biso   1.000  C
  C339     1.0000 0.25557  0.03372  0.25808  Biso   1.000  C
  C340     1.0000 0.30082  0.96360  0.32842  Biso   1.000  C
  C341     1.0000 0.14034  0.00011  0.70426  Biso   1.000  C
  H187     1.0000 0.19170  0.99120  0.64339  Biso   1.000  H
  C342     1.0000 0.07752  0.03755  0.64737  Biso   1.000  C
  H188     1.0000 0.08550  0.05291  0.54670  Biso   1.000  H
  C343     1.0000 0.28300  0.02356  0.20628  Biso   1.000  C
  H189     1.0000 0.23059  0.06171  0.25171  Biso   1.000  H
  C344     1.0000 0.32825  0.95392  0.27751  Biso   1.000  C
  H190     1.0000 0.30681  0.94288  0.37081  Biso   1.000  H
  C345     1.0000 0.09794  0.01738  0.70535  Biso   1.000  C
  H191     1.0000 0.15440  0.98628  0.74411  Biso   1.000  H
  C346     1.0000 0.03395  0.05761  0.64777  Biso   1.000  C
  C347     1.0000 0.27191  0.05591  0.14391  Biso   1.000  C
  C348     1.0000 0.31963  0.98388  0.21559  Biso   1.000  C
  H192     1.0000 0.35339  0.92649  0.28408  Biso   1.000  H
  H193     1.0000 0.08271  0.01558  0.74610  Biso   1.000  H
  C349     1.0000 0.99788  0.07750  0.64648  Biso   1.000  C
  C350     1.0000 0.25845  0.08822  0.09639  Biso   1.000  C
  H194     1.0000 0.33889  0.97721  0.17978  Biso   1.000  H
  C351     1.0000 0.95608  0.10789  0.64105  Biso   1.000  C
  C352     1.0000 0.23765  0.12598  0.04394  Biso   1.000  C
  C353     1.0000 0.92631  0.08209  0.59711  Biso   1.000  C
  C354     1.0000 0.94493  0.16741  0.68010  Biso   1.000  C
  C355     1.0000 0.19810  0.15561  0.05574  Biso   1.000  C
  C356     1.0000 0.25443  0.13194  0.98092  Biso   1.000  C
  C357     1.0000 0.88803  0.11697  0.58829  Biso   1.000  C
  H195     1.0000 0.93220  0.03919  0.57220  Biso   1.000  H
  H196     1.0000 0.96419  0.18490  0.71268  Biso   1.000  H
  C358     1.0000 0.90665  0.20108  0.67228  Biso   1.000  C
  H197     1.0000 0.18642  0.15391  0.09928  Biso   1.000  H
  C359     1.0000 0.17552  0.18758  0.00513  Biso   1.000  C
  C360     1.0000 0.23144  0.16359  0.92976  Biso   1.000  C
  H198     1.0000 0.28220  0.11412  0.97240  Biso   1.000  H
  C361     1.0000 0.87821  0.17938  0.62416  Biso   1.000  C
  H199     1.0000 0.86821  0.09800  0.55731  Biso   1.000  H
  H200     1.0000 0.89949  0.24060  0.70082  Biso   1.000  H
  H201     1.0000 0.14861  0.20852  0.01450  Biso   1.000  H
  C362     1.0000 0.19126  0.18999  0.94017  Biso   1.000  C
  H202     1.0000 0.24370  0.16709  0.88672  Biso   1.000  H
  C363     1.0000 0.83664  0.22398  0.61450  Biso   1.000  C
  C364     1.0000 0.16336  0.22398  0.88548  Biso   1.000  C
  C365     1.0000 0.81457  0.22382  0.68284  Biso   1.000  C
  C366     1.0000 0.84626  0.30160  0.58864  Biso   1.000  C
  C367     1.0000 0.80874  0.18999  0.55980  Biso   1.000  C
  C368     1.0000 0.18543  0.22382  0.81719  Biso   1.000  C
  C369     1.0000 0.15374  0.30160  0.91138  Biso   1.000  C
  C370     1.0000 0.12179  0.17938  0.87582  Biso   1.000  C
  C371     1.0000 0.80769  0.28542  0.71900  Biso   1.000  C
  C372     1.0000 0.80415  0.15982  0.71328  Biso   1.000  C
  C373     1.0000 0.81225  0.34691  0.57255  Biso   1.000  C
  C374     1.0000 0.88559  0.32679  0.57380  Biso   1.000  C
  C375     1.0000 0.76856  0.16359  0.57021  Biso   1.000  C
  C376     1.0000 0.82448  0.18758  0.49489  Biso   1.000  C
  C377     1.0000 0.19231  0.28542  0.78102  Biso   1.000  C
  C378     1.0000 0.19585  0.15982  0.78670  Biso   1.000  C
  C379     1.0000 0.18775  0.34691  0.92742  Biso   1.000  C
  C380     1.0000 0.11441  0.32679  0.92618  Biso   1.000  C
  C381     1.0000 0.11197  0.11697  0.91168  Biso   1.000  C
  C382     1.0000 0.09335  0.20108  0.82775  Biso   1.000  C
  C383     1.0000 0.79050  0.28268  0.78192  Biso   1.000  C
  H203     1.0000 0.81501  0.33149  0.70042  Biso   1.000  H
  H204     1.0000 0.81061  0.11549  0.69091  Biso   1.000  H
  C384     1.0000 0.78474  0.15539  0.77494  Biso   1.000  C
  H205     1.0000 0.78429  0.33067  0.58172  Biso   1.000  H
  C385     1.0000 0.81811  0.41413  0.54401  Biso   1.000  C
  C386     1.0000 0.89161  0.39571  0.54521  Biso   1.000  C
  H206     1.0000 0.90950  0.29700  0.58301  Biso   1.000  H
  H207     1.0000 0.75630  0.16709  0.61330  Biso   1.000  H
  C387     1.0000 0.74557  0.13194  0.51905  Biso   1.000  C
  C388     1.0000 0.80190  0.15561  0.44428  Biso   1.000  C
  H208     1.0000 0.85139  0.20852  0.48548  Biso   1.000  H
  C389     1.0000 0.20950  0.28268  0.71811  Biso   1.000  C
  H209     1.0000 0.18499  0.33149  0.79960  Biso   1.000  H
  H210     1.0000 0.18939  0.11549  0.80912  Biso   1.000  H
  C390     1.0000 0.21526  0.15539  0.72508  Biso   1.000  C
  H211     1.0000 0.21571  0.33067  0.91831  Biso   1.000  H
  C391     1.0000 0.18189  0.41413  0.95601  Biso   1.000  C
  C392     1.0000 0.10839  0.39571  0.95482  Biso   1.000  C
  H212     1.0000 0.09050  0.29700  0.91701  Biso   1.000  H
  H213     1.0000 0.13179  0.09800  0.94271  Biso   1.000  H
  C393     1.0000 0.07369  0.08209  0.90291  Biso   1.000  C
  C394     1.0000 0.05507  0.16741  0.81993  Biso   1.000  C
  H214     1.0000 0.10051  0.24060  0.79920  Biso   1.000  H
  C395     1.0000 0.77701  0.21710  0.80842  Biso   1.000  C
  H215     1.0000 0.78790  0.32630  0.80722  Biso   1.000  H
  H216     1.0000 0.77711  0.10931  0.79308  Biso   1.000  H
  H217     1.0000 0.79421  0.44348  0.53380  Biso   1.000  H
  C396     1.0000 0.85779  0.43966  0.52991  Biso   1.000  C
  H218     1.0000 0.91951  0.41228  0.53619  Biso   1.000  H
  H219     1.0000 0.71780  0.11412  0.52762  Biso   1.000  H
  C397     1.0000 0.76235  0.12598  0.45604  Biso   1.000  C
  H220     1.0000 0.81358  0.15391  0.40070  Biso   1.000  H
  C398     1.0000 0.22299  0.21710  0.69161  Biso   1.000  C
  H221     1.0000 0.21210  0.32630  0.69280  Biso   1.000  H
  H222     1.0000 0.22289  0.10931  0.70690  Biso   1.000  H
  H223     1.0000 0.20579  0.44348  0.96618  Biso   1.000  H
  C399     1.0000 0.14221  0.43966  0.97006  Biso   1.000  C
  H224     1.0000 0.08049  0.41228  0.96379  Biso   1.000  H
  H225     1.0000 0.06780  0.03919  0.92782  Biso   1.000  H
  C400     1.0000 0.04392  0.10789  0.85893  Biso   1.000  C
  H226     1.0000 0.03581  0.18490  0.78730  Biso   1.000  H
  O7       1.0000 0.75928  0.22136  0.87039  Biso   1.000  O
  C401     1.0000 0.86409  0.50951  0.49858  Biso   1.000  C
  C402     1.0000 0.74155  0.08822  0.40364  Biso   1.000  C
  O8       1.0000 0.24072  0.22136  0.62964  Biso   1.000  O
  C403     1.0000 0.13591  0.50951  0.00139  Biso   1.000  C
  C404     1.0000 0.00212  0.07750  0.85350  Biso   1.000  C
  C405     1.0000 0.74516  0.15659  0.90072  Biso   1.000  C
  C406     1.0000 0.86919  0.56761  0.47198  Biso   1.000  C
  C407     1.0000 0.72809  0.05591  0.35606  Biso   1.000  C
  C408     1.0000 0.25484  0.15659  0.59930  Biso   1.000  C
  C409     1.0000 0.13081  0.56761  0.02800  Biso   1.000  C
  C410     1.0000 0.96605  0.05761  0.85225  Biso   1.000  C
  H227     1.0000 0.72571  0.13112  0.87059  Biso   1.000  H
  H228     1.0000 0.73049  0.16840  0.94232  Biso   1.000  H
  H229     1.0000 0.76951  0.12500  0.91029  Biso   1.000  H
  C411     1.0000 0.87863  0.63396  0.43741  Biso   1.000  C
  C412     1.0000 0.71700  0.02356  0.29370  Biso   1.000  C
  H230     1.0000 0.27429  0.13112  0.62939  Biso   1.000  H
  H231     1.0000 0.26951  0.16840  0.55771  Biso   1.000  H
  H232     1.0000 0.23049  0.12500  0.58969  Biso   1.000  H
  C413     1.0000 0.12137  0.63396  0.06262  Biso   1.000  C
  C414     1.0000 0.92248  0.03755  0.85265  Biso   1.000  C
  N7       1.0000 0.90982  0.63090  0.39138  Biso   1.000  N
  C415     1.0000 0.85731  0.69819  0.44951  Biso   1.000  C
  C416     1.0000 0.74443  0.03372  0.24189  Biso   1.000  C
  C417     1.0000 0.68037  0.98388  0.28438  Biso   1.000  C
  C418     1.0000 0.14269  0.69819  0.05051  Biso   1.000  C
  N8       1.0000 0.09018  0.63090  0.10859  Biso   1.000  N
  C419     1.0000 0.90206  0.01738  0.79462  Biso   1.000  C
  C420     1.0000 0.90047  0.03984  0.91313  Biso   1.000  C
  C421     1.0000 0.92017  0.69398  0.35641  Biso   1.000  C
  H233     1.0000 0.92441  0.58641  0.38311  Biso   1.000  H
  C422     1.0000 0.86729  0.76120  0.41440  Biso   1.000  C
  H234     1.0000 0.83559  0.69950  0.48219  Biso   1.000  H
  C423     1.0000 0.73619  0.00394  0.18097  Biso   1.000  C
  H235     1.0000 0.76941  0.06171  0.24832  Biso   1.000  H
  C424     1.0000 0.67175  0.95392  0.22252  Biso   1.000  C
  H236     1.0000 0.66111  0.97721  0.32020  Biso   1.000  H
  H237     1.0000 0.16441  0.69950  0.01778  Biso   1.000  H
  C425     1.0000 0.13271  0.76120  0.08558  Biso   1.000  C
  C426     1.0000 0.07983  0.69398  0.14361  Biso   1.000  C
  H238     1.0000 0.07559  0.58641  0.11691  Biso   1.000  H
  H239     1.0000 0.91729  0.01558  0.75392  Biso   1.000  H
  C427     1.0000 0.85966  0.00011  0.79577  Biso   1.000  C
  C428     1.0000 0.85839  0.02285  0.91318  Biso   1.000  C
  H240     1.0000 0.91450  0.05291  0.95328  Biso   1.000  H
  C429     1.0000 0.95408  0.68999  0.31059  Biso   1.000  C
  C430     1.0000 0.89826  0.75809  0.36752  Biso   1.000  C
  H241     1.0000 0.85269  0.80570  0.42291  Biso   1.000  H
  C431     1.0000 0.76552  0.01481  0.12742  Biso   1.000  C
  C432     1.0000 0.69918  0.96360  0.17161  Biso   1.000  C
  H242     1.0000 0.64661  0.92649  0.21589  Biso   1.000  H
  H243     1.0000 0.14731  0.80570  0.07711  Biso   1.000  H
  C433     1.0000 0.10174  0.75809  0.13250  Biso   1.000  C
  C434     1.0000 0.04592  0.68999  0.18939  Biso   1.000  C
  H244     1.0000 0.84560  0.98628  0.75592  Biso   1.000  H
  C435     1.0000 0.83759  0.00290  0.85544  Biso   1.000  C
  C436     1.0000 0.83512  0.02569  0.97549  Biso   1.000  C
  C437     1.0000 0.98369  0.68709  0.27238  Biso   1.000  C
  H245     1.0000 0.90491  0.80039  0.34222  Biso   1.000  H
  C438     1.0000 0.78933  0.02164  0.08075  Biso   1.000  C
  H246     1.0000 0.69319  0.94288  0.12922  Biso   1.000  H
  H247     1.0000 0.09509  0.80039  0.15781  Biso   1.000  H
  C439     1.0000 0.01631  0.68709  0.22760  Biso   1.000  C
  H248     1.0000 0.80830  0.99120  0.85659  Biso   1.000  H
  C440     1.0000 0.81438  0.02563  0.02501  Biso   1.000  C
  Ne1      1.0000 0.50000  0.27048  0.75000  Biso   1.000  Ne
  He1      1.0000 0.40288  0.13373  0.87983  Biso   1.000  He
  He2      1.0000 0.49050  0.45559  0.74324  Biso   1.000  He
  He3      1.0000 0.58509  0.15381  0.64440  Biso   1.000  He
  Ar1      1.0000 0.50000  0.27048  0.75001  Biso   1.000  Ar
  Ne2      1.0000 0.00000  0.22952  0.25000  Biso   1.000  Ne
  He4      1.0000 0.10213  0.36232  0.36257  Biso   1.000  He
  He5      1.0000 0.99054  0.04518  0.25675  Biso   1.000  He
  He6      1.0000 0.90173  0.36821  0.11782  Biso   1.000  He
  Ar2      1.0000 0.00000  0.22952  0.24999  Biso   1.000  Ar
  Ne3      1.0000 0.50000  0.72952  0.25000  Biso   1.000  Ne
  He7      1.0000 0.42930  0.82120  0.33248  Biso   1.000  He
  He8      1.0000 0.49052  0.54404  0.24322  Biso   1.000  He
  He9      1.0000 0.59314  0.85960  0.12824  Biso   1.000  He
  Ar3      1.0000 0.50000  0.72952  0.24999  Biso   1.000  Ar
  Ne4      1.0000 0.00000  0.77048  0.75000  Biso   1.000  Ne
  He10     1.0000 0.09824  0.63184  0.88213  Biso   1.000  He
  He11     1.0000 0.00107  0.88844  0.74925  Biso   1.000  He
  He12     1.0000 0.92582  0.67271  0.66221  Biso   1.000  He
  Ar4      1.0000 1.00000  0.77048  0.75001  Biso   1.000  Ar
