data_image0
_cell_length_a       16.114
_cell_length_b       17.239
_cell_length_c       28.561
_cell_angle_alpha    85.55
_cell_angle_beta     78.76
_cell_angle_gamma    65.28

_symmetry_space_group_name_H-M    "P 1"
_symmetry_int_tables_number       1

loop_
  _symmetry_equiv_pos_as_xyz
  'x, y, z'

loop_
  _atom_site_label
  _atom_site_occupancy
  _atom_site_fract_x
  _atom_site_fract_y
  _atom_site_fract_z
  _atom_site_thermal_displace_type
  _atom_site_B_iso_or_equiv
  _atom_site_type_symbol
  N1       1.0000 0.50610  0.20651  0.84911  Biso   1.000  N
  C1       1.0000 0.41432  0.23392  0.85079  Biso   1.000  C
  C2       1.0000 0.41434  0.23385  0.85079  Biso   1.000  C
  C3       1.0000 0.39474  0.25445  0.84779  Biso   1.000  C
  C4       1.0000 0.54120  0.26562  0.84661  Biso   1.000  C
  C5       1.0000 0.54123  0.26556  0.84661  Biso   1.000  C
  C6       1.0000 0.51727  0.29110  0.84661  Biso   1.000  C
  C7       1.0000 0.38191  0.16480  0.84800  Biso   1.000  C
  C8       1.0000 0.36547  0.18361  0.84411  Biso   1.000  C
  C9       1.0000 0.35580  0.31880  0.85221  Biso   1.000  C
  N2       1.0000 0.48611  0.22985  0.84600  Biso   1.000  N
  C10      1.0000 0.33297  0.33840  0.85161  Biso   1.000  C
  C11      1.0000 0.64424  0.23065  0.84172  Biso   1.000  C
  C12      1.0000 0.48668  0.35062  0.84640  Biso   1.000  C
  C13      1.0000 0.64428  0.23059  0.84168  Biso   1.000  C
  C14      1.0000 0.64427  0.23059  0.84172  Biso   1.000  C
  C15      1.0000 0.48671  0.35055  0.84640  Biso   1.000  C
  C16      1.0000 0.64434  0.23059  0.84168  Biso   1.000  C
  C17      1.0000 0.61952  0.25947  0.84450  Biso   1.000  C
  C18      1.0000 0.45900  0.37517  0.85089  Biso   1.000  C
  N3       1.0000 0.45361  0.09671  0.81430  Biso   1.000  N
  N4       1.0000 0.45364  0.09665  0.81430  Biso   1.000  N
  N5       1.0000 0.44342  0.11281  0.81452  Biso   1.000  N
  H1       1.0000 0.37261  0.14021  0.87999  Biso   1.000  H
  H2       1.0000 0.32200  0.18885  0.83651  Biso   1.000  H
  H3       1.0000 0.32203  0.18878  0.83651  Biso   1.000  H
  H4       1.0000 0.37264  0.14014  0.87999  Biso   1.000  H
  H5       1.0000 0.30953  0.20488  0.82919  Biso   1.000  H
  H6       1.0000 0.35013  0.16215  0.87642  Biso   1.000  H
  C19      1.0000 0.39231  0.37805  0.85089  Biso   1.000  C
  H7       1.0000 0.29101  0.33644  0.85400  Biso   1.000  H
  C20      1.0000 0.39233  0.37798  0.85089  Biso   1.000  C
  H8       1.0000 0.29104  0.33637  0.85400  Biso   1.000  H
  C21      1.0000 0.36570  0.39978  0.85271  Biso   1.000  C
  H9       1.0000 0.26853  0.35387  0.85339  Biso   1.000  H
  N6       1.0000 0.68937  0.13923  0.82912  Biso   1.000  N
  H10      1.0000 0.66846  0.26283  0.81669  Biso   1.000  H
  H11      1.0000 0.66028  0.23881  0.87221  Biso   1.000  H
  N7       1.0000 0.68940  0.13917  0.82912  Biso   1.000  N
  H12      1.0000 0.66849  0.26277  0.81669  Biso   1.000  H
  H13      1.0000 0.66031  0.23875  0.87221  Biso   1.000  H
  N8       1.0000 0.67043  0.17076  0.82712  Biso   1.000  N
  H14      1.0000 0.63149  0.26299  0.87681  Biso   1.000  H
  H15      1.0000 0.64283  0.29679  0.82319  Biso   1.000  H
  H16      1.0000 0.51367  0.39082  0.84322  Biso   1.000  H
  H17      1.0000 0.51368  0.39082  0.84318  Biso   1.000  H
  H18      1.0000 0.51370  0.39076  0.84322  Biso   1.000  H
  H19      1.0000 0.48269  0.41676  0.85261  Biso   1.000  H
  C22      1.0000 0.43236  0.02252  0.80841  Biso   1.000  C
  C23      1.0000 0.43239  0.02246  0.80841  Biso   1.000  C
  C24      1.0000 0.42198  0.04000  0.80559  Biso   1.000  C
  H20      1.0000 0.46116  0.12075  0.78521  Biso   1.000  H
  H21      1.0000 0.50856  0.07732  0.82480  Biso   1.000  H
  H22      1.0000 0.46119  0.12069  0.78521  Biso   1.000  H
  H23      1.0000 0.50862  0.07732  0.82480  Biso   1.000  H
  H24      1.0000 0.50865  0.07725  0.82480  Biso   1.000  H
  H25      1.0000 0.49342  0.09274  0.82940  Biso   1.000  H
  H26      1.0000 0.45966  0.13455  0.78589  Biso   1.000  H
  H27      1.0000 0.35280  0.43733  0.85311  Biso   1.000  H
  H28      1.0000 0.35282  0.43726  0.85311  Biso   1.000  H
  H29      1.0000 0.32429  0.45848  0.85471  Biso   1.000  H
  H30      1.0000 0.66951  0.13181  0.80281  Biso   1.000  H
  H31      1.0000 0.67002  0.10992  0.85339  Biso   1.000  H
  C25      1.0000 0.79287  0.10090  0.81952  Biso   1.000  C
  H32      1.0000 0.66954  0.13174  0.80281  Biso   1.000  H
  H33      1.0000 0.67005  0.10986  0.85339  Biso   1.000  H
  H34      1.0000 0.64923  0.13689  0.84740  Biso   1.000  H
  H35      1.0000 0.65678  0.16779  0.79810  Biso   1.000  H
  C26      1.0000 0.77337  0.13529  0.82262  Biso   1.000  C
  C27      1.0000 0.33478  0.06690  0.78371  Biso   1.000  C
  C28      1.0000 0.34089  0.04672  0.79110  Biso   1.000  C
  C29      1.0000 0.34092  0.04665  0.79110  Biso   1.000  C
  H36      1.0000 0.41503  0.00895  0.83611  Biso   1.000  H
  H37      1.0000 0.43080  0.99161  0.83951  Biso   1.000  H
  C30      1.0000 0.50469  0.96104  0.77011  Biso   1.000  C
  C31      1.0000 0.50472  0.96098  0.77011  Biso   1.000  C
  H38      1.0000 0.43077  0.99167  0.83951  Biso   1.000  H
  C32      1.0000 0.49821  0.97821  0.76861  Biso   1.000  C
  C33      1.0000 0.83145  0.00285  0.81630  Biso   1.000  C
  C34      1.0000 0.83271  0.13061  0.77189  Biso   1.000  C
  H39      1.0000 0.81541  0.11669  0.84590  Biso   1.000  H
  C35      1.0000 0.83148  0.00279  0.81630  Biso   1.000  C
  C36      1.0000 0.83274  0.13054  0.77189  Biso   1.000  C
  C37      1.0000 0.81611  0.03735  0.81730  Biso   1.000  C
  C38      1.0000 0.81890  0.16885  0.77850  Biso   1.000  C
  H40      1.0000 0.78915  0.15046  0.85179  Biso   1.000  H
  H41      1.0000 0.33330  0.08930  0.76511  Biso   1.000  H
  H42      1.0000 0.28696  0.06953  0.81741  Biso   1.000  H
  H43      1.0000 0.28699  0.06947  0.81741  Biso   1.000  H
  H44      1.0000 0.33231  0.11000  0.75840  Biso   1.000  H
  H45      1.0000 0.27784  0.09015  0.80831  Biso   1.000  H
  C39      1.0000 0.34708  0.98283  0.76322  Biso   1.000  C
  C40      1.0000 0.35265  0.96094  0.77311  Biso   1.000  C
  C41      1.0000 0.35268  0.96088  0.77311  Biso   1.000  C
  C42      1.0000 0.35271  0.96094  0.77311  Biso   1.000  C
  C43      1.0000 0.45367  0.91492  0.75119  Biso   1.000  C
  C44      1.0000 0.45373  0.91492  0.75119  Biso   1.000  C
  C45      1.0000 0.44974  0.93067  0.74862  Biso   1.000  C
  H46      1.0000 0.51777  0.01211  0.74230  Biso   1.000  H
  N9       1.0000 0.58977  0.89949  0.78732  Biso   1.000  N
  H47      1.0000 0.52312  0.99513  0.74359  Biso   1.000  H
  N10      1.0000 0.58974  0.89956  0.78732  Biso   1.000  N
  N11      1.0000 0.58983  0.89949  0.78732  Biso   1.000  N
  N12      1.0000 0.58170  0.91833  0.78771  Biso   1.000  N
  H48      1.0000 0.76877  0.01909  0.81002  Biso   1.000  H
  C46      1.0000 0.89589  0.01696  0.77461  Biso   1.000  C
  N13      1.0000 0.86315  0.96323  0.86117  Biso   1.000  N
  H49      1.0000 0.78207  0.98601  0.81041  Biso   1.000  H
  C47      1.0000 0.91009  0.97850  0.77289  Biso   1.000  C
  C48      1.0000 0.91006  0.97856  0.77289  Biso   1.000  C
  N14      1.0000 0.86321  0.96323  0.86117  Biso   1.000  N
  N15      1.0000 0.84736  0.99587  0.86192  Biso   1.000  N
  C49      1.0000 0.87499  0.05111  0.74041  Biso   1.000  C
  H50      1.0000 0.78318  0.17769  0.75819  Biso   1.000  H
  H51      1.0000 0.88058  0.15012  0.77600  Biso   1.000  H
  H52      1.0000 0.78324  0.17769  0.75819  Biso   1.000  H
  C50      1.0000 0.87502  0.05105  0.74041  Biso   1.000  C
  H53      1.0000 0.88061  0.15005  0.77600  Biso   1.000  H
  C51      1.0000 0.86241  0.09290  0.74409  Biso   1.000  C
  H54      1.0000 0.86670  0.18519  0.78621  Biso   1.000  H
  H55      1.0000 0.77212  0.21887  0.76490  Biso   1.000  H
  H56      1.0000 0.31310  0.96969  0.74890  Biso   1.000  H
  H57      1.0000 0.31307  0.96975  0.74890  Biso   1.000  H
  H58      1.0000 0.31586  0.99372  0.73530  Biso   1.000  H
  H59      1.0000 0.31970  0.95205  0.78749  Biso   1.000  H
  H60      1.0000 0.33512  0.92750  0.79981  Biso   1.000  H
  H61      1.0000 0.33509  0.92756  0.79981  Biso   1.000  H
  H62      1.0000 0.46222  0.91770  0.71599  Biso   1.000  H
  H63      1.0000 0.47776  0.85413  0.76090  Biso   1.000  H
  H64      1.0000 0.47778  0.85407  0.76090  Biso   1.000  H
  H65      1.0000 0.46220  0.91777  0.71599  Biso   1.000  H
  H66      1.0000 0.47782  0.85413  0.76090  Biso   1.000  H
  H67      1.0000 0.46771  0.87241  0.76201  Biso   1.000  H
  H68      1.0000 0.46736  0.92624  0.71342  Biso   1.000  H
  H69      1.0000 0.57536  0.86230  0.80802  Biso   1.000  H
  H70      1.0000 0.61195  0.92835  0.80320  Biso   1.000  H
  C52      1.0000 0.66251  0.85121  0.74669  Biso   1.000  C
  H71      1.0000 0.57544  0.86230  0.80798  Biso   1.000  H
  H72      1.0000 0.61198  0.92829  0.80320  Biso   1.000  H
  H73      1.0000 0.57540  0.86236  0.80802  Biso   1.000  H
  H74      1.0000 0.59219  0.94546  0.81059  Biso   1.000  H
  H75      1.0000 0.57127  0.87317  0.80149  Biso   1.000  H
  C53      1.0000 0.66497  0.88712  0.74930  Biso   1.000  C
  H76      1.0000 0.95412  0.00976  0.78460  Biso   1.000  H
  H77      1.0000 0.96888  0.97333  0.78150  Biso   1.000  H
  H78      1.0000 0.90649  0.96465  0.75779  Biso   1.000  H
  H79      1.0000 0.79691  0.00940  0.88570  Biso   1.000  H
  H80      1.0000 0.88534  0.01758  0.87010  Biso   1.000  H
  H81      1.0000 0.90238  0.98455  0.86821  Biso   1.000  H
  H82      1.0000 0.81307  0.97894  0.88520  Biso   1.000  H
  C54      1.0000 0.91077  0.86935  0.85982  Biso   1.000  C
  H83      1.0000 0.90241  0.98449  0.86821  Biso   1.000  H
  H84      1.0000 0.81310  0.97887  0.88520  Biso   1.000  H
  C55      1.0000 0.91082  0.86928  0.85978  Biso   1.000  C
  C56      1.0000 0.91079  0.86935  0.85978  Biso   1.000  C
  C57      1.0000 0.89724  0.90216  0.85900  Biso   1.000  C
  H85      1.0000 0.92026  0.92423  0.75840  Biso   1.000  H
  H86      1.0000 0.92029  0.92417  0.75840  Biso   1.000  H
  H87      1.0000 0.82748  0.04645  0.72481  Biso   1.000  H
  H88      1.0000 0.92630  0.05283  0.71542  Biso   1.000  H
  H89      1.0000 0.82751  0.04639  0.72481  Biso   1.000  H
  H90      1.0000 0.92631  0.05283  0.71538  Biso   1.000  H
  H91      1.0000 0.92633  0.05276  0.71542  Biso   1.000  H
  H92      1.0000 0.91463  0.09655  0.72060  Biso   1.000  H
  H93      1.0000 0.81583  0.09079  0.72681  Biso   1.000  H
  H94      1.0000 0.67671  0.89203  0.72370  Biso   1.000  H
  H95      1.0000 0.63846  0.81902  0.72991  Biso   1.000  H
  C58      1.0000 0.75040  0.79004  0.76301  Biso   1.000  C
  C59      1.0000 0.75043  0.78997  0.76301  Biso   1.000  C
  H96      1.0000 0.64786  0.87176  0.72099  Biso   1.000  H
  C60      1.0000 0.74488  0.81105  0.76379  Biso   1.000  C
  H97      1.0000 0.68508  0.93405  0.73991  Biso   1.000  H
  C61      1.0000 0.92601  0.83493  0.90880  Biso   1.000  C
  H98      1.0000 0.97130  0.85155  0.83790  Biso   1.000  H
  H99      1.0000 0.87279  0.84549  0.84761  Biso   1.000  H
  H100     1.0000 0.97133  0.85148  0.83790  Biso   1.000  H
  H101     1.0000 0.87276  0.84556  0.84761  Biso   1.000  H
  C62      1.0000 0.91719  0.86563  0.90712  Biso   1.000  C
  H102     1.0000 0.85928  0.87774  0.84729  Biso   1.000  H
  H103     1.0000 0.95637  0.88646  0.83590  Biso   1.000  H
  N16      1.0000 0.74115  0.76395  0.80809  Biso   1.000  N
  C63      1.0000 0.83762  0.77199  0.73420  Biso   1.000  C
  N17      1.0000 0.74118  0.76389  0.80809  Biso   1.000  N
  C64      1.0000 0.83759  0.77206  0.73420  Biso   1.000  C
  N18      1.0000 0.73706  0.78996  0.80981  Biso   1.000  N
  C65      1.0000 0.81957  0.76065  0.72909  Biso   1.000  C
  N19      1.0000 0.87796  0.88963  0.94560  Biso   1.000  N
  C66      1.0000 0.98818  0.75304  0.91461  Biso   1.000  C
  N20      1.0000 0.87797  0.88963  0.94556  Biso   1.000  N
  C67      1.0000 0.98821  0.75298  0.91461  Biso   1.000  C
  N21      1.0000 0.87185  0.91887  0.94481  Biso   1.000  N
  C68      1.0000 0.97626  0.78201  0.91162  Biso   1.000  C
  C69      1.0000 0.81879  0.70371  0.82180  Biso   1.000  C
  C70      1.0000 0.81419  0.72876  0.82351  Biso   1.000  C
  H104     1.0000 0.84309  0.80184  0.70521  Biso   1.000  H
  C71      1.0000 0.91480  0.71010  0.74901  Biso   1.000  C
  H105     1.0000 0.84312  0.80178  0.70521  Biso   1.000  H
  C72      1.0000 0.91477  0.71016  0.74901  Biso   1.000  C
  H106     1.0000 0.81738  0.76965  0.69611  Biso   1.000  H
  C73      1.0000 0.89610  0.69812  0.74430  Biso   1.000  C
  C74      1.0000 0.88911  0.86034  0.98969  Biso   1.000  C
  C75      1.0000 0.88914  0.86028  0.98969  Biso   1.000  C
  C76      1.0000 0.88426  0.88683  0.98829  Biso   1.000  C
  C77      1.0000 0.99709  0.72281  0.96049  Biso   1.000  C
  C78      1.0000 0.99389  0.75165  0.95649  Biso   1.000  C
  H107     1.0000 0.02449  0.71771  0.88780  Biso   1.000  H
  H108     1.0000 0.00466  0.74565  0.88441  Biso   1.000  H
  C79      1.0000 0.90177  0.66835  0.79121  Biso   1.000  C
  C80      1.0000 0.80750  0.67372  0.87249  Biso   1.000  C
  C81      1.0000 0.90180  0.66829  0.79121  Biso   1.000  C
  C82      1.0000 0.89699  0.69231  0.79271  Biso   1.000  C
  C83      1.0000 0.80431  0.70221  0.87481  Biso   1.000  C
  H109     1.0000 0.97518  0.69642  0.73081  Biso   1.000  H
  H110     1.0000 0.94636  0.66027  0.72220  Biso   1.000  H
  C84      1.0000 0.95070  0.77963  0.99840  Biso   1.000  C
  C85      1.0000 0.94335  0.80445  0.99561  Biso   1.000  C
  C86      1.0000 0.82619  0.94877  0.02820  Biso   1.000  C
  C87      1.0000 0.83360  0.92042  0.02838  Biso   1.000  C
  H111     1.0000 0.03419  0.66442  0.96591  Biso   1.000  H
  H112     1.0000 0.03946  0.69586  0.96041  Biso   1.000  H
  H113     1.0000 0.94946  0.61624  0.79881  Biso   1.000  H
  H114     1.0000 0.94949  0.61617  0.79881  Biso   1.000  H
  H115     1.0000 0.95358  0.66386  0.80441  Biso   1.000  H
  N22      1.0000 0.71697  0.73070  0.89994  Biso   1.000  N
  H116     1.0000 0.81135  0.61484  0.87292  Biso   1.000  H
  H117     1.0000 0.85829  0.67300  0.88752  Biso   1.000  H
  H118     1.0000 0.81139  0.61478  0.87288  Biso   1.000  H
  H119     1.0000 0.85830  0.67300  0.88748  Biso   1.000  H
  N23      1.0000 0.71695  0.73077  0.89994  Biso   1.000  N
  H120     1.0000 0.85826  0.67307  0.88752  Biso   1.000  H
  H121     1.0000 0.81142  0.61484  0.87288  Biso   1.000  H
  N24      1.0000 0.71139  0.75607  0.90141  Biso   1.000  N
  H122     1.0000 0.85251  0.70763  0.88941  Biso   1.000  H
  H123     1.0000 0.81347  0.64163  0.87681  Biso   1.000  H
  H124     1.0000 0.96160  0.76263  0.02981  Biso   1.000  H
  H125     1.0000 0.96157  0.76270  0.02981  Biso   1.000  H
  H126     1.0000 0.96166  0.76263  0.02981  Biso   1.000  H
  H127     1.0000 0.94979  0.78349  0.02710  Biso   1.000  H
  H128     1.0000 0.84047  0.92168  0.05912  Biso   1.000  H
  H129     1.0000 0.75953  0.96474  0.02820  Biso   1.000  H
  H130     1.0000 0.84049  0.92168  0.05908  Biso   1.000  H
  H131     1.0000 0.75950  0.96480  0.02820  Biso   1.000  H
  H132     1.0000 0.84058  0.92162  0.05908  Biso   1.000  H
  N25      1.0000 0.85041  0.99823  0.02339  Biso   1.000  N
  H133     1.0000 0.84858  0.89282  0.05919  Biso   1.000  H
  H134     1.0000 0.76699  0.93581  0.02881  Biso   1.000  H
  N26      1.0000 0.84530  0.02542  0.02199  Biso   1.000  N
  H135     1.0000 0.67059  0.72862  0.88709  Biso   1.000  H
  H136     1.0000 0.71208  0.78535  0.89759  Biso   1.000  H
  C88      1.0000 0.70540  0.70633  0.95170  Biso   1.000  C
  H137     1.0000 0.71211  0.78528  0.89759  Biso   1.000  H
  C89      1.0000 0.70543  0.70627  0.95170  Biso   1.000  C
  H138     1.0000 0.66745  0.74945  0.88841  Biso   1.000  H
  C90      1.0000 0.69976  0.73393  0.95349  Biso   1.000  C
  H139     1.0000 0.70227  0.81186  0.89830  Biso   1.000  H
  H140     1.0000 0.83688  0.04645  0.99219  Biso   1.000  H
  H141     1.0000 0.83691  0.04639  0.99219  Biso   1.000  H
  H142     1.0000 0.83989  0.02099  0.99418  Biso   1.000  H
  H143     1.0000 0.91133  0.98329  0.02410  Biso   1.000  H
  H144     1.0000 0.90610  0.00959  0.02349  Biso   1.000  H
  H145     1.0000 0.90608  0.00966  0.02349  Biso   1.000  H
  C91      1.0000 0.79317  0.06570  0.06019  Biso   1.000  C
  C92      1.0000 0.78770  0.09543  0.05730  Biso   1.000  C
  C93      1.0000 0.78773  0.09537  0.05730  Biso   1.000  C
  H146     1.0000 0.71418  0.64530  0.95449  Biso   1.000  H
  C94      1.0000 0.77347  0.71924  0.97741  Biso   1.000  C
  C95      1.0000 0.60996  0.76261  0.97762  Biso   1.000  C
  C96      1.0000 0.77350  0.71918  0.97741  Biso   1.000  C
  C97      1.0000 0.60997  0.76261  0.97759  Biso   1.000  C
  H147     1.0000 0.71415  0.64537  0.95449  Biso   1.000  H
  C98      1.0000 0.60993  0.76267  0.97762  Biso   1.000  C
  C99      1.0000 0.61003  0.76261  0.97759  Biso   1.000  C
  H148     1.0000 0.71128  0.67221  0.95731  Biso   1.000  H
  C100     1.0000 0.60305  0.78873  0.97851  Biso   1.000  C
  C101     1.0000 0.76489  0.75253  0.97891  Biso   1.000  C
  C102     1.0000 0.80940  0.07572  0.10820  Biso   1.000  C
  H149     1.0000 0.72109  0.10681  0.05880  Biso   1.000  H
  C103     1.0000 0.80368  0.14919  0.04759  Biso   1.000  C
  C104     1.0000 0.81701  0.04189  0.11060  Biso   1.000  C
  H150     1.0000 0.72648  0.07701  0.06201  Biso   1.000  H
  C105     1.0000 0.79896  0.17802  0.04259  Biso   1.000  C
  C106     1.0000 0.79902  0.17802  0.04259  Biso   1.000  C
  H151     1.0000 0.83247  0.66744  0.97519  Biso   1.000  H
  H152     1.0000 0.78708  0.76831  0.96409  Biso   1.000  H
  H153     1.0000 0.83250  0.66737  0.97519  Biso   1.000  H
  H154     1.0000 0.82547  0.70277  0.97719  Biso   1.000  H
  C107     1.0000 0.72225  0.73644  0.02849  Biso   1.000  C
  C108     1.0000 0.72222  0.73650  0.02849  Biso   1.000  C
  C109     1.0000 0.71281  0.77017  0.02992  Biso   1.000  C
  N27      1.0000 0.54729  0.71575  0.98762  Biso   1.000  N
  H155     1.0000 0.58197  0.81315  0.95709  Biso   1.000  H
  N28      1.0000 0.54732  0.71568  0.98762  Biso   1.000  N
  H156     1.0000 0.58199  0.81309  0.95709  Biso   1.000  H
  N29      1.0000 0.54137  0.74091  0.98779  Biso   1.000  N
  C110     1.0000 0.62451  0.79374  0.02271  Biso   1.000  C
  C111     1.0000 0.62449  0.79381  0.02271  Biso   1.000  C
  H157     1.0000 0.57530  0.83857  0.95749  Biso   1.000  H
  C112     1.0000 0.61424  0.82255  0.02360  Biso   1.000  C
  H158     1.0000 0.77537  0.80274  0.96491  Biso   1.000  H
  C113     1.0000 0.85207  0.13740  0.11570  Biso   1.000  C
  H159     1.0000 0.85374  0.01565  0.11081  Biso   1.000  H
  H160     1.0000 0.75194  0.08644  0.13201  Biso   1.000  H
  H161     1.0000 0.85383  0.01558  0.11081  Biso   1.000  H
  H162     1.0000 0.75203  0.08638  0.13201  Biso   1.000  H
  C114     1.0000 0.85204  0.13747  0.11570  Biso   1.000  C
  H163     1.0000 0.85381  0.01565  0.11081  Biso   1.000  H
  H164     1.0000 0.75200  0.08644  0.13201  Biso   1.000  H
  C115     1.0000 0.85213  0.13740  0.11570  Biso   1.000  C
  C116     1.0000 0.86131  0.10192  0.11909  Biso   1.000  C
  H165     1.0000 0.76041  0.05172  0.13469  Biso   1.000  H
  H166     1.0000 0.86016  0.16360  0.02082  Biso   1.000  H
  C117     1.0000 0.80051  0.21740  0.08861  Biso   1.000  C
  H167     1.0000 0.86022  0.16360  0.02082  Biso   1.000  H
  H168     1.0000 0.86019  0.16367  0.02082  Biso   1.000  H
  C118     1.0000 0.80048  0.21746  0.08861  Biso   1.000  C
  N30      1.0000 0.72743  0.20839  0.02349  Biso   1.000  N
  H169     1.0000 0.86399  0.13618  0.02531  Biso   1.000  H
  C119     1.0000 0.80776  0.18443  0.09432  Biso   1.000  C
  H170     1.0000 0.86120  0.98143  0.11181  Biso   1.000  H
  N31      1.0000 0.72400  0.23439  0.01700  Biso   1.000  N
  N32      1.0000 0.72397  0.23446  0.01700  Biso   1.000  N
  H171     1.0000 0.72530  0.68286  0.04502  Biso   1.000  H
  H172     1.0000 0.74770  0.76545  0.04659  Biso   1.000  H
  H173     1.0000 0.72529  0.68293  0.04498  Biso   1.000  H
  H174     1.0000 0.74767  0.76551  0.04659  Biso   1.000  H
  H175     1.0000 0.72532  0.68286  0.04498  Biso   1.000  H
  H176     1.0000 0.71892  0.71647  0.04709  Biso   1.000  H
  H177     1.0000 0.73535  0.80256  0.04741  Biso   1.000  H
  H178     1.0000 0.54217  0.69943  0.95909  Biso   1.000  H
  H179     1.0000 0.54348  0.71853  0.95949  Biso   1.000  H
  H180     1.0000 0.48199  0.77975  0.99729  Biso   1.000  H
  H181     1.0000 0.48972  0.75334  0.00122  Biso   1.000  H
  C120     1.0000 0.57531  0.63853  0.01889  Biso   1.000  C
  H182     1.0000 0.48969  0.75340  0.00122  Biso   1.000  H
  C121     1.0000 0.57529  0.63860  0.01889  Biso   1.000  C
  C122     1.0000 0.56182  0.67024  0.02371  Biso   1.000  C
  H183     1.0000 0.61642  0.85393  0.01921  Biso   1.000  H
  H184     1.0000 0.57951  0.78936  0.05069  Biso   1.000  H
  H185     1.0000 0.61639  0.85400  0.01921  Biso   1.000  H
  H186     1.0000 0.57948  0.78943  0.05069  Biso   1.000  H
  H187     1.0000 0.57029  0.81600  0.05152  Biso   1.000  H
  H188     1.0000 0.60215  0.88376  0.02010  Biso   1.000  H
  H189     1.0000 0.91947  0.11310  0.10260  Biso   1.000  H
  H190     1.0000 0.84266  0.15013  0.15001  Biso   1.000  H
  H191     1.0000 0.91945  0.11316  0.10260  Biso   1.000  H
  H192     1.0000 0.91954  0.11310  0.10260  Biso   1.000  H
  H193     1.0000 0.84272  0.15013  0.15001  Biso   1.000  H
  H194     1.0000 0.85412  0.11158  0.15361  Biso   1.000  H
  H195     1.0000 0.92819  0.07812  0.10488  Biso   1.000  H
  H196     1.0000 0.73700  0.25055  0.10610  Biso   1.000  H
  H197     1.0000 0.83447  0.25451  0.08200  Biso   1.000  H
  H198     1.0000 0.73703  0.25049  0.10610  Biso   1.000  H
  H199     1.0000 0.83453  0.25451  0.08200  Biso   1.000  H
  H200     1.0000 0.84164  0.22167  0.08850  Biso   1.000  H
  H201     1.0000 0.74503  0.21618  0.11299  Biso   1.000  H
  H202     1.0000 0.72480  0.20539  0.99151  Biso   1.000  H
  H203     1.0000 0.72432  0.18042  0.99868  Biso   1.000  H
  H204     1.0000 0.66839  0.24713  0.03681  Biso   1.000  H
  H205     1.0000 0.67288  0.22312  0.04448  Biso   1.000  H
  C123     1.0000 0.73718  0.28750  0.00529  Biso   1.000  C
  C124     1.0000 0.73057  0.31530  0.99990  Biso   1.000  C
  C125     1.0000 0.73064  0.31530  0.99990  Biso   1.000  C
  H206     1.0000 0.58579  0.65378  0.04930  Biso   1.000  H
  H207     1.0000 0.63434  0.59364  0.00300  Biso   1.000  H
  C126     1.0000 0.50143  0.60464  0.02910  Biso   1.000  C
  H208     1.0000 0.63431  0.59370  0.00300  Biso   1.000  H
  C127     1.0000 0.50141  0.60470  0.02910  Biso   1.000  C
  H209     1.0000 0.62303  0.62366  0.01210  Biso   1.000  H
  C128     1.0000 0.48811  0.63608  0.03181  Biso   1.000  C
  H210     1.0000 0.56451  0.69188  0.05419  Biso   1.000  H
  H211     1.0000 0.78846  0.30285  0.97619  Biso   1.000  H
  H212     1.0000 0.78848  0.30279  0.97619  Biso   1.000  H
  C129     1.0000 0.65509  0.34378  0.98319  Biso   1.000  C
  H213     1.0000 0.79477  0.27281  0.98119  Biso   1.000  H
  H214     1.0000 0.73268  0.34655  0.02699  Biso   1.000  H
  H215     1.0000 0.73271  0.34648  0.02699  Biso   1.000  H
  H216     1.0000 0.74180  0.31842  0.03181  Biso   1.000  H
  C130     1.0000 0.64830  0.36940  0.97741  Biso   1.000  C
  N33      1.0000 0.42254  0.65445  0.01350  Biso   1.000  N
  C131     1.0000 0.51258  0.53217  0.05512  Biso   1.000  C
  N34      1.0000 0.42251  0.65452  0.01350  Biso   1.000  N
  C132     1.0000 0.51259  0.53217  0.05509  Biso   1.000  C
  C133     1.0000 0.51265  0.53217  0.05509  Biso   1.000  C
  N35      1.0000 0.41384  0.68215  0.01161  Biso   1.000  N
  C134     1.0000 0.49843  0.56245  0.05651  Biso   1.000  C
  N36      1.0000 0.57745  0.34553  0.98651  Biso   1.000  N
  N37      1.0000 0.57752  0.34553  0.98651  Biso   1.000  N
  N38      1.0000 0.57748  0.34546  0.98651  Biso   1.000  N
  N39      1.0000 0.58621  0.31783  0.98840  Biso   1.000  N
  C135     1.0000 0.65300  0.41450  0.95531  Biso   1.000  C
  C136     1.0000 0.64286  0.44193  0.95060  Biso   1.000  C
  C137     1.0000 0.64289  0.44186  0.95060  Biso   1.000  C
  C138     1.0000 0.64292  0.44193  0.95060  Biso   1.000  C
  C139     1.0000 0.35170  0.63058  0.02260  Biso   1.000  C
  C140     1.0000 0.34490  0.65620  0.01682  Biso   1.000  C
  H217     1.0000 0.56949  0.49854  0.06562  Biso   1.000  H
  C141     1.0000 0.43874  0.50914  0.06551  Biso   1.000  C
  H218     1.0000 0.56952  0.49860  0.06562  Biso   1.000  H
  C142     1.0000 0.43871  0.50920  0.06551  Biso   1.000  C
  H219     1.0000 0.56955  0.49854  0.06562  Biso   1.000  H
  H220     1.0000 0.55378  0.52927  0.06840  Biso   1.000  H
  C143     1.0000 0.42572  0.53786  0.06351  Biso   1.000  C
  C144     1.0000 0.49856  0.39534  0.97091  Biso   1.000  C
  C145     1.0000 0.49859  0.39528  0.97091  Biso   1.000  C
  C146     1.0000 0.51189  0.36390  0.96820  Biso   1.000  C
  C147     1.0000 0.56125  0.49085  0.93450  Biso   1.000  C
  H221     1.0000 0.69409  0.45720  0.94349  Biso   1.000  H
  C148     1.0000 0.56128  0.49078  0.93450  Biso   1.000  C
  C149     1.0000 0.56132  0.49085  0.93450  Biso   1.000  C
  C150     1.0000 0.57428  0.46212  0.93650  Biso   1.000  C
  H222     1.0000 0.70448  0.42953  0.94960  Biso   1.000  H
  C151     1.0000 0.35714  0.55805  0.04941  Biso   1.000  C
  C152     1.0000 0.26942  0.68468  0.00011  Biso   1.000  C
  C153     1.0000 0.35711  0.55812  0.04941  Biso   1.000  C
  C154     1.0000 0.34699  0.58548  0.04470  Biso   1.000  C
  C155     1.0000 0.26279  0.71255  0.99472  Biso   1.000  C
  H223     1.0000 0.44400  0.45947  0.08389  Biso   1.000  H
  H224     1.0000 0.42993  0.48800  0.08139  Biso   1.000  H
  C156     1.0000 0.42468  0.36145  0.98112  Biso   1.000  C
  C157     1.0000 0.48742  0.46781  0.94489  Biso   1.000  C
  C158     1.0000 0.42472  0.36138  0.98108  Biso   1.000  C
  C159     1.0000 0.42471  0.36138  0.98112  Biso   1.000  C
  C160     1.0000 0.48745  0.46775  0.94489  Biso   1.000  C
  C161     1.0000 0.43820  0.32967  0.97630  Biso   1.000  C
  C162     1.0000 0.50157  0.43753  0.94349  Biso   1.000  C
  H225     1.0000 0.55600  0.54051  0.91611  Biso   1.000  H
  H226     1.0000 0.55603  0.54045  0.91611  Biso   1.000  H
  H227     1.0000 0.57013  0.51199  0.91861  Biso   1.000  H
  H228     1.0000 0.30591  0.54278  0.05651  Biso   1.000  H
  H229     1.0000 0.29552  0.57045  0.05041  Biso   1.000  H
  N40      1.0000 0.27597  0.76565  0.98301  Biso   1.000  N
  H230     1.0000 0.26729  0.65350  0.97302  Biso   1.000  H
  N41      1.0000 0.27600  0.76559  0.98301  Biso   1.000  N
  H231     1.0000 0.26726  0.65356  0.97302  Biso   1.000  H
  H232     1.0000 0.25817  0.68162  0.96820  Biso   1.000  H
  H233     1.0000 0.21154  0.69713  0.02381  Biso   1.000  H
  H234     1.0000 0.21151  0.69719  0.02381  Biso   1.000  H
  H235     1.0000 0.20523  0.72717  0.01882  Biso   1.000  H
  N42      1.0000 0.27260  0.79165  0.97651  Biso   1.000  N
  H236     1.0000 0.41421  0.34620  0.95070  Biso   1.000  H
  H237     1.0000 0.36566  0.40634  0.99700  Biso   1.000  H
  H238     1.0000 0.36569  0.40628  0.99700  Biso   1.000  H
  H239     1.0000 0.37696  0.37632  0.98790  Biso   1.000  H
  N43      1.0000 0.45268  0.28430  0.01239  Biso   1.000  N
  N44      1.0000 0.45265  0.28436  0.01239  Biso   1.000  N
  N45      1.0000 0.45274  0.28430  0.01239  Biso   1.000  N
  H240     1.0000 0.43051  0.50144  0.93439  Biso   1.000  H
  H241     1.0000 0.43054  0.50138  0.93439  Biso   1.000  H
  H242     1.0000 0.44622  0.47071  0.93161  Biso   1.000  H
  H243     1.0000 0.43549  0.30810  0.94581  Biso   1.000  H
  N46      1.0000 0.45862  0.25907  0.01221  Biso   1.000  N
  H244     1.0000 0.33158  0.75291  0.96320  Biso   1.000  H
  C163     1.0000 0.20101  0.82203  0.95742  Biso   1.000  C
  H245     1.0000 0.32710  0.77693  0.95549  Biso   1.000  H
  H246     1.0000 0.27519  0.79459  0.00850  Biso   1.000  H
  H247     1.0000 0.27522  0.79452  0.00850  Biso   1.000  H
  H248     1.0000 0.27569  0.81956  0.00129  Biso   1.000  H
  C164     1.0000 0.19629  0.85085  0.95242  Biso   1.000  C
  H249     1.0000 0.51028  0.24664  0.99879  Biso   1.000  H
  H250     1.0000 0.51031  0.24658  0.99879  Biso   1.000  H
  H251     1.0000 0.45780  0.30061  0.04091  Biso   1.000  H
  C165     1.0000 0.39001  0.23744  0.02239  Biso   1.000  C
  C166     1.0000 0.39004  0.23737  0.02239  Biso   1.000  C
  H252     1.0000 0.45650  0.28152  0.04048  Biso   1.000  H
  H253     1.0000 0.51798  0.22030  0.00272  Biso   1.000  H
  C167     1.0000 0.39692  0.21131  0.02149  Biso   1.000  C
  H254     1.0000 0.13981  0.83644  0.97919  Biso   1.000  H
  C168     1.0000 0.19946  0.78265  0.91140  Biso   1.000  C
  C169     1.0000 0.21227  0.90461  0.94271  Biso   1.000  C
  H255     1.0000 0.13984  0.83638  0.97919  Biso   1.000  H
  C170     1.0000 0.19949  0.78258  0.91140  Biso   1.000  C
  H256     1.0000 0.13598  0.86386  0.97469  Biso   1.000  H
  C171     1.0000 0.19220  0.81562  0.90569  Biso   1.000  C
  C172     1.0000 0.20679  0.93435  0.93982  Biso   1.000  C
  C173     1.0000 0.37548  0.20624  0.97730  Biso   1.000  C
  C174     1.0000 0.37551  0.20618  0.97730  Biso   1.000  C
  C175     1.0000 0.29457  0.29371  0.04830  Biso   1.000  C
  H257     1.0000 0.41800  0.18690  0.04291  Biso   1.000  H
  H258     1.0000 0.41797  0.18696  0.04291  Biso   1.000  H
  C176     1.0000 0.29463  0.29371  0.04830  Biso   1.000  C
  C177     1.0000 0.30021  0.26611  0.04652  Biso   1.000  C
  C178     1.0000 0.38576  0.17743  0.97641  Biso   1.000  C
  H259     1.0000 0.42474  0.16148  0.04248  Biso   1.000  H
  H260     1.0000 0.26297  0.74949  0.89391  Biso   1.000  H
  H261     1.0000 0.16550  0.74553  0.91801  Biso   1.000  H
  C179     1.0000 0.14790  0.86264  0.88431  Biso   1.000  C
  H262     1.0000 0.26303  0.74949  0.89391  Biso   1.000  H
  H263     1.0000 0.16553  0.74547  0.91801  Biso   1.000  H
  C180     1.0000 0.14793  0.86258  0.88431  Biso   1.000  C
  H264     1.0000 0.26300  0.74956  0.89391  Biso   1.000  H
  H265     1.0000 0.15839  0.77837  0.91151  Biso   1.000  H
  H266     1.0000 0.25494  0.78386  0.88702  Biso   1.000  H
  N47      1.0000 0.15466  0.97462  0.97801  Biso   1.000  N
  C181     1.0000 0.19057  0.92433  0.89180  Biso   1.000  C
  H267     1.0000 0.27888  0.89323  0.94121  Biso   1.000  H
  H268     1.0000 0.27891  0.89317  0.94121  Biso   1.000  H
  C182     1.0000 0.18296  0.95815  0.88941  Biso   1.000  C
  H269     1.0000 0.27349  0.92303  0.93800  Biso   1.000  H
  C183     1.0000 0.13866  0.89812  0.88092  Biso   1.000  C
  N48      1.0000 0.14960  0.00175  0.97659  Biso   1.000  N
  C184     1.0000 0.27775  0.26354  0.97152  Biso   1.000  C
  H270     1.0000 0.38358  0.14605  0.98080  Biso   1.000  H
  H271     1.0000 0.42049  0.21062  0.94931  Biso   1.000  H
  C185     1.0000 0.27778  0.26348  0.97152  Biso   1.000  C
  H272     1.0000 0.38361  0.14598  0.98080  Biso   1.000  H
  H273     1.0000 0.42052  0.21055  0.94931  Biso   1.000  H
  C186     1.0000 0.27781  0.26354  0.97152  Biso   1.000  C
  C187     1.0000 0.28719  0.22981  0.97009  Biso   1.000  C
  H274     1.0000 0.42971  0.18398  0.94849  Biso   1.000  H
  N49      1.0000 0.28299  0.26934  0.10006  Biso   1.000  N
  H275     1.0000 0.28579  0.35474  0.04552  Biso   1.000  H
  C188     1.0000 0.22650  0.28080  0.02260  Biso   1.000  C
  N50      1.0000 0.28302  0.26928  0.10006  Biso   1.000  N
  H276     1.0000 0.28583  0.35468  0.04548  Biso   1.000  H
  C189     1.0000 0.22647  0.28086  0.02260  Biso   1.000  C
  H277     1.0000 0.28580  0.35474  0.04548  Biso   1.000  H
  N51      1.0000 0.28864  0.24398  0.09860  Biso   1.000  N
  H278     1.0000 0.28871  0.32777  0.04270  Biso   1.000  H
  C190     1.0000 0.23508  0.24752  0.02110  Biso   1.000  C
  H279     1.0000 0.39791  0.11622  0.97991  Biso   1.000  H
  H280     1.0000 0.08049  0.88695  0.89741  Biso   1.000  H
  H281     1.0000 0.15731  0.84992  0.85000  Biso   1.000  H
  H282     1.0000 0.08052  0.88688  0.89741  Biso   1.000  H
  H283     1.0000 0.14584  0.88846  0.84640  Biso   1.000  H
  H284     1.0000 0.07179  0.92193  0.89509  Biso   1.000  H
  C191     1.0000 0.17381  0.05121  0.97180  Biso   1.000  C
  C192     1.0000 0.17384  0.05114  0.97180  Biso   1.000  C
  H285     1.0000 0.08872  0.01669  0.97591  Biso   1.000  H
  H286     1.0000 0.09386  0.99045  0.97651  Biso   1.000  H
  H287     1.0000 0.09389  0.99039  0.97651  Biso   1.000  H
  H288     1.0000 0.16311  0.95353  0.00782  Biso   1.000  H
  H289     1.0000 0.16310  0.95359  0.00779  Biso   1.000  H
  H290     1.0000 0.16308  0.95359  0.00782  Biso   1.000  H
  H291     1.0000 0.16312  0.95353  0.00779  Biso   1.000  H
  H292     1.0000 0.16012  0.97899  0.00579  Biso   1.000  H
  H293     1.0000 0.14622  0.98440  0.88920  Biso   1.000  H
  H294     1.0000 0.24802  0.91360  0.86799  Biso   1.000  H
  H295     1.0000 0.14619  0.98446  0.88920  Biso   1.000  H
  H296     1.0000 0.24800  0.91367  0.86799  Biso   1.000  H
  H297     1.0000 0.23956  0.94832  0.86532  Biso   1.000  H
  H298     1.0000 0.13880  0.01856  0.88820  Biso   1.000  H
  C193     1.0000 0.16641  0.07956  0.97159  Biso   1.000  C
  H299     1.0000 0.27469  0.31712  0.95499  Biso   1.000  H
  H300     1.0000 0.25229  0.23453  0.95342  Biso   1.000  H
  H301     1.0000 0.25232  0.23447  0.95342  Biso   1.000  H
  H302     1.0000 0.27472  0.31705  0.95499  Biso   1.000  H
  H303     1.0000 0.28107  0.28351  0.95292  Biso   1.000  H
  H304     1.0000 0.26471  0.19742  0.95260  Biso   1.000  H
  H305     1.0000 0.32938  0.27142  0.11292  Biso   1.000  H
  H306     1.0000 0.28788  0.21470  0.10242  Biso   1.000  H
  C194     1.0000 0.19247  0.32633  0.12752  Biso   1.000  C
  H307     1.0000 0.28790  0.21470  0.10238  Biso   1.000  H
  H308     1.0000 0.28786  0.21476  0.10242  Biso   1.000  H
  H309     1.0000 0.33251  0.25059  0.11159  Biso   1.000  H
  C195     1.0000 0.19566  0.29783  0.12520  Biso   1.000  C
  H310     1.0000 0.16749  0.33261  0.02481  Biso   1.000  H
  H311     1.0000 0.21288  0.23173  0.03592  Biso   1.000  H
  H312     1.0000 0.21291  0.23167  0.03592  Biso   1.000  H
  H313     1.0000 0.17449  0.29728  0.02281  Biso   1.000  H
  H314     1.0000 0.29769  0.18819  0.10171  Biso   1.000  H
  H315     1.0000 0.22460  0.19731  0.03509  Biso   1.000  H
  H316     1.0000 0.15952  0.07830  0.94089  Biso   1.000  H
  H317     1.0000 0.24046  0.03524  0.97180  Biso   1.000  H
  H318     1.0000 0.24049  0.03518  0.97180  Biso   1.000  H
  H319     1.0000 0.15141  0.10716  0.94082  Biso   1.000  H
  H320     1.0000 0.23301  0.06417  0.97120  Biso   1.000  H
  C196     1.0000 0.11093  0.13970  0.01028  Biso   1.000  C
  C197     1.0000 0.11571  0.11321  0.01171  Biso   1.000  C
  C198     1.0000 0.11086  0.13970  0.01032  Biso   1.000  C
  C199     1.0000 0.11089  0.13977  0.01032  Biso   1.000  C
  C200     1.0000 0.18118  0.29633  0.17821  Biso   1.000  C
  H321     1.0000 0.18862  0.38521  0.12709  Biso   1.000  H
  H322     1.0000 0.14168  0.32704  0.11249  Biso   1.000  H
  H323     1.0000 0.14171  0.32698  0.11249  Biso   1.000  H
  H324     1.0000 0.18859  0.38527  0.12709  Biso   1.000  H
  C201     1.0000 0.18578  0.27128  0.17649  Biso   1.000  C
  H325     1.0000 0.14752  0.29241  0.11060  Biso   1.000  H
  H326     1.0000 0.18650  0.35842  0.12320  Biso   1.000  H
  N52      1.0000 0.12201  0.11042  0.05441  Biso   1.000  N
  C202     1.0000 0.04927  0.22042  0.00161  Biso   1.000  C
  N53      1.0000 0.12812  0.08118  0.05519  Biso   1.000  N
  C203     1.0000 0.05662  0.19560  0.00439  Biso   1.000  C
  N54      1.0000 0.25881  0.23609  0.19191  Biso   1.000  N
  C204     1.0000 0.09819  0.33170  0.20880  Biso   1.000  C
  N55      1.0000 0.25878  0.23616  0.19191  Biso   1.000  N
  C205     1.0000 0.09816  0.33176  0.20880  Biso   1.000  C
  N56      1.0000 0.26291  0.21009  0.19020  Biso   1.000  N
  C206     1.0000 0.10300  0.30767  0.20730  Biso   1.000  C
  C207     1.0000 0.07396  0.16512  0.09121  Biso   1.000  C
  C208     1.0000 0.07402  0.16512  0.09121  Biso   1.000  C
  C209     1.0000 0.08277  0.13441  0.09289  Biso   1.000  C
  H327     1.0000 0.03840  0.23735  0.97020  Biso   1.000  H
  H328     1.0000 0.03843  0.23728  0.97020  Biso   1.000  H
  H329     1.0000 0.05021  0.21649  0.97291  Biso   1.000  H
  C210     1.0000 0.00287  0.27723  0.03952  Biso   1.000  C
  C211     1.0000 0.00289  0.27723  0.03949  Biso   1.000  C
  C212     1.0000 0.00609  0.24840  0.04348  Biso   1.000  C
  C213     1.0000 0.24957  0.21001  0.23700  Biso   1.000  C
  C214     1.0000 0.24963  0.21001  0.23700  Biso   1.000  C
  C215     1.0000 0.25508  0.18899  0.23622  Biso   1.000  C
  C216     1.0000 0.08517  0.28994  0.25099  Biso   1.000  C
  H330     1.0000 0.05051  0.38381  0.20120  Biso   1.000  H
  C217     1.0000 0.08520  0.28988  0.25099  Biso   1.000  C
  C218     1.0000 0.10387  0.30192  0.25571  Biso   1.000  C
  H331     1.0000 0.04638  0.33619  0.19559  Biso   1.000  H
  C219     1.0000 0.01178  0.24700  0.08539  Biso   1.000  C
  C220     1.0000 0.08919  0.13070  0.14019  Biso   1.000  C
  C221     1.0000 0.01175  0.24707  0.08539  Biso   1.000  C
  C222     1.0000 0.08916  0.13076  0.14019  Biso   1.000  C
  C223     1.0000 0.02374  0.21797  0.08839  Biso   1.000  C
  C224     1.0000 0.10272  0.09788  0.14101  Biso   1.000  C
  H332     1.0000 0.96578  0.33562  0.03409  Biso   1.000  H
  H333     1.0000 0.96051  0.30418  0.03959  Biso   1.000  H
  C225     1.0000 0.33745  0.14883  0.25332  Biso   1.000  C
  C226     1.0000 0.16235  0.22805  0.26581  Biso   1.000  C
  C227     1.0000 0.16238  0.22799  0.26581  Biso   1.000  C
  C228     1.0000 0.33500  0.11292  0.25071  Biso   1.000  C
  C229     1.0000 0.18040  0.23940  0.27091  Biso   1.000  C
  H334     1.0000 0.02479  0.30363  0.26920  Biso   1.000  H
  H335     1.0000 0.05361  0.33977  0.27780  Biso   1.000  H
  H336     1.0000 0.97548  0.28234  0.11220  Biso   1.000  H
  H337     1.0000 0.97551  0.28227  0.11220  Biso   1.000  H
  H338     1.0000 0.99531  0.25439  0.11559  Biso   1.000  H
  N57      1.0000 0.13681  0.03681  0.13883  Biso   1.000  N
  H339     1.0000 0.02867  0.14850  0.16211  Biso   1.000  H
  H340     1.0000 0.12718  0.15455  0.15240  Biso   1.000  H
  H341     1.0000 0.02873  0.14850  0.16211  Biso   1.000  H
  H342     1.0000 0.12721  0.15449  0.15240  Biso   1.000  H
  H343     1.0000 0.02870  0.14856  0.16211  Biso   1.000  H
  H344     1.0000 0.14070  0.12230  0.15268  Biso   1.000  H
  H345     1.0000 0.04360  0.11358  0.16411  Biso   1.000  H
  N58      1.0000 0.15261  0.00418  0.13808  Biso   1.000  N
  N59      1.0000 0.41020  0.10055  0.21269  Biso   1.000  N
  H346     1.0000 0.32326  0.10801  0.27630  Biso   1.000  H
  H347     1.0000 0.36150  0.18102  0.27009  Biso   1.000  H
  N60      1.0000 0.41023  0.10049  0.21269  Biso   1.000  N
  H348     1.0000 0.32332  0.10801  0.27630  Biso   1.000  H
  N61      1.0000 0.41827  0.08171  0.21230  Biso   1.000  N
  H349     1.0000 0.35211  0.12828  0.27902  Biso   1.000  H
  H350     1.0000 0.15688  0.19820  0.29480  Biso   1.000  H
  H351     1.0000 0.15685  0.19827  0.29480  Biso   1.000  H
  H352     1.0000 0.18258  0.23040  0.30390  Biso   1.000  H
  H353     1.0000 0.31489  0.06599  0.26010  Biso   1.000  H
  C230     1.0000 0.16854  0.99713  0.18370  Biso   1.000  C
  C231     1.0000 0.16852  0.99719  0.18370  Biso   1.000  C
  H354     1.0000 0.20308  0.99058  0.11431  Biso   1.000  H
  H355     1.0000 0.11472  0.98240  0.12991  Biso   1.000  H
  C232     1.0000 0.18392  0.96257  0.18270  Biso   1.000  C
  H356     1.0000 0.09759  0.01549  0.13180  Biso   1.000  H
  H357     1.0000 0.18689  0.02111  0.11481  Biso   1.000  H
  H358     1.0000 0.09756  0.01556  0.13180  Biso   1.000  H
  H359     1.0000 0.18687  0.02117  0.11481  Biso   1.000  H
  H360     1.0000 0.42460  0.13775  0.19199  Biso   1.000  H
  H361     1.0000 0.38801  0.07169  0.19681  Biso   1.000  H
  C233     1.0000 0.49528  0.03900  0.22990  Biso   1.000  C
  H362     1.0000 0.42463  0.13768  0.19199  Biso   1.000  H
  H363     1.0000 0.38799  0.07175  0.19681  Biso   1.000  H
  C234     1.0000 0.49525  0.03906  0.22990  Biso   1.000  C
  H364     1.0000 0.40778  0.05458  0.18942  Biso   1.000  H
  H365     1.0000 0.42871  0.12688  0.19848  Biso   1.000  H
  C235     1.0000 0.50179  0.02177  0.23140  Biso   1.000  C
  C236     1.0000 0.20713  0.89908  0.18049  Biso   1.000  C
  H366     1.0000 0.23123  0.98089  0.18999  Biso   1.000  H
  C237     1.0000 0.10410  0.98302  0.22540  Biso   1.000  C
  H367     1.0000 0.21790  0.01403  0.18959  Biso   1.000  H
  C238     1.0000 0.08988  0.02154  0.22711  Biso   1.000  C
  H368     1.0000 0.21793  0.01397  0.18959  Biso   1.000  H
  C239     1.0000 0.08990  0.02148  0.22711  Biso   1.000  C
  C240     1.0000 0.22662  0.86470  0.17739  Biso   1.000  C
  C241     1.0000 0.56763  0.97746  0.19159  Biso   1.000  C
  C242     1.0000 0.56760  0.97752  0.19159  Biso   1.000  C
  C243     1.0000 0.57801  0.95998  0.19441  Biso   1.000  C
  H369     1.0000 0.48223  0.98788  0.25771  Biso   1.000  H
  C244     1.0000 0.54630  0.08513  0.24882  Biso   1.000  C
  H370     1.0000 0.47685  0.00492  0.25642  Biso   1.000  H
  H371     1.0000 0.47692  0.00492  0.25639  Biso   1.000  H
  H372     1.0000 0.47691  0.00492  0.25642  Biso   1.000  H
  C245     1.0000 0.55022  0.06937  0.25139  Biso   1.000  C
  N62      1.0000 0.31063  0.86075  0.17089  Biso   1.000  N
  C246     1.0000 0.16729  0.86937  0.22811  Biso   1.000  C
  H373     1.0000 0.18458  0.88329  0.15411  Biso   1.000  H
  N63      1.0000 0.31060  0.86081  0.17089  Biso   1.000  N
  H374     1.0000 0.18461  0.88322  0.15411  Biso   1.000  H
  C247     1.0000 0.18112  0.83107  0.22151  Biso   1.000  C
  H375     1.0000 0.21092  0.84952  0.14818  Biso   1.000  H
  C248     1.0000 0.12500  0.94887  0.25960  Biso   1.000  C
  H376     1.0000 0.04587  0.99022  0.21540  Biso   1.000  H
  C249     1.0000 0.13760  0.90708  0.25589  Biso   1.000  C
  H377     1.0000 0.03108  0.02671  0.21851  Biso   1.000  H
  H378     1.0000 0.09348  0.03539  0.24221  Biso   1.000  H
  H379     1.0000 0.07970  0.07581  0.24161  Biso   1.000  H
  N64      1.0000 0.32957  0.82922  0.17289  Biso   1.000  N
  N65      1.0000 0.54638  0.90327  0.18570  Biso   1.000  N
  N66      1.0000 0.54645  0.90327  0.18570  Biso   1.000  N
  N67      1.0000 0.55664  0.88717  0.18549  Biso   1.000  N
  C250     1.0000 0.65911  0.95326  0.20891  Biso   1.000  C
  C251     1.0000 0.65908  0.95333  0.20891  Biso   1.000  C
  H380     1.0000 0.58497  0.99103  0.16389  Biso   1.000  H
  C252     1.0000 0.66521  0.93308  0.21630  Biso   1.000  C
  H381     1.0000 0.56917  0.00844  0.16050  Biso   1.000  H
  H382     1.0000 0.56920  0.00837  0.16050  Biso   1.000  H
  C253     1.0000 0.64732  0.03910  0.22690  Biso   1.000  C
  H383     1.0000 0.53774  0.08234  0.28402  Biso   1.000  H
  H384     1.0000 0.52221  0.14591  0.23911  Biso   1.000  H
  H385     1.0000 0.53783  0.08228  0.28402  Biso   1.000  H
  C254     1.0000 0.64729  0.03917  0.22690  Biso   1.000  C
  H386     1.0000 0.53780  0.08234  0.28402  Biso   1.000  H
  C255     1.0000 0.65289  0.01721  0.23679  Biso   1.000  C
  H387     1.0000 0.53229  0.12757  0.23800  Biso   1.000  H
  H388     1.0000 0.53261  0.07380  0.28659  Biso   1.000  H
  H389     1.0000 0.33049  0.86817  0.19720  Biso   1.000  H
  H390     1.0000 0.32998  0.89006  0.14661  Biso   1.000  H
  C256     1.0000 0.35575  0.76933  0.15829  Biso   1.000  C
  H391     1.0000 0.33001  0.89012  0.14661  Biso   1.000  H
  C257     1.0000 0.35573  0.76939  0.15829  Biso   1.000  C
  H392     1.0000 0.33004  0.89006  0.14661  Biso   1.000  H
  H393     1.0000 0.33055  0.86817  0.19720  Biso   1.000  H
  H394     1.0000 0.35077  0.86310  0.15261  Biso   1.000  H
  H395     1.0000 0.34322  0.83219  0.20191  Biso   1.000  H
  H396     1.0000 0.21682  0.82229  0.24182  Biso   1.000  H
  H397     1.0000 0.11941  0.84986  0.22401  Biso   1.000  H
  H398     1.0000 0.21683  0.82229  0.24178  Biso   1.000  H
  H399     1.0000 0.11938  0.84993  0.22401  Biso   1.000  H
  H400     1.0000 0.21686  0.82222  0.24178  Biso   1.000  H
  H401     1.0000 0.13329  0.81479  0.21380  Biso   1.000  H
  H402     1.0000 0.22788  0.78111  0.23511  Biso   1.000  H
  H403     1.0000 0.17251  0.95353  0.27520  Biso   1.000  H
  H404     1.0000 0.07370  0.94715  0.28459  Biso   1.000  H
  H405     1.0000 0.17248  0.95359  0.27520  Biso   1.000  H
  H406     1.0000 0.07367  0.94722  0.28459  Biso   1.000  H
  H407     1.0000 0.07376  0.94715  0.28459  Biso   1.000  H
  H408     1.0000 0.08537  0.90343  0.27941  Biso   1.000  H
  H409     1.0000 0.18423  0.90919  0.27320  Biso   1.000  H
  C258     1.0000 0.38047  0.74051  0.15550  Biso   1.000  C
  C259     1.0000 0.61809  0.83518  0.15200  Biso   1.000  C
  C260     1.0000 0.63453  0.81638  0.15590  Biso   1.000  C
  H410     1.0000 0.53883  0.87923  0.21480  Biso   1.000  H
  H411     1.0000 0.49144  0.92266  0.17521  Biso   1.000  H
  H412     1.0000 0.53880  0.87929  0.21480  Biso   1.000  H
  H413     1.0000 0.49141  0.92273  0.17521  Biso   1.000  H
  H414     1.0000 0.50660  0.90717  0.17060  Biso   1.000  H
  H415     1.0000 0.54041  0.86543  0.21408  Biso   1.000  H
  H416     1.0000 0.66670  0.91068  0.23489  Biso   1.000  H
  H417     1.0000 0.71303  0.93045  0.18260  Biso   1.000  H
  H418     1.0000 0.71300  0.93051  0.18260  Biso   1.000  H
  H419     1.0000 0.72221  0.90983  0.19170  Biso   1.000  H
  H420     1.0000 0.66768  0.88998  0.24161  Biso   1.000  H
  H421     1.0000 0.66485  0.07255  0.20020  Biso   1.000  H
  H422     1.0000 0.68687  0.03035  0.25110  Biso   1.000  H
  H423     1.0000 0.66488  0.07248  0.20020  Biso   1.000  H
  H424     1.0000 0.68690  0.03029  0.25110  Biso   1.000  H
  H425     1.0000 0.66491  0.07255  0.20020  Biso   1.000  H
  H426     1.0000 0.68411  0.00632  0.26470  Biso   1.000  H
  H427     1.0000 0.68027  0.04799  0.21251  Biso   1.000  H
  H428     1.0000 0.33153  0.73715  0.18331  Biso   1.000  H
  H429     1.0000 0.33972  0.76117  0.12780  Biso   1.000  H
  C261     1.0000 0.45879  0.73436  0.15340  Biso   1.000  C
  H430     1.0000 0.33150  0.73721  0.18331  Biso   1.000  H
  C262     1.0000 0.45876  0.73442  0.15340  Biso   1.000  C
  C263     1.0000 0.45885  0.73436  0.15340  Biso   1.000  C
  H431     1.0000 0.36850  0.73700  0.12320  Biso   1.000  H
  H432     1.0000 0.35722  0.70319  0.17681  Biso   1.000  H
  C264     1.0000 0.48273  0.70888  0.15340  Biso   1.000  C
  C265     1.0000 0.58568  0.76607  0.14922  Biso   1.000  C
  C266     1.0000 0.58566  0.76613  0.14918  Biso   1.000  C
  C267     1.0000 0.58575  0.76606  0.14918  Biso   1.000  C
  C268     1.0000 0.60526  0.74553  0.15218  Biso   1.000  C
  H433     1.0000 0.62738  0.85977  0.12002  Biso   1.000  H
  H434     1.0000 0.67800  0.81114  0.16350  Biso   1.000  H
  H435     1.0000 0.62740  0.85977  0.11998  Biso   1.000  H
  H436     1.0000 0.67803  0.81120  0.16350  Biso   1.000  H
  H437     1.0000 0.67806  0.81114  0.16350  Biso   1.000  H
  H438     1.0000 0.69052  0.79510  0.17082  Biso   1.000  H
  H439     1.0000 0.64990  0.83777  0.12359  Biso   1.000  H
  N68      1.0000 0.49390  0.79347  0.15090  Biso   1.000  N
  C269     1.0000 0.51331  0.64936  0.15361  Biso   1.000  C
  C270     1.0000 0.51328  0.64943  0.15361  Biso   1.000  C
  N69      1.0000 0.51388  0.77013  0.15400  Biso   1.000  N
  C271     1.0000 0.54099  0.62481  0.14911  Biso   1.000  C
  C272     1.0000 0.64419  0.68118  0.14779  Biso   1.000  C
  C273     1.0000 0.66702  0.66158  0.14840  Biso   1.000  C
  H440     1.0000 0.48633  0.60916  0.15679  Biso   1.000  H
  C274     1.0000 0.60769  0.62193  0.14911  Biso   1.000  C
  H441     1.0000 0.48630  0.60922  0.15679  Biso   1.000  H
  C275     1.0000 0.60772  0.62200  0.14911  Biso   1.000  C
  C276     1.0000 0.60775  0.62193  0.14911  Biso   1.000  C
  H442     1.0000 0.51731  0.58322  0.14740  Biso   1.000  H
  C277     1.0000 0.63430  0.60021  0.14729  Biso   1.000  C
  H443     1.0000 0.70899  0.66354  0.14601  Biso   1.000  H
  H444     1.0000 0.70902  0.66361  0.14601  Biso   1.000  H
  H445     1.0000 0.70905  0.66354  0.14601  Biso   1.000  H
  H446     1.0000 0.73147  0.64612  0.14661  Biso   1.000  H
  H447     1.0000 0.64720  0.56265  0.14690  Biso   1.000  H
  H448     1.0000 0.64717  0.56272  0.14690  Biso   1.000  H
  H449     1.0000 0.67571  0.54150  0.14529  Biso   1.000  H
  N70      1.0000 0.50610  0.20651  0.84911  Biso   1.000  N
  C278     1.0000 0.41432  0.23392  0.85079  Biso   1.000  C
  C279     1.0000 0.41434  0.23385  0.85079  Biso   1.000  C
  C280     1.0000 0.39474  0.25445  0.84779  Biso   1.000  C
  C281     1.0000 0.54120  0.26562  0.84661  Biso   1.000  C
  C282     1.0000 0.54123  0.26556  0.84661  Biso   1.000  C
  C283     1.0000 0.51727  0.29110  0.84661  Biso   1.000  C
  C284     1.0000 0.38191  0.16480  0.84800  Biso   1.000  C
  C285     1.0000 0.36547  0.18361  0.84411  Biso   1.000  C
  C286     1.0000 0.35580  0.31880  0.85221  Biso   1.000  C
  N71      1.0000 0.48611  0.22985  0.84600  Biso   1.000  N
  C287     1.0000 0.33297  0.33840  0.85161  Biso   1.000  C
  C288     1.0000 0.48668  0.35062  0.84640  Biso   1.000  C
  C289     1.0000 0.64424  0.23065  0.84172  Biso   1.000  C
  C290     1.0000 0.64428  0.23059  0.84168  Biso   1.000  C
  C291     1.0000 0.64427  0.23059  0.84172  Biso   1.000  C
  C292     1.0000 0.48671  0.35055  0.84640  Biso   1.000  C
  C293     1.0000 0.64434  0.23059  0.84168  Biso   1.000  C
  C294     1.0000 0.61952  0.25947  0.84450  Biso   1.000  C
  C295     1.0000 0.45900  0.37517  0.85089  Biso   1.000  C
  N72      1.0000 0.45361  0.09671  0.81430  Biso   1.000  N
  N73      1.0000 0.45364  0.09665  0.81430  Biso   1.000  N
  N74      1.0000 0.44342  0.11281  0.81452  Biso   1.000  N
  H450     1.0000 0.37261  0.14021  0.87999  Biso   1.000  H
  H451     1.0000 0.32203  0.18878  0.83651  Biso   1.000  H
  H452     1.0000 0.32200  0.18885  0.83651  Biso   1.000  H
  H453     1.0000 0.37264  0.14014  0.87999  Biso   1.000  H
  H454     1.0000 0.30953  0.20488  0.82919  Biso   1.000  H
  H455     1.0000 0.35013  0.16215  0.87642  Biso   1.000  H
  C296     1.0000 0.39233  0.37798  0.85089  Biso   1.000  C
  H456     1.0000 0.29104  0.33637  0.85400  Biso   1.000  H
  H457     1.0000 0.29101  0.33644  0.85400  Biso   1.000  H
  C297     1.0000 0.39231  0.37805  0.85089  Biso   1.000  C
  C298     1.0000 0.36570  0.39978  0.85271  Biso   1.000  C
  H458     1.0000 0.26853  0.35387  0.85339  Biso   1.000  H
  H459     1.0000 0.51368  0.39082  0.84318  Biso   1.000  H
  H460     1.0000 0.51367  0.39082  0.84322  Biso   1.000  H
  H461     1.0000 0.51370  0.39076  0.84322  Biso   1.000  H
  H462     1.0000 0.48269  0.41676  0.85261  Biso   1.000  H
  N75      1.0000 0.68937  0.13923  0.82912  Biso   1.000  N
  H463     1.0000 0.66846  0.26283  0.81669  Biso   1.000  H
  H464     1.0000 0.66028  0.23881  0.87221  Biso   1.000  H
  N76      1.0000 0.68940  0.13917  0.82912  Biso   1.000  N
  H465     1.0000 0.66849  0.26277  0.81669  Biso   1.000  H
  H466     1.0000 0.66031  0.23875  0.87221  Biso   1.000  H
  N77      1.0000 0.67043  0.17076  0.82712  Biso   1.000  N
  H467     1.0000 0.63149  0.26299  0.87681  Biso   1.000  H
  H468     1.0000 0.64283  0.29679  0.82319  Biso   1.000  H
  C299     1.0000 0.43236  0.02252  0.80841  Biso   1.000  C
  C300     1.0000 0.43239  0.02246  0.80841  Biso   1.000  C
  C301     1.0000 0.42198  0.04000  0.80559  Biso   1.000  C
  H469     1.0000 0.46119  0.12069  0.78521  Biso   1.000  H
  H470     1.0000 0.50862  0.07732  0.82480  Biso   1.000  H
  H471     1.0000 0.46116  0.12075  0.78521  Biso   1.000  H
  H472     1.0000 0.50856  0.07732  0.82480  Biso   1.000  H
  H473     1.0000 0.50865  0.07725  0.82480  Biso   1.000  H
  H474     1.0000 0.49342  0.09274  0.82940  Biso   1.000  H
  H475     1.0000 0.45966  0.13455  0.78589  Biso   1.000  H
  H476     1.0000 0.35280  0.43733  0.85311  Biso   1.000  H
  H477     1.0000 0.35282  0.43726  0.85311  Biso   1.000  H
  H478     1.0000 0.32429  0.45848  0.85471  Biso   1.000  H
  H479     1.0000 0.66951  0.13181  0.80281  Biso   1.000  H
  H480     1.0000 0.67002  0.10992  0.85339  Biso   1.000  H
  C302     1.0000 0.79287  0.10090  0.81952  Biso   1.000  C
  H481     1.0000 0.66954  0.13174  0.80281  Biso   1.000  H
  H482     1.0000 0.67005  0.10986  0.85339  Biso   1.000  H
  H483     1.0000 0.64923  0.13689  0.84740  Biso   1.000  H
  H484     1.0000 0.65678  0.16779  0.79810  Biso   1.000  H
  C303     1.0000 0.77337  0.13529  0.82262  Biso   1.000  C
  C304     1.0000 0.34089  0.04672  0.79110  Biso   1.000  C
  H485     1.0000 0.43080  0.99161  0.83951  Biso   1.000  H
  C305     1.0000 0.50469  0.96104  0.77011  Biso   1.000  C
  C306     1.0000 0.50472  0.96098  0.77011  Biso   1.000  C
  H486     1.0000 0.43077  0.99167  0.83951  Biso   1.000  H
  C307     1.0000 0.49821  0.97821  0.76861  Biso   1.000  C
  C308     1.0000 0.34092  0.04665  0.79110  Biso   1.000  C
  H487     1.0000 0.41503  0.00895  0.83611  Biso   1.000  H
  C309     1.0000 0.33478  0.06690  0.78371  Biso   1.000  C
  C310     1.0000 0.83271  0.13061  0.77189  Biso   1.000  C
  H488     1.0000 0.81541  0.11669  0.84590  Biso   1.000  H
  C311     1.0000 0.83148  0.00279  0.81630  Biso   1.000  C
  C312     1.0000 0.83145  0.00285  0.81630  Biso   1.000  C
  C313     1.0000 0.83274  0.13054  0.77189  Biso   1.000  C
  C314     1.0000 0.81611  0.03735  0.81730  Biso   1.000  C
  C315     1.0000 0.81890  0.16885  0.77850  Biso   1.000  C
  H489     1.0000 0.78915  0.15046  0.85179  Biso   1.000  H
  H490     1.0000 0.33330  0.08930  0.76511  Biso   1.000  H
  H491     1.0000 0.28699  0.06947  0.81741  Biso   1.000  H
  H492     1.0000 0.28696  0.06953  0.81741  Biso   1.000  H
  C316     1.0000 0.35265  0.96094  0.77311  Biso   1.000  C
  C317     1.0000 0.35268  0.96088  0.77311  Biso   1.000  C
  C318     1.0000 0.35271  0.96094  0.77311  Biso   1.000  C
  C319     1.0000 0.34708  0.98283  0.76322  Biso   1.000  C
  H493     1.0000 0.27784  0.09015  0.80831  Biso   1.000  H
  C320     1.0000 0.45367  0.91492  0.75119  Biso   1.000  C
  C321     1.0000 0.45373  0.91492  0.75119  Biso   1.000  C
  C322     1.0000 0.44974  0.93067  0.74862  Biso   1.000  C
  N78      1.0000 0.58977  0.89949  0.78732  Biso   1.000  N
  H494     1.0000 0.52312  0.99513  0.74359  Biso   1.000  H
  N79      1.0000 0.58974  0.89956  0.78732  Biso   1.000  N
  N80      1.0000 0.58983  0.89949  0.78732  Biso   1.000  N
  N81      1.0000 0.58170  0.91833  0.78771  Biso   1.000  N
  H495     1.0000 0.51777  0.01211  0.74230  Biso   1.000  H
  H496     1.0000 0.33231  0.11000  0.75840  Biso   1.000  H
  C323     1.0000 0.87499  0.05111  0.74041  Biso   1.000  C
  H497     1.0000 0.88058  0.15012  0.77600  Biso   1.000  H
  H498     1.0000 0.78318  0.17769  0.75819  Biso   1.000  H
  H499     1.0000 0.78324  0.17769  0.75819  Biso   1.000  H
  C324     1.0000 0.87502  0.05105  0.74041  Biso   1.000  C
  H500     1.0000 0.88061  0.15005  0.77600  Biso   1.000  H
  C325     1.0000 0.86241  0.09290  0.74409  Biso   1.000  C
  N82      1.0000 0.86315  0.96323  0.86117  Biso   1.000  N
  H501     1.0000 0.78207  0.98601  0.81041  Biso   1.000  H
  C326     1.0000 0.91009  0.97850  0.77289  Biso   1.000  C
  C327     1.0000 0.91006  0.97856  0.77289  Biso   1.000  C
  N83      1.0000 0.86321  0.96323  0.86117  Biso   1.000  N
  N84      1.0000 0.84736  0.99587  0.86192  Biso   1.000  N
  H502     1.0000 0.76877  0.01909  0.81002  Biso   1.000  H
  C328     1.0000 0.89589  0.01696  0.77461  Biso   1.000  C
  H503     1.0000 0.86670  0.18519  0.78621  Biso   1.000  H
  H504     1.0000 0.77212  0.21887  0.76490  Biso   1.000  H
  H505     1.0000 0.33512  0.92750  0.79981  Biso   1.000  H
  H506     1.0000 0.31310  0.96969  0.74890  Biso   1.000  H
  H507     1.0000 0.33509  0.92756  0.79981  Biso   1.000  H
  H508     1.0000 0.31307  0.96975  0.74890  Biso   1.000  H
  H509     1.0000 0.31586  0.99372  0.73530  Biso   1.000  H
  H510     1.0000 0.31970  0.95205  0.78749  Biso   1.000  H
  H511     1.0000 0.46222  0.91770  0.71599  Biso   1.000  H
  H512     1.0000 0.47776  0.85413  0.76090  Biso   1.000  H
  H513     1.0000 0.47778  0.85407  0.76090  Biso   1.000  H
  H514     1.0000 0.46220  0.91777  0.71599  Biso   1.000  H
  H515     1.0000 0.47782  0.85413  0.76090  Biso   1.000  H
  H516     1.0000 0.46771  0.87241  0.76201  Biso   1.000  H
  H517     1.0000 0.46736  0.92624  0.71342  Biso   1.000  H
  H518     1.0000 0.57536  0.86230  0.80802  Biso   1.000  H
  H519     1.0000 0.61195  0.92835  0.80320  Biso   1.000  H
  C329     1.0000 0.66251  0.85121  0.74669  Biso   1.000  C
  H520     1.0000 0.57544  0.86230  0.80798  Biso   1.000  H
  H521     1.0000 0.61198  0.92829  0.80320  Biso   1.000  H
  H522     1.0000 0.57540  0.86236  0.80802  Biso   1.000  H
  H523     1.0000 0.59219  0.94546  0.81059  Biso   1.000  H
  H524     1.0000 0.57127  0.87317  0.80149  Biso   1.000  H
  C330     1.0000 0.66497  0.88712  0.74930  Biso   1.000  C
  H525     1.0000 0.82751  0.04639  0.72481  Biso   1.000  H
  H526     1.0000 0.92631  0.05283  0.71538  Biso   1.000  H
  H527     1.0000 0.82748  0.04645  0.72481  Biso   1.000  H
  H528     1.0000 0.92630  0.05283  0.71542  Biso   1.000  H
  H529     1.0000 0.92633  0.05276  0.71542  Biso   1.000  H
  H530     1.0000 0.91463  0.09655  0.72060  Biso   1.000  H
  H531     1.0000 0.81583  0.09079  0.72681  Biso   1.000  H
  H532     1.0000 0.90238  0.98455  0.86821  Biso   1.000  H
  H533     1.0000 0.81307  0.97894  0.88520  Biso   1.000  H
  C331     1.0000 0.91077  0.86935  0.85982  Biso   1.000  C
  H534     1.0000 0.90241  0.98449  0.86821  Biso   1.000  H
  H535     1.0000 0.81310  0.97887  0.88520  Biso   1.000  H
  C332     1.0000 0.91082  0.86928  0.85978  Biso   1.000  C
  C333     1.0000 0.91079  0.86935  0.85978  Biso   1.000  C
  C334     1.0000 0.89724  0.90216  0.85900  Biso   1.000  C
  H536     1.0000 0.79691  0.00940  0.88570  Biso   1.000  H
  H537     1.0000 0.88534  0.01758  0.87010  Biso   1.000  H
  H538     1.0000 0.96888  0.97333  0.78150  Biso   1.000  H
  H539     1.0000 0.92026  0.92423  0.75840  Biso   1.000  H
  H540     1.0000 0.92029  0.92417  0.75840  Biso   1.000  H
  H541     1.0000 0.90649  0.96465  0.75779  Biso   1.000  H
  H542     1.0000 0.95412  0.00976  0.78460  Biso   1.000  H
  H543     1.0000 0.67671  0.89203  0.72370  Biso   1.000  H
  H544     1.0000 0.63846  0.81902  0.72991  Biso   1.000  H
  C335     1.0000 0.75040  0.79004  0.76301  Biso   1.000  C
  C336     1.0000 0.75043  0.78997  0.76301  Biso   1.000  C
  H545     1.0000 0.64786  0.87176  0.72099  Biso   1.000  H
  C337     1.0000 0.74488  0.81105  0.76379  Biso   1.000  C
  H546     1.0000 0.68508  0.93405  0.73991  Biso   1.000  H
  C338     1.0000 0.92601  0.83493  0.90880  Biso   1.000  C
  H547     1.0000 0.97130  0.85155  0.83790  Biso   1.000  H
  H548     1.0000 0.87279  0.84549  0.84761  Biso   1.000  H
  H549     1.0000 0.97133  0.85148  0.83790  Biso   1.000  H
  H550     1.0000 0.87276  0.84556  0.84761  Biso   1.000  H
  C339     1.0000 0.91719  0.86563  0.90712  Biso   1.000  C
  H551     1.0000 0.85928  0.87774  0.84729  Biso   1.000  H
  H552     1.0000 0.95637  0.88646  0.83590  Biso   1.000  H
  N85      1.0000 0.74115  0.76395  0.80809  Biso   1.000  N
  C340     1.0000 0.83762  0.77199  0.73420  Biso   1.000  C
  N86      1.0000 0.74118  0.76389  0.80809  Biso   1.000  N
  C341     1.0000 0.83759  0.77206  0.73420  Biso   1.000  C
  N87      1.0000 0.73706  0.78996  0.80981  Biso   1.000  N
  C342     1.0000 0.81957  0.76065  0.72909  Biso   1.000  C
  N88      1.0000 0.87796  0.88963  0.94560  Biso   1.000  N
  C343     1.0000 0.98818  0.75304  0.91461  Biso   1.000  C
  N89      1.0000 0.87797  0.88963  0.94556  Biso   1.000  N
  C344     1.0000 0.98821  0.75298  0.91461  Biso   1.000  C
  N90      1.0000 0.87185  0.91887  0.94481  Biso   1.000  N
  C345     1.0000 0.97626  0.78201  0.91162  Biso   1.000  C
  C346     1.0000 0.81879  0.70371  0.82180  Biso   1.000  C
  C347     1.0000 0.81419  0.72876  0.82351  Biso   1.000  C
  H553     1.0000 0.84309  0.80184  0.70521  Biso   1.000  H
  C348     1.0000 0.91480  0.71010  0.74901  Biso   1.000  C
  H554     1.0000 0.84312  0.80178  0.70521  Biso   1.000  H
  C349     1.0000 0.91477  0.71016  0.74901  Biso   1.000  C
  H555     1.0000 0.81738  0.76965  0.69611  Biso   1.000  H
  C350     1.0000 0.89610  0.69812  0.74430  Biso   1.000  C
  C351     1.0000 0.88911  0.86034  0.98969  Biso   1.000  C
  C352     1.0000 0.88914  0.86028  0.98969  Biso   1.000  C
  C353     1.0000 0.88426  0.88683  0.98829  Biso   1.000  C
  C354     1.0000 0.99709  0.72281  0.96049  Biso   1.000  C
  C355     1.0000 0.99389  0.75165  0.95649  Biso   1.000  C
  H556     1.0000 0.02449  0.71771  0.88780  Biso   1.000  H
  H557     1.0000 0.00466  0.74565  0.88441  Biso   1.000  H
  C356     1.0000 0.90177  0.66835  0.79121  Biso   1.000  C
  C357     1.0000 0.80750  0.67372  0.87249  Biso   1.000  C
  C358     1.0000 0.90180  0.66829  0.79121  Biso   1.000  C
  C359     1.0000 0.89699  0.69231  0.79271  Biso   1.000  C
  C360     1.0000 0.80431  0.70221  0.87481  Biso   1.000  C
  H558     1.0000 0.97518  0.69642  0.73081  Biso   1.000  H
  H559     1.0000 0.94636  0.66027  0.72220  Biso   1.000  H
  C361     1.0000 0.95070  0.77963  0.99840  Biso   1.000  C
  C362     1.0000 0.94335  0.80445  0.99561  Biso   1.000  C
  C363     1.0000 0.82619  0.94877  0.02820  Biso   1.000  C
  C364     1.0000 0.83360  0.92042  0.02838  Biso   1.000  C
  H560     1.0000 0.03419  0.66442  0.96591  Biso   1.000  H
  H561     1.0000 0.03946  0.69586  0.96041  Biso   1.000  H
  H562     1.0000 0.94946  0.61624  0.79881  Biso   1.000  H
  H563     1.0000 0.94949  0.61617  0.79881  Biso   1.000  H
  H564     1.0000 0.95358  0.66386  0.80441  Biso   1.000  H
  N91      1.0000 0.71697  0.73070  0.89994  Biso   1.000  N
  H565     1.0000 0.81135  0.61484  0.87292  Biso   1.000  H
  H566     1.0000 0.85829  0.67300  0.88752  Biso   1.000  H
  H567     1.0000 0.81139  0.61478  0.87288  Biso   1.000  H
  H568     1.0000 0.85830  0.67300  0.88748  Biso   1.000  H
  N92      1.0000 0.71695  0.73077  0.89994  Biso   1.000  N
  H569     1.0000 0.85826  0.67307  0.88752  Biso   1.000  H
  H570     1.0000 0.81142  0.61484  0.87288  Biso   1.000  H
  N93      1.0000 0.71139  0.75607  0.90141  Biso   1.000  N
  H571     1.0000 0.85251  0.70763  0.88941  Biso   1.000  H
  H572     1.0000 0.81347  0.64163  0.87681  Biso   1.000  H
  H573     1.0000 0.96160  0.76263  0.02981  Biso   1.000  H
  H574     1.0000 0.96157  0.76270  0.02981  Biso   1.000  H
  H575     1.0000 0.96166  0.76263  0.02981  Biso   1.000  H
  H576     1.0000 0.94979  0.78349  0.02710  Biso   1.000  H
  H577     1.0000 0.84047  0.92168  0.05912  Biso   1.000  H
  H578     1.0000 0.75953  0.96474  0.02820  Biso   1.000  H
  H579     1.0000 0.84049  0.92168  0.05908  Biso   1.000  H
  H580     1.0000 0.75950  0.96480  0.02820  Biso   1.000  H
  H581     1.0000 0.84058  0.92162  0.05908  Biso   1.000  H
  N94      1.0000 0.85041  0.99823  0.02339  Biso   1.000  N
  H582     1.0000 0.84858  0.89282  0.05919  Biso   1.000  H
  H583     1.0000 0.76699  0.93581  0.02881  Biso   1.000  H
  N95      1.0000 0.84530  0.02542  0.02199  Biso   1.000  N
  H584     1.0000 0.67059  0.72862  0.88709  Biso   1.000  H
  H585     1.0000 0.71208  0.78535  0.89759  Biso   1.000  H
  C365     1.0000 0.70540  0.70633  0.95170  Biso   1.000  C
  H586     1.0000 0.71211  0.78528  0.89759  Biso   1.000  H
  C366     1.0000 0.70543  0.70627  0.95170  Biso   1.000  C
  H587     1.0000 0.66745  0.74945  0.88841  Biso   1.000  H
  C367     1.0000 0.69976  0.73393  0.95349  Biso   1.000  C
  H588     1.0000 0.70227  0.81186  0.89830  Biso   1.000  H
  H589     1.0000 0.83691  0.04639  0.99219  Biso   1.000  H
  H590     1.0000 0.91133  0.98329  0.02410  Biso   1.000  H
  H591     1.0000 0.83688  0.04645  0.99219  Biso   1.000  H
  H592     1.0000 0.83989  0.02099  0.99418  Biso   1.000  H
  H593     1.0000 0.90610  0.00959  0.02349  Biso   1.000  H
  H594     1.0000 0.90608  0.00966  0.02349  Biso   1.000  H
  C368     1.0000 0.79317  0.06570  0.06019  Biso   1.000  C
  C369     1.0000 0.78770  0.09543  0.05730  Biso   1.000  C
  C370     1.0000 0.78773  0.09537  0.05730  Biso   1.000  C
  H595     1.0000 0.71418  0.64530  0.95449  Biso   1.000  H
  C371     1.0000 0.77347  0.71924  0.97741  Biso   1.000  C
  C372     1.0000 0.60996  0.76261  0.97762  Biso   1.000  C
  C373     1.0000 0.77350  0.71918  0.97741  Biso   1.000  C
  C374     1.0000 0.60997  0.76261  0.97759  Biso   1.000  C
  H596     1.0000 0.71415  0.64537  0.95449  Biso   1.000  H
  C375     1.0000 0.60993  0.76267  0.97762  Biso   1.000  C
  C376     1.0000 0.61003  0.76261  0.97759  Biso   1.000  C
  H597     1.0000 0.71128  0.67221  0.95731  Biso   1.000  H
  C377     1.0000 0.60305  0.78873  0.97851  Biso   1.000  C
  C378     1.0000 0.76489  0.75253  0.97891  Biso   1.000  C
  C379     1.0000 0.80940  0.07572  0.10820  Biso   1.000  C
  H598     1.0000 0.72109  0.10681  0.05880  Biso   1.000  H
  C380     1.0000 0.80368  0.14919  0.04759  Biso   1.000  C
  C381     1.0000 0.81701  0.04189  0.11060  Biso   1.000  C
  H599     1.0000 0.72648  0.07701  0.06201  Biso   1.000  H
  C382     1.0000 0.79896  0.17802  0.04259  Biso   1.000  C
  C383     1.0000 0.79902  0.17802  0.04259  Biso   1.000  C
  H600     1.0000 0.83247  0.66744  0.97519  Biso   1.000  H
  H601     1.0000 0.78708  0.76831  0.96409  Biso   1.000  H
  H602     1.0000 0.83250  0.66737  0.97519  Biso   1.000  H
  H603     1.0000 0.82547  0.70277  0.97719  Biso   1.000  H
  C384     1.0000 0.72225  0.73644  0.02849  Biso   1.000  C
  C385     1.0000 0.72222  0.73650  0.02849  Biso   1.000  C
  C386     1.0000 0.71281  0.77017  0.02992  Biso   1.000  C
  N96      1.0000 0.54729  0.71575  0.98762  Biso   1.000  N
  H604     1.0000 0.58197  0.81315  0.95709  Biso   1.000  H
  N97      1.0000 0.54732  0.71568  0.98762  Biso   1.000  N
  H605     1.0000 0.58199  0.81309  0.95709  Biso   1.000  H
  N98      1.0000 0.54137  0.74091  0.98779  Biso   1.000  N
  C387     1.0000 0.62451  0.79374  0.02271  Biso   1.000  C
  C388     1.0000 0.62449  0.79381  0.02271  Biso   1.000  C
  H606     1.0000 0.57530  0.83857  0.95749  Biso   1.000  H
  C389     1.0000 0.61424  0.82255  0.02360  Biso   1.000  C
  H607     1.0000 0.77537  0.80274  0.96491  Biso   1.000  H
  C390     1.0000 0.85207  0.13740  0.11570  Biso   1.000  C
  H608     1.0000 0.85374  0.01565  0.11081  Biso   1.000  H
  H609     1.0000 0.75194  0.08644  0.13201  Biso   1.000  H
  H610     1.0000 0.85383  0.01558  0.11081  Biso   1.000  H
  H611     1.0000 0.75203  0.08638  0.13201  Biso   1.000  H
  C391     1.0000 0.85204  0.13747  0.11570  Biso   1.000  C
  H612     1.0000 0.85381  0.01565  0.11081  Biso   1.000  H
  H613     1.0000 0.75200  0.08644  0.13201  Biso   1.000  H
  C392     1.0000 0.85213  0.13740  0.11570  Biso   1.000  C
  C393     1.0000 0.86131  0.10192  0.11909  Biso   1.000  C
  H614     1.0000 0.76041  0.05172  0.13469  Biso   1.000  H
  H615     1.0000 0.86016  0.16360  0.02082  Biso   1.000  H
  C394     1.0000 0.80051  0.21740  0.08861  Biso   1.000  C
  H616     1.0000 0.86022  0.16360  0.02082  Biso   1.000  H
  H617     1.0000 0.86019  0.16367  0.02082  Biso   1.000  H
  C395     1.0000 0.80048  0.21746  0.08861  Biso   1.000  C
  N99      1.0000 0.72743  0.20839  0.02349  Biso   1.000  N
  H618     1.0000 0.86399  0.13618  0.02531  Biso   1.000  H
  C396     1.0000 0.80776  0.18443  0.09432  Biso   1.000  C
  H619     1.0000 0.86120  0.98143  0.11181  Biso   1.000  H
  N100     1.0000 0.72400  0.23439  0.01700  Biso   1.000  N
  N101     1.0000 0.72397  0.23446  0.01700  Biso   1.000  N
  H620     1.0000 0.72530  0.68286  0.04502  Biso   1.000  H
  H621     1.0000 0.74770  0.76545  0.04659  Biso   1.000  H
  H622     1.0000 0.72529  0.68293  0.04498  Biso   1.000  H
  H623     1.0000 0.74767  0.76551  0.04659  Biso   1.000  H
  H624     1.0000 0.72532  0.68286  0.04498  Biso   1.000  H
  H625     1.0000 0.71892  0.71647  0.04709  Biso   1.000  H
  H626     1.0000 0.73535  0.80256  0.04741  Biso   1.000  H
  H627     1.0000 0.54217  0.69943  0.95909  Biso   1.000  H
  H628     1.0000 0.54348  0.71853  0.95949  Biso   1.000  H
  H629     1.0000 0.48199  0.77975  0.99729  Biso   1.000  H
  H630     1.0000 0.48972  0.75334  0.00122  Biso   1.000  H
  C397     1.0000 0.57531  0.63853  0.01889  Biso   1.000  C
  H631     1.0000 0.48969  0.75340  0.00122  Biso   1.000  H
  C398     1.0000 0.57529  0.63860  0.01889  Biso   1.000  C
  C399     1.0000 0.56182  0.67024  0.02371  Biso   1.000  C
  H632     1.0000 0.61642  0.85393  0.01921  Biso   1.000  H
  H633     1.0000 0.57951  0.78936  0.05069  Biso   1.000  H
  H634     1.0000 0.61639  0.85400  0.01921  Biso   1.000  H
  H635     1.0000 0.57948  0.78943  0.05069  Biso   1.000  H
  H636     1.0000 0.57029  0.81600  0.05152  Biso   1.000  H
  H637     1.0000 0.60215  0.88376  0.02010  Biso   1.000  H
  H638     1.0000 0.91947  0.11310  0.10260  Biso   1.000  H
  H639     1.0000 0.84266  0.15013  0.15001  Biso   1.000  H
  H640     1.0000 0.91945  0.11316  0.10260  Biso   1.000  H
  H641     1.0000 0.91954  0.11310  0.10260  Biso   1.000  H
  H642     1.0000 0.84272  0.15013  0.15001  Biso   1.000  H
  H643     1.0000 0.85412  0.11158  0.15361  Biso   1.000  H
  H644     1.0000 0.92819  0.07812  0.10488  Biso   1.000  H
  H645     1.0000 0.73700  0.25055  0.10610  Biso   1.000  H
  H646     1.0000 0.83447  0.25451  0.08200  Biso   1.000  H
  H647     1.0000 0.73703  0.25049  0.10610  Biso   1.000  H
  H648     1.0000 0.83453  0.25451  0.08200  Biso   1.000  H
  H649     1.0000 0.84164  0.22167  0.08850  Biso   1.000  H
  H650     1.0000 0.74503  0.21618  0.11299  Biso   1.000  H
  H651     1.0000 0.72480  0.20539  0.99151  Biso   1.000  H
  H652     1.0000 0.72432  0.18042  0.99868  Biso   1.000  H
  H653     1.0000 0.66839  0.24713  0.03681  Biso   1.000  H
  H654     1.0000 0.67288  0.22312  0.04448  Biso   1.000  H
  C400     1.0000 0.73718  0.28750  0.00529  Biso   1.000  C
  C401     1.0000 0.73057  0.31530  0.99990  Biso   1.000  C
  C402     1.0000 0.73064  0.31530  0.99990  Biso   1.000  C
  H655     1.0000 0.58579  0.65378  0.04930  Biso   1.000  H
  H656     1.0000 0.63434  0.59364  0.00300  Biso   1.000  H
  C403     1.0000 0.50143  0.60464  0.02910  Biso   1.000  C
  H657     1.0000 0.63431  0.59370  0.00300  Biso   1.000  H
  C404     1.0000 0.50141  0.60470  0.02910  Biso   1.000  C
  H658     1.0000 0.62303  0.62366  0.01210  Biso   1.000  H
  C405     1.0000 0.48811  0.63608  0.03181  Biso   1.000  C
  H659     1.0000 0.56451  0.69188  0.05419  Biso   1.000  H
  H660     1.0000 0.78848  0.30279  0.97619  Biso   1.000  H
  H661     1.0000 0.78846  0.30285  0.97619  Biso   1.000  H
  C406     1.0000 0.65509  0.34378  0.98319  Biso   1.000  C
  H662     1.0000 0.79477  0.27281  0.98119  Biso   1.000  H
  H663     1.0000 0.73268  0.34655  0.02699  Biso   1.000  H
  H664     1.0000 0.73271  0.34648  0.02699  Biso   1.000  H
  H665     1.0000 0.74180  0.31842  0.03181  Biso   1.000  H
  C407     1.0000 0.64830  0.36940  0.97741  Biso   1.000  C
  N102     1.0000 0.42254  0.65445  0.01350  Biso   1.000  N
  C408     1.0000 0.51258  0.53217  0.05512  Biso   1.000  C
  N103     1.0000 0.42251  0.65452  0.01350  Biso   1.000  N
  C409     1.0000 0.51259  0.53217  0.05509  Biso   1.000  C
  C410     1.0000 0.51265  0.53217  0.05509  Biso   1.000  C
  N104     1.0000 0.41384  0.68215  0.01161  Biso   1.000  N
  C411     1.0000 0.49843  0.56245  0.05651  Biso   1.000  C
  N105     1.0000 0.57752  0.34553  0.98651  Biso   1.000  N
  N106     1.0000 0.57745  0.34553  0.98651  Biso   1.000  N
  N107     1.0000 0.57748  0.34546  0.98651  Biso   1.000  N
  N108     1.0000 0.58621  0.31783  0.98840  Biso   1.000  N
  C412     1.0000 0.65300  0.41450  0.95531  Biso   1.000  C
  C413     1.0000 0.64286  0.44193  0.95060  Biso   1.000  C
  C414     1.0000 0.64289  0.44186  0.95060  Biso   1.000  C
  C415     1.0000 0.64292  0.44193  0.95060  Biso   1.000  C
  C416     1.0000 0.35170  0.63058  0.02260  Biso   1.000  C
  C417     1.0000 0.34490  0.65620  0.01682  Biso   1.000  C
  H666     1.0000 0.56949  0.49854  0.06562  Biso   1.000  H
  C418     1.0000 0.43874  0.50914  0.06551  Biso   1.000  C
  H667     1.0000 0.56952  0.49860  0.06562  Biso   1.000  H
  C419     1.0000 0.43871  0.50920  0.06551  Biso   1.000  C
  H668     1.0000 0.56955  0.49854  0.06562  Biso   1.000  H
  H669     1.0000 0.55378  0.52927  0.06840  Biso   1.000  H
  C420     1.0000 0.42572  0.53786  0.06351  Biso   1.000  C
  C421     1.0000 0.49859  0.39528  0.97091  Biso   1.000  C
  C422     1.0000 0.49856  0.39534  0.97091  Biso   1.000  C
  C423     1.0000 0.51189  0.36390  0.96820  Biso   1.000  C
  H670     1.0000 0.69409  0.45720  0.94349  Biso   1.000  H
  C424     1.0000 0.56128  0.49078  0.93450  Biso   1.000  C
  C425     1.0000 0.56125  0.49085  0.93450  Biso   1.000  C
  C426     1.0000 0.56132  0.49085  0.93450  Biso   1.000  C
  C427     1.0000 0.57428  0.46212  0.93650  Biso   1.000  C
  H671     1.0000 0.70448  0.42953  0.94960  Biso   1.000  H
  C428     1.0000 0.35714  0.55805  0.04941  Biso   1.000  C
  C429     1.0000 0.26942  0.68468  0.00011  Biso   1.000  C
  C430     1.0000 0.35711  0.55812  0.04941  Biso   1.000  C
  C431     1.0000 0.34699  0.58548  0.04470  Biso   1.000  C
  C432     1.0000 0.26279  0.71255  0.99472  Biso   1.000  C
  H672     1.0000 0.44400  0.45947  0.08389  Biso   1.000  H
  H673     1.0000 0.42993  0.48800  0.08139  Biso   1.000  H
  C433     1.0000 0.48742  0.46781  0.94489  Biso   1.000  C
  C434     1.0000 0.42472  0.36138  0.98108  Biso   1.000  C
  C435     1.0000 0.42468  0.36145  0.98112  Biso   1.000  C
  C436     1.0000 0.42471  0.36138  0.98112  Biso   1.000  C
  C437     1.0000 0.48745  0.46775  0.94489  Biso   1.000  C
  C438     1.0000 0.43820  0.32967  0.97630  Biso   1.000  C
  C439     1.0000 0.50157  0.43753  0.94349  Biso   1.000  C
  H674     1.0000 0.55600  0.54051  0.91611  Biso   1.000  H
  H675     1.0000 0.55603  0.54045  0.91611  Biso   1.000  H
  H676     1.0000 0.57013  0.51199  0.91861  Biso   1.000  H
  H677     1.0000 0.30591  0.54278  0.05651  Biso   1.000  H
  H678     1.0000 0.29552  0.57045  0.05041  Biso   1.000  H
  N109     1.0000 0.27597  0.76565  0.98301  Biso   1.000  N
  H679     1.0000 0.26729  0.65350  0.97302  Biso   1.000  H
  N110     1.0000 0.27600  0.76559  0.98301  Biso   1.000  N
  H680     1.0000 0.26726  0.65356  0.97302  Biso   1.000  H
  H681     1.0000 0.25817  0.68162  0.96820  Biso   1.000  H
  H682     1.0000 0.21154  0.69713  0.02381  Biso   1.000  H
  H683     1.0000 0.21151  0.69719  0.02381  Biso   1.000  H
  H684     1.0000 0.20523  0.72717  0.01882  Biso   1.000  H
  N111     1.0000 0.27260  0.79165  0.97651  Biso   1.000  N
  H685     1.0000 0.43054  0.50138  0.93439  Biso   1.000  H
  H686     1.0000 0.43051  0.50144  0.93439  Biso   1.000  H
  H687     1.0000 0.44622  0.47071  0.93161  Biso   1.000  H
  H688     1.0000 0.41421  0.34620  0.95070  Biso   1.000  H
  H689     1.0000 0.36569  0.40628  0.99700  Biso   1.000  H
  H690     1.0000 0.36566  0.40634  0.99700  Biso   1.000  H
  H691     1.0000 0.37696  0.37632  0.98790  Biso   1.000  H
  N112     1.0000 0.45268  0.28430  0.01239  Biso   1.000  N
  N113     1.0000 0.45265  0.28436  0.01239  Biso   1.000  N
  N114     1.0000 0.45274  0.28430  0.01239  Biso   1.000  N
  H692     1.0000 0.43549  0.30810  0.94581  Biso   1.000  H
  N115     1.0000 0.45862  0.25907  0.01221  Biso   1.000  N
  H693     1.0000 0.33158  0.75291  0.96320  Biso   1.000  H
  C440     1.0000 0.20101  0.82203  0.95742  Biso   1.000  C
  H694     1.0000 0.32710  0.77693  0.95549  Biso   1.000  H
  H695     1.0000 0.27519  0.79459  0.00850  Biso   1.000  H
  H696     1.0000 0.27522  0.79452  0.00850  Biso   1.000  H
  H697     1.0000 0.27569  0.81956  0.00129  Biso   1.000  H
  C441     1.0000 0.19629  0.85085  0.95242  Biso   1.000  C
  H698     1.0000 0.51031  0.24658  0.99879  Biso   1.000  H
  H699     1.0000 0.51028  0.24664  0.99879  Biso   1.000  H
  H700     1.0000 0.45780  0.30061  0.04091  Biso   1.000  H
  C442     1.0000 0.39001  0.23744  0.02239  Biso   1.000  C
  C443     1.0000 0.39004  0.23737  0.02239  Biso   1.000  C
  H701     1.0000 0.45650  0.28152  0.04048  Biso   1.000  H
  H702     1.0000 0.51798  0.22030  0.00272  Biso   1.000  H
  C444     1.0000 0.39692  0.21131  0.02149  Biso   1.000  C
  H703     1.0000 0.13981  0.83644  0.97919  Biso   1.000  H
  C445     1.0000 0.19946  0.78265  0.91140  Biso   1.000  C
  C446     1.0000 0.21227  0.90461  0.94271  Biso   1.000  C
  H704     1.0000 0.13984  0.83638  0.97919  Biso   1.000  H
  C447     1.0000 0.19949  0.78258  0.91140  Biso   1.000  C
  H705     1.0000 0.13598  0.86386  0.97469  Biso   1.000  H
  C448     1.0000 0.19220  0.81562  0.90569  Biso   1.000  C
  C449     1.0000 0.20679  0.93435  0.93982  Biso   1.000  C
  C450     1.0000 0.37551  0.20618  0.97730  Biso   1.000  C
  C451     1.0000 0.37548  0.20624  0.97730  Biso   1.000  C
  C452     1.0000 0.29457  0.29371  0.04830  Biso   1.000  C
  H706     1.0000 0.41800  0.18690  0.04291  Biso   1.000  H
  H707     1.0000 0.41797  0.18696  0.04291  Biso   1.000  H
  C453     1.0000 0.29463  0.29371  0.04830  Biso   1.000  C
  C454     1.0000 0.30021  0.26611  0.04652  Biso   1.000  C
  C455     1.0000 0.38576  0.17743  0.97641  Biso   1.000  C
  H708     1.0000 0.42474  0.16148  0.04248  Biso   1.000  H
  H709     1.0000 0.26297  0.74949  0.89391  Biso   1.000  H
  H710     1.0000 0.16550  0.74553  0.91801  Biso   1.000  H
  C456     1.0000 0.14790  0.86264  0.88431  Biso   1.000  C
  H711     1.0000 0.26303  0.74949  0.89391  Biso   1.000  H
  H712     1.0000 0.16553  0.74547  0.91801  Biso   1.000  H
  C457     1.0000 0.14793  0.86258  0.88431  Biso   1.000  C
  H713     1.0000 0.26300  0.74956  0.89391  Biso   1.000  H
  H714     1.0000 0.15839  0.77837  0.91151  Biso   1.000  H
  H715     1.0000 0.25494  0.78386  0.88702  Biso   1.000  H
  N116     1.0000 0.15466  0.97462  0.97801  Biso   1.000  N
  C458     1.0000 0.19057  0.92433  0.89180  Biso   1.000  C
  H716     1.0000 0.27888  0.89323  0.94121  Biso   1.000  H
  H717     1.0000 0.27891  0.89317  0.94121  Biso   1.000  H
  C459     1.0000 0.18296  0.95815  0.88941  Biso   1.000  C
  H718     1.0000 0.27349  0.92303  0.93800  Biso   1.000  H
  C460     1.0000 0.13866  0.89812  0.88092  Biso   1.000  C
  N117     1.0000 0.14960  0.00175  0.97659  Biso   1.000  N
  H719     1.0000 0.42049  0.21062  0.94931  Biso   1.000  H
  C461     1.0000 0.27778  0.26348  0.97152  Biso   1.000  C
  H720     1.0000 0.38361  0.14598  0.98080  Biso   1.000  H
  H721     1.0000 0.38358  0.14605  0.98080  Biso   1.000  H
  C462     1.0000 0.27775  0.26354  0.97152  Biso   1.000  C
  H722     1.0000 0.42052  0.21055  0.94931  Biso   1.000  H
  C463     1.0000 0.27781  0.26354  0.97152  Biso   1.000  C
  C464     1.0000 0.28719  0.22981  0.97009  Biso   1.000  C
  H723     1.0000 0.42971  0.18398  0.94849  Biso   1.000  H
  N118     1.0000 0.28299  0.26934  0.10006  Biso   1.000  N
  H724     1.0000 0.28579  0.35474  0.04552  Biso   1.000  H
  C465     1.0000 0.22650  0.28080  0.02260  Biso   1.000  C
  N119     1.0000 0.28302  0.26928  0.10006  Biso   1.000  N
  H725     1.0000 0.28583  0.35468  0.04548  Biso   1.000  H
  C466     1.0000 0.22647  0.28086  0.02260  Biso   1.000  C
  H726     1.0000 0.28580  0.35474  0.04548  Biso   1.000  H
  N120     1.0000 0.28864  0.24398  0.09860  Biso   1.000  N
  H727     1.0000 0.28871  0.32777  0.04270  Biso   1.000  H
  C467     1.0000 0.23508  0.24752  0.02110  Biso   1.000  C
  H728     1.0000 0.39791  0.11622  0.97991  Biso   1.000  H
  H729     1.0000 0.08049  0.88695  0.89741  Biso   1.000  H
  H730     1.0000 0.15731  0.84992  0.85000  Biso   1.000  H
  H731     1.0000 0.08052  0.88688  0.89741  Biso   1.000  H
  H732     1.0000 0.14584  0.88846  0.84640  Biso   1.000  H
  H733     1.0000 0.07179  0.92193  0.89509  Biso   1.000  H
  C468     1.0000 0.17381  0.05121  0.97180  Biso   1.000  C
  H734     1.0000 0.09386  0.99045  0.97651  Biso   1.000  H
  H735     1.0000 0.09389  0.99039  0.97651  Biso   1.000  H
  H736     1.0000 0.16311  0.95353  0.00782  Biso   1.000  H
  H737     1.0000 0.16310  0.95359  0.00779  Biso   1.000  H
  H738     1.0000 0.16308  0.95359  0.00782  Biso   1.000  H
  H739     1.0000 0.16312  0.95353  0.00779  Biso   1.000  H
  H740     1.0000 0.16012  0.97899  0.00579  Biso   1.000  H
  C469     1.0000 0.17384  0.05114  0.97180  Biso   1.000  C
  H741     1.0000 0.08872  0.01669  0.97591  Biso   1.000  H
  H742     1.0000 0.14622  0.98440  0.88920  Biso   1.000  H
  H743     1.0000 0.24802  0.91360  0.86799  Biso   1.000  H
  H744     1.0000 0.14619  0.98446  0.88920  Biso   1.000  H
  H745     1.0000 0.24800  0.91367  0.86799  Biso   1.000  H
  H746     1.0000 0.23956  0.94832  0.86532  Biso   1.000  H
  H747     1.0000 0.13880  0.01856  0.88820  Biso   1.000  H
  C470     1.0000 0.16641  0.07956  0.97159  Biso   1.000  C
  H748     1.0000 0.27469  0.31712  0.95499  Biso   1.000  H
  H749     1.0000 0.25232  0.23447  0.95342  Biso   1.000  H
  H750     1.0000 0.25229  0.23453  0.95342  Biso   1.000  H
  H751     1.0000 0.27472  0.31705  0.95499  Biso   1.000  H
  H752     1.0000 0.28107  0.28351  0.95292  Biso   1.000  H
  H753     1.0000 0.26471  0.19742  0.95260  Biso   1.000  H
  H754     1.0000 0.32938  0.27142  0.11292  Biso   1.000  H
  H755     1.0000 0.28788  0.21470  0.10242  Biso   1.000  H
  C471     1.0000 0.19247  0.32633  0.12752  Biso   1.000  C
  H756     1.0000 0.28790  0.21470  0.10238  Biso   1.000  H
  H757     1.0000 0.28786  0.21476  0.10242  Biso   1.000  H
  H758     1.0000 0.33251  0.25059  0.11159  Biso   1.000  H
  C472     1.0000 0.19566  0.29783  0.12520  Biso   1.000  C
  H759     1.0000 0.16749  0.33261  0.02481  Biso   1.000  H
  H760     1.0000 0.21288  0.23173  0.03592  Biso   1.000  H
  H761     1.0000 0.21291  0.23167  0.03592  Biso   1.000  H
  H762     1.0000 0.17449  0.29728  0.02281  Biso   1.000  H
  H763     1.0000 0.29769  0.18819  0.10171  Biso   1.000  H
  H764     1.0000 0.22460  0.19731  0.03509  Biso   1.000  H
  H765     1.0000 0.15952  0.07830  0.94089  Biso   1.000  H
  H766     1.0000 0.24049  0.03518  0.97180  Biso   1.000  H
  H767     1.0000 0.24046  0.03524  0.97180  Biso   1.000  H
  H768     1.0000 0.15141  0.10716  0.94082  Biso   1.000  H
  H769     1.0000 0.23301  0.06417  0.97120  Biso   1.000  H
  C473     1.0000 0.11093  0.13970  0.01028  Biso   1.000  C
  C474     1.0000 0.11571  0.11321  0.01171  Biso   1.000  C
  C475     1.0000 0.11086  0.13970  0.01032  Biso   1.000  C
  C476     1.0000 0.11089  0.13977  0.01032  Biso   1.000  C
  C477     1.0000 0.18118  0.29633  0.17821  Biso   1.000  C
  H770     1.0000 0.18862  0.38521  0.12709  Biso   1.000  H
  H771     1.0000 0.14168  0.32704  0.11249  Biso   1.000  H
  H772     1.0000 0.14171  0.32698  0.11249  Biso   1.000  H
  H773     1.0000 0.18859  0.38527  0.12709  Biso   1.000  H
  C478     1.0000 0.18578  0.27128  0.17649  Biso   1.000  C
  H774     1.0000 0.14752  0.29241  0.11060  Biso   1.000  H
  H775     1.0000 0.18650  0.35842  0.12320  Biso   1.000  H
  N121     1.0000 0.12201  0.11042  0.05441  Biso   1.000  N
  C479     1.0000 0.04927  0.22042  0.00161  Biso   1.000  C
  N122     1.0000 0.12812  0.08118  0.05519  Biso   1.000  N
  C480     1.0000 0.05662  0.19560  0.00439  Biso   1.000  C
  N123     1.0000 0.25881  0.23609  0.19191  Biso   1.000  N
  C481     1.0000 0.09819  0.33170  0.20880  Biso   1.000  C
  N124     1.0000 0.25878  0.23616  0.19191  Biso   1.000  N
  C482     1.0000 0.09816  0.33176  0.20880  Biso   1.000  C
  N125     1.0000 0.26291  0.21009  0.19020  Biso   1.000  N
  C483     1.0000 0.10300  0.30767  0.20730  Biso   1.000  C
  C484     1.0000 0.07396  0.16512  0.09121  Biso   1.000  C
  C485     1.0000 0.07402  0.16512  0.09121  Biso   1.000  C
  C486     1.0000 0.08277  0.13441  0.09289  Biso   1.000  C
  H776     1.0000 0.03843  0.23728  0.97020  Biso   1.000  H
  H777     1.0000 0.03840  0.23735  0.97020  Biso   1.000  H
  H778     1.0000 0.05021  0.21649  0.97291  Biso   1.000  H
  C487     1.0000 0.00287  0.27723  0.03952  Biso   1.000  C
  C488     1.0000 0.00289  0.27723  0.03949  Biso   1.000  C
  C489     1.0000 0.00609  0.24840  0.04348  Biso   1.000  C
  C490     1.0000 0.24957  0.21001  0.23700  Biso   1.000  C
  C491     1.0000 0.24963  0.21001  0.23700  Biso   1.000  C
  C492     1.0000 0.25508  0.18899  0.23622  Biso   1.000  C
  C493     1.0000 0.08517  0.28994  0.25099  Biso   1.000  C
  H779     1.0000 0.05051  0.38381  0.20120  Biso   1.000  H
  C494     1.0000 0.08520  0.28988  0.25099  Biso   1.000  C
  C495     1.0000 0.10387  0.30192  0.25571  Biso   1.000  C
  H780     1.0000 0.04638  0.33619  0.19559  Biso   1.000  H
  C496     1.0000 0.01178  0.24700  0.08539  Biso   1.000  C
  C497     1.0000 0.08919  0.13070  0.14019  Biso   1.000  C
  C498     1.0000 0.01175  0.24707  0.08539  Biso   1.000  C
  C499     1.0000 0.08916  0.13076  0.14019  Biso   1.000  C
  C500     1.0000 0.02374  0.21797  0.08839  Biso   1.000  C
  C501     1.0000 0.10272  0.09788  0.14101  Biso   1.000  C
  H781     1.0000 0.96578  0.33562  0.03409  Biso   1.000  H
  H782     1.0000 0.96051  0.30418  0.03959  Biso   1.000  H
  C502     1.0000 0.33745  0.14883  0.25332  Biso   1.000  C
  C503     1.0000 0.16235  0.22805  0.26581  Biso   1.000  C
  C504     1.0000 0.16238  0.22799  0.26581  Biso   1.000  C
  C505     1.0000 0.33500  0.11292  0.25071  Biso   1.000  C
  C506     1.0000 0.18040  0.23940  0.27091  Biso   1.000  C
  H783     1.0000 0.02479  0.30363  0.26920  Biso   1.000  H
  H784     1.0000 0.05361  0.33977  0.27780  Biso   1.000  H
  H785     1.0000 0.97548  0.28234  0.11220  Biso   1.000  H
  H786     1.0000 0.97551  0.28227  0.11220  Biso   1.000  H
  H787     1.0000 0.99531  0.25439  0.11559  Biso   1.000  H
  N126     1.0000 0.13681  0.03681  0.13883  Biso   1.000  N
  H788     1.0000 0.02867  0.14850  0.16211  Biso   1.000  H
  H789     1.0000 0.12718  0.15455  0.15240  Biso   1.000  H
  H790     1.0000 0.02873  0.14850  0.16211  Biso   1.000  H
  H791     1.0000 0.12721  0.15449  0.15240  Biso   1.000  H
  H792     1.0000 0.02870  0.14856  0.16211  Biso   1.000  H
  H793     1.0000 0.14070  0.12230  0.15268  Biso   1.000  H
  H794     1.0000 0.04360  0.11358  0.16411  Biso   1.000  H
  N127     1.0000 0.15261  0.00418  0.13808  Biso   1.000  N
  N128     1.0000 0.41020  0.10055  0.21269  Biso   1.000  N
  H795     1.0000 0.32326  0.10801  0.27630  Biso   1.000  H
  H796     1.0000 0.36150  0.18102  0.27009  Biso   1.000  H
  N129     1.0000 0.41023  0.10049  0.21269  Biso   1.000  N
  H797     1.0000 0.32332  0.10801  0.27630  Biso   1.000  H
  N130     1.0000 0.41827  0.08171  0.21230  Biso   1.000  N
  H798     1.0000 0.35211  0.12828  0.27902  Biso   1.000  H
  H799     1.0000 0.15688  0.19820  0.29480  Biso   1.000  H
  H800     1.0000 0.15685  0.19827  0.29480  Biso   1.000  H
  H801     1.0000 0.18258  0.23040  0.30390  Biso   1.000  H
  H802     1.0000 0.31489  0.06599  0.26010  Biso   1.000  H
  C507     1.0000 0.16854  0.99713  0.18370  Biso   1.000  C
  C508     1.0000 0.16852  0.99719  0.18370  Biso   1.000  C
  H803     1.0000 0.20308  0.99058  0.11431  Biso   1.000  H
  H804     1.0000 0.11472  0.98240  0.12991  Biso   1.000  H
  C509     1.0000 0.18392  0.96257  0.18270  Biso   1.000  C
  H805     1.0000 0.09759  0.01549  0.13180  Biso   1.000  H
  H806     1.0000 0.18689  0.02111  0.11481  Biso   1.000  H
  H807     1.0000 0.09756  0.01556  0.13180  Biso   1.000  H
  H808     1.0000 0.18687  0.02117  0.11481  Biso   1.000  H
  H809     1.0000 0.42460  0.13775  0.19199  Biso   1.000  H
  H810     1.0000 0.38801  0.07169  0.19681  Biso   1.000  H
  C510     1.0000 0.49528  0.03900  0.22990  Biso   1.000  C
  H811     1.0000 0.42463  0.13768  0.19199  Biso   1.000  H
  H812     1.0000 0.38799  0.07175  0.19681  Biso   1.000  H
  C511     1.0000 0.49525  0.03906  0.22990  Biso   1.000  C
  H813     1.0000 0.40778  0.05458  0.18942  Biso   1.000  H
  H814     1.0000 0.42871  0.12688  0.19848  Biso   1.000  H
  C512     1.0000 0.50179  0.02177  0.23140  Biso   1.000  C
  C513     1.0000 0.20713  0.89908  0.18049  Biso   1.000  C
  H815     1.0000 0.23123  0.98089  0.18999  Biso   1.000  H
  C514     1.0000 0.10410  0.98302  0.22540  Biso   1.000  C
  H816     1.0000 0.21790  0.01403  0.18959  Biso   1.000  H
  C515     1.0000 0.08988  0.02154  0.22711  Biso   1.000  C
  H817     1.0000 0.21793  0.01397  0.18959  Biso   1.000  H
  C516     1.0000 0.08990  0.02148  0.22711  Biso   1.000  C
  C517     1.0000 0.22662  0.86470  0.17739  Biso   1.000  C
  C518     1.0000 0.56763  0.97746  0.19159  Biso   1.000  C
  C519     1.0000 0.56760  0.97752  0.19159  Biso   1.000  C
  C520     1.0000 0.57801  0.95998  0.19441  Biso   1.000  C
  H818     1.0000 0.48223  0.98788  0.25771  Biso   1.000  H
  C521     1.0000 0.54630  0.08513  0.24882  Biso   1.000  C
  H819     1.0000 0.47685  0.00492  0.25642  Biso   1.000  H
  H820     1.0000 0.47692  0.00492  0.25639  Biso   1.000  H
  H821     1.0000 0.47691  0.00492  0.25642  Biso   1.000  H
  C522     1.0000 0.55022  0.06937  0.25139  Biso   1.000  C
  N131     1.0000 0.31063  0.86075  0.17089  Biso   1.000  N
  C523     1.0000 0.16729  0.86937  0.22811  Biso   1.000  C
  H822     1.0000 0.18458  0.88329  0.15411  Biso   1.000  H
  N132     1.0000 0.31060  0.86081  0.17089  Biso   1.000  N
  H823     1.0000 0.18461  0.88322  0.15411  Biso   1.000  H
  C524     1.0000 0.18112  0.83107  0.22151  Biso   1.000  C
  H824     1.0000 0.21092  0.84952  0.14818  Biso   1.000  H
  C525     1.0000 0.12500  0.94887  0.25960  Biso   1.000  C
  H825     1.0000 0.04587  0.99022  0.21540  Biso   1.000  H
  C526     1.0000 0.13760  0.90708  0.25589  Biso   1.000  C
  H826     1.0000 0.03108  0.02671  0.21851  Biso   1.000  H
  H827     1.0000 0.09348  0.03539  0.24221  Biso   1.000  H
  H828     1.0000 0.07970  0.07581  0.24161  Biso   1.000  H
  N133     1.0000 0.32957  0.82922  0.17289  Biso   1.000  N
  N134     1.0000 0.54638  0.90327  0.18570  Biso   1.000  N
  N135     1.0000 0.54645  0.90327  0.18570  Biso   1.000  N
  N136     1.0000 0.55664  0.88717  0.18549  Biso   1.000  N
  C527     1.0000 0.65911  0.95326  0.20891  Biso   1.000  C
  C528     1.0000 0.65908  0.95333  0.20891  Biso   1.000  C
  H829     1.0000 0.58497  0.99103  0.16389  Biso   1.000  H
  C529     1.0000 0.66521  0.93308  0.21630  Biso   1.000  C
  H830     1.0000 0.56917  0.00844  0.16050  Biso   1.000  H
  H831     1.0000 0.56920  0.00837  0.16050  Biso   1.000  H
  C530     1.0000 0.64732  0.03910  0.22690  Biso   1.000  C
  H832     1.0000 0.53774  0.08234  0.28402  Biso   1.000  H
  H833     1.0000 0.52221  0.14591  0.23911  Biso   1.000  H
  H834     1.0000 0.53783  0.08228  0.28402  Biso   1.000  H
  C531     1.0000 0.64729  0.03917  0.22690  Biso   1.000  C
  H835     1.0000 0.53780  0.08234  0.28402  Biso   1.000  H
  C532     1.0000 0.65289  0.01721  0.23679  Biso   1.000  C
  H836     1.0000 0.53229  0.12757  0.23800  Biso   1.000  H
  H837     1.0000 0.53261  0.07380  0.28659  Biso   1.000  H
  H838     1.0000 0.33049  0.86817  0.19720  Biso   1.000  H
  H839     1.0000 0.32998  0.89006  0.14661  Biso   1.000  H
  C533     1.0000 0.35575  0.76933  0.15829  Biso   1.000  C
  H840     1.0000 0.33001  0.89012  0.14661  Biso   1.000  H
  C534     1.0000 0.35573  0.76939  0.15829  Biso   1.000  C
  H841     1.0000 0.33004  0.89006  0.14661  Biso   1.000  H
  H842     1.0000 0.33055  0.86817  0.19720  Biso   1.000  H
  H843     1.0000 0.35077  0.86310  0.15261  Biso   1.000  H
  H844     1.0000 0.34322  0.83219  0.20191  Biso   1.000  H
  H845     1.0000 0.21682  0.82229  0.24182  Biso   1.000  H
  H846     1.0000 0.11941  0.84986  0.22401  Biso   1.000  H
  H847     1.0000 0.21683  0.82229  0.24178  Biso   1.000  H
  H848     1.0000 0.11938  0.84993  0.22401  Biso   1.000  H
  H849     1.0000 0.21686  0.82222  0.24178  Biso   1.000  H
  H850     1.0000 0.13329  0.81479  0.21380  Biso   1.000  H
  H851     1.0000 0.22788  0.78111  0.23511  Biso   1.000  H
  H852     1.0000 0.17251  0.95353  0.27520  Biso   1.000  H
  H853     1.0000 0.07370  0.94715  0.28459  Biso   1.000  H
  H854     1.0000 0.17248  0.95359  0.27520  Biso   1.000  H
  H855     1.0000 0.07367  0.94722  0.28459  Biso   1.000  H
  H856     1.0000 0.07376  0.94715  0.28459  Biso   1.000  H
  H857     1.0000 0.08537  0.90343  0.27941  Biso   1.000  H
  H858     1.0000 0.18423  0.90919  0.27320  Biso   1.000  H
  C535     1.0000 0.38047  0.74051  0.15550  Biso   1.000  C
  C536     1.0000 0.61809  0.83518  0.15200  Biso   1.000  C
  C537     1.0000 0.63453  0.81638  0.15590  Biso   1.000  C
  H859     1.0000 0.53883  0.87923  0.21480  Biso   1.000  H
  H860     1.0000 0.49144  0.92266  0.17521  Biso   1.000  H
  H861     1.0000 0.53880  0.87929  0.21480  Biso   1.000  H
  H862     1.0000 0.49141  0.92273  0.17521  Biso   1.000  H
  H863     1.0000 0.50660  0.90717  0.17060  Biso   1.000  H
  H864     1.0000 0.54041  0.86543  0.21408  Biso   1.000  H
  H865     1.0000 0.66670  0.91068  0.23489  Biso   1.000  H
  H866     1.0000 0.71303  0.93045  0.18260  Biso   1.000  H
  H867     1.0000 0.71300  0.93051  0.18260  Biso   1.000  H
  H868     1.0000 0.72221  0.90983  0.19170  Biso   1.000  H
  H869     1.0000 0.66768  0.88998  0.24161  Biso   1.000  H
  H870     1.0000 0.66485  0.07255  0.20020  Biso   1.000  H
  H871     1.0000 0.68687  0.03035  0.25110  Biso   1.000  H
  H872     1.0000 0.66488  0.07248  0.20020  Biso   1.000  H
  H873     1.0000 0.68690  0.03029  0.25110  Biso   1.000  H
  H874     1.0000 0.66491  0.07255  0.20020  Biso   1.000  H
  H875     1.0000 0.68411  0.00632  0.26470  Biso   1.000  H
  H876     1.0000 0.68027  0.04799  0.21251  Biso   1.000  H
  H877     1.0000 0.33153  0.73715  0.18331  Biso   1.000  H
  H878     1.0000 0.33972  0.76117  0.12780  Biso   1.000  H
  C538     1.0000 0.45879  0.73436  0.15340  Biso   1.000  C
  H879     1.0000 0.33150  0.73721  0.18331  Biso   1.000  H
  C539     1.0000 0.45876  0.73442  0.15340  Biso   1.000  C
  C540     1.0000 0.45885  0.73436  0.15340  Biso   1.000  C
  H880     1.0000 0.36850  0.73700  0.12320  Biso   1.000  H
  H881     1.0000 0.35722  0.70319  0.17681  Biso   1.000  H
  C541     1.0000 0.48273  0.70888  0.15340  Biso   1.000  C
  C542     1.0000 0.58568  0.76607  0.14922  Biso   1.000  C
  C543     1.0000 0.58566  0.76613  0.14918  Biso   1.000  C
  C544     1.0000 0.58575  0.76606  0.14918  Biso   1.000  C
  C545     1.0000 0.60526  0.74553  0.15218  Biso   1.000  C
  H882     1.0000 0.62738  0.85977  0.12002  Biso   1.000  H
  H883     1.0000 0.67800  0.81114  0.16350  Biso   1.000  H
  H884     1.0000 0.62740  0.85977  0.11998  Biso   1.000  H
  H885     1.0000 0.67803  0.81120  0.16350  Biso   1.000  H
  H886     1.0000 0.67806  0.81114  0.16350  Biso   1.000  H
  H887     1.0000 0.69052  0.79510  0.17082  Biso   1.000  H
  H888     1.0000 0.64990  0.83777  0.12359  Biso   1.000  H
  N137     1.0000 0.49390  0.79347  0.15090  Biso   1.000  N
  C546     1.0000 0.51331  0.64936  0.15361  Biso   1.000  C
  C547     1.0000 0.51328  0.64943  0.15361  Biso   1.000  C
  N138     1.0000 0.51388  0.77013  0.15400  Biso   1.000  N
  C548     1.0000 0.54099  0.62481  0.14911  Biso   1.000  C
  C549     1.0000 0.64419  0.68118  0.14779  Biso   1.000  C
  C550     1.0000 0.66702  0.66158  0.14840  Biso   1.000  C
  H889     1.0000 0.48633  0.60916  0.15679  Biso   1.000  H
  C551     1.0000 0.60769  0.62193  0.14911  Biso   1.000  C
  H890     1.0000 0.48630  0.60922  0.15679  Biso   1.000  H
  C552     1.0000 0.60772  0.62200  0.14911  Biso   1.000  C
  C553     1.0000 0.60775  0.62193  0.14911  Biso   1.000  C
  H891     1.0000 0.51731  0.58322  0.14740  Biso   1.000  H
  C554     1.0000 0.63430  0.60021  0.14729  Biso   1.000  C
  H892     1.0000 0.70899  0.66354  0.14601  Biso   1.000  H
  H893     1.0000 0.70902  0.66361  0.14601  Biso   1.000  H
  H894     1.0000 0.70905  0.66354  0.14601  Biso   1.000  H
  H895     1.0000 0.73147  0.64612  0.14661  Biso   1.000  H
  H896     1.0000 0.64720  0.56265  0.14690  Biso   1.000  H
  H897     1.0000 0.64717  0.56272  0.14690  Biso   1.000  H
  H898     1.0000 0.67571  0.54150  0.14529  Biso   1.000  H
  N139     1.0000 0.50610  0.20651  0.84911  Biso   1.000  N
  C555     1.0000 0.41432  0.23392  0.85079  Biso   1.000  C
  C556     1.0000 0.41434  0.23385  0.85079  Biso   1.000  C
  C557     1.0000 0.39474  0.25445  0.84779  Biso   1.000  C
  C558     1.0000 0.54120  0.26562  0.84661  Biso   1.000  C
  C559     1.0000 0.54123  0.26556  0.84661  Biso   1.000  C
  C560     1.0000 0.51727  0.29110  0.84661  Biso   1.000  C
  C561     1.0000 0.38191  0.16480  0.84800  Biso   1.000  C
  C562     1.0000 0.36547  0.18361  0.84411  Biso   1.000  C
  C563     1.0000 0.35580  0.31880  0.85221  Biso   1.000  C
  N140     1.0000 0.48611  0.22985  0.84600  Biso   1.000  N
  C564     1.0000 0.33297  0.33840  0.85161  Biso   1.000  C
  C565     1.0000 0.48668  0.35062  0.84640  Biso   1.000  C
  C566     1.0000 0.64424  0.23065  0.84172  Biso   1.000  C
  C567     1.0000 0.64428  0.23059  0.84168  Biso   1.000  C
  C568     1.0000 0.64427  0.23059  0.84172  Biso   1.000  C
  C569     1.0000 0.48671  0.35055  0.84640  Biso   1.000  C
  C570     1.0000 0.64434  0.23059  0.84168  Biso   1.000  C
  C571     1.0000 0.61952  0.25947  0.84450  Biso   1.000  C
  C572     1.0000 0.45900  0.37517  0.85089  Biso   1.000  C
  N141     1.0000 0.45361  0.09671  0.81430  Biso   1.000  N
  N142     1.0000 0.45364  0.09665  0.81430  Biso   1.000  N
  N143     1.0000 0.44342  0.11281  0.81452  Biso   1.000  N
  H899     1.0000 0.37261  0.14021  0.87999  Biso   1.000  H
  H900     1.0000 0.32200  0.18885  0.83651  Biso   1.000  H
  H901     1.0000 0.32203  0.18878  0.83651  Biso   1.000  H
  H902     1.0000 0.37264  0.14014  0.87999  Biso   1.000  H
  H903     1.0000 0.30953  0.20488  0.82919  Biso   1.000  H
  H904     1.0000 0.35013  0.16215  0.87642  Biso   1.000  H
  C573     1.0000 0.39233  0.37798  0.85089  Biso   1.000  C
  C574     1.0000 0.39231  0.37805  0.85089  Biso   1.000  C
  H905     1.0000 0.29101  0.33644  0.85400  Biso   1.000  H
  H906     1.0000 0.29104  0.33637  0.85400  Biso   1.000  H
  C575     1.0000 0.36570  0.39978  0.85271  Biso   1.000  C
  H907     1.0000 0.26853  0.35387  0.85339  Biso   1.000  H
  H908     1.0000 0.51367  0.39082  0.84322  Biso   1.000  H
  H909     1.0000 0.51368  0.39082  0.84318  Biso   1.000  H
  H910     1.0000 0.51370  0.39076  0.84322  Biso   1.000  H
  H911     1.0000 0.48269  0.41676  0.85261  Biso   1.000  H
  N144     1.0000 0.68937  0.13923  0.82912  Biso   1.000  N
  H912     1.0000 0.66846  0.26283  0.81669  Biso   1.000  H
  H913     1.0000 0.66028  0.23881  0.87221  Biso   1.000  H
  N145     1.0000 0.68940  0.13917  0.82912  Biso   1.000  N
  H914     1.0000 0.66849  0.26277  0.81669  Biso   1.000  H
  H915     1.0000 0.66031  0.23875  0.87221  Biso   1.000  H
  N146     1.0000 0.67043  0.17076  0.82712  Biso   1.000  N
  H916     1.0000 0.63149  0.26299  0.87681  Biso   1.000  H
  H917     1.0000 0.64283  0.29679  0.82319  Biso   1.000  H
  C576     1.0000 0.43236  0.02252  0.80841  Biso   1.000  C
  C577     1.0000 0.43239  0.02246  0.80841  Biso   1.000  C
  C578     1.0000 0.42198  0.04000  0.80559  Biso   1.000  C
  H918     1.0000 0.46119  0.12069  0.78521  Biso   1.000  H
  H919     1.0000 0.46116  0.12075  0.78521  Biso   1.000  H
  H920     1.0000 0.50856  0.07732  0.82480  Biso   1.000  H
  H921     1.0000 0.50862  0.07732  0.82480  Biso   1.000  H
  H922     1.0000 0.50865  0.07725  0.82480  Biso   1.000  H
  H923     1.0000 0.49342  0.09274  0.82940  Biso   1.000  H
  H924     1.0000 0.45966  0.13455  0.78589  Biso   1.000  H
  H925     1.0000 0.35280  0.43733  0.85311  Biso   1.000  H
  H926     1.0000 0.35282  0.43726  0.85311  Biso   1.000  H
  H927     1.0000 0.32429  0.45848  0.85471  Biso   1.000  H
  C579     1.0000 0.79287  0.10090  0.81952  Biso   1.000  C
  H928     1.0000 0.66951  0.13181  0.80281  Biso   1.000  H
  H929     1.0000 0.67002  0.10992  0.85339  Biso   1.000  H
  H930     1.0000 0.66954  0.13174  0.80281  Biso   1.000  H
  H931     1.0000 0.67005  0.10986  0.85339  Biso   1.000  H
  H932     1.0000 0.64923  0.13689  0.84740  Biso   1.000  H
  H933     1.0000 0.65678  0.16779  0.79810  Biso   1.000  H
  C580     1.0000 0.77337  0.13529  0.82262  Biso   1.000  C
  C581     1.0000 0.34089  0.04672  0.79110  Biso   1.000  C
  H934     1.0000 0.43080  0.99161  0.83951  Biso   1.000  H
  C582     1.0000 0.50469  0.96104  0.77011  Biso   1.000  C
  C583     1.0000 0.50472  0.96098  0.77011  Biso   1.000  C
  H935     1.0000 0.43077  0.99167  0.83951  Biso   1.000  H
  C584     1.0000 0.49821  0.97821  0.76861  Biso   1.000  C
  C585     1.0000 0.34092  0.04665  0.79110  Biso   1.000  C
  H936     1.0000 0.41503  0.00895  0.83611  Biso   1.000  H
  C586     1.0000 0.33478  0.06690  0.78371  Biso   1.000  C
  H937     1.0000 0.81541  0.11669  0.84590  Biso   1.000  H
  C587     1.0000 0.83148  0.00279  0.81630  Biso   1.000  C
  C588     1.0000 0.83271  0.13061  0.77189  Biso   1.000  C
  C589     1.0000 0.83145  0.00285  0.81630  Biso   1.000  C
  C590     1.0000 0.83274  0.13054  0.77189  Biso   1.000  C
  C591     1.0000 0.81611  0.03735  0.81730  Biso   1.000  C
  C592     1.0000 0.81890  0.16885  0.77850  Biso   1.000  C
  H938     1.0000 0.78915  0.15046  0.85179  Biso   1.000  H
  H939     1.0000 0.33330  0.08930  0.76511  Biso   1.000  H
  C593     1.0000 0.35265  0.96094  0.77311  Biso   1.000  C
  C594     1.0000 0.35268  0.96088  0.77311  Biso   1.000  C
  C595     1.0000 0.35271  0.96094  0.77311  Biso   1.000  C
  C596     1.0000 0.34708  0.98283  0.76322  Biso   1.000  C
  H940     1.0000 0.28696  0.06953  0.81741  Biso   1.000  H
  H941     1.0000 0.28699  0.06947  0.81741  Biso   1.000  H
  H942     1.0000 0.27784  0.09015  0.80831  Biso   1.000  H
  C597     1.0000 0.45367  0.91492  0.75119  Biso   1.000  C
  C598     1.0000 0.45373  0.91492  0.75119  Biso   1.000  C
  C599     1.0000 0.44974  0.93067  0.74862  Biso   1.000  C
  N147     1.0000 0.58977  0.89949  0.78732  Biso   1.000  N
  H943     1.0000 0.52312  0.99513  0.74359  Biso   1.000  H
  N148     1.0000 0.58974  0.89956  0.78732  Biso   1.000  N
  N149     1.0000 0.58983  0.89949  0.78732  Biso   1.000  N
  N150     1.0000 0.58170  0.91833  0.78771  Biso   1.000  N
  H944     1.0000 0.51777  0.01211  0.74230  Biso   1.000  H
  H945     1.0000 0.33231  0.11000  0.75840  Biso   1.000  H
  N151     1.0000 0.86315  0.96323  0.86117  Biso   1.000  N
  H946     1.0000 0.78207  0.98601  0.81041  Biso   1.000  H
  C600     1.0000 0.91009  0.97850  0.77289  Biso   1.000  C
  C601     1.0000 0.91006  0.97856  0.77289  Biso   1.000  C
  N152     1.0000 0.86321  0.96323  0.86117  Biso   1.000  N
  N153     1.0000 0.84736  0.99587  0.86192  Biso   1.000  N
  H947     1.0000 0.76877  0.01909  0.81002  Biso   1.000  H
  C602     1.0000 0.89589  0.01696  0.77461  Biso   1.000  C
  C603     1.0000 0.87499  0.05111  0.74041  Biso   1.000  C
  H948     1.0000 0.88058  0.15012  0.77600  Biso   1.000  H
  H949     1.0000 0.78318  0.17769  0.75819  Biso   1.000  H
  H950     1.0000 0.78324  0.17769  0.75819  Biso   1.000  H
  C604     1.0000 0.87502  0.05105  0.74041  Biso   1.000  C
  H951     1.0000 0.88061  0.15005  0.77600  Biso   1.000  H
  C605     1.0000 0.86241  0.09290  0.74409  Biso   1.000  C
  H952     1.0000 0.86670  0.18519  0.78621  Biso   1.000  H
  H953     1.0000 0.77212  0.21887  0.76490  Biso   1.000  H
  H954     1.0000 0.33512  0.92750  0.79981  Biso   1.000  H
  H955     1.0000 0.31310  0.96969  0.74890  Biso   1.000  H
  H956     1.0000 0.33509  0.92756  0.79981  Biso   1.000  H
  H957     1.0000 0.31307  0.96975  0.74890  Biso   1.000  H
  H958     1.0000 0.31586  0.99372  0.73530  Biso   1.000  H
  H959     1.0000 0.31970  0.95205  0.78749  Biso   1.000  H
  H960     1.0000 0.46222  0.91770  0.71599  Biso   1.000  H
  H961     1.0000 0.47776  0.85413  0.76090  Biso   1.000  H
  H962     1.0000 0.47778  0.85407  0.76090  Biso   1.000  H
  H963     1.0000 0.46220  0.91777  0.71599  Biso   1.000  H
  H964     1.0000 0.47782  0.85413  0.76090  Biso   1.000  H
  H965     1.0000 0.46771  0.87241  0.76201  Biso   1.000  H
  H966     1.0000 0.46736  0.92624  0.71342  Biso   1.000  H
  H967     1.0000 0.57536  0.86230  0.80802  Biso   1.000  H
  H968     1.0000 0.61195  0.92835  0.80320  Biso   1.000  H
  C606     1.0000 0.66251  0.85121  0.74669  Biso   1.000  C
  H969     1.0000 0.57544  0.86230  0.80798  Biso   1.000  H
  H970     1.0000 0.61198  0.92829  0.80320  Biso   1.000  H
  H971     1.0000 0.57540  0.86236  0.80802  Biso   1.000  H
  H972     1.0000 0.59219  0.94546  0.81059  Biso   1.000  H
  H973     1.0000 0.57127  0.87317  0.80149  Biso   1.000  H
  C607     1.0000 0.66497  0.88712  0.74930  Biso   1.000  C
  H974     1.0000 0.90238  0.98455  0.86821  Biso   1.000  H
  H975     1.0000 0.81307  0.97894  0.88520  Biso   1.000  H
  C608     1.0000 0.91077  0.86935  0.85982  Biso   1.000  C
  H976     1.0000 0.90241  0.98449  0.86821  Biso   1.000  H
  H977     1.0000 0.81310  0.97887  0.88520  Biso   1.000  H
  C609     1.0000 0.91082  0.86928  0.85978  Biso   1.000  C
  C610     1.0000 0.91079  0.86935  0.85978  Biso   1.000  C
  C611     1.0000 0.89724  0.90216  0.85900  Biso   1.000  C
  H978     1.0000 0.79691  0.00940  0.88570  Biso   1.000  H
  H979     1.0000 0.88534  0.01758  0.87010  Biso   1.000  H
  H980     1.0000 0.96888  0.97333  0.78150  Biso   1.000  H
  H981     1.0000 0.92026  0.92423  0.75840  Biso   1.000  H
  H982     1.0000 0.92029  0.92417  0.75840  Biso   1.000  H
  H983     1.0000 0.90649  0.96465  0.75779  Biso   1.000  H
  H984     1.0000 0.95412  0.00976  0.78460  Biso   1.000  H
  H985     1.0000 0.82751  0.04639  0.72481  Biso   1.000  H
  H986     1.0000 0.82748  0.04645  0.72481  Biso   1.000  H
  H987     1.0000 0.92630  0.05283  0.71542  Biso   1.000  H
  H988     1.0000 0.92631  0.05283  0.71538  Biso   1.000  H
  H989     1.0000 0.92633  0.05276  0.71542  Biso   1.000  H
  H990     1.0000 0.91463  0.09655  0.72060  Biso   1.000  H
  H991     1.0000 0.81583  0.09079  0.72681  Biso   1.000  H
  H992     1.0000 0.67671  0.89203  0.72370  Biso   1.000  H
  H993     1.0000 0.63846  0.81902  0.72991  Biso   1.000  H
  C612     1.0000 0.75040  0.79004  0.76301  Biso   1.000  C
  C613     1.0000 0.75043  0.78997  0.76301  Biso   1.000  C
  H994     1.0000 0.64786  0.87176  0.72099  Biso   1.000  H
  C614     1.0000 0.74488  0.81105  0.76379  Biso   1.000  C
  H995     1.0000 0.68508  0.93405  0.73991  Biso   1.000  H
  C615     1.0000 0.92601  0.83493  0.90880  Biso   1.000  C
  H996     1.0000 0.97130  0.85155  0.83790  Biso   1.000  H
  H997     1.0000 0.87279  0.84549  0.84761  Biso   1.000  H
  H998     1.0000 0.97133  0.85148  0.83790  Biso   1.000  H
  H999     1.0000 0.87276  0.84556  0.84761  Biso   1.000  H
  C616     1.0000 0.91719  0.86563  0.90712  Biso   1.000  C
  H1000    1.0000 0.85928  0.87774  0.84729  Biso   1.000  H
  H1001    1.0000 0.95637  0.88646  0.83590  Biso   1.000  H
  N154     1.0000 0.74115  0.76395  0.80809  Biso   1.000  N
  C617     1.0000 0.83762  0.77199  0.73420  Biso   1.000  C
  N155     1.0000 0.74118  0.76389  0.80809  Biso   1.000  N
  C618     1.0000 0.83759  0.77206  0.73420  Biso   1.000  C
  N156     1.0000 0.73706  0.78996  0.80981  Biso   1.000  N
  C619     1.0000 0.81957  0.76065  0.72909  Biso   1.000  C
  N157     1.0000 0.87796  0.88963  0.94560  Biso   1.000  N
  C620     1.0000 0.98818  0.75304  0.91461  Biso   1.000  C
  N158     1.0000 0.87797  0.88963  0.94556  Biso   1.000  N
  C621     1.0000 0.98821  0.75298  0.91461  Biso   1.000  C
  N159     1.0000 0.87185  0.91887  0.94481  Biso   1.000  N
  C622     1.0000 0.97626  0.78201  0.91162  Biso   1.000  C
  C623     1.0000 0.81879  0.70371  0.82180  Biso   1.000  C
  C624     1.0000 0.81419  0.72876  0.82351  Biso   1.000  C
  H1002    1.0000 0.84309  0.80184  0.70521  Biso   1.000  H
  C625     1.0000 0.91480  0.71010  0.74901  Biso   1.000  C
  H1003    1.0000 0.84312  0.80178  0.70521  Biso   1.000  H
  C626     1.0000 0.91477  0.71016  0.74901  Biso   1.000  C
  H1004    1.0000 0.81738  0.76965  0.69611  Biso   1.000  H
  C627     1.0000 0.89610  0.69812  0.74430  Biso   1.000  C
  C628     1.0000 0.88911  0.86034  0.98969  Biso   1.000  C
  C629     1.0000 0.88914  0.86028  0.98969  Biso   1.000  C
  C630     1.0000 0.88426  0.88683  0.98829  Biso   1.000  C
  C631     1.0000 0.99709  0.72281  0.96049  Biso   1.000  C
  C632     1.0000 0.99389  0.75165  0.95649  Biso   1.000  C
  H1005    1.0000 0.02449  0.71771  0.88780  Biso   1.000  H
  H1006    1.0000 0.00466  0.74565  0.88441  Biso   1.000  H
  C633     1.0000 0.90177  0.66835  0.79121  Biso   1.000  C
  C634     1.0000 0.80750  0.67372  0.87249  Biso   1.000  C
  C635     1.0000 0.90180  0.66829  0.79121  Biso   1.000  C
  C636     1.0000 0.89699  0.69231  0.79271  Biso   1.000  C
  C637     1.0000 0.80431  0.70221  0.87481  Biso   1.000  C
  H1007    1.0000 0.97518  0.69642  0.73081  Biso   1.000  H
  H1008    1.0000 0.94636  0.66027  0.72220  Biso   1.000  H
  C638     1.0000 0.95070  0.77963  0.99840  Biso   1.000  C
  C639     1.0000 0.94335  0.80445  0.99561  Biso   1.000  C
  C640     1.0000 0.82619  0.94877  0.02820  Biso   1.000  C
  C641     1.0000 0.83360  0.92042  0.02838  Biso   1.000  C
  H1009    1.0000 0.03419  0.66442  0.96591  Biso   1.000  H
  H1010    1.0000 0.03946  0.69586  0.96041  Biso   1.000  H
  H1011    1.0000 0.94946  0.61624  0.79881  Biso   1.000  H
  H1012    1.0000 0.94949  0.61617  0.79881  Biso   1.000  H
  H1013    1.0000 0.95358  0.66386  0.80441  Biso   1.000  H
  N160     1.0000 0.71697  0.73070  0.89994  Biso   1.000  N
  H1014    1.0000 0.81135  0.61484  0.87292  Biso   1.000  H
  H1015    1.0000 0.85829  0.67300  0.88752  Biso   1.000  H
  H1016    1.0000 0.81139  0.61478  0.87288  Biso   1.000  H
  H1017    1.0000 0.85830  0.67300  0.88748  Biso   1.000  H
  N161     1.0000 0.71695  0.73077  0.89994  Biso   1.000  N
  H1018    1.0000 0.85826  0.67307  0.88752  Biso   1.000  H
  H1019    1.0000 0.81142  0.61484  0.87288  Biso   1.000  H
  N162     1.0000 0.71139  0.75607  0.90141  Biso   1.000  N
  H1020    1.0000 0.85251  0.70763  0.88941  Biso   1.000  H
  H1021    1.0000 0.81347  0.64163  0.87681  Biso   1.000  H
  H1022    1.0000 0.96160  0.76263  0.02981  Biso   1.000  H
  H1023    1.0000 0.96157  0.76270  0.02981  Biso   1.000  H
  H1024    1.0000 0.96166  0.76263  0.02981  Biso   1.000  H
  H1025    1.0000 0.94979  0.78349  0.02710  Biso   1.000  H
  H1026    1.0000 0.84047  0.92168  0.05912  Biso   1.000  H
  H1027    1.0000 0.75953  0.96474  0.02820  Biso   1.000  H
  H1028    1.0000 0.84049  0.92168  0.05908  Biso   1.000  H
  H1029    1.0000 0.75950  0.96480  0.02820  Biso   1.000  H
  H1030    1.0000 0.84058  0.92162  0.05908  Biso   1.000  H
  N163     1.0000 0.85041  0.99823  0.02339  Biso   1.000  N
  H1031    1.0000 0.84858  0.89282  0.05919  Biso   1.000  H
  H1032    1.0000 0.76699  0.93581  0.02881  Biso   1.000  H
  N164     1.0000 0.84530  0.02542  0.02199  Biso   1.000  N
  H1033    1.0000 0.67059  0.72862  0.88709  Biso   1.000  H
  H1034    1.0000 0.71208  0.78535  0.89759  Biso   1.000  H
  C642     1.0000 0.70540  0.70633  0.95170  Biso   1.000  C
  H1035    1.0000 0.71211  0.78528  0.89759  Biso   1.000  H
  C643     1.0000 0.70543  0.70627  0.95170  Biso   1.000  C
  H1036    1.0000 0.66745  0.74945  0.88841  Biso   1.000  H
  C644     1.0000 0.69976  0.73393  0.95349  Biso   1.000  C
  H1037    1.0000 0.70227  0.81186  0.89830  Biso   1.000  H
  H1038    1.0000 0.83691  0.04639  0.99219  Biso   1.000  H
  H1039    1.0000 0.91133  0.98329  0.02410  Biso   1.000  H
  H1040    1.0000 0.83688  0.04645  0.99219  Biso   1.000  H
  H1041    1.0000 0.83989  0.02099  0.99418  Biso   1.000  H
  H1042    1.0000 0.90610  0.00959  0.02349  Biso   1.000  H
  H1043    1.0000 0.90608  0.00966  0.02349  Biso   1.000  H
  C645     1.0000 0.79317  0.06570  0.06019  Biso   1.000  C
  C646     1.0000 0.78770  0.09543  0.05730  Biso   1.000  C
  C647     1.0000 0.78773  0.09537  0.05730  Biso   1.000  C
  H1044    1.0000 0.71418  0.64530  0.95449  Biso   1.000  H
  C648     1.0000 0.77347  0.71924  0.97741  Biso   1.000  C
  C649     1.0000 0.60996  0.76261  0.97762  Biso   1.000  C
  C650     1.0000 0.77350  0.71918  0.97741  Biso   1.000  C
  C651     1.0000 0.60997  0.76261  0.97759  Biso   1.000  C
  H1045    1.0000 0.71415  0.64537  0.95449  Biso   1.000  H
  C652     1.0000 0.60993  0.76267  0.97762  Biso   1.000  C
  C653     1.0000 0.61003  0.76261  0.97759  Biso   1.000  C
  H1046    1.0000 0.71128  0.67221  0.95731  Biso   1.000  H
  C654     1.0000 0.60305  0.78873  0.97851  Biso   1.000  C
  C655     1.0000 0.76489  0.75253  0.97891  Biso   1.000  C
  C656     1.0000 0.80940  0.07572  0.10820  Biso   1.000  C
  H1047    1.0000 0.72109  0.10681  0.05880  Biso   1.000  H
  C657     1.0000 0.80368  0.14919  0.04759  Biso   1.000  C
  C658     1.0000 0.81701  0.04189  0.11060  Biso   1.000  C
  H1048    1.0000 0.72648  0.07701  0.06201  Biso   1.000  H
  C659     1.0000 0.79896  0.17802  0.04259  Biso   1.000  C
  C660     1.0000 0.79902  0.17802  0.04259  Biso   1.000  C
  H1049    1.0000 0.83247  0.66744  0.97519  Biso   1.000  H
  H1050    1.0000 0.78708  0.76831  0.96409  Biso   1.000  H
  H1051    1.0000 0.83250  0.66737  0.97519  Biso   1.000  H
  H1052    1.0000 0.82547  0.70277  0.97719  Biso   1.000  H
  C661     1.0000 0.72225  0.73644  0.02849  Biso   1.000  C
  C662     1.0000 0.72222  0.73650  0.02849  Biso   1.000  C
  C663     1.0000 0.71281  0.77017  0.02992  Biso   1.000  C
  N165     1.0000 0.54729  0.71575  0.98762  Biso   1.000  N
  H1053    1.0000 0.58197  0.81315  0.95709  Biso   1.000  H
  N166     1.0000 0.54732  0.71568  0.98762  Biso   1.000  N
  H1054    1.0000 0.58199  0.81309  0.95709  Biso   1.000  H
  N167     1.0000 0.54137  0.74091  0.98779  Biso   1.000  N
  C664     1.0000 0.62451  0.79374  0.02271  Biso   1.000  C
  C665     1.0000 0.62449  0.79381  0.02271  Biso   1.000  C
  H1055    1.0000 0.57530  0.83857  0.95749  Biso   1.000  H
  C666     1.0000 0.61424  0.82255  0.02360  Biso   1.000  C
  H1056    1.0000 0.77537  0.80274  0.96491  Biso   1.000  H
  C667     1.0000 0.85207  0.13740  0.11570  Biso   1.000  C
  H1057    1.0000 0.85374  0.01565  0.11081  Biso   1.000  H
  H1058    1.0000 0.75194  0.08644  0.13201  Biso   1.000  H
  H1059    1.0000 0.85383  0.01558  0.11081  Biso   1.000  H
  H1060    1.0000 0.75203  0.08638  0.13201  Biso   1.000  H
  C668     1.0000 0.85204  0.13747  0.11570  Biso   1.000  C
  H1061    1.0000 0.85381  0.01565  0.11081  Biso   1.000  H
  H1062    1.0000 0.75200  0.08644  0.13201  Biso   1.000  H
  C669     1.0000 0.85213  0.13740  0.11570  Biso   1.000  C
  C670     1.0000 0.86131  0.10192  0.11909  Biso   1.000  C
  H1063    1.0000 0.76041  0.05172  0.13469  Biso   1.000  H
  H1064    1.0000 0.86016  0.16360  0.02082  Biso   1.000  H
  C671     1.0000 0.80051  0.21740  0.08861  Biso   1.000  C
  H1065    1.0000 0.86022  0.16360  0.02082  Biso   1.000  H
  H1066    1.0000 0.86019  0.16367  0.02082  Biso   1.000  H
  C672     1.0000 0.80048  0.21746  0.08861  Biso   1.000  C
  N168     1.0000 0.72743  0.20839  0.02349  Biso   1.000  N
  H1067    1.0000 0.86399  0.13618  0.02531  Biso   1.000  H
  C673     1.0000 0.80776  0.18443  0.09432  Biso   1.000  C
  H1068    1.0000 0.86120  0.98143  0.11181  Biso   1.000  H
  N169     1.0000 0.72400  0.23439  0.01700  Biso   1.000  N
  N170     1.0000 0.72397  0.23446  0.01700  Biso   1.000  N
  H1069    1.0000 0.72530  0.68286  0.04502  Biso   1.000  H
  H1070    1.0000 0.74770  0.76545  0.04659  Biso   1.000  H
  H1071    1.0000 0.72529  0.68293  0.04498  Biso   1.000  H
  H1072    1.0000 0.74767  0.76551  0.04659  Biso   1.000  H
  H1073    1.0000 0.72532  0.68286  0.04498  Biso   1.000  H
  H1074    1.0000 0.71892  0.71647  0.04709  Biso   1.000  H
  H1075    1.0000 0.73535  0.80256  0.04741  Biso   1.000  H
  H1076    1.0000 0.54217  0.69943  0.95909  Biso   1.000  H
  H1077    1.0000 0.54348  0.71853  0.95949  Biso   1.000  H
  H1078    1.0000 0.48199  0.77975  0.99729  Biso   1.000  H
  H1079    1.0000 0.48972  0.75334  0.00122  Biso   1.000  H
  C674     1.0000 0.57531  0.63853  0.01889  Biso   1.000  C
  H1080    1.0000 0.48969  0.75340  0.00122  Biso   1.000  H
  C675     1.0000 0.57529  0.63860  0.01889  Biso   1.000  C
  C676     1.0000 0.56182  0.67024  0.02371  Biso   1.000  C
  H1081    1.0000 0.61642  0.85393  0.01921  Biso   1.000  H
  H1082    1.0000 0.57951  0.78936  0.05069  Biso   1.000  H
  H1083    1.0000 0.61639  0.85400  0.01921  Biso   1.000  H
  H1084    1.0000 0.57948  0.78943  0.05069  Biso   1.000  H
  H1085    1.0000 0.57029  0.81600  0.05152  Biso   1.000  H
  H1086    1.0000 0.60215  0.88376  0.02010  Biso   1.000  H
  H1087    1.0000 0.91947  0.11310  0.10260  Biso   1.000  H
  H1088    1.0000 0.84266  0.15013  0.15001  Biso   1.000  H
  H1089    1.0000 0.91945  0.11316  0.10260  Biso   1.000  H
  H1090    1.0000 0.91954  0.11310  0.10260  Biso   1.000  H
  H1091    1.0000 0.84272  0.15013  0.15001  Biso   1.000  H
  H1092    1.0000 0.85412  0.11158  0.15361  Biso   1.000  H
  H1093    1.0000 0.92819  0.07812  0.10488  Biso   1.000  H
  H1094    1.0000 0.73700  0.25055  0.10610  Biso   1.000  H
  H1095    1.0000 0.83447  0.25451  0.08200  Biso   1.000  H
  H1096    1.0000 0.73703  0.25049  0.10610  Biso   1.000  H
  H1097    1.0000 0.83453  0.25451  0.08200  Biso   1.000  H
  H1098    1.0000 0.84164  0.22167  0.08850  Biso   1.000  H
  H1099    1.0000 0.74503  0.21618  0.11299  Biso   1.000  H
  H1100    1.0000 0.72480  0.20539  0.99151  Biso   1.000  H
  H1101    1.0000 0.72432  0.18042  0.99868  Biso   1.000  H
  H1102    1.0000 0.66839  0.24713  0.03681  Biso   1.000  H
  H1103    1.0000 0.67288  0.22312  0.04448  Biso   1.000  H
  C677     1.0000 0.73718  0.28750  0.00529  Biso   1.000  C
  C678     1.0000 0.73057  0.31530  0.99990  Biso   1.000  C
  C679     1.0000 0.73064  0.31530  0.99990  Biso   1.000  C
  H1104    1.0000 0.58579  0.65378  0.04930  Biso   1.000  H
  H1105    1.0000 0.63434  0.59364  0.00300  Biso   1.000  H
  C680     1.0000 0.50143  0.60464  0.02910  Biso   1.000  C
  H1106    1.0000 0.63431  0.59370  0.00300  Biso   1.000  H
  C681     1.0000 0.50141  0.60470  0.02910  Biso   1.000  C
  H1107    1.0000 0.62303  0.62366  0.01210  Biso   1.000  H
  C682     1.0000 0.48811  0.63608  0.03181  Biso   1.000  C
  H1108    1.0000 0.56451  0.69188  0.05419  Biso   1.000  H
  H1109    1.0000 0.78848  0.30279  0.97619  Biso   1.000  H
  H1110    1.0000 0.78846  0.30285  0.97619  Biso   1.000  H
  C683     1.0000 0.65509  0.34378  0.98319  Biso   1.000  C
  H1111    1.0000 0.79477  0.27281  0.98119  Biso   1.000  H
  H1112    1.0000 0.73268  0.34655  0.02699  Biso   1.000  H
  H1113    1.0000 0.73271  0.34648  0.02699  Biso   1.000  H
  H1114    1.0000 0.74180  0.31842  0.03181  Biso   1.000  H
  C684     1.0000 0.64830  0.36940  0.97741  Biso   1.000  C
  N171     1.0000 0.42254  0.65445  0.01350  Biso   1.000  N
  C685     1.0000 0.51258  0.53217  0.05512  Biso   1.000  C
  N172     1.0000 0.42251  0.65452  0.01350  Biso   1.000  N
  C686     1.0000 0.51259  0.53217  0.05509  Biso   1.000  C
  C687     1.0000 0.51265  0.53217  0.05509  Biso   1.000  C
  N173     1.0000 0.41384  0.68215  0.01161  Biso   1.000  N
  C688     1.0000 0.49843  0.56245  0.05651  Biso   1.000  C
  N174     1.0000 0.57745  0.34553  0.98651  Biso   1.000  N
  N175     1.0000 0.57752  0.34553  0.98651  Biso   1.000  N
  N176     1.0000 0.57748  0.34546  0.98651  Biso   1.000  N
  N177     1.0000 0.58621  0.31783  0.98840  Biso   1.000  N
  C689     1.0000 0.65300  0.41450  0.95531  Biso   1.000  C
  C690     1.0000 0.64286  0.44193  0.95060  Biso   1.000  C
  C691     1.0000 0.64289  0.44186  0.95060  Biso   1.000  C
  C692     1.0000 0.64292  0.44193  0.95060  Biso   1.000  C
  C693     1.0000 0.35170  0.63058  0.02260  Biso   1.000  C
  C694     1.0000 0.34490  0.65620  0.01682  Biso   1.000  C
  H1115    1.0000 0.56949  0.49854  0.06562  Biso   1.000  H
  C695     1.0000 0.43874  0.50914  0.06551  Biso   1.000  C
  H1116    1.0000 0.56952  0.49860  0.06562  Biso   1.000  H
  C696     1.0000 0.43871  0.50920  0.06551  Biso   1.000  C
  H1117    1.0000 0.56955  0.49854  0.06562  Biso   1.000  H
  H1118    1.0000 0.55378  0.52927  0.06840  Biso   1.000  H
  C697     1.0000 0.42572  0.53786  0.06351  Biso   1.000  C
  C698     1.0000 0.49856  0.39534  0.97091  Biso   1.000  C
  C699     1.0000 0.49859  0.39528  0.97091  Biso   1.000  C
  C700     1.0000 0.51189  0.36390  0.96820  Biso   1.000  C
  H1119    1.0000 0.69409  0.45720  0.94349  Biso   1.000  H
  C701     1.0000 0.56125  0.49085  0.93450  Biso   1.000  C
  C702     1.0000 0.56128  0.49078  0.93450  Biso   1.000  C
  C703     1.0000 0.56132  0.49085  0.93450  Biso   1.000  C
  C704     1.0000 0.57428  0.46212  0.93650  Biso   1.000  C
  H1120    1.0000 0.70448  0.42953  0.94960  Biso   1.000  H
  C705     1.0000 0.35714  0.55805  0.04941  Biso   1.000  C
  C706     1.0000 0.26942  0.68468  0.00011  Biso   1.000  C
  C707     1.0000 0.35711  0.55812  0.04941  Biso   1.000  C
  C708     1.0000 0.34699  0.58548  0.04470  Biso   1.000  C
  C709     1.0000 0.26279  0.71255  0.99472  Biso   1.000  C
  H1121    1.0000 0.44400  0.45947  0.08389  Biso   1.000  H
  H1122    1.0000 0.42993  0.48800  0.08139  Biso   1.000  H
  C710     1.0000 0.48742  0.46781  0.94489  Biso   1.000  C
  C711     1.0000 0.42468  0.36145  0.98112  Biso   1.000  C
  C712     1.0000 0.42472  0.36138  0.98108  Biso   1.000  C
  C713     1.0000 0.42471  0.36138  0.98112  Biso   1.000  C
  C714     1.0000 0.48745  0.46775  0.94489  Biso   1.000  C
  C715     1.0000 0.43820  0.32967  0.97630  Biso   1.000  C
  C716     1.0000 0.50157  0.43753  0.94349  Biso   1.000  C
  H1123    1.0000 0.55600  0.54051  0.91611  Biso   1.000  H
  H1124    1.0000 0.55603  0.54045  0.91611  Biso   1.000  H
  H1125    1.0000 0.57013  0.51199  0.91861  Biso   1.000  H
  H1126    1.0000 0.30591  0.54278  0.05651  Biso   1.000  H
  H1127    1.0000 0.29552  0.57045  0.05041  Biso   1.000  H
  N178     1.0000 0.27597  0.76565  0.98301  Biso   1.000  N
  H1128    1.0000 0.26729  0.65350  0.97302  Biso   1.000  H
  N179     1.0000 0.27600  0.76559  0.98301  Biso   1.000  N
  H1129    1.0000 0.26726  0.65356  0.97302  Biso   1.000  H
  H1130    1.0000 0.25817  0.68162  0.96820  Biso   1.000  H
  H1131    1.0000 0.21154  0.69713  0.02381  Biso   1.000  H
  H1132    1.0000 0.21151  0.69719  0.02381  Biso   1.000  H
  H1133    1.0000 0.20523  0.72717  0.01882  Biso   1.000  H
  N180     1.0000 0.27260  0.79165  0.97651  Biso   1.000  N
  H1134    1.0000 0.43051  0.50144  0.93439  Biso   1.000  H
  H1135    1.0000 0.43054  0.50138  0.93439  Biso   1.000  H
  H1136    1.0000 0.44622  0.47071  0.93161  Biso   1.000  H
  H1137    1.0000 0.41421  0.34620  0.95070  Biso   1.000  H
  H1138    1.0000 0.36566  0.40634  0.99700  Biso   1.000  H
  H1139    1.0000 0.36569  0.40628  0.99700  Biso   1.000  H
  H1140    1.0000 0.37696  0.37632  0.98790  Biso   1.000  H
  N181     1.0000 0.45268  0.28430  0.01239  Biso   1.000  N
  N182     1.0000 0.45265  0.28436  0.01239  Biso   1.000  N
  N183     1.0000 0.45274  0.28430  0.01239  Biso   1.000  N
  H1141    1.0000 0.43549  0.30810  0.94581  Biso   1.000  H
  N184     1.0000 0.45862  0.25907  0.01221  Biso   1.000  N
  H1142    1.0000 0.33158  0.75291  0.96320  Biso   1.000  H
  C717     1.0000 0.20101  0.82203  0.95742  Biso   1.000  C
  H1143    1.0000 0.32710  0.77693  0.95549  Biso   1.000  H
  H1144    1.0000 0.27519  0.79459  0.00850  Biso   1.000  H
  H1145    1.0000 0.27522  0.79452  0.00850  Biso   1.000  H
  H1146    1.0000 0.27569  0.81956  0.00129  Biso   1.000  H
  C718     1.0000 0.19629  0.85085  0.95242  Biso   1.000  C
  H1147    1.0000 0.51028  0.24664  0.99879  Biso   1.000  H
  H1148    1.0000 0.51031  0.24658  0.99879  Biso   1.000  H
  H1149    1.0000 0.45780  0.30061  0.04091  Biso   1.000  H
  C719     1.0000 0.39001  0.23744  0.02239  Biso   1.000  C
  C720     1.0000 0.39004  0.23737  0.02239  Biso   1.000  C
  H1150    1.0000 0.45650  0.28152  0.04048  Biso   1.000  H
  H1151    1.0000 0.51798  0.22030  0.00272  Biso   1.000  H
  C721     1.0000 0.39692  0.21131  0.02149  Biso   1.000  C
  H1152    1.0000 0.13981  0.83644  0.97919  Biso   1.000  H
  C722     1.0000 0.19946  0.78265  0.91140  Biso   1.000  C
  C723     1.0000 0.21227  0.90461  0.94271  Biso   1.000  C
  H1153    1.0000 0.13984  0.83638  0.97919  Biso   1.000  H
  C724     1.0000 0.19949  0.78258  0.91140  Biso   1.000  C
  H1154    1.0000 0.13598  0.86386  0.97469  Biso   1.000  H
  C725     1.0000 0.19220  0.81562  0.90569  Biso   1.000  C
  C726     1.0000 0.20679  0.93435  0.93982  Biso   1.000  C
  C727     1.0000 0.37548  0.20624  0.97730  Biso   1.000  C
  C728     1.0000 0.37551  0.20618  0.97730  Biso   1.000  C
  C729     1.0000 0.29457  0.29371  0.04830  Biso   1.000  C
  H1155    1.0000 0.41800  0.18690  0.04291  Biso   1.000  H
  H1156    1.0000 0.41797  0.18696  0.04291  Biso   1.000  H
  C730     1.0000 0.29463  0.29371  0.04830  Biso   1.000  C
  C731     1.0000 0.30021  0.26611  0.04652  Biso   1.000  C
  C732     1.0000 0.38576  0.17743  0.97641  Biso   1.000  C
  H1157    1.0000 0.42474  0.16148  0.04248  Biso   1.000  H
  H1158    1.0000 0.26297  0.74949  0.89391  Biso   1.000  H
  H1159    1.0000 0.16550  0.74553  0.91801  Biso   1.000  H
  C733     1.0000 0.14790  0.86264  0.88431  Biso   1.000  C
  H1160    1.0000 0.26303  0.74949  0.89391  Biso   1.000  H
  H1161    1.0000 0.16553  0.74547  0.91801  Biso   1.000  H
  C734     1.0000 0.14793  0.86258  0.88431  Biso   1.000  C
  H1162    1.0000 0.26300  0.74956  0.89391  Biso   1.000  H
  H1163    1.0000 0.15839  0.77837  0.91151  Biso   1.000  H
  H1164    1.0000 0.25494  0.78386  0.88702  Biso   1.000  H
  N185     1.0000 0.15466  0.97462  0.97801  Biso   1.000  N
  C735     1.0000 0.19057  0.92433  0.89180  Biso   1.000  C
  H1165    1.0000 0.27888  0.89323  0.94121  Biso   1.000  H
  H1166    1.0000 0.27891  0.89317  0.94121  Biso   1.000  H
  C736     1.0000 0.18296  0.95815  0.88941  Biso   1.000  C
  H1167    1.0000 0.27349  0.92303  0.93800  Biso   1.000  H
  C737     1.0000 0.13866  0.89812  0.88092  Biso   1.000  C
  N186     1.0000 0.14960  0.00175  0.97659  Biso   1.000  N
  H1168    1.0000 0.42049  0.21062  0.94931  Biso   1.000  H
  C738     1.0000 0.27775  0.26354  0.97152  Biso   1.000  C
  H1169    1.0000 0.38358  0.14605  0.98080  Biso   1.000  H
  C739     1.0000 0.27778  0.26348  0.97152  Biso   1.000  C
  H1170    1.0000 0.38361  0.14598  0.98080  Biso   1.000  H
  H1171    1.0000 0.42052  0.21055  0.94931  Biso   1.000  H
  C740     1.0000 0.27781  0.26354  0.97152  Biso   1.000  C
  C741     1.0000 0.28719  0.22981  0.97009  Biso   1.000  C
  H1172    1.0000 0.42971  0.18398  0.94849  Biso   1.000  H
  N187     1.0000 0.28299  0.26934  0.10006  Biso   1.000  N
  H1173    1.0000 0.28579  0.35474  0.04552  Biso   1.000  H
  C742     1.0000 0.22650  0.28080  0.02260  Biso   1.000  C
  N188     1.0000 0.28302  0.26928  0.10006  Biso   1.000  N
  H1174    1.0000 0.28583  0.35468  0.04548  Biso   1.000  H
  C743     1.0000 0.22647  0.28086  0.02260  Biso   1.000  C
  H1175    1.0000 0.28580  0.35474  0.04548  Biso   1.000  H
  N189     1.0000 0.28864  0.24398  0.09860  Biso   1.000  N
  H1176    1.0000 0.28871  0.32777  0.04270  Biso   1.000  H
  C744     1.0000 0.23508  0.24752  0.02110  Biso   1.000  C
  H1177    1.0000 0.39791  0.11622  0.97991  Biso   1.000  H
  H1178    1.0000 0.08049  0.88695  0.89741  Biso   1.000  H
  H1179    1.0000 0.15731  0.84992  0.85000  Biso   1.000  H
  H1180    1.0000 0.08052  0.88688  0.89741  Biso   1.000  H
  H1181    1.0000 0.14584  0.88846  0.84640  Biso   1.000  H
  H1182    1.0000 0.07179  0.92193  0.89509  Biso   1.000  H
  C745     1.0000 0.17381  0.05121  0.97180  Biso   1.000  C
  H1183    1.0000 0.09386  0.99045  0.97651  Biso   1.000  H
  H1184    1.0000 0.09389  0.99039  0.97651  Biso   1.000  H
  H1185    1.0000 0.16311  0.95353  0.00782  Biso   1.000  H
  H1186    1.0000 0.16310  0.95359  0.00779  Biso   1.000  H
  H1187    1.0000 0.16308  0.95359  0.00782  Biso   1.000  H
  H1188    1.0000 0.16312  0.95353  0.00779  Biso   1.000  H
  H1189    1.0000 0.16012  0.97899  0.00579  Biso   1.000  H
  C746     1.0000 0.17384  0.05114  0.97180  Biso   1.000  C
  H1190    1.0000 0.08872  0.01669  0.97591  Biso   1.000  H
  H1191    1.0000 0.14622  0.98440  0.88920  Biso   1.000  H
  H1192    1.0000 0.24802  0.91360  0.86799  Biso   1.000  H
  H1193    1.0000 0.14619  0.98446  0.88920  Biso   1.000  H
  H1194    1.0000 0.24800  0.91367  0.86799  Biso   1.000  H
  H1195    1.0000 0.23956  0.94832  0.86532  Biso   1.000  H
  H1196    1.0000 0.13880  0.01856  0.88820  Biso   1.000  H
  C747     1.0000 0.16641  0.07956  0.97159  Biso   1.000  C
  H1197    1.0000 0.27469  0.31712  0.95499  Biso   1.000  H
  H1198    1.0000 0.25229  0.23453  0.95342  Biso   1.000  H
  H1199    1.0000 0.25232  0.23447  0.95342  Biso   1.000  H
  H1200    1.0000 0.27472  0.31705  0.95499  Biso   1.000  H
  H1201    1.0000 0.28107  0.28351  0.95292  Biso   1.000  H
  H1202    1.0000 0.26471  0.19742  0.95260  Biso   1.000  H
  H1203    1.0000 0.32938  0.27142  0.11292  Biso   1.000  H
  H1204    1.0000 0.28788  0.21470  0.10242  Biso   1.000  H
  C748     1.0000 0.19247  0.32633  0.12752  Biso   1.000  C
  H1205    1.0000 0.28790  0.21470  0.10238  Biso   1.000  H
  H1206    1.0000 0.28786  0.21476  0.10242  Biso   1.000  H
  H1207    1.0000 0.33251  0.25059  0.11159  Biso   1.000  H
  C749     1.0000 0.19566  0.29783  0.12520  Biso   1.000  C
  H1208    1.0000 0.16749  0.33261  0.02481  Biso   1.000  H
  H1209    1.0000 0.21288  0.23173  0.03592  Biso   1.000  H
  H1210    1.0000 0.21291  0.23167  0.03592  Biso   1.000  H
  H1211    1.0000 0.17449  0.29728  0.02281  Biso   1.000  H
  H1212    1.0000 0.29769  0.18819  0.10171  Biso   1.000  H
  H1213    1.0000 0.22460  0.19731  0.03509  Biso   1.000  H
  H1214    1.0000 0.15952  0.07830  0.94089  Biso   1.000  H
  H1215    1.0000 0.24046  0.03524  0.97180  Biso   1.000  H
  H1216    1.0000 0.24049  0.03518  0.97180  Biso   1.000  H
  H1217    1.0000 0.15141  0.10716  0.94082  Biso   1.000  H
  H1218    1.0000 0.23301  0.06417  0.97120  Biso   1.000  H
  C750     1.0000 0.11093  0.13970  0.01028  Biso   1.000  C
  C751     1.0000 0.11571  0.11321  0.01171  Biso   1.000  C
  C752     1.0000 0.11086  0.13970  0.01032  Biso   1.000  C
  C753     1.0000 0.11089  0.13977  0.01032  Biso   1.000  C
  C754     1.0000 0.18118  0.29633  0.17821  Biso   1.000  C
  H1219    1.0000 0.18862  0.38521  0.12709  Biso   1.000  H
  H1220    1.0000 0.14168  0.32704  0.11249  Biso   1.000  H
  H1221    1.0000 0.14171  0.32698  0.11249  Biso   1.000  H
  H1222    1.0000 0.18859  0.38527  0.12709  Biso   1.000  H
  C755     1.0000 0.18578  0.27128  0.17649  Biso   1.000  C
  H1223    1.0000 0.14752  0.29241  0.11060  Biso   1.000  H
  H1224    1.0000 0.18650  0.35842  0.12320  Biso   1.000  H
  N190     1.0000 0.12201  0.11042  0.05441  Biso   1.000  N
  C756     1.0000 0.04927  0.22042  0.00161  Biso   1.000  C
  N191     1.0000 0.12812  0.08118  0.05519  Biso   1.000  N
  C757     1.0000 0.05662  0.19560  0.00439  Biso   1.000  C
  N192     1.0000 0.25881  0.23609  0.19191  Biso   1.000  N
  C758     1.0000 0.09819  0.33170  0.20880  Biso   1.000  C
  N193     1.0000 0.25878  0.23616  0.19191  Biso   1.000  N
  C759     1.0000 0.09816  0.33176  0.20880  Biso   1.000  C
  N194     1.0000 0.26291  0.21009  0.19020  Biso   1.000  N
  C760     1.0000 0.10300  0.30767  0.20730  Biso   1.000  C
  C761     1.0000 0.07396  0.16512  0.09121  Biso   1.000  C
  C762     1.0000 0.07402  0.16512  0.09121  Biso   1.000  C
  C763     1.0000 0.08277  0.13441  0.09289  Biso   1.000  C
  H1225    1.0000 0.03840  0.23735  0.97020  Biso   1.000  H
  H1226    1.0000 0.03843  0.23728  0.97020  Biso   1.000  H
  H1227    1.0000 0.05021  0.21649  0.97291  Biso   1.000  H
  C764     1.0000 0.00287  0.27723  0.03952  Biso   1.000  C
  C765     1.0000 0.00289  0.27723  0.03949  Biso   1.000  C
  C766     1.0000 0.00609  0.24840  0.04348  Biso   1.000  C
  C767     1.0000 0.24957  0.21001  0.23700  Biso   1.000  C
  C768     1.0000 0.24963  0.21001  0.23700  Biso   1.000  C
  C769     1.0000 0.25508  0.18899  0.23622  Biso   1.000  C
  C770     1.0000 0.08517  0.28994  0.25099  Biso   1.000  C
  H1228    1.0000 0.05051  0.38381  0.20120  Biso   1.000  H
  C771     1.0000 0.08520  0.28988  0.25099  Biso   1.000  C
  C772     1.0000 0.10387  0.30192  0.25571  Biso   1.000  C
  H1229    1.0000 0.04638  0.33619  0.19559  Biso   1.000  H
  C773     1.0000 0.01178  0.24700  0.08539  Biso   1.000  C
  C774     1.0000 0.08919  0.13070  0.14019  Biso   1.000  C
  C775     1.0000 0.01175  0.24707  0.08539  Biso   1.000  C
  C776     1.0000 0.08916  0.13076  0.14019  Biso   1.000  C
  C777     1.0000 0.02374  0.21797  0.08839  Biso   1.000  C
  C778     1.0000 0.10272  0.09788  0.14101  Biso   1.000  C
  H1230    1.0000 0.96578  0.33562  0.03409  Biso   1.000  H
  H1231    1.0000 0.96051  0.30418  0.03959  Biso   1.000  H
  C779     1.0000 0.33745  0.14883  0.25332  Biso   1.000  C
  C780     1.0000 0.16235  0.22805  0.26581  Biso   1.000  C
  C781     1.0000 0.16238  0.22799  0.26581  Biso   1.000  C
  C782     1.0000 0.33500  0.11292  0.25071  Biso   1.000  C
  C783     1.0000 0.18040  0.23940  0.27091  Biso   1.000  C
  H1232    1.0000 0.02479  0.30363  0.26920  Biso   1.000  H
  H1233    1.0000 0.05361  0.33977  0.27780  Biso   1.000  H
  H1234    1.0000 0.97548  0.28234  0.11220  Biso   1.000  H
  H1235    1.0000 0.97551  0.28227  0.11220  Biso   1.000  H
  H1236    1.0000 0.99531  0.25439  0.11559  Biso   1.000  H
  N195     1.0000 0.13681  0.03681  0.13883  Biso   1.000  N
  H1237    1.0000 0.02867  0.14850  0.16211  Biso   1.000  H
  H1238    1.0000 0.12718  0.15455  0.15240  Biso   1.000  H
  H1239    1.0000 0.02873  0.14850  0.16211  Biso   1.000  H
  H1240    1.0000 0.12721  0.15449  0.15240  Biso   1.000  H
  H1241    1.0000 0.02870  0.14856  0.16211  Biso   1.000  H
  H1242    1.0000 0.14070  0.12230  0.15268  Biso   1.000  H
  H1243    1.0000 0.04360  0.11358  0.16411  Biso   1.000  H
  N196     1.0000 0.15261  0.00418  0.13808  Biso   1.000  N
  N197     1.0000 0.41020  0.10055  0.21269  Biso   1.000  N
  H1244    1.0000 0.32326  0.10801  0.27630  Biso   1.000  H
  H1245    1.0000 0.36150  0.18102  0.27009  Biso   1.000  H
  N198     1.0000 0.41023  0.10049  0.21269  Biso   1.000  N
  H1246    1.0000 0.32332  0.10801  0.27630  Biso   1.000  H
  N199     1.0000 0.41827  0.08171  0.21230  Biso   1.000  N
  H1247    1.0000 0.35211  0.12828  0.27902  Biso   1.000  H
  H1248    1.0000 0.15688  0.19820  0.29480  Biso   1.000  H
  H1249    1.0000 0.15685  0.19827  0.29480  Biso   1.000  H
  H1250    1.0000 0.18258  0.23040  0.30390  Biso   1.000  H
  H1251    1.0000 0.31489  0.06599  0.26010  Biso   1.000  H
  C784     1.0000 0.16854  0.99713  0.18370  Biso   1.000  C
  C785     1.0000 0.16852  0.99719  0.18370  Biso   1.000  C
  H1252    1.0000 0.20308  0.99058  0.11431  Biso   1.000  H
  H1253    1.0000 0.11472  0.98240  0.12991  Biso   1.000  H
  C786     1.0000 0.18392  0.96257  0.18270  Biso   1.000  C
  H1254    1.0000 0.09759  0.01549  0.13180  Biso   1.000  H
  H1255    1.0000 0.18689  0.02111  0.11481  Biso   1.000  H
  H1256    1.0000 0.09756  0.01556  0.13180  Biso   1.000  H
  H1257    1.0000 0.18687  0.02117  0.11481  Biso   1.000  H
  H1258    1.0000 0.42460  0.13775  0.19199  Biso   1.000  H
  H1259    1.0000 0.38801  0.07169  0.19681  Biso   1.000  H
  C787     1.0000 0.49528  0.03900  0.22990  Biso   1.000  C
  H1260    1.0000 0.42463  0.13768  0.19199  Biso   1.000  H
  H1261    1.0000 0.38799  0.07175  0.19681  Biso   1.000  H
  C788     1.0000 0.49525  0.03906  0.22990  Biso   1.000  C
  H1262    1.0000 0.40778  0.05458  0.18942  Biso   1.000  H
  H1263    1.0000 0.42871  0.12688  0.19848  Biso   1.000  H
  C789     1.0000 0.50179  0.02177  0.23140  Biso   1.000  C
  C790     1.0000 0.20713  0.89908  0.18049  Biso   1.000  C
  H1264    1.0000 0.23123  0.98089  0.18999  Biso   1.000  H
  C791     1.0000 0.10410  0.98302  0.22540  Biso   1.000  C
  H1265    1.0000 0.21790  0.01403  0.18959  Biso   1.000  H
  C792     1.0000 0.08988  0.02154  0.22711  Biso   1.000  C
  H1266    1.0000 0.21793  0.01397  0.18959  Biso   1.000  H
  C793     1.0000 0.08990  0.02148  0.22711  Biso   1.000  C
  C794     1.0000 0.22662  0.86470  0.17739  Biso   1.000  C
  C795     1.0000 0.56763  0.97746  0.19159  Biso   1.000  C
  C796     1.0000 0.56760  0.97752  0.19159  Biso   1.000  C
  C797     1.0000 0.57801  0.95998  0.19441  Biso   1.000  C
  H1267    1.0000 0.48223  0.98788  0.25771  Biso   1.000  H
  C798     1.0000 0.54630  0.08513  0.24882  Biso   1.000  C
  H1268    1.0000 0.47685  0.00492  0.25642  Biso   1.000  H
  H1269    1.0000 0.47692  0.00492  0.25639  Biso   1.000  H
  H1270    1.0000 0.47691  0.00492  0.25642  Biso   1.000  H
  C799     1.0000 0.55022  0.06937  0.25139  Biso   1.000  C
  N200     1.0000 0.31063  0.86075  0.17089  Biso   1.000  N
  C800     1.0000 0.16729  0.86937  0.22811  Biso   1.000  C
  H1271    1.0000 0.18458  0.88329  0.15411  Biso   1.000  H
  N201     1.0000 0.31060  0.86081  0.17089  Biso   1.000  N
  H1272    1.0000 0.18461  0.88322  0.15411  Biso   1.000  H
  C801     1.0000 0.18112  0.83107  0.22151  Biso   1.000  C
  H1273    1.0000 0.21092  0.84952  0.14818  Biso   1.000  H
  C802     1.0000 0.12500  0.94887  0.25960  Biso   1.000  C
  H1274    1.0000 0.04587  0.99022  0.21540  Biso   1.000  H
  C803     1.0000 0.13760  0.90708  0.25589  Biso   1.000  C
  H1275    1.0000 0.03108  0.02671  0.21851  Biso   1.000  H
  H1276    1.0000 0.09348  0.03539  0.24221  Biso   1.000  H
  H1277    1.0000 0.07970  0.07581  0.24161  Biso   1.000  H
  N202     1.0000 0.32957  0.82922  0.17289  Biso   1.000  N
  N203     1.0000 0.54638  0.90327  0.18570  Biso   1.000  N
  N204     1.0000 0.54645  0.90327  0.18570  Biso   1.000  N
  N205     1.0000 0.55664  0.88717  0.18549  Biso   1.000  N
  C804     1.0000 0.65911  0.95326  0.20891  Biso   1.000  C
  C805     1.0000 0.65908  0.95333  0.20891  Biso   1.000  C
  H1278    1.0000 0.58497  0.99103  0.16389  Biso   1.000  H
  C806     1.0000 0.66521  0.93308  0.21630  Biso   1.000  C
  H1279    1.0000 0.56917  0.00844  0.16050  Biso   1.000  H
  H1280    1.0000 0.56920  0.00837  0.16050  Biso   1.000  H
  C807     1.0000 0.64732  0.03910  0.22690  Biso   1.000  C
  H1281    1.0000 0.53774  0.08234  0.28402  Biso   1.000  H
  H1282    1.0000 0.52221  0.14591  0.23911  Biso   1.000  H
  H1283    1.0000 0.53783  0.08228  0.28402  Biso   1.000  H
  C808     1.0000 0.64729  0.03917  0.22690  Biso   1.000  C
  H1284    1.0000 0.53780  0.08234  0.28402  Biso   1.000  H
  C809     1.0000 0.65289  0.01721  0.23679  Biso   1.000  C
  H1285    1.0000 0.53229  0.12757  0.23800  Biso   1.000  H
  H1286    1.0000 0.53261  0.07380  0.28659  Biso   1.000  H
  H1287    1.0000 0.33049  0.86817  0.19720  Biso   1.000  H
  H1288    1.0000 0.32998  0.89006  0.14661  Biso   1.000  H
  C810     1.0000 0.35575  0.76933  0.15829  Biso   1.000  C
  H1289    1.0000 0.33001  0.89012  0.14661  Biso   1.000  H
  C811     1.0000 0.35573  0.76939  0.15829  Biso   1.000  C
  H1290    1.0000 0.33004  0.89006  0.14661  Biso   1.000  H
  H1291    1.0000 0.33055  0.86817  0.19720  Biso   1.000  H
  H1292    1.0000 0.35077  0.86310  0.15261  Biso   1.000  H
  H1293    1.0000 0.34322  0.83219  0.20191  Biso   1.000  H
  H1294    1.0000 0.21682  0.82229  0.24182  Biso   1.000  H
  H1295    1.0000 0.11941  0.84986  0.22401  Biso   1.000  H
  H1296    1.0000 0.21683  0.82229  0.24178  Biso   1.000  H
  H1297    1.0000 0.11938  0.84993  0.22401  Biso   1.000  H
  H1298    1.0000 0.21686  0.82222  0.24178  Biso   1.000  H
  H1299    1.0000 0.13329  0.81479  0.21380  Biso   1.000  H
  H1300    1.0000 0.22788  0.78111  0.23511  Biso   1.000  H
  H1301    1.0000 0.17251  0.95353  0.27520  Biso   1.000  H
  H1302    1.0000 0.07370  0.94715  0.28459  Biso   1.000  H
  H1303    1.0000 0.17248  0.95359  0.27520  Biso   1.000  H
  H1304    1.0000 0.07367  0.94722  0.28459  Biso   1.000  H
  H1305    1.0000 0.07376  0.94715  0.28459  Biso   1.000  H
  H1306    1.0000 0.08537  0.90343  0.27941  Biso   1.000  H
  H1307    1.0000 0.18423  0.90919  0.27320  Biso   1.000  H
  C812     1.0000 0.38047  0.74051  0.15550  Biso   1.000  C
  C813     1.0000 0.61809  0.83518  0.15200  Biso   1.000  C
  C814     1.0000 0.63453  0.81638  0.15590  Biso   1.000  C
  H1308    1.0000 0.53883  0.87923  0.21480  Biso   1.000  H
  H1309    1.0000 0.49144  0.92266  0.17521  Biso   1.000  H
  H1310    1.0000 0.53880  0.87929  0.21480  Biso   1.000  H
  H1311    1.0000 0.49141  0.92273  0.17521  Biso   1.000  H
  H1312    1.0000 0.50660  0.90717  0.17060  Biso   1.000  H
  H1313    1.0000 0.54041  0.86543  0.21408  Biso   1.000  H
  H1314    1.0000 0.66670  0.91068  0.23489  Biso   1.000  H
  H1315    1.0000 0.71303  0.93045  0.18260  Biso   1.000  H
  H1316    1.0000 0.71300  0.93051  0.18260  Biso   1.000  H
  H1317    1.0000 0.72221  0.90983  0.19170  Biso   1.000  H
  H1318    1.0000 0.66768  0.88998  0.24161  Biso   1.000  H
  H1319    1.0000 0.66485  0.07255  0.20020  Biso   1.000  H
  H1320    1.0000 0.68687  0.03035  0.25110  Biso   1.000  H
  H1321    1.0000 0.66488  0.07248  0.20020  Biso   1.000  H
  H1322    1.0000 0.68690  0.03029  0.25110  Biso   1.000  H
  H1323    1.0000 0.66491  0.07255  0.20020  Biso   1.000  H
  H1324    1.0000 0.68411  0.00632  0.26470  Biso   1.000  H
  H1325    1.0000 0.68027  0.04799  0.21251  Biso   1.000  H
  H1326    1.0000 0.33153  0.73715  0.18331  Biso   1.000  H
  H1327    1.0000 0.33972  0.76117  0.12780  Biso   1.000  H
  C815     1.0000 0.45879  0.73436  0.15340  Biso   1.000  C
  H1328    1.0000 0.33150  0.73721  0.18331  Biso   1.000  H
  C816     1.0000 0.45876  0.73442  0.15340  Biso   1.000  C
  C817     1.0000 0.45885  0.73436  0.15340  Biso   1.000  C
  H1329    1.0000 0.36850  0.73700  0.12320  Biso   1.000  H
  H1330    1.0000 0.35722  0.70319  0.17681  Biso   1.000  H
  C818     1.0000 0.48273  0.70888  0.15340  Biso   1.000  C
  C819     1.0000 0.58568  0.76607  0.14922  Biso   1.000  C
  C820     1.0000 0.58566  0.76613  0.14918  Biso   1.000  C
  C821     1.0000 0.58575  0.76606  0.14918  Biso   1.000  C
  C822     1.0000 0.60526  0.74553  0.15218  Biso   1.000  C
  H1331    1.0000 0.62738  0.85977  0.12002  Biso   1.000  H
  H1332    1.0000 0.67800  0.81114  0.16350  Biso   1.000  H
  H1333    1.0000 0.62740  0.85977  0.11998  Biso   1.000  H
  H1334    1.0000 0.67803  0.81120  0.16350  Biso   1.000  H
  H1335    1.0000 0.67806  0.81114  0.16350  Biso   1.000  H
  H1336    1.0000 0.69052  0.79510  0.17082  Biso   1.000  H
  H1337    1.0000 0.64990  0.83777  0.12359  Biso   1.000  H
  N206     1.0000 0.49390  0.79347  0.15090  Biso   1.000  N
  C823     1.0000 0.51331  0.64936  0.15361  Biso   1.000  C
  C824     1.0000 0.51328  0.64943  0.15361  Biso   1.000  C
  N207     1.0000 0.51388  0.77013  0.15400  Biso   1.000  N
  C825     1.0000 0.54099  0.62481  0.14911  Biso   1.000  C
  C826     1.0000 0.64419  0.68118  0.14779  Biso   1.000  C
  C827     1.0000 0.66702  0.66158  0.14840  Biso   1.000  C
  H1338    1.0000 0.48633  0.60916  0.15679  Biso   1.000  H
  C828     1.0000 0.60769  0.62193  0.14911  Biso   1.000  C
  H1339    1.0000 0.48630  0.60922  0.15679  Biso   1.000  H
  C829     1.0000 0.60772  0.62200  0.14911  Biso   1.000  C
  C830     1.0000 0.60775  0.62193  0.14911  Biso   1.000  C
  H1340    1.0000 0.51731  0.58322  0.14740  Biso   1.000  H
  C831     1.0000 0.63430  0.60021  0.14729  Biso   1.000  C
  H1341    1.0000 0.70899  0.66354  0.14601  Biso   1.000  H
  H1342    1.0000 0.70902  0.66361  0.14601  Biso   1.000  H
  H1343    1.0000 0.70905  0.66354  0.14601  Biso   1.000  H
  H1344    1.0000 0.73147  0.64612  0.14661  Biso   1.000  H
  H1345    1.0000 0.64720  0.56265  0.14690  Biso   1.000  H
  H1346    1.0000 0.64717  0.56272  0.14690  Biso   1.000  H
  H1347    1.0000 0.67571  0.54150  0.14529  Biso   1.000  H
  N208     1.0000 0.50610  0.20651  0.84911  Biso   1.000  N
  C832     1.0000 0.41432  0.23392  0.85079  Biso   1.000  C
  C833     1.0000 0.41434  0.23385  0.85079  Biso   1.000  C
  C834     1.0000 0.39474  0.25445  0.84779  Biso   1.000  C
  C835     1.0000 0.54120  0.26562  0.84661  Biso   1.000  C
  C836     1.0000 0.54123  0.26556  0.84661  Biso   1.000  C
  C837     1.0000 0.51727  0.29110  0.84661  Biso   1.000  C
  C838     1.0000 0.38191  0.16480  0.84800  Biso   1.000  C
  C839     1.0000 0.36547  0.18361  0.84411  Biso   1.000  C
  C840     1.0000 0.35580  0.31880  0.85221  Biso   1.000  C
  N209     1.0000 0.48611  0.22985  0.84600  Biso   1.000  N
  C841     1.0000 0.33297  0.33840  0.85161  Biso   1.000  C
  C842     1.0000 0.64424  0.23065  0.84172  Biso   1.000  C
  C843     1.0000 0.48668  0.35062  0.84640  Biso   1.000  C
  C844     1.0000 0.64428  0.23059  0.84168  Biso   1.000  C
  C845     1.0000 0.64427  0.23059  0.84172  Biso   1.000  C
  C846     1.0000 0.48671  0.35055  0.84640  Biso   1.000  C
  C847     1.0000 0.64434  0.23059  0.84168  Biso   1.000  C
  C848     1.0000 0.61952  0.25947  0.84450  Biso   1.000  C
  C849     1.0000 0.45900  0.37517  0.85089  Biso   1.000  C
  N210     1.0000 0.45361  0.09671  0.81430  Biso   1.000  N
  H1348    1.0000 0.37261  0.14021  0.87999  Biso   1.000  H
  H1349    1.0000 0.32200  0.18885  0.83651  Biso   1.000  H
  H1350    1.0000 0.32203  0.18878  0.83651  Biso   1.000  H
  N211     1.0000 0.45364  0.09665  0.81430  Biso   1.000  N
  H1351    1.0000 0.37264  0.14014  0.87999  Biso   1.000  H
  N212     1.0000 0.44342  0.11281  0.81452  Biso   1.000  N
  H1352    1.0000 0.30953  0.20488  0.82919  Biso   1.000  H
  H1353    1.0000 0.35013  0.16215  0.87642  Biso   1.000  H
  C850     1.0000 0.39231  0.37805  0.85089  Biso   1.000  C
  H1354    1.0000 0.29101  0.33644  0.85400  Biso   1.000  H
  C851     1.0000 0.39233  0.37798  0.85089  Biso   1.000  C
  H1355    1.0000 0.29104  0.33637  0.85400  Biso   1.000  H
  C852     1.0000 0.36570  0.39978  0.85271  Biso   1.000  C
  H1356    1.0000 0.26853  0.35387  0.85339  Biso   1.000  H
  N213     1.0000 0.68937  0.13923  0.82912  Biso   1.000  N
  H1357    1.0000 0.66846  0.26283  0.81669  Biso   1.000  H
  H1358    1.0000 0.66028  0.23881  0.87221  Biso   1.000  H
  N214     1.0000 0.68940  0.13917  0.82912  Biso   1.000  N
  H1359    1.0000 0.66849  0.26277  0.81669  Biso   1.000  H
  H1360    1.0000 0.66031  0.23875  0.87221  Biso   1.000  H
  N215     1.0000 0.67043  0.17076  0.82712  Biso   1.000  N
  H1361    1.0000 0.63149  0.26299  0.87681  Biso   1.000  H
  H1362    1.0000 0.64283  0.29679  0.82319  Biso   1.000  H
  H1363    1.0000 0.51367  0.39082  0.84322  Biso   1.000  H
  H1364    1.0000 0.51368  0.39082  0.84318  Biso   1.000  H
  H1365    1.0000 0.51370  0.39076  0.84322  Biso   1.000  H
  H1366    1.0000 0.48269  0.41676  0.85261  Biso   1.000  H
  H1367    1.0000 0.46116  0.12075  0.78521  Biso   1.000  H
  H1368    1.0000 0.50856  0.07732  0.82480  Biso   1.000  H
  C853     1.0000 0.43236  0.02252  0.80841  Biso   1.000  C
  H1369    1.0000 0.46119  0.12069  0.78521  Biso   1.000  H
  H1370    1.0000 0.50862  0.07732  0.82480  Biso   1.000  H
  H1371    1.0000 0.50865  0.07725  0.82480  Biso   1.000  H
  C854     1.0000 0.43239  0.02246  0.80841  Biso   1.000  C
  H1372    1.0000 0.49342  0.09274  0.82940  Biso   1.000  H
  H1373    1.0000 0.45966  0.13455  0.78589  Biso   1.000  H
  C855     1.0000 0.42198  0.04000  0.80559  Biso   1.000  C
  H1374    1.0000 0.35280  0.43733  0.85311  Biso   1.000  H
  H1375    1.0000 0.35282  0.43726  0.85311  Biso   1.000  H
  H1376    1.0000 0.32429  0.45848  0.85471  Biso   1.000  H
  C856     1.0000 0.79287  0.10090  0.81952  Biso   1.000  C
  H1377    1.0000 0.66951  0.13181  0.80281  Biso   1.000  H
  H1378    1.0000 0.67002  0.10992  0.85339  Biso   1.000  H
  H1379    1.0000 0.66954  0.13174  0.80281  Biso   1.000  H
  H1380    1.0000 0.67005  0.10986  0.85339  Biso   1.000  H
  H1381    1.0000 0.64923  0.13689  0.84740  Biso   1.000  H
  H1382    1.0000 0.65678  0.16779  0.79810  Biso   1.000  H
  C857     1.0000 0.77337  0.13529  0.82262  Biso   1.000  C
  H1383    1.0000 0.43080  0.99161  0.83951  Biso   1.000  H
  C858     1.0000 0.50469  0.96104  0.77011  Biso   1.000  C
  C859     1.0000 0.50472  0.96098  0.77011  Biso   1.000  C
  H1384    1.0000 0.43077  0.99167  0.83951  Biso   1.000  H
  C860     1.0000 0.49821  0.97821  0.76861  Biso   1.000  C
  C861     1.0000 0.34089  0.04672  0.79110  Biso   1.000  C
  C862     1.0000 0.34092  0.04665  0.79110  Biso   1.000  C
  H1385    1.0000 0.41503  0.00895  0.83611  Biso   1.000  H
  C863     1.0000 0.33478  0.06690  0.78371  Biso   1.000  C
  H1386    1.0000 0.81541  0.11669  0.84590  Biso   1.000  H
  C864     1.0000 0.83145  0.00285  0.81630  Biso   1.000  C
  C865     1.0000 0.83271  0.13061  0.77189  Biso   1.000  C
  C866     1.0000 0.83148  0.00279  0.81630  Biso   1.000  C
  C867     1.0000 0.83274  0.13054  0.77189  Biso   1.000  C
  C868     1.0000 0.81611  0.03735  0.81730  Biso   1.000  C
  C869     1.0000 0.81890  0.16885  0.77850  Biso   1.000  C
  H1387    1.0000 0.78915  0.15046  0.85179  Biso   1.000  H
  N216     1.0000 0.58977  0.89949  0.78732  Biso   1.000  N
  C870     1.0000 0.45367  0.91492  0.75119  Biso   1.000  C
  H1388    1.0000 0.52312  0.99513  0.74359  Biso   1.000  H
  N217     1.0000 0.58974  0.89956  0.78732  Biso   1.000  N
  N218     1.0000 0.58983  0.89949  0.78732  Biso   1.000  N
  C871     1.0000 0.45373  0.91492  0.75119  Biso   1.000  C
  N219     1.0000 0.58170  0.91833  0.78771  Biso   1.000  N
  C872     1.0000 0.44974  0.93067  0.74862  Biso   1.000  C
  H1389    1.0000 0.51777  0.01211  0.74230  Biso   1.000  H
  H1390    1.0000 0.33330  0.08930  0.76511  Biso   1.000  H
  C873     1.0000 0.35265  0.96094  0.77311  Biso   1.000  C
  C874     1.0000 0.35268  0.96088  0.77311  Biso   1.000  C
  C875     1.0000 0.35271  0.96094  0.77311  Biso   1.000  C
  C876     1.0000 0.34708  0.98283  0.76322  Biso   1.000  C
  H1391    1.0000 0.28696  0.06953  0.81741  Biso   1.000  H
  H1392    1.0000 0.28699  0.06947  0.81741  Biso   1.000  H
  H1393    1.0000 0.27784  0.09015  0.80831  Biso   1.000  H
  H1394    1.0000 0.33231  0.11000  0.75840  Biso   1.000  H
  N220     1.0000 0.86315  0.96323  0.86117  Biso   1.000  N
  H1395    1.0000 0.78207  0.98601  0.81041  Biso   1.000  H
  C877     1.0000 0.91009  0.97850  0.77289  Biso   1.000  C
  C878     1.0000 0.91006  0.97856  0.77289  Biso   1.000  C
  N221     1.0000 0.86321  0.96323  0.86117  Biso   1.000  N
  N222     1.0000 0.84736  0.99587  0.86192  Biso   1.000  N
  H1396    1.0000 0.76877  0.01909  0.81002  Biso   1.000  H
  C879     1.0000 0.89589  0.01696  0.77461  Biso   1.000  C
  C880     1.0000 0.87499  0.05111  0.74041  Biso   1.000  C
  H1397    1.0000 0.78318  0.17769  0.75819  Biso   1.000  H
  H1398    1.0000 0.88058  0.15012  0.77600  Biso   1.000  H
  H1399    1.0000 0.78324  0.17769  0.75819  Biso   1.000  H
  C881     1.0000 0.87502  0.05105  0.74041  Biso   1.000  C
  H1400    1.0000 0.88061  0.15005  0.77600  Biso   1.000  H
  C882     1.0000 0.86241  0.09290  0.74409  Biso   1.000  C
  H1401    1.0000 0.86670  0.18519  0.78621  Biso   1.000  H
  H1402    1.0000 0.77212  0.21887  0.76490  Biso   1.000  H
  H1403    1.0000 0.57536  0.86230  0.80802  Biso   1.000  H
  H1404    1.0000 0.61195  0.92835  0.80320  Biso   1.000  H
  C883     1.0000 0.66251  0.85121  0.74669  Biso   1.000  C
  H1405    1.0000 0.57544  0.86230  0.80798  Biso   1.000  H
  H1406    1.0000 0.61198  0.92829  0.80320  Biso   1.000  H
  H1407    1.0000 0.57540  0.86236  0.80802  Biso   1.000  H
  H1408    1.0000 0.59219  0.94546  0.81059  Biso   1.000  H
  H1409    1.0000 0.57127  0.87317  0.80149  Biso   1.000  H
  C884     1.0000 0.66497  0.88712  0.74930  Biso   1.000  C
  H1410    1.0000 0.46222  0.91770  0.71599  Biso   1.000  H
  H1411    1.0000 0.47776  0.85413  0.76090  Biso   1.000  H
  H1412    1.0000 0.47778  0.85407  0.76090  Biso   1.000  H
  H1413    1.0000 0.46220  0.91777  0.71599  Biso   1.000  H
  H1414    1.0000 0.47782  0.85413  0.76090  Biso   1.000  H
  H1415    1.0000 0.46771  0.87241  0.76201  Biso   1.000  H
  H1416    1.0000 0.46736  0.92624  0.71342  Biso   1.000  H
  H1417    1.0000 0.33512  0.92750  0.79981  Biso   1.000  H
  H1418    1.0000 0.31310  0.96969  0.74890  Biso   1.000  H
  H1419    1.0000 0.33509  0.92756  0.79981  Biso   1.000  H
  H1420    1.0000 0.31307  0.96975  0.74890  Biso   1.000  H
  H1421    1.0000 0.31586  0.99372  0.73530  Biso   1.000  H
  H1422    1.0000 0.31970  0.95205  0.78749  Biso   1.000  H
  H1423    1.0000 0.90238  0.98455  0.86821  Biso   1.000  H
  H1424    1.0000 0.81307  0.97894  0.88520  Biso   1.000  H
  C885     1.0000 0.91077  0.86935  0.85982  Biso   1.000  C
  H1425    1.0000 0.90241  0.98449  0.86821  Biso   1.000  H
  H1426    1.0000 0.81310  0.97887  0.88520  Biso   1.000  H
  C886     1.0000 0.91082  0.86928  0.85978  Biso   1.000  C
  C887     1.0000 0.91079  0.86935  0.85978  Biso   1.000  C
  C888     1.0000 0.89724  0.90216  0.85900  Biso   1.000  C
  H1427    1.0000 0.79691  0.00940  0.88570  Biso   1.000  H
  H1428    1.0000 0.88534  0.01758  0.87010  Biso   1.000  H
  H1429    1.0000 0.96888  0.97333  0.78150  Biso   1.000  H
  H1430    1.0000 0.92026  0.92423  0.75840  Biso   1.000  H
  H1431    1.0000 0.92029  0.92417  0.75840  Biso   1.000  H
  H1432    1.0000 0.90649  0.96465  0.75779  Biso   1.000  H
  H1433    1.0000 0.95412  0.00976  0.78460  Biso   1.000  H
  H1434    1.0000 0.82748  0.04645  0.72481  Biso   1.000  H
  H1435    1.0000 0.92630  0.05283  0.71542  Biso   1.000  H
  H1436    1.0000 0.82751  0.04639  0.72481  Biso   1.000  H
  H1437    1.0000 0.92631  0.05283  0.71538  Biso   1.000  H
  H1438    1.0000 0.92633  0.05276  0.71542  Biso   1.000  H
  H1439    1.0000 0.91463  0.09655  0.72060  Biso   1.000  H
  H1440    1.0000 0.81583  0.09079  0.72681  Biso   1.000  H
  H1441    1.0000 0.67671  0.89203  0.72370  Biso   1.000  H
  H1442    1.0000 0.63846  0.81902  0.72991  Biso   1.000  H
  C889     1.0000 0.75040  0.79004  0.76301  Biso   1.000  C
  C890     1.0000 0.75043  0.78997  0.76301  Biso   1.000  C
  H1443    1.0000 0.64786  0.87176  0.72099  Biso   1.000  H
  C891     1.0000 0.74488  0.81105  0.76379  Biso   1.000  C
  H1444    1.0000 0.68508  0.93405  0.73991  Biso   1.000  H
  C892     1.0000 0.92601  0.83493  0.90880  Biso   1.000  C
  H1445    1.0000 0.97130  0.85155  0.83790  Biso   1.000  H
  H1446    1.0000 0.87279  0.84549  0.84761  Biso   1.000  H
  H1447    1.0000 0.97133  0.85148  0.83790  Biso   1.000  H
  H1448    1.0000 0.87276  0.84556  0.84761  Biso   1.000  H
  C893     1.0000 0.91719  0.86563  0.90712  Biso   1.000  C
  H1449    1.0000 0.85928  0.87774  0.84729  Biso   1.000  H
  H1450    1.0000 0.95637  0.88646  0.83590  Biso   1.000  H
  N223     1.0000 0.74115  0.76395  0.80809  Biso   1.000  N
  C894     1.0000 0.83762  0.77199  0.73420  Biso   1.000  C
  N224     1.0000 0.74118  0.76389  0.80809  Biso   1.000  N
  C895     1.0000 0.83759  0.77206  0.73420  Biso   1.000  C
  N225     1.0000 0.73706  0.78996  0.80981  Biso   1.000  N
  C896     1.0000 0.81957  0.76065  0.72909  Biso   1.000  C
  N226     1.0000 0.87796  0.88963  0.94560  Biso   1.000  N
  C897     1.0000 0.98818  0.75304  0.91461  Biso   1.000  C
  N227     1.0000 0.87797  0.88963  0.94556  Biso   1.000  N
  C898     1.0000 0.98821  0.75298  0.91461  Biso   1.000  C
  N228     1.0000 0.87185  0.91887  0.94481  Biso   1.000  N
  C899     1.0000 0.97626  0.78201  0.91162  Biso   1.000  C
  C900     1.0000 0.81879  0.70371  0.82180  Biso   1.000  C
  C901     1.0000 0.81419  0.72876  0.82351  Biso   1.000  C
  H1451    1.0000 0.84309  0.80184  0.70521  Biso   1.000  H
  C902     1.0000 0.91480  0.71010  0.74901  Biso   1.000  C
  H1452    1.0000 0.84312  0.80178  0.70521  Biso   1.000  H
  C903     1.0000 0.91477  0.71016  0.74901  Biso   1.000  C
  H1453    1.0000 0.81738  0.76965  0.69611  Biso   1.000  H
  C904     1.0000 0.89610  0.69812  0.74430  Biso   1.000  C
  C905     1.0000 0.88911  0.86034  0.98969  Biso   1.000  C
  C906     1.0000 0.88914  0.86028  0.98969  Biso   1.000  C
  C907     1.0000 0.88426  0.88683  0.98829  Biso   1.000  C
  C908     1.0000 0.99709  0.72281  0.96049  Biso   1.000  C
  C909     1.0000 0.99389  0.75165  0.95649  Biso   1.000  C
  H1454    1.0000 0.02449  0.71771  0.88780  Biso   1.000  H
  H1455    1.0000 0.00466  0.74565  0.88441  Biso   1.000  H
  C910     1.0000 0.90177  0.66835  0.79121  Biso   1.000  C
  C911     1.0000 0.80750  0.67372  0.87249  Biso   1.000  C
  C912     1.0000 0.90180  0.66829  0.79121  Biso   1.000  C
  C913     1.0000 0.89699  0.69231  0.79271  Biso   1.000  C
  C914     1.0000 0.80431  0.70221  0.87481  Biso   1.000  C
  H1456    1.0000 0.97518  0.69642  0.73081  Biso   1.000  H
  H1457    1.0000 0.94636  0.66027  0.72220  Biso   1.000  H
  C915     1.0000 0.95070  0.77963  0.99840  Biso   1.000  C
  C916     1.0000 0.94335  0.80445  0.99561  Biso   1.000  C
  C917     1.0000 0.82619  0.94877  0.02820  Biso   1.000  C
  C918     1.0000 0.83360  0.92042  0.02838  Biso   1.000  C
  H1458    1.0000 0.03419  0.66442  0.96591  Biso   1.000  H
  H1459    1.0000 0.03946  0.69586  0.96041  Biso   1.000  H
  H1460    1.0000 0.94946  0.61624  0.79881  Biso   1.000  H
  H1461    1.0000 0.94949  0.61617  0.79881  Biso   1.000  H
  H1462    1.0000 0.95358  0.66386  0.80441  Biso   1.000  H
  N229     1.0000 0.71697  0.73070  0.89994  Biso   1.000  N
  H1463    1.0000 0.81135  0.61484  0.87292  Biso   1.000  H
  H1464    1.0000 0.85829  0.67300  0.88752  Biso   1.000  H
  H1465    1.0000 0.81139  0.61478  0.87288  Biso   1.000  H
  H1466    1.0000 0.85830  0.67300  0.88748  Biso   1.000  H
  N230     1.0000 0.71695  0.73077  0.89994  Biso   1.000  N
  H1467    1.0000 0.85826  0.67307  0.88752  Biso   1.000  H
  H1468    1.0000 0.81142  0.61484  0.87288  Biso   1.000  H
  N231     1.0000 0.71139  0.75607  0.90141  Biso   1.000  N
  H1469    1.0000 0.85251  0.70763  0.88941  Biso   1.000  H
  H1470    1.0000 0.81347  0.64163  0.87681  Biso   1.000  H
  H1471    1.0000 0.96160  0.76263  0.02981  Biso   1.000  H
  H1472    1.0000 0.96157  0.76270  0.02981  Biso   1.000  H
  H1473    1.0000 0.96166  0.76263  0.02981  Biso   1.000  H
  H1474    1.0000 0.94979  0.78349  0.02710  Biso   1.000  H
  H1475    1.0000 0.84047  0.92168  0.05912  Biso   1.000  H
  H1476    1.0000 0.75953  0.96474  0.02820  Biso   1.000  H
  H1477    1.0000 0.84049  0.92168  0.05908  Biso   1.000  H
  H1478    1.0000 0.75950  0.96480  0.02820  Biso   1.000  H
  H1479    1.0000 0.84058  0.92162  0.05908  Biso   1.000  H
  N232     1.0000 0.85041  0.99823  0.02339  Biso   1.000  N
  H1480    1.0000 0.84858  0.89282  0.05919  Biso   1.000  H
  H1481    1.0000 0.76699  0.93581  0.02881  Biso   1.000  H
  N233     1.0000 0.84530  0.02542  0.02199  Biso   1.000  N
  H1482    1.0000 0.67059  0.72862  0.88709  Biso   1.000  H
  H1483    1.0000 0.71208  0.78535  0.89759  Biso   1.000  H
  C919     1.0000 0.70540  0.70633  0.95170  Biso   1.000  C
  H1484    1.0000 0.71211  0.78528  0.89759  Biso   1.000  H
  C920     1.0000 0.70543  0.70627  0.95170  Biso   1.000  C
  H1485    1.0000 0.66745  0.74945  0.88841  Biso   1.000  H
  C921     1.0000 0.69976  0.73393  0.95349  Biso   1.000  C
  H1486    1.0000 0.70227  0.81186  0.89830  Biso   1.000  H
  H1487    1.0000 0.91133  0.98329  0.02410  Biso   1.000  H
  H1488    1.0000 0.83688  0.04645  0.99219  Biso   1.000  H
  H1489    1.0000 0.83691  0.04639  0.99219  Biso   1.000  H
  H1490    1.0000 0.83989  0.02099  0.99418  Biso   1.000  H
  H1491    1.0000 0.90610  0.00959  0.02349  Biso   1.000  H
  H1492    1.0000 0.90608  0.00966  0.02349  Biso   1.000  H
  C922     1.0000 0.79317  0.06570  0.06019  Biso   1.000  C
  C923     1.0000 0.78770  0.09543  0.05730  Biso   1.000  C
  C924     1.0000 0.78773  0.09537  0.05730  Biso   1.000  C
  H1493    1.0000 0.71418  0.64530  0.95449  Biso   1.000  H
  C925     1.0000 0.77347  0.71924  0.97741  Biso   1.000  C
  C926     1.0000 0.60996  0.76261  0.97762  Biso   1.000  C
  C927     1.0000 0.77350  0.71918  0.97741  Biso   1.000  C
  C928     1.0000 0.60997  0.76261  0.97759  Biso   1.000  C
  H1494    1.0000 0.71415  0.64537  0.95449  Biso   1.000  H
  C929     1.0000 0.60993  0.76267  0.97762  Biso   1.000  C
  C930     1.0000 0.61003  0.76261  0.97759  Biso   1.000  C
  H1495    1.0000 0.71128  0.67221  0.95731  Biso   1.000  H
  C931     1.0000 0.60305  0.78873  0.97851  Biso   1.000  C
  C932     1.0000 0.76489  0.75253  0.97891  Biso   1.000  C
  C933     1.0000 0.80940  0.07572  0.10820  Biso   1.000  C
  H1496    1.0000 0.72109  0.10681  0.05880  Biso   1.000  H
  C934     1.0000 0.80368  0.14919  0.04759  Biso   1.000  C
  C935     1.0000 0.81701  0.04189  0.11060  Biso   1.000  C
  H1497    1.0000 0.72648  0.07701  0.06201  Biso   1.000  H
  C936     1.0000 0.79896  0.17802  0.04259  Biso   1.000  C
  C937     1.0000 0.79902  0.17802  0.04259  Biso   1.000  C
  H1498    1.0000 0.83247  0.66744  0.97519  Biso   1.000  H
  H1499    1.0000 0.78708  0.76831  0.96409  Biso   1.000  H
  H1500    1.0000 0.83250  0.66737  0.97519  Biso   1.000  H
  H1501    1.0000 0.82547  0.70277  0.97719  Biso   1.000  H
  C938     1.0000 0.72225  0.73644  0.02849  Biso   1.000  C
  C939     1.0000 0.72222  0.73650  0.02849  Biso   1.000  C
  C940     1.0000 0.71281  0.77017  0.02992  Biso   1.000  C
  N234     1.0000 0.54729  0.71575  0.98762  Biso   1.000  N
  H1502    1.0000 0.58197  0.81315  0.95709  Biso   1.000  H
  N235     1.0000 0.54732  0.71568  0.98762  Biso   1.000  N
  H1503    1.0000 0.58199  0.81309  0.95709  Biso   1.000  H
  N236     1.0000 0.54137  0.74091  0.98779  Biso   1.000  N
  C941     1.0000 0.62451  0.79374  0.02271  Biso   1.000  C
  C942     1.0000 0.62449  0.79381  0.02271  Biso   1.000  C
  H1504    1.0000 0.57530  0.83857  0.95749  Biso   1.000  H
  C943     1.0000 0.61424  0.82255  0.02360  Biso   1.000  C
  H1505    1.0000 0.77537  0.80274  0.96491  Biso   1.000  H
  C944     1.0000 0.85207  0.13740  0.11570  Biso   1.000  C
  H1506    1.0000 0.85374  0.01565  0.11081  Biso   1.000  H
  H1507    1.0000 0.75194  0.08644  0.13201  Biso   1.000  H
  H1508    1.0000 0.85383  0.01558  0.11081  Biso   1.000  H
  H1509    1.0000 0.75203  0.08638  0.13201  Biso   1.000  H
  C945     1.0000 0.85204  0.13747  0.11570  Biso   1.000  C
  H1510    1.0000 0.85381  0.01565  0.11081  Biso   1.000  H
  H1511    1.0000 0.75200  0.08644  0.13201  Biso   1.000  H
  C946     1.0000 0.85213  0.13740  0.11570  Biso   1.000  C
  C947     1.0000 0.86131  0.10192  0.11909  Biso   1.000  C
  H1512    1.0000 0.76041  0.05172  0.13469  Biso   1.000  H
  H1513    1.0000 0.86016  0.16360  0.02082  Biso   1.000  H
  C948     1.0000 0.80051  0.21740  0.08861  Biso   1.000  C
  H1514    1.0000 0.86022  0.16360  0.02082  Biso   1.000  H
  H1515    1.0000 0.86019  0.16367  0.02082  Biso   1.000  H
  C949     1.0000 0.80048  0.21746  0.08861  Biso   1.000  C
  N237     1.0000 0.72743  0.20839  0.02349  Biso   1.000  N
  H1516    1.0000 0.86399  0.13618  0.02531  Biso   1.000  H
  C950     1.0000 0.80776  0.18443  0.09432  Biso   1.000  C
  H1517    1.0000 0.86120  0.98143  0.11181  Biso   1.000  H
  N238     1.0000 0.72400  0.23439  0.01700  Biso   1.000  N
  N239     1.0000 0.72397  0.23446  0.01700  Biso   1.000  N
  H1518    1.0000 0.72530  0.68286  0.04502  Biso   1.000  H
  H1519    1.0000 0.74770  0.76545  0.04659  Biso   1.000  H
  H1520    1.0000 0.72529  0.68293  0.04498  Biso   1.000  H
  H1521    1.0000 0.74767  0.76551  0.04659  Biso   1.000  H
  H1522    1.0000 0.72532  0.68286  0.04498  Biso   1.000  H
  H1523    1.0000 0.71892  0.71647  0.04709  Biso   1.000  H
  H1524    1.0000 0.73535  0.80256  0.04741  Biso   1.000  H
  H1525    1.0000 0.54217  0.69943  0.95909  Biso   1.000  H
  H1526    1.0000 0.54348  0.71853  0.95949  Biso   1.000  H
  H1527    1.0000 0.48199  0.77975  0.99729  Biso   1.000  H
  H1528    1.0000 0.48972  0.75334  0.00122  Biso   1.000  H
  C951     1.0000 0.57531  0.63853  0.01889  Biso   1.000  C
  H1529    1.0000 0.48969  0.75340  0.00122  Biso   1.000  H
  C952     1.0000 0.57529  0.63860  0.01889  Biso   1.000  C
  C953     1.0000 0.56182  0.67024  0.02371  Biso   1.000  C
  H1530    1.0000 0.61642  0.85393  0.01921  Biso   1.000  H
  H1531    1.0000 0.57951  0.78936  0.05069  Biso   1.000  H
  H1532    1.0000 0.61639  0.85400  0.01921  Biso   1.000  H
  H1533    1.0000 0.57948  0.78943  0.05069  Biso   1.000  H
  H1534    1.0000 0.57029  0.81600  0.05152  Biso   1.000  H
  H1535    1.0000 0.60215  0.88376  0.02010  Biso   1.000  H
  H1536    1.0000 0.91947  0.11310  0.10260  Biso   1.000  H
  H1537    1.0000 0.84266  0.15013  0.15001  Biso   1.000  H
  H1538    1.0000 0.91945  0.11316  0.10260  Biso   1.000  H
  H1539    1.0000 0.91954  0.11310  0.10260  Biso   1.000  H
  H1540    1.0000 0.84272  0.15013  0.15001  Biso   1.000  H
  H1541    1.0000 0.85412  0.11158  0.15361  Biso   1.000  H
  H1542    1.0000 0.92819  0.07812  0.10488  Biso   1.000  H
  H1543    1.0000 0.73700  0.25055  0.10610  Biso   1.000  H
  H1544    1.0000 0.83447  0.25451  0.08200  Biso   1.000  H
  H1545    1.0000 0.73703  0.25049  0.10610  Biso   1.000  H
  H1546    1.0000 0.83453  0.25451  0.08200  Biso   1.000  H
  H1547    1.0000 0.84164  0.22167  0.08850  Biso   1.000  H
  H1548    1.0000 0.74503  0.21618  0.11299  Biso   1.000  H
  H1549    1.0000 0.72480  0.20539  0.99151  Biso   1.000  H
  H1550    1.0000 0.72432  0.18042  0.99868  Biso   1.000  H
  H1551    1.0000 0.66839  0.24713  0.03681  Biso   1.000  H
  H1552    1.0000 0.67288  0.22312  0.04448  Biso   1.000  H
  C954     1.0000 0.73718  0.28750  0.00529  Biso   1.000  C
  C955     1.0000 0.73057  0.31530  0.99990  Biso   1.000  C
  C956     1.0000 0.73064  0.31530  0.99990  Biso   1.000  C
  H1553    1.0000 0.58579  0.65378  0.04930  Biso   1.000  H
  H1554    1.0000 0.63434  0.59364  0.00300  Biso   1.000  H
  C957     1.0000 0.50143  0.60464  0.02910  Biso   1.000  C
  H1555    1.0000 0.63431  0.59370  0.00300  Biso   1.000  H
  C958     1.0000 0.50141  0.60470  0.02910  Biso   1.000  C
  H1556    1.0000 0.62303  0.62366  0.01210  Biso   1.000  H
  C959     1.0000 0.48811  0.63608  0.03181  Biso   1.000  C
  H1557    1.0000 0.56451  0.69188  0.05419  Biso   1.000  H
  H1558    1.0000 0.78846  0.30285  0.97619  Biso   1.000  H
  H1559    1.0000 0.78848  0.30279  0.97619  Biso   1.000  H
  C960     1.0000 0.65509  0.34378  0.98319  Biso   1.000  C
  H1560    1.0000 0.79477  0.27281  0.98119  Biso   1.000  H
  H1561    1.0000 0.73268  0.34655  0.02699  Biso   1.000  H
  H1562    1.0000 0.73271  0.34648  0.02699  Biso   1.000  H
  H1563    1.0000 0.74180  0.31842  0.03181  Biso   1.000  H
  C961     1.0000 0.64830  0.36940  0.97741  Biso   1.000  C
  N240     1.0000 0.42254  0.65445  0.01350  Biso   1.000  N
  C962     1.0000 0.51258  0.53217  0.05512  Biso   1.000  C
  N241     1.0000 0.42251  0.65452  0.01350  Biso   1.000  N
  C963     1.0000 0.51259  0.53217  0.05509  Biso   1.000  C
  C964     1.0000 0.51265  0.53217  0.05509  Biso   1.000  C
  N242     1.0000 0.41384  0.68215  0.01161  Biso   1.000  N
  C965     1.0000 0.49843  0.56245  0.05651  Biso   1.000  C
  N243     1.0000 0.57745  0.34553  0.98651  Biso   1.000  N
  N244     1.0000 0.57752  0.34553  0.98651  Biso   1.000  N
  N245     1.0000 0.57748  0.34546  0.98651  Biso   1.000  N
  N246     1.0000 0.58621  0.31783  0.98840  Biso   1.000  N
  C966     1.0000 0.65300  0.41450  0.95531  Biso   1.000  C
  C967     1.0000 0.64286  0.44193  0.95060  Biso   1.000  C
  C968     1.0000 0.64289  0.44186  0.95060  Biso   1.000  C
  C969     1.0000 0.64292  0.44193  0.95060  Biso   1.000  C
  C970     1.0000 0.35170  0.63058  0.02260  Biso   1.000  C
  C971     1.0000 0.34490  0.65620  0.01682  Biso   1.000  C
  H1564    1.0000 0.56949  0.49854  0.06562  Biso   1.000  H
  C972     1.0000 0.43874  0.50914  0.06551  Biso   1.000  C
  H1565    1.0000 0.56952  0.49860  0.06562  Biso   1.000  H
  C973     1.0000 0.43871  0.50920  0.06551  Biso   1.000  C
  H1566    1.0000 0.56955  0.49854  0.06562  Biso   1.000  H
  H1567    1.0000 0.55378  0.52927  0.06840  Biso   1.000  H
  C974     1.0000 0.42572  0.53786  0.06351  Biso   1.000  C
  C975     1.0000 0.49856  0.39534  0.97091  Biso   1.000  C
  C976     1.0000 0.49859  0.39528  0.97091  Biso   1.000  C
  C977     1.0000 0.51189  0.36390  0.96820  Biso   1.000  C
  H1568    1.0000 0.69409  0.45720  0.94349  Biso   1.000  H
  C978     1.0000 0.56125  0.49085  0.93450  Biso   1.000  C
  C979     1.0000 0.56128  0.49078  0.93450  Biso   1.000  C
  C980     1.0000 0.56132  0.49085  0.93450  Biso   1.000  C
  C981     1.0000 0.57428  0.46212  0.93650  Biso   1.000  C
  H1569    1.0000 0.70448  0.42953  0.94960  Biso   1.000  H
  C982     1.0000 0.35714  0.55805  0.04941  Biso   1.000  C
  C983     1.0000 0.26942  0.68468  0.00011  Biso   1.000  C
  C984     1.0000 0.35711  0.55812  0.04941  Biso   1.000  C
  C985     1.0000 0.34699  0.58548  0.04470  Biso   1.000  C
  C986     1.0000 0.26279  0.71255  0.99472  Biso   1.000  C
  H1570    1.0000 0.44400  0.45947  0.08389  Biso   1.000  H
  H1571    1.0000 0.42993  0.48800  0.08139  Biso   1.000  H
  C987     1.0000 0.42468  0.36145  0.98112  Biso   1.000  C
  C988     1.0000 0.48742  0.46781  0.94489  Biso   1.000  C
  C989     1.0000 0.42472  0.36138  0.98108  Biso   1.000  C
  C990     1.0000 0.42471  0.36138  0.98112  Biso   1.000  C
  C991     1.0000 0.48745  0.46775  0.94489  Biso   1.000  C
  C992     1.0000 0.43820  0.32967  0.97630  Biso   1.000  C
  C993     1.0000 0.50157  0.43753  0.94349  Biso   1.000  C
  H1572    1.0000 0.55600  0.54051  0.91611  Biso   1.000  H
  H1573    1.0000 0.55603  0.54045  0.91611  Biso   1.000  H
  H1574    1.0000 0.57013  0.51199  0.91861  Biso   1.000  H
  H1575    1.0000 0.30591  0.54278  0.05651  Biso   1.000  H
  H1576    1.0000 0.29552  0.57045  0.05041  Biso   1.000  H
  N247     1.0000 0.27597  0.76565  0.98301  Biso   1.000  N
  H1577    1.0000 0.26729  0.65350  0.97302  Biso   1.000  H
  N248     1.0000 0.27600  0.76559  0.98301  Biso   1.000  N
  H1578    1.0000 0.26726  0.65356  0.97302  Biso   1.000  H
  H1579    1.0000 0.25817  0.68162  0.96820  Biso   1.000  H
  H1580    1.0000 0.21154  0.69713  0.02381  Biso   1.000  H
  H1581    1.0000 0.21151  0.69719  0.02381  Biso   1.000  H
  H1582    1.0000 0.20523  0.72717  0.01882  Biso   1.000  H
  N249     1.0000 0.27260  0.79165  0.97651  Biso   1.000  N
  H1583    1.0000 0.41421  0.34620  0.95070  Biso   1.000  H
  H1584    1.0000 0.36566  0.40634  0.99700  Biso   1.000  H
  H1585    1.0000 0.36569  0.40628  0.99700  Biso   1.000  H
  H1586    1.0000 0.37696  0.37632  0.98790  Biso   1.000  H
  N250     1.0000 0.45268  0.28430  0.01239  Biso   1.000  N
  N251     1.0000 0.45265  0.28436  0.01239  Biso   1.000  N
  N252     1.0000 0.45274  0.28430  0.01239  Biso   1.000  N
  H1587    1.0000 0.43051  0.50144  0.93439  Biso   1.000  H
  H1588    1.0000 0.43054  0.50138  0.93439  Biso   1.000  H
  H1589    1.0000 0.44622  0.47071  0.93161  Biso   1.000  H
  H1590    1.0000 0.43549  0.30810  0.94581  Biso   1.000  H
  N253     1.0000 0.45862  0.25907  0.01221  Biso   1.000  N
  H1591    1.0000 0.33158  0.75291  0.96320  Biso   1.000  H
  C994     1.0000 0.20101  0.82203  0.95742  Biso   1.000  C
  H1592    1.0000 0.32710  0.77693  0.95549  Biso   1.000  H
  H1593    1.0000 0.27519  0.79459  0.00850  Biso   1.000  H
  H1594    1.0000 0.27522  0.79452  0.00850  Biso   1.000  H
  H1595    1.0000 0.27569  0.81956  0.00129  Biso   1.000  H
  C995     1.0000 0.19629  0.85085  0.95242  Biso   1.000  C
  H1596    1.0000 0.51028  0.24664  0.99879  Biso   1.000  H
  H1597    1.0000 0.51031  0.24658  0.99879  Biso   1.000  H
  H1598    1.0000 0.45780  0.30061  0.04091  Biso   1.000  H
  C996     1.0000 0.39001  0.23744  0.02239  Biso   1.000  C
  C997     1.0000 0.39004  0.23737  0.02239  Biso   1.000  C
  H1599    1.0000 0.45650  0.28152  0.04048  Biso   1.000  H
  H1600    1.0000 0.51798  0.22030  0.00272  Biso   1.000  H
  C998     1.0000 0.39692  0.21131  0.02149  Biso   1.000  C
  H1601    1.0000 0.13981  0.83644  0.97919  Biso   1.000  H
  C999     1.0000 0.19946  0.78265  0.91140  Biso   1.000  C
  C1000    1.0000 0.21227  0.90461  0.94271  Biso   1.000  C
  H1602    1.0000 0.13984  0.83638  0.97919  Biso   1.000  H
  C1001    1.0000 0.19949  0.78258  0.91140  Biso   1.000  C
  H1603    1.0000 0.13598  0.86386  0.97469  Biso   1.000  H
  C1002    1.0000 0.19220  0.81562  0.90569  Biso   1.000  C
  C1003    1.0000 0.20679  0.93435  0.93982  Biso   1.000  C
  C1004    1.0000 0.37548  0.20624  0.97730  Biso   1.000  C
  C1005    1.0000 0.37551  0.20618  0.97730  Biso   1.000  C
  C1006    1.0000 0.29457  0.29371  0.04830  Biso   1.000  C
  H1604    1.0000 0.41800  0.18690  0.04291  Biso   1.000  H
  H1605    1.0000 0.41797  0.18696  0.04291  Biso   1.000  H
  C1007    1.0000 0.29463  0.29371  0.04830  Biso   1.000  C
  C1008    1.0000 0.30021  0.26611  0.04652  Biso   1.000  C
  C1009    1.0000 0.38576  0.17743  0.97641  Biso   1.000  C
  H1606    1.0000 0.42474  0.16148  0.04248  Biso   1.000  H
  H1607    1.0000 0.26297  0.74949  0.89391  Biso   1.000  H
  H1608    1.0000 0.16550  0.74553  0.91801  Biso   1.000  H
  C1010    1.0000 0.14790  0.86264  0.88431  Biso   1.000  C
  H1609    1.0000 0.26303  0.74949  0.89391  Biso   1.000  H
  H1610    1.0000 0.16553  0.74547  0.91801  Biso   1.000  H
  C1011    1.0000 0.14793  0.86258  0.88431  Biso   1.000  C
  H1611    1.0000 0.26300  0.74956  0.89391  Biso   1.000  H
  H1612    1.0000 0.15839  0.77837  0.91151  Biso   1.000  H
  H1613    1.0000 0.25494  0.78386  0.88702  Biso   1.000  H
  N254     1.0000 0.15466  0.97462  0.97801  Biso   1.000  N
  C1012    1.0000 0.19057  0.92433  0.89180  Biso   1.000  C
  H1614    1.0000 0.27888  0.89323  0.94121  Biso   1.000  H
  H1615    1.0000 0.27891  0.89317  0.94121  Biso   1.000  H
  C1013    1.0000 0.18296  0.95815  0.88941  Biso   1.000  C
  H1616    1.0000 0.27349  0.92303  0.93800  Biso   1.000  H
  C1014    1.0000 0.13866  0.89812  0.88092  Biso   1.000  C
  N255     1.0000 0.14960  0.00175  0.97659  Biso   1.000  N
  C1015    1.0000 0.27775  0.26354  0.97152  Biso   1.000  C
  H1617    1.0000 0.38358  0.14605  0.98080  Biso   1.000  H
  H1618    1.0000 0.42049  0.21062  0.94931  Biso   1.000  H
  C1016    1.0000 0.27778  0.26348  0.97152  Biso   1.000  C
  H1619    1.0000 0.38361  0.14598  0.98080  Biso   1.000  H
  H1620    1.0000 0.42052  0.21055  0.94931  Biso   1.000  H
  C1017    1.0000 0.27781  0.26354  0.97152  Biso   1.000  C
  C1018    1.0000 0.28719  0.22981  0.97009  Biso   1.000  C
  H1621    1.0000 0.42971  0.18398  0.94849  Biso   1.000  H
  N256     1.0000 0.28299  0.26934  0.10006  Biso   1.000  N
  H1622    1.0000 0.28579  0.35474  0.04552  Biso   1.000  H
  C1019    1.0000 0.22650  0.28080  0.02260  Biso   1.000  C
  N257     1.0000 0.28302  0.26928  0.10006  Biso   1.000  N
  H1623    1.0000 0.28583  0.35468  0.04548  Biso   1.000  H
  C1020    1.0000 0.22647  0.28086  0.02260  Biso   1.000  C
  H1624    1.0000 0.28580  0.35474  0.04548  Biso   1.000  H
  N258     1.0000 0.28864  0.24398  0.09860  Biso   1.000  N
  H1625    1.0000 0.28871  0.32777  0.04270  Biso   1.000  H
  C1021    1.0000 0.23508  0.24752  0.02110  Biso   1.000  C
  H1626    1.0000 0.39791  0.11622  0.97991  Biso   1.000  H
  H1627    1.0000 0.08049  0.88695  0.89741  Biso   1.000  H
  H1628    1.0000 0.15731  0.84992  0.85000  Biso   1.000  H
  H1629    1.0000 0.08052  0.88688  0.89741  Biso   1.000  H
  H1630    1.0000 0.14584  0.88846  0.84640  Biso   1.000  H
  H1631    1.0000 0.07179  0.92193  0.89509  Biso   1.000  H
  H1632    1.0000 0.09386  0.99045  0.97651  Biso   1.000  H
  H1633    1.0000 0.09389  0.99039  0.97651  Biso   1.000  H
  H1634    1.0000 0.16311  0.95353  0.00782  Biso   1.000  H
  H1635    1.0000 0.16310  0.95359  0.00779  Biso   1.000  H
  H1636    1.0000 0.16308  0.95359  0.00782  Biso   1.000  H
  H1637    1.0000 0.16312  0.95353  0.00779  Biso   1.000  H
  H1638    1.0000 0.16012  0.97899  0.00579  Biso   1.000  H
  C1022    1.0000 0.17381  0.05121  0.97180  Biso   1.000  C
  C1023    1.0000 0.17384  0.05114  0.97180  Biso   1.000  C
  H1639    1.0000 0.08872  0.01669  0.97591  Biso   1.000  H
  H1640    1.0000 0.14622  0.98440  0.88920  Biso   1.000  H
  H1641    1.0000 0.24802  0.91360  0.86799  Biso   1.000  H
  H1642    1.0000 0.14619  0.98446  0.88920  Biso   1.000  H
  H1643    1.0000 0.24800  0.91367  0.86799  Biso   1.000  H
  H1644    1.0000 0.23956  0.94832  0.86532  Biso   1.000  H
  H1645    1.0000 0.13880  0.01856  0.88820  Biso   1.000  H
  C1024    1.0000 0.16641  0.07956  0.97159  Biso   1.000  C
  H1646    1.0000 0.27469  0.31712  0.95499  Biso   1.000  H
  H1647    1.0000 0.25229  0.23453  0.95342  Biso   1.000  H
  H1648    1.0000 0.25232  0.23447  0.95342  Biso   1.000  H
  H1649    1.0000 0.27472  0.31705  0.95499  Biso   1.000  H
  H1650    1.0000 0.28107  0.28351  0.95292  Biso   1.000  H
  H1651    1.0000 0.26471  0.19742  0.95260  Biso   1.000  H
  H1652    1.0000 0.32938  0.27142  0.11292  Biso   1.000  H
  H1653    1.0000 0.28788  0.21470  0.10242  Biso   1.000  H
  C1025    1.0000 0.19247  0.32633  0.12752  Biso   1.000  C
  H1654    1.0000 0.28790  0.21470  0.10238  Biso   1.000  H
  H1655    1.0000 0.28786  0.21476  0.10242  Biso   1.000  H
  H1656    1.0000 0.33251  0.25059  0.11159  Biso   1.000  H
  C1026    1.0000 0.19566  0.29783  0.12520  Biso   1.000  C
  H1657    1.0000 0.16749  0.33261  0.02481  Biso   1.000  H
  H1658    1.0000 0.21288  0.23173  0.03592  Biso   1.000  H
  H1659    1.0000 0.21291  0.23167  0.03592  Biso   1.000  H
  H1660    1.0000 0.17449  0.29728  0.02281  Biso   1.000  H
  H1661    1.0000 0.29769  0.18819  0.10171  Biso   1.000  H
  H1662    1.0000 0.22460  0.19731  0.03509  Biso   1.000  H
  H1663    1.0000 0.15952  0.07830  0.94089  Biso   1.000  H
  H1664    1.0000 0.24046  0.03524  0.97180  Biso   1.000  H
  H1665    1.0000 0.24049  0.03518  0.97180  Biso   1.000  H
  H1666    1.0000 0.15141  0.10716  0.94082  Biso   1.000  H
  H1667    1.0000 0.23301  0.06417  0.97120  Biso   1.000  H
  C1027    1.0000 0.11093  0.13970  0.01028  Biso   1.000  C
  C1028    1.0000 0.11571  0.11321  0.01171  Biso   1.000  C
  C1029    1.0000 0.11086  0.13970  0.01032  Biso   1.000  C
  C1030    1.0000 0.11089  0.13977  0.01032  Biso   1.000  C
  C1031    1.0000 0.18118  0.29633  0.17821  Biso   1.000  C
  H1668    1.0000 0.18862  0.38521  0.12709  Biso   1.000  H
  H1669    1.0000 0.14168  0.32704  0.11249  Biso   1.000  H
  H1670    1.0000 0.14171  0.32698  0.11249  Biso   1.000  H
  H1671    1.0000 0.18859  0.38527  0.12709  Biso   1.000  H
  C1032    1.0000 0.18578  0.27128  0.17649  Biso   1.000  C
  H1672    1.0000 0.14752  0.29241  0.11060  Biso   1.000  H
  H1673    1.0000 0.18650  0.35842  0.12320  Biso   1.000  H
  N259     1.0000 0.12201  0.11042  0.05441  Biso   1.000  N
  C1033    1.0000 0.04927  0.22042  0.00161  Biso   1.000  C
  N260     1.0000 0.12812  0.08118  0.05519  Biso   1.000  N
  C1034    1.0000 0.05662  0.19560  0.00439  Biso   1.000  C
  N261     1.0000 0.25881  0.23609  0.19191  Biso   1.000  N
  C1035    1.0000 0.09819  0.33170  0.20880  Biso   1.000  C
  N262     1.0000 0.25878  0.23616  0.19191  Biso   1.000  N
  C1036    1.0000 0.09816  0.33176  0.20880  Biso   1.000  C
  N263     1.0000 0.26291  0.21009  0.19020  Biso   1.000  N
  C1037    1.0000 0.10300  0.30767  0.20730  Biso   1.000  C
  C1038    1.0000 0.07396  0.16512  0.09121  Biso   1.000  C
  C1039    1.0000 0.07402  0.16512  0.09121  Biso   1.000  C
  C1040    1.0000 0.08277  0.13441  0.09289  Biso   1.000  C
  H1674    1.0000 0.03840  0.23735  0.97020  Biso   1.000  H
  H1675    1.0000 0.03843  0.23728  0.97020  Biso   1.000  H
  H1676    1.0000 0.05021  0.21649  0.97291  Biso   1.000  H
  C1041    1.0000 0.00287  0.27723  0.03952  Biso   1.000  C
  C1042    1.0000 0.00289  0.27723  0.03949  Biso   1.000  C
  C1043    1.0000 0.00609  0.24840  0.04348  Biso   1.000  C
  C1044    1.0000 0.24957  0.21001  0.23700  Biso   1.000  C
  C1045    1.0000 0.24963  0.21001  0.23700  Biso   1.000  C
  C1046    1.0000 0.25508  0.18899  0.23622  Biso   1.000  C
  C1047    1.0000 0.08517  0.28994  0.25099  Biso   1.000  C
  H1677    1.0000 0.05051  0.38381  0.20120  Biso   1.000  H
  C1048    1.0000 0.08520  0.28988  0.25099  Biso   1.000  C
  C1049    1.0000 0.10387  0.30192  0.25571  Biso   1.000  C
  H1678    1.0000 0.04638  0.33619  0.19559  Biso   1.000  H
  C1050    1.0000 0.01178  0.24700  0.08539  Biso   1.000  C
  C1051    1.0000 0.08919  0.13070  0.14019  Biso   1.000  C
  C1052    1.0000 0.01175  0.24707  0.08539  Biso   1.000  C
  C1053    1.0000 0.08916  0.13076  0.14019  Biso   1.000  C
  C1054    1.0000 0.02374  0.21797  0.08839  Biso   1.000  C
  C1055    1.0000 0.10272  0.09788  0.14101  Biso   1.000  C
  H1679    1.0000 0.96578  0.33562  0.03409  Biso   1.000  H
  H1680    1.0000 0.96051  0.30418  0.03959  Biso   1.000  H
  C1056    1.0000 0.33745  0.14883  0.25332  Biso   1.000  C
  C1057    1.0000 0.16235  0.22805  0.26581  Biso   1.000  C
  C1058    1.0000 0.16238  0.22799  0.26581  Biso   1.000  C
  C1059    1.0000 0.33500  0.11292  0.25071  Biso   1.000  C
  C1060    1.0000 0.18040  0.23940  0.27091  Biso   1.000  C
  H1681    1.0000 0.02479  0.30363  0.26920  Biso   1.000  H
  H1682    1.0000 0.05361  0.33977  0.27780  Biso   1.000  H
  H1683    1.0000 0.97548  0.28234  0.11220  Biso   1.000  H
  H1684    1.0000 0.97551  0.28227  0.11220  Biso   1.000  H
  H1685    1.0000 0.99531  0.25439  0.11559  Biso   1.000  H
  N264     1.0000 0.13681  0.03681  0.13883  Biso   1.000  N
  H1686    1.0000 0.02867  0.14850  0.16211  Biso   1.000  H
  H1687    1.0000 0.12718  0.15455  0.15240  Biso   1.000  H
  H1688    1.0000 0.02873  0.14850  0.16211  Biso   1.000  H
  H1689    1.0000 0.12721  0.15449  0.15240  Biso   1.000  H
  H1690    1.0000 0.02870  0.14856  0.16211  Biso   1.000  H
  H1691    1.0000 0.14070  0.12230  0.15268  Biso   1.000  H
  H1692    1.0000 0.04360  0.11358  0.16411  Biso   1.000  H
  N265     1.0000 0.15261  0.00418  0.13808  Biso   1.000  N
  N266     1.0000 0.41020  0.10055  0.21269  Biso   1.000  N
  H1693    1.0000 0.32326  0.10801  0.27630  Biso   1.000  H
  H1694    1.0000 0.36150  0.18102  0.27009  Biso   1.000  H
  N267     1.0000 0.41023  0.10049  0.21269  Biso   1.000  N
  H1695    1.0000 0.32332  0.10801  0.27630  Biso   1.000  H
  N268     1.0000 0.41827  0.08171  0.21230  Biso   1.000  N
  H1696    1.0000 0.35211  0.12828  0.27902  Biso   1.000  H
  H1697    1.0000 0.15688  0.19820  0.29480  Biso   1.000  H
  H1698    1.0000 0.15685  0.19827  0.29480  Biso   1.000  H
  H1699    1.0000 0.18258  0.23040  0.30390  Biso   1.000  H
  H1700    1.0000 0.31489  0.06599  0.26010  Biso   1.000  H
  C1061    1.0000 0.16854  0.99713  0.18370  Biso   1.000  C
  C1062    1.0000 0.16852  0.99719  0.18370  Biso   1.000  C
  H1701    1.0000 0.20308  0.99058  0.11431  Biso   1.000  H
  H1702    1.0000 0.11472  0.98240  0.12991  Biso   1.000  H
  C1063    1.0000 0.18392  0.96257  0.18270  Biso   1.000  C
  H1703    1.0000 0.09759  0.01549  0.13180  Biso   1.000  H
  H1704    1.0000 0.18689  0.02111  0.11481  Biso   1.000  H
  H1705    1.0000 0.09756  0.01556  0.13180  Biso   1.000  H
  H1706    1.0000 0.18687  0.02117  0.11481  Biso   1.000  H
  H1707    1.0000 0.42460  0.13775  0.19199  Biso   1.000  H
  H1708    1.0000 0.38801  0.07169  0.19681  Biso   1.000  H
  C1064    1.0000 0.49528  0.03900  0.22990  Biso   1.000  C
  H1709    1.0000 0.42463  0.13768  0.19199  Biso   1.000  H
  H1710    1.0000 0.38799  0.07175  0.19681  Biso   1.000  H
  C1065    1.0000 0.49525  0.03906  0.22990  Biso   1.000  C
  H1711    1.0000 0.40778  0.05458  0.18942  Biso   1.000  H
  H1712    1.0000 0.42871  0.12688  0.19848  Biso   1.000  H
  C1066    1.0000 0.50179  0.02177  0.23140  Biso   1.000  C
  C1067    1.0000 0.20713  0.89908  0.18049  Biso   1.000  C
  H1713    1.0000 0.23123  0.98089  0.18999  Biso   1.000  H
  C1068    1.0000 0.10410  0.98302  0.22540  Biso   1.000  C
  H1714    1.0000 0.21790  0.01403  0.18959  Biso   1.000  H
  C1069    1.0000 0.08988  0.02154  0.22711  Biso   1.000  C
  H1715    1.0000 0.21793  0.01397  0.18959  Biso   1.000  H
  C1070    1.0000 0.08990  0.02148  0.22711  Biso   1.000  C
  C1071    1.0000 0.22662  0.86470  0.17739  Biso   1.000  C
  C1072    1.0000 0.56763  0.97746  0.19159  Biso   1.000  C
  C1073    1.0000 0.56760  0.97752  0.19159  Biso   1.000  C
  C1074    1.0000 0.57801  0.95998  0.19441  Biso   1.000  C
  H1716    1.0000 0.48223  0.98788  0.25771  Biso   1.000  H
  C1075    1.0000 0.54630  0.08513  0.24882  Biso   1.000  C
  H1717    1.0000 0.47685  0.00492  0.25642  Biso   1.000  H
  H1718    1.0000 0.47692  0.00492  0.25639  Biso   1.000  H
  H1719    1.0000 0.47691  0.00492  0.25642  Biso   1.000  H
  C1076    1.0000 0.55022  0.06937  0.25139  Biso   1.000  C
  N269     1.0000 0.31063  0.86075  0.17089  Biso   1.000  N
  C1077    1.0000 0.16729  0.86937  0.22811  Biso   1.000  C
  H1720    1.0000 0.18458  0.88329  0.15411  Biso   1.000  H
  N270     1.0000 0.31060  0.86081  0.17089  Biso   1.000  N
  H1721    1.0000 0.18461  0.88322  0.15411  Biso   1.000  H
  C1078    1.0000 0.18112  0.83107  0.22151  Biso   1.000  C
  H1722    1.0000 0.21092  0.84952  0.14818  Biso   1.000  H
  C1079    1.0000 0.12500  0.94887  0.25960  Biso   1.000  C
  H1723    1.0000 0.04587  0.99022  0.21540  Biso   1.000  H
  C1080    1.0000 0.13760  0.90708  0.25589  Biso   1.000  C
  H1724    1.0000 0.03108  0.02671  0.21851  Biso   1.000  H
  H1725    1.0000 0.09348  0.03539  0.24221  Biso   1.000  H
  H1726    1.0000 0.07970  0.07581  0.24161  Biso   1.000  H
  N271     1.0000 0.32957  0.82922  0.17289  Biso   1.000  N
  N272     1.0000 0.54638  0.90327  0.18570  Biso   1.000  N
  C1081    1.0000 0.65911  0.95326  0.20891  Biso   1.000  C
  C1082    1.0000 0.65908  0.95333  0.20891  Biso   1.000  C
  N273     1.0000 0.54645  0.90327  0.18570  Biso   1.000  N
  N274     1.0000 0.55664  0.88717  0.18549  Biso   1.000  N
  H1727    1.0000 0.58497  0.99103  0.16389  Biso   1.000  H
  C1083    1.0000 0.66521  0.93308  0.21630  Biso   1.000  C
  H1728    1.0000 0.56917  0.00844  0.16050  Biso   1.000  H
  H1729    1.0000 0.56920  0.00837  0.16050  Biso   1.000  H
  C1084    1.0000 0.64732  0.03910  0.22690  Biso   1.000  C
  H1730    1.0000 0.53774  0.08234  0.28402  Biso   1.000  H
  H1731    1.0000 0.52221  0.14591  0.23911  Biso   1.000  H
  H1732    1.0000 0.53783  0.08228  0.28402  Biso   1.000  H
  C1085    1.0000 0.64729  0.03917  0.22690  Biso   1.000  C
  H1733    1.0000 0.53780  0.08234  0.28402  Biso   1.000  H
  C1086    1.0000 0.65289  0.01721  0.23679  Biso   1.000  C
  H1734    1.0000 0.53229  0.12757  0.23800  Biso   1.000  H
  H1735    1.0000 0.53261  0.07380  0.28659  Biso   1.000  H
  H1736    1.0000 0.33049  0.86817  0.19720  Biso   1.000  H
  H1737    1.0000 0.32998  0.89006  0.14661  Biso   1.000  H
  C1087    1.0000 0.35575  0.76933  0.15829  Biso   1.000  C
  H1738    1.0000 0.33001  0.89012  0.14661  Biso   1.000  H
  C1088    1.0000 0.35573  0.76939  0.15829  Biso   1.000  C
  H1739    1.0000 0.33004  0.89006  0.14661  Biso   1.000  H
  H1740    1.0000 0.33055  0.86817  0.19720  Biso   1.000  H
  H1741    1.0000 0.35077  0.86310  0.15261  Biso   1.000  H
  H1742    1.0000 0.34322  0.83219  0.20191  Biso   1.000  H
  H1743    1.0000 0.21682  0.82229  0.24182  Biso   1.000  H
  H1744    1.0000 0.11941  0.84986  0.22401  Biso   1.000  H
  H1745    1.0000 0.21683  0.82229  0.24178  Biso   1.000  H
  H1746    1.0000 0.11938  0.84993  0.22401  Biso   1.000  H
  H1747    1.0000 0.21686  0.82222  0.24178  Biso   1.000  H
  H1748    1.0000 0.13329  0.81479  0.21380  Biso   1.000  H
  H1749    1.0000 0.22788  0.78111  0.23511  Biso   1.000  H
  H1750    1.0000 0.17251  0.95353  0.27520  Biso   1.000  H
  H1751    1.0000 0.07370  0.94715  0.28459  Biso   1.000  H
  H1752    1.0000 0.17248  0.95359  0.27520  Biso   1.000  H
  H1753    1.0000 0.07367  0.94722  0.28459  Biso   1.000  H
  H1754    1.0000 0.07376  0.94715  0.28459  Biso   1.000  H
  H1755    1.0000 0.08537  0.90343  0.27941  Biso   1.000  H
  H1756    1.0000 0.18423  0.90919  0.27320  Biso   1.000  H
  C1089    1.0000 0.38047  0.74051  0.15550  Biso   1.000  C
  C1090    1.0000 0.61809  0.83518  0.15200  Biso   1.000  C
  C1091    1.0000 0.63453  0.81638  0.15590  Biso   1.000  C
  H1757    1.0000 0.53883  0.87923  0.21480  Biso   1.000  H
  H1758    1.0000 0.49144  0.92266  0.17521  Biso   1.000  H
  H1759    1.0000 0.53880  0.87929  0.21480  Biso   1.000  H
  H1760    1.0000 0.49141  0.92273  0.17521  Biso   1.000  H
  H1761    1.0000 0.50660  0.90717  0.17060  Biso   1.000  H
  H1762    1.0000 0.54041  0.86543  0.21408  Biso   1.000  H
  H1763    1.0000 0.66670  0.91068  0.23489  Biso   1.000  H
  H1764    1.0000 0.71303  0.93045  0.18260  Biso   1.000  H
  H1765    1.0000 0.71300  0.93051  0.18260  Biso   1.000  H
  H1766    1.0000 0.72221  0.90983  0.19170  Biso   1.000  H
  H1767    1.0000 0.66768  0.88998  0.24161  Biso   1.000  H
  H1768    1.0000 0.66485  0.07255  0.20020  Biso   1.000  H
  H1769    1.0000 0.68687  0.03035  0.25110  Biso   1.000  H
  H1770    1.0000 0.66488  0.07248  0.20020  Biso   1.000  H
  H1771    1.0000 0.68690  0.03029  0.25110  Biso   1.000  H
  H1772    1.0000 0.66491  0.07255  0.20020  Biso   1.000  H
  H1773    1.0000 0.68411  0.00632  0.26470  Biso   1.000  H
  H1774    1.0000 0.68027  0.04799  0.21251  Biso   1.000  H
  H1775    1.0000 0.33153  0.73715  0.18331  Biso   1.000  H
  H1776    1.0000 0.33972  0.76117  0.12780  Biso   1.000  H
  C1092    1.0000 0.45879  0.73436  0.15340  Biso   1.000  C
  H1777    1.0000 0.33150  0.73721  0.18331  Biso   1.000  H
  C1093    1.0000 0.45876  0.73442  0.15340  Biso   1.000  C
  C1094    1.0000 0.45885  0.73436  0.15340  Biso   1.000  C
  H1778    1.0000 0.36850  0.73700  0.12320  Biso   1.000  H
  H1779    1.0000 0.35722  0.70319  0.17681  Biso   1.000  H
  C1095    1.0000 0.48273  0.70888  0.15340  Biso   1.000  C
  C1096    1.0000 0.58568  0.76607  0.14922  Biso   1.000  C
  C1097    1.0000 0.58566  0.76613  0.14918  Biso   1.000  C
  C1098    1.0000 0.58575  0.76606  0.14918  Biso   1.000  C
  C1099    1.0000 0.60526  0.74553  0.15218  Biso   1.000  C
  H1780    1.0000 0.62738  0.85977  0.12002  Biso   1.000  H
  H1781    1.0000 0.67800  0.81114  0.16350  Biso   1.000  H
  H1782    1.0000 0.62740  0.85977  0.11998  Biso   1.000  H
  H1783    1.0000 0.67803  0.81120  0.16350  Biso   1.000  H
  H1784    1.0000 0.67806  0.81114  0.16350  Biso   1.000  H
  H1785    1.0000 0.69052  0.79510  0.17082  Biso   1.000  H
  H1786    1.0000 0.64990  0.83777  0.12359  Biso   1.000  H
  N275     1.0000 0.49390  0.79347  0.15090  Biso   1.000  N
  C1100    1.0000 0.51331  0.64936  0.15361  Biso   1.000  C
  C1101    1.0000 0.51328  0.64943  0.15361  Biso   1.000  C
  N276     1.0000 0.51388  0.77013  0.15400  Biso   1.000  N
  C1102    1.0000 0.54099  0.62481  0.14911  Biso   1.000  C
  C1103    1.0000 0.64419  0.68118  0.14779  Biso   1.000  C
  C1104    1.0000 0.66702  0.66158  0.14840  Biso   1.000  C
  H1787    1.0000 0.48633  0.60916  0.15679  Biso   1.000  H
  C1105    1.0000 0.60769  0.62193  0.14911  Biso   1.000  C
  H1788    1.0000 0.48630  0.60922  0.15679  Biso   1.000  H
  C1106    1.0000 0.60772  0.62200  0.14911  Biso   1.000  C
  C1107    1.0000 0.60775  0.62193  0.14911  Biso   1.000  C
  H1789    1.0000 0.51731  0.58322  0.14740  Biso   1.000  H
  C1108    1.0000 0.63430  0.60021  0.14729  Biso   1.000  C
  H1790    1.0000 0.70899  0.66354  0.14601  Biso   1.000  H
  H1791    1.0000 0.70902  0.66361  0.14601  Biso   1.000  H
  H1792    1.0000 0.70905  0.66354  0.14601  Biso   1.000  H
  H1793    1.0000 0.73147  0.64612  0.14661  Biso   1.000  H
  H1794    1.0000 0.64720  0.56265  0.14690  Biso   1.000  H
  H1795    1.0000 0.64717  0.56272  0.14690  Biso   1.000  H
  H1796    1.0000 0.67571  0.54150  0.14529  Biso   1.000  H
  C1109    1.0000 0.27871  0.38632  0.72584  Biso   1.000  C
  C1110    1.0000 0.34927  0.34243  0.69036  Biso   1.000  C
  H1797    1.0000 0.22669  0.37222  0.73480  Biso   1.000  H
  C1111    1.0000 0.28323  0.45138  0.74869  Biso   1.000  C
  C1112    1.0000 0.34941  0.27190  0.66309  Biso   1.000  C
  N277     1.0000 0.42561  0.35848  0.67762  Biso   1.000  N
  C1113    1.0000 0.36050  0.46808  0.73637  Biso   1.000  C
  H1798    1.0000 0.23328  0.48427  0.77272  Biso   1.000  H
  N278     1.0000 0.44280  0.21933  0.63688  Biso   1.000  N
  H1799    1.0000 0.32668  0.23529  0.68540  Biso   1.000  H
  H1800    1.0000 0.30620  0.29663  0.64010  Biso   1.000  H
  C1114    1.0000 0.43101  0.41979  0.70153  Biso   1.000  C
  H1801    1.0000 0.36507  0.51259  0.75190  Biso   1.000  H
  C1115    1.0000 0.44932  0.14771  0.60818  Biso   1.000  C
  H1802    1.0000 0.48178  0.19721  0.65830  Biso   1.000  H
  H1803    1.0000 0.46342  0.25391  0.61700  Biso   1.000  H
  C1116    1.0000 0.51949  0.43180  0.68690  Biso   1.000  C
  C1117    1.0000 0.54573  0.10748  0.57613  Biso   1.000  C
  C1118    1.0000 0.43723  0.07547  0.63935  Biso   1.000  C
  H1804    1.0000 0.40053  0.17009  0.58769  Biso   1.000  H
  N279     1.0000 0.59807  0.34689  0.67287  Biso   1.000  N
  H1805    1.0000 0.53139  0.45628  0.71381  Biso   1.000  H
  H1806    1.0000 0.51421  0.47169  0.65970  Biso   1.000  H
  N280     1.0000 0.53687  0.12541  0.52519  Biso   1.000  N
  H1807    1.0000 0.58730  0.13181  0.58469  Biso   1.000  H
  C1119    1.0000 0.58332  0.01197  0.58723  Biso   1.000  C
  C1120    1.0000 0.53682  0.00827  0.63660  Biso   1.000  C
  C1121    1.0000 0.50368  0.99409  0.61150  Biso   1.000  C
  H1808    1.0000 0.40820  0.09502  0.67258  Biso   1.000  H
  H1809    1.0000 0.39878  0.05289  0.62650  Biso   1.000  H
  H1810    1.0000 0.45369  0.07540  0.67101  Biso   1.000  H
  H1811    1.0000 0.37238  0.08132  0.64399  Biso   1.000  H
  H1812    1.0000 0.60000  0.31030  0.69779  Biso   1.000  H
  H1813    1.0000 0.58608  0.32549  0.64799  Biso   1.000  H
  C1122    1.0000 0.69072  0.34901  0.65880  Biso   1.000  C
  C1123    1.0000 0.62442  0.08599  0.49095  Biso   1.000  C
  H1814    1.0000 0.49554  0.10658  0.51851  Biso   1.000  H
  H1815    1.0000 0.51322  0.18291  0.52080  Biso   1.000  H
  H1816    1.0000 0.56729  0.98102  0.56520  Biso   1.000  H
  H1817    1.0000 0.65160  0.98717  0.58480  Biso   1.000  H
  H1818    1.0000 0.61289  0.97821  0.55739  Biso   1.000  H
  H1819    1.0000 0.63008  0.99687  0.60811  Biso   1.000  H
  H1820    1.0000 0.56782  0.02167  0.65959  Biso   1.000  H
  H1821    1.0000 0.53777  0.95092  0.64381  Biso   1.000  H
  H1822    1.0000 0.52397  0.94502  0.63339  Biso   1.000  H
  H1823    1.0000 0.47347  0.98113  0.58801  Biso   1.000  H
  H1824    1.0000 0.69280  0.38051  0.62800  Biso   1.000  H
  C1124    1.0000 0.71612  0.39017  0.69600  Biso   1.000  C
  C1125    1.0000 0.76881  0.25937  0.65288  Biso   1.000  C
  C1126    1.0000 0.61072  0.11702  0.44123  Biso   1.000  C
  H1825    1.0000 0.64630  0.02310  0.49199  Biso   1.000  H
  H1826    1.0000 0.67253  0.10049  0.49998  Biso   1.000  H
  H1827    1.0000 0.70189  0.36929  0.72849  Biso   1.000  H
  H1828    1.0000 0.68359  0.45333  0.69561  Biso   1.000  H
  C1127    1.0000 0.82081  0.36028  0.67901  Biso   1.000  C
  H1829    1.0000 0.67822  0.38979  0.72770  Biso   1.000  H
  H1830    1.0000 0.70400  0.45020  0.68729  Biso   1.000  H
  C1128    1.0000 0.81909  0.33910  0.69761  Biso   1.000  C
  N281     1.0000 0.78299  0.21871  0.60629  Biso   1.000  N
  C1129    1.0000 0.85586  0.27111  0.65962  Biso   1.000  C
  H1831    1.0000 0.75472  0.22247  0.67912  Biso   1.000  H
  N282     1.0000 0.53539  0.18979  0.43748  Biso   1.000  N
  C1130    1.0000 0.67289  0.07291  0.40246  Biso   1.000  C
  H1832    1.0000 0.83367  0.39853  0.65370  Biso   1.000  H
  H1833    1.0000 0.85150  0.36017  0.70582  Biso   1.000  H
  H1834    1.0000 0.85256  0.37673  0.69122  Biso   1.000  H
  H1835    1.0000 0.82732  0.31278  0.72941  Biso   1.000  H
  H1836    1.0000 0.80563  0.24687  0.58259  Biso   1.000  H
  H1837    1.0000 0.72752  0.22307  0.60079  Biso   1.000  H
  C1131    1.0000 0.84878  0.12712  0.60522  Biso   1.000  C
  H1838    1.0000 0.88899  0.22837  0.68229  Biso   1.000  H
  H1839    1.0000 0.89879  0.26429  0.62882  Biso   1.000  H
  H1840    1.0000 0.90257  0.21723  0.67019  Biso   1.000  H
  H1841    1.0000 0.88438  0.28977  0.62960  Biso   1.000  H
  C1132    1.0000 0.52409  0.22150  0.39375  Biso   1.000  C
  C1133    1.0000 0.66028  0.10589  0.35744  Biso   1.000  C
  H1842    1.0000 0.72389  0.02051  0.40638  Biso   1.000  H
  H1843    1.0000 0.82539  0.09681  0.63171  Biso   1.000  H
  H1844    1.0000 0.90988  0.12237  0.61000  Biso   1.000  H
  C1134    1.0000 0.86048  0.08531  0.55849  Biso   1.000  C
  C1135    1.0000 0.44081  0.30508  0.39239  Biso   1.000  C
  C1136    1.0000 0.58344  0.18127  0.35327  Biso   1.000  C
  H1845    1.0000 0.70329  0.07751  0.32988  Biso   1.000  H
  N283     1.0000 0.84862  0.13597  0.52058  Biso   1.000  N
  C1137    1.0000 0.88591  0.99723  0.55585  Biso   1.000  C
  N284     1.0000 0.35626  0.29891  0.41895  Biso   1.000  N
  H1846    1.0000 0.43367  0.32053  0.35891  Biso   1.000  H
  H1847    1.0000 0.45029  0.35073  0.40660  Biso   1.000  H
  H1848    1.0000 0.57221  0.20472  0.32271  Biso   1.000  H
  C1138    1.0000 0.86083  0.09917  0.47810  Biso   1.000  C
  H1849    1.0000 0.89531  0.96270  0.58359  Biso   1.000  H
  C1139    1.0000 0.89697  0.96182  0.51237  Biso   1.000  C
  C1140    1.0000 0.26778  0.37612  0.41934  Biso   1.000  C
  H1850    1.0000 0.35051  0.25481  0.40649  Biso   1.000  H
  H1851    1.0000 0.36390  0.28542  0.44969  Biso   1.000  H
  C1141    1.0000 0.88521  0.01388  0.47289  Biso   1.000  C
  C1142    1.0000 0.84698  0.15823  0.43598  Biso   1.000  C
  H1852    1.0000 0.91239  0.90260  0.50959  Biso   1.000  H
  C1143    1.0000 0.25452  0.35900  0.36979  Biso   1.000  C
  C1144    1.0000 0.23959  0.40543  0.37029  Biso   1.000  C
  C1145    1.0000 0.18567  0.36429  0.45065  Biso   1.000  C
  H1853    1.0000 0.27468  0.42412  0.43330  Biso   1.000  H
  H1854    1.0000 0.27111  0.43202  0.42298  Biso   1.000  H
  H1855    1.0000 0.89411  0.99071  0.44230  Biso   1.000  H
  N285     1.0000 0.79017  0.24750  0.45176  Biso   1.000  N
  H1856    1.0000 0.90813  0.15298  0.41791  Biso   1.000  H
  H1857    1.0000 0.81568  0.14171  0.41449  Biso   1.000  H
  C1146    1.0000 0.14883  0.39479  0.37340  Biso   1.000  C
  H1858    1.0000 0.28792  0.36940  0.34441  Biso   1.000  H
  H1859    1.0000 0.28349  0.29668  0.36269  Biso   1.000  H
  H1860    1.0000 0.28189  0.38811  0.34448  Biso   1.000  H
  H1861    1.0000 0.22967  0.46573  0.36440  Biso   1.000  H
  C1147    1.0000 0.10239  0.41193  0.42563  Biso   1.000  C
  N286     1.0000 0.17201  0.39451  0.49995  Biso   1.000  N
  H1862    1.0000 0.19912  0.30223  0.45168  Biso   1.000  H
  H1863    1.0000 0.82182  0.26399  0.46921  Biso   1.000  H
  H1864    1.0000 0.73669  0.25078  0.47100  Biso   1.000  H
  C1148    1.0000 0.76650  0.30791  0.41060  Biso   1.000  C
  H1865    1.0000 0.16152  0.33622  0.36401  Biso   1.000  H
  H1866    1.0000 0.10897  0.43619  0.35252  Biso   1.000  H
  H1867    1.0000 0.13190  0.35330  0.35991  Biso   1.000  H
  H1868    1.0000 0.12709  0.44841  0.35501  Biso   1.000  H
  H1869    1.0000 0.07331  0.47380  0.43309  Biso   1.000  H
  H1870    1.0000 0.05513  0.38831  0.43441  Biso   1.000  H
  H1871    1.0000 0.15311  0.45223  0.49948  Biso   1.000  H
  H1872    1.0000 0.22738  0.37102  0.51019  Biso   1.000  H
  C1149    1.0000 0.10310  0.37319  0.53443  Biso   1.000  C
  H1873    1.0000 0.82492  0.30320  0.38861  Biso   1.000  H
  C1150    1.0000 0.70402  0.29039  0.38279  Biso   1.000  C
  C1151    1.0000 0.71219  0.39848  0.42845  Biso   1.000  C
  C1152    1.0000 0.09626  0.40302  0.58352  Biso   1.000  C
  H1874    1.0000 0.04160  0.40089  0.52462  Biso   1.000  H
  H1875    1.0000 0.12201  0.31068  0.53461  Biso   1.000  H
  H1876    1.0000 0.74124  0.24727  0.35730  Biso   1.000  H
  H1877    1.0000 0.66080  0.27031  0.40421  Biso   1.000  H
  C1153    1.0000 0.65187  0.37681  0.36183  Biso   1.000  C
  N287     1.0000 0.77201  0.44810  0.42148  Biso   1.000  N
  C1154    1.0000 0.62975  0.43697  0.40239  Biso   1.000  C
  H1878    1.0000 0.68789  0.39703  0.46329  Biso   1.000  H
  N288     1.0000 0.14166  0.45183  0.58612  Biso   1.000  N
  C1155    1.0000 0.04721  0.38060  0.62411  Biso   1.000  C
  H1879    1.0000 0.69130  0.38917  0.33370  Biso   1.000  H
  H1880    1.0000 0.59456  0.38012  0.35241  Biso   1.000  H
  H1881    1.0000 0.73848  0.49900  0.43701  Biso   1.000  H
  H1882    1.0000 0.82160  0.41891  0.43608  Biso   1.000  H
  C1156    1.0000 0.80809  0.46610  0.37133  Biso   1.000  C
  H1883    1.0000 0.57172  0.44193  0.42398  Biso   1.000  H
  H1884    1.0000 0.62204  0.49448  0.39011  Biso   1.000  H
  C1157    1.0000 0.13690  0.48161  0.62907  Biso   1.000  C
  C1158    1.0000 0.04298  0.41300  0.66751  Biso   1.000  C
  H1885    1.0000 0.01750  0.34400  0.62189  Biso   1.000  H
  H1886    1.0000 0.75538  0.49732  0.35452  Biso   1.000  H
  H1887    1.0000 0.84800  0.41149  0.35419  Biso   1.000  H
  C1159    1.0000 0.86309  0.51840  0.37094  Biso   1.000  C
  C1160    1.0000 0.19189  0.53390  0.62867  Biso   1.000  C
  C1161    1.0000 0.08730  0.46539  0.67023  Biso   1.000  C
  H1888    1.0000 0.00951  0.39918  0.69571  Biso   1.000  H
  N289     1.0000 0.85832  0.54818  0.41388  Biso   1.000  N
  C1162    1.0000 0.91269  0.53462  0.32978  Biso   1.000  C
  N290     1.0000 0.22798  0.55190  0.57852  Biso   1.000  N
  H1889    1.0000 0.24461  0.50268  0.64549  Biso   1.000  H
  H1890    1.0000 0.15199  0.58851  0.64581  Biso   1.000  H
  H1891    1.0000 0.08349  0.48951  0.69978  Biso   1.000  H
  C1163    1.0000 0.90373  0.59699  0.41649  Biso   1.000  C
  H1892    1.0000 0.91651  0.51050  0.30018  Biso   1.000  H
  C1164    1.0000 0.95701  0.58700  0.33249  Biso   1.000  C
  H1893    1.0000 0.26151  0.50101  0.56299  Biso   1.000  H
  H1894    1.0000 0.17839  0.58110  0.56388  Biso   1.000  H
  C1165    1.0000 0.28780  0.60153  0.57156  Biso   1.000  C
  C1166    1.0000 0.95278  0.61940  0.37590  Biso   1.000  C
  C1167    1.0000 0.89688  0.62681  0.46557  Biso   1.000  C
  H1895    1.0000 0.99048  0.60083  0.30429  Biso   1.000  H
  C1168    1.0000 0.23348  0.69210  0.58941  Biso   1.000  C
  C1169    1.0000 0.37033  0.56297  0.59762  Biso   1.000  C
  H1896    1.0000 0.31210  0.60298  0.53672  Biso   1.000  H
  H1897    1.0000 0.98249  0.65601  0.37811  Biso   1.000  H
  N291     1.0000 0.82798  0.60550  0.50006  Biso   1.000  N
  H1898    1.0000 0.95839  0.59911  0.47539  Biso   1.000  H
  H1899    1.0000 0.87797  0.68933  0.46539  Biso   1.000  H
  N292     1.0000 0.20982  0.75250  0.54825  Biso   1.000  N
  H1900    1.0000 0.17513  0.69680  0.61140  Biso   1.000  H
  C1170    1.0000 0.29597  0.70962  0.61722  Biso   1.000  C
  C1171    1.0000 0.34812  0.62319  0.63817  Biso   1.000  C
  H1901    1.0000 0.42834  0.55808  0.57598  Biso   1.000  H
  H1902    1.0000 0.37801  0.50553  0.60990  Biso   1.000  H
  H1903    1.0000 0.84689  0.54777  0.50048  Biso   1.000  H
  H1904    1.0000 0.77261  0.62898  0.48981  Biso   1.000  H
  C1172    1.0000 0.81431  0.63571  0.54935  Biso   1.000  C
  H1905    1.0000 0.17817  0.73602  0.53079  Biso   1.000  H
  H1906    1.0000 0.26330  0.74922  0.52901  Biso   1.000  H
  C1173    1.0000 0.15301  0.84178  0.56403  Biso   1.000  C
  H1907    1.0000 0.25884  0.75267  0.64270  Biso   1.000  H
  H1908    1.0000 0.33919  0.72970  0.59580  Biso   1.000  H
  H1909    1.0000 0.30871  0.61077  0.66630  Biso   1.000  H
  H1910    1.0000 0.40542  0.61988  0.64759  Biso   1.000  H
  H1911    1.0000 0.80094  0.69777  0.54828  Biso   1.000  H
  C1174    1.0000 0.89761  0.58808  0.57434  Biso   1.000  C
  C1175    1.0000 0.73221  0.62389  0.58066  Biso   1.000  C
  C1176    1.0000 0.13925  0.90077  0.52190  Biso   1.000  C
  H1912    1.0000 0.09192  0.84703  0.58209  Biso   1.000  H
  H1913    1.0000 0.18430  0.85829  0.58552  Biso   1.000  H
  H1914    1.0000 0.92668  0.52620  0.56692  Biso   1.000  H
  H1915    1.0000 0.94492  0.61170  0.56560  Biso   1.000  H
  C1177    1.0000 0.85122  0.60522  0.62660  Biso   1.000  C
  N293     1.0000 0.64372  0.70110  0.58105  Biso   1.000  N
  C1178    1.0000 0.76039  0.59458  0.62971  Biso   1.000  C
  H1916    1.0000 0.72530  0.57588  0.56670  Biso   1.000  H
  C1179    1.0000 0.74547  0.64101  0.63021  Biso   1.000  C
  H1917    1.0000 0.72889  0.56798  0.57698  Biso   1.000  H
  N294     1.0000 0.15140  0.86397  0.47942  Biso   1.000  N
  C1180    1.0000 0.11477  0.98613  0.52711  Biso   1.000  C
  H1918    1.0000 0.83853  0.66379  0.63599  Biso   1.000  H
  H1919    1.0000 0.89102  0.56381  0.64749  Biso   1.000  H
  H1920    1.0000 0.86809  0.64671  0.64010  Biso   1.000  H
  H1921    1.0000 0.87289  0.55159  0.64499  Biso   1.000  H
  C1181    1.0000 0.55918  0.69492  0.60761  Biso   1.000  C
  H1922    1.0000 0.64948  0.74520  0.59351  Biso   1.000  H
  H1923    1.0000 0.63608  0.71459  0.55032  Biso   1.000  H
  H1924    1.0000 0.71212  0.63061  0.65559  Biso   1.000  H
  H1925    1.0000 0.77032  0.53428  0.63560  Biso   1.000  H
  H1926    1.0000 0.71811  0.61190  0.65548  Biso   1.000  H
  H1927    1.0000 0.71650  0.70333  0.63731  Biso   1.000  H
  C1182    1.0000 0.13952  0.91470  0.44148  Biso   1.000  C
  C1183    1.0000 0.10301  0.03818  0.48763  Biso   1.000  C
  H1928    1.0000 0.10588  0.00929  0.55771  Biso   1.000  H
  C1184    1.0000 0.47590  0.77850  0.60626  Biso   1.000  C
  H1929    1.0000 0.56631  0.67948  0.64110  Biso   1.000  H
  H1930    1.0000 0.54969  0.64928  0.59340  Biso   1.000  H
  C1185    1.0000 0.15121  0.87288  0.39478  Biso   1.000  C
  C1186    1.0000 0.11408  0.00278  0.44415  Biso   1.000  C
  H1931    1.0000 0.08760  0.09740  0.49042  Biso   1.000  H
  N295     1.0000 0.46459  0.81022  0.56253  Biso   1.000  N
  C1187    1.0000 0.41664  0.81867  0.64674  Biso   1.000  C
  N296     1.0000 0.21700  0.78130  0.39371  Biso   1.000  N
  H1932    1.0000 0.17460  0.90320  0.36829  Biso   1.000  H
  H1933    1.0000 0.09013  0.87757  0.39000  Biso   1.000  H
  H1934    1.0000 0.10468  0.03730  0.41642  Biso   1.000  H
  C1188    1.0000 0.38928  0.88299  0.55874  Biso   1.000  C
  C1189    1.0000 0.33971  0.89412  0.64256  Biso   1.000  C
  H1935    1.0000 0.42784  0.79528  0.67729  Biso   1.000  H
  H1936    1.0000 0.19435  0.75313  0.41741  Biso   1.000  H
  H1937    1.0000 0.27250  0.77687  0.39921  Biso   1.000  H
  C1190    1.0000 0.23121  0.74057  0.34713  Biso   1.000  C
  C1191    1.0000 0.37558  0.91401  0.50902  Biso   1.000  C
  C1192    1.0000 0.32710  0.92710  0.59755  Biso   1.000  C
  H1938    1.0000 0.29671  0.92250  0.67008  Biso   1.000  H
  C1193    1.0000 0.30932  0.65099  0.34120  Biso   1.000  C
  C1194    1.0000 0.14412  0.72890  0.34038  Biso   1.000  C
  H1939    1.0000 0.24530  0.77747  0.32089  Biso   1.000  H
  N297     1.0000 0.46311  0.87460  0.47482  Biso   1.000  N
  H1940    1.0000 0.35368  0.97691  0.50802  Biso   1.000  H
  H1941    1.0000 0.32747  0.89951  0.49998  Biso   1.000  H
  H1942    1.0000 0.27611  0.97950  0.59358  Biso   1.000  H
  N298     1.0000 0.40191  0.65312  0.32713  Biso   1.000  N
  H1943    1.0000 0.30719  0.61950  0.37201  Biso   1.000  H
  C1195    1.0000 0.28387  0.60983  0.30400  Biso   1.000  C
  C1196    1.0000 0.17917  0.63972  0.32099  Biso   1.000  C
  H1944    1.0000 0.11102  0.77157  0.31771  Biso   1.000  H
  H1945    1.0000 0.10120  0.73572  0.37119  Biso   1.000  H
  C1197    1.0000 0.18090  0.66091  0.30240  Biso   1.000  C
  H1946    1.0000 0.09742  0.78278  0.32981  Biso   1.000  H
  H1947    1.0000 0.11560  0.71023  0.37040  Biso   1.000  H
  C1198    1.0000 0.45432  0.89253  0.42388  Biso   1.000  C
  H1948    1.0000 0.50451  0.89343  0.48149  Biso   1.000  H
  H1949    1.0000 0.48683  0.81710  0.47921  Biso   1.000  H
  H1950    1.0000 0.39999  0.68971  0.30222  Biso   1.000  H
  H1951    1.0000 0.41390  0.67452  0.35202  Biso   1.000  H
  C1199    1.0000 0.48050  0.56820  0.31311  Biso   1.000  C
  H1952    1.0000 0.29810  0.63071  0.27152  Biso   1.000  H
  H1953    1.0000 0.31639  0.54668  0.30440  Biso   1.000  H
  H1954    1.0000 0.32177  0.61022  0.27230  Biso   1.000  H
  H1955    1.0000 0.29598  0.54981  0.31271  Biso   1.000  H
  H1956    1.0000 0.16631  0.60148  0.34630  Biso   1.000  H
  H1957    1.0000 0.14848  0.63983  0.29419  Biso   1.000  H
  H1958    1.0000 0.14743  0.62328  0.30879  Biso   1.000  H
  H1959    1.0000 0.17267  0.68722  0.27059  Biso   1.000  H
  C1200    1.0000 0.55073  0.85230  0.39182  Biso   1.000  C
  H1960    1.0000 0.41269  0.86819  0.41531  Biso   1.000  H
  C1201    1.0000 0.41670  0.98797  0.41277  Biso   1.000  C
  C1202    1.0000 0.56898  0.58022  0.29847  Biso   1.000  C
  H1961    1.0000 0.46860  0.54372  0.28619  Biso   1.000  H
  H1962    1.0000 0.48578  0.52831  0.34031  Biso   1.000  H
  N299     1.0000 0.55720  0.78067  0.36308  Biso   1.000  N
  C1203    1.0000 0.56278  0.92447  0.36066  Biso   1.000  C
  H1963    1.0000 0.59946  0.82992  0.41231  Biso   1.000  H
  C1204    1.0000 0.46319  0.99167  0.36340  Biso   1.000  C
  C1205    1.0000 0.49630  0.00592  0.38850  Biso   1.000  C
  H1964    1.0000 0.43270  0.01899  0.43480  Biso   1.000  H
  H1965    1.0000 0.34842  0.01277  0.41520  Biso   1.000  H
  H1966    1.0000 0.38710  0.02180  0.44262  Biso   1.000  H
  H1967    1.0000 0.36993  0.00307  0.39189  Biso   1.000  H
  N300     1.0000 0.57437  0.64152  0.32239  Biso   1.000  N
  C1206    1.0000 0.63950  0.53192  0.26359  Biso   1.000  C
  C1207    1.0000 0.65058  0.72810  0.33692  Biso   1.000  C
  H1968    1.0000 0.51820  0.80279  0.34170  Biso   1.000  H
  H1969    1.0000 0.53662  0.74609  0.38300  Biso   1.000  H
  H1970    1.0000 0.59180  0.90498  0.32738  Biso   1.000  H
  H1971    1.0000 0.60121  0.94711  0.37351  Biso   1.000  H
  H1972    1.0000 0.54629  0.92460  0.32899  Biso   1.000  H
  H1973    1.0000 0.62760  0.91868  0.35601  Biso   1.000  H
  H1974    1.0000 0.43220  0.97827  0.34041  Biso   1.000  H
  H1975    1.0000 0.46221  0.04909  0.35619  Biso   1.000  H
  H1976    1.0000 0.47602  0.05498  0.36662  Biso   1.000  H
  H1977    1.0000 0.52652  0.01887  0.41199  Biso   1.000  H
  C1208    1.0000 0.65072  0.65758  0.30964  Biso   1.000  C
  C1209    1.0000 0.71682  0.54862  0.25131  Biso   1.000  C
  H1978    1.0000 0.63491  0.48742  0.24810  Biso   1.000  H
  H1979    1.0000 0.67331  0.76471  0.31460  Biso   1.000  H
  H1980    1.0000 0.69379  0.70338  0.35991  Biso   1.000  H
  C1210    1.0000 0.72134  0.61368  0.27416  Biso   1.000  C
  H1981    1.0000 0.76673  0.51567  0.22729  Biso   1.000  H
  H1982    1.0000 0.77329  0.62779  0.26520  Biso   1.000  H
  C1211    1.0000 0.27871  0.38632  0.72584  Biso   1.000  C
  C1212    1.0000 0.34927  0.34243  0.69036  Biso   1.000  C
  H1983    1.0000 0.22669  0.37222  0.73480  Biso   1.000  H
  C1213    1.0000 0.28323  0.45138  0.74869  Biso   1.000  C
  C1214    1.0000 0.34941  0.27190  0.66309  Biso   1.000  C
  N301     1.0000 0.42561  0.35848  0.67762  Biso   1.000  N
  C1215    1.0000 0.36050  0.46808  0.73637  Biso   1.000  C
  H1984    1.0000 0.23328  0.48427  0.77272  Biso   1.000  H
  N302     1.0000 0.44280  0.21933  0.63688  Biso   1.000  N
  H1985    1.0000 0.32668  0.23529  0.68540  Biso   1.000  H
  H1986    1.0000 0.30620  0.29663  0.64010  Biso   1.000  H
  C1216    1.0000 0.43101  0.41979  0.70153  Biso   1.000  C
  H1987    1.0000 0.36507  0.51259  0.75190  Biso   1.000  H
  C1217    1.0000 0.44932  0.14771  0.60818  Biso   1.000  C
  H1988    1.0000 0.48178  0.19721  0.65830  Biso   1.000  H
  H1989    1.0000 0.46342  0.25391  0.61700  Biso   1.000  H
  C1218    1.0000 0.51949  0.43180  0.68690  Biso   1.000  C
  C1219    1.0000 0.54573  0.10748  0.57613  Biso   1.000  C
  C1220    1.0000 0.43723  0.07547  0.63935  Biso   1.000  C
  H1990    1.0000 0.40053  0.17009  0.58769  Biso   1.000  H
  N303     1.0000 0.59807  0.34689  0.67287  Biso   1.000  N
  H1991    1.0000 0.53139  0.45628  0.71381  Biso   1.000  H
  H1992    1.0000 0.51421  0.47169  0.65970  Biso   1.000  H
  N304     1.0000 0.53687  0.12541  0.52519  Biso   1.000  N
  C1221    1.0000 0.58332  0.01197  0.58723  Biso   1.000  C
  H1993    1.0000 0.58730  0.13181  0.58469  Biso   1.000  H
  C1222    1.0000 0.50368  0.99409  0.61150  Biso   1.000  C
  C1223    1.0000 0.53682  0.00827  0.63660  Biso   1.000  C
  H1994    1.0000 0.40820  0.09502  0.67258  Biso   1.000  H
  H1995    1.0000 0.39878  0.05289  0.62650  Biso   1.000  H
  H1996    1.0000 0.45369  0.07540  0.67101  Biso   1.000  H
  H1997    1.0000 0.37238  0.08132  0.64399  Biso   1.000  H
  H1998    1.0000 0.60000  0.31030  0.69779  Biso   1.000  H
  H1999    1.0000 0.58608  0.32549  0.64799  Biso   1.000  H
  C1224    1.0000 0.69072  0.34901  0.65880  Biso   1.000  C
  C1225    1.0000 0.62442  0.08599  0.49095  Biso   1.000  C
  H2000    1.0000 0.49554  0.10658  0.51851  Biso   1.000  H
  H2001    1.0000 0.51322  0.18291  0.52080  Biso   1.000  H
  H2002    1.0000 0.56729  0.98102  0.56520  Biso   1.000  H
  H2003    1.0000 0.65160  0.98717  0.58480  Biso   1.000  H
  H2004    1.0000 0.61289  0.97821  0.55739  Biso   1.000  H
  H2005    1.0000 0.63008  0.99687  0.60811  Biso   1.000  H
  H2006    1.0000 0.53777  0.95092  0.64381  Biso   1.000  H
  H2007    1.0000 0.52397  0.94502  0.63339  Biso   1.000  H
  H2008    1.0000 0.47347  0.98113  0.58801  Biso   1.000  H
  H2009    1.0000 0.56782  0.02167  0.65959  Biso   1.000  H
  C1226    1.0000 0.71612  0.39017  0.69600  Biso   1.000  C
  H2010    1.0000 0.69280  0.38051  0.62800  Biso   1.000  H
  C1227    1.0000 0.76881  0.25937  0.65288  Biso   1.000  C
  C1228    1.0000 0.61072  0.11702  0.44123  Biso   1.000  C
  H2011    1.0000 0.64630  0.02310  0.49199  Biso   1.000  H
  H2012    1.0000 0.67253  0.10049  0.49998  Biso   1.000  H
  H2013    1.0000 0.70189  0.36929  0.72849  Biso   1.000  H
  H2014    1.0000 0.68359  0.45333  0.69561  Biso   1.000  H
  C1229    1.0000 0.82081  0.36028  0.67901  Biso   1.000  C
  H2015    1.0000 0.67822  0.38979  0.72770  Biso   1.000  H
  H2016    1.0000 0.70400  0.45020  0.68729  Biso   1.000  H
  C1230    1.0000 0.81909  0.33910  0.69761  Biso   1.000  C
  C1231    1.0000 0.85586  0.27111  0.65962  Biso   1.000  C
  N305     1.0000 0.78299  0.21871  0.60629  Biso   1.000  N
  H2017    1.0000 0.75472  0.22247  0.67912  Biso   1.000  H
  N306     1.0000 0.53539  0.18979  0.43748  Biso   1.000  N
  C1232    1.0000 0.67289  0.07291  0.40246  Biso   1.000  C
  H2018    1.0000 0.83367  0.39853  0.65370  Biso   1.000  H
  H2019    1.0000 0.85150  0.36017  0.70582  Biso   1.000  H
  H2020    1.0000 0.85256  0.37673  0.69122  Biso   1.000  H
  H2021    1.0000 0.82732  0.31278  0.72941  Biso   1.000  H
  H2022    1.0000 0.88899  0.22837  0.68229  Biso   1.000  H
  H2023    1.0000 0.89879  0.26429  0.62882  Biso   1.000  H
  H2024    1.0000 0.90257  0.21723  0.67019  Biso   1.000  H
  H2025    1.0000 0.88438  0.28977  0.62960  Biso   1.000  H
  H2026    1.0000 0.80563  0.24687  0.58259  Biso   1.000  H
  H2027    1.0000 0.72752  0.22307  0.60079  Biso   1.000  H
  C1233    1.0000 0.84878  0.12712  0.60522  Biso   1.000  C
  C1234    1.0000 0.52409  0.22150  0.39375  Biso   1.000  C
  C1235    1.0000 0.66028  0.10589  0.35744  Biso   1.000  C
  H2028    1.0000 0.72389  0.02051  0.40638  Biso   1.000  H
  H2029    1.0000 0.82539  0.09681  0.63171  Biso   1.000  H
  H2030    1.0000 0.90988  0.12237  0.61000  Biso   1.000  H
  C1236    1.0000 0.86048  0.08531  0.55849  Biso   1.000  C
  C1237    1.0000 0.44081  0.30508  0.39239  Biso   1.000  C
  C1238    1.0000 0.58344  0.18127  0.35327  Biso   1.000  C
  H2031    1.0000 0.70329  0.07751  0.32988  Biso   1.000  H
  C1239    1.0000 0.88591  0.99723  0.55585  Biso   1.000  C
  N307     1.0000 0.84862  0.13597  0.52058  Biso   1.000  N
  N308     1.0000 0.35626  0.29891  0.41895  Biso   1.000  N
  H2032    1.0000 0.43367  0.32053  0.35891  Biso   1.000  H
  H2033    1.0000 0.45029  0.35073  0.40660  Biso   1.000  H
  H2034    1.0000 0.57221  0.20472  0.32271  Biso   1.000  H
  H2035    1.0000 0.89531  0.96270  0.58359  Biso   1.000  H
  C1240    1.0000 0.89697  0.96182  0.51237  Biso   1.000  C
  C1241    1.0000 0.86083  0.09917  0.47810  Biso   1.000  C
  C1242    1.0000 0.26778  0.37612  0.41934  Biso   1.000  C
  H2036    1.0000 0.35051  0.25481  0.40649  Biso   1.000  H
  H2037    1.0000 0.36390  0.28542  0.44969  Biso   1.000  H
  H2038    1.0000 0.91239  0.90260  0.50959  Biso   1.000  H
  C1243    1.0000 0.88521  0.01388  0.47289  Biso   1.000  C
  C1244    1.0000 0.84698  0.15823  0.43598  Biso   1.000  C
  C1245    1.0000 0.23959  0.40543  0.37029  Biso   1.000  C
  C1246    1.0000 0.25452  0.35900  0.36979  Biso   1.000  C
  C1247    1.0000 0.18567  0.36429  0.45065  Biso   1.000  C
  H2039    1.0000 0.27468  0.42412  0.43330  Biso   1.000  H
  H2040    1.0000 0.27111  0.43202  0.42298  Biso   1.000  H
  H2041    1.0000 0.89411  0.99071  0.44230  Biso   1.000  H
  N309     1.0000 0.79017  0.24750  0.45176  Biso   1.000  N
  H2042    1.0000 0.90813  0.15298  0.41791  Biso   1.000  H
  H2043    1.0000 0.81568  0.14171  0.41449  Biso   1.000  H
  C1248    1.0000 0.14883  0.39479  0.37340  Biso   1.000  C
  H2044    1.0000 0.28792  0.36940  0.34441  Biso   1.000  H
  H2045    1.0000 0.22967  0.46573  0.36440  Biso   1.000  H
  H2046    1.0000 0.28189  0.38811  0.34448  Biso   1.000  H
  H2047    1.0000 0.28349  0.29668  0.36269  Biso   1.000  H
  C1249    1.0000 0.10239  0.41193  0.42563  Biso   1.000  C
  N310     1.0000 0.17201  0.39451  0.49995  Biso   1.000  N
  H2048    1.0000 0.19912  0.30223  0.45168  Biso   1.000  H
  H2049    1.0000 0.82182  0.26399  0.46921  Biso   1.000  H
  H2050    1.0000 0.73669  0.25078  0.47100  Biso   1.000  H
  C1250    1.0000 0.76650  0.30791  0.41060  Biso   1.000  C
  H2051    1.0000 0.16152  0.33622  0.36401  Biso   1.000  H
  H2052    1.0000 0.10897  0.43619  0.35252  Biso   1.000  H
  H2053    1.0000 0.13190  0.35330  0.35991  Biso   1.000  H
  H2054    1.0000 0.12709  0.44841  0.35501  Biso   1.000  H
  H2055    1.0000 0.07331  0.47380  0.43309  Biso   1.000  H
  H2056    1.0000 0.05513  0.38831  0.43441  Biso   1.000  H
  H2057    1.0000 0.15311  0.45223  0.49948  Biso   1.000  H
  H2058    1.0000 0.22738  0.37102  0.51019  Biso   1.000  H
  C1251    1.0000 0.10310  0.37319  0.53443  Biso   1.000  C
  H2059    1.0000 0.82492  0.30320  0.38861  Biso   1.000  H
  C1252    1.0000 0.70402  0.29039  0.38279  Biso   1.000  C
  C1253    1.0000 0.71219  0.39848  0.42845  Biso   1.000  C
  C1254    1.0000 0.09626  0.40302  0.58352  Biso   1.000  C
  H2060    1.0000 0.04160  0.40089  0.52462  Biso   1.000  H
  H2061    1.0000 0.12201  0.31068  0.53461  Biso   1.000  H
  H2062    1.0000 0.74124  0.24727  0.35730  Biso   1.000  H
  H2063    1.0000 0.66080  0.27031  0.40421  Biso   1.000  H
  C1255    1.0000 0.65187  0.37681  0.36183  Biso   1.000  C
  N311     1.0000 0.77201  0.44810  0.42148  Biso   1.000  N
  C1256    1.0000 0.62975  0.43697  0.40239  Biso   1.000  C
  H2064    1.0000 0.68789  0.39703  0.46329  Biso   1.000  H
  N312     1.0000 0.14166  0.45183  0.58612  Biso   1.000  N
  C1257    1.0000 0.04721  0.38060  0.62411  Biso   1.000  C
  H2065    1.0000 0.69130  0.38917  0.33370  Biso   1.000  H
  H2066    1.0000 0.59456  0.38012  0.35241  Biso   1.000  H
  H2067    1.0000 0.73848  0.49900  0.43701  Biso   1.000  H
  H2068    1.0000 0.82160  0.41891  0.43608  Biso   1.000  H
  C1258    1.0000 0.80809  0.46610  0.37133  Biso   1.000  C
  H2069    1.0000 0.57172  0.44193  0.42398  Biso   1.000  H
  H2070    1.0000 0.62204  0.49448  0.39011  Biso   1.000  H
  C1259    1.0000 0.13690  0.48161  0.62907  Biso   1.000  C
  C1260    1.0000 0.04298  0.41300  0.66751  Biso   1.000  C
  H2071    1.0000 0.01750  0.34400  0.62189  Biso   1.000  H
  H2072    1.0000 0.75538  0.49732  0.35452  Biso   1.000  H
  H2073    1.0000 0.84800  0.41149  0.35419  Biso   1.000  H
  C1261    1.0000 0.86309  0.51840  0.37094  Biso   1.000  C
  C1262    1.0000 0.19189  0.53390  0.62867  Biso   1.000  C
  C1263    1.0000 0.08730  0.46539  0.67023  Biso   1.000  C
  H2074    1.0000 0.00951  0.39918  0.69571  Biso   1.000  H
  N313     1.0000 0.85832  0.54818  0.41388  Biso   1.000  N
  C1264    1.0000 0.91269  0.53462  0.32978  Biso   1.000  C
  N314     1.0000 0.22798  0.55190  0.57852  Biso   1.000  N
  H2075    1.0000 0.24461  0.50268  0.64549  Biso   1.000  H
  H2076    1.0000 0.15199  0.58851  0.64581  Biso   1.000  H
  H2077    1.0000 0.08349  0.48951  0.69978  Biso   1.000  H
  C1265    1.0000 0.90373  0.59699  0.41649  Biso   1.000  C
  H2078    1.0000 0.91651  0.51050  0.30018  Biso   1.000  H
  C1266    1.0000 0.95701  0.58700  0.33249  Biso   1.000  C
  H2079    1.0000 0.26151  0.50101  0.56299  Biso   1.000  H
  H2080    1.0000 0.17839  0.58110  0.56388  Biso   1.000  H
  C1267    1.0000 0.28780  0.60153  0.57156  Biso   1.000  C
  C1268    1.0000 0.95278  0.61940  0.37590  Biso   1.000  C
  C1269    1.0000 0.89688  0.62681  0.46557  Biso   1.000  C
  H2081    1.0000 0.99048  0.60083  0.30429  Biso   1.000  H
  C1270    1.0000 0.23348  0.69210  0.58941  Biso   1.000  C
  C1271    1.0000 0.37033  0.56297  0.59762  Biso   1.000  C
  H2082    1.0000 0.31210  0.60298  0.53672  Biso   1.000  H
  H2083    1.0000 0.98249  0.65601  0.37811  Biso   1.000  H
  N315     1.0000 0.82798  0.60550  0.50006  Biso   1.000  N
  H2084    1.0000 0.95839  0.59911  0.47539  Biso   1.000  H
  H2085    1.0000 0.87797  0.68933  0.46539  Biso   1.000  H
  N316     1.0000 0.20982  0.75250  0.54825  Biso   1.000  N
  H2086    1.0000 0.17513  0.69680  0.61140  Biso   1.000  H
  C1272    1.0000 0.29597  0.70962  0.61722  Biso   1.000  C
  C1273    1.0000 0.34812  0.62319  0.63817  Biso   1.000  C
  H2087    1.0000 0.42834  0.55808  0.57598  Biso   1.000  H
  H2088    1.0000 0.37801  0.50553  0.60990  Biso   1.000  H
  H2089    1.0000 0.84689  0.54777  0.50048  Biso   1.000  H
  H2090    1.0000 0.77261  0.62898  0.48981  Biso   1.000  H
  C1274    1.0000 0.81431  0.63571  0.54935  Biso   1.000  C
  H2091    1.0000 0.17817  0.73602  0.53079  Biso   1.000  H
  H2092    1.0000 0.26330  0.74922  0.52901  Biso   1.000  H
  C1275    1.0000 0.15301  0.84178  0.56403  Biso   1.000  C
  H2093    1.0000 0.25884  0.75267  0.64270  Biso   1.000  H
  H2094    1.0000 0.33919  0.72970  0.59580  Biso   1.000  H
  H2095    1.0000 0.30871  0.61077  0.66630  Biso   1.000  H
  H2096    1.0000 0.40542  0.61988  0.64759  Biso   1.000  H
  C1276    1.0000 0.73221  0.62389  0.58066  Biso   1.000  C
  H2097    1.0000 0.80094  0.69777  0.54828  Biso   1.000  H
  C1277    1.0000 0.89761  0.58808  0.57434  Biso   1.000  C
  C1278    1.0000 0.13925  0.90077  0.52190  Biso   1.000  C
  H2098    1.0000 0.09192  0.84703  0.58209  Biso   1.000  H
  H2099    1.0000 0.18430  0.85829  0.58552  Biso   1.000  H
  N317     1.0000 0.64372  0.70110  0.58105  Biso   1.000  N
  C1279    1.0000 0.76039  0.59458  0.62971  Biso   1.000  C
  H2100    1.0000 0.72530  0.57588  0.56670  Biso   1.000  H
  C1280    1.0000 0.74547  0.64101  0.63021  Biso   1.000  C
  H2101    1.0000 0.72889  0.56798  0.57698  Biso   1.000  H
  C1281    1.0000 0.85122  0.60522  0.62660  Biso   1.000  C
  H2102    1.0000 0.92668  0.52620  0.56692  Biso   1.000  H
  H2103    1.0000 0.94492  0.61170  0.56560  Biso   1.000  H
  N318     1.0000 0.15140  0.86397  0.47942  Biso   1.000  N
  C1282    1.0000 0.11477  0.98613  0.52711  Biso   1.000  C
  C1283    1.0000 0.55918  0.69492  0.60761  Biso   1.000  C
  H2104    1.0000 0.64948  0.74520  0.59351  Biso   1.000  H
  H2105    1.0000 0.63608  0.71459  0.55032  Biso   1.000  H
  H2106    1.0000 0.71212  0.63061  0.65559  Biso   1.000  H
  H2107    1.0000 0.77032  0.53428  0.63560  Biso   1.000  H
  H2108    1.0000 0.71811  0.61190  0.65548  Biso   1.000  H
  H2109    1.0000 0.71650  0.70333  0.63731  Biso   1.000  H
  H2110    1.0000 0.83853  0.66379  0.63599  Biso   1.000  H
  H2111    1.0000 0.89102  0.56381  0.64749  Biso   1.000  H
  H2112    1.0000 0.86809  0.64671  0.64010  Biso   1.000  H
  H2113    1.0000 0.87289  0.55159  0.64499  Biso   1.000  H
  C1284    1.0000 0.13952  0.91470  0.44148  Biso   1.000  C
  C1285    1.0000 0.10301  0.03818  0.48763  Biso   1.000  C
  H2114    1.0000 0.10588  0.00929  0.55771  Biso   1.000  H
  C1286    1.0000 0.47590  0.77850  0.60626  Biso   1.000  C
  H2115    1.0000 0.56631  0.67948  0.64110  Biso   1.000  H
  H2116    1.0000 0.54969  0.64928  0.59340  Biso   1.000  H
  C1287    1.0000 0.15121  0.87288  0.39478  Biso   1.000  C
  C1288    1.0000 0.11408  0.00278  0.44415  Biso   1.000  C
  H2117    1.0000 0.08760  0.09740  0.49042  Biso   1.000  H
  N319     1.0000 0.46459  0.81022  0.56253  Biso   1.000  N
  C1289    1.0000 0.41664  0.81867  0.64674  Biso   1.000  C
  N320     1.0000 0.21700  0.78130  0.39371  Biso   1.000  N
  H2118    1.0000 0.17460  0.90320  0.36829  Biso   1.000  H
  H2119    1.0000 0.09013  0.87757  0.39000  Biso   1.000  H
  H2120    1.0000 0.10468  0.03730  0.41642  Biso   1.000  H
  C1290    1.0000 0.38928  0.88299  0.55874  Biso   1.000  C
  C1291    1.0000 0.33971  0.89412  0.64256  Biso   1.000  C
  H2121    1.0000 0.42784  0.79528  0.67729  Biso   1.000  H
  H2122    1.0000 0.19435  0.75313  0.41741  Biso   1.000  H
  H2123    1.0000 0.27250  0.77687  0.39921  Biso   1.000  H
  C1292    1.0000 0.23121  0.74057  0.34713  Biso   1.000  C
  C1293    1.0000 0.37558  0.91401  0.50902  Biso   1.000  C
  C1294    1.0000 0.32710  0.92710  0.59755  Biso   1.000  C
  H2124    1.0000 0.29671  0.92250  0.67008  Biso   1.000  H
  C1295    1.0000 0.14412  0.72890  0.34038  Biso   1.000  C
  C1296    1.0000 0.30932  0.65099  0.34120  Biso   1.000  C
  H2125    1.0000 0.24530  0.77747  0.32089  Biso   1.000  H
  N321     1.0000 0.46311  0.87460  0.47482  Biso   1.000  N
  H2126    1.0000 0.35368  0.97691  0.50802  Biso   1.000  H
  H2127    1.0000 0.32747  0.89951  0.49998  Biso   1.000  H
  H2128    1.0000 0.27611  0.97950  0.59358  Biso   1.000  H
  C1297    1.0000 0.17917  0.63972  0.32099  Biso   1.000  C
  H2129    1.0000 0.11102  0.77157  0.31771  Biso   1.000  H
  H2130    1.0000 0.10120  0.73572  0.37119  Biso   1.000  H
  C1298    1.0000 0.18090  0.66091  0.30240  Biso   1.000  C
  H2131    1.0000 0.09742  0.78278  0.32981  Biso   1.000  H
  H2132    1.0000 0.11560  0.71023  0.37040  Biso   1.000  H
  C1299    1.0000 0.28387  0.60983  0.30400  Biso   1.000  C
  N322     1.0000 0.40191  0.65312  0.32713  Biso   1.000  N
  H2133    1.0000 0.30719  0.61950  0.37201  Biso   1.000  H
  C1300    1.0000 0.45432  0.89253  0.42388  Biso   1.000  C
  H2134    1.0000 0.50451  0.89343  0.48149  Biso   1.000  H
  H2135    1.0000 0.48683  0.81710  0.47921  Biso   1.000  H
  H2136    1.0000 0.16631  0.60148  0.34630  Biso   1.000  H
  H2137    1.0000 0.14848  0.63983  0.29419  Biso   1.000  H
  H2138    1.0000 0.14743  0.62328  0.30879  Biso   1.000  H
  H2139    1.0000 0.17267  0.68722  0.27059  Biso   1.000  H
  H2140    1.0000 0.29810  0.63071  0.27152  Biso   1.000  H
  H2141    1.0000 0.31639  0.54668  0.30440  Biso   1.000  H
  H2142    1.0000 0.32177  0.61022  0.27230  Biso   1.000  H
  H2143    1.0000 0.29598  0.54981  0.31271  Biso   1.000  H
  H2144    1.0000 0.39999  0.68971  0.30222  Biso   1.000  H
  H2145    1.0000 0.41390  0.67452  0.35202  Biso   1.000  H
  C1301    1.0000 0.48050  0.56820  0.31311  Biso   1.000  C
  C1302    1.0000 0.55073  0.85230  0.39182  Biso   1.000  C
  C1303    1.0000 0.41670  0.98797  0.41277  Biso   1.000  C
  H2146    1.0000 0.41269  0.86819  0.41531  Biso   1.000  H
  C1304    1.0000 0.56898  0.58022  0.29847  Biso   1.000  C
  H2147    1.0000 0.46860  0.54372  0.28619  Biso   1.000  H
  H2148    1.0000 0.48578  0.52831  0.34031  Biso   1.000  H
  N323     1.0000 0.55720  0.78067  0.36308  Biso   1.000  N
  C1305    1.0000 0.56278  0.92447  0.36066  Biso   1.000  C
  H2149    1.0000 0.59946  0.82992  0.41231  Biso   1.000  H
  C1306    1.0000 0.46319  0.99167  0.36340  Biso   1.000  C
  C1307    1.0000 0.49630  0.00592  0.38850  Biso   1.000  C
  H2150    1.0000 0.43270  0.01899  0.43480  Biso   1.000  H
  H2151    1.0000 0.34842  0.01277  0.41520  Biso   1.000  H
  H2152    1.0000 0.38710  0.02180  0.44262  Biso   1.000  H
  H2153    1.0000 0.36993  0.00307  0.39189  Biso   1.000  H
  N324     1.0000 0.57437  0.64152  0.32239  Biso   1.000  N
  C1308    1.0000 0.63950  0.53192  0.26359  Biso   1.000  C
  C1309    1.0000 0.65058  0.72810  0.33692  Biso   1.000  C
  H2154    1.0000 0.51820  0.80279  0.34170  Biso   1.000  H
  H2155    1.0000 0.53662  0.74609  0.38300  Biso   1.000  H
  H2156    1.0000 0.59180  0.90498  0.32738  Biso   1.000  H
  H2157    1.0000 0.60121  0.94711  0.37351  Biso   1.000  H
  H2158    1.0000 0.54629  0.92460  0.32899  Biso   1.000  H
  H2159    1.0000 0.62760  0.91868  0.35601  Biso   1.000  H
  H2160    1.0000 0.43220  0.97827  0.34041  Biso   1.000  H
  H2161    1.0000 0.46221  0.04909  0.35619  Biso   1.000  H
  H2162    1.0000 0.47602  0.05498  0.36662  Biso   1.000  H
  H2163    1.0000 0.52652  0.01887  0.41199  Biso   1.000  H
  C1310    1.0000 0.65072  0.65758  0.30964  Biso   1.000  C
  C1311    1.0000 0.71682  0.54862  0.25131  Biso   1.000  C
  H2164    1.0000 0.63491  0.48742  0.24810  Biso   1.000  H
  H2165    1.0000 0.67331  0.76471  0.31460  Biso   1.000  H
  H2166    1.0000 0.69379  0.70338  0.35991  Biso   1.000  H
  C1312    1.0000 0.72134  0.61368  0.27416  Biso   1.000  C
  H2167    1.0000 0.76673  0.51567  0.22729  Biso   1.000  H
  H2168    1.0000 0.77329  0.62779  0.26520  Biso   1.000  H
