data_image0
_cell_length_a       22.379
_cell_length_b       17.129
_cell_length_c       26.568
_cell_angle_alpha    90
_cell_angle_beta     90
_cell_angle_gamma    90

_symmetry_space_group_name_H-M    "P 1"
_symmetry_int_tables_number       1

loop_
  _symmetry_equiv_pos_as_xyz
  'x, y, z'

loop_
  _atom_site_label
  _atom_site_occupancy
  _atom_site_fract_x
  _atom_site_fract_y
  _atom_site_fract_z
  _atom_site_thermal_displace_type
  _atom_site_B_iso_or_equiv
  _atom_site_type_symbol
  O1       1.0000 0.25622  0.43423  0.74560  Biso   1.000  O
  S1       1.0000 0.22959  0.44025  0.79445  Biso   1.000  S
  C1       1.0000 0.26069  0.36161  0.83074  Biso   1.000  C
  O2       1.0000 0.23723  0.50978  0.82347  Biso   1.000  O
  C2       1.0000 0.15349  0.42110  0.78888  Biso   1.000  C
  C3       1.0000 0.28272  0.29301  0.80766  Biso   1.000  C
  N1       1.0000 0.26279  0.37550  0.87959  Biso   1.000  N
  C4       1.0000 0.13222  0.36791  0.75218  Biso   1.000  C
  C5       1.0000 0.11278  0.46121  0.81967  Biso   1.000  C
  C6       1.0000 0.28500  0.26551  0.75410  Biso   1.000  C
  C7       1.0000 0.31270  0.24240  0.83936  Biso   1.000  C
  N2       1.0000 0.29282  0.32722  0.90997  Biso   1.000  N
  H1       1.0000 0.15939  0.34059  0.73250  Biso   1.000  H
  C8       1.0000 0.07360  0.35612  0.74530  Biso   1.000  C
  C9       1.0000 0.05268  0.45070  0.81244  Biso   1.000  C
  H2       1.0000 0.12650  0.49460  0.84470  Biso   1.000  H
  H3       1.0000 0.24608  0.26908  0.73818  Biso   1.000  H
  H4       1.0000 0.31369  0.29529  0.73472  Biso   1.000  H
  C10      1.0000 0.30471  0.18040  0.75949  Biso   1.000  C
  C11      1.0000 0.33831  0.17479  0.80917  Biso   1.000  C
  C12      1.0000 0.31681  0.26242  0.89021  Biso   1.000  C
  H5       1.0000 0.06028  0.32121  0.72090  Biso   1.000  H
  C13      1.0000 0.03320  0.39658  0.77492  Biso   1.000  C
  C14      1.0000 0.00000  0.49180  0.83601  Biso   1.000  C
  H6       1.0000 0.33049  0.16568  0.73171  Biso   1.000  H
  H7       1.0000 0.27021  0.14613  0.75971  Biso   1.000  H
  H8       1.0000 0.38098  0.18080  0.80420  Biso   1.000  H
  H9       1.0000 0.33071  0.12523  0.82569  Biso   1.000  H
  S2       1.0000 0.36244  0.20912  0.93432  Biso   1.000  S
  C15      1.0000 0.96680  0.39658  0.77492  Biso   1.000  C
  C16      1.0000 0.00000  0.57960  0.81832  Biso   1.000  C
  C17      1.0000 0.00000  0.49022  0.89352  Biso   1.000  C
  C18      1.0000 0.94732  0.45070  0.81244  Biso   1.000  C
  O3       1.0000 0.38491  0.26411  0.97060  Biso   1.000  O
  O4       1.0000 0.40301  0.16522  0.90425  Biso   1.000  O
  C19      1.0000 0.31351  0.14402  0.96447  Biso   1.000  C
  C20      1.0000 0.92640  0.35612  0.74530  Biso   1.000  C
  H10      1.0000 0.03490  0.60511  0.83232  Biso   1.000  H
  C21      1.0000 0.00000  0.59233  0.76152  Biso   1.000  C
  H11      1.0000 0.96510  0.60511  0.83232  Biso   1.000  H
  H12      1.0000 0.03499  0.51801  0.90549  Biso   1.000  H
  C22      1.0000 0.00000  0.41059  0.91569  Biso   1.000  C
  H13      1.0000 0.96501  0.51801  0.90549  Biso   1.000  H
  C23      1.0000 0.88722  0.46121  0.81967  Biso   1.000  C
  C24      1.0000 0.28831  0.08308  0.93650  Biso   1.000  C
  C25      1.0000 0.30591  0.14910  0.01634  Biso   1.000  C
  C26      1.0000 0.86778  0.36791  0.75218  Biso   1.000  C
  H14      1.0000 0.93972  0.32121  0.72090  Biso   1.000  H
  H15      1.0000 0.03490  0.56652  0.74759  Biso   1.000  H
  C27      1.0000 0.00000  0.67529  0.74341  Biso   1.000  C
  H16      1.0000 0.96510  0.56652  0.74759  Biso   1.000  H
  H17      1.0000 0.03512  0.38222  0.90470  Biso   1.000  H
  C28      1.0000 0.00000  0.41888  0.97742  Biso   1.000  C
  H18      1.0000 0.96488  0.38222  0.90470  Biso   1.000  H
  C29      1.0000 0.84651  0.42110  0.78888  Biso   1.000  C
  H19      1.0000 0.87350  0.49460  0.84470  Biso   1.000  H
  H20      1.0000 0.29559  0.07969  0.90210  Biso   1.000  H
  C30      1.0000 0.25229  0.02750  0.96014  Biso   1.000  C
  C31      1.0000 0.27249  0.09218  0.03963  Biso   1.000  C
  H21      1.0000 0.32289  0.18968  0.03470  Biso   1.000  H
  H22      1.0000 0.84061  0.34059  0.73250  Biso   1.000  H
  H23      1.0000 0.02069  0.70751  0.76731  Biso   1.000  H
  H24      1.0000 0.01971  0.67832  0.71138  Biso   1.000  H
  H25      1.0000 0.04040  0.69333  0.74010  Biso   1.000  H
  H26      1.0000 0.97931  0.70751  0.76731  Biso   1.000  H
  H27      1.0000 0.98029  0.67832  0.71138  Biso   1.000  H
  H28      1.0000 0.95960  0.69333  0.74010  Biso   1.000  H
  H29      1.0000 0.02739  0.45928  0.98732  Biso   1.000  H
  H30      1.0000 0.01211  0.37031  0.99221  Biso   1.000  H
  H31      1.0000 0.03950  0.43202  0.98878  Biso   1.000  H
  H32      1.0000 0.97261  0.45928  0.98732  Biso   1.000  H
  H33      1.0000 0.98789  0.37031  0.99221  Biso   1.000  H
  H34      1.0000 0.96050  0.43202  0.98878  Biso   1.000  H
  S3       1.0000 0.77041  0.44025  0.79445  Biso   1.000  S
  H35      1.0000 0.23370  0.98832  0.94170  Biso   1.000  H
  C32      1.0000 0.24519  0.03228  0.01182  Biso   1.000  C
  C33      1.0000 0.26011  0.08179  0.09606  Biso   1.000  C
  O5       1.0000 0.76277  0.50978  0.82347  Biso   1.000  O
  O6       1.0000 0.74378  0.43423  0.74560  Biso   1.000  O
  C34      1.0000 0.73931  0.36161  0.83074  Biso   1.000  C
  C35      1.0000 0.21440  0.97869  0.04667  Biso   1.000  C
  C36      1.0000 0.22208  0.00882  0.09579  Biso   1.000  C
  C37      1.0000 0.22838  0.15302  0.11898  Biso   1.000  C
  C38      1.0000 0.31950  0.06650  0.12541  Biso   1.000  C
  N3       1.0000 0.73721  0.37550  0.87959  Biso   1.000  N
  C39      1.0000 0.71728  0.29301  0.80766  Biso   1.000  C
  C40      1.0000 0.18191  0.91120  0.03817  Biso   1.000  C
  C41      1.0000 0.19849  0.97023  0.13693  Biso   1.000  C
  H36      1.0000 0.25560  0.19709  0.11819  Biso   1.000  H
  H37      1.0000 0.21940  0.14192  0.15398  Biso   1.000  H
  C42      1.0000 0.17199  0.17573  0.09301  Biso   1.000  C
  C43      1.0000 0.35520  0.99650  0.10659  Biso   1.000  C
  H38      1.0000 0.30998  0.05850  0.16068  Biso   1.000  H
  H39      1.0000 0.34439  0.11279  0.12312  Biso   1.000  H
  N4       1.0000 0.70718  0.32722  0.90997  Biso   1.000  N
  C44      1.0000 0.68730  0.24240  0.83936  Biso   1.000  C
  C45      1.0000 0.71500  0.26551  0.75410  Biso   1.000  C
  C46      1.0000 0.15908  0.87121  0.07810  Biso   1.000  C
  H40      1.0000 0.17579  0.89328  0.00550  Biso   1.000  H
  C47      1.0000 0.16600  0.90081  0.12681  Biso   1.000  C
  H41      1.0000 0.20358  0.98879  0.16949  Biso   1.000  H
  H42      1.0000 0.18120  0.18880  0.05830  Biso   1.000  H
  H43      1.0000 0.14540  0.13101  0.09252  Biso   1.000  H
  C48      1.0000 0.13888  0.24502  0.11710  Biso   1.000  C
  H44      1.0000 0.33000  0.95049  0.10659  Biso   1.000  H
  C49      1.0000 0.41061  0.98161  0.14028  Biso   1.000  C
  H45      1.0000 0.36811  0.00601  0.07231  Biso   1.000  H
  C50      1.0000 0.68319  0.26242  0.89021  Biso   1.000  C
  C51      1.0000 0.66169  0.17479  0.80917  Biso   1.000  C
  H46      1.0000 0.75392  0.26908  0.73818  Biso   1.000  H
  H47      1.0000 0.68631  0.29529  0.73472  Biso   1.000  H
  C52      1.0000 0.69529  0.18040  0.75949  Biso   1.000  C
  H48      1.0000 0.13888  0.82427  0.07298  Biso   1.000  H
  S4       1.0000 0.13897  0.84804  0.17867  Biso   1.000  S
  H49      1.0000 0.15559  0.29301  0.10490  Biso   1.000  H
  H50      1.0000 0.09728  0.24257  0.10840  Biso   1.000  H
  H51      1.0000 0.14308  0.24257  0.15300  Biso   1.000  H
  H52      1.0000 0.43679  0.94518  0.12391  Biso   1.000  H
  H53      1.0000 0.39792  0.96048  0.17201  Biso   1.000  H
  H54      1.0000 0.43130  0.02989  0.14581  Biso   1.000  H
  S5       1.0000 0.63756  0.20912  0.93432  Biso   1.000  S
  H55      1.0000 0.61902  0.18080  0.80420  Biso   1.000  H
  H56      1.0000 0.66929  0.12523  0.82569  Biso   1.000  H
  H57      1.0000 0.66951  0.16568  0.73171  Biso   1.000  H
  H58      1.0000 0.72979  0.14613  0.75971  Biso   1.000  H
  O7       1.0000 0.15854  0.88540  0.22414  Biso   1.000  O
  O8       1.0000 0.15099  0.76642  0.17024  Biso   1.000  O
  C53      1.0000 0.05849  0.86100  0.17649  Biso   1.000  C
  O9       1.0000 0.61509  0.26411  0.97060  Biso   1.000  O
  O10      1.0000 0.59699  0.16522  0.90425  Biso   1.000  O
  C54      1.0000 0.68649  0.14402  0.96447  Biso   1.000  C
  N5       1.0000 0.03021  0.79713  0.16456  Biso   1.000  N
  C55      1.0000 0.03168  0.93053  0.18929  Biso   1.000  C
  C56      1.0000 0.71169  0.08308  0.93650  Biso   1.000  C
  C57      1.0000 0.69409  0.14910  0.01634  Biso   1.000  C
  N6       1.0000 0.96979  0.79713  0.16456  Biso   1.000  N
  C58      1.0000 0.96832  0.93053  0.18929  Biso   1.000  C
  C59      1.0000 0.05581  0.01039  0.20329  Biso   1.000  C
  H59      1.0000 0.70441  0.07969  0.90210  Biso   1.000  H
  C60      1.0000 0.74771  0.02750  0.96014  Biso   1.000  C
  C61      1.0000 0.72751  0.09218  0.03963  Biso   1.000  C
  H60      1.0000 0.67711  0.18968  0.03470  Biso   1.000  H
  C62      1.0000 0.94151  0.86100  0.17649  Biso   1.000  C
  C63      1.0000 0.94419  0.01039  0.20329  Biso   1.000  C
  H61      1.0000 0.07802  0.00811  0.23472  Biso   1.000  H
  H62      1.0000 0.08182  0.03047  0.17709  Biso   1.000  H
  C64      1.0000 0.00000  0.06089  0.20890  Biso   1.000  C
  H63      1.0000 0.76630  0.98832  0.94170  Biso   1.000  H
  C65      1.0000 0.75481  0.03228  0.01182  Biso   1.000  C
  C66      1.0000 0.73989  0.08179  0.09606  Biso   1.000  C
  S6       1.0000 0.86103  0.84804  0.17867  Biso   1.000  S
  H64      1.0000 0.92198  0.00811  0.23472  Biso   1.000  H
  H65      1.0000 0.91818  0.03047  0.17709  Biso   1.000  H
  H66      1.0000 0.00000  0.10129  0.18330  Biso   1.000  H
  H67      1.0000 0.00000  0.08588  0.24161  Biso   1.000  H
  C67      1.0000 0.78560  0.97869  0.04667  Biso   1.000  C
  C68      1.0000 0.77792  0.00882  0.09579  Biso   1.000  C
  C69      1.0000 0.77162  0.15302  0.11898  Biso   1.000  C
  C70      1.0000 0.68050  0.06650  0.12541  Biso   1.000  C
  O11      1.0000 0.84146  0.88540  0.22414  Biso   1.000  O
  O12      1.0000 0.84901  0.76642  0.17024  Biso   1.000  O
  C71      1.0000 0.83400  0.90081  0.12681  Biso   1.000  C
  C72      1.0000 0.81809  0.91120  0.03817  Biso   1.000  C
  C73      1.0000 0.80151  0.97023  0.13693  Biso   1.000  C
  H68      1.0000 0.74440  0.19709  0.11819  Biso   1.000  H
  H69      1.0000 0.78060  0.14192  0.15398  Biso   1.000  H
  C74      1.0000 0.82801  0.17573  0.09301  Biso   1.000  C
  C75      1.0000 0.64480  0.99650  0.10659  Biso   1.000  C
  H70      1.0000 0.69002  0.05850  0.16068  Biso   1.000  H
  H71      1.0000 0.65561  0.11279  0.12312  Biso   1.000  H
  C76      1.0000 0.84092  0.87121  0.07810  Biso   1.000  C
  H72      1.0000 0.82421  0.89328  0.00550  Biso   1.000  H
  H73      1.0000 0.79642  0.98879  0.16949  Biso   1.000  H
  H74      1.0000 0.81880  0.18880  0.05830  Biso   1.000  H
  H75      1.0000 0.85460  0.13101  0.09252  Biso   1.000  H
  C77      1.0000 0.86112  0.24502  0.11710  Biso   1.000  C
  H76      1.0000 0.67000  0.95049  0.10659  Biso   1.000  H
  C78      1.0000 0.58939  0.98161  0.14028  Biso   1.000  C
  H77      1.0000 0.63189  0.00601  0.07231  Biso   1.000  H
  H78      1.0000 0.86112  0.82427  0.07298  Biso   1.000  H
  H79      1.0000 0.84441  0.29301  0.10490  Biso   1.000  H
  H80      1.0000 0.90272  0.24257  0.10840  Biso   1.000  H
  H81      1.0000 0.85692  0.24257  0.15300  Biso   1.000  H
  H82      1.0000 0.56321  0.94518  0.12391  Biso   1.000  H
  H83      1.0000 0.60208  0.96048  0.17201  Biso   1.000  H
  H84      1.0000 0.56870  0.02989  0.14581  Biso   1.000  H
  C79      1.0000 0.30149  0.52980  0.63693  Biso   1.000  C
  C80      1.0000 0.27789  0.49121  0.59579  Biso   1.000  C
  C81      1.0000 0.33402  0.59922  0.62681  Biso   1.000  C
  H85      1.0000 0.29639  0.51118  0.66949  Biso   1.000  H
  C82      1.0000 0.23991  0.41818  0.59606  Biso   1.000  C
  C83      1.0000 0.28558  0.52128  0.54667  Biso   1.000  C
  C84      1.0000 0.34090  0.62882  0.57810  Biso   1.000  C
  S7       1.0000 0.36105  0.65194  0.67867  Biso   1.000  S
  C85      1.0000 0.22749  0.40779  0.53963  Biso   1.000  C
  C86      1.0000 0.27159  0.34701  0.61898  Biso   1.000  C
  C87      1.0000 0.18048  0.43348  0.62541  Biso   1.000  C
  C88      1.0000 0.25479  0.46769  0.51182  Biso   1.000  C
  C89      1.0000 0.31811  0.58883  0.53817  Biso   1.000  C
  H86      1.0000 0.36110  0.67570  0.57298  Biso   1.000  H
  O13      1.0000 0.34144  0.61457  0.72414  Biso   1.000  O
  O14      1.0000 0.34903  0.73361  0.67024  Biso   1.000  O
  C90      1.0000 0.44149  0.63897  0.67649  Biso   1.000  C
  C91      1.0000 0.19411  0.35093  0.51634  Biso   1.000  C
  H87      1.0000 0.24438  0.30288  0.61819  Biso   1.000  H
  H88      1.0000 0.28062  0.35811  0.65398  Biso   1.000  H
  C92      1.0000 0.32799  0.32430  0.59301  Biso   1.000  C
  H89      1.0000 0.19000  0.44147  0.66068  Biso   1.000  H
  H90      1.0000 0.15559  0.38718  0.62312  Biso   1.000  H
  C93      1.0000 0.14478  0.50347  0.60659  Biso   1.000  C
  C94      1.0000 0.24769  0.47247  0.46014  Biso   1.000  C
  H91      1.0000 0.32419  0.60669  0.50550  Biso   1.000  H
  N7       1.0000 0.46982  0.70290  0.66456  Biso   1.000  N
  C95      1.0000 0.46830  0.56950  0.68929  Biso   1.000  C
  C96      1.0000 0.18651  0.35600  0.46447  Biso   1.000  C
  H92      1.0000 0.17709  0.31029  0.53470  Biso   1.000  H
  H93      1.0000 0.31878  0.31123  0.55830  Biso   1.000  H
  H94      1.0000 0.35462  0.36902  0.59252  Biso   1.000  H
  C97      1.0000 0.36110  0.25501  0.61710  Biso   1.000  C
  H95      1.0000 0.16998  0.54948  0.60659  Biso   1.000  H
  H96      1.0000 0.13191  0.49402  0.57231  Biso   1.000  H
  C98      1.0000 0.08941  0.51842  0.64028  Biso   1.000  C
  C99      1.0000 0.21172  0.41690  0.43650  Biso   1.000  C
  H97      1.0000 0.26632  0.51171  0.44170  Biso   1.000  H
  N8       1.0000 0.53018  0.70290  0.66456  Biso   1.000  N
  C100     1.0000 0.53170  0.56950  0.68929  Biso   1.000  C
  C101     1.0000 0.44421  0.48958  0.70329  Biso   1.000  C
  S8       1.0000 0.13754  0.29091  0.43432  Biso   1.000  S
  H98      1.0000 0.34439  0.20702  0.60490  Biso   1.000  H
  H99      1.0000 0.40270  0.25740  0.60840  Biso   1.000  H
  H100     1.0000 0.35690  0.25740  0.65300  Biso   1.000  H
  H101     1.0000 0.06318  0.55479  0.62391  Biso   1.000  H
  H102     1.0000 0.06868  0.47008  0.64581  Biso   1.000  H
  H103     1.0000 0.10210  0.53949  0.67201  Biso   1.000  H
  H104     1.0000 0.20439  0.42028  0.40210  Biso   1.000  H
  C102     1.0000 0.55851  0.63897  0.67649  Biso   1.000  C
  C103     1.0000 0.55579  0.48958  0.70329  Biso   1.000  C
  H105     1.0000 0.42200  0.49191  0.73472  Biso   1.000  H
  H106     1.0000 0.41820  0.46950  0.67709  Biso   1.000  H
  C104     1.0000 0.50002  0.43908  0.70890  Biso   1.000  C
  C105     1.0000 0.18321  0.23761  0.39021  Biso   1.000  C
  O15      1.0000 0.11511  0.23592  0.47060  Biso   1.000  O
  O16      1.0000 0.09697  0.33481  0.40425  Biso   1.000  O
  S9       1.0000 0.63895  0.65194  0.67867  Biso   1.000  S
  H107     1.0000 0.57800  0.49191  0.73472  Biso   1.000  H
  H108     1.0000 0.58180  0.46950  0.67709  Biso   1.000  H
  H109     1.0000 0.50002  0.39868  0.68330  Biso   1.000  H
  H110     1.0000 0.50002  0.41409  0.74161  Biso   1.000  H
  C106     1.0000 0.18732  0.25757  0.33936  Biso   1.000  C
  N9       1.0000 0.20720  0.17281  0.40997  Biso   1.000  N
  O17      1.0000 0.65856  0.61457  0.72414  Biso   1.000  O
  O18      1.0000 0.65097  0.73361  0.67024  Biso   1.000  O
  C107     1.0000 0.66598  0.59922  0.62681  Biso   1.000  C
  C108     1.0000 0.21730  0.20702  0.30766  Biso   1.000  C
  C109     1.0000 0.16171  0.32518  0.30917  Biso   1.000  C
  N10      1.0000 0.23719  0.12453  0.37959  Biso   1.000  N
  C110     1.0000 0.65910  0.62882  0.57810  Biso   1.000  C
  C111     1.0000 0.69851  0.52980  0.63693  Biso   1.000  C
  C112     1.0000 0.21498  0.23451  0.25410  Biso   1.000  C
  C113     1.0000 0.23929  0.13842  0.33074  Biso   1.000  C
  C114     1.0000 0.19532  0.31957  0.25949  Biso   1.000  C
  H111     1.0000 0.11900  0.31922  0.30420  Biso   1.000  H
  H112     1.0000 0.16931  0.37480  0.32569  Biso   1.000  H
  H113     1.0000 0.63890  0.67570  0.57298  Biso   1.000  H
  C115     1.0000 0.68189  0.58883  0.53817  Biso   1.000  C
  C116     1.0000 0.72211  0.49121  0.59579  Biso   1.000  C
  H114     1.0000 0.70361  0.51118  0.66949  Biso   1.000  H
  H115     1.0000 0.25390  0.23089  0.23818  Biso   1.000  H
  H116     1.0000 0.18629  0.20468  0.23472  Biso   1.000  H
  S10      1.0000 0.27043  0.05978  0.29445  Biso   1.000  S
  H117     1.0000 0.16949  0.33429  0.23171  Biso   1.000  H
  H118     1.0000 0.22981  0.35390  0.25971  Biso   1.000  H
  H119     1.0000 0.67581  0.60669  0.50550  Biso   1.000  H
  C117     1.0000 0.71442  0.52128  0.54667  Biso   1.000  C
  C118     1.0000 0.76009  0.41818  0.59606  Biso   1.000  C
  O19      1.0000 0.24380  0.06574  0.24560  Biso   1.000  O
  C119     1.0000 0.34649  0.07887  0.28888  Biso   1.000  C
  O20      1.0000 0.26279  0.99019  0.32347  Biso   1.000  O
  C120     1.0000 0.74521  0.46769  0.51182  Biso   1.000  C
  C121     1.0000 0.77251  0.40779  0.53963  Biso   1.000  C
  C122     1.0000 0.72841  0.34701  0.61898  Biso   1.000  C
  C123     1.0000 0.81952  0.43348  0.62541  Biso   1.000  C
  C124     1.0000 0.36780  0.13212  0.25218  Biso   1.000  C
  C125     1.0000 0.38719  0.03882  0.31967  Biso   1.000  C
  C126     1.0000 0.75231  0.47247  0.46014  Biso   1.000  C
  C127     1.0000 0.80589  0.35093  0.51634  Biso   1.000  C
  H120     1.0000 0.75562  0.30288  0.61819  Biso   1.000  H
  H121     1.0000 0.71938  0.35811  0.65398  Biso   1.000  H
  C128     1.0000 0.67201  0.32430  0.59301  Biso   1.000  C
  H122     1.0000 0.81000  0.44147  0.66068  Biso   1.000  H
  H123     1.0000 0.84441  0.38718  0.62312  Biso   1.000  H
  C129     1.0000 0.85522  0.50347  0.60659  Biso   1.000  C
  H124     1.0000 0.34059  0.15938  0.23250  Biso   1.000  H
  C130     1.0000 0.42638  0.14391  0.24530  Biso   1.000  C
  C131     1.0000 0.44729  0.04927  0.31244  Biso   1.000  C
  H125     1.0000 0.37352  0.00537  0.34470  Biso   1.000  H
  C132     1.0000 0.78828  0.41690  0.43650  Biso   1.000  C
  H126     1.0000 0.73368  0.51171  0.44170  Biso   1.000  H
  C133     1.0000 0.81349  0.35600  0.46447  Biso   1.000  C
  H127     1.0000 0.82291  0.31029  0.53470  Biso   1.000  H
  H128     1.0000 0.68122  0.31123  0.55830  Biso   1.000  H
  H129     1.0000 0.64538  0.36902  0.59252  Biso   1.000  H
  C134     1.0000 0.63890  0.25501  0.61710  Biso   1.000  C
  H130     1.0000 0.83002  0.54948  0.60659  Biso   1.000  H
  H131     1.0000 0.86809  0.49402  0.57231  Biso   1.000  H
  C135     1.0000 0.91059  0.51842  0.64028  Biso   1.000  C
  H132     1.0000 0.43970  0.17882  0.22090  Biso   1.000  H
  C136     1.0000 0.46682  0.10339  0.27492  Biso   1.000  C
  C137     1.0000 0.50002  0.00817  0.33601  Biso   1.000  C
  H133     1.0000 0.79561  0.42028  0.40210  Biso   1.000  H
  S11      1.0000 0.86246  0.29091  0.43432  Biso   1.000  S
  H134     1.0000 0.65561  0.20702  0.60490  Biso   1.000  H
  H135     1.0000 0.59730  0.25740  0.60840  Biso   1.000  H
  H136     1.0000 0.64310  0.25740  0.65300  Biso   1.000  H
  H137     1.0000 0.93682  0.55479  0.62391  Biso   1.000  H
  H138     1.0000 0.93132  0.47008  0.64581  Biso   1.000  H
  H139     1.0000 0.89790  0.53949  0.67201  Biso   1.000  H
  C138     1.0000 0.53318  0.10339  0.27492  Biso   1.000  C
  C139     1.0000 0.55271  0.04927  0.31244  Biso   1.000  C
  C140     1.0000 0.50002  0.00981  0.39352  Biso   1.000  C
  C141     1.0000 0.50002  0.92043  0.31832  Biso   1.000  C
  C142     1.0000 0.81679  0.23761  0.39021  Biso   1.000  C
  O21      1.0000 0.88489  0.23592  0.47060  Biso   1.000  O
  O22      1.0000 0.90303  0.33481  0.40425  Biso   1.000  O
  C143     1.0000 0.57362  0.14391  0.24530  Biso   1.000  C
  C144     1.0000 0.61281  0.03882  0.31967  Biso   1.000  C
  C145     1.0000 0.50002  0.08938  0.41569  Biso   1.000  C
  H140     1.0000 0.46499  0.98202  0.40549  Biso   1.000  H
  H141     1.0000 0.53501  0.98202  0.40549  Biso   1.000  H
  H142     1.0000 0.53492  0.89492  0.33232  Biso   1.000  H
  H143     1.0000 0.46508  0.89492  0.33232  Biso   1.000  H
  C146     1.0000 0.50002  0.90770  0.26152  Biso   1.000  C
  N11      1.0000 0.79280  0.17281  0.40997  Biso   1.000  N
  C147     1.0000 0.81268  0.25757  0.33936  Biso   1.000  C
  C148     1.0000 0.63220  0.13212  0.25218  Biso   1.000  C
  H144     1.0000 0.56030  0.17882  0.22090  Biso   1.000  H
  C149     1.0000 0.65351  0.07887  0.28888  Biso   1.000  C
  H145     1.0000 0.62648  0.00537  0.34470  Biso   1.000  H
  H146     1.0000 0.46490  0.11781  0.40470  Biso   1.000  H
  H147     1.0000 0.53510  0.11781  0.40470  Biso   1.000  H
  C150     1.0000 0.50002  0.08109  0.47742  Biso   1.000  C
  H148     1.0000 0.46508  0.93350  0.24759  Biso   1.000  H
  H149     1.0000 0.53492  0.93350  0.24759  Biso   1.000  H
  C151     1.0000 0.50002  0.82468  0.24341  Biso   1.000  C
  N12      1.0000 0.76281  0.12453  0.37959  Biso   1.000  N
  C152     1.0000 0.78270  0.20702  0.30766  Biso   1.000  C
  C153     1.0000 0.83829  0.32518  0.30917  Biso   1.000  C
  H150     1.0000 0.65941  0.15938  0.23250  Biso   1.000  H
  S12      1.0000 0.72957  0.05978  0.29445  Biso   1.000  S
  H151     1.0000 0.47259  0.04069  0.48732  Biso   1.000  H
  H152     1.0000 0.52741  0.04069  0.48732  Biso   1.000  H
  H153     1.0000 0.48791  0.12972  0.49221  Biso   1.000  H
  H154     1.0000 0.51209  0.12972  0.49221  Biso   1.000  H
  H155     1.0000 0.53948  0.06801  0.48878  Biso   1.000  H
  H156     1.0000 0.46052  0.06801  0.48878  Biso   1.000  H
  H157     1.0000 0.52071  0.79252  0.26731  Biso   1.000  H
  H158     1.0000 0.47929  0.79252  0.26731  Biso   1.000  H
  H159     1.0000 0.51968  0.82171  0.21138  Biso   1.000  H
  H160     1.0000 0.48032  0.82171  0.21138  Biso   1.000  H
  H161     1.0000 0.45958  0.80670  0.24010  Biso   1.000  H
  H162     1.0000 0.54042  0.80670  0.24010  Biso   1.000  H
  C154     1.0000 0.76071  0.13842  0.33074  Biso   1.000  C
  C155     1.0000 0.78502  0.23451  0.25410  Biso   1.000  C
  C156     1.0000 0.80468  0.31957  0.25949  Biso   1.000  C
  H163     1.0000 0.88100  0.31922  0.30420  Biso   1.000  H
  H164     1.0000 0.83069  0.37480  0.32569  Biso   1.000  H
  O23      1.0000 0.75620  0.06574  0.24560  Biso   1.000  O
  O24      1.0000 0.73721  0.99019  0.32347  Biso   1.000  O
  H165     1.0000 0.74610  0.23089  0.23818  Biso   1.000  H
  H166     1.0000 0.81371  0.20468  0.23472  Biso   1.000  H
  H167     1.0000 0.83051  0.33429  0.23171  Biso   1.000  H
  H168     1.0000 0.77019  0.35390  0.25971  Biso   1.000  H
  C157     1.0000 0.19532  0.68043  0.75949  Biso   1.000  C
  C158     1.0000 0.21498  0.76549  0.75410  Biso   1.000  C
  H169     1.0000 0.16949  0.66571  0.73171  Biso   1.000  H
  H170     1.0000 0.22981  0.64610  0.75971  Biso   1.000  H
  C159     1.0000 0.16171  0.67482  0.80917  Biso   1.000  C
  C160     1.0000 0.21730  0.79298  0.80766  Biso   1.000  C
  H171     1.0000 0.25390  0.76911  0.73818  Biso   1.000  H
  H172     1.0000 0.18629  0.79532  0.73472  Biso   1.000  H
  C161     1.0000 0.18732  0.74243  0.83936  Biso   1.000  C
  H173     1.0000 0.11900  0.68078  0.80420  Biso   1.000  H
  H174     1.0000 0.16931  0.62520  0.82569  Biso   1.000  H
  C162     1.0000 0.23929  0.86158  0.83074  Biso   1.000  C
  C163     1.0000 0.18321  0.76239  0.89021  Biso   1.000  C
  S13      1.0000 0.27043  0.94022  0.79445  Biso   1.000  S
  N13      1.0000 0.23719  0.87547  0.87959  Biso   1.000  N
  S14      1.0000 0.13754  0.70909  0.93432  Biso   1.000  S
  N14      1.0000 0.20720  0.82719  0.90997  Biso   1.000  N
  O25      1.0000 0.24380  0.93426  0.74560  Biso   1.000  O
  C164     1.0000 0.34649  0.92113  0.78888  Biso   1.000  C
  O26      1.0000 0.26279  0.00981  0.82347  Biso   1.000  O
  O27      1.0000 0.11511  0.76408  0.97060  Biso   1.000  O
  O28      1.0000 0.09697  0.66519  0.90425  Biso   1.000  O
  C165     1.0000 0.18651  0.64400  0.96447  Biso   1.000  C
  C166     1.0000 0.36780  0.86788  0.75218  Biso   1.000  C
  C167     1.0000 0.38719  0.96118  0.81967  Biso   1.000  C
  C168     1.0000 0.21172  0.58310  0.93650  Biso   1.000  C
  C169     1.0000 0.19411  0.64907  0.01634  Biso   1.000  C
  H175     1.0000 0.34059  0.84062  0.73250  Biso   1.000  H
  C170     1.0000 0.42638  0.85609  0.74530  Biso   1.000  C
  C171     1.0000 0.44729  0.95073  0.81244  Biso   1.000  C
  H176     1.0000 0.37352  0.99463  0.84470  Biso   1.000  H
  H177     1.0000 0.20439  0.57972  0.90210  Biso   1.000  H
  C172     1.0000 0.24769  0.52753  0.96014  Biso   1.000  C
  C173     1.0000 0.22749  0.59221  0.03963  Biso   1.000  C
  H178     1.0000 0.17709  0.68971  0.03470  Biso   1.000  H
  H179     1.0000 0.43970  0.82118  0.72090  Biso   1.000  H
  C174     1.0000 0.46682  0.89661  0.77492  Biso   1.000  C
  C175     1.0000 0.50002  0.99183  0.83601  Biso   1.000  C
  H180     1.0000 0.26632  0.48829  0.94170  Biso   1.000  H
  C176     1.0000 0.25479  0.53231  0.01182  Biso   1.000  C
  C177     1.0000 0.23991  0.58182  0.09606  Biso   1.000  C
  C178     1.0000 0.53318  0.89661  0.77492  Biso   1.000  C
  C179     1.0000 0.55271  0.95073  0.81244  Biso   1.000  C
  C180     1.0000 0.50002  0.99019  0.89352  Biso   1.000  C
  C181     1.0000 0.50002  0.07957  0.81832  Biso   1.000  C
  C182     1.0000 0.28558  0.47872  0.04667  Biso   1.000  C
  C183     1.0000 0.27789  0.50879  0.09579  Biso   1.000  C
  C184     1.0000 0.27159  0.65299  0.11898  Biso   1.000  C
  C185     1.0000 0.18048  0.56652  0.12541  Biso   1.000  C
  C186     1.0000 0.57362  0.85609  0.74530  Biso   1.000  C
  C187     1.0000 0.61281  0.96118  0.81967  Biso   1.000  C
  C188     1.0000 0.50002  0.91062  0.91569  Biso   1.000  C
  H181     1.0000 0.53501  0.01798  0.90549  Biso   1.000  H
  H182     1.0000 0.46499  0.01798  0.90549  Biso   1.000  H
  H183     1.0000 0.46508  0.10508  0.83232  Biso   1.000  H
  H184     1.0000 0.53492  0.10508  0.83232  Biso   1.000  H
  C189     1.0000 0.50002  0.09230  0.76152  Biso   1.000  C
  C190     1.0000 0.31811  0.41117  0.03817  Biso   1.000  C
  C191     1.0000 0.30149  0.47020  0.13693  Biso   1.000  C
  H185     1.0000 0.24438  0.69712  0.11819  Biso   1.000  H
  H186     1.0000 0.28062  0.64189  0.15398  Biso   1.000  H
  C192     1.0000 0.32799  0.67570  0.09301  Biso   1.000  C
  H187     1.0000 0.19000  0.55853  0.16068  Biso   1.000  H
  H188     1.0000 0.15559  0.61282  0.12312  Biso   1.000  H
  C193     1.0000 0.14478  0.49653  0.10659  Biso   1.000  C
  C194     1.0000 0.63220  0.86788  0.75218  Biso   1.000  C
  H189     1.0000 0.56030  0.82118  0.72090  Biso   1.000  H
  C195     1.0000 0.65351  0.92113  0.78888  Biso   1.000  C
  H190     1.0000 0.62648  0.99463  0.84470  Biso   1.000  H
  H191     1.0000 0.53510  0.88219  0.90470  Biso   1.000  H
  H192     1.0000 0.46490  0.88219  0.90470  Biso   1.000  H
  C196     1.0000 0.50002  0.91891  0.97742  Biso   1.000  C
  H193     1.0000 0.53492  0.06650  0.74759  Biso   1.000  H
  H194     1.0000 0.46508  0.06650  0.74759  Biso   1.000  H
  C197     1.0000 0.50002  0.17532  0.74341  Biso   1.000  C
  C198     1.0000 0.34090  0.37118  0.07810  Biso   1.000  C
  H195     1.0000 0.32419  0.39331  0.00550  Biso   1.000  H
  C199     1.0000 0.33402  0.40078  0.12681  Biso   1.000  C
  H196     1.0000 0.29639  0.48882  0.16949  Biso   1.000  H
  H197     1.0000 0.31878  0.68877  0.05830  Biso   1.000  H
  H198     1.0000 0.35462  0.63098  0.09252  Biso   1.000  H
  C200     1.0000 0.36110  0.74499  0.11710  Biso   1.000  C
  H199     1.0000 0.16998  0.45052  0.10659  Biso   1.000  H
  H200     1.0000 0.13191  0.50598  0.07231  Biso   1.000  H
  C201     1.0000 0.08941  0.48158  0.14028  Biso   1.000  C
  H201     1.0000 0.65941  0.84062  0.73250  Biso   1.000  H
  S15      1.0000 0.72957  0.94022  0.79445  Biso   1.000  S
  H202     1.0000 0.52741  0.95931  0.98732  Biso   1.000  H
  H203     1.0000 0.47259  0.95931  0.98732  Biso   1.000  H
  H204     1.0000 0.51209  0.87028  0.99221  Biso   1.000  H
  H205     1.0000 0.48791  0.87028  0.99221  Biso   1.000  H
  H206     1.0000 0.46052  0.93199  0.98878  Biso   1.000  H
  H207     1.0000 0.53948  0.93199  0.98878  Biso   1.000  H
  H208     1.0000 0.47929  0.20748  0.76731  Biso   1.000  H
  H209     1.0000 0.52071  0.20748  0.76731  Biso   1.000  H
  H210     1.0000 0.48032  0.17829  0.71138  Biso   1.000  H
  H211     1.0000 0.51968  0.17829  0.71138  Biso   1.000  H
  H212     1.0000 0.54042  0.19330  0.74010  Biso   1.000  H
  H213     1.0000 0.45958  0.19330  0.74010  Biso   1.000  H
  H214     1.0000 0.36110  0.32430  0.07298  Biso   1.000  H
  S16      1.0000 0.36105  0.34806  0.17867  Biso   1.000  S
  H215     1.0000 0.34439  0.79298  0.10490  Biso   1.000  H
  H216     1.0000 0.40270  0.74260  0.10840  Biso   1.000  H
  H217     1.0000 0.35690  0.74260  0.15300  Biso   1.000  H
  H218     1.0000 0.06318  0.44521  0.12391  Biso   1.000  H
  H219     1.0000 0.06868  0.52992  0.14581  Biso   1.000  H
  H220     1.0000 0.10210  0.46051  0.17201  Biso   1.000  H
  O29      1.0000 0.75620  0.93426  0.74560  Biso   1.000  O
  C202     1.0000 0.76071  0.86158  0.83074  Biso   1.000  C
  O30      1.0000 0.73721  0.00981  0.82347  Biso   1.000  O
  O31      1.0000 0.34144  0.38543  0.22414  Biso   1.000  O
  O32      1.0000 0.34903  0.26639  0.17024  Biso   1.000  O
  C203     1.0000 0.44149  0.36103  0.17649  Biso   1.000  C
  N15      1.0000 0.76281  0.87547  0.87959  Biso   1.000  N
  C204     1.0000 0.78270  0.79298  0.80766  Biso   1.000  C
  N16      1.0000 0.46982  0.29710  0.16456  Biso   1.000  N
  C205     1.0000 0.46830  0.43050  0.18929  Biso   1.000  C
  N17      1.0000 0.79280  0.82719  0.90997  Biso   1.000  N
  C206     1.0000 0.81268  0.74243  0.83936  Biso   1.000  C
  C207     1.0000 0.78502  0.76549  0.75410  Biso   1.000  C
  N18      1.0000 0.53018  0.29710  0.16456  Biso   1.000  N
  C208     1.0000 0.53170  0.43050  0.18929  Biso   1.000  C
  C209     1.0000 0.44421  0.51042  0.20329  Biso   1.000  C
  C210     1.0000 0.81679  0.76239  0.89021  Biso   1.000  C
  C211     1.0000 0.83829  0.67482  0.80917  Biso   1.000  C
  H221     1.0000 0.74610  0.76911  0.73818  Biso   1.000  H
  H222     1.0000 0.81371  0.79532  0.73472  Biso   1.000  H
  C212     1.0000 0.80468  0.68043  0.75949  Biso   1.000  C
  C213     1.0000 0.55851  0.36103  0.17649  Biso   1.000  C
  C214     1.0000 0.55579  0.51042  0.20329  Biso   1.000  C
  H223     1.0000 0.42200  0.50809  0.23472  Biso   1.000  H
  H224     1.0000 0.41820  0.53050  0.17709  Biso   1.000  H
  C215     1.0000 0.50002  0.56092  0.20890  Biso   1.000  C
  S17      1.0000 0.86246  0.70909  0.93432  Biso   1.000  S
  H225     1.0000 0.88100  0.68078  0.80420  Biso   1.000  H
  H226     1.0000 0.83069  0.62520  0.82569  Biso   1.000  H
  H227     1.0000 0.83051  0.66571  0.73171  Biso   1.000  H
  H228     1.0000 0.77019  0.64610  0.75971  Biso   1.000  H
  S18      1.0000 0.63895  0.34806  0.17867  Biso   1.000  S
  H229     1.0000 0.57800  0.50809  0.23472  Biso   1.000  H
  H230     1.0000 0.58180  0.53050  0.17709  Biso   1.000  H
  H231     1.0000 0.50002  0.60132  0.18330  Biso   1.000  H
  H232     1.0000 0.50002  0.58591  0.24161  Biso   1.000  H
  O33      1.0000 0.88489  0.76408  0.97060  Biso   1.000  O
  O34      1.0000 0.90303  0.66519  0.90425  Biso   1.000  O
  C216     1.0000 0.81349  0.64400  0.96447  Biso   1.000  C
  O35      1.0000 0.65856  0.38543  0.22414  Biso   1.000  O
  O36      1.0000 0.65097  0.26639  0.17024  Biso   1.000  O
  C217     1.0000 0.66598  0.40078  0.12681  Biso   1.000  C
  C218     1.0000 0.78828  0.58310  0.93650  Biso   1.000  C
  C219     1.0000 0.80589  0.64907  0.01634  Biso   1.000  C
  C220     1.0000 0.65910  0.37118  0.07810  Biso   1.000  C
  C221     1.0000 0.69851  0.47020  0.13693  Biso   1.000  C
  H233     1.0000 0.79561  0.57972  0.90210  Biso   1.000  H
  C222     1.0000 0.75231  0.52753  0.96014  Biso   1.000  C
  C223     1.0000 0.77251  0.59221  0.03963  Biso   1.000  C
  H234     1.0000 0.82291  0.68971  0.03470  Biso   1.000  H
  H235     1.0000 0.63890  0.32430  0.07298  Biso   1.000  H
  C224     1.0000 0.68189  0.41117  0.03817  Biso   1.000  C
  C225     1.0000 0.72211  0.50879  0.09579  Biso   1.000  C
  H236     1.0000 0.70361  0.48882  0.16949  Biso   1.000  H
  H237     1.0000 0.73368  0.48829  0.94170  Biso   1.000  H
  C226     1.0000 0.74521  0.53231  0.01182  Biso   1.000  C
  C227     1.0000 0.76009  0.58182  0.09606  Biso   1.000  C
  H238     1.0000 0.67581  0.39331  0.00550  Biso   1.000  H
  C228     1.0000 0.71442  0.47872  0.04667  Biso   1.000  C
  C229     1.0000 0.72841  0.65299  0.11898  Biso   1.000  C
  C230     1.0000 0.81952  0.56652  0.12541  Biso   1.000  C
  H239     1.0000 0.75562  0.69712  0.11819  Biso   1.000  H
  H240     1.0000 0.71938  0.64189  0.15398  Biso   1.000  H
  C231     1.0000 0.67201  0.67570  0.09301  Biso   1.000  C
  H241     1.0000 0.81000  0.55853  0.16068  Biso   1.000  H
  H242     1.0000 0.84441  0.61282  0.12312  Biso   1.000  H
  C232     1.0000 0.85522  0.49653  0.10659  Biso   1.000  C
  H243     1.0000 0.68122  0.68877  0.05830  Biso   1.000  H
  H244     1.0000 0.64538  0.63098  0.09252  Biso   1.000  H
  C233     1.0000 0.63890  0.74499  0.11710  Biso   1.000  C
  H245     1.0000 0.83002  0.45052  0.10659  Biso   1.000  H
  H246     1.0000 0.86809  0.50598  0.07231  Biso   1.000  H
  C234     1.0000 0.91059  0.48158  0.14028  Biso   1.000  C
  H247     1.0000 0.65561  0.79298  0.10490  Biso   1.000  H
  H248     1.0000 0.59730  0.74260  0.10840  Biso   1.000  H
  H249     1.0000 0.64310  0.74260  0.15300  Biso   1.000  H
  H250     1.0000 0.93682  0.44521  0.12391  Biso   1.000  H
  H251     1.0000 0.93132  0.52992  0.14581  Biso   1.000  H
  H252     1.0000 0.89790  0.46051  0.17201  Biso   1.000  H
  C235     1.0000 0.13888  0.75498  0.61710  Biso   1.000  C
  C236     1.0000 0.17199  0.82427  0.59301  Biso   1.000  C
  H253     1.0000 0.15559  0.70699  0.60490  Biso   1.000  H
  H254     1.0000 0.09728  0.75743  0.60840  Biso   1.000  H
  H255     1.0000 0.14308  0.75743  0.65300  Biso   1.000  H
  C237     1.0000 0.22838  0.84698  0.61898  Biso   1.000  C
  H256     1.0000 0.18120  0.81120  0.55830  Biso   1.000  H
  H257     1.0000 0.14540  0.86899  0.59252  Biso   1.000  H
  C238     1.0000 0.26011  0.91821  0.59606  Biso   1.000  C
  H258     1.0000 0.25560  0.80291  0.61819  Biso   1.000  H
  H259     1.0000 0.21940  0.85808  0.65398  Biso   1.000  H
  C239     1.0000 0.27249  0.90782  0.53963  Biso   1.000  C
  C240     1.0000 0.22208  0.99118  0.59579  Biso   1.000  C
  C241     1.0000 0.31950  0.93350  0.62541  Biso   1.000  C
  C242     1.0000 0.30591  0.85090  0.51634  Biso   1.000  C
  C243     1.0000 0.24519  0.96772  0.51182  Biso   1.000  C
  C244     1.0000 0.21440  0.02131  0.54667  Biso   1.000  C
  C245     1.0000 0.19849  0.02977  0.63693  Biso   1.000  C
  H260     1.0000 0.30998  0.94150  0.66068  Biso   1.000  H
  H261     1.0000 0.34439  0.88721  0.62312  Biso   1.000  H
  C246     1.0000 0.35520  0.00350  0.60659  Biso   1.000  C
  C247     1.0000 0.31351  0.85598  0.46447  Biso   1.000  C
  H262     1.0000 0.32289  0.81032  0.53470  Biso   1.000  H
  C248     1.0000 0.25229  0.97250  0.46014  Biso   1.000  C
  C249     1.0000 0.18191  0.08880  0.53817  Biso   1.000  C
  C250     1.0000 0.16600  0.09919  0.62681  Biso   1.000  C
  H263     1.0000 0.20358  0.01121  0.66949  Biso   1.000  H
  H264     1.0000 0.36811  0.99399  0.57231  Biso   1.000  H
  H265     1.0000 0.33000  0.04951  0.60659  Biso   1.000  H
  C251     1.0000 0.41061  0.01839  0.64028  Biso   1.000  C
  S19      1.0000 0.36244  0.79088  0.43432  Biso   1.000  S
  C252     1.0000 0.28831  0.91692  0.43650  Biso   1.000  C
  H266     1.0000 0.23370  0.01168  0.44170  Biso   1.000  H
  C253     1.0000 0.15908  0.12879  0.57810  Biso   1.000  C
  H267     1.0000 0.17579  0.10672  0.50550  Biso   1.000  H
  S20      1.0000 0.13897  0.15196  0.67867  Biso   1.000  S
  H268     1.0000 0.43130  0.97011  0.64581  Biso   1.000  H
  H269     1.0000 0.43679  0.05482  0.62391  Biso   1.000  H
  H270     1.0000 0.39792  0.03952  0.67201  Biso   1.000  H
  C254     1.0000 0.31681  0.73758  0.39021  Biso   1.000  C
  O37      1.0000 0.38491  0.73589  0.47060  Biso   1.000  O
  O38      1.0000 0.40301  0.83478  0.40425  Biso   1.000  O
  H271     1.0000 0.29559  0.92031  0.40210  Biso   1.000  H
  H272     1.0000 0.13888  0.17573  0.57298  Biso   1.000  H
  O39      1.0000 0.15854  0.11460  0.72414  Biso   1.000  O
  O40      1.0000 0.15099  0.23358  0.67024  Biso   1.000  O
  C255     1.0000 0.05849  0.13900  0.67649  Biso   1.000  C
  N19      1.0000 0.29282  0.67278  0.40997  Biso   1.000  N
  C256     1.0000 0.31270  0.75760  0.33936  Biso   1.000  C
  N20      1.0000 0.03021  0.20287  0.66456  Biso   1.000  N
  C257     1.0000 0.03168  0.06947  0.68929  Biso   1.000  C
  N21      1.0000 0.26279  0.62450  0.37959  Biso   1.000  N
  C258     1.0000 0.28272  0.70699  0.30766  Biso   1.000  C
  C259     1.0000 0.33831  0.82521  0.30917  Biso   1.000  C
  N22      1.0000 0.96979  0.20287  0.66456  Biso   1.000  N
  C260     1.0000 0.05581  0.98961  0.70329  Biso   1.000  C
  C261     1.0000 0.96832  0.06947  0.68929  Biso   1.000  C
  C262     1.0000 0.26069  0.63839  0.33074  Biso   1.000  C
  C263     1.0000 0.28500  0.73449  0.25410  Biso   1.000  C
  C264     1.0000 0.30471  0.81960  0.25949  Biso   1.000  C
  H273     1.0000 0.38098  0.81920  0.30420  Biso   1.000  H
  H274     1.0000 0.33071  0.87477  0.32569  Biso   1.000  H
  C265     1.0000 0.94151  0.13900  0.67649  Biso   1.000  C
  H275     1.0000 0.07802  0.99189  0.73472  Biso   1.000  H
  H276     1.0000 0.08182  0.96953  0.67709  Biso   1.000  H
  C266     1.0000 0.00000  0.93911  0.70890  Biso   1.000  C
  C267     1.0000 0.94419  0.98961  0.70329  Biso   1.000  C
  S21      1.0000 0.22959  0.55975  0.29445  Biso   1.000  S
  H277     1.0000 0.24608  0.73092  0.23818  Biso   1.000  H
  H278     1.0000 0.31369  0.70471  0.23472  Biso   1.000  H
  H279     1.0000 0.33049  0.83432  0.23171  Biso   1.000  H
  H280     1.0000 0.27021  0.85387  0.25971  Biso   1.000  H
  S22      1.0000 0.86103  0.15196  0.67867  Biso   1.000  S
  H281     1.0000 0.00000  0.89871  0.68330  Biso   1.000  H
  H282     1.0000 0.00000  0.91412  0.74161  Biso   1.000  H
  H283     1.0000 0.92198  0.99189  0.73472  Biso   1.000  H
  H284     1.0000 0.91818  0.96953  0.67709  Biso   1.000  H
  O41      1.0000 0.23723  0.49022  0.32347  Biso   1.000  O
  O42      1.0000 0.25622  0.56577  0.24560  Biso   1.000  O
  C268     1.0000 0.15349  0.57890  0.28888  Biso   1.000  C
  O43      1.0000 0.84146  0.11460  0.72414  Biso   1.000  O
  O44      1.0000 0.84901  0.23358  0.67024  Biso   1.000  O
  C269     1.0000 0.83400  0.09919  0.62681  Biso   1.000  C
  C270     1.0000 0.13222  0.63209  0.25218  Biso   1.000  C
  C271     1.0000 0.11278  0.53879  0.31967  Biso   1.000  C
  C272     1.0000 0.80151  0.02977  0.63693  Biso   1.000  C
  C273     1.0000 0.84092  0.12879  0.57810  Biso   1.000  C
  H285     1.0000 0.15939  0.65941  0.23250  Biso   1.000  H
  C274     1.0000 0.07360  0.64388  0.24530  Biso   1.000  C
  C275     1.0000 0.05268  0.54930  0.31244  Biso   1.000  C
  H286     1.0000 0.12650  0.50540  0.34470  Biso   1.000  H
  C276     1.0000 0.77792  0.99118  0.59579  Biso   1.000  C
  H287     1.0000 0.79642  0.01121  0.66949  Biso   1.000  H
  C277     1.0000 0.81809  0.08880  0.53817  Biso   1.000  C
  H288     1.0000 0.86112  0.17573  0.57298  Biso   1.000  H
  H289     1.0000 0.06028  0.67879  0.22090  Biso   1.000  H
  C278     1.0000 0.03320  0.60342  0.27492  Biso   1.000  C
  C279     1.0000 0.00000  0.50820  0.33601  Biso   1.000  C
  C280     1.0000 0.73989  0.91821  0.59606  Biso   1.000  C
  C281     1.0000 0.78560  0.02131  0.54667  Biso   1.000  C
  H290     1.0000 0.82421  0.10672  0.50550  Biso   1.000  H
  C282     1.0000 0.96680  0.60342  0.27492  Biso   1.000  C
  C283     1.0000 0.00000  0.42040  0.31832  Biso   1.000  C
  C284     1.0000 0.00000  0.50978  0.39352  Biso   1.000  C
  C285     1.0000 0.94732  0.54930  0.31244  Biso   1.000  C
  C286     1.0000 0.72751  0.90782  0.53963  Biso   1.000  C
  C287     1.0000 0.77162  0.84698  0.61898  Biso   1.000  C
  C288     1.0000 0.68050  0.93350  0.62541  Biso   1.000  C
  C289     1.0000 0.75481  0.96772  0.51182  Biso   1.000  C
  C290     1.0000 0.92640  0.64388  0.24530  Biso   1.000  C
  H291     1.0000 0.03490  0.39489  0.33232  Biso   1.000  H
  C291     1.0000 0.00000  0.40767  0.26152  Biso   1.000  C
  H292     1.0000 0.96510  0.39489  0.33232  Biso   1.000  H
  H293     1.0000 0.03499  0.48199  0.40549  Biso   1.000  H
  C292     1.0000 0.00000  0.58941  0.41569  Biso   1.000  C
  H294     1.0000 0.96501  0.48199  0.40549  Biso   1.000  H
  C293     1.0000 0.88722  0.53879  0.31967  Biso   1.000  C
  C294     1.0000 0.69409  0.85090  0.51634  Biso   1.000  C
  H295     1.0000 0.74440  0.80291  0.61819  Biso   1.000  H
  H296     1.0000 0.78060  0.85808  0.65398  Biso   1.000  H
  C295     1.0000 0.82801  0.82427  0.59301  Biso   1.000  C
  H297     1.0000 0.69002  0.94150  0.66068  Biso   1.000  H
  H298     1.0000 0.65561  0.88721  0.62312  Biso   1.000  H
  C296     1.0000 0.64480  0.00350  0.60659  Biso   1.000  C
  C297     1.0000 0.74771  0.97250  0.46014  Biso   1.000  C
  C298     1.0000 0.86778  0.63209  0.25218  Biso   1.000  C
  H299     1.0000 0.93972  0.67879  0.22090  Biso   1.000  H
  H300     1.0000 0.03490  0.43348  0.24759  Biso   1.000  H
  C299     1.0000 0.00000  0.32471  0.24341  Biso   1.000  C
  H301     1.0000 0.96510  0.43348  0.24759  Biso   1.000  H
  H302     1.0000 0.03512  0.61778  0.40470  Biso   1.000  H
  C300     1.0000 0.00000  0.58112  0.47742  Biso   1.000  C
  H303     1.0000 0.96488  0.61778  0.40470  Biso   1.000  H
  C301     1.0000 0.84651  0.57890  0.28888  Biso   1.000  C
  H304     1.0000 0.87350  0.50540  0.34470  Biso   1.000  H
  C302     1.0000 0.68649  0.85598  0.46447  Biso   1.000  C
  H305     1.0000 0.67711  0.81032  0.53470  Biso   1.000  H
  H306     1.0000 0.81880  0.81120  0.55830  Biso   1.000  H
  H307     1.0000 0.85460  0.86899  0.59252  Biso   1.000  H
  C303     1.0000 0.86112  0.75498  0.61710  Biso   1.000  C
  H308     1.0000 0.63189  0.99399  0.57231  Biso   1.000  H
  H309     1.0000 0.67000  0.04951  0.60659  Biso   1.000  H
  C304     1.0000 0.58939  0.01839  0.64028  Biso   1.000  C
  C305     1.0000 0.71169  0.91692  0.43650  Biso   1.000  C
  H310     1.0000 0.76630  0.01168  0.44170  Biso   1.000  H
  H311     1.0000 0.84061  0.65941  0.23250  Biso   1.000  H
  H312     1.0000 0.02069  0.29249  0.26731  Biso   1.000  H
  H313     1.0000 0.01971  0.32168  0.21138  Biso   1.000  H
  H314     1.0000 0.04040  0.30667  0.24010  Biso   1.000  H
  H315     1.0000 0.97931  0.29249  0.26731  Biso   1.000  H
  H316     1.0000 0.98029  0.32168  0.21138  Biso   1.000  H
  H317     1.0000 0.95960  0.30667  0.24010  Biso   1.000  H
  H318     1.0000 0.02739  0.54072  0.48732  Biso   1.000  H
  H319     1.0000 0.01211  0.62969  0.49221  Biso   1.000  H
  H320     1.0000 0.03950  0.56798  0.48878  Biso   1.000  H
  H321     1.0000 0.97261  0.54072  0.48732  Biso   1.000  H
  H322     1.0000 0.98789  0.62969  0.49221  Biso   1.000  H
  H323     1.0000 0.96050  0.56798  0.48878  Biso   1.000  H
  S23      1.0000 0.77041  0.55975  0.29445  Biso   1.000  S
  S24      1.0000 0.63756  0.79088  0.43432  Biso   1.000  S
  H324     1.0000 0.84441  0.70699  0.60490  Biso   1.000  H
  H325     1.0000 0.90272  0.75743  0.60840  Biso   1.000  H
  H326     1.0000 0.85692  0.75743  0.65300  Biso   1.000  H
  H327     1.0000 0.56870  0.97011  0.64581  Biso   1.000  H
  H328     1.0000 0.56321  0.05482  0.62391  Biso   1.000  H
  H329     1.0000 0.60208  0.03952  0.67201  Biso   1.000  H
  H330     1.0000 0.70441  0.92031  0.40210  Biso   1.000  H
  O45      1.0000 0.76277  0.49022  0.32347  Biso   1.000  O
  O46      1.0000 0.74378  0.56577  0.24560  Biso   1.000  O
  C306     1.0000 0.73931  0.63839  0.33074  Biso   1.000  C
  C307     1.0000 0.68319  0.73758  0.39021  Biso   1.000  C
  O47      1.0000 0.61509  0.73589  0.47060  Biso   1.000  O
  O48      1.0000 0.59699  0.83478  0.40425  Biso   1.000  O
  N23      1.0000 0.73721  0.62450  0.37959  Biso   1.000  N
  C308     1.0000 0.71728  0.70699  0.30766  Biso   1.000  C
  N24      1.0000 0.70718  0.67278  0.40997  Biso   1.000  N
  C309     1.0000 0.68730  0.75760  0.33936  Biso   1.000  C
  C310     1.0000 0.71500  0.73449  0.25410  Biso   1.000  C
  C311     1.0000 0.66169  0.82521  0.30917  Biso   1.000  C
  H331     1.0000 0.75392  0.73092  0.23818  Biso   1.000  H
  H332     1.0000 0.68631  0.70471  0.23472  Biso   1.000  H
  C312     1.0000 0.69529  0.81960  0.25949  Biso   1.000  C
  H333     1.0000 0.61902  0.81920  0.30420  Biso   1.000  H
  H334     1.0000 0.66929  0.87477  0.32569  Biso   1.000  H
  H335     1.0000 0.66951  0.83432  0.23171  Biso   1.000  H
  H336     1.0000 0.72979  0.85387  0.25971  Biso   1.000  H
  Ne1      1.0000 0.50000  0.32547  0.47053  Biso   1.000  Ne
  He1      1.0000 0.64594  0.19490  0.46887  Biso   1.000  He
  He2      1.0000 0.50000  0.44584  0.36138  Biso   1.000  He
  Ar1      1.0000 0.50000  0.44862  0.38311  Biso   1.000  Ar
  Ne2      1.0000 0.00000  0.82546  0.47053  Biso   1.000  Ne
  He3      1.0000 0.14058  0.72184  0.45577  Biso   1.000  He
  He4      1.0000 1.00000  0.94585  0.36135  Biso   1.000  He
  Ar2      1.0000 0.00000  0.93806  0.38309  Biso   1.000  Ar
  Ne3      1.0000 0.00000  0.17454  0.97053  Biso   1.000  Ne
  He5      1.0000 0.18512  0.40698  0.00685  Biso   1.000  He
  He6      1.0000 0.00000  0.07888  0.93378  Biso   1.000  He
  Ar3      1.0000 0.00000  0.08426  0.94290  Biso   1.000  Ar
  Ne4      1.0000 0.50000  0.67453  0.97053  Biso   1.000  Ne
  He7      1.0000 0.36207  0.75724  0.94663  Biso   1.000  He
  He8      1.0000 0.50000  0.55759  0.86750  Biso   1.000  He
  Ar4      1.0000 0.50000  0.55138  0.88311  Biso   1.000  Ar
