data_image0
_cell_length_a       18.755
_cell_length_b       32.165
_cell_length_c       44.134
_cell_angle_alpha    90
_cell_angle_beta     90
_cell_angle_gamma    90

_symmetry_space_group_name_H-M    "P 1"
_symmetry_int_tables_number       1

loop_
  _symmetry_equiv_pos_as_xyz
  'x, y, z'

loop_
  _atom_site_label
  _atom_site_occupancy
  _atom_site_fract_x
  _atom_site_fract_y
  _atom_site_fract_z
  _atom_site_thermal_displace_type
  _atom_site_B_iso_or_equiv
  _atom_site_type_symbol
  C1       1.0000 0.34828  0.52971  0.50310  Biso   1.000  C
  C2       1.0000 0.31901  0.48730  0.48430  Biso   1.000  C
  C3       1.0000 0.34279  0.48021  0.45761  Biso   1.000  C
  C4       1.0000 0.32562  0.42789  0.45849  Biso   1.000  C
  N1       1.0000 0.29102  0.50061  0.43200  Biso   1.000  N
  C5       1.0000 0.30488  0.43880  0.42081  Biso   1.000  C
  C6       1.0000 0.28910  0.40889  0.47530  Biso   1.000  C
  C7       1.0000 0.27902  0.47729  0.40581  Biso   1.000  C
  C8       1.0000 0.30291  0.54370  0.42471  Biso   1.000  C
  C9       1.0000 0.30563  0.40270  0.40300  Biso   1.000  C
  C10      1.0000 0.27491  0.35899  0.46540  Biso   1.000  C
  C11      1.0000 0.22741  0.47291  0.38950  Biso   1.000  C
  N2       1.0000 0.24980  0.56770  0.44571  Biso   1.000  N
  C12      1.0000 0.26612  0.37339  0.40910  Biso   1.000  C
  C13      1.0000 0.28419  0.33829  0.43561  Biso   1.000  C
  C14      1.0000 0.22693  0.33701  0.47600  Biso   1.000  C
  C15      1.0000 0.20048  0.59350  0.43259  Biso   1.000  C
  C16      1.0000 0.29619  0.59080  0.47369  Biso   1.000  C
  C17      1.0000 0.23029  0.31171  0.43479  Biso   1.000  C
  C18      1.0000 0.17339  0.29961  0.46130  Biso   1.000  C
  C19      1.0000 0.20139  0.34140  0.50501  Biso   1.000  C
  O1       1.0000 0.17451  0.59049  0.40760  Biso   1.000  O
  N3       1.0000 0.17830  0.61990  0.45471  Biso   1.000  N
  N4       1.0000 0.26201  0.55850  0.49461  Biso   1.000  N
  C20      1.0000 0.10211  0.26809  0.46889  Biso   1.000  C
  C21      1.0000 0.12669  0.65450  0.44800  Biso   1.000  C
  C22      1.0000 0.21701  0.61921  0.48280  Biso   1.000  C
  C23      1.0000 0.22613  0.55930  0.51840  Biso   1.000  C
  C24      1.0000 0.03119  0.27701  0.46361  Biso   1.000  C
  N5       1.0000 0.05860  0.64841  0.46051  Biso   1.000  N
  N6       1.0000 0.18192  0.59680  0.50750  Biso   1.000  N
  O2       1.0000 0.18742  0.54109  0.54069  Biso   1.000  O
  C25      1.0000 0.02490  0.29231  0.49959  Biso   1.000  C
  C26      1.0000 0.96881  0.27701  0.46361  Biso   1.000  C
  C27      1.0000 0.00000  0.64471  0.44211  Biso   1.000  C
  C28      1.0000 0.04298  0.65550  0.49200  Biso   1.000  C
  C29      1.0000 0.12909  0.61719  0.52610  Biso   1.000  C
  C30      1.0000 0.97510  0.29231  0.49959  Biso   1.000  C
  C31      1.0000 0.89789  0.26809  0.46889  Biso   1.000  C
  O3       1.0000 0.00000  0.64601  0.41589  Biso   1.000  O
  N7       1.0000 0.94140  0.64841  0.46051  Biso   1.000  N
  N8       1.0000 0.06169  0.61940  0.51251  Biso   1.000  N
  C32      1.0000 0.95702  0.65550  0.49200  Biso   1.000  C
  C33      1.0000 0.82661  0.29961  0.46130  Biso   1.000  C
  C34      1.0000 0.87331  0.65450  0.44800  Biso   1.000  C
  C35      1.0000 0.01312  0.60351  0.52511  Biso   1.000  C
  C36      1.0000 0.98688  0.60351  0.52511  Biso   1.000  C
  N9       1.0000 0.93831  0.61940  0.51251  Biso   1.000  N
  C37      1.0000 0.76971  0.31171  0.43479  Biso   1.000  C
  C38      1.0000 0.77307  0.33701  0.47600  Biso   1.000  C
  N10      1.0000 0.82170  0.61990  0.45471  Biso   1.000  N
  C39      1.0000 0.01221  0.58091  0.54570  Biso   1.000  C
  C40      1.0000 0.98779  0.58091  0.54570  Biso   1.000  C
  C41      1.0000 0.87091  0.61719  0.52610  Biso   1.000  C
  C42      1.0000 0.71581  0.33829  0.43561  Biso   1.000  C
  C43      1.0000 0.79861  0.34140  0.50501  Biso   1.000  C
  C44      1.0000 0.72509  0.35899  0.46540  Biso   1.000  C
  C45      1.0000 0.79952  0.59350  0.43259  Biso   1.000  C
  C46      1.0000 0.78299  0.61921  0.48280  Biso   1.000  C
  N11      1.0000 0.81808  0.59680  0.50750  Biso   1.000  N
  C47      1.0000 0.73388  0.37339  0.40910  Biso   1.000  C
  C48      1.0000 0.71090  0.40889  0.47530  Biso   1.000  C
  O4       1.0000 0.82549  0.59049  0.40760  Biso   1.000  O
  N12      1.0000 0.75020  0.56770  0.44571  Biso   1.000  N
  C49      1.0000 0.77387  0.55930  0.51840  Biso   1.000  C
  C50      1.0000 0.69437  0.40270  0.40300  Biso   1.000  C
  C51      1.0000 0.67438  0.42789  0.45849  Biso   1.000  C
  C52      1.0000 0.69709  0.54370  0.42471  Biso   1.000  C
  C53      1.0000 0.70381  0.59080  0.47369  Biso   1.000  C
  O5       1.0000 0.81258  0.54109  0.54069  Biso   1.000  O
  N13      1.0000 0.73799  0.55850  0.49461  Biso   1.000  N
  C54      1.0000 0.69512  0.43880  0.42081  Biso   1.000  C
  C55      1.0000 0.65721  0.48021  0.45761  Biso   1.000  C
  N14      1.0000 0.70898  0.50061  0.43200  Biso   1.000  N
  C56      1.0000 0.72098  0.47729  0.40581  Biso   1.000  C
  C57      1.0000 0.68099  0.48730  0.48430  Biso   1.000  C
  C58      1.0000 0.77259  0.47291  0.38950  Biso   1.000  C
  C59      1.0000 0.65172  0.52971  0.50310  Biso   1.000  C
  C60      1.0000 0.45039  0.45929  0.56820  Biso   1.000  C
  N15      1.0000 0.44340  0.41890  0.57910  Biso   1.000  N
  N16      1.0000 0.44292  0.49290  0.59140  Biso   1.000  N
  C61      1.0000 0.37089  0.40031  0.57570  Biso   1.000  C
  C62      1.0000 0.49997  0.39711  0.58121  Biso   1.000  C
  C63      1.0000 0.49997  0.51071  0.60101  Biso   1.000  C
  C64      1.0000 0.37131  0.50959  0.59240  Biso   1.000  C
  C65      1.0000 0.49997  0.46271  0.57081  Biso   1.000  C
  N17      1.0000 0.32039  0.41259  0.60090  Biso   1.000  N
  O6       1.0000 0.49997  0.35641  0.58640  Biso   1.000  O
  N18      1.0000 0.55660  0.41890  0.57910  Biso   1.000  N
  N19      1.0000 0.55708  0.49290  0.59140  Biso   1.000  N
  O7       1.0000 0.49997  0.54239  0.61789  Biso   1.000  O
  N20      1.0000 0.32109  0.48550  0.61100  Biso   1.000  N
  C66      1.0000 0.29517  0.38501  0.62061  Biso   1.000  C
  C67      1.0000 0.28051  0.45180  0.60169  Biso   1.000  C
  C68      1.0000 0.62911  0.40031  0.57570  Biso   1.000  C
  C69      1.0000 0.54961  0.45929  0.56820  Biso   1.000  C
  C70      1.0000 0.62869  0.50959  0.59240  Biso   1.000  C
  C71      1.0000 0.29310  0.50300  0.63611  Biso   1.000  C
  O8       1.0000 0.31581  0.34880  0.62471  Biso   1.000  O
  N21      1.0000 0.25028  0.40211  0.63939  Biso   1.000  N
  C72      1.0000 0.22421  0.44552  0.62430  Biso   1.000  C
  N22      1.0000 0.67961  0.41259  0.60090  Biso   1.000  N
  N23      1.0000 0.67891  0.48550  0.61100  Biso   1.000  N
  N24      1.0000 0.23871  0.47891  0.64760  Biso   1.000  N
  O9       1.0000 0.31469  0.53611  0.65090  Biso   1.000  O
  C73      1.0000 0.19429  0.37961  0.65761  Biso   1.000  C
  C74      1.0000 0.70483  0.38501  0.62061  Biso   1.000  C
  C75      1.0000 0.71949  0.45180  0.60169  Biso   1.000  C
  C76      1.0000 0.70690  0.50300  0.63611  Biso   1.000  C
  C77      1.0000 0.18278  0.49361  0.66769  Biso   1.000  C
  N25      1.0000 0.20011  0.39229  0.68820  Biso   1.000  N
  O10      1.0000 0.68419  0.34880  0.62471  Biso   1.000  O
  N26      1.0000 0.74972  0.40211  0.63939  Biso   1.000  N
  C78      1.0000 0.77579  0.44552  0.62430  Biso   1.000  C
  N27      1.0000 0.76129  0.47891  0.64760  Biso   1.000  N
  O11      1.0000 0.68531  0.53611  0.65090  Biso   1.000  O
  N28      1.0000 0.18992  0.47020  0.69661  Biso   1.000  N
  C79      1.0000 0.15388  0.42739  0.69971  Biso   1.000  C
  C80      1.0000 0.21728  0.36981  0.70929  Biso   1.000  C
  C81      1.0000 0.80571  0.37961  0.65761  Biso   1.000  C
  C82      1.0000 0.81722  0.49361  0.66769  Biso   1.000  C
  C83      1.0000 0.20043  0.48491  0.72201  Biso   1.000  C
  C84      1.0000 0.15111  0.42161  0.73361  Biso   1.000  C
  O12      1.0000 0.24697  0.33440  0.70909  Biso   1.000  O
  N29      1.0000 0.19877  0.38390  0.73721  Biso   1.000  N
  N30      1.0000 0.79989  0.39229  0.68820  Biso   1.000  N
  N31      1.0000 0.81008  0.47020  0.69661  Biso   1.000  N
  N32      1.0000 0.18528  0.45671  0.74580  Biso   1.000  N
  O13      1.0000 0.22442  0.52119  0.72731  Biso   1.000  O
  C85      1.0000 0.19531  0.36089  0.76580  Biso   1.000  C
  C86      1.0000 0.84612  0.42739  0.69971  Biso   1.000  C
  C87      1.0000 0.78272  0.36981  0.70929  Biso   1.000  C
  C88      1.0000 0.79957  0.48491  0.72201  Biso   1.000  C
  C89      1.0000 0.17489  0.47219  0.77799  Biso   1.000  C
  N33      1.0000 0.24409  0.37790  0.78851  Biso   1.000  N
  C90      1.0000 0.84889  0.42161  0.73361  Biso   1.000  C
  O14      1.0000 0.75303  0.33440  0.70909  Biso   1.000  O
  N34      1.0000 0.80123  0.38390  0.73721  Biso   1.000  N
  N35      1.0000 0.81472  0.45671  0.74580  Biso   1.000  N
  O15      1.0000 0.77558  0.52119  0.72731  Biso   1.000  O
  N36      1.0000 0.23428  0.45270  0.79619  Biso   1.000  N
  C91      1.0000 0.29859  0.35501  0.79950  Biso   1.000  C
  C92      1.0000 0.22229  0.41001  0.80779  Biso   1.000  C
  C93      1.0000 0.80469  0.36089  0.76580  Biso   1.000  C
  C94      1.0000 0.82511  0.47219  0.77799  Biso   1.000  C
  C95      1.0000 0.28259  0.47269  0.80790  Biso   1.000  C
  O16      1.0000 0.32162  0.32190  0.78989  Biso   1.000  O
  N37      1.0000 0.32242  0.37388  0.82589  Biso   1.000  N
  C96      1.0000 0.28089  0.40898  0.83339  Biso   1.000  C
  N38      1.0000 0.75591  0.37790  0.78851  Biso   1.000  N
  N39      1.0000 0.76572  0.45270  0.79619  Biso   1.000  N
  O17      1.0000 0.29939  0.51000  0.80269  Biso   1.000  O
  N40      1.0000 0.32018  0.44611  0.82909  Biso   1.000  N
  C97      1.0000 0.36721  0.35231  0.84699  Biso   1.000  C
  C98      1.0000 0.70141  0.35501  0.79950  Biso   1.000  C
  C99      1.0000 0.77771  0.41001  0.80779  Biso   1.000  C
  C100     1.0000 0.71741  0.47269  0.80790  Biso   1.000  C
  C101     1.0000 0.37158  0.46451  0.84930  Biso   1.000  C
  N41      1.0000 0.44010  0.36851  0.84570  Biso   1.000  N
  O18      1.0000 0.67838  0.32190  0.78989  Biso   1.000  O
  N42      1.0000 0.67758  0.37388  0.82589  Biso   1.000  N
  C102     1.0000 0.71911  0.40898  0.83339  Biso   1.000  C
  O19      1.0000 0.70061  0.51000  0.80269  Biso   1.000  O
  N43      1.0000 0.67982  0.44611  0.82909  Biso   1.000  N
  N44      1.0000 0.43962  0.44611  0.84669  Biso   1.000  N
  C103     1.0000 0.46142  0.40731  0.86410  Biso   1.000  C
  O20      1.0000 0.49997  0.34889  0.83910  Biso   1.000  O
  C104     1.0000 0.63279  0.35231  0.84699  Biso   1.000  C
  C105     1.0000 0.62842  0.46451  0.84930  Biso   1.000  C
  C106     1.0000 0.49997  0.46541  0.84060  Biso   1.000  C
  C107     1.0000 0.53858  0.40731  0.86410  Biso   1.000  C
  O21      1.0000 0.49997  0.31121  0.82870  Biso   1.000  O
  N45      1.0000 0.55990  0.36851  0.84570  Biso   1.000  N
  N46      1.0000 0.56038  0.44611  0.84669  Biso   1.000  N
  O22      1.0000 0.51138  0.50250  0.82750  Biso   1.000  O
  O23      1.0000 0.48862  0.50250  0.82750  Biso   1.000  O
  C108     1.0000 0.12839  0.53549  0.34930  Biso   1.000  C
  N47      1.0000 0.17979  0.55389  0.32909  Biso   1.000  N
  N48      1.0000 0.06041  0.55389  0.34669  Biso   1.000  N
  C109     1.0000 0.21738  0.52731  0.30790  Biso   1.000  C
  C110     1.0000 0.21909  0.59102  0.33339  Biso   1.000  C
  C111     1.0000 0.00000  0.53459  0.34060  Biso   1.000  C
  C112     1.0000 0.03860  0.59269  0.36410  Biso   1.000  C
  N49      1.0000 0.26569  0.54730  0.29619  Biso   1.000  N
  O24      1.0000 0.20059  0.49000  0.30269  Biso   1.000  O
  C113     1.0000 0.27769  0.58999  0.30779  Biso   1.000  C
  N50      1.0000 0.17761  0.62612  0.32589  Biso   1.000  N
  O25      1.0000 0.01141  0.49750  0.32750  Biso   1.000  O
  O26      1.0000 0.98859  0.49750  0.32750  Biso   1.000  O
  N51      1.0000 0.93959  0.55389  0.34669  Biso   1.000  N
  N52      1.0000 0.05988  0.63149  0.34570  Biso   1.000  N
  C114     1.0000 0.96140  0.59269  0.36410  Biso   1.000  C
  C115     1.0000 0.32509  0.52781  0.27799  Biso   1.000  C
  N53      1.0000 0.25588  0.62210  0.28851  Biso   1.000  N
  C116     1.0000 0.20139  0.64499  0.29950  Biso   1.000  C
  C117     1.0000 0.13282  0.64769  0.34699  Biso   1.000  C
  C118     1.0000 0.87161  0.53549  0.34930  Biso   1.000  C
  O27      1.0000 0.00000  0.65111  0.33910  Biso   1.000  O
  N54      1.0000 0.94012  0.63149  0.34570  Biso   1.000  N
  N55      1.0000 0.31469  0.54329  0.24580  Biso   1.000  N
  C119     1.0000 0.30472  0.63911  0.26580  Biso   1.000  C
  O28      1.0000 0.17841  0.67810  0.28989  Biso   1.000  O
  N56      1.0000 0.82021  0.55389  0.32909  Biso   1.000  N
  O29      1.0000 0.00000  0.68879  0.32870  Biso   1.000  O
  C120     1.0000 0.86718  0.64769  0.34699  Biso   1.000  C
  C121     1.0000 0.29960  0.51509  0.22201  Biso   1.000  C
  C122     1.0000 0.34892  0.57839  0.23361  Biso   1.000  C
  N57      1.0000 0.30120  0.61610  0.23721  Biso   1.000  N
  C123     1.0000 0.78262  0.52731  0.30790  Biso   1.000  C
  C124     1.0000 0.78091  0.59102  0.33339  Biso   1.000  C
  N58      1.0000 0.82239  0.62612  0.32589  Biso   1.000  N
  O30      1.0000 0.27561  0.47881  0.22731  Biso   1.000  O
  N59      1.0000 0.31010  0.52980  0.19661  Biso   1.000  N
  C125     1.0000 0.34609  0.57261  0.19971  Biso   1.000  C
  C126     1.0000 0.28270  0.63019  0.20929  Biso   1.000  C
  O31      1.0000 0.79941  0.49000  0.30269  Biso   1.000  O
  N60      1.0000 0.73431  0.54730  0.29619  Biso   1.000  N
  C127     1.0000 0.72231  0.58999  0.30779  Biso   1.000  C
  C128     1.0000 0.79861  0.64499  0.29950  Biso   1.000  C
  C129     1.0000 0.31720  0.50639  0.16769  Biso   1.000  C
  N61      1.0000 0.29992  0.60771  0.18820  Biso   1.000  N
  O32      1.0000 0.25300  0.66560  0.20909  Biso   1.000  O
  C130     1.0000 0.67491  0.52781  0.27799  Biso   1.000  C
  N62      1.0000 0.74412  0.62210  0.28851  Biso   1.000  N
  O33      1.0000 0.82159  0.67810  0.28989  Biso   1.000  O
  N63      1.0000 0.26132  0.52109  0.14760  Biso   1.000  N
  C131     1.0000 0.30568  0.62039  0.15761  Biso   1.000  C
  N64      1.0000 0.68531  0.54329  0.24580  Biso   1.000  N
  C132     1.0000 0.69528  0.63911  0.26580  Biso   1.000  C
  C133     1.0000 0.20688  0.49700  0.13611  Biso   1.000  C
  C134     1.0000 0.27582  0.55448  0.12430  Biso   1.000  C
  N65      1.0000 0.24969  0.59789  0.13939  Biso   1.000  N
  C135     1.0000 0.70040  0.51509  0.22201  Biso   1.000  C
  C136     1.0000 0.65108  0.57839  0.23361  Biso   1.000  C
  N66      1.0000 0.69880  0.61610  0.23721  Biso   1.000  N
  O34      1.0000 0.18528  0.46389  0.15090  Biso   1.000  O
  N67      1.0000 0.17889  0.51450  0.11100  Biso   1.000  N
  C137     1.0000 0.21951  0.54820  0.10169  Biso   1.000  C
  C138     1.0000 0.20480  0.61499  0.12061  Biso   1.000  C
  N68      1.0000 0.68990  0.52980  0.19661  Biso   1.000  N
  O35      1.0000 0.72439  0.47881  0.22731  Biso   1.000  O
  C139     1.0000 0.65391  0.57261  0.19971  Biso   1.000  C
  C140     1.0000 0.71730  0.63019  0.20929  Biso   1.000  C
  C141     1.0000 0.12871  0.49041  0.09240  Biso   1.000  C
  N69      1.0000 0.17958  0.58741  0.10090  Biso   1.000  N
  O36      1.0000 0.18422  0.65120  0.12471  Biso   1.000  O
  C142     1.0000 0.68280  0.50639  0.16769  Biso   1.000  C
  N70      1.0000 0.70008  0.60771  0.18820  Biso   1.000  N
  O37      1.0000 0.74700  0.66560  0.20909  Biso   1.000  O
  N71      1.0000 0.05710  0.50710  0.09140  Biso   1.000  N
  C143     1.0000 0.12909  0.59969  0.07570  Biso   1.000  C
  N72      1.0000 0.73868  0.52109  0.14760  Biso   1.000  N
  C144     1.0000 0.69432  0.62039  0.15761  Biso   1.000  C
  C145     1.0000 0.00000  0.48929  0.10101  Biso   1.000  C
  C146     1.0000 0.04959  0.54071  0.06820  Biso   1.000  C
  C147     1.0000 0.00000  0.53729  0.07081  Biso   1.000  C
  N73      1.0000 0.05662  0.58110  0.07910  Biso   1.000  N
  C148     1.0000 0.79312  0.49700  0.13611  Biso   1.000  C
  C149     1.0000 0.72418  0.55448  0.12430  Biso   1.000  C
  N74      1.0000 0.75031  0.59789  0.13939  Biso   1.000  N
  O38      1.0000 0.00000  0.45761  0.11789  Biso   1.000  O
  N75      1.0000 0.94290  0.50710  0.09140  Biso   1.000  N
  C150     1.0000 0.00000  0.60289  0.08121  Biso   1.000  C
  N76      1.0000 0.82111  0.51450  0.11100  Biso   1.000  N
  O39      1.0000 0.81472  0.46389  0.15090  Biso   1.000  O
  C151     1.0000 0.78049  0.54820  0.10169  Biso   1.000  C
  C152     1.0000 0.79520  0.61499  0.12061  Biso   1.000  C
  C153     1.0000 0.95041  0.54071  0.06820  Biso   1.000  C
  C154     1.0000 0.87129  0.49041  0.09240  Biso   1.000  C
  O40      1.0000 0.00000  0.64359  0.08640  Biso   1.000  O
  N77      1.0000 0.94338  0.58110  0.07910  Biso   1.000  N
  N78      1.0000 0.82042  0.58741  0.10090  Biso   1.000  N
  O41      1.0000 0.81578  0.65120  0.12471  Biso   1.000  O
  C155     1.0000 0.87091  0.59969  0.07570  Biso   1.000  C
  O42      1.0000 0.76108  0.65319  0.58209  Biso   1.000  O
  C156     1.0000 0.72759  0.68009  0.59630  Biso   1.000  C
  N79      1.0000 0.70738  0.72091  0.58039  Biso   1.000  N
  N80      1.0000 0.70882  0.68239  0.62340  Biso   1.000  N
  C157     1.0000 0.70509  0.72091  0.55039  Biso   1.000  C
  C158     1.0000 0.66030  0.74279  0.59899  Biso   1.000  C
  C159     1.0000 0.66281  0.72100  0.62770  Biso   1.000  C
  C160     1.0000 0.70312  0.64778  0.64089  Biso   1.000  C
  N81      1.0000 0.75212  0.75511  0.53639  Biso   1.000  N
  C161     1.0000 0.68408  0.78340  0.59770  Biso   1.000  C
  N82      1.0000 0.69651  0.74939  0.64789  Biso   1.000  N
  N83      1.0000 0.75228  0.65201  0.66819  Biso   1.000  N
  C162     1.0000 0.80069  0.74621  0.51339  Biso   1.000  C
  C163     1.0000 0.72519  0.80000  0.53489  Biso   1.000  C
  C164     1.0000 0.68302  0.81949  0.58871  Biso   1.000  C
  N84      1.0000 0.69997  0.78719  0.62140  Biso   1.000  N
  C165     1.0000 0.69437  0.74681  0.67460  Biso   1.000  C
  C166     1.0000 0.80661  0.62341  0.67610  Biso   1.000  C
  C167     1.0000 0.73628  0.67281  0.69520  Biso   1.000  C
  O43      1.0000 0.82869  0.71410  0.50800  Biso   1.000  O
  N85      1.0000 0.82229  0.78470  0.50319  Biso   1.000  N
  C168     1.0000 0.78352  0.81940  0.51310  Biso   1.000  C
  N86      1.0000 0.72973  0.81990  0.55980  Biso   1.000  N
  C169     1.0000 0.71949  0.81971  0.64150  Biso   1.000  C
  N87      1.0000 0.74151  0.71799  0.69139  Biso   1.000  N
  O44      1.0000 0.82693  0.59860  0.65670  Biso   1.000  O
  N88      1.0000 0.82250  0.62521  0.70320  Biso   1.000  N
  C170     1.0000 0.77851  0.65590  0.71829  Biso   1.000  C
  C171     1.0000 0.87502  0.78601  0.47639  Biso   1.000  C
  N89      1.0000 0.81967  0.84489  0.53521  Biso   1.000  N
  C172     1.0000 0.79408  0.84769  0.56149  Biso   1.000  C
  C173     1.0000 0.79211  0.73079  0.71319  Biso   1.000  C
  C174     1.0000 0.87139  0.59910  0.72180  Biso   1.000  C
  N90      1.0000 0.82442  0.69700  0.72681  Biso   1.000  N
  N91      1.0000 0.94002  0.80109  0.48310  Biso   1.000  N
  C175     1.0000 0.87342  0.87819  0.52400  Biso   1.000  C
  O45      1.0000 0.80181  0.87120  0.58191  Biso   1.000  O
  O46      1.0000 0.81402  0.76561  0.71720  Biso   1.000  O
  N92      1.0000 0.94162  0.61439  0.72330  Biso   1.000  N
  C176     1.0000 0.87811  0.70110  0.75119  Biso   1.000  C
  C177     1.0000 0.95852  0.84461  0.48810  Biso   1.000  C
  C178     1.0000 0.00000  0.77559  0.48060  Biso   1.000  C
  N93      1.0000 0.94231  0.86041  0.51790  Biso   1.000  N
  C179     1.0000 0.95068  0.63970  0.75210  Biso   1.000  C
  C180     1.0000 0.00000  0.59789  0.71140  Biso   1.000  C
  N94      1.0000 0.94151  0.68491  0.74650  Biso   1.000  N
  C181     1.0000 0.04148  0.84461  0.48810  Biso   1.000  C
  O47      1.0000 0.98160  0.73919  0.47199  Biso   1.000  O
  O48      1.0000 0.01840  0.73919  0.47199  Biso   1.000  O
  N95      1.0000 0.05998  0.80109  0.48310  Biso   1.000  N
  C182     1.0000 0.00000  0.87250  0.53299  Biso   1.000  C
  N96      1.0000 0.05838  0.61439  0.72330  Biso   1.000  N
  O49      1.0000 0.00000  0.57149  0.69031  Biso   1.000  O
  C183     1.0000 0.00000  0.70521  0.74641  Biso   1.000  C
  N97      1.0000 0.05769  0.86041  0.51790  Biso   1.000  N
  C184     1.0000 0.12498  0.78601  0.47639  Biso   1.000  C
  O50      1.0000 0.00000  0.88820  0.55821  Biso   1.000  O
  C185     1.0000 0.12861  0.59910  0.72180  Biso   1.000  C
  C186     1.0000 0.04932  0.63970  0.75210  Biso   1.000  C
  O51      1.0000 0.98310  0.74699  0.74620  Biso   1.000  O
  N98      1.0000 0.05849  0.68491  0.74650  Biso   1.000  N
  O52      1.0000 0.01690  0.74699  0.74620  Biso   1.000  O
  C187     1.0000 0.12658  0.87819  0.52400  Biso   1.000  C
  N99      1.0000 0.17771  0.78470  0.50319  Biso   1.000  N
  N100     1.0000 0.17750  0.62521  0.70320  Biso   1.000  N
  C188     1.0000 0.12189  0.70110  0.75119  Biso   1.000  C
  N101     1.0000 0.18033  0.84489  0.53521  Biso   1.000  N
  C189     1.0000 0.19931  0.74621  0.51339  Biso   1.000  C
  C190     1.0000 0.21648  0.81940  0.51310  Biso   1.000  C
  C191     1.0000 0.19339  0.62341  0.67610  Biso   1.000  C
  C192     1.0000 0.22149  0.65590  0.71829  Biso   1.000  C
  N102     1.0000 0.17558  0.69700  0.72681  Biso   1.000  N
  C193     1.0000 0.20592  0.84769  0.56149  Biso   1.000  C
  O53      1.0000 0.17131  0.71410  0.50800  Biso   1.000  O
  N103     1.0000 0.24788  0.75511  0.53639  Biso   1.000  N
  C194     1.0000 0.27481  0.80000  0.53489  Biso   1.000  C
  N104     1.0000 0.24772  0.65201  0.66819  Biso   1.000  N
  O54      1.0000 0.17307  0.59860  0.65670  Biso   1.000  O
  C195     1.0000 0.26372  0.67281  0.69520  Biso   1.000  C
  C196     1.0000 0.20789  0.73079  0.71319  Biso   1.000  C
  O55      1.0000 0.19819  0.87120  0.58191  Biso   1.000  O
  N105     1.0000 0.27027  0.81990  0.55980  Biso   1.000  N
  C197     1.0000 0.29491  0.72091  0.55039  Biso   1.000  C
  C198     1.0000 0.29688  0.64778  0.64089  Biso   1.000  C
  N106     1.0000 0.25849  0.71799  0.69139  Biso   1.000  N
  O56      1.0000 0.18598  0.76561  0.71720  Biso   1.000  O
  C199     1.0000 0.31698  0.81949  0.58871  Biso   1.000  C
  N107     1.0000 0.29262  0.72091  0.58039  Biso   1.000  N
  N108     1.0000 0.29118  0.68239  0.62340  Biso   1.000  N
  C200     1.0000 0.30563  0.74681  0.67460  Biso   1.000  C
  C201     1.0000 0.31592  0.78340  0.59770  Biso   1.000  C
  C202     1.0000 0.33970  0.74279  0.59899  Biso   1.000  C
  C203     1.0000 0.27241  0.68009  0.59630  Biso   1.000  C
  C204     1.0000 0.33719  0.72100  0.62770  Biso   1.000  C
  N109     1.0000 0.30349  0.74939  0.64789  Biso   1.000  N
  N110     1.0000 0.29997  0.78719  0.62140  Biso   1.000  N
  O57      1.0000 0.23892  0.65319  0.58209  Biso   1.000  O
  C205     1.0000 0.28051  0.81971  0.64150  Biso   1.000  C
  C206     1.0000 0.13122  0.19260  0.53600  Biso   1.000  C
  N111     1.0000 0.17889  0.15980  0.53240  Biso   1.000  N
  N112     1.0000 0.05668  0.17951  0.54509  Biso   1.000  N
  C207     1.0000 0.21232  0.15321  0.50489  Biso   1.000  C
  C208     1.0000 0.21621  0.13801  0.55631  Biso   1.000  C
  C209     1.0000 0.00000  0.18809  0.53091  Biso   1.000  C
  C210     1.0000 0.03972  0.17140  0.57869  Biso   1.000  C
  N113     1.0000 0.26409  0.12280  0.50639  Biso   1.000  N
  O58      1.0000 0.19179  0.17171  0.47999  Biso   1.000  O
  C211     1.0000 0.27779  0.11270  0.54060  Biso   1.000  C
  N114     1.0000 0.16987  0.11071  0.57371  Biso   1.000  N
  O59      1.0000 0.00000  0.19509  0.50240  Biso   1.000  O
  N115     1.0000 0.94332  0.17951  0.54509  Biso   1.000  N
  N116     1.0000 0.05780  0.13020  0.58771  Biso   1.000  N
  C212     1.0000 0.96028  0.17140  0.57869  Biso   1.000  C
  C213     1.0000 0.31618  0.12131  0.48099  Biso   1.000  C
  N117     1.0000 0.24831  0.06781  0.54591  Biso   1.000  N
  C214     1.0000 0.19808  0.06641  0.56720  Biso   1.000  C
  C215     1.0000 0.12562  0.12240  0.59899  Biso   1.000  C
  C216     1.0000 0.86878  0.19260  0.53600  Biso   1.000  C
  C217     1.0000 0.00000  0.10779  0.59369  Biso   1.000  C
  N118     1.0000 0.94220  0.13020  0.58771  Biso   1.000  N
  N119     1.0000 0.31058  0.07319  0.47199  Biso   1.000  N
  C218     1.0000 0.29480  0.03271  0.54140  Biso   1.000  C
  O60      1.0000 0.17382  0.03709  0.57749  Biso   1.000  O
  N120     1.0000 0.82111  0.15980  0.53240  Biso   1.000  N
  O61      1.0000 0.00000  0.07300  0.60640  Biso   1.000  O
  C219     1.0000 0.87438  0.12240  0.59899  Biso   1.000  C
  C220     1.0000 0.29501  0.07570  0.44100  Biso   1.000  C
  C221     1.0000 0.34162  0.04539  0.48491  Biso   1.000  C
  N121     1.0000 0.29459  0.02381  0.50920  Biso   1.000  N
  C222     1.0000 0.78768  0.15321  0.50489  Biso   1.000  C
  C223     1.0000 0.78379  0.13801  0.55631  Biso   1.000  C
  N122     1.0000 0.83013  0.11071  0.57371  Biso   1.000  N
  N123     1.0000 0.30888  0.03401  0.43461  Biso   1.000  N
  O62      1.0000 0.26702  0.09871  0.42500  Biso   1.000  O
  C224     1.0000 0.34801  0.00619  0.45989  Biso   1.000  C
  C225     1.0000 0.27038  0.98430  0.49880  Biso   1.000  C
  N124     1.0000 0.73591  0.12280  0.50639  Biso   1.000  N
  O63      1.0000 0.80821  0.17171  0.47999  Biso   1.000  O
  C226     1.0000 0.72221  0.11270  0.54060  Biso   1.000  C
  C227     1.0000 0.80192  0.06641  0.56720  Biso   1.000  C
  C228     1.0000 0.31309  0.01769  0.40180  Biso   1.000  C
  N125     1.0000 0.29512  0.97479  0.47161  Biso   1.000  N
  O64      1.0000 0.23919  0.96048  0.51529  Biso   1.000  O
  C229     1.0000 0.68382  0.12131  0.48099  Biso   1.000  C
  N126     1.0000 0.75169  0.06781  0.54591  Biso   1.000  N
  O65      1.0000 0.82618  0.03709  0.57749  Biso   1.000  O
  N127     1.0000 0.25710  0.98940  0.39339  Biso   1.000  N
  C230     1.0000 0.29859  0.93089  0.45471  Biso   1.000  C
  N128     1.0000 0.68942  0.07319  0.47199  Biso   1.000  N
  C231     1.0000 0.70520  0.03271  0.54140  Biso   1.000  C
  C232     1.0000 0.21248  0.99369  0.37411  Biso   1.000  C
  C233     1.0000 0.27561  0.94339  0.40019  Biso   1.000  C
  N129     1.0000 0.24068  0.93170  0.43259  Biso   1.000  N
  C234     1.0000 0.70499  0.07570  0.44100  Biso   1.000  C
  C235     1.0000 0.65838  0.04539  0.48491  Biso   1.000  C
  N130     1.0000 0.70541  0.02381  0.50920  Biso   1.000  N
  O66      1.0000 0.18928  0.03000  0.36421  Biso   1.000  O
  N131     1.0000 0.17713  0.95710  0.36790  Biso   1.000  N
  C236     1.0000 0.21701  0.92271  0.37889  Biso   1.000  C
  C237     1.0000 0.19637  0.90070  0.43001  Biso   1.000  C
  N132     1.0000 0.69112  0.03401  0.43461  Biso   1.000  N
  O67      1.0000 0.73298  0.09871  0.42500  Biso   1.000  O
  C238     1.0000 0.65199  0.00619  0.45989  Biso   1.000  C
  C239     1.0000 0.72962  0.98430  0.49880  Biso   1.000  C
  C240     1.0000 0.12829  0.95100  0.34130  Biso   1.000  C
  N133     1.0000 0.17398  0.89560  0.40001  Biso   1.000  N
  O68      1.0000 0.17681  0.88071  0.45119  Biso   1.000  O
  C241     1.0000 0.68691  0.01769  0.40180  Biso   1.000  C
  N134     1.0000 0.70488  0.97479  0.47161  Biso   1.000  N
  O69      1.0000 0.76081  0.96048  0.51529  Biso   1.000  O
  N135     1.0000 0.05812  0.94059  0.35161  Biso   1.000  N
  C242     1.0000 0.12669  0.86380  0.39049  Biso   1.000  C
  N136     1.0000 0.74290  0.98940  0.39339  Biso   1.000  N
  C243     1.0000 0.70141  0.93089  0.45471  Biso   1.000  C
  C244     1.0000 0.00000  0.96359  0.34971  Biso   1.000  C
  C245     1.0000 0.03759  0.89541  0.35320  Biso   1.000  C
  N137     1.0000 0.05551  0.87670  0.38279  Biso   1.000  N
  C246     1.0000 0.78752  0.99369  0.37411  Biso   1.000  C
  C247     1.0000 0.72439  0.94339  0.40019  Biso   1.000  C
  N138     1.0000 0.75932  0.93170  0.43259  Biso   1.000  N
  N139     1.0000 0.94188  0.94059  0.35161  Biso   1.000  N
  O70      1.0000 0.00000  0.99969  0.34110  Biso   1.000  O
  C248     1.0000 0.96241  0.89541  0.35320  Biso   1.000  C
  C249     1.0000 0.00000  0.86520  0.39620  Biso   1.000  C
  N140     1.0000 0.82287  0.95710  0.36790  Biso   1.000  N
  O71      1.0000 0.81072  0.03000  0.36421  Biso   1.000  O
  C250     1.0000 0.78299  0.92271  0.37889  Biso   1.000  C
  C251     1.0000 0.80363  0.90070  0.43001  Biso   1.000  C
  C252     1.0000 0.87171  0.95100  0.34130  Biso   1.000  C
  N141     1.0000 0.94449  0.87670  0.38279  Biso   1.000  N
  O72      1.0000 0.00000  0.84859  0.42351  Biso   1.000  O
  N142     1.0000 0.82602  0.89560  0.40001  Biso   1.000  N
  O73      1.0000 0.82319  0.88071  0.45119  Biso   1.000  O
  C253     1.0000 0.87331  0.86380  0.39049  Biso   1.000  C
  O74      1.0000 0.49997  0.24651  0.70100  Biso   1.000  O
  C254     1.0000 0.49997  0.24999  0.72670  Biso   1.000  C
  N143     1.0000 0.44052  0.25279  0.74550  Biso   1.000  N
  N144     1.0000 0.55948  0.25279  0.74550  Biso   1.000  N
  C255     1.0000 0.37142  0.26389  0.73250  Biso   1.000  C
  C256     1.0000 0.45758  0.26330  0.77670  Biso   1.000  C
  C257     1.0000 0.54242  0.26330  0.77670  Biso   1.000  C
  C258     1.0000 0.62858  0.26389  0.73250  Biso   1.000  C
  N145     1.0000 0.32242  0.22801  0.73759  Biso   1.000  N
  N146     1.0000 0.43962  0.22901  0.79879  Biso   1.000  N
  N147     1.0000 0.56038  0.22901  0.79879  Biso   1.000  N
  N148     1.0000 0.67758  0.22801  0.73759  Biso   1.000  N
  C259     1.0000 0.29048  0.20811  0.71219  Biso   1.000  C
  C260     1.0000 0.28280  0.21999  0.76660  Biso   1.000  C
  C261     1.0000 0.37169  0.22341  0.80990  Biso   1.000  C
  C262     1.0000 0.49997  0.21570  0.81139  Biso   1.000  C
  C263     1.0000 0.62831  0.22341  0.80990  Biso   1.000  C
  C264     1.0000 0.70952  0.20811  0.71219  Biso   1.000  C
  C265     1.0000 0.71720  0.21999  0.76660  Biso   1.000  C
  N149     1.0000 0.23850  0.18119  0.72309  Biso   1.000  N
  O75      1.0000 0.30008  0.21480  0.68709  Biso   1.000  O
  C266     1.0000 0.22613  0.18840  0.75649  Biso   1.000  C
  N150     1.0000 0.32279  0.20072  0.78869  Biso   1.000  N
  O76      1.0000 0.48531  0.18679  0.83330  Biso   1.000  O
  O77      1.0000 0.51469  0.18679  0.83330  Biso   1.000  O
  N151     1.0000 0.67721  0.20072  0.78869  Biso   1.000  N
  N152     1.0000 0.76150  0.18119  0.72309  Biso   1.000  N
  O78      1.0000 0.69992  0.21480  0.68709  Biso   1.000  O
  C267     1.0000 0.77387  0.18840  0.75649  Biso   1.000  C
  C268     1.0000 0.18299  0.16509  0.70481  Biso   1.000  C
  N153     1.0000 0.25039  0.15019  0.77380  Biso   1.000  N
  C269     1.0000 0.29837  0.16080  0.79340  Biso   1.000  C
  C270     1.0000 0.70163  0.16080  0.79340  Biso   1.000  C
  C271     1.0000 0.81701  0.16509  0.70481  Biso   1.000  C
  N154     1.0000 0.74961  0.15019  0.77380  Biso   1.000  N
  N155     1.0000 0.18630  0.12060  0.70209  Biso   1.000  N
  C272     1.0000 0.20181  0.11649  0.77920  Biso   1.000  C
  O79      1.0000 0.32221  0.13829  0.81429  Biso   1.000  O
  O80      1.0000 0.67779  0.13829  0.81429  Biso   1.000  O
  N156     1.0000 0.81370  0.12060  0.70209  Biso   1.000  N
  C273     1.0000 0.79819  0.11649  0.77920  Biso   1.000  C
  C274     1.0000 0.20443  0.10151  0.67651  Biso   1.000  C
  C275     1.0000 0.15782  0.09290  0.72649  Biso   1.000  C
  N157     1.0000 0.20368  0.08839  0.75309  Biso   1.000  N
  C276     1.0000 0.79557  0.10151  0.67651  Biso   1.000  C
  C277     1.0000 0.84218  0.09290  0.72649  Biso   1.000  C
  N158     1.0000 0.79632  0.08839  0.75309  Biso   1.000  N
  N159     1.0000 0.19339  0.05801  0.68319  Biso   1.000  N
  O81      1.0000 0.23162  0.11391  0.65501  Biso   1.000  O
  C278     1.0000 0.16028  0.05148  0.71070  Biso   1.000  C
  C279     1.0000 0.22533  0.04660  0.75549  Biso   1.000  C
  N160     1.0000 0.80661  0.05801  0.68319  Biso   1.000  N
  O82      1.0000 0.76838  0.11391  0.65501  Biso   1.000  O
  C280     1.0000 0.83972  0.05148  0.71070  Biso   1.000  C
  C281     1.0000 0.77467  0.04660  0.75549  Biso   1.000  C
  C282     1.0000 0.18779  0.03221  0.65829  Biso   1.000  C
  N161     1.0000 0.20299  0.02409  0.73220  Biso   1.000  N
  O83      1.0000 0.25961  0.03249  0.77679  Biso   1.000  O
  C283     1.0000 0.81221  0.03221  0.65829  Biso   1.000  C
  N162     1.0000 0.79701  0.02409  0.73220  Biso   1.000  N
  O84      1.0000 0.74039  0.03249  0.77679  Biso   1.000  O
  N163     1.0000 0.23988  0.99409  0.66151  Biso   1.000  N
  C284     1.0000 0.19291  0.97790  0.73340  Biso   1.000  C
  N164     1.0000 0.76012  0.99409  0.66151  Biso   1.000  N
  C285     1.0000 0.80709  0.97790  0.73340  Biso   1.000  C
  N165     1.0000 0.29539  0.99291  0.63690  Biso   1.000  N
  C286     1.0000 0.22629  0.95859  0.67909  Biso   1.000  C
  N166     1.0000 0.25428  0.96291  0.70841  Biso   1.000  N
  N167     1.0000 0.70461  0.99291  0.63690  Biso   1.000  N
  C287     1.0000 0.77371  0.95859  0.67909  Biso   1.000  C
  N168     1.0000 0.74572  0.96291  0.70841  Biso   1.000  N
  O85      1.0000 0.31927  0.01660  0.62050  Biso   1.000  O
  C288     1.0000 0.32978  0.95389  0.64440  Biso   1.000  C
  C289     1.0000 0.28392  0.92731  0.66681  Biso   1.000  C
  C290     1.0000 0.29677  0.93359  0.71969  Biso   1.000  C
  C291     1.0000 0.67022  0.95389  0.64440  Biso   1.000  C
  O86      1.0000 0.68073  0.01660  0.62050  Biso   1.000  O
  C292     1.0000 0.71608  0.92731  0.66681  Biso   1.000  C
  C293     1.0000 0.70323  0.93359  0.71969  Biso   1.000  C
  C294     1.0000 0.37942  0.93449  0.62211  Biso   1.000  C
  N169     1.0000 0.32450  0.91609  0.69051  Biso   1.000  N
  O87      1.0000 0.32098  0.92899  0.74310  Biso   1.000  O
  C295     1.0000 0.62058  0.93449  0.62211  Biso   1.000  C
  N170     1.0000 0.67550  0.91609  0.69051  Biso   1.000  N
  O88      1.0000 0.67902  0.92899  0.74310  Biso   1.000  O
  N171     1.0000 0.44180  0.92731  0.63350  Biso   1.000  N
  C296     1.0000 0.37201  0.88161  0.69250  Biso   1.000  C
  N172     1.0000 0.55820  0.92731  0.63350  Biso   1.000  N
  C297     1.0000 0.62799  0.88161  0.69250  Biso   1.000  C
  C298     1.0000 0.49997  0.94099  0.62451  Biso   1.000  C
  C299     1.0000 0.45721  0.88519  0.64959  Biso   1.000  C
  N173     1.0000 0.44521  0.88960  0.68181  Biso   1.000  N
  C300     1.0000 0.54279  0.88519  0.64959  Biso   1.000  C
  N174     1.0000 0.55479  0.88960  0.68181  Biso   1.000  N
  O89      1.0000 0.49997  0.97730  0.61039  Biso   1.000  O
  C301     1.0000 0.49997  0.88261  0.70130  Biso   1.000  C
  O90      1.0000 0.48520  0.87909  0.72731  Biso   1.000  O
  O91      1.0000 0.51480  0.87909  0.72731  Biso   1.000  O
  C302     1.0000 0.45071  0.36030  0.25210  Biso   1.000  C
  N175     1.0000 0.44148  0.31509  0.24650  Biso   1.000  N
  N176     1.0000 0.44159  0.38561  0.22330  Biso   1.000  N
  C303     1.0000 0.37809  0.29890  0.25119  Biso   1.000  C
  C304     1.0000 0.49997  0.29479  0.24641  Biso   1.000  C
  C305     1.0000 0.37142  0.40090  0.22180  Biso   1.000  C
  C306     1.0000 0.49997  0.40211  0.21140  Biso   1.000  C
  N177     1.0000 0.32439  0.30300  0.22681  Biso   1.000  N
  N178     1.0000 0.55852  0.31509  0.24650  Biso   1.000  N
  O92      1.0000 0.48312  0.25301  0.24620  Biso   1.000  O
  O93      1.0000 0.51688  0.25301  0.24620  Biso   1.000  O
  N179     1.0000 0.32247  0.37479  0.20320  Biso   1.000  N
  N180     1.0000 0.55841  0.38561  0.22330  Biso   1.000  N
  O94      1.0000 0.49997  0.42851  0.19031  Biso   1.000  O
  C307     1.0000 0.29208  0.26921  0.21319  Biso   1.000  C
  C308     1.0000 0.27849  0.34410  0.21829  Biso   1.000  C
  C309     1.0000 0.62191  0.29890  0.25119  Biso   1.000  C
  C310     1.0000 0.54929  0.36030  0.25210  Biso   1.000  C
  C311     1.0000 0.30658  0.37659  0.17610  Biso   1.000  C
  C312     1.0000 0.62858  0.40090  0.22180  Biso   1.000  C
  O95      1.0000 0.31400  0.23439  0.21720  Biso   1.000  O
  N181     1.0000 0.24148  0.28201  0.19139  Biso   1.000  N
  C313     1.0000 0.23631  0.32719  0.19520  Biso   1.000  C
  N182     1.0000 0.67561  0.30300  0.22681  Biso   1.000  N
  N183     1.0000 0.25231  0.34799  0.16819  Biso   1.000  N
  O96      1.0000 0.32690  0.40140  0.15670  Biso   1.000  O
  N184     1.0000 0.67753  0.37479  0.20320  Biso   1.000  N
  C314     1.0000 0.19440  0.25319  0.17460  Biso   1.000  C
  C315     1.0000 0.70792  0.26921  0.21319  Biso   1.000  C
  C316     1.0000 0.72151  0.34410  0.21829  Biso   1.000  C
  C317     1.0000 0.20309  0.35222  0.14089  Biso   1.000  C
  C318     1.0000 0.69342  0.37659  0.17610  Biso   1.000  C
  N185     1.0000 0.19648  0.25061  0.14789  Biso   1.000  N
  O97      1.0000 0.68600  0.23439  0.21720  Biso   1.000  O
  N186     1.0000 0.75852  0.28201  0.19139  Biso   1.000  N
  C319     1.0000 0.76369  0.32719  0.19520  Biso   1.000  C
  N187     1.0000 0.20880  0.31761  0.12340  Biso   1.000  N
  N188     1.0000 0.74769  0.34799  0.16819  Biso   1.000  N
  O98      1.0000 0.67310  0.40140  0.15670  Biso   1.000  O
  C320     1.0000 0.16278  0.27900  0.12770  Biso   1.000  C
  N189     1.0000 0.20000  0.21281  0.12140  Biso   1.000  N
  C321     1.0000 0.80560  0.25319  0.17460  Biso   1.000  C
  C322     1.0000 0.22762  0.31991  0.09630  Biso   1.000  C
  C323     1.0000 0.79691  0.35222  0.14089  Biso   1.000  C
  C324     1.0000 0.16028  0.25721  0.09899  Biso   1.000  C
  C325     1.0000 0.18411  0.21660  0.09770  Biso   1.000  C
  C326     1.0000 0.21951  0.18029  0.14150  Biso   1.000  C
  N190     1.0000 0.80352  0.25061  0.14789  Biso   1.000  N
  N191     1.0000 0.20741  0.27909  0.08039  Biso   1.000  N
  O99      1.0000 0.26110  0.34681  0.08209  Biso   1.000  O
  N192     1.0000 0.79120  0.31761  0.12340  Biso   1.000  N
  C327     1.0000 0.18299  0.18051  0.08871  Biso   1.000  C
  C328     1.0000 0.83722  0.27900  0.12770  Biso   1.000  C
  N193     1.0000 0.80000  0.21281  0.12140  Biso   1.000  N
  C329     1.0000 0.20512  0.27909  0.05039  Biso   1.000  C
  C330     1.0000 0.77238  0.31991  0.09630  Biso   1.000  C
  N194     1.0000 0.22970  0.18010  0.05980  Biso   1.000  N
  C331     1.0000 0.83972  0.25721  0.09899  Biso   1.000  C
  C332     1.0000 0.81589  0.21660  0.09770  Biso   1.000  C
  C333     1.0000 0.78049  0.18029  0.14150  Biso   1.000  C
  N195     1.0000 0.25209  0.24489  0.03639  Biso   1.000  N
  N196     1.0000 0.79259  0.27909  0.08039  Biso   1.000  N
  O100     1.0000 0.73890  0.34681  0.08209  Biso   1.000  O
  C334     1.0000 0.29411  0.15231  0.06149  Biso   1.000  C
  C335     1.0000 0.22522  0.20000  0.03489  Biso   1.000  C
  C336     1.0000 0.81701  0.18051  0.08871  Biso   1.000  C
  C337     1.0000 0.30072  0.25379  0.01339  Biso   1.000  C
  C338     1.0000 0.79488  0.27909  0.05039  Biso   1.000  C
  O101     1.0000 0.30179  0.12880  0.08191  Biso   1.000  O
  N197     1.0000 0.31970  0.15511  0.03521  Biso   1.000  N
  C339     1.0000 0.28350  0.18060  0.01310  Biso   1.000  C
  N198     1.0000 0.77030  0.18010  0.05980  Biso   1.000  N
  O102     1.0000 0.32871  0.28590  0.00800  Biso   1.000  O
  N199     1.0000 0.32231  0.21530  0.00319  Biso   1.000  N
  N200     1.0000 0.74791  0.24489  0.03639  Biso   1.000  N
  C340     1.0000 0.37339  0.12181  0.02400  Biso   1.000  C
  C341     1.0000 0.70589  0.15231  0.06149  Biso   1.000  C
  C342     1.0000 0.77478  0.20000  0.03489  Biso   1.000  C
  C343     1.0000 0.37499  0.21399  0.97639  Biso   1.000  C
  C344     1.0000 0.69928  0.25379  0.01339  Biso   1.000  C
  N201     1.0000 0.44228  0.13959  0.01790  Biso   1.000  N
  N202     1.0000 0.68030  0.15511  0.03521  Biso   1.000  N
  O103     1.0000 0.69821  0.12880  0.08191  Biso   1.000  O
  C345     1.0000 0.71650  0.18060  0.01310  Biso   1.000  C
  N203     1.0000 0.43999  0.19891  0.98310  Biso   1.000  N
  N204     1.0000 0.67769  0.21530  0.00319  Biso   1.000  N
  O104     1.0000 0.67129  0.28590  0.00800  Biso   1.000  O
  C346     1.0000 0.49997  0.12750  0.03299  Biso   1.000  C
  C347     1.0000 0.45849  0.15539  0.98810  Biso   1.000  C
  C348     1.0000 0.62661  0.12181  0.02400  Biso   1.000  C
  C349     1.0000 0.49997  0.22441  0.98060  Biso   1.000  C
  C350     1.0000 0.62501  0.21399  0.97639  Biso   1.000  C
  O105     1.0000 0.49997  0.11180  0.05821  Biso   1.000  O
  N205     1.0000 0.55772  0.13959  0.01790  Biso   1.000  N
  C351     1.0000 0.54151  0.15539  0.98810  Biso   1.000  C
  O106     1.0000 0.48158  0.26081  0.97199  Biso   1.000  O
  O107     1.0000 0.51842  0.26081  0.97199  Biso   1.000  O
  N206     1.0000 0.56001  0.19891  0.98310  Biso   1.000  N
  C352     1.0000 0.12829  0.77659  0.30990  Biso   1.000  C
  N207     1.0000 0.06041  0.77099  0.29879  Biso   1.000  N
  N208     1.0000 0.17718  0.79928  0.28869  Biso   1.000  N
  C353     1.0000 0.04239  0.73670  0.27670  Biso   1.000  C
  C354     1.0000 0.00000  0.78430  0.31139  Biso   1.000  C
  C355     1.0000 0.21722  0.78001  0.26660  Biso   1.000  C
  C356     1.0000 0.20160  0.83920  0.29340  Biso   1.000  C
  N209     1.0000 0.05950  0.74721  0.24550  Biso   1.000  N
  C357     1.0000 0.95761  0.73670  0.27670  Biso   1.000  C
  N210     1.0000 0.93959  0.77099  0.29879  Biso   1.000  N
  O108     1.0000 0.01472  0.81321  0.33330  Biso   1.000  O
  O109     1.0000 0.98528  0.81321  0.33330  Biso   1.000  O
  N211     1.0000 0.17761  0.77199  0.23759  Biso   1.000  N
  C358     1.0000 0.27390  0.81160  0.25649  Biso   1.000  C
  N212     1.0000 0.24959  0.84981  0.27380  Biso   1.000  N
  O110     1.0000 0.17782  0.86171  0.31429  Biso   1.000  O
  C359     1.0000 0.12861  0.73611  0.23250  Biso   1.000  C
  C360     1.0000 0.00000  0.75001  0.22670  Biso   1.000  C
  N213     1.0000 0.94050  0.74721  0.24550  Biso   1.000  N
  C361     1.0000 0.87171  0.77659  0.30990  Biso   1.000  C
  C362     1.0000 0.20949  0.79189  0.21219  Biso   1.000  C
  N214     1.0000 0.26148  0.81881  0.22309  Biso   1.000  N
  C363     1.0000 0.29821  0.88351  0.27920  Biso   1.000  C
  O111     1.0000 0.00000  0.75349  0.20100  Biso   1.000  O
  C364     1.0000 0.87139  0.73611  0.23250  Biso   1.000  C
  N215     1.0000 0.82282  0.79928  0.28869  Biso   1.000  N
  O112     1.0000 0.19989  0.78520  0.18709  Biso   1.000  O
  C365     1.0000 0.31698  0.83491  0.20481  Biso   1.000  C
  N216     1.0000 0.29629  0.91161  0.25309  Biso   1.000  N
  N217     1.0000 0.82239  0.77199  0.23759  Biso   1.000  N
  C366     1.0000 0.78278  0.78001  0.26660  Biso   1.000  C
  C367     1.0000 0.79840  0.83920  0.29340  Biso   1.000  C
  N218     1.0000 0.31368  0.87940  0.20209  Biso   1.000  N
  C368     1.0000 0.34220  0.90710  0.22649  Biso   1.000  C
  C369     1.0000 0.27470  0.95340  0.25549  Biso   1.000  C
  C370     1.0000 0.79051  0.79189  0.21219  Biso   1.000  C
  C371     1.0000 0.72610  0.81160  0.25649  Biso   1.000  C
  N219     1.0000 0.75041  0.84981  0.27380  Biso   1.000  N
  O113     1.0000 0.82218  0.86171  0.31429  Biso   1.000  O
  C372     1.0000 0.29560  0.89849  0.17651  Biso   1.000  C
  C373     1.0000 0.33970  0.94852  0.21070  Biso   1.000  C
  O114     1.0000 0.24042  0.96751  0.27679  Biso   1.000  O
  N220     1.0000 0.29699  0.97591  0.23220  Biso   1.000  N
  O115     1.0000 0.80011  0.78520  0.18709  Biso   1.000  O
  N221     1.0000 0.73852  0.81881  0.22309  Biso   1.000  N
  C374     1.0000 0.70179  0.88351  0.27920  Biso   1.000  C
  O116     1.0000 0.26841  0.88609  0.15501  Biso   1.000  O
  N222     1.0000 0.30658  0.94199  0.18319  Biso   1.000  N
  C375     1.0000 0.30712  0.02210  0.23340  Biso   1.000  C
  C376     1.0000 0.68302  0.83491  0.20481  Biso   1.000  C
  N223     1.0000 0.70371  0.91161  0.25309  Biso   1.000  N
  C377     1.0000 0.31218  0.96779  0.15829  Biso   1.000  C
  N224     1.0000 0.24569  0.03709  0.20841  Biso   1.000  N
  N225     1.0000 0.68632  0.87940  0.20209  Biso   1.000  N
  C378     1.0000 0.65780  0.90710  0.22649  Biso   1.000  C
  C379     1.0000 0.72530  0.95340  0.25549  Biso   1.000  C
  N226     1.0000 0.26009  0.00591  0.16151  Biso   1.000  N
  C380     1.0000 0.27369  0.04141  0.17909  Biso   1.000  C
  C381     1.0000 0.20320  0.06641  0.21969  Biso   1.000  C
  C382     1.0000 0.70440  0.89849  0.17651  Biso   1.000  C
  C383     1.0000 0.66030  0.94852  0.21070  Biso   1.000  C
  O117     1.0000 0.75958  0.96751  0.27679  Biso   1.000  O
  N227     1.0000 0.70301  0.97591  0.23220  Biso   1.000  N
  N228     1.0000 0.20459  0.00709  0.13690  Biso   1.000  N
  C384     1.0000 0.21610  0.07269  0.16681  Biso   1.000  C
  O118     1.0000 0.17899  0.07101  0.24310  Biso   1.000  O
  N229     1.0000 0.17553  0.08391  0.19051  Biso   1.000  N
  O119     1.0000 0.73159  0.88609  0.15501  Biso   1.000  O
  N230     1.0000 0.69342  0.94199  0.18319  Biso   1.000  N
  C385     1.0000 0.69288  0.02210  0.23340  Biso   1.000  C
  O120     1.0000 0.18070  0.98340  0.12050  Biso   1.000  O
  C386     1.0000 0.17019  0.04611  0.14440  Biso   1.000  C
  C387     1.0000 0.12802  0.11839  0.19250  Biso   1.000  C
  C388     1.0000 0.68782  0.96779  0.15829  Biso   1.000  C
  N231     1.0000 0.75431  0.03709  0.20841  Biso   1.000  N
  C389     1.0000 0.12061  0.06551  0.12211  Biso   1.000  C
  N232     1.0000 0.05481  0.11040  0.18181  Biso   1.000  N
  N233     1.0000 0.73991  0.00591  0.16151  Biso   1.000  N
  C390     1.0000 0.72631  0.04141  0.17909  Biso   1.000  C
  C391     1.0000 0.79680  0.06641  0.21969  Biso   1.000  C
  N234     1.0000 0.05822  0.07269  0.13350  Biso   1.000  N
  C392     1.0000 0.04282  0.11481  0.14959  Biso   1.000  C
  C393     1.0000 0.00000  0.11739  0.20130  Biso   1.000  C
  N235     1.0000 0.79541  0.00709  0.13690  Biso   1.000  N
  C394     1.0000 0.78390  0.07269  0.16681  Biso   1.000  C
  O121     1.0000 0.82101  0.07101  0.24310  Biso   1.000  O
  N236     1.0000 0.82447  0.08391  0.19051  Biso   1.000  N
  C395     1.0000 0.00000  0.05901  0.12451  Biso   1.000  C
  C396     1.0000 0.95718  0.11481  0.14959  Biso   1.000  C
  O122     1.0000 0.98518  0.12091  0.22731  Biso   1.000  O
  N237     1.0000 0.94519  0.11040  0.18181  Biso   1.000  N
  O123     1.0000 0.01482  0.12091  0.22731  Biso   1.000  O
  O124     1.0000 0.81930  0.98340  0.12050  Biso   1.000  O
  C397     1.0000 0.82981  0.04611  0.14440  Biso   1.000  C
  C398     1.0000 0.87198  0.11839  0.19250  Biso   1.000  C
  N238     1.0000 0.94178  0.07269  0.13350  Biso   1.000  N
  O125     1.0000 0.00000  0.02270  0.11039  Biso   1.000  O
  C399     1.0000 0.87939  0.06551  0.12211  Biso   1.000  C
  C400     1.0000 0.27262  0.52709  0.88950  Biso   1.000  C
  C401     1.0000 0.22101  0.52271  0.90581  Biso   1.000  C
  N239     1.0000 0.20901  0.49939  0.93200  Biso   1.000  N
  C402     1.0000 0.19509  0.56120  0.92081  Biso   1.000  C
  C403     1.0000 0.19712  0.45630  0.92471  Biso   1.000  C
  C404     1.0000 0.15718  0.51979  0.95761  Biso   1.000  C
  C405     1.0000 0.17441  0.57211  0.95849  Biso   1.000  C
  C406     1.0000 0.19440  0.59730  0.90300  Biso   1.000  C
  N240     1.0000 0.25023  0.43230  0.94571  Biso   1.000  N
  C407     1.0000 0.18102  0.51270  0.98430  Biso   1.000  C
  C408     1.0000 0.21088  0.59111  0.97530  Biso   1.000  C
  C409     1.0000 0.23391  0.62661  0.90910  Biso   1.000  C
  C410     1.0000 0.29949  0.40650  0.93259  Biso   1.000  C
  C411     1.0000 0.20379  0.40920  0.97369  Biso   1.000  C
  C412     1.0000 0.15169  0.47029  0.00310  Biso   1.000  C
  C413     1.0000 0.22511  0.64101  0.96540  Biso   1.000  C
  C414     1.0000 0.21578  0.66171  0.93561  Biso   1.000  C
  O126     1.0000 0.32551  0.40951  0.90760  Biso   1.000  O
  N241     1.0000 0.32167  0.38010  0.95471  Biso   1.000  N
  N242     1.0000 0.23802  0.44150  0.99461  Biso   1.000  N
  C415     1.0000 0.27310  0.66299  0.97600  Biso   1.000  C
  C416     1.0000 0.26969  0.68829  0.93479  Biso   1.000  C
  C417     1.0000 0.37329  0.34550  0.94800  Biso   1.000  C
  C418     1.0000 0.28302  0.38079  0.98280  Biso   1.000  C
  C419     1.0000 0.27390  0.44070  0.01840  Biso   1.000  C
  C420     1.0000 0.32658  0.70039  0.96130  Biso   1.000  C
  C421     1.0000 0.29859  0.65860  0.00501  Biso   1.000  C
  N243     1.0000 0.44138  0.35159  0.96051  Biso   1.000  N
  N244     1.0000 0.31810  0.40320  0.00750  Biso   1.000  N
  O127     1.0000 0.31261  0.45891  0.04069  Biso   1.000  O
  C422     1.0000 0.39792  0.73191  0.96889  Biso   1.000  C
  C423     1.0000 0.49997  0.35529  0.94211  Biso   1.000  C
  C424     1.0000 0.45700  0.34450  0.99200  Biso   1.000  C
  C425     1.0000 0.37089  0.38281  0.02610  Biso   1.000  C
  C426     1.0000 0.46878  0.72299  0.96361  Biso   1.000  C
  O128     1.0000 0.49997  0.35399  0.91589  Biso   1.000  O
  N245     1.0000 0.55862  0.35159  0.96051  Biso   1.000  N
  C427     1.0000 0.54300  0.34450  0.99200  Biso   1.000  C
  N246     1.0000 0.43828  0.38060  0.01251  Biso   1.000  N
  C428     1.0000 0.47513  0.70769  0.99959  Biso   1.000  C
  C429     1.0000 0.53122  0.72299  0.96361  Biso   1.000  C
  C430     1.0000 0.62671  0.34550  0.94800  Biso   1.000  C
  N247     1.0000 0.56172  0.38060  0.01251  Biso   1.000  N
  C431     1.0000 0.48691  0.39649  0.02511  Biso   1.000  C
  C432     1.0000 0.51309  0.39649  0.02511  Biso   1.000  C
  C433     1.0000 0.52487  0.70769  0.99959  Biso   1.000  C
  C434     1.0000 0.60208  0.73191  0.96889  Biso   1.000  C
  N248     1.0000 0.67833  0.38010  0.95471  Biso   1.000  N
  C435     1.0000 0.62911  0.38281  0.02610  Biso   1.000  C
  C436     1.0000 0.48782  0.41909  0.04570  Biso   1.000  C
  C437     1.0000 0.51218  0.41909  0.04570  Biso   1.000  C
  C438     1.0000 0.67342  0.70039  0.96130  Biso   1.000  C
  C439     1.0000 0.70051  0.40650  0.93259  Biso   1.000  C
  C440     1.0000 0.71698  0.38079  0.98280  Biso   1.000  C
  N249     1.0000 0.68190  0.40320  0.00750  Biso   1.000  N
  C441     1.0000 0.73031  0.68829  0.93479  Biso   1.000  C
  C442     1.0000 0.72690  0.66299  0.97600  Biso   1.000  C
  O129     1.0000 0.67449  0.40951  0.90760  Biso   1.000  O
  N250     1.0000 0.74977  0.43230  0.94571  Biso   1.000  N
  C443     1.0000 0.72610  0.44070  0.01840  Biso   1.000  C
  C444     1.0000 0.78422  0.66171  0.93561  Biso   1.000  C
  C445     1.0000 0.77489  0.64101  0.96540  Biso   1.000  C
  C446     1.0000 0.70141  0.65860  0.00501  Biso   1.000  C
  C447     1.0000 0.80288  0.45630  0.92471  Biso   1.000  C
  C448     1.0000 0.79621  0.40920  0.97369  Biso   1.000  C
  N251     1.0000 0.76198  0.44150  0.99461  Biso   1.000  N
  O130     1.0000 0.68739  0.45891  0.04069  Biso   1.000  O
  C449     1.0000 0.76609  0.62661  0.90910  Biso   1.000  C
  C450     1.0000 0.78912  0.59111  0.97530  Biso   1.000  C
  N252     1.0000 0.79099  0.49939  0.93200  Biso   1.000  N
  C451     1.0000 0.80560  0.59730  0.90300  Biso   1.000  C
  C452     1.0000 0.82559  0.57211  0.95849  Biso   1.000  C
  C453     1.0000 0.77899  0.52271  0.90581  Biso   1.000  C
  C454     1.0000 0.84282  0.51979  0.95761  Biso   1.000  C
  C455     1.0000 0.80491  0.56120  0.92081  Biso   1.000  C
  C456     1.0000 0.72738  0.52709  0.88950  Biso   1.000  C
  C457     1.0000 0.81898  0.51270  0.98430  Biso   1.000  C
  C458     1.0000 0.84831  0.47029  0.00310  Biso   1.000  C
  O131     1.0000 0.31069  0.97000  0.86421  Biso   1.000  O
  C459     1.0000 0.28750  0.00631  0.87411  Biso   1.000  C
  N253     1.0000 0.32290  0.04290  0.86790  Biso   1.000  N
  N254     1.0000 0.24292  0.01060  0.89339  Biso   1.000  N
  C460     1.0000 0.28302  0.07729  0.87889  Biso   1.000  C
  C461     1.0000 0.37169  0.04900  0.84130  Biso   1.000  C
  C462     1.0000 0.18688  0.98231  0.90180  Biso   1.000  C
  C463     1.0000 0.22442  0.05661  0.90019  Biso   1.000  C
  N255     1.0000 0.32599  0.10440  0.90001  Biso   1.000  N
  N256     1.0000 0.44191  0.05941  0.85161  Biso   1.000  N
  N257     1.0000 0.19110  0.96599  0.93461  Biso   1.000  N
  N258     1.0000 0.25929  0.06830  0.93259  Biso   1.000  N
  C464     1.0000 0.30360  0.09930  0.93001  Biso   1.000  C
  C465     1.0000 0.37329  0.13620  0.89049  Biso   1.000  C
  C466     1.0000 0.49997  0.03641  0.84971  Biso   1.000  C
  C467     1.0000 0.46238  0.10459  0.85320  Biso   1.000  C
  C468     1.0000 0.15201  0.99381  0.95989  Biso   1.000  C
  C469     1.0000 0.20501  0.92430  0.94100  Biso   1.000  C
  C470     1.0000 0.20139  0.06911  0.95471  Biso   1.000  C
  O132     1.0000 0.32322  0.11929  0.95119  Biso   1.000  O
  N259     1.0000 0.44452  0.12330  0.88279  Biso   1.000  N
  O133     1.0000 0.49997  0.00031  0.84110  Biso   1.000  O
  N260     1.0000 0.55809  0.05941  0.85161  Biso   1.000  N
  C471     1.0000 0.53762  0.10459  0.85320  Biso   1.000  C
  C472     1.0000 0.15841  0.95461  0.98491  Biso   1.000  C
  N261     1.0000 0.20491  0.02521  0.97161  Biso   1.000  N
  O134     1.0000 0.23300  0.90129  0.92500  Biso   1.000  O
  N262     1.0000 0.18939  0.92681  0.97199  Biso   1.000  N
  C473     1.0000 0.49997  0.13480  0.89620  Biso   1.000  C
  C474     1.0000 0.62831  0.04900  0.84130  Biso   1.000  C
  N263     1.0000 0.55548  0.12330  0.88279  Biso   1.000  N
  N264     1.0000 0.20539  0.97619  0.00920  Biso   1.000  N
  C475     1.0000 0.22959  0.01570  0.99880  Biso   1.000  C
  C476     1.0000 0.18379  0.87869  0.98099  Biso   1.000  C
  O135     1.0000 0.49997  0.15141  0.92351  Biso   1.000  O
  N265     1.0000 0.67710  0.04290  0.86790  Biso   1.000  N
  C477     1.0000 0.62671  0.13620  0.89049  Biso   1.000  C
  C478     1.0000 0.20523  0.96729  0.04140  Biso   1.000  C
  O136     1.0000 0.26078  0.03952  0.01529  Biso   1.000  O
  N266     1.0000 0.23588  0.87720  0.00639  Biso   1.000  N
  C479     1.0000 0.71250  0.00631  0.87411  Biso   1.000  C
  C480     1.0000 0.71698  0.07729  0.87889  Biso   1.000  C
  N267     1.0000 0.67401  0.10440  0.90001  Biso   1.000  N
  N268     1.0000 0.25172  0.93219  0.04591  Biso   1.000  N
  C481     1.0000 0.22218  0.88730  0.04060  Biso   1.000  C
  C482     1.0000 0.28771  0.84679  0.00489  Biso   1.000  C
  O137     1.0000 0.68931  0.97000  0.86421  Biso   1.000  O
  N269     1.0000 0.75708  0.01060  0.89339  Biso   1.000  N
  C483     1.0000 0.77558  0.05661  0.90019  Biso   1.000  C
  C484     1.0000 0.69640  0.09930  0.93001  Biso   1.000  C
  C485     1.0000 0.30189  0.93359  0.06720  Biso   1.000  C
  C486     1.0000 0.28382  0.86199  0.05631  Biso   1.000  C
  O138     1.0000 0.30818  0.82829  0.97999  Biso   1.000  O
  N270     1.0000 0.32109  0.84020  0.03240  Biso   1.000  N
  C487     1.0000 0.81312  0.98231  0.90180  Biso   1.000  C
  N271     1.0000 0.74071  0.06830  0.93259  Biso   1.000  N
  O139     1.0000 0.67678  0.11929  0.95119  Biso   1.000  O
  N272     1.0000 0.33010  0.88929  0.07371  Biso   1.000  N
  O140     1.0000 0.32621  0.96291  0.07749  Biso   1.000  O
  C488     1.0000 0.36881  0.80740  0.03600  Biso   1.000  C
  N273     1.0000 0.80890  0.96599  0.93461  Biso   1.000  N
  C489     1.0000 0.79861  0.06911  0.95471  Biso   1.000  C
  C490     1.0000 0.37441  0.87760  0.09899  Biso   1.000  C
  N274     1.0000 0.44330  0.82049  0.04509  Biso   1.000  N
  C491     1.0000 0.84799  0.99381  0.95989  Biso   1.000  C
  C492     1.0000 0.79499  0.92430  0.94100  Biso   1.000  C
  N275     1.0000 0.79509  0.02521  0.97161  Biso   1.000  N
  N276     1.0000 0.44218  0.86980  0.08771  Biso   1.000  N
  C493     1.0000 0.49997  0.81191  0.03091  Biso   1.000  C
  C494     1.0000 0.46030  0.82860  0.07869  Biso   1.000  C
  C495     1.0000 0.84159  0.95461  0.98491  Biso   1.000  C
  O141     1.0000 0.76700  0.90129  0.92500  Biso   1.000  O
  N277     1.0000 0.81061  0.92681  0.97199  Biso   1.000  N
  C496     1.0000 0.77041  0.01570  0.99880  Biso   1.000  C
  C497     1.0000 0.49997  0.89221  0.09369  Biso   1.000  C
  N278     1.0000 0.55670  0.82049  0.04509  Biso   1.000  N
  O142     1.0000 0.49997  0.80491  0.00240  Biso   1.000  O
  C498     1.0000 0.53970  0.82860  0.07869  Biso   1.000  C
  N279     1.0000 0.79461  0.97619  0.00920  Biso   1.000  N
  C499     1.0000 0.81621  0.87869  0.98099  Biso   1.000  C
  O143     1.0000 0.73922  0.03952  0.01529  Biso   1.000  O
  O144     1.0000 0.49997  0.92700  0.10640  Biso   1.000  O
  N280     1.0000 0.55782  0.86980  0.08771  Biso   1.000  N
  C500     1.0000 0.63119  0.80740  0.03600  Biso   1.000  C
  C501     1.0000 0.79477  0.96729  0.04140  Biso   1.000  C
  N281     1.0000 0.76412  0.87720  0.00639  Biso   1.000  N
  C502     1.0000 0.62559  0.87760  0.09899  Biso   1.000  C
  N282     1.0000 0.67891  0.84020  0.03240  Biso   1.000  N
  N283     1.0000 0.74828  0.93219  0.04591  Biso   1.000  N
  C503     1.0000 0.77782  0.88730  0.04060  Biso   1.000  C
  C504     1.0000 0.71229  0.84679  0.00489  Biso   1.000  C
  N284     1.0000 0.66990  0.88929  0.07371  Biso   1.000  N
  C505     1.0000 0.71618  0.86199  0.05631  Biso   1.000  C
  C506     1.0000 0.69811  0.93359  0.06720  Biso   1.000  C
  O145     1.0000 0.69182  0.82829  0.97999  Biso   1.000  O
  O146     1.0000 0.67379  0.96291  0.07749  Biso   1.000  O
